AV-unprocessed.smi:702|AV-procd|sdf|3421|dock4
  -GOLD-   22720 0403D 1   1.00000     0.00000
 Structure written by MMmdl.
 51 53  0  0  0  0  0  0  0  0  3 V2000
  145.3737  138.4332  154.3197 C   0  0  0  0  0  0  0  0  0  0  0  0
  146.7115  137.6792  154.4487 C   0  0  1  0  0  0  0  0  0  0  0  0
  146.8371  136.7595  153.3112 N   0  0  0  0  0  0  0  0  0  0  0  0
  145.9131  135.8879  152.8783 C   0  0  0  0  0  0  0  0  0  0  0  0
  144.8015  135.7613  153.3907 O   0  0  0  0  0  0  0  0  0  0  0  0
  146.3648  135.1923  151.8203 N   0  0  0  0  0  0  0  0  0  0  0  0
  145.7112  134.1674  151.0818 C   0  0  0  0  0  0  0  0  0  0  0  0
  146.5214  133.1625  150.5075 C   0  0  0  0  0  0  0  0  0  0  0  0
  145.9214  132.1167  149.7768 C   0  0  0  0  0  0  0  0  0  0  0  0
  144.5790  132.0773  149.6382 N   0  3  0  0  0  0  0  0  0  0  0  0
  143.7622  133.0059  150.1799 C   0  0  0  0  0  0  0  0  0  0  0  0
  144.3044  134.0752  150.9219 C   0  0  0  0  0  0  0  0  0  0  0  0
  147.9574  138.6301  154.5856 C   0  0  0  0  0  0  0  0  0  0  0  0
  149.2427  137.8491  154.4125 N   0  3  0  0  0  0  0  0  0  0  0  0
  150.4967  138.6577  154.4576 C   0  0  0  0  0  0  0  0  0  0  0  0
  151.7219  137.7941  154.1123 C   0  0  0  0  0  0  0  0  0  0  0  0
  151.8027  136.6909  155.0013 O   0  0  0  0  0  0  0  0  0  0  0  0
  150.6630  135.8524  154.8920 C   0  0  0  0  0  0  0  0  0  0  0  0
  149.4037  136.6433  155.2815 C   0  0  0  0  0  0  0  0  0  0  0  0
  147.8688  139.7966  153.5538 C   0  0  0  0  0  0  0  0  0  0  0  0
  147.4903  141.0563  154.3347 C   0  0  0  0  0  0  0  0  0  0  0  0
  148.1167  140.8417  155.7067 C   0  0  0  0  0  0  0  0  0  0  0  0
  147.9089  139.3500  155.9728 C   0  0  0  0  0  0  0  0  0  0  0  0
  145.1861  139.0732  155.1815 H   0  0  0  0  0  0  0  0  0  0  0  0
  144.5392  137.7342  154.2548 H   0  0  0  0  0  0  0  0  0  0  0  0
  145.3446  139.0604  153.4285 H   0  0  0  0  0  0  0  0  0  0  0  0
  146.6384  137.0628  155.3422 H   0  0  0  0  0  0  0  0  0  0  0  0
  147.7173  136.7862  152.8169 H   0  0  0  0  0  0  0  0  0  0  0  0
  147.2720  135.4630  151.4696 H   0  0  0  0  0  0  0  0  0  0  0  0
  147.5958  133.1920  150.6191 H   0  0  0  0  0  0  0  0  0  0  0  0
  146.4713  131.3159  149.3041 H   0  0  0  0  0  0  0  0  0  0  0  0
  142.7049  132.8639  150.0096 H   0  0  0  0  0  0  0  0  0  0  0  0
  143.6285  134.7926  151.3609 H   0  0  0  0  0  0  0  0  0  0  0  0
  150.4789  139.4772  153.7440 H   0  0  0  0  0  0  0  0  0  0  0  0
  150.6269  139.0990  155.4462 H   0  0  0  0  0  0  0  0  0  0  0  0
  151.6725  137.4434  153.0802 H   0  0  0  0  0  0  0  0  0  0  0  0
  152.6337  138.3849  154.2024 H   0  0  0  0  0  0  0  0  0  0  0  0
  150.5790  135.4549  153.8792 H   0  0  0  0  0  0  0  0  0  0  0  0
  150.7900  134.9991  155.5586 H   0  0  0  0  0  0  0  0  0  0  0  0
  149.4781  136.9297  156.3299 H   0  0  0  0  0  0  0  0  0  0  0  0
  148.5597  135.9623  155.2063 H   0  0  0  0  0  0  0  0  0  0  0  0
  148.8224  139.9838  153.0639 H   0  0  0  0  0  0  0  0  0  0  0  0
  147.1637  139.5982  152.7463 H   0  0  0  0  0  0  0  0  0  0  0  0
  147.8413  141.9691  153.8523 H   0  0  0  0  0  0  0  0  0  0  0  0
  146.4060  141.1264  154.4290 H   0  0  0  0  0  0  0  0  0  0  0  0
  149.1812  141.0748  155.6686 H   0  0  0  0  0  0  0  0  0  0  0  0
  147.6658  141.4705  156.4749 H   0  0  0  0  0  0  0  0  0  0  0  0
  146.9329  139.2483  156.4456 H   0  0  0  0  0  0  0  0  0  0  0  0
  148.6003  138.9477  156.7120 H   0  0  0  0  0  0  0  0  0  0  0  0
  149.1942  137.4868  153.4707 H   0  0  0  0  0  0  0  0  0  0  0  0
  144.1642  131.3116  149.1062 H   0  0  0  0  0  0  0  0  0  0  0  0
  1  2  1  0  0  0  0
  1 24  1  0  0  0  0
  1 25  1  0  0  0  0
  1 26  1  0  0  0  0
  2  3  1  0  0  0  0
  2 13  1  0  0  0  0
  2 27  1  0  0  0  0
  3  4  1  0  0  0  0
  3 28  1  0  0  0  0
  4  5  2  0  0  0  0
  4  6  1  0  0  0  0
  6  7  1  0  0  0  0
  6 29  1  0  0  0  0
  7 12  1  0  0  0  0
  7  8  2  0  0  0  0
  8  9  1  0  0  0  0
  8 30  1  0  0  0  0
  9 10  2  0  0  0  0
  9 31  1  0  0  0  0
 10 11  1  0  0  0  0
 10 51  1  0  0  0  0
 11 12  2  0  0  0  0
 11 32  1  0  0  0  0
 12 33  1  0  0  0  0
 13 23  1  0  0  0  0
 13 14  1  0  0  0  0
 13 20  1  0  0  0  0
 14 19  1  0  0  0  0
 14 15  1  0  0  0  0
 14 50  1  0  0  0  0
 15 16  1  0  0  0  0
 15 34  1  0  0  0  0
 15 35  1  0  0  0  0
 16 17  1  0  0  0  0
 16 36  1  0  0  0  0
 16 37  1  0  0  0  0
 17 18  1  0  0  0  0
 18 19  1  0  0  0  0
 18 38  1  0  0  0  0
 18 39  1  0  0  0  0
 19 40  1  0  0  0  0
 19 41  1  0  0  0  0
 20 21  1  0  0  0  0
 20 42  1  0  0  0  0
 20 43  1  0  0  0  0
 21 22  1  0  0  0  0
 21 44  1  0  0  0  0
 21 45  1  0  0  0  0
 22 23  1  0  0  0  0
 22 46  1  0  0  0  0
 22 47  1  0  0  0  0
 23 48  1  0  0  0  0
 23 49  1  0  0  0  0
M  CHG  1  10   1
M  CHG  1  14   1
M  END
> <s_m_source_file>
AV-unprocessed.smi

> <i_m_source_file_index>
702

> <i_lp_mmshare_version>
43012

> <i_f3d_flags>
0

> <s_epik_input>
W0NIMl0xW0NIMl1PW0NIMl1bQ0gyXU4xQzIoW0NIMl1bQ0gyXVtDSDJdW0NIMl0yKVtDQEhdKFtDSDNdKVtOSF1DKD1PKVtOSF1jM1tjSF1bY0hdbltjSF1bY0hdMw==

> <s_epik_cmdline>
J2VwaWtfcHl0aG9uJywgJy1waCcsICc3LjAnLCAnLXRuJywgJzgnLCAnLW1hJywgJzIwMCcsICctbWV0YWxfYmluZGluZycsICctaW1hZScsICc8aW5maWxlLm1hZT4nLCAnLW9tYWUnLCAnPG91dGZpbGUubWFlPic=

> <r_epik_Ionization_Penalty>
1.42147

> <r_epik_Ionization_Penalty_Charging>
1.42145

> <r_epik_Ionization_Penalty_Neutral>
1.94713e-05

> <r_epik_State_Penalty>
1.44789

> <r_epik_Charging_Adjusted_Penalty>
2.86934

> <i_epik_Tot_Q>
2

> <i_epik_Tot_abs_Q>
2

> <r_epik_Metal_State_Penalty>
1.5401

> <b_epik_Metal_Only>
0

> <s_lp_Force_Field>
OPLS_2005

> <r_lp_Energy>
62.23

> <b_lp_Chiralities_Consistent>
1

> <s_lp_Variant>
AV-unprocessed.smi:702-6

> <Gold.Version>
5.8.1

> <Gold.Id.Protein>
6NUR|6NUR_protein|mol2

> <Gold.PLP.Fitness>
45.9071

> <Gold.PLP.PLP>
-32.7209

> <Gold.PLP.part.hbond>
-4.0000

> <Gold.PLP.part.metal>
0.0000

> <Gold.PLP.part.buried>
-2.2551

> <Gold.PLP.part.nonpolar>
-26.2067

> <Gold.PLP.part.repulsive>
0.3761

> <Gold.PLP.ligand.clash>
0.0000

> <Gold.PLP.ligand.torsion>
0.5908

> <Gold.PLP.Chemscore.Hbond>
4.7440

> <Gold.PLP.Chemscore.CHOScore>
0.0000

> <Gold.PLP.Chemscore.Metal>
0.0000

> <Gold.Chemscore.Hbonds>
donor molecule, donor type, donor heavy atom, donor atom, acceptor molecule, acceptor atom, score
      L1  H     3    28       P1  7948  1.00
      L1  H     6    29       P1  7948  0.98
      L1  H    14    50       P1  7948  1.98
      P1  H 10752 10764       L1    17  0.71

> <Gold.PLP.Chemscore.Internal.Correction>
0.1358

> <Gold.Rescore>
     Score         DG    S(hbond)    S(metal)    S(lipo)     H(rot)  DE(clash)    DE(int)     intcor
     18.96     -21.76       2.88        0.00      89.31       1.48       0.06       2.74       ----

> <Gold.Chemscore.Fitness>
18.9638

> <Gold.Chemscore.DG>
-21.7571

> <Gold.Chemscore.ZeroCoef>
-5.4800

> <Gold.Chemscore.Hbond>
2.8783

> <Gold.Chemscore.Metal>
0.0000

> <Gold.Chemscore.Lipo>
89.3080

> <Gold.Chemscore.Internal_Hbond>
0.0000

> <Gold.Chemscore.DEClash>
0.0562

> <Gold.Chemscore.DEInternal>
2.7371

> <Gold.Chemscore.Rot>
1.4787

> <Gold.Chemscore.Internal.Correction>
   9.000000E+99

> <Gold.Chemscore.Hbonds>
donor molecule, donor type, donor heavy atom, donor atom, acceptor molecule, acceptor atom, score
      L1  H     3    28       P1  7948  0.99
      L1  H     6    29       P1  7948  0.89
      L1  H    14    50       P1  7948  0.92
      P1  H 10752 10764       L1    17  0.05

> <Gold.Chemscore.Hbond.Weighted>
-9.6135

> <Gold.Chemscore.Metal.Weighted>
-0.0000

> <Gold.Chemscore.Lipo.Weighted>
-10.4490

> <Gold.Chemscore.Internal_Hbond.Weighted>
0.0000

> <Gold.Chemscore.DEClash.Weighted>
0.0562

> <Gold.Chemscore.DEInternal.Weighted>
2.7371

> <Gold.Chemscore.Rot.Weighted>
3.7854

> <Gold.Chemscore.Internal.Correction.Weighted>
   9.000000E+99

> <Gold.Protein.RotatedTorsions>
[ 6907 6896 6895 6894 ] final    3.00 input  -60.11 | X-H torsion
[ 7974 7965 7964 7962 ] final -103.29 input  175.53 | X-H torsion
[ 8008 7997 7996 7995 ] final -124.89 input   59.86 | X-H torsion
[ 10167 10162 10161 10158 ] final   17.54 input  -65.29 | X-H torsion
[ 10718 10713 10712 10709 ] final  -71.87 input   66.30 | X-H torsion
[ 10763 10752 10751 10750 ] final  -87.24 input  -60.55 | X-H torsion
[ 11005 11000 10999 10996 ] final -167.52 input  -57.11 | X-H torsion

> <Gold.Protein.ActiveResidues>
 VAL166  LYS551  ARG553  GLY616  TRP617  ASP618  TYR619  PRO620  LYS621  CYS622 
 ASP623  PHE694  ASN695  SER759  ASP760  ASP761  ALA762  ILE779  LEU786  VAL792 
 PHE793  MET794  SER795  GLU796  ALA797  LYS798  CYS799  TRP800  GLU811  SER814 

> <Gold.Protein.RotatedAtoms>
  151.6180  135.1034  160.0095 H   0  0  0  0  0  0  0  0  0  0  0  0  # atno 6907 bound_to 6896
  152.4173  133.7054  159.6459 H   0  0  0  0  0  0  0  0  0  0  0  0  # atno 6908 bound_to 6896
  150.8061  133.8434  159.3226 H   0  0  0  0  0  0  0  0  0  0  0  0  # atno 6909 bound_to 6896
  145.2578  140.9259  143.3058 H   0  0  0  0  0  0  0  0  0  0  0  0  # atno 7974 bound_to 7965
  155.2044  140.0417  157.2923 H   0  0  0  0  0  0  0  0  0  0  0  0  # atno 8008 bound_to 7997
  154.6053  140.2463  155.7710 H   0  0  0  0  0  0  0  0  0  0  0  0  # atno 8009 bound_to 7997
  156.2346  140.2926  156.0289 H   0  0  0  0  0  0  0  0  0  0  0  0  # atno 8010 bound_to 7997
  140.5718  143.9146  150.6719 H   0  0  0  0  0  0  0  0  0  0  0  0  # atno 10167 bound_to 10162
  156.0344  130.4360  150.2508 H   0  0  0  0  0  0  0  0  0  0  0  0  # atno 10718 bound_to 10713
  154.6314  135.5420  153.7685 H   0  0  0  0  0  0  0  0  0  0  0  0  # atno 10763 bound_to 10752
  153.0286  135.6437  154.1295 H   0  0  0  0  0  0  0  0  0  0  0  0  # atno 10764 bound_to 10752
  154.1225  135.2919  155.3185 H   0  0  0  0  0  0  0  0  0  0  0  0  # atno 10765 bound_to 10752
  140.5523  134.5416  157.5125 H   0  0  0  0  0  0  0  0  0  0  0  0  # atno 11005 bound_to 11000
  144.9446  139.4151  143.6432 LP  0  0  0  0  0  0  0  0  0  0  0  0  # atno 17320 bound_to 7965
  146.3284  139.8422  142.8888 LP  0  0  0  0  0  0  0  0  0  0  0  0  # atno 17321 bound_to 7965
  140.2623  143.3515  152.1311 LP  0  0  0  0  0  0  0  0  0  0  0  0  # atno 17342 bound_to 10162
  139.5122  144.6912  151.5754 LP  0  0  0  0  0  0  0  0  0  0  0  0  # atno 17343 bound_to 10162
  157.0608  131.0089  151.3223 LP  0  0  0  0  0  0  0  0  0  0  0  0  # atno 17370 bound_to 10713
  157.5071  130.7916  149.7666 LP  0  0  0  0  0  0  0  0  0  0  0  0  # atno 17371 bound_to 10713
  139.9449  134.7720  156.0587 LP  0  0  0  0  0  0  0  0  0  0  0  0  # atno 17394 bound_to 11000
  141.1164  133.6626  156.3105 LP  0  0  0  0  0  0  0  0  0  0  0  0  # atno 17395 bound_to 11000

$$$$
