AV-unprocessed.smi:2039|AV-procd|sdf|8285|dock4
  -GOLD-   2272010553D 1   1.00000     0.00000
 Structure written by MMmdl.
 32 33  0  0  0  0  0  0  0  0  2 V2000
  155.0481  135.8168  161.8208 C   0  0  0  0  0  0  0  0  0  0  0  0
  154.4504  136.6462  160.7366 C   0  0  0  0  0  0  0  0  0  0  0  0
  153.3887  136.2529  160.0288 N   0  0  0  0  0  0  0  0  0  0  0  0
  153.0153  137.1941  159.0803 N   0  0  0  0  0  0  0  0  0  0  0  0
  153.7916  138.2872  159.0899 C   0  0  0  0  0  0  0  0  0  0  0  0
  153.5992  139.3154  158.2469 N   0  5  0  0  0  0  0  0  0  0  0  0
  152.3458  139.7574  157.9945 C   0  0  0  0  0  0  0  0  0  0  0  0
  151.7124  140.5769  158.6641 O   0  0  0  0  0  0  0  0  0  0  0  0
  151.7931  139.2171  156.8986 N   0  0  0  0  0  0  0  0  0  0  0  0
  150.4596  139.5034  156.3755 C   0  0  2  0  0  0  0  0  0  0  0  0
  150.2509  138.8175  155.0105 C   0  0  0  0  0  0  0  0  0  0  0  0
  148.8735  139.1559  154.4137 C   0  0  0  0  0  0  0  0  0  0  0  0
  148.6341  140.6748  154.3168 C   0  0  2  0  0  0  0  0  0  0  0  0
  149.4583  141.2345  153.3134 O   0  0  0  0  0  0  0  0  0  0  0  0
  148.8909  141.3769  155.6636 C   0  0  0  0  0  0  0  0  0  0  0  0
  150.2691  141.0258  156.2517 C   0  0  0  0  0  0  0  0  0  0  0  0
  155.0834  138.2212  160.2888 S   0  0  0  0  0  0  0  0  0  0  0  0
  154.4552  135.9111  162.7305 H   0  0  0  0  0  0  0  0  0  0  0  0
  156.0666  136.1442  162.0302 H   0  0  0  0  0  0  0  0  0  0  0  0
  155.0738  134.7680  161.5239 H   0  0  0  0  0  0  0  0  0  0  0  0
  152.3489  138.5500  156.3838 H   0  0  0  0  0  0  0  0  0  0  0  0
  149.7143  139.1272  157.0791 H   0  0  0  0  0  0  0  0  0  0  0  0
  151.0349  139.1270  154.3179 H   0  0  0  0  0  0  0  0  0  0  0  0
  150.3444  137.7360  155.1146 H   0  0  0  0  0  0  0  0  0  0  0  0
  148.7654  138.6911  153.4331 H   0  0  0  0  0  0  0  0  0  0  0  0
  148.1006  138.7150  155.0446 H   0  0  0  0  0  0  0  0  0  0  0  0
  147.6019  140.8534  154.0142 H   0  0  0  0  0  0  0  0  0  0  0  0
  149.5130  140.6240  152.5943 H   0  0  0  0  0  0  0  0  0  0  0  0
  148.7948  142.4574  155.5514 H   0  0  0  0  0  0  0  0  0  0  0  0
  148.1191  141.0759  156.3729 H   0  0  0  0  0  0  0  0  0  0  0  0
  150.3784  141.4953  157.2300 H   0  0  0  0  0  0  0  0  0  0  0  0
  151.0529  141.4470  155.6202 H   0  0  0  0  0  0  0  0  0  0  0  0
  1  2  1  0  0  0  0
  1 18  1  0  0  0  0
  1 19  1  0  0  0  0
  1 20  1  0  0  0  0
  2 17  1  0  0  0  0
  2  3  2  0  0  0  0
  3  4  1  0  0  0  0
  4  5  2  0  0  0  0
  5  6  1  0  0  0  0
  5 17  1  0  0  0  0
  6  7  1  0  0  0  0
  7  8  2  0  0  0  0
  7  9  1  0  0  0  0
  9 10  1  0  0  0  0
  9 21  1  0  0  0  0
 10 16  1  0  0  0  0
 10 11  1  0  0  0  0
 10 22  1  0  0  0  0
 11 12  1  0  0  0  0
 11 23  1  0  0  0  0
 11 24  1  0  0  0  0
 12 13  1  0  0  0  0
 12 25  1  0  0  0  0
 12 26  1  0  0  0  0
 13 14  1  0  0  0  0
 13 15  1  0  0  0  0
 13 27  1  0  0  0  0
 14 28  1  0  0  0  0
 15 16  1  0  0  0  0
 15 29  1  0  0  0  0
 15 30  1  0  0  0  0
 16 31  1  0  0  0  0
 16 32  1  0  0  0  0
M  CHG  1   6  -1
M  END
> <s_m_source_file>
AV-unprocessed.smi

> <i_m_source_file_index>
2039

> <i_lp_mmshare_version>
43012

> <i_f3d_flags>
0

> <s_epik_input>
W0NIM11jMW5uYyhzMSlbTkhdQyg9TylbTkhdW0NAQEhdMltDSDJdW0NIMl1bQ0BASF0oW09IXSlbQ0gyXVtDSDJdMg==

> <s_epik_cmdline>
J2VwaWtfcHl0aG9uJywgJy1waCcsICc3LjAnLCAnLXRuJywgJzgnLCAnLW1hJywgJzIwMCcsICctbWV0YWxfYmluZGluZycsICctaW1hZScsICc8aW5maWxlLm1hZT4nLCAnLW9tYWUnLCAnPG91dGZpbGUubWFlPic=

> <r_lp_tautomer_probability>
1

> <r_epik_Ionization_Penalty>
4.54927

> <r_epik_Ionization_Penalty_Charging>
4.39069

> <r_epik_Ionization_Penalty_Neutral>
0.158583

> <r_epik_State_Penalty>
4.39033

> <r_epik_Charging_Adjusted_Penalty>
8.78102

> <i_epik_Tot_Q>
-1

> <i_epik_Tot_abs_Q>
1

> <r_epik_Metal_State_Penalty>
0.767247

> <b_epik_Metal_Only>
1

> <s_lp_Force_Field>
OPLS_2005

> <r_lp_Energy>
8.24255

> <b_lp_Chiralities_Consistent>
1

> <s_lp_Variant>
AV-unprocessed.smi:2039-4

> <Gold.Version>
5.8.1

> <Gold.Id.Protein>
6NUR|6NUR_protein|mol2

> <Gold.PLP.Fitness>
34.8321

> <Gold.PLP.PLP>
-22.3570

> <Gold.PLP.part.hbond>
-4.3691

> <Gold.PLP.part.metal>
0.0000

> <Gold.PLP.part.buried>
-3.9986

> <Gold.PLP.part.nonpolar>
-14.6515

> <Gold.PLP.part.repulsive>
0.0804

> <Gold.PLP.ligand.clash>
0.0000

> <Gold.PLP.ligand.torsion>
1.1420

> <Gold.PLP.Chemscore.Hbond>
4.9175

> <Gold.PLP.Chemscore.CHOScore>
0.0000

> <Gold.PLP.Chemscore.Metal>
0.0000

> <Gold.Chemscore.Hbonds>
donor molecule, donor type, donor heavy atom, donor atom, acceptor molecule, acceptor atom, score
      L1  H    14    28       P1  7957  1.00
      P1  H  6896  6907       L1     3  1.00
      P1  H  7989  7998       L1    14  0.01
      P1  H  7997  8008       L1     6  2.00
      P1  H  8011  8017       L1    14  0.50

> <Gold.PLP.Chemscore.Internal.Correction>
0.0065

> <Gold.Rescore>
     Score         DG    S(hbond)    S(metal)    S(lipo)     H(rot)  DE(clash)    DE(int)     intcor
     16.08     -18.34       3.24        0.00      50.03       1.49       0.08       2.18       ----

> <Gold.Chemscore.Fitness>
16.0758

> <Gold.Chemscore.DG>
-18.3354

> <Gold.Chemscore.ZeroCoef>
-5.4800

> <Gold.Chemscore.Hbond>
3.2364

> <Gold.Chemscore.Metal>
0.0000

> <Gold.Chemscore.Lipo>
50.0282

> <Gold.Chemscore.Internal_Hbond>
0.0000

> <Gold.Chemscore.DEClash>
0.0811

> <Gold.Chemscore.DEInternal>
2.1786

> <Gold.Chemscore.Rot>
1.4873

> <Gold.Chemscore.Internal.Correction>
   9.000000E+99

> <Gold.Chemscore.Hbonds>
donor molecule, donor type, donor heavy atom, donor atom, acceptor molecule, acceptor atom, score
      L1  H    14    28       P1  7957  0.94
      P1  H  6896  6907       L1     3  0.74
      P1  H  7997  8008       L1     6  0.74
      P1  H  8011  8017       L1    14  0.02

> <Gold.Chemscore.Hbond.Weighted>
-10.8096

> <Gold.Chemscore.Metal.Weighted>
-0.0000

> <Gold.Chemscore.Lipo.Weighted>
-5.8533

> <Gold.Chemscore.Internal_Hbond.Weighted>
0.0000

> <Gold.Chemscore.DEClash.Weighted>
0.0811

> <Gold.Chemscore.DEInternal.Weighted>
2.1786

> <Gold.Chemscore.Rot.Weighted>
3.8075

> <Gold.Chemscore.Internal.Correction.Weighted>
   9.000000E+99

> <Gold.Protein.RotatedTorsions>
[ 6907 6896 6895 6894 ] final   41.46 input  -60.11 | X-H torsion
[ 7974 7965 7964 7962 ] final   31.61 input  175.53 | X-H torsion
[ 8008 7997 7996 7995 ] final  -95.60 input   59.86 | X-H torsion
[ 10167 10162 10161 10158 ] final   -0.21 input  -65.29 | X-H torsion
[ 10718 10713 10712 10709 ] final  150.83 input   66.30 | X-H torsion
[ 10763 10752 10751 10750 ] final   47.76 input  -60.55 | X-H torsion
[ 11005 11000 10999 10996 ] final  -15.04 input  -57.11 | X-H torsion

> <Gold.Protein.ActiveResidues>
 VAL166  LYS551  ARG553  GLY616  TRP617  ASP618  TYR619  PRO620  LYS621  CYS622 
 ASP623  PHE694  ASN695  SER759  ASP760  ASP761  ALA762  ILE779  LEU786  VAL792 
 PHE793  MET794  SER795  GLU796  ALA797  LYS798  CYS799  TRP800  GLU811  SER814 

> <Gold.Protein.RotatedAtoms>
  152.1955  134.8634  160.0513 H   0  0  0  0  0  0  0  0  0  0  0  0  # atno 6907 bound_to 6896
  151.9507  133.3660  159.4007 H   0  0  0  0  0  0  0  0  0  0  0  0  # atno 6908 bound_to 6896
  150.6944  134.4267  159.5273 H   0  0  0  0  0  0  0  0  0  0  0  0  # atno 6909 bound_to 6896
  146.1539  139.6634  142.9080 H   0  0  0  0  0  0  0  0  0  0  0  0  # atno 7974 bound_to 7965
  154.7635  140.0478  157.0993 H   0  0  0  0  0  0  0  0  0  0  0  0  # atno 8008 bound_to 7997
  154.9909  140.3113  155.4887 H   0  0  0  0  0  0  0  0  0  0  0  0  # atno 8009 bound_to 7997
  156.2908  140.2219  156.5013 H   0  0  0  0  0  0  0  0  0  0  0  0  # atno 8010 bound_to 7997
  140.6757  143.6921  150.8019 H   0  0  0  0  0  0  0  0  0  0  0  0  # atno 10167 bound_to 10162
  157.2785  131.0831  151.1549 H   0  0  0  0  0  0  0  0  0  0  0  0  # atno 10718 bound_to 10713
  152.9797  135.5966  154.3816 H   0  0  0  0  0  0  0  0  0  0  0  0  # atno 10763 bound_to 10752
  154.3480  135.2767  155.2389 H   0  0  0  0  0  0  0  0  0  0  0  0  # atno 10764 bound_to 10752
  154.4441  135.6006  153.6203 H   0  0  0  0  0  0  0  0  0  0  0  0  # atno 10765 bound_to 10752
  140.7925  133.8276  155.9393 H   0  0  0  0  0  0  0  0  0  0  0  0  # atno 11005 bound_to 11000
  145.4756  141.0437  143.2674 LP  0  0  0  0  0  0  0  0  0  0  0  0  # atno 17320 bound_to 7965
  144.7938  139.6274  143.7101 LP  0  0  0  0  0  0  0  0  0  0  0  0  # atno 17321 bound_to 7965
  140.0614  143.5151  152.2626 LP  0  0  0  0  0  0  0  0  0  0  0  0  # atno 17342 bound_to 10162
  139.6049  144.7593  151.3085 LP  0  0  0  0  0  0  0  0  0  0  0  0  # atno 17343 bound_to 10162
  157.2992  130.6834  149.6155 LP  0  0  0  0  0  0  0  0  0  0  0  0  # atno 17370 bound_to 10713
  155.9664  130.4397  150.5270 LP  0  0  0  0  0  0  0  0  0  0  0  0  # atno 17371 bound_to 10713
  140.9375  134.1943  157.4821 LP  0  0  0  0  0  0  0  0  0  0  0  0  # atno 17394 bound_to 11000
  139.8729  134.9858  156.5298 LP  0  0  0  0  0  0  0  0  0  0  0  0  # atno 17395 bound_to 11000

$$$$
