AV-unprocessed.smi:1047|AV-procd|sdf|4565|dock9
  -GOLD-   22720 3 13D 1   1.00000     0.00000
 Structure written by MMmdl.
 57 59  0  0  0  0  0  0  0  0  3 V2000
  146.7011  133.4757  151.6526 C   0  0  0  0  0  0  0  0  0  0  0  0
  147.0021  132.2803  152.5675 C   0  0  0  0  0  0  0  0  0  0  0  0
  148.4608  132.0686  152.7676 N   0  3  2  0  0  0  0  0  0  0  0  0
  148.7745  130.9858  153.7316 C   0  0  0  0  0  0  0  0  0  0  0  0
  148.5949  131.4648  155.1830 C   0  0  0  0  0  0  0  0  0  0  0  0
  149.4092  132.6099  155.4067 O   0  0  0  0  0  0  0  0  0  0  0  0
  149.0507  133.7098  154.5756 C   0  0  1  0  0  0  0  0  0  0  0  0
  149.9507  134.8984  154.9469 C   0  0  0  0  0  0  0  0  0  0  0  0
  149.2881  136.1863  154.6575 N   0  3  0  0  0  0  0  0  0  0  0  0
  149.8727  137.3375  155.3731 C   0  0  0  0  0  0  0  0  0  0  0  0
  150.4011  138.3994  154.3901 C   0  0  1  0  0  0  0  0  0  0  0  0
  149.4727  138.5305  153.3309 O   0  0  0  0  0  0  0  0  0  0  0  0
  150.6305  139.7823  155.0386 C   0  0  0  0  0  0  0  0  0  0  0  0
  151.4888  139.7407  156.2117 N   0  0  0  0  0  0  0  0  0  0  0  0
  152.2326  138.7012  156.6379 C   0  0  0  0  0  0  0  0  0  0  0  0
  152.9563  138.8804  157.7387 N   0  0  0  0  0  0  0  0  0  0  0  0
  152.6395  140.1858  158.0718 C   0  0  0  0  0  0  0  0  0  0  0  0
  153.0782  140.9899  159.1461 C   0  0  0  0  0  0  0  0  0  0  0  0
  152.6179  142.3176  159.2931 C   0  0  0  0  0  0  0  0  0  0  0  0
  153.1153  143.1462  160.4643 C   0  0  0  0  0  0  0  0  0  0  0  0
  151.7022  142.8599  158.3560 C   0  0  0  0  0  0  0  0  0  0  0  0
  151.1920  144.2834  158.4952 C   0  0  0  0  0  0  0  0  0  0  0  0
  151.2529  142.0701  157.2773 C   0  0  0  0  0  0  0  0  0  0  0  0
  151.7204  140.7509  157.1400 C   0  0  0  0  0  0  0  0  0  0  0  0
  149.2324  133.2952  153.0978 C   0  0  0  0  0  0  0  0  0  0  0  0
  145.6326  133.5381  151.4454 H   0  0  0  0  0  0  0  0  0  0  0  0
  147.2156  133.3800  150.6961 H   0  0  0  0  0  0  0  0  0  0  0  0
  146.9962  134.4232  152.1020 H   0  0  0  0  0  0  0  0  0  0  0  0
  146.4875  132.3926  153.5215 H   0  0  0  0  0  0  0  0  0  0  0  0
  146.5784  131.3924  152.0962 H   0  0  0  0  0  0  0  0  0  0  0  0
  148.1648  130.1030  153.5352 H   0  0  0  0  0  0  0  0  0  0  0  0
  149.8107  130.6805  153.5794 H   0  0  0  0  0  0  0  0  0  0  0  0
  147.5505  131.6935  155.4004 H   0  0  0  0  0  0  0  0  0  0  0  0
  148.8968  130.6791  155.8757 H   0  0  0  0  0  0  0  0  0  0  0  0
  148.0115  133.9855  154.7610 H   0  0  0  0  0  0  0  0  0  0  0  0
  150.2192  134.8528  156.0035 H   0  0  0  0  0  0  0  0  0  0  0  0
  150.8799  134.8517  154.3776 H   0  0  0  0  0  0  0  0  0  0  0  0
  149.3354  136.3661  153.6650 H   0  0  0  0  0  0  0  0  0  0  0  0
  149.1244  137.7672  156.0409 H   0  0  0  0  0  0  0  0  0  0  0  0
  150.6900  136.9754  155.9978 H   0  0  0  0  0  0  0  0  0  0  0  0
  151.3470  138.0612  153.9651 H   0  0  0  0  0  0  0  0  0  0  0  0
  149.3062  137.6736  152.9670 H   0  0  0  0  0  0  0  0  0  0  0  0
  151.0794  140.4604  154.3119 H   0  0  0  0  0  0  0  0  0  0  0  0
  149.6774  140.2312  155.3226 H   0  0  0  0  0  0  0  0  0  0  0  0
  152.2490  137.7611  156.1058 H   0  0  0  0  0  0  0  0  0  0  0  0
  153.7747  140.5761  159.8606 H   0  0  0  0  0  0  0  0  0  0  0  0
  152.2804  143.4644  161.0890 H   0  0  0  0  0  0  0  0  0  0  0  0
  153.6407  144.0330  160.1092 H   0  0  0  0  0  0  0  0  0  0  0  0
  153.8035  142.5780  161.0909 H   0  0  0  0  0  0  0  0  0  0  0  0
  150.5075  144.5418  157.6868 H   0  0  0  0  0  0  0  0  0  0  0  0
  152.0207  144.9915  158.4710 H   0  0  0  0  0  0  0  0  0  0  0  0
  150.6581  144.4066  159.4377 H   0  0  0  0  0  0  0  0  0  0  0  0
  150.5534  142.4715  156.5594 H   0  0  0  0  0  0  0  0  0  0  0  0
  150.2864  133.0857  152.9100 H   0  0  0  0  0  0  0  0  0  0  0  0
  148.9672  134.1149  152.4314 H   0  0  0  0  0  0  0  0  0  0  0  0
  148.3166  136.1148  154.9270 H   0  0  0  0  0  0  0  0  0  0  0  0
  148.8020  131.7454  151.8731 H   0  0  0  0  0  0  0  0  0  0  0  0
  1  2  1  0  0  0  0
  1 26  1  0  0  0  0
  1 27  1  0  0  0  0
  1 28  1  0  0  0  0
  2  3  1  0  0  0  0
  2 29  1  0  0  0  0
  2 30  1  0  0  0  0
  3 25  1  0  0  0  0
  3  4  1  0  0  0  0
  3 57  1  0  0  0  0
  4  5  1  0  0  0  0
  4 31  1  0  0  0  0
  4 32  1  0  0  0  0
  5  6  1  0  0  0  0
  5 33  1  0  0  0  0
  5 34  1  0  0  0  0
  6  7  1  0  0  0  0
  7  8  1  0  0  0  0
  7 25  1  0  0  0  0
  7 35  1  0  0  0  0
  8  9  1  0  0  0  0
  8 36  1  0  0  0  0
  8 37  1  0  0  0  0
  9 10  1  0  0  0  0
  9 38  1  0  0  0  0
  9 56  1  0  0  0  0
 10 11  1  0  0  0  0
 10 39  1  0  0  0  0
 10 40  1  0  0  0  0
 11 12  1  0  0  0  0
 11 13  1  0  0  0  0
 11 41  1  0  0  0  0
 12 42  1  0  0  0  0
 13 14  1  0  0  0  0
 13 43  1  0  0  0  0
 13 44  1  0  0  0  0
 14 24  1  0  0  0  0
 14 15  1  0  0  0  0
 15 16  2  0  0  0  0
 15 45  1  0  0  0  0
 16 17  1  0  0  0  0
 17 24  2  0  0  0  0
 17 18  1  0  0  0  0
 18 19  2  0  0  0  0
 18 46  1  0  0  0  0
 19 20  1  0  0  0  0
 19 21  1  0  0  0  0
 20 47  1  0  0  0  0
 20 48  1  0  0  0  0
 20 49  1  0  0  0  0
 21 22  1  0  0  0  0
 21 23  2  0  0  0  0
 22 50  1  0  0  0  0
 22 51  1  0  0  0  0
 22 52  1  0  0  0  0
 23 24  1  0  0  0  0
 23 53  1  0  0  0  0
 25 54  1  0  0  0  0
 25 55  1  0  0  0  0
M  CHG  1   3   1
M  CHG  1   9   1
M  END
> <s_m_source_file>
AV-unprocessed.smi

> <i_m_source_file_index>
1047

> <i_lp_mmshare_version>
43012

> <i_f3d_flags>
0

> <s_epik_input>
W0NIM11bQ0gyXU4xW0NIMl1bQ0gyXU9bQ0BIXShbQ0gyXTEpW0NIMl1bTkhdW0NIMl1bQ0BIXShbT0hdKVtDSDJdbihbY0hdbjIpYyhjMjMpW2NIXWMoW0NIM10pYyhbY0hdMylbQ0gzXQ==

> <s_epik_cmdline>
J2VwaWtfcHl0aG9uJywgJy1waCcsICc3LjAnLCAnLXRuJywgJzgnLCAnLW1hJywgJzIwMCcsICctbWV0YWxfYmluZGluZycsICctaW1hZScsICc8aW5maWxlLm1hZT4nLCAnLW9tYWUnLCAnPG91dGZpbGUubWFlPic=

> <r_epik_Ionization_Penalty>
0.528991

> <r_epik_Ionization_Penalty_Charging>
0.438567

> <r_epik_Ionization_Penalty_Neutral>
0.0904237

> <r_epik_State_Penalty>
0.533036

> <r_epik_Charging_Adjusted_Penalty>
0.971603

> <i_epik_Tot_Q>
2

> <i_epik_Tot_abs_Q>
2

> <r_epik_Metal_State_Penalty>
0.448985

> <b_epik_Metal_Only>
0

> <s_lp_Force_Field>
OPLS_2005

> <r_lp_Energy>
30.0062

> <b_lp_Chiralities_Consistent>
1

> <s_lp_Variant>
AV-unprocessed.smi:1047-6

> <Gold.Version>
5.8.1

> <Gold.Id.Protein>
6NUR|6NUR_protein|mol2

> <Gold.PLP.Fitness>
58.7067

> <Gold.PLP.PLP>
-48.7816

> <Gold.PLP.part.hbond>
-4.4383

> <Gold.PLP.part.metal>
0.0000

> <Gold.PLP.part.buried>
-4.9747

> <Gold.PLP.part.nonpolar>
-39.1523

> <Gold.PLP.part.repulsive>
0.0121

> <Gold.PLP.ligand.clash>
0.0000

> <Gold.PLP.ligand.torsion>
1.1155

> <Gold.PLP.Chemscore.Hbond>
4.0000

> <Gold.PLP.Chemscore.CHOScore>
0.0000

> <Gold.PLP.Chemscore.Metal>
0.0000

> <Gold.Chemscore.Hbonds>
donor molecule, donor type, donor heavy atom, donor atom, acceptor molecule, acceptor atom, score
      L1  H     3    57       P1 10747  1.00
      L1  H     9    38       P1  7948  2.00
      L1  H    12    42       P1  7948  1.00

> <Gold.PLP.Chemscore.Internal.Correction>
0.1560

> <Gold.Rescore>
     Score         DG    S(hbond)    S(metal)    S(lipo)     H(rot)  DE(clash)    DE(int)     intcor
     21.17     -23.52       2.96        0.00     128.58       2.70       0.55       1.79       ----

> <Gold.Chemscore.Fitness>
21.1744

> <Gold.Chemscore.DG>
-23.5167

> <Gold.Chemscore.ZeroCoef>
-5.4800

> <Gold.Chemscore.Hbond>
2.9644

> <Gold.Chemscore.Metal>
0.0000

> <Gold.Chemscore.Lipo>
128.5785

> <Gold.Chemscore.Internal_Hbond>
0.0000

> <Gold.Chemscore.DEClash>
0.5520

> <Gold.Chemscore.DEInternal>
1.7903

> <Gold.Chemscore.Rot>
2.6985

> <Gold.Chemscore.Internal.Correction>
   9.000000E+99

> <Gold.Chemscore.Hbonds>
donor molecule, donor type, donor heavy atom, donor atom, acceptor molecule, acceptor atom, score
      L1  H     3    57       P1 10747  0.96
      L1  H     9    38       P1  7948  0.85
      L1  H    12    42       P1  7948  0.96

> <Gold.Chemscore.Hbond.Weighted>
-9.9011

> <Gold.Chemscore.Metal.Weighted>
-0.0000

> <Gold.Chemscore.Lipo.Weighted>
-15.0437

> <Gold.Chemscore.Internal_Hbond.Weighted>
0.0000

> <Gold.Chemscore.DEClash.Weighted>
0.5520

> <Gold.Chemscore.DEInternal.Weighted>
1.7903

> <Gold.Chemscore.Rot.Weighted>
6.9081

> <Gold.Chemscore.Internal.Correction.Weighted>
   9.000000E+99

> <Gold.Protein.RotatedTorsions>
[ 6907 6896 6895 6894 ] final  139.67 input  -60.11 | X-H torsion
[ 7974 7965 7964 7962 ] final   54.46 input  175.53 | X-H torsion
[ 8008 7997 7996 7995 ] final  -61.09 input   59.86 | X-H torsion
[ 10167 10162 10161 10158 ] final  -44.25 input  -65.29 | X-H torsion
[ 10718 10713 10712 10709 ] final  -10.00 input   66.30 | X-H torsion
[ 10763 10752 10751 10750 ] final -132.81 input  -60.55 | X-H torsion
[ 11005 11000 10999 10996 ] final -136.96 input  -57.11 | X-H torsion

> <Gold.Protein.ActiveResidues>
 VAL166  LYS551  ARG553  GLY616  TRP617  ASP618  TYR619  PRO620  LYS621  CYS622 
 ASP623  PHE694  ASN695  SER759  ASP760  ASP761  ALA762  ILE779  LEU786  VAL792 
 PHE793  MET794  SER795  GLU796  ALA797  LYS798  CYS799  TRP800  GLU811  SER814 

> <Gold.Protein.RotatedAtoms>
  152.2522  133.5225  159.5331 H   0  0  0  0  0  0  0  0  0  0  0  0  # atno 6907 bound_to 6896
  150.7097  134.0945  159.3952 H   0  0  0  0  0  0  0  0  0  0  0  0  # atno 6908 bound_to 6896
  151.8864  135.0433  160.0544 H   0  0  0  0  0  0  0  0  0  0  0  0  # atno 6909 bound_to 6896
  145.9606  139.4056  143.0250 H   0  0  0  0  0  0  0  0  0  0  0  0  # atno 7974 bound_to 7965
  154.4431  140.1025  156.6376 H   0  0  0  0  0  0  0  0  0  0  0  0  # atno 8008 bound_to 7997
  155.5536  140.3486  155.4456 H   0  0  0  0  0  0  0  0  0  0  0  0  # atno 8009 bound_to 7997
  156.0511  140.1304  157.0038 H   0  0  0  0  0  0  0  0  0  0  0  0  # atno 8010 bound_to 7997
  140.6904  143.2940  151.3469 H   0  0  0  0  0  0  0  0  0  0  0  0  # atno 10167 bound_to 10162
  156.6799  130.5034  149.5974 H   0  0  0  0  0  0  0  0  0  0  0  0  # atno 10718 bound_to 10713
  154.8739  135.3786  154.4471 H   0  0  0  0  0  0  0  0  0  0  0  0  # atno 10763 bound_to 10752
  153.5151  135.7029  153.5766 H   0  0  0  0  0  0  0  0  0  0  0  0  # atno 10764 bound_to 10752
  153.4038  135.3941  155.1971 H   0  0  0  0  0  0  0  0  0  0  0  0  # atno 10765 bound_to 10752
  140.8756  134.1997  157.4624 H   0  0  0  0  0  0  0  0  0  0  0  0  # atno 11005 bound_to 11000
  145.8044  140.9755  143.0981 LP  0  0  0  0  0  0  0  0  0  0  0  0  # atno 17320 bound_to 7965
  144.6814  139.9842  143.7484 LP  0  0  0  0  0  0  0  0  0  0  0  0  # atno 17321 bound_to 7965
  139.6301  144.0738  152.2468 LP  0  0  0  0  0  0  0  0  0  0  0  0  # atno 17342 bound_to 10162
  140.0210  144.6153  150.7567 LP  0  0  0  0  0  0  0  0  0  0  0  0  # atno 17343 bound_to 10162
  156.1875  130.6539  151.1023 LP  0  0  0  0  0  0  0  0  0  0  0  0  # atno 17370 bound_to 10713
  157.7047  131.0761  150.6705 LP  0  0  0  0  0  0  0  0  0  0  0  0  # atno 17371 bound_to 10713
  139.8715  134.9794  156.5035 LP  0  0  0  0  0  0  0  0  0  0  0  0  # atno 17394 bound_to 11000
  140.8522  133.8123  155.9180 LP  0  0  0  0  0  0  0  0  0  0  0  0  # atno 17395 bound_to 11000

$$$$
