AV-unprocessed.smi:2113|AV-procd|sdf|8616|dock8
  -GOLD-   2272011363D 1   1.00000     0.00000
 Structure written by MMmdl.
 44 45  0  0  0  0  0  0  0  0  1 V2000
  149.0680  132.5699  152.8941 C   0  0  0  0  0  0  0  0  0  0  0  0
  149.8074  133.7297  153.5646 C   0  0  0  0  0  0  0  0  0  0  0  0
  149.3974  133.8055  154.9248 O   0  0  0  0  0  0  0  0  0  0  0  0
  149.0998  135.1143  155.4053 C   0  0  1  0  0  0  0  0  0  0  0  0
  148.6391  134.9783  156.8640 C   0  0  0  0  0  0  0  0  0  0  0  0
  150.3337  136.0236  155.2937 C   0  0  0  0  0  0  0  0  0  0  0  0
  151.3541  135.7678  155.9337 O   0  0  0  0  0  0  0  0  0  0  0  0
  150.2263  137.0797  154.4724 N   0  0  0  0  0  0  0  0  0  0  0  0
  151.2713  138.0739  154.2561 C   0  0  0  0  0  0  0  0  0  0  0  0
  151.2963  139.1539  155.3249 C   0  0  0  0  0  0  0  0  0  0  0  0
  150.3039  140.1529  155.3783 C   0  0  0  0  0  0  0  0  0  0  0  0
  150.3655  141.1225  156.3970 C   0  0  0  0  0  0  0  0  0  0  0  0
  151.4215  141.0693  157.3378 C   0  0  0  0  0  0  0  0  0  0  0  0
  151.4968  142.0243  158.3744 N   0  0  0  0  0  0  0  0  0  0  0  0
  151.5291  143.4217  157.9505 C   0  0  0  0  0  0  0  0  0  0  0  0
  151.2906  144.3515  159.1529 C   0  0  0  0  0  0  0  0  0  0  0  0
  152.2314  144.0621  160.1815 O   0  0  0  0  0  0  0  0  0  0  0  0
  152.1029  142.7259  160.6560 C   0  0  0  0  0  0  0  0  0  0  0  0
  152.3758  141.7405  159.5073 C   0  0  0  0  0  0  0  0  0  0  0  0
  152.3751  140.1064  157.2803 N   0  0  0  0  0  0  0  0  0  0  0  0
  152.3128  139.1806  156.3004 C   0  0  0  0  0  0  0  0  0  0  0  0
  149.3527  132.4802  151.8459 H   0  0  0  0  0  0  0  0  0  0  0  0
  147.9885  132.7175  152.9361 H   0  0  0  0  0  0  0  0  0  0  0  0
  149.2965  131.6238  153.3851 H   0  0  0  0  0  0  0  0  0  0  0  0
  150.8832  133.5688  153.4877 H   0  0  0  0  0  0  0  0  0  0  0  0
  149.5749  134.6621  153.0487 H   0  0  0  0  0  0  0  0  0  0  0  0
  148.2763  135.5352  154.8248 H   0  0  0  0  0  0  0  0  0  0  0  0
  148.4115  135.9515  157.3000 H   0  0  0  0  0  0  0  0  0  0  0  0
  149.4007  134.5030  157.4837 H   0  0  0  0  0  0  0  0  0  0  0  0
  147.7370  134.3699  156.9294 H   0  0  0  0  0  0  0  0  0  0  0  0
  149.3567  137.2118  153.9769 H   0  0  0  0  0  0  0  0  0  0  0  0
  152.2437  137.5829  154.1887 H   0  0  0  0  0  0  0  0  0  0  0  0
  151.0974  138.5490  153.2905 H   0  0  0  0  0  0  0  0  0  0  0  0
  149.5025  140.1748  154.6545 H   0  0  0  0  0  0  0  0  0  0  0  0
  149.5972  141.8788  156.4555 H   0  0  0  0  0  0  0  0  0  0  0  0
  152.5025  143.6310  157.5051 H   0  0  0  0  0  0  0  0  0  0  0  0
  150.7802  143.6306  157.1881 H   0  0  0  0  0  0  0  0  0  0  0  0
  151.4054  145.3924  158.8503 H   0  0  0  0  0  0  0  0  0  0  0  0
  150.2738  144.2410  159.5336 H   0  0  0  0  0  0  0  0  0  0  0  0
  152.8156  142.5653  161.4649 H   0  0  0  0  0  0  0  0  0  0  0  0
  151.1069  142.5706  161.0740 H   0  0  0  0  0  0  0  0  0  0  0  0
  152.2190  140.7208  159.8616 H   0  0  0  0  0  0  0  0  0  0  0  0
  153.4156  141.8192  159.1868 H   0  0  0  0  0  0  0  0  0  0  0  0
  153.0942  138.4351  156.3028 H   0  0  0  0  0  0  0  0  0  0  0  0
  1  2  1  0  0  0  0
  1 22  1  0  0  0  0
  1 23  1  0  0  0  0
  1 24  1  0  0  0  0
  2  3  1  0  0  0  0
  2 25  1  0  0  0  0
  2 26  1  0  0  0  0
  3  4  1  0  0  0  0
  4  5  1  0  0  0  0
  4  6  1  0  0  0  0
  4 27  1  0  0  0  0
  5 28  1  0  0  0  0
  5 29  1  0  0  0  0
  5 30  1  0  0  0  0
  6  7  2  0  0  0  0
  6  8  1  0  0  0  0
  8  9  1  0  0  0  0
  8 31  1  0  0  0  0
  9 10  1  0  0  0  0
  9 32  1  0  0  0  0
  9 33  1  0  0  0  0
 10 21  1  0  0  0  0
 10 11  2  0  0  0  0
 11 12  1  0  0  0  0
 11 34  1  0  0  0  0
 12 13  2  0  0  0  0
 12 35  1  0  0  0  0
 13 14  1  0  0  0  0
 13 20  1  0  0  0  0
 14 19  1  0  0  0  0
 14 15  1  0  0  0  0
 15 16  1  0  0  0  0
 15 36  1  0  0  0  0
 15 37  1  0  0  0  0
 16 17  1  0  0  0  0
 16 38  1  0  0  0  0
 16 39  1  0  0  0  0
 17 18  1  0  0  0  0
 18 19  1  0  0  0  0
 18 40  1  0  0  0  0
 18 41  1  0  0  0  0
 19 42  1  0  0  0  0
 19 43  1  0  0  0  0
 20 21  2  0  0  0  0
 21 44  1  0  0  0  0
M  END
> <s_m_source_file>
AV-unprocessed.smi

> <i_m_source_file_index>
2113

> <i_lp_mmshare_version>
43012

> <i_f3d_flags>
0

> <s_epik_input>
W0NIM11bQ0gyXU9bQ0BIXShbQ0gzXSlDKD1PKVtOSF1bQ0gyXWMxW2NIXVtjSF1jKG5bY0hdMSlOMltDSDJdW0NIMl1PW0NIMl1bQ0gyXTI=

> <s_epik_cmdline>
J2VwaWtfcHl0aG9uJywgJy1waCcsICc3LjAnLCAnLXRuJywgJzgnLCAnLW1hJywgJzIwMCcsICctbWV0YWxfYmluZGluZycsICctaW1hZScsICc8aW5maWxlLm1hZT4nLCAnLW9tYWUnLCAnPG91dGZpbGUubWFlPic=

> <r_lp_tautomer_probability>
1

> <r_epik_Ionization_Penalty>
0.00454344

> <r_epik_Ionization_Penalty_Charging>
0

> <r_epik_Ionization_Penalty_Neutral>
0.00454344

> <r_epik_State_Penalty>
0.00328127

> <r_epik_Charging_Adjusted_Penalty>
0.00328127

> <i_epik_Tot_Q>
0

> <i_epik_Tot_abs_Q>
0

> <r_epik_Metal_State_Penalty>
-0

> <b_epik_Metal_Only>
0

> <s_lp_Force_Field>
OPLS_2005

> <r_lp_Energy>
17.3963

> <b_lp_Chiralities_Consistent>
1

> <s_lp_Variant>
AV-unprocessed.smi:2113-2

> <Gold.Version>
5.8.1

> <Gold.Id.Protein>
6NUR|6NUR_protein|mol2

> <Gold.PLP.Fitness>
44.4169

> <Gold.PLP.PLP>
-40.5096

> <Gold.PLP.part.hbond>
-3.0000

> <Gold.PLP.part.metal>
0.0000

> <Gold.PLP.part.buried>
-4.4008

> <Gold.PLP.part.nonpolar>
-32.9912

> <Gold.PLP.part.repulsive>
0.1687

> <Gold.PLP.ligand.clash>
0.0000

> <Gold.PLP.ligand.torsion>
0.8672

> <Gold.PLP.Chemscore.Hbond>
1.7440

> <Gold.PLP.Chemscore.CHOScore>
0.0000

> <Gold.PLP.Chemscore.Metal>
0.0000

> <Gold.Chemscore.Hbonds>
donor molecule, donor type, donor heavy atom, donor atom, acceptor molecule, acceptor atom, score
      L1  H     8    31       P1  7948  0.09
      P1  H  7997  8008       L1    20  0.04
      P1  H 10752 10765       L1     7  1.00

> <Gold.PLP.Chemscore.Internal.Correction>
0.4098

> <Gold.Rescore>
     Score         DG    S(hbond)    S(metal)    S(lipo)     H(rot)  DE(clash)    DE(int)     intcor
     15.26     -16.21       1.11        0.00     101.47       1.90       0.10       0.85       ----

> <Gold.Chemscore.Fitness>
15.2560

> <Gold.Chemscore.DG>
-16.2090

> <Gold.Chemscore.ZeroCoef>
-5.4800

> <Gold.Chemscore.Hbond>
1.1105

> <Gold.Chemscore.Metal>
0.0000

> <Gold.Chemscore.Lipo>
101.4675

> <Gold.Chemscore.Internal_Hbond>
0.0000

> <Gold.Chemscore.DEClash>
0.1042

> <Gold.Chemscore.DEInternal>
0.8488

> <Gold.Chemscore.Rot>
1.8952

> <Gold.Chemscore.Internal.Correction>
   9.000000E+99

> <Gold.Chemscore.Hbonds>
donor molecule, donor type, donor heavy atom, donor atom, acceptor molecule, acceptor atom, score
      L1  H     8    31       P1  7948  0.09
      P1  H 10752 10765       L1     7  0.95

> <Gold.Chemscore.Hbond.Weighted>
-3.7089

> <Gold.Chemscore.Metal.Weighted>
-0.0000

> <Gold.Chemscore.Lipo.Weighted>
-11.8717

> <Gold.Chemscore.Internal_Hbond.Weighted>
0.0000

> <Gold.Chemscore.DEClash.Weighted>
0.1042

> <Gold.Chemscore.DEInternal.Weighted>
0.8488

> <Gold.Chemscore.Rot.Weighted>
4.8516

> <Gold.Chemscore.Internal.Correction.Weighted>
   9.000000E+99

> <Gold.Protein.RotatedTorsions>
[ 6907 6896 6895 6894 ] final -104.09 input  -60.11 | X-H torsion
[ 7974 7965 7964 7962 ] final -119.20 input  175.53 | X-H torsion
[ 8008 7997 7996 7995 ] final  -63.59 input   59.86 | X-H torsion
[ 10167 10162 10161 10158 ] final    7.42 input  -65.29 | X-H torsion
[ 10718 10713 10712 10709 ] final   85.33 input   66.30 | X-H torsion
[ 10763 10752 10751 10750 ] final -155.44 input  -60.55 | X-H torsion
[ 11005 11000 10999 10996 ] final -116.60 input  -57.11 | X-H torsion

> <Gold.Protein.ActiveResidues>
 VAL166  LYS551  ARG553  GLY616  TRP617  ASP618  TYR619  PRO620  LYS621  CYS622 
 ASP623  PHE694  ASN695  SER759  ASP760  ASP761  ALA762  ILE779  LEU786  VAL792 
 PHE793  MET794  SER795  GLU796  ALA797  LYS798  CYS799  TRP800  GLU811  SER814 

> <Gold.Protein.RotatedAtoms>
  150.7270  134.0331  159.3739 H   0  0  0  0  0  0  0  0  0  0  0  0  # atno 6907 bound_to 6896
  151.8301  135.0622  160.0445 H   0  0  0  0  0  0  0  0  0  0  0  0  # atno 6908 bound_to 6896
  152.2940  133.5553  159.5612 H   0  0  0  0  0  0  0  0  0  0  0  0  # atno 6909 bound_to 6896
  145.0653  140.8319  143.4128 H   0  0  0  0  0  0  0  0  0  0  0  0  # atno 7974 bound_to 7965
  154.4563  140.0971  156.6766 H   0  0  0  0  0  0  0  0  0  0  0  0  # atno 8008 bound_to 7997
  155.5129  140.3477  155.4373 H   0  0  0  0  0  0  0  0  0  0  0  0  # atno 8009 bound_to 7997
  156.0783  140.1366  156.9732 H   0  0  0  0  0  0  0  0  0  0  0  0  # atno 8010 bound_to 7997
  140.6372  143.7858  150.7377 H   0  0  0  0  0  0  0  0  0  0  0  0  # atno 10167 bound_to 10162
  157.6913  131.0170  150.2807 H   0  0  0  0  0  0  0  0  0  0  0  0  # atno 10718 bound_to 10713
  154.7786  135.3167  154.8038 H   0  0  0  0  0  0  0  0  0  0  0  0  # atno 10763 bound_to 10752
  153.8755  135.6840  153.4775 H   0  0  0  0  0  0  0  0  0  0  0  0  # atno 10764 bound_to 10752
  153.1417  135.4736  154.9442 H   0  0  0  0  0  0  0  0  0  0  0  0  # atno 10765 bound_to 10752
  141.0411  133.9834  157.2993 H   0  0  0  0  0  0  0  0  0  0  0  0  # atno 11005 bound_to 11000
  145.1359  139.2602  143.5515 LP  0  0  0  0  0  0  0  0  0  0  0  0  # atno 17320 bound_to 7965
  146.3526  140.1023  142.8607 LP  0  0  0  0  0  0  0  0  0  0  0  0  # atno 17321 bound_to 7965
  140.1482  143.4381  152.2149 LP  0  0  0  0  0  0  0  0  0  0  0  0  # atno 17342 bound_to 10162
  139.5582  144.7388  151.4231 LP  0  0  0  0  0  0  0  0  0  0  0  0  # atno 17343 bound_to 10162
  156.3354  130.3807  149.7455 LP  0  0  0  0  0  0  0  0  0  0  0  0  # atno 17370 bound_to 10713
  156.4981  130.8116  151.3121 LP  0  0  0  0  0  0  0  0  0  0  0  0  # atno 17371 bound_to 10713
  139.9276  135.0201  156.8290 LP  0  0  0  0  0  0  0  0  0  0  0  0  # atno 17394 bound_to 11000
  140.6233  133.9974  155.7628 LP  0  0  0  0  0  0  0  0  0  0  0  0  # atno 17395 bound_to 11000

$$$$
