AV-unprocessed.smi:195|AV-procd|sdf|1526|dock7
  -GOLD-   2262019373D 1   1.00000     0.00000
 Structure written by MMmdl.
 45 48  0  0  0  0  0  0  0  0  1 V2000
  152.1117  136.7527  156.2519 N   0  0  0  0  0  0  0  0  0  0  0  0
  151.4474  137.3586  155.5238 C   0  0  0  0  0  0  0  0  0  0  0  0
  150.6037  138.1294  154.5969 C   0  0  0  0  0  0  0  0  0  0  0  0
  150.2305  139.5181  155.1241 C   0  0  0  0  0  0  0  0  0  0  0  0
  151.4537  140.2213  155.1872 O   0  0  0  0  0  0  0  0  0  0  0  0
  149.0908  140.2569  154.4159 C   0  0  0  0  0  0  0  0  0  0  0  0
  148.2198  139.8623  155.5202 N   0  0  0  0  0  0  0  0  0  0  0  0
  147.3605  138.7618  155.2088 C   0  0  0  0  0  0  0  0  0  0  0  0
  146.8966  137.9380  156.1876 N   0  0  0  0  0  0  0  0  0  0  0  0
  146.0907  136.9104  155.9051 C   0  0  0  0  0  0  0  0  0  0  0  0
  145.6131  136.5279  154.7208 N   0  0  0  0  0  0  0  0  0  0  0  0
  146.0495  137.3557  153.7305 C   0  0  0  0  0  0  0  0  0  0  0  0
  146.9087  138.4807  153.8870 C   0  0  0  0  0  0  0  0  0  0  0  0
  147.1229  139.0829  152.6523 N   0  0  0  0  0  0  0  0  0  0  0  0
  146.4374  138.3524  151.8152 C   0  0  0  0  0  0  0  0  0  0  0  0
  145.7651  137.2924  152.3787 N   0  0  0  0  0  0  0  0  0  0  0  0
  144.9345  136.3192  151.6915 C   0  0  0  0  0  0  0  0  0  0  0  0
  145.2853  134.8696  152.0822 C   0  0  2  0  0  0  0  0  0  0  0  0
  146.5875  134.5676  151.6178 O   0  0  0  0  0  0  0  0  0  0  0  0
  144.2962  133.8471  151.4919 C   0  0  1  0  0  0  0  0  0  0  0  0
  144.3449  133.7297  149.9665 C   0  0  0  0  0  0  0  0  0  0  0  0
  143.8279  132.3270  149.7476 C   0  0  0  0  0  0  0  0  0  0  0  0
  144.4722  131.5811  150.9107 C   0  0  0  0  0  0  0  0  0  0  0  0
  144.5943  132.5336  151.9638 O   0  0  0  0  0  0  0  0  0  0  0  0
  149.3688  139.6033  156.3885 C   0  0  0  0  0  0  0  0  0  0  0  0
  151.1266  138.1975  153.6424 H   0  0  0  0  0  0  0  0  0  0  0  0
  149.7120  137.5305  154.4136 H   0  0  0  0  0  0  0  0  0  0  0  0
  152.0312  139.7213  155.7436 H   0  0  0  0  0  0  0  0  0  0  0  0
  149.2313  141.3379  154.3765 H   0  0  0  0  0  0  0  0  0  0  0  0
  148.8331  139.8458  153.4390 H   0  0  0  0  0  0  0  0  0  0  0  0
  145.7842  136.3106  156.7496 H   0  0  0  0  0  0  0  0  0  0  0  0
  146.4069  138.5657  150.7566 H   0  0  0  0  0  0  0  0  0  0  0  0
  143.8932  136.5360  151.9327 H   0  0  0  0  0  0  0  0  0  0  0  0
  145.0410  136.4642  150.6155 H   0  0  0  0  0  0  0  0  0  0  0  0
  145.2868  134.7800  153.1695 H   0  0  0  0  0  0  0  0  0  0  0  0
  147.1707  135.2594  151.8909 H   0  0  0  0  0  0  0  0  0  0  0  0
  143.2762  134.0845  151.7994 H   0  0  0  0  0  0  0  0  0  0  0  0
  143.7466  134.4885  149.4614 H   0  0  0  0  0  0  0  0  0  0  0  0
  145.3716  133.8080  149.6054 H   0  0  0  0  0  0  0  0  0  0  0  0
  142.7413  132.3086  149.8420 H   0  0  0  0  0  0  0  0  0  0  0  0
  144.0956  131.9151  148.7744 H   0  0  0  0  0  0  0  0  0  0  0  0
  143.8912  130.7124  151.2217 H   0  0  0  0  0  0  0  0  0  0  0  0
  145.4715  131.2399  150.6366 H   0  0  0  0  0  0  0  0  0  0  0  0
  149.3441  138.6955  156.9907 H   0  0  0  0  0  0  0  0  0  0  0  0
  149.6024  140.4731  157.0042 H   0  0  0  0  0  0  0  0  0  0  0  0
  1  2  3  0  0  0  0
  2  3  1  0  0  0  0
  3  4  1  0  0  0  0
  3 26  1  0  0  0  0
  3 27  1  0  0  0  0
  4 25  1  0  0  0  0
  4  5  1  0  0  0  0
  4  6  1  0  0  0  0
  5 28  1  0  0  0  0
  6  7  1  0  0  0  0
  6 29  1  0  0  0  0
  6 30  1  0  0  0  0
  7  8  1  0  0  0  0
  7 25  1  0  0  0  0
  8 13  1  0  0  0  0
  8  9  2  0  0  0  0
  9 10  1  0  0  0  0
 10 11  2  0  0  0  0
 10 31  1  0  0  0  0
 11 12  1  0  0  0  0
 12 16  1  0  0  0  0
 12 13  2  0  0  0  0
 13 14  1  0  0  0  0
 14 15  2  0  0  0  0
 15 16  1  0  0  0  0
 15 32  1  0  0  0  0
 16 17  1  0  0  0  0
 17 18  1  0  0  0  0
 17 33  1  0  0  0  0
 17 34  1  0  0  0  0
 18 19  1  0  0  0  0
 18 20  1  0  0  0  0
 18 35  1  0  0  0  0
 19 36  1  0  0  0  0
 20 24  1  0  0  0  0
 20 21  1  0  0  0  0
 20 37  1  0  0  0  0
 21 22  1  0  0  0  0
 21 38  1  0  0  0  0
 21 39  1  0  0  0  0
 22 23  1  0  0  0  0
 22 40  1  0  0  0  0
 22 41  1  0  0  0  0
 23 24  1  0  0  0  0
 23 42  1  0  0  0  0
 23 43  1  0  0  0  0
 25 44  1  0  0  0  0
 25 45  1  0  0  0  0
M  END
> <s_m_source_file>
AV-unprocessed.smi

> <i_m_source_file_index>
195

> <i_lp_mmshare_version>
43012

> <i_f3d_flags>
0

> <s_epik_input>
TiNDW0NIMl1DMShbT0hdKVtDSDJdTihbQ0gyXTEpYyhuW2NIXW4yKWMoYzIzKW5bY0hdbjNbQ0gyXVtDQEhdKFtPSF0pW0NAQEhdNFtDSDJdW0NIMl1bQ0gyXU80

> <s_epik_cmdline>
J2VwaWtfcHl0aG9uJywgJy1waCcsICc3LjAnLCAnLXRuJywgJzgnLCAnLW1hJywgJzIwMCcsICctbWV0YWxfYmluZGluZycsICctaW1hZScsICc8aW5maWxlLm1hZT4nLCAnLW9tYWUnLCAnPG91dGZpbGUubWFlPic=

> <r_lp_tautomer_probability>
1

> <r_epik_Ionization_Penalty>
0.00307146

> <r_epik_Ionization_Penalty_Charging>
0

> <r_epik_Ionization_Penalty_Neutral>
0.00307146

> <r_epik_State_Penalty>
0.0020279

> <r_epik_Charging_Adjusted_Penalty>
0.0020279

> <i_epik_Tot_Q>
0

> <i_epik_Tot_abs_Q>
0

> <r_epik_Metal_State_Penalty>
-0

> <b_epik_Metal_Only>
0

> <s_lp_Force_Field>
OPLS_2005

> <r_lp_Energy>
44.1004

> <b_lp_Chiralities_Consistent>
1

> <s_lp_Variant>
AV-unprocessed.smi:195-3

> <Gold.Version>
5.8.1

> <Gold.Id.Protein>
6NUR|6NUR_protein|mol2

> <Gold.PLP.Fitness>
44.5569

> <Gold.PLP.PLP>
-35.0345

> <Gold.PLP.part.hbond>
-3.0000

> <Gold.PLP.part.metal>
0.0000

> <Gold.PLP.part.buried>
-3.5956

> <Gold.PLP.part.nonpolar>
-30.2305

> <Gold.PLP.part.repulsive>
1.0167

> <Gold.PLP.ligand.clash>
0.0000

> <Gold.PLP.ligand.torsion>
0.7401

> <Gold.PLP.Chemscore.Hbond>
2.9600

> <Gold.PLP.Chemscore.CHOScore>
0.5960

> <Gold.PLP.Chemscore.Metal>
0.0000

> <Gold.Chemscore.Hbonds>
donor molecule, donor type, donor heavy atom, donor atom, acceptor molecule, acceptor atom, score
      L1  H    19    36       P1  7948  1.00
      P1  H  7989  7998       L1     5  1.00
      P1  H 10752 10764       L1     1  0.98
      L1  C    15    32       P1 10171  0.40

> <Gold.PLP.Chemscore.Internal.Correction>
0.3347

> <Gold.Rescore>
     Score         DG    S(hbond)    S(metal)    S(lipo)     H(rot)  DE(clash)    DE(int)     intcor
      9.67     -11.88       2.22        0.00      72.70       3.72       0.15       2.05       ----

> <Gold.Chemscore.Fitness>
9.6746

> <Gold.Chemscore.DG>
-11.8777

> <Gold.Chemscore.ZeroCoef>
-5.4800

> <Gold.Chemscore.Hbond>
2.2208

> <Gold.Chemscore.Metal>
0.0000

> <Gold.Chemscore.Lipo>
72.7002

> <Gold.Chemscore.Internal_Hbond>
0.0000

> <Gold.Chemscore.DEClash>
0.1535

> <Gold.Chemscore.DEInternal>
2.0496

> <Gold.Chemscore.Rot>
3.7210

> <Gold.Chemscore.Internal.Correction>
   9.000000E+99

> <Gold.Chemscore.Hbonds>
donor molecule, donor type, donor heavy atom, donor atom, acceptor molecule, acceptor atom, score
      L1  H    19    36       P1  7948  0.91
      P1  H  7989  7998       L1     5  0.42
      P1  H 10752 10764       L1     1  0.55

> <Gold.Chemscore.Hbond.Weighted>
-7.4174

> <Gold.Chemscore.Metal.Weighted>
-0.0000

> <Gold.Chemscore.Lipo.Weighted>
-8.5059

> <Gold.Chemscore.Internal_Hbond.Weighted>
0.0000

> <Gold.Chemscore.DEClash.Weighted>
0.1535

> <Gold.Chemscore.DEInternal.Weighted>
2.0496

> <Gold.Chemscore.Rot.Weighted>
9.5256

> <Gold.Chemscore.Internal.Correction.Weighted>
   9.000000E+99

> <Gold.Protein.RotatedTorsions>
[ 6907 6896 6895 6894 ] final   -0.50 input  -60.11 | X-H torsion
[ 7974 7965 7964 7962 ] final  -10.50 input  175.53 | X-H torsion
[ 8008 7997 7996 7995 ] final -153.04 input   59.86 | X-H torsion
[ 10167 10162 10161 10158 ] final  100.82 input  -65.29 | X-H torsion
[ 10718 10713 10712 10709 ] final  -25.03 input   66.30 | X-H torsion
[ 10763 10752 10751 10750 ] final  -22.91 input  -60.55 | X-H torsion
[ 11005 11000 10999 10996 ] final   87.88 input  -57.11 | X-H torsion

> <Gold.Protein.ActiveResidues>
 VAL166  LYS551  ARG553  GLY616  TRP617  ASP618  TYR619  PRO620  LYS621  CYS622 
 ASP623  PHE694  ASN695  SER759  ASP760  ASP761  ALA762  ILE779  LEU786  VAL792 
 PHE793  MET794  SER795  GLU796  ALA797  LYS798  CYS799  TRP800  GLU811  SER814 

> <Gold.Protein.RotatedAtoms>
  151.5612  135.1065  159.9972 H   0  0  0  0  0  0  0  0  0  0  0  0  # atno 6907 bound_to 6896
  152.4446  133.7507  159.6703 H   0  0  0  0  0  0  0  0  0  0  0  0  # atno 6908 bound_to 6896
  150.8358  133.7948  159.3104 H   0  0  0  0  0  0  0  0  0  0  0  0  # atno 6909 bound_to 6896
  146.2219  140.2773  142.8360 H   0  0  0  0  0  0  0  0  0  0  0  0  # atno 7974 bound_to 7965
  155.6645  140.0726  157.2542 H   0  0  0  0  0  0  0  0  0  0  0  0  # atno 8008 bound_to 7997
  154.4135  140.1710  156.1864 H   0  0  0  0  0  0  0  0  0  0  0  0  # atno 8009 bound_to 7997
  155.9669  140.3365  155.6543 H   0  0  0  0  0  0  0  0  0  0  0  0  # atno 8010 bound_to 7997
  139.7493  144.6989  151.0457 H   0  0  0  0  0  0  0  0  0  0  0  0  # atno 10167 bound_to 10162
  156.4698  130.4522  149.6876 H   0  0  0  0  0  0  0  0  0  0  0  0  # atno 10718 bound_to 10713
  153.6595  135.6977  153.5182 H   0  0  0  0  0  0  0  0  0  0  0  0  # atno 10763 bound_to 10752
  153.2643  135.4235  155.0924 H   0  0  0  0  0  0  0  0  0  0  0  0  # atno 10764 bound_to 10752
  154.8456  135.3562  154.6139 H   0  0  0  0  0  0  0  0  0  0  0  0  # atno 10765 bound_to 10752
  139.8909  134.8451  156.2922 H   0  0  0  0  0  0  0  0  0  0  0  0  # atno 11005 bound_to 11000
  144.9223  140.7882  143.5740 LP  0  0  0  0  0  0  0  0  0  0  0  0  # atno 17320 bound_to 7965
  145.2710  139.1954  143.4841 LP  0  0  0  0  0  0  0  0  0  0  0  0  # atno 17321 bound_to 7965
  140.7796  143.4829  150.9995 LP  0  0  0  0  0  0  0  0  0  0  0  0  # atno 17342 bound_to 10162
  139.8516  143.7430  152.3177 LP  0  0  0  0  0  0  0  0  0  0  0  0  # atno 17343 bound_to 10162
  156.3630  130.7491  151.2466 LP  0  0  0  0  0  0  0  0  0  0  0  0  # atno 17370 bound_to 10713
  157.7492  131.0345  150.4318 LP  0  0  0  0  0  0  0  0  0  0  0  0  # atno 17371 bound_to 10713
  140.9969  133.7175  156.0899 LP  0  0  0  0  0  0  0  0  0  0  0  0  # atno 17394 bound_to 11000
  140.7551  134.4002  157.5535 LP  0  0  0  0  0  0  0  0  0  0  0  0  # atno 17395 bound_to 11000

$$$$
