AV-unprocessed.smi:3165|AV-procd|sdf|12091|dock10
  -GOLD-   2272017523D 1   1.00000     0.00000
 Structure written by MMmdl.
 37 38  0  0  0  0  0  0  0  0  1 V2000
  150.5127  140.7730  157.9134 C   0  0  0  0  0  0  0  0  0  0  0  0
  149.8057  141.8655  157.0927 C   0  0  2  0  0  0  0  0  0  0  0  0
  150.0790  141.7488  155.5731 C   0  0  0  0  0  0  0  0  0  0  0  0
  150.2061  140.3743  155.1213 N   0  0  0  0  0  0  0  0  0  0  0  0
  151.2704  139.5136  155.2906 C   0  0  0  0  0  0  0  0  0  0  0  0
  150.9321  138.3279  154.7036 C   0  0  0  0  0  0  0  0  0  0  0  0
  149.6224  138.5626  154.1991 C   0  0  0  0  0  0  0  0  0  0  0  0
  149.1899  139.7872  154.4522 N   0  0  0  0  0  0  0  0  0  0  0  0
  150.1922  143.1794  157.6155 N   0  0  0  0  0  0  0  0  0  0  0  0
  151.5903  143.5546  157.4096 C   0  0  0  0  0  0  0  0  0  0  0  0
  152.3590  143.5530  158.7385 C   0  0  1  0  0  0  0  0  0  0  0  0
  151.5992  144.3254  159.8344 C   0  0  0  0  0  0  0  0  0  0  0  0
  152.3413  144.2339  161.1726 C   0  0  0  0  0  0  0  0  0  0  0  0
  152.6093  142.7646  161.5149 C   0  0  0  0  0  0  0  0  0  0  0  0
  153.3037  142.0607  160.3385 C   0  0  0  0  0  0  0  0  0  0  0  0
  152.5174  142.1989  159.1589 O   0  0  0  0  0  0  0  0  0  0  0  0
  150.1625  139.7761  157.6456 H   0  0  0  0  0  0  0  0  0  0  0  0
  150.3243  140.9010  158.9799 H   0  0  0  0  0  0  0  0  0  0  0  0
  151.5922  140.7998  157.7607 H   0  0  0  0  0  0  0  0  0  0  0  0
  148.7344  141.7335  157.2498 H   0  0  0  0  0  0  0  0  0  0  0  0
  149.2725  142.2033  154.9977 H   0  0  0  0  0  0  0  0  0  0  0  0
  150.9902  142.2903  155.3129 H   0  0  0  0  0  0  0  0  0  0  0  0
  152.1697  139.8150  155.8076 H   0  0  0  0  0  0  0  0  0  0  0  0
  151.5277  137.4292  154.6449 H   0  0  0  0  0  0  0  0  0  0  0  0
  148.9764  137.8837  153.6622 H   0  0  0  0  0  0  0  0  0  0  0  0
  149.5916  143.8936  157.2155 H   0  0  0  0  0  0  0  0  0  0  0  0
  152.0656  142.8479  156.7298 H   0  0  0  0  0  0  0  0  0  0  0  0
  151.6596  144.5378  156.9426 H   0  0  0  0  0  0  0  0  0  0  0  0
  153.3393  144.0106  158.5897 H   0  0  0  0  0  0  0  0  0  0  0  0
  151.4788  145.3705  159.5474 H   0  0  0  0  0  0  0  0  0  0  0  0
  150.5949  143.9142  159.9452 H   0  0  0  0  0  0  0  0  0  0  0  0
  153.2865  144.7745  161.1059 H   0  0  0  0  0  0  0  0  0  0  0  0
  151.7617  144.7105  161.9635 H   0  0  0  0  0  0  0  0  0  0  0  0
  153.2209  142.6917  162.4146 H   0  0  0  0  0  0  0  0  0  0  0  0
  151.6666  142.2616  161.7342 H   0  0  0  0  0  0  0  0  0  0  0  0
  154.3019  142.4693  160.1738 H   0  0  0  0  0  0  0  0  0  0  0  0
  153.4270  141.0000  160.5570 H   0  0  0  0  0  0  0  0  0  0  0  0
  1  2  1  0  0  0  0
  1 17  1  0  0  0  0
  1 18  1  0  0  0  0
  1 19  1  0  0  0  0
  2  3  1  0  0  0  0
  2  9  1  0  0  0  0
  2 20  1  0  0  0  0
  3  4  1  0  0  0  0
  3 21  1  0  0  0  0
  3 22  1  0  0  0  0
  4  8  1  0  0  0  0
  4  5  1  0  0  0  0
  5  6  2  0  0  0  0
  5 23  1  0  0  0  0
  6  7  1  0  0  0  0
  6 24  1  0  0  0  0
  7  8  2  0  0  0  0
  7 25  1  0  0  0  0
  9 10  1  0  0  0  0
  9 26  1  0  0  0  0
 10 11  1  0  0  0  0
 10 27  1  0  0  0  0
 10 28  1  0  0  0  0
 11 16  1  0  0  0  0
 11 12  1  0  0  0  0
 11 29  1  0  0  0  0
 12 13  1  0  0  0  0
 12 30  1  0  0  0  0
 12 31  1  0  0  0  0
 13 14  1  0  0  0  0
 13 32  1  0  0  0  0
 13 33  1  0  0  0  0
 14 15  1  0  0  0  0
 14 34  1  0  0  0  0
 14 35  1  0  0  0  0
 15 16  1  0  0  0  0
 15 36  1  0  0  0  0
 15 37  1  0  0  0  0
M  END
> <s_m_source_file>
AV-unprocessed.smi

> <i_m_source_file_index>
3165

> <i_lp_mmshare_version>
43012

> <i_f3d_flags>
0

> <s_epik_input>
bjFbY0hdW2NIXVtjSF1uMVtDSDJdW0NAQEhdKFtDSDNdKVtOSF1bQ0gyXVtDQEBIXTJbQ0gyXVtDSDJdW0NIMl1bQ0gyXU8y

> <s_epik_cmdline>
J2VwaWtfcHl0aG9uJywgJy1waCcsICc3LjAnLCAnLXRuJywgJzgnLCAnLW1hJywgJzIwMCcsICctbWV0YWxfYmluZGluZycsICctaW1hZScsICc8aW5maWxlLm1hZT4nLCAnLW9tYWUnLCAnPG91dGZpbGUubWFlPic=

> <r_lp_tautomer_probability>
1

> <r_epik_Ionization_Penalty>
2.51982

> <r_epik_Ionization_Penalty_Charging>
0

> <r_epik_Ionization_Penalty_Neutral>
2.51982

> <r_epik_State_Penalty>
2.68614

> <r_epik_Charging_Adjusted_Penalty>
2.68614

> <i_epik_Tot_Q>
0

> <i_epik_Tot_abs_Q>
0

> <r_epik_Metal_State_Penalty>
2.6861

> <b_epik_Metal_Only>
0

> <s_lp_Force_Field>
OPLS_2005

> <r_lp_Energy>
13.227

> <b_lp_Chiralities_Consistent>
1

> <s_lp_Variant>
AV-unprocessed.smi:3165-7

> <Gold.Version>
5.8.1

> <Gold.Id.Protein>
6NUR|6NUR_protein|mol2

> <Gold.PLP.Fitness>
46.4371

> <Gold.PLP.PLP>
-42.1999

> <Gold.PLP.part.hbond>
-1.0000

> <Gold.PLP.part.metal>
0.0000

> <Gold.PLP.part.buried>
-4.0558

> <Gold.PLP.part.nonpolar>
-36.5227

> <Gold.PLP.part.repulsive>
0.1156

> <Gold.PLP.ligand.clash>
0.0000

> <Gold.PLP.ligand.torsion>
0.8921

> <Gold.PLP.Chemscore.Hbond>
1.0000

> <Gold.PLP.Chemscore.CHOScore>
1.0000

> <Gold.PLP.Chemscore.Metal>
0.0000

> <Gold.Chemscore.Hbonds>
donor molecule, donor type, donor heavy atom, donor atom, acceptor molecule, acceptor atom, score
      L1  H     9    26       P1  8028  0.99
      L1  C     7    25       P1  7948  1.00

> <Gold.PLP.Chemscore.Internal.Correction>
0.0214

> <Gold.Rescore>
     Score         DG    S(hbond)    S(metal)    S(lipo)     H(rot)  DE(clash)    DE(int)     intcor
     15.12     -17.83       0.99        0.00     111.61       1.57       0.50       2.22       ----

> <Gold.Chemscore.Fitness>
15.1154

> <Gold.Chemscore.DG>
-17.8343

> <Gold.Chemscore.ZeroCoef>
-5.4800

> <Gold.Chemscore.Hbond>
0.9949

> <Gold.Chemscore.Metal>
0.0000

> <Gold.Chemscore.Lipo>
111.6124

> <Gold.Chemscore.Internal_Hbond>
0.0000

> <Gold.Chemscore.DEClash>
0.4992

> <Gold.Chemscore.DEInternal>
2.2197

> <Gold.Chemscore.Rot>
1.5731

> <Gold.Chemscore.Internal.Correction>
   9.000000E+99

> <Gold.Chemscore.Hbonds>
donor molecule, donor type, donor heavy atom, donor atom, acceptor molecule, acceptor atom, score
      L1  H     9    26       P1  8028  0.61

> <Gold.Chemscore.Hbond.Weighted>
-3.3229

> <Gold.Chemscore.Metal.Weighted>
-0.0000

> <Gold.Chemscore.Lipo.Weighted>
-13.0587

> <Gold.Chemscore.Internal_Hbond.Weighted>
0.0000

> <Gold.Chemscore.DEClash.Weighted>
0.4992

> <Gold.Chemscore.DEInternal.Weighted>
2.2197

> <Gold.Chemscore.Rot.Weighted>
4.0273

> <Gold.Chemscore.Internal.Correction.Weighted>
   9.000000E+99

> <Gold.Protein.RotatedTorsions>
[ 6907 6896 6895 6894 ] final -113.87 input  -60.11 | X-H torsion
[ 7974 7965 7964 7962 ] final -121.34 input  175.53 | X-H torsion
[ 8008 7997 7996 7995 ] final  -95.42 input   59.86 | X-H torsion
[ 10167 10162 10161 10158 ] final  132.54 input  -65.29 | X-H torsion
[ 10718 10713 10712 10709 ] final   66.90 input   66.30 | X-H torsion
[ 10763 10752 10751 10750 ] final  -84.04 input  -60.55 | X-H torsion
[ 11005 11000 10999 10996 ] final  162.05 input  -57.11 | X-H torsion

> <Gold.Protein.ActiveResidues>
 VAL166  LYS551  ARG553  GLY616  TRP617  ASP618  TYR619  PRO620  LYS621  CYS622 
 ASP623  PHE694  ASN695  SER759  ASP760  ASP761  ALA762  ILE779  LEU786  VAL792 
 PHE793  MET794  SER795  GLU796  ALA797  LYS798  CYS799  TRP800  GLU811  SER814 

> <Gold.Protein.RotatedAtoms>
  150.7860  133.8883  159.3305 H   0  0  0  0  0  0  0  0  0  0  0  0  # atno 6907 bound_to 6896
  151.6733  135.0971  160.0211 H   0  0  0  0  0  0  0  0  0  0  0  0  # atno 6908 bound_to 6896
  152.3924  133.6659  159.6284 H   0  0  0  0  0  0  0  0  0  0  0  0  # atno 6909 bound_to 6896
  145.0414  140.8147  143.4264 H   0  0  0  0  0  0  0  0  0  0  0  0  # atno 7974 bound_to 7965
  154.7611  140.0480  157.0974 H   0  0  0  0  0  0  0  0  0  0  0  0  # atno 8008 bound_to 7997
  154.9936  140.3116  155.4876 H   0  0  0  0  0  0  0  0  0  0  0  0  # atno 8009 bound_to 7997
  156.2904  140.2214  156.5042 H   0  0  0  0  0  0  0  0  0  0  0  0  # atno 8010 bound_to 7997
  139.5335  144.6657  151.4866 H   0  0  0  0  0  0  0  0  0  0  0  0  # atno 10167 bound_to 10162
  157.6197  130.9292  150.0170 H   0  0  0  0  0  0  0  0  0  0  0  0  # atno 10718 bound_to 10713
  154.5948  135.5535  153.7314 H   0  0  0  0  0  0  0  0  0  0  0  0  # atno 10763 bound_to 10752
  153.0131  135.6352  154.1798 H   0  0  0  0  0  0  0  0  0  0  0  0  # atno 10764 bound_to 10752
  154.1739  135.2890  155.3053 H   0  0  0  0  0  0  0  0  0  0  0  0  # atno 10765 bound_to 10752
  140.2218  134.8190  157.3228 H   0  0  0  0  0  0  0  0  0  0  0  0  # atno 11005 bound_to 11000
  145.1643  139.2440  143.5375 LP  0  0  0  0  0  0  0  0  0  0  0  0  # atno 17320 bound_to 7965
  146.3509  140.1378  142.8595 LP  0  0  0  0  0  0  0  0  0  0  0  0  # atno 17321 bound_to 7965
  140.6528  143.8661  150.6803 LP  0  0  0  0  0  0  0  0  0  0  0  0  # atno 17342 bound_to 10162
  140.2031  143.3943  152.1776 LP  0  0  0  0  0  0  0  0  0  0  0  0  # atno 17343 bound_to 10162
  156.1337  130.3643  149.9691 LP  0  0  0  0  0  0  0  0  0  0  0  0  # atno 17370 bound_to 10713
  156.7747  130.9199  151.3645 LP  0  0  0  0  0  0  0  0  0  0  0  0  # atno 17371 bound_to 10713
  140.1841  134.4453  155.7754 LP  0  0  0  0  0  0  0  0  0  0  0  0  # atno 17394 bound_to 11000
  141.2222  133.6997  156.7918 LP  0  0  0  0  0  0  0  0  0  0  0  0  # atno 17395 bound_to 11000

$$$$
