AV-unprocessed.smi:1670|AV-procd|sdf|6693|dock10
  -GOLD-   22720 7423D 1   1.00000     0.00000
 Structure written by MMmdl.
 41 42  0  0  0  0  0  0  0  0  1 V2000
  147.4297  140.2785  153.7593 C   0  0  0  0  0  0  0  0  0  0  0  0
  147.9774  138.9264  154.2363 C   0  0  2  0  0  0  0  0  0  0  0  0
  149.5078  138.9780  154.4343 C   0  0  0  0  0  0  0  0  0  0  0  0
  149.9139  139.9846  155.4000 N   0  0  0  0  0  0  0  0  0  0  0  0
  149.1189  140.7251  156.2491 C   0  0  0  0  0  0  0  0  0  0  0  0
  149.9452  141.5261  156.9840 C   0  0  0  0  0  0  0  0  0  0  0  0
  151.2451  141.2008  156.5052 C   0  0  0  0  0  0  0  0  0  0  0  0
  151.2231  140.2821  155.5531 N   0  0  0  0  0  0  0  0  0  0  0  0
  147.6117  137.8953  153.2657 N   0  0  0  0  0  0  0  0  0  0  0  0
  146.3669  137.4589  153.0239 C   0  0  0  0  0  0  0  0  0  0  0  0
  145.3606  137.9121  153.5697 O   0  0  0  0  0  0  0  0  0  0  0  0
  146.3611  136.4544  152.1340 N   0  0  0  0  0  0  0  0  0  0  0  0
  145.2045  135.6856  151.6717 C   0  0  2  0  0  0  0  0  0  0  0  0
  144.3043  135.2078  152.8315 C   0  0  0  0  0  0  0  0  0  0  0  0
  143.0638  134.4742  152.2962 C   0  0  0  0  0  0  0  0  0  0  0  0
  143.4645  133.3042  151.3793 C   0  0  1  0  0  0  0  0  0  0  0  0
  142.3019  132.6973  150.8558 O   0  0  0  0  0  0  0  0  0  0  0  0
  144.3589  133.7821  150.2209 C   0  0  0  0  0  0  0  0  0  0  0  0
  145.6038  134.5138  150.7481 C   0  0  0  0  0  0  0  0  0  0  0  0
  147.6582  141.0679  154.4758 H   0  0  0  0  0  0  0  0  0  0  0  0
  146.3460  140.2446  153.6435 H   0  0  0  0  0  0  0  0  0  0  0  0
  147.8595  140.5661  152.7991 H   0  0  0  0  0  0  0  0  0  0  0  0
  147.5080  138.7113  155.1980 H   0  0  0  0  0  0  0  0  0  0  0  0
  149.8886  138.0040  154.7471 H   0  0  0  0  0  0  0  0  0  0  0  0
  149.9974  139.2122  153.4882 H   0  0  0  0  0  0  0  0  0  0  0  0
  148.0443  140.6158  156.2637 H   0  0  0  0  0  0  0  0  0  0  0  0
  149.6637  142.2337  157.7497 H   0  0  0  0  0  0  0  0  0  0  0  0
  152.1973  141.6035  156.8176 H   0  0  0  0  0  0  0  0  0  0  0  0
  148.3712  137.4544  152.7679 H   0  0  0  0  0  0  0  0  0  0  0  0
  147.2536  136.1728  151.7554 H   0  0  0  0  0  0  0  0  0  0  0  0
  144.6206  136.3868  151.0741 H   0  0  0  0  0  0  0  0  0  0  0  0
  144.8538  134.5365  153.4920 H   0  0  0  0  0  0  0  0  0  0  0  0
  143.9946  136.0575  153.4408 H   0  0  0  0  0  0  0  0  0  0  0  0
  142.4635  134.1091  153.1305 H   0  0  0  0  0  0  0  0  0  0  0  0
  142.4369  135.1784  151.7474 H   0  0  0  0  0  0  0  0  0  0  0  0
  143.9999  132.5546  151.9636 H   0  0  0  0  0  0  0  0  0  0  0  0
  141.7095  133.3771  150.5735 H   0  0  0  0  0  0  0  0  0  0  0  0
  144.6624  132.9338  149.6061 H   0  0  0  0  0  0  0  0  0  0  0  0
  143.7956  134.4515  149.5689 H   0  0  0  0  0  0  0  0  0  0  0  0
  146.1969  134.8818  149.9101 H   0  0  0  0  0  0  0  0  0  0  0  0
  146.2332  133.8014  151.2822 H   0  0  0  0  0  0  0  0  0  0  0  0
  1  2  1  0  0  0  0
  1 20  1  0  0  0  0
  1 21  1  0  0  0  0
  1 22  1  0  0  0  0
  2  3  1  0  0  0  0
  2  9  1  0  0  0  0
  2 23  1  0  0  0  0
  3  4  1  0  0  0  0
  3 24  1  0  0  0  0
  3 25  1  0  0  0  0
  4  8  1  0  0  0  0
  4  5  1  0  0  0  0
  5  6  2  0  0  0  0
  5 26  1  0  0  0  0
  6  7  1  0  0  0  0
  6 27  1  0  0  0  0
  7  8  2  0  0  0  0
  7 28  1  0  0  0  0
  9 10  1  0  0  0  0
  9 29  1  0  0  0  0
 10 11  2  0  0  0  0
 10 12  1  0  0  0  0
 12 13  1  0  0  0  0
 12 30  1  0  0  0  0
 13 19  1  0  0  0  0
 13 14  1  0  0  0  0
 13 31  1  0  0  0  0
 14 15  1  0  0  0  0
 14 32  1  0  0  0  0
 14 33  1  0  0  0  0
 15 16  1  0  0  0  0
 15 34  1  0  0  0  0
 15 35  1  0  0  0  0
 16 17  1  0  0  0  0
 16 18  1  0  0  0  0
 16 36  1  0  0  0  0
 17 37  1  0  0  0  0
 18 19  1  0  0  0  0
 18 38  1  0  0  0  0
 18 39  1  0  0  0  0
 19 40  1  0  0  0  0
 19 41  1  0  0  0  0
M  END
> <s_m_source_file>
AV-unprocessed.smi

> <i_m_source_file_index>
1670

> <i_lp_mmshare_version>
43012

> <i_f3d_flags>
0

> <s_epik_input>
bjFbY0hdW2NIXVtjSF1uMVtDSDJdW0NAQEhdKFtDSDNdKVtOSF1DKD1PKVtOSF1bQ0BASF0yW0NIMl1bQ0gyXVtDQEBIXShbT0hdKVtDSDJdW0NIMl0y

> <s_epik_cmdline>
J2VwaWtfcHl0aG9uJywgJy1waCcsICc3LjAnLCAnLXRuJywgJzgnLCAnLW1hJywgJzIwMCcsICctbWV0YWxfYmluZGluZycsICctaW1hZScsICc8aW5maWxlLm1hZT4nLCAnLW9tYWUnLCAnPG91dGZpbGUubWFlPic=

> <r_lp_tautomer_probability>
1

> <r_epik_Ionization_Penalty>
7.33369e-05

> <r_epik_Ionization_Penalty_Charging>
0

> <r_epik_Ionization_Penalty_Neutral>
7.33369e-05

> <r_epik_State_Penalty>
-0

> <r_epik_Charging_Adjusted_Penalty>
0

> <i_epik_Tot_Q>
0

> <i_epik_Tot_abs_Q>
0

> <r_epik_Metal_State_Penalty>
-0

> <b_epik_Metal_Only>
0

> <s_lp_Force_Field>
OPLS_2005

> <r_lp_Energy>
5.26958

> <b_lp_Chiralities_Consistent>
1

> <s_lp_Variant>
AV-unprocessed.smi:1670-1

> <Gold.Version>
5.8.1

> <Gold.Id.Protein>
6NUR|6NUR_protein|mol2

> <Gold.PLP.Fitness>
43.3710

> <Gold.PLP.PLP>
-32.0023

> <Gold.PLP.part.hbond>
-4.8799

> <Gold.PLP.part.metal>
0.0000

> <Gold.PLP.part.buried>
-4.0894

> <Gold.PLP.part.nonpolar>
-24.4852

> <Gold.PLP.part.repulsive>
0.6262

> <Gold.PLP.ligand.clash>
0.0000

> <Gold.PLP.ligand.torsion>
0.2529

> <Gold.PLP.Chemscore.Hbond>
3.9440

> <Gold.PLP.Chemscore.CHOScore>
0.0000

> <Gold.PLP.Chemscore.Metal>
0.0000

> <Gold.Chemscore.Hbonds>
donor molecule, donor type, donor heavy atom, donor atom, acceptor molecule, acceptor atom, score
      L1  H     9    29       P1  7948  1.00
      L1  H    12    30       P1  7948  0.99
      L1  H    17    37       P1 10186  1.00
      P1  H  7989  7998       L1     8  0.57

> <Gold.PLP.Chemscore.Internal.Correction>
0.0426

> <Gold.Rescore>
     Score         DG    S(hbond)    S(metal)    S(lipo)     H(rot)  DE(clash)    DE(int)     intcor
     19.21     -19.76       3.69        0.00      65.27       2.22       0.14       0.41       ----

> <Gold.Chemscore.Fitness>
19.2119

> <Gold.Chemscore.DG>
-19.7573

> <Gold.Chemscore.ZeroCoef>
-5.4800

> <Gold.Chemscore.Hbond>
3.6918

> <Gold.Chemscore.Metal>
0.0000

> <Gold.Chemscore.Lipo>
65.2652

> <Gold.Chemscore.Internal_Hbond>
0.0000

> <Gold.Chemscore.DEClash>
0.1355

> <Gold.Chemscore.DEInternal>
0.4099

> <Gold.Chemscore.Rot>
2.2224

> <Gold.Chemscore.Internal.Correction>
   9.000000E+99

> <Gold.Chemscore.Hbonds>
donor molecule, donor type, donor heavy atom, donor atom, acceptor molecule, acceptor atom, score
      L1  H     9    29       P1  7948  0.95
      L1  H    12    30       P1  7948  0.94
      L1  H    17    37       P1 10186  0.91
      P1  H  7989  7998       L1     8  0.10

> <Gold.Chemscore.Hbond.Weighted>
-12.3306

> <Gold.Chemscore.Metal.Weighted>
-0.0000

> <Gold.Chemscore.Lipo.Weighted>
-7.6360

> <Gold.Chemscore.Internal_Hbond.Weighted>
0.0000

> <Gold.Chemscore.DEClash.Weighted>
0.1355

> <Gold.Chemscore.DEInternal.Weighted>
0.4099

> <Gold.Chemscore.Rot.Weighted>
5.6893

> <Gold.Chemscore.Internal.Correction.Weighted>
   9.000000E+99

> <Gold.Protein.RotatedTorsions>
[ 6907 6896 6895 6894 ] final   41.44 input  -60.11 | X-H torsion
[ 7974 7965 7964 7962 ] final -126.14 input  175.53 | X-H torsion
[ 8008 7997 7996 7995 ] final  -97.47 input   59.86 | X-H torsion
[ 10167 10162 10161 10158 ] final  144.66 input  -65.29 | X-H torsion
[ 10718 10713 10712 10709 ] final   -8.44 input   66.30 | X-H torsion
[ 10763 10752 10751 10750 ] final -139.35 input  -60.55 | X-H torsion
[ 11005 11000 10999 10996 ] final  -10.08 input  -57.11 | X-H torsion

> <Gold.Protein.ActiveResidues>
 VAL166  LYS551  ARG553  GLY616  TRP617  ASP618  TYR619  PRO620  LYS621  CYS622 
 ASP623  PHE694  ASN695  SER759  ASP760  ASP761  ALA762  ILE779  LEU786  VAL792 
 PHE793  MET794  SER795  GLU796  ALA797  LYS798  CYS799  TRP800  GLU811  SER814 

> <Gold.Protein.RotatedAtoms>
  152.1952  134.8636  160.0513 H   0  0  0  0  0  0  0  0  0  0  0  0  # atno 6907 bound_to 6896
  151.9510  133.3661  159.4008 H   0  0  0  0  0  0  0  0  0  0  0  0  # atno 6908 bound_to 6896
  150.6943  134.4264  159.5272 H   0  0  0  0  0  0  0  0  0  0  0  0  # atno 6909 bound_to 6896
  144.9903  140.7725  143.4558 H   0  0  0  0  0  0  0  0  0  0  0  0  # atno 7974 bound_to 7965
  154.7882  140.0463  157.1180 H   0  0  0  0  0  0  0  0  0  0  0  0  # atno 8008 bound_to 7997
  154.9623  140.3079  155.5006 H   0  0  0  0  0  0  0  0  0  0  0  0  # atno 8009 bound_to 7997
  156.2946  140.2268  156.4709 H   0  0  0  0  0  0  0  0  0  0  0  0  # atno 8010 bound_to 7997
  139.4942  144.5956  151.6589 H   0  0  0  0  0  0  0  0  0  0  0  0  # atno 10167 bound_to 10162
  156.7026  130.5098  149.5913 H   0  0  0  0  0  0  0  0  0  0  0  0  # atno 10718 bound_to 10713
  154.8611  135.3585  154.5533 H   0  0  0  0  0  0  0  0  0  0  0  0  # atno 10763 bound_to 10752
  153.6150  135.7008  153.5337 H   0  0  0  0  0  0  0  0  0  0  0  0  # atno 10764 bound_to 10752
  153.3177  135.4160  155.1350 H   0  0  0  0  0  0  0  0  0  0  0  0  # atno 10765 bound_to 10752
  140.7410  133.8671  155.8967 H   0  0  0  0  0  0  0  0  0  0  0  0  # atno 11005 bound_to 11000
  145.2295  139.2121  143.5050 LP  0  0  0  0  0  0  0  0  0  0  0  0  # atno 17320 bound_to 7965
  146.3430  140.2169  142.8591 LP  0  0  0  0  0  0  0  0  0  0  0  0  # atno 17321 bound_to 7965
  140.5593  144.0295  150.6162 LP  0  0  0  0  0  0  0  0  0  0  0  0  # atno 17342 bound_to 10162
  140.3375  143.3039  152.0623 LP  0  0  0  0  0  0  0  0  0  0  0  0  # atno 17343 bound_to 10162
  156.1718  130.6442  151.0846 LP  0  0  0  0  0  0  0  0  0  0  0  0  # atno 17370 bound_to 10713
  157.6967  131.0791  150.6947 LP  0  0  0  0  0  0  0  0  0  0  0  0  # atno 17371 bound_to 10713
  140.9837  134.1371  157.4471 LP  0  0  0  0  0  0  0  0  0  0  0  0  # atno 17394 bound_to 11000
  139.8806  135.0018  156.6092 LP  0  0  0  0  0  0  0  0  0  0  0  0  # atno 17395 bound_to 11000

$$$$
