AV-unprocessed.smi:694|AV-procd|sdf|3377|dock3
  -GOLD-   22720 0353D 1   1.00000     0.00000
 Structure written by MMmdl.
 43 44  0  0  0  0  0  0  0  0  2 V2000
  151.9172  142.1626  158.7256 C   0  0  0  0  0  0  0  0  0  0  0  0
  151.3283  142.7015  157.5049 N   0  0  0  0  0  0  0  0  0  0  0  0
  151.3404  144.1369  157.2544 C   0  0  0  0  0  0  0  0  0  0  0  0
  150.6836  141.8354  156.5953 C   0  0  0  0  0  0  0  0  0  0  0  0
  151.1441  140.5267  156.3106 C   0  0  0  0  0  0  0  0  0  0  0  0
  150.4437  139.7218  155.3889 C   0  0  0  0  0  0  0  0  0  0  0  0
  149.2895  140.2220  154.7507 C   0  0  0  0  0  0  0  0  0  0  0  0
  148.6175  139.3612  153.8391 N   0  0  0  0  0  0  0  0  0  0  0  0
  147.3293  139.3725  153.4539 C   0  0  0  0  0  0  0  0  0  0  0  0
  146.4844  140.1916  153.8128 O   0  0  0  0  0  0  0  0  0  0  0  0
  147.0701  138.3661  152.6067 N   0  0  0  0  0  0  0  0  0  0  0  0
  145.7713  138.0782  152.0052 C   0  0  0  0  0  0  0  0  0  0  0  0
  145.4866  136.5619  151.9532 C   0  0  1  0  0  0  0  0  0  0  0  0
  144.0067  136.1597  152.0245 C   0  0  0  0  0  0  0  0  0  0  0  0
  143.9293  134.7489  151.4221 C   0  0  0  0  0  0  0  0  0  0  0  0
  145.2811  134.4903  150.7372 C   0  0  0  0  0  0  0  0  0  0  0  0
  146.0019  135.8423  150.6980 C   0  0  1  0  0  0  0  0  0  0  0  0
  145.6277  136.5286  149.5176 O   0  0  0  0  0  0  0  0  0  0  0  0
  148.8656  141.5335  155.0739 C   0  0  0  0  0  0  0  0  0  0  0  0
  149.5667  142.2701  155.9623 N   0  3  0  0  0  0  0  0  0  0  0  0
  152.6887  141.4295  158.4883 H   0  0  0  0  0  0  0  0  0  0  0  0
  151.1548  141.6796  159.3378 H   0  0  0  0  0  0  0  0  0  0  0  0
  152.3779  142.9485  159.3245 H   0  0  0  0  0  0  0  0  0  0  0  0
  150.3231  144.5264  157.2055 H   0  0  0  0  0  0  0  0  0  0  0  0
  151.8447  144.3574  156.3132 H   0  0  0  0  0  0  0  0  0  0  0  0
  151.8644  144.6734  158.0455 H   0  0  0  0  0  0  0  0  0  0  0  0
  152.0256  140.1231  156.7856 H   0  0  0  0  0  0  0  0  0  0  0  0
  150.7968  138.7235  155.1752 H   0  0  0  0  0  0  0  0  0  0  0  0
  149.1948  138.6501  153.4146 H   0  0  0  0  0  0  0  0  0  0  0  0
  147.8268  137.7442  152.3624 H   0  0  0  0  0  0  0  0  0  0  0  0
  144.9774  138.6087  152.5336 H   0  0  0  0  0  0  0  0  0  0  0  0
  145.7817  138.4795  150.9916 H   0  0  0  0  0  0  0  0  0  0  0  0
  145.9868  136.1012  152.8071 H   0  0  0  0  0  0  0  0  0  0  0  0
  143.6174  136.1949  153.0422 H   0  0  0  0  0  0  0  0  0  0  0  0
  143.4065  136.8425  151.4213 H   0  0  0  0  0  0  0  0  0  0  0  0
  143.7439  134.0007  152.1936 H   0  0  0  0  0  0  0  0  0  0  0  0
  143.1093  134.6875  150.7056 H   0  0  0  0  0  0  0  0  0  0  0  0
  145.8598  133.7958  151.3476 H   0  0  0  0  0  0  0  0  0  0  0  0
  145.1735  134.0356  149.7515 H   0  0  0  0  0  0  0  0  0  0  0  0
  147.0861  135.7258  150.7091 H   0  0  0  0  0  0  0  0  0  0  0  0
  146.0666  136.1266  148.7836 H   0  0  0  0  0  0  0  0  0  0  0  0
  147.9949  142.0288  154.6729 H   0  0  0  0  0  0  0  0  0  0  0  0
  149.2323  143.2110  156.1706 H   0  0  0  0  0  0  0  0  0  0  0  0
  1  2  1  0  0  0  0
  1 21  1  0  0  0  0
  1 22  1  0  0  0  0
  1 23  1  0  0  0  0
  2  3  1  0  0  0  0
  2  4  1  0  0  0  0
  3 24  1  0  0  0  0
  3 25  1  0  0  0  0
  3 26  1  0  0  0  0
  4 20  1  0  0  0  0
  4  5  2  0  0  0  0
  5  6  1  0  0  0  0
  5 27  1  0  0  0  0
  6  7  2  0  0  0  0
  6 28  1  0  0  0  0
  7  8  1  0  0  0  0
  7 19  1  0  0  0  0
  8  9  1  0  0  0  0
  8 29  1  0  0  0  0
  9 10  2  0  0  0  0
  9 11  1  0  0  0  0
 11 12  1  0  0  0  0
 11 30  1  0  0  0  0
 12 13  1  0  0  0  0
 12 31  1  0  0  0  0
 12 32  1  0  0  0  0
 13 17  1  0  0  0  0
 13 14  1  0  0  0  0
 13 33  1  0  0  0  0
 14 15  1  0  0  0  0
 14 34  1  0  0  0  0
 14 35  1  0  0  0  0
 15 16  1  0  0  0  0
 15 36  1  0  0  0  0
 15 37  1  0  0  0  0
 16 17  1  0  0  0  0
 16 38  1  0  0  0  0
 16 39  1  0  0  0  0
 17 18  1  0  0  0  0
 17 40  1  0  0  0  0
 18 41  1  0  0  0  0
 19 20  2  0  0  0  0
 19 42  1  0  0  0  0
 20 43  1  0  0  0  0
M  CHG  1  20   1
M  END
> <s_m_source_file>
AV-unprocessed.smi

> <i_m_source_file_index>
694

> <i_lp_mmshare_version>
43012

> <i_f3d_flags>
0

> <s_epik_input>
W0NIM11OKFtDSDNdKWMxW2NIXVtjSF1jKFtjSF1uMSlbTkhdQyg9TylbTkhdW0NIMl1bQ0BASF0yW0NIMl1bQ0gyXVtDSDJdW0NASF0yW09IXQ==

> <s_epik_cmdline>
J2VwaWtfcHl0aG9uJywgJy1waCcsICc3LjAnLCAnLXRuJywgJzgnLCAnLW1hJywgJzIwMCcsICctbWV0YWxfYmluZGluZycsICctaW1hZScsICc8aW5maWxlLm1hZT4nLCAnLW9tYWUnLCAnPG91dGZpbGUubWFlPic=

> <r_lp_tautomer_probability>
0.999994

> <r_epik_Ionization_Penalty>
0.266135

> <r_epik_Ionization_Penalty_Charging>
0.266113

> <r_epik_Ionization_Penalty_Neutral>
2.14137e-05

> <r_epik_State_Penalty>
0.258052

> <r_epik_Charging_Adjusted_Penalty>
0.524165

> <i_epik_Tot_Q>
1

> <i_epik_Tot_abs_Q>
1

> <r_epik_Metal_State_Penalty>
0.544313

> <b_epik_Metal_Only>
0

> <s_lp_Force_Field>
OPLS_2005

> <r_lp_Energy>
32.9128

> <b_lp_Chiralities_Consistent>
1

> <s_lp_Variant>
AV-unprocessed.smi:694-2

> <Gold.Version>
5.8.1

> <Gold.Id.Protein>
6NUR|6NUR_protein|mol2

> <Gold.PLP.Fitness>
47.8632

> <Gold.PLP.PLP>
-38.1035

> <Gold.PLP.part.hbond>
-5.0000

> <Gold.PLP.part.metal>
0.0000

> <Gold.PLP.part.buried>
-3.2090

> <Gold.PLP.part.nonpolar>
-30.7349

> <Gold.PLP.part.repulsive>
0.4001

> <Gold.PLP.ligand.clash>
0.0000

> <Gold.PLP.ligand.torsion>
1.1299

> <Gold.PLP.Chemscore.Hbond>
4.0000

> <Gold.PLP.Chemscore.CHOScore>
0.0000

> <Gold.PLP.Chemscore.Metal>
0.0000

> <Gold.Chemscore.Hbonds>
donor molecule, donor type, donor heavy atom, donor atom, acceptor molecule, acceptor atom, score
      L1  H    11    30       P1  7948  1.00
      L1  H    18    41       P1  7921  0.99
      L1  H    20    43       P1  8028  1.98

> <Gold.PLP.Chemscore.Internal.Correction>
0.0194

> <Gold.Rescore>
     Score         DG    S(hbond)    S(metal)    S(lipo)     H(rot)  DE(clash)    DE(int)     intcor
     16.39     -20.57       2.92        0.00      83.86       1.75       1.29       2.89       ----

> <Gold.Chemscore.Fitness>
16.3886

> <Gold.Chemscore.DG>
-20.5717

> <Gold.Chemscore.ZeroCoef>
-5.4800

> <Gold.Chemscore.Hbond>
2.9212

> <Gold.Chemscore.Metal>
0.0000

> <Gold.Chemscore.Lipo>
83.8563

> <Gold.Chemscore.Internal_Hbond>
0.0000

> <Gold.Chemscore.DEClash>
1.2898

> <Gold.Chemscore.DEInternal>
2.8933

> <Gold.Chemscore.Rot>
1.7485

> <Gold.Chemscore.Internal.Correction>
   9.000000E+99

> <Gold.Chemscore.Hbonds>
donor molecule, donor type, donor heavy atom, donor atom, acceptor molecule, acceptor atom, score
      L1  H    11    30       P1  7948  0.99
      L1  H    18    41       P1  7921  0.93
      L1  H    20    43       P1  8028  0.93

> <Gold.Chemscore.Hbond.Weighted>
-9.7567

> <Gold.Chemscore.Metal.Weighted>
-0.0000

> <Gold.Chemscore.Lipo.Weighted>
-9.8112

> <Gold.Chemscore.Internal_Hbond.Weighted>
0.0000

> <Gold.Chemscore.DEClash.Weighted>
1.2898

> <Gold.Chemscore.DEInternal.Weighted>
2.8933

> <Gold.Chemscore.Rot.Weighted>
4.4762

> <Gold.Chemscore.Internal.Correction.Weighted>
   9.000000E+99

> <Gold.Protein.RotatedTorsions>
[ 6907 6896 6895 6894 ] final   98.84 input  -60.11 | X-H torsion
[ 7974 7965 7964 7962 ] final  -92.71 input  175.53 | X-H torsion
[ 8008 7997 7996 7995 ] final -126.90 input   59.86 | X-H torsion
[ 10167 10162 10161 10158 ] final   84.85 input  -65.29 | X-H torsion
[ 10718 10713 10712 10709 ] final   79.67 input   66.30 | X-H torsion
[ 10763 10752 10751 10750 ] final  -83.42 input  -60.55 | X-H torsion
[ 11005 11000 10999 10996 ] final -158.43 input  -57.11 | X-H torsion

> <Gold.Protein.ActiveResidues>
 VAL166  LYS551  ARG553  GLY616  TRP617  ASP618  TYR619  PRO620  LYS621  CYS622 
 ASP623  PHE694  ASN695  SER759  ASP760  ASP761  ALA762  ILE779  LEU786  VAL792 
 PHE793  MET794  SER795  GLU796  ALA797  LYS798  CYS799  TRP800  GLU811  SER814 

> <Gold.Protein.RotatedAtoms>
  152.5402  134.0519  159.8113 H   0  0  0  0  0  0  0  0  0  0  0  0  # atno 6907 bound_to 6896
  151.0659  133.5498  159.2638 H   0  0  0  0  0  0  0  0  0  0  0  0  # atno 6908 bound_to 6896
  151.2379  135.0586  159.9067 H   0  0  0  0  0  0  0  0  0  0  0  0  # atno 6909 bound_to 6896
  145.3962  140.9533  143.2312 H   0  0  0  0  0  0  0  0  0  0  0  0  # atno 7974 bound_to 7965
  155.2374  140.0427  157.2970 H   0  0  0  0  0  0  0  0  0  0  0  0  # atno 8008 bound_to 7997
  154.5850  140.2411  155.7970 H   0  0  0  0  0  0  0  0  0  0  0  0  # atno 8009 bound_to 7997
  156.2220  140.2967  155.9983 H   0  0  0  0  0  0  0  0  0  0  0  0  # atno 8010 bound_to 7997
  139.9038  144.6313  150.8609 H   0  0  0  0  0  0  0  0  0  0  0  0  # atno 10167 bound_to 10162
  157.6783  130.9924  150.1966 H   0  0  0  0  0  0  0  0  0  0  0  0  # atno 10718 bound_to 10713
  154.5875  135.5556  153.7246 H   0  0  0  0  0  0  0  0  0  0  0  0  # atno 10763 bound_to 10752
  153.0104  135.6335  154.1896 H   0  0  0  0  0  0  0  0  0  0  0  0  # atno 10764 bound_to 10752
  154.1836  135.2886  155.3024 H   0  0  0  0  0  0  0  0  0  0  0  0  # atno 10765 bound_to 10752
  140.6537  134.4423  157.5235 H   0  0  0  0  0  0  0  0  0  0  0  0  # atno 11005 bound_to 11000
  144.8405  139.5479  143.6902 LP  0  0  0  0  0  0  0  0  0  0  0  0  # atno 17320 bound_to 7965
  146.2774  139.6787  142.9253 LP  0  0  0  0  0  0  0  0  0  0  0  0  # atno 17321 bound_to 7965
  140.7701  143.3417  151.2195 LP  0  0  0  0  0  0  0  0  0  0  0  0  # atno 17342 bound_to 10162
  139.7002  143.9546  152.2902 LP  0  0  0  0  0  0  0  0  0  0  0  0  # atno 17343 bound_to 10162
  156.2666  130.3717  149.8075 LP  0  0  0  0  0  0  0  0  0  0  0  0  # atno 17370 bound_to 10713
  156.5804  130.8463  151.3381 LP  0  0  0  0  0  0  0  0  0  0  0  0  # atno 17371 bound_to 10713
  139.9037  134.8498  156.1792 LP  0  0  0  0  0  0  0  0  0  0  0  0  # atno 17394 bound_to 11000
  141.0518  133.6885  156.1785 LP  0  0  0  0  0  0  0  0  0  0  0  0  # atno 17395 bound_to 11000

$$$$
