AV-unprocessed.smi:1944|AV-procd|sdf|7854|dock9
  -GOLD-   2272010 03D 1   1.00000     0.00000
 Structure written by MMmdl.
 46 47  0  0  0  0  0  0  0  0  2 V2000
  151.5930  138.2445  154.3955 C   0  0  0  0  0  0  0  0  0  0  0  0
  150.2400  138.3019  153.9565 O   0  0  0  0  0  0  0  0  0  0  0  0
  149.5415  139.4823  154.1257 C   0  0  0  0  0  0  0  0  0  0  0  0
  150.1591  140.5126  154.7563 N   0  0  0  0  0  0  0  0  0  0  0  0
  149.4802  141.6667  154.9196 C   0  0  0  0  0  0  0  0  0  0  0  0
  148.1639  141.8575  154.4614 C   0  0  0  0  0  0  0  0  0  0  0  0
  147.5209  140.7905  153.8074 C   0  0  0  0  0  0  0  0  0  0  0  0
  148.2147  139.5672  153.6424 C   0  0  0  0  0  0  0  0  0  0  0  0
  147.6632  138.4376  152.9775 N   0  0  0  0  0  0  0  0  0  0  0  0
  146.3847  138.0245  152.9606 C   0  0  0  0  0  0  0  0  0  0  0  0
  145.4569  138.5540  153.5724 O   0  0  0  0  0  0  0  0  0  0  0  0
  146.2350  136.9299  152.2010 N   0  0  0  0  0  0  0  0  0  0  0  0
  144.9678  136.2452  151.9722 C   0  0  0  0  0  0  0  0  0  0  0  0
  145.0798  135.2204  150.8261 C   0  0  0  0  0  0  0  0  0  0  0  0
  145.6398  133.9115  151.2592 N   0  3  1  0  0  0  0  0  0  0  0  0
  145.2670  133.5815  152.6615 C   0  0  0  0  0  0  0  0  0  0  0  0
  146.0268  132.3455  153.1684 C   0  0  0  0  0  0  0  0  0  0  0  0
  145.7985  131.1425  152.2474 C   0  0  0  0  0  0  0  0  0  0  0  0
  146.1724  131.5133  150.8059 C   0  0  0  0  0  0  0  0  0  0  0  0
  145.4232  132.7701  150.3134 C   0  0  1  0  0  0  0  0  0  0  0  0
  143.9354  132.4823  150.0167 C   0  0  0  0  0  0  0  0  0  0  0  0
  151.9934  137.2503  154.1985 H   0  0  0  0  0  0  0  0  0  0  0  0
  151.6730  138.4258  155.4683 H   0  0  0  0  0  0  0  0  0  0  0  0
  152.2171  138.9635  153.8628 H   0  0  0  0  0  0  0  0  0  0  0  0
  150.0046  142.4643  155.4245 H   0  0  0  0  0  0  0  0  0  0  0  0
  147.6607  142.8025  154.6036 H   0  0  0  0  0  0  0  0  0  0  0  0
  146.5194  140.9348  153.4329 H   0  0  0  0  0  0  0  0  0  0  0  0
  148.3328  137.8448  152.5087 H   0  0  0  0  0  0  0  0  0  0  0  0
  147.0502  136.5541  151.7385 H   0  0  0  0  0  0  0  0  0  0  0  0
  144.6540  135.7746  152.9042 H   0  0  0  0  0  0  0  0  0  0  0  0
  144.2136  136.9947  151.7306 H   0  0  0  0  0  0  0  0  0  0  0  0
  144.0763  135.0525  150.4323 H   0  0  0  0  0  0  0  0  0  0  0  0
  145.6586  135.6211  149.9938 H   0  0  0  0  0  0  0  0  0  0  0  0
  145.5018  134.4254  153.3113 H   0  0  0  0  0  0  0  0  0  0  0  0
  144.1904  133.4252  152.7365 H   0  0  0  0  0  0  0  0  0  0  0  0
  147.0935  132.5680  153.2215 H   0  0  0  0  0  0  0  0  0  0  0  0
  145.7103  132.1034  154.1834 H   0  0  0  0  0  0  0  0  0  0  0  0
  146.3948  130.2936  152.5834 H   0  0  0  0  0  0  0  0  0  0  0  0
  144.7559  130.8270  152.2974 H   0  0  0  0  0  0  0  0  0  0  0  0
  147.2471  131.6948  150.7552 H   0  0  0  0  0  0  0  0  0  0  0  0
  145.9788  130.6710  150.1408 H   0  0  0  0  0  0  0  0  0  0  0  0
  145.8877  133.0312  149.3638 H   0  0  0  0  0  0  0  0  0  0  0  0
  143.8366  131.6257  149.3495 H   0  0  0  0  0  0  0  0  0  0  0  0
  143.4514  133.3215  149.5176 H   0  0  0  0  0  0  0  0  0  0  0  0
  143.3668  132.2559  150.9182 H   0  0  0  0  0  0  0  0  0  0  0  0
  146.6402  134.0484  151.2841 H   0  0  0  0  0  0  0  0  0  0  0  0
  1  2  1  0  0  0  0
  1 22  1  0  0  0  0
  1 23  1  0  0  0  0
  1 24  1  0  0  0  0
  2  3  1  0  0  0  0
  3  8  1  0  0  0  0
  3  4  2  0  0  0  0
  4  5  1  0  0  0  0
  5  6  2  0  0  0  0
  5 25  1  0  0  0  0
  6  7  1  0  0  0  0
  6 26  1  0  0  0  0
  7  8  2  0  0  0  0
  7 27  1  0  0  0  0
  8  9  1  0  0  0  0
  9 10  1  0  0  0  0
  9 28  1  0  0  0  0
 10 11  2  0  0  0  0
 10 12  1  0  0  0  0
 12 13  1  0  0  0  0
 12 29  1  0  0  0  0
 13 14  1  0  0  0  0
 13 30  1  0  0  0  0
 13 31  1  0  0  0  0
 14 15  1  0  0  0  0
 14 32  1  0  0  0  0
 14 33  1  0  0  0  0
 15 20  1  0  0  0  0
 15 16  1  0  0  0  0
 15 46  1  0  0  0  0
 16 17  1  0  0  0  0
 16 34  1  0  0  0  0
 16 35  1  0  0  0  0
 17 18  1  0  0  0  0
 17 36  1  0  0  0  0
 17 37  1  0  0  0  0
 18 19  1  0  0  0  0
 18 38  1  0  0  0  0
 18 39  1  0  0  0  0
 19 20  1  0  0  0  0
 19 40  1  0  0  0  0
 19 41  1  0  0  0  0
 20 21  1  0  0  0  0
 20 42  1  0  0  0  0
 21 43  1  0  0  0  0
 21 44  1  0  0  0  0
 21 45  1  0  0  0  0
M  CHG  1  15   1
M  END
> <s_m_source_file>
AV-unprocessed.smi

> <i_m_source_file_index>
1944

> <i_lp_mmshare_version>
43012

> <i_f3d_flags>
0

> <s_epik_input>
W0NIM11PYzFuW2NIXVtjSF1bY0hdYzFbTkhdQyg9TylbTkhdW0NIMl1bQ0gyXU4yW0NIMl1bQ0gyXVtDSDJdW0NIMl1bQ0BIXTJbQ0gzXQ==

> <s_epik_cmdline>
J2VwaWtfcHl0aG9uJywgJy1waCcsICc3LjAnLCAnLXRuJywgJzgnLCAnLW1hJywgJzIwMCcsICctbWV0YWxfYmluZGluZycsICctaW1hZScsICc8aW5maWxlLm1hZT4nLCAnLW9tYWUnLCAnPG91dGZpbGUubWFlPic=

> <r_lp_tautomer_probability>
1

> <r_epik_Ionization_Penalty>
0.00219525

> <r_epik_Ionization_Penalty_Charging>
0.00211816

> <r_epik_Ionization_Penalty_Neutral>
7.7088e-05

> <r_epik_State_Penalty>
0.00145254

> <r_epik_Charging_Adjusted_Penalty>
0.0035707

> <i_epik_Tot_Q>
1

> <i_epik_Tot_abs_Q>
1

> <r_epik_Metal_State_Penalty>
-0

> <b_epik_Metal_Only>
0

> <s_lp_Force_Field>
OPLS_2005

> <r_lp_Energy>
22.8304

> <b_lp_Chiralities_Consistent>
1

> <s_lp_Variant>
AV-unprocessed.smi:1944-2

> <Gold.Version>
5.8.1

> <Gold.Id.Protein>
6NUR|6NUR_protein|mol2

> <Gold.PLP.Fitness>
45.0301

> <Gold.PLP.PLP>
-35.2337

> <Gold.PLP.part.hbond>
-3.8017

> <Gold.PLP.part.metal>
0.0000

> <Gold.PLP.part.buried>
-0.7587

> <Gold.PLP.part.nonpolar>
-33.9664

> <Gold.PLP.part.repulsive>
3.0716

> <Gold.PLP.ligand.clash>
0.0000

> <Gold.PLP.ligand.torsion>
0.6523

> <Gold.PLP.Chemscore.Hbond>
2.9040

> <Gold.PLP.Chemscore.CHOScore>
0.7743

> <Gold.PLP.Chemscore.Metal>
0.0000

> <Gold.Chemscore.Hbonds>
donor molecule, donor type, donor heavy atom, donor atom, acceptor molecule, acceptor atom, score
      L1  H     9    28       P1  7948  1.00
      L1  H    12    29       P1  7948  0.94
      P1  H  7989  7998       L1     4  0.93
      L1  C     5    25       P1  8028  0.78

> <Gold.PLP.Chemscore.Internal.Correction>
0.0661

> <Gold.Rescore>
     Score         DG    S(hbond)    S(metal)    S(lipo)     H(rot)  DE(clash)    DE(int)     intcor
     16.27     -17.74       1.93        0.00      87.07       1.71       0.05       1.42       ----

> <Gold.Chemscore.Fitness>
16.2714

> <Gold.Chemscore.DG>
-17.7398

> <Gold.Chemscore.ZeroCoef>
-5.4800

> <Gold.Chemscore.Hbond>
1.9318

> <Gold.Chemscore.Metal>
0.0000

> <Gold.Chemscore.Lipo>
87.0672

> <Gold.Chemscore.Internal_Hbond>
0.0000

> <Gold.Chemscore.DEClash>
0.0473

> <Gold.Chemscore.DEInternal>
1.4210

> <Gold.Chemscore.Rot>
1.7107

> <Gold.Chemscore.Internal.Correction>
   9.000000E+99

> <Gold.Chemscore.Hbonds>
donor molecule, donor type, donor heavy atom, donor atom, acceptor molecule, acceptor atom, score
      L1  H     9    28       P1  7948  0.98
      L1  H    12    29       P1  7948  0.91
      P1  H  7989  7998       L1     4  0.16

> <Gold.Chemscore.Hbond.Weighted>
-6.4523

> <Gold.Chemscore.Metal.Weighted>
-0.0000

> <Gold.Chemscore.Lipo.Weighted>
-10.1869

> <Gold.Chemscore.Internal_Hbond.Weighted>
0.0000

> <Gold.Chemscore.DEClash.Weighted>
0.0473

> <Gold.Chemscore.DEInternal.Weighted>
1.4210

> <Gold.Chemscore.Rot.Weighted>
4.3794

> <Gold.Chemscore.Internal.Correction.Weighted>
   9.000000E+99

> <Gold.Protein.RotatedTorsions>
[ 6907 6896 6895 6894 ] final    9.73 input  -60.11 | X-H torsion
[ 7974 7965 7964 7962 ] final -161.71 input  175.53 | X-H torsion
[ 8008 7997 7996 7995 ] final   84.85 input   59.86 | X-H torsion
[ 10167 10162 10161 10158 ] final  171.80 input  -65.29 | X-H torsion
[ 10718 10713 10712 10709 ] final  103.46 input   66.30 | X-H torsion
[ 10763 10752 10751 10750 ] final  159.20 input  -60.55 | X-H torsion
[ 11005 11000 10999 10996 ] final   77.15 input  -57.11 | X-H torsion

> <Gold.Protein.ActiveResidues>
 VAL166  LYS551  ARG553  GLY616  TRP617  ASP618  TYR619  PRO620  LYS621  CYS622 
 ASP623  PHE694  ASN695  SER759  ASP760  ASP761  ALA762  ILE779  LEU786  VAL792 
 PHE793  MET794  SER795  GLU796  ALA797  LYS798  CYS799  TRP800  GLU811  SER814 

> <Gold.Protein.RotatedAtoms>
  151.7269  135.0883  160.0293 H   0  0  0  0  0  0  0  0  0  0  0  0  # atno 6907 bound_to 6896
  152.3566  133.6241  159.5992 H   0  0  0  0  0  0  0  0  0  0  0  0  # atno 6908 bound_to 6896
  150.7575  133.9406  159.3496 H   0  0  0  0  0  0  0  0  0  0  0  0  # atno 6909 bound_to 6896
  144.7382  140.3358  143.6144 H   0  0  0  0  0  0  0  0  0  0  0  0  # atno 7974 bound_to 7965
  155.9424  140.3407  155.6339 H   0  0  0  0  0  0  0  0  0  0  0  0  # atno 8008 bound_to 7997
  155.7022  140.0761  157.2424 H   0  0  0  0  0  0  0  0  0  0  0  0  # atno 8009 bound_to 7997
  154.4105  140.1638  156.2191 H   0  0  0  0  0  0  0  0  0  0  0  0  # atno 8010 bound_to 7997
  139.5057  144.3445  151.9985 H   0  0  0  0  0  0  0  0  0  0  0  0  # atno 10167 bound_to 10162
  157.6772  131.0779  150.5558 H   0  0  0  0  0  0  0  0  0  0  0  0  # atno 10718 bound_to 10713
  154.2281  135.2779  155.2900 H   0  0  0  0  0  0  0  0  0  0  0  0  # atno 10763 bound_to 10752
  154.5647  135.5636  153.7042 H   0  0  0  0  0  0  0  0  0  0  0  0  # atno 10764 bound_to 10752
  153.0026  135.6306  154.2422 H   0  0  0  0  0  0  0  0  0  0  0  0  # atno 10765 bound_to 10752
  139.9267  134.7660  156.1486 H   0  0  0  0  0  0  0  0  0  0  0  0  # atno 11005 bound_to 11000
  145.7425  139.1768  143.2368 LP  0  0  0  0  0  0  0  0  0  0  0  0  # atno 17320 bound_to 7965
  146.1123  140.7413  142.9497 LP  0  0  0  0  0  0  0  0  0  0  0  0  # atno 17321 bound_to 7965
  140.2882  144.3783  150.6097 LP  0  0  0  0  0  0  0  0  0  0  0  0  # atno 17342 bound_to 10162
  140.5966  143.2167  151.7152 LP  0  0  0  0  0  0  0  0  0  0  0  0  # atno 17343 bound_to 10162
  156.5862  130.4317  149.5956 LP  0  0  0  0  0  0  0  0  0  0  0  0  # atno 17370 bound_to 10713
  156.2621  130.6968  151.1740 LP  0  0  0  0  0  0  0  0  0  0  0  0  # atno 17371 bound_to 10713
  141.0829  133.6746  156.2374 LP  0  0  0  0  0  0  0  0  0  0  0  0  # atno 17394 bound_to 11000
  140.6317  134.5257  157.5560 LP  0  0  0  0  0  0  0  0  0  0  0  0  # atno 17395 bound_to 11000

$$$$
