AV-unprocessed.smi:2452|AV-procd|sdf|9685|dock6
  -GOLD-   2272013323D 1   1.00000     0.00000
 Structure written by MMmdl.
 34 35  0  0  0  0  0  0  0  0  1 V2000
  147.3671  141.4120  153.8940 C   0  0  0  0  0  0  0  0  0  0  0  0
  148.6346  140.6709  154.2179 C   0  0  0  0  0  0  0  0  0  0  0  0
  149.6340  141.3255  154.7909 N   0  0  0  0  0  0  0  0  0  0  0  0
  150.6967  140.4165  154.9087 O   0  0  0  0  0  0  0  0  0  0  0  0
  150.3090  139.2182  154.3991 C   0  0  0  0  0  0  0  0  0  0  0  0
  151.3140  138.1168  154.4172 C   0  0  0  0  0  0  0  0  0  0  0  0
  149.0153  139.3175  153.9800 C   0  0  0  0  0  0  0  0  0  0  0  0
  148.2826  138.2714  153.3655 N   0  0  0  0  0  0  0  0  0  0  0  0
  146.9517  138.1048  153.3856 C   0  0  0  0  0  0  0  0  0  0  0  0
  146.1643  138.8095  154.0168 O   0  0  0  0  0  0  0  0  0  0  0  0
  146.5771  137.0532  152.6445 N   0  0  0  0  0  0  0  0  0  0  0  0
  145.1983  136.6216  152.4452 C   0  0  0  0  0  0  0  0  0  0  0  0
  145.0911  135.5620  151.3355 C   0  0  2  0  0  0  0  0  0  0  0  0
  143.8098  134.7361  151.3906 C   0  0  0  0  0  0  0  0  0  0  0  0
  144.1848  133.4821  150.6210 C   0  0  0  0  0  0  0  0  0  0  0  0
  145.7140  133.4375  150.7094 C   0  0  0  0  0  0  0  0  0  0  0  0
  146.0916  134.5675  151.4874 O   0  0  0  0  0  0  0  0  0  0  0  0
  146.9118  141.0342  152.9785 H   0  0  0  0  0  0  0  0  0  0  0  0
  147.5538  142.4763  153.7472 H   0  0  0  0  0  0  0  0  0  0  0  0
  146.6383  141.3130  154.6984 H   0  0  0  0  0  0  0  0  0  0  0  0
  151.0107  137.2982  153.7644 H   0  0  0  0  0  0  0  0  0  0  0  0
  151.4312  137.7199  155.4254 H   0  0  0  0  0  0  0  0  0  0  0  0
  152.2866  138.4746  154.0790 H   0  0  0  0  0  0  0  0  0  0  0  0
  148.8280  137.5460  152.9239 H   0  0  0  0  0  0  0  0  0  0  0  0
  147.2921  136.5269  152.1642 H   0  0  0  0  0  0  0  0  0  0  0  0
  144.8234  136.2194  153.3867 H   0  0  0  0  0  0  0  0  0  0  0  0
  144.5740  137.4842  152.2057 H   0  0  0  0  0  0  0  0  0  0  0  0
  145.1886  136.0187  150.3486 H   0  0  0  0  0  0  0  0  0  0  0  0
  143.5722  134.4755  152.4230 H   0  0  0  0  0  0  0  0  0  0  0  0
  142.9510  135.2565  150.9657 H   0  0  0  0  0  0  0  0  0  0  0  0
  143.7181  132.5934  151.0468 H   0  0  0  0  0  0  0  0  0  0  0  0
  143.8714  133.5607  149.5792 H   0  0  0  0  0  0  0  0  0  0  0  0
  146.0756  132.5197  151.1737 H   0  0  0  0  0  0  0  0  0  0  0  0
  146.1583  133.5137  149.7162 H   0  0  0  0  0  0  0  0  0  0  0  0
  1  2  1  0  0  0  0
  1 18  1  0  0  0  0
  1 19  1  0  0  0  0
  1 20  1  0  0  0  0
  2  7  1  0  0  0  0
  2  3  2  0  0  0  0
  3  4  1  0  0  0  0
  4  5  1  0  0  0  0
  5  6  1  0  0  0  0
  5  7  2  0  0  0  0
  6 21  1  0  0  0  0
  6 22  1  0  0  0  0
  6 23  1  0  0  0  0
  7  8  1  0  0  0  0
  8  9  1  0  0  0  0
  8 24  1  0  0  0  0
  9 10  2  0  0  0  0
  9 11  1  0  0  0  0
 11 12  1  0  0  0  0
 11 25  1  0  0  0  0
 12 13  1  0  0  0  0
 12 26  1  0  0  0  0
 12 27  1  0  0  0  0
 13 17  1  0  0  0  0
 13 14  1  0  0  0  0
 13 28  1  0  0  0  0
 14 15  1  0  0  0  0
 14 29  1  0  0  0  0
 14 30  1  0  0  0  0
 15 16  1  0  0  0  0
 15 31  1  0  0  0  0
 15 32  1  0  0  0  0
 16 17  1  0  0  0  0
 16 33  1  0  0  0  0
 16 34  1  0  0  0  0
M  END
> <s_m_source_file>
AV-unprocessed.smi

> <i_m_source_file_index>
2452

> <i_lp_mmshare_version>
43012

> <i_f3d_flags>
0

> <s_epik_input>
W0NIM11jMW5vYyhbQ0gzXSljMVtOSF1DKD1PKVtOSF1bQ0gyXVtDQEBIXTJbQ0gyXVtDSDJdW0NIMl1PMg==

> <s_epik_cmdline>
J2VwaWtfcHl0aG9uJywgJy1waCcsICc3LjAnLCAnLXRuJywgJzgnLCAnLW1hJywgJzIwMCcsICctbWV0YWxfYmluZGluZycsICctaW1hZScsICc8aW5maWxlLm1hZT4nLCAnLW9tYWUnLCAnPG91dGZpbGUubWFlPic=

> <r_lp_tautomer_probability>
1

> <r_epik_Ionization_Penalty>
3.28451e-05

> <r_epik_Ionization_Penalty_Charging>
0

> <r_epik_Ionization_Penalty_Neutral>
3.28451e-05

> <r_epik_State_Penalty>
-0

> <r_epik_Charging_Adjusted_Penalty>
0

> <i_epik_Tot_Q>
0

> <i_epik_Tot_abs_Q>
0

> <r_epik_Metal_State_Penalty>
-0

> <b_epik_Metal_Only>
0

> <s_lp_Force_Field>
OPLS_2005

> <r_lp_Energy>
18.3338

> <b_lp_Chiralities_Consistent>
1

> <s_lp_Variant>
AV-unprocessed.smi:2452-1

> <Gold.Version>
5.8.1

> <Gold.Id.Protein>
6NUR|6NUR_protein|mol2

> <Gold.PLP.Fitness>
38.1814

> <Gold.PLP.PLP>
-30.2749

> <Gold.PLP.part.hbond>
-4.6210

> <Gold.PLP.part.metal>
0.0000

> <Gold.PLP.part.buried>
-2.9894

> <Gold.PLP.part.nonpolar>
-23.6292

> <Gold.PLP.part.repulsive>
0.5811

> <Gold.PLP.ligand.clash>
0.0000

> <Gold.PLP.ligand.torsion>
0.3757

> <Gold.PLP.Chemscore.Hbond>
2.8000

> <Gold.PLP.Chemscore.CHOScore>
0.0000

> <Gold.PLP.Chemscore.Metal>
0.0000

> <Gold.Chemscore.Hbonds>
donor molecule, donor type, donor heavy atom, donor atom, acceptor molecule, acceptor atom, score
      L1  H     8    24       P1  7948  1.00
      L1  H    11    25       P1  7948  1.00
      P1  H  7989  7998       L1     4  0.71

> <Gold.PLP.Chemscore.Internal.Correction>
0.2579

> <Gold.Rescore>
     Score         DG    S(hbond)    S(metal)    S(lipo)     H(rot)  DE(clash)    DE(int)     intcor
     15.11     -16.62       1.92        0.00      67.30       1.23       0.12       1.39       ----

> <Gold.Chemscore.Fitness>
15.1058

> <Gold.Chemscore.DG>
-16.6196

> <Gold.Chemscore.ZeroCoef>
-5.4800

> <Gold.Chemscore.Hbond>
1.9233

> <Gold.Chemscore.Metal>
0.0000

> <Gold.Chemscore.Lipo>
67.2995

> <Gold.Chemscore.Internal_Hbond>
0.0000

> <Gold.Chemscore.DEClash>
0.1221

> <Gold.Chemscore.DEInternal>
1.3917

> <Gold.Chemscore.Rot>
1.2337

> <Gold.Chemscore.Internal.Correction>
   9.000000E+99

> <Gold.Chemscore.Hbonds>
donor molecule, donor type, donor heavy atom, donor atom, acceptor molecule, acceptor atom, score
      L1  H     8    24       P1  7948  0.96
      L1  H    11    25       P1  7948  0.94
      P1  H  7989  7998       L1     4  0.02

> <Gold.Chemscore.Hbond.Weighted>
-6.4238

> <Gold.Chemscore.Metal.Weighted>
-0.0000

> <Gold.Chemscore.Lipo.Weighted>
-7.8740

> <Gold.Chemscore.Internal_Hbond.Weighted>
0.0000

> <Gold.Chemscore.DEClash.Weighted>
0.1221

> <Gold.Chemscore.DEInternal.Weighted>
1.3917

> <Gold.Chemscore.Rot.Weighted>
3.1582

> <Gold.Chemscore.Internal.Correction.Weighted>
   9.000000E+99

> <Gold.Protein.RotatedTorsions>
[ 6907 6896 6895 6894 ] final  177.34 input  -60.11 | X-H torsion
[ 7974 7965 7964 7962 ] final  124.71 input  175.53 | X-H torsion
[ 8008 7997 7996 7995 ] final   51.34 input   59.86 | X-H torsion
[ 10167 10162 10161 10158 ] final   17.56 input  -65.29 | X-H torsion
[ 10718 10713 10712 10709 ] final -101.86 input   66.30 | X-H torsion
[ 10763 10752 10751 10750 ] final  164.89 input  -60.55 | X-H torsion
[ 11005 11000 10999 10996 ] final   23.78 input  -57.11 | X-H torsion

> <Gold.Protein.ActiveResidues>
 VAL166  LYS551  ARG553  GLY616  TRP617  ASP618  TYR619  PRO620  LYS621  CYS622 
 ASP623  PHE694  ASN695  SER759  ASP760  ASP761  ALA762  ILE779  LEU786  VAL792 
 PHE793  MET794  SER795  GLU796  ALA797  LYS798  CYS799  TRP800  GLU811  SER814 

> <Gold.Protein.RotatedAtoms>
  151.7056  133.3311  159.3277 H   0  0  0  0  0  0  0  0  0  0  0  0  # atno 6907 bound_to 6896
  150.7716  134.6577  159.6332 H   0  0  0  0  0  0  0  0  0  0  0  0  # atno 6908 bound_to 6896
  152.3743  134.6690  160.0217 H   0  0  0  0  0  0  0  0  0  0  0  0  # atno 6909 bound_to 6896
  145.0813  139.3655  143.4908 H   0  0  0  0  0  0  0  0  0  0  0  0  # atno 7974 bound_to 7965
  155.4337  140.3451  155.4282 H   0  0  0  0  0  0  0  0  0  0  0  0  # atno 8008 bound_to 7997
  156.1321  140.1517  156.9080 H   0  0  0  0  0  0  0  0  0  0  0  0  # atno 8009 bound_to 7997
  154.4903  140.0843  156.7559 H   0  0  0  0  0  0  0  0  0  0  0  0  # atno 8010 bound_to 7997
  140.5717  143.9148  150.6718 H   0  0  0  0  0  0  0  0  0  0  0  0  # atno 10167 bound_to 10162
  156.0209  130.5393  150.7025 H   0  0  0  0  0  0  0  0  0  0  0  0  # atno 10718 bound_to 10713
  154.3158  135.2756  155.2544 H   0  0  0  0  0  0  0  0  0  0  0  0  # atno 10763 bound_to 10752
  154.4919  135.5831  153.6469 H   0  0  0  0  0  0  0  0  0  0  0  0  # atno 10764 bound_to 10752
  152.9882  135.6136  154.3339 H   0  0  0  0  0  0  0  0  0  0  0  0  # atno 10765 bound_to 10752
  140.3659  134.2075  155.7669 H   0  0  0  0  0  0  0  0  0  0  0  0  # atno 11005 bound_to 11000
  146.3531  140.0604  142.8629 LP  0  0  0  0  0  0  0  0  0  0  0  0  # atno 17320 bound_to 7965
  145.1175  140.9442  143.4620 LP  0  0  0  0  0  0  0  0  0  0  0  0  # atno 17321 bound_to 7965
  140.2625  143.3513  152.1310 LP  0  0  0  0  0  0  0  0  0  0  0  0  # atno 17342 bound_to 10162
  139.5121  144.6911  151.5756 LP  0  0  0  0  0  0  0  0  0  0  0  0  # atno 17343 bound_to 10162
  157.4682  131.0890  151.0671 LP  0  0  0  0  0  0  0  0  0  0  0  0  # atno 17370 bound_to 10713
  157.1139  130.6033  149.5488 LP  0  0  0  0  0  0  0  0  0  0  0  0  # atno 17371 bound_to 10713
  141.1970  133.8070  157.0648 LP  0  0  0  0  0  0  0  0  0  0  0  0  # atno 17394 bound_to 11000
  140.0590  134.9765  157.1271 LP  0  0  0  0  0  0  0  0  0  0  0  0  # atno 17395 bound_to 11000

$$$$
