AV-unprocessed.smi:249|AV-procd|sdf|1912|dock10
  -GOLD-   2262021 03D 1   1.00000     0.00000
 Structure written by MMmdl.
 64 67  0  0  0  0  0  0  0  0  2 V2000
  145.4123  129.3097  151.6935 C   0  0  0  0  0  0  0  0  0  0  0  0
  146.3847  130.2467  152.4293 C   0  0  0  0  0  0  0  0  0  0  0  0
  147.1890  129.5598  153.4813 N   0  3  2  0  0  0  0  0  0  0  0  0
  147.5846  130.4964  154.5719 C   0  0  0  0  0  0  0  0  0  0  0  0
  148.3322  129.7807  155.7073 C   0  0  0  0  0  0  0  0  0  0  0  0
  149.5979  129.0656  155.1909 C   0  0  2  0  0  0  0  0  0  0  0  0
  150.6463  129.9815  154.7113 N   0  0  0  0  0  0  0  0  0  0  0  0
  151.9426  129.4046  154.3691 C   0  0  0  0  0  0  0  0  0  0  0  0
  150.8104  131.1333  155.4009 C   0  0  0  0  0  0  0  0  0  0  0  0
  151.5484  131.0721  156.5364 N   0  0  0  0  0  0  0  0  0  0  0  0
  151.7544  132.1779  157.2581 C   0  0  0  0  0  0  0  0  0  0  0  0
  151.3187  133.4183  157.0276 N   0  0  0  0  0  0  0  0  0  0  0  0
  150.5626  133.4784  155.8939 C   0  0  0  0  0  0  0  0  0  0  0  0
  150.2603  132.3917  155.0264 C   0  0  0  0  0  0  0  0  0  0  0  0
  149.4711  132.8317  153.9710 N   0  0  0  0  0  0  0  0  0  0  0  0
  149.3232  134.1088  154.1958 C   0  0  0  0  0  0  0  0  0  0  0  0
  149.9290  134.5777  155.3401 N   0  0  0  0  0  0  0  0  0  0  0  0
  149.9311  135.9499  155.8172 C   0  0  0  0  0  0  0  0  0  0  0  0
  149.2161  136.9662  154.8878 C   0  0  1  0  0  0  0  0  0  0  0  0
  147.7033  136.9703  155.2086 C   0  0  0  0  0  0  0  0  0  0  0  0
  146.9704  136.2061  154.2724 O   0  0  0  0  0  0  0  0  0  0  0  0
  149.8256  138.3988  154.8990 C   0  0  1  0  0  0  0  0  0  0  0  0
  149.8470  139.1073  156.2449 C   0  0  0  0  0  0  0  0  0  0  0  0
  150.8963  140.1941  156.0378 C   0  0  0  0  0  0  0  0  0  0  0  0
  151.8195  139.6690  155.0930 O   0  0  0  0  0  0  0  0  0  0  0  0
  151.3205  138.4489  154.5586 C   0  0  0  0  0  0  0  0  0  0  0  0
  149.1290  128.0918  154.0937 C   0  0  0  0  0  0  0  0  0  0  0  0
  148.3666  128.7988  152.9479 C   0  0  1  0  0  0  0  0  0  0  0  0
  147.9778  127.7421  151.8928 C   0  0  0  0  0  0  0  0  0  0  0  0
  144.9695  129.8191  150.8372 H   0  0  0  0  0  0  0  0  0  0  0  0
  144.5869  128.9858  152.3264 H   0  0  0  0  0  0  0  0  0  0  0  0
  145.9245  128.4233  151.3181 H   0  0  0  0  0  0  0  0  0  0  0  0
  147.0351  130.6574  151.6610 H   0  0  0  0  0  0  0  0  0  0  0  0
  145.8462  131.0902  152.8635 H   0  0  0  0  0  0  0  0  0  0  0  0
  148.1987  131.2985  154.1599 H   0  0  0  0  0  0  0  0  0  0  0  0
  146.7061  130.9694  155.0069 H   0  0  0  0  0  0  0  0  0  0  0  0
  148.5641  130.4858  156.5054 H   0  0  0  0  0  0  0  0  0  0  0  0
  147.6660  129.0457  156.1608 H   0  0  0  0  0  0  0  0  0  0  0  0
  150.0222  128.4759  156.0039 H   0  0  0  0  0  0  0  0  0  0  0  0
  152.7221  130.1638  154.2819 H   0  0  0  0  0  0  0  0  0  0  0  0
  151.8857  128.8898  153.4101 H   0  0  0  0  0  0  0  0  0  0  0  0
  152.2556  128.6853  155.1268 H   0  0  0  0  0  0  0  0  0  0  0  0
  152.3547  132.0517  158.1470 H   0  0  0  0  0  0  0  0  0  0  0  0
  148.7537  134.7459  153.5346 H   0  0  0  0  0  0  0  0  0  0  0  0
  149.4551  135.9454  156.7986 H   0  0  0  0  0  0  0  0  0  0  0  0
  150.9646  136.2573  155.9819 H   0  0  0  0  0  0  0  0  0  0  0  0
  149.2956  136.5919  153.8670 H   0  0  0  0  0  0  0  0  0  0  0  0
  147.5110  136.5810  156.2082 H   0  0  0  0  0  0  0  0  0  0  0  0
  147.3172  137.9901  155.2029 H   0  0  0  0  0  0  0  0  0  0  0  0
  147.4455  136.1945  153.4555 H   0  0  0  0  0  0  0  0  0  0  0  0
  149.2892  139.0276  154.1864 H   0  0  0  0  0  0  0  0  0  0  0  0
  148.8879  139.5355  156.5301 H   0  0  0  0  0  0  0  0  0  0  0  0
  150.1659  138.4231  157.0328 H   0  0  0  0  0  0  0  0  0  0  0  0
  150.4388  141.0879  155.6124 H   0  0  0  0  0  0  0  0  0  0  0  0
  151.3917  140.4764  156.9671 H   0  0  0  0  0  0  0  0  0  0  0  0
  151.8530  137.6268  155.0390 H   0  0  0  0  0  0  0  0  0  0  0  0
  151.5083  138.3910  153.4864 H   0  0  0  0  0  0  0  0  0  0  0  0
  149.9750  127.5294  153.6981 H   0  0  0  0  0  0  0  0  0  0  0  0
  148.4755  127.3430  154.5443 H   0  0  0  0  0  0  0  0  0  0  0  0
  149.0416  129.5128  152.4730 H   0  0  0  0  0  0  0  0  0  0  0  0
  148.8273  127.1023  151.6516 H   0  0  0  0  0  0  0  0  0  0  0  0
  147.6655  128.1898  150.9500 H   0  0  0  0  0  0  0  0  0  0  0  0
  147.1744  127.0972  152.2504 H   0  0  0  0  0  0  0  0  0  0  0  0
  146.5799  128.8715  153.9003 H   0  0  0  0  0  0  0  0  0  0  0  0
  1  2  1  0  0  0  0
  1 30  1  0  0  0  0
  1 31  1  0  0  0  0
  1 32  1  0  0  0  0
  2  3  1  0  0  0  0
  2 33  1  0  0  0  0
  2 34  1  0  0  0  0
  3 28  1  0  0  0  0
  3  4  1  0  0  0  0
  3 64  1  0  0  0  0
  4  5  1  0  0  0  0
  4 35  1  0  0  0  0
  4 36  1  0  0  0  0
  5  6  1  0  0  0  0
  5 37  1  0  0  0  0
  5 38  1  0  0  0  0
  6  7  1  0  0  0  0
  6 27  1  0  0  0  0
  6 39  1  0  0  0  0
  7  8  1  0  0  0  0
  7  9  1  0  0  0  0
  8 40  1  0  0  0  0
  8 41  1  0  0  0  0
  8 42  1  0  0  0  0
  9 14  1  0  0  0  0
  9 10  2  0  0  0  0
 10 11  1  0  0  0  0
 11 12  2  0  0  0  0
 11 43  1  0  0  0  0
 12 13  1  0  0  0  0
 13 17  1  0  0  0  0
 13 14  2  0  0  0  0
 14 15  1  0  0  0  0
 15 16  2  0  0  0  0
 16 17  1  0  0  0  0
 16 44  1  0  0  0  0
 17 18  1  0  0  0  0
 18 19  1  0  0  0  0
 18 45  1  0  0  0  0
 18 46  1  0  0  0  0
 19 20  1  0  0  0  0
 19 22  1  0  0  0  0
 19 47  1  0  0  0  0
 20 21  1  0  0  0  0
 20 48  1  0  0  0  0
 20 49  1  0  0  0  0
 21 50  1  0  0  0  0
 22 26  1  0  0  0  0
 22 23  1  0  0  0  0
 22 51  1  0  0  0  0
 23 24  1  0  0  0  0
 23 52  1  0  0  0  0
 23 53  1  0  0  0  0
 24 25  1  0  0  0  0
 24 54  1  0  0  0  0
 24 55  1  0  0  0  0
 25 26  1  0  0  0  0
 26 56  1  0  0  0  0
 26 57  1  0  0  0  0
 27 28  1  0  0  0  0
 27 58  1  0  0  0  0
 27 59  1  0  0  0  0
 28 29  1  0  0  0  0
 28 60  1  0  0  0  0
 29 61  1  0  0  0  0
 29 62  1  0  0  0  0
 29 63  1  0  0  0  0
M  CHG  1   3   1
M  END
> <s_m_source_file>
AV-unprocessed.smi

> <i_m_source_file_index>
249

> <i_lp_mmshare_version>
43012

> <i_f3d_flags>
0

> <s_epik_input>
W0NIM11bQ0gyXU4xW0NIMl1bQ0gyXVtDQEhdKFtDSDJdW0NASF0xW0NIM10pTihbQ0gzXSljKG5bY0hdbjIpYyhjMjMpbltjSF1uM1tDSDJdW0NASF0oW0NIMl1bT0hdKVtDQEBIXTRbQ0gyXVtDSDJdT1tDSDJdNA==

> <s_epik_cmdline>
J2VwaWtfcHl0aG9uJywgJy1waCcsICc3LjAnLCAnLXRuJywgJzgnLCAnLW1hJywgJzIwMCcsICctbWV0YWxfYmluZGluZycsICctaW1hZScsICc8aW5maWxlLm1hZT4nLCAnLW9tYWUnLCAnPG91dGZpbGUubWFlPic=

> <r_lp_tautomer_probability>
1

> <r_epik_Ionization_Penalty>
0.00294688

> <r_epik_Ionization_Penalty_Charging>
0.00169971

> <r_epik_Ionization_Penalty_Neutral>
0.00124717

> <r_epik_State_Penalty>
-0

> <r_epik_Charging_Adjusted_Penalty>
0.00169971

> <i_epik_Tot_Q>
1

> <i_epik_Tot_abs_Q>
1

> <r_epik_Metal_State_Penalty>
-0

> <b_epik_Metal_Only>
0

> <s_lp_Force_Field>
OPLS_2005

> <r_lp_Energy>
57.4157

> <b_lp_Chiralities_Consistent>
1

> <s_lp_Variant>
AV-unprocessed.smi:249-15

> <Gold.Version>
5.8.1

> <Gold.Id.Protein>
6NUR|6NUR_protein|mol2

> <Gold.PLP.Fitness>
45.0801

> <Gold.PLP.PLP>
-39.1936

> <Gold.PLP.part.hbond>
-3.0000

> <Gold.PLP.part.metal>
0.0000

> <Gold.PLP.part.buried>
-3.6923

> <Gold.PLP.part.nonpolar>
-32.3514

> <Gold.PLP.part.repulsive>
0.2349

> <Gold.PLP.ligand.clash>
0.0000

> <Gold.PLP.ligand.torsion>
1.8497

> <Gold.PLP.Chemscore.Hbond>
1.9760

> <Gold.PLP.Chemscore.CHOScore>
1.0000

> <Gold.PLP.Chemscore.Metal>
0.0000

> <Gold.Chemscore.Hbonds>
donor molecule, donor type, donor heavy atom, donor atom, acceptor molecule, acceptor atom, score
      L1  H    21    50       P1  7948  0.60
      P1  H  7989  7998       L1    25  1.00
      L1  C    16    44       P1  7948  1.00

> <Gold.PLP.Chemscore.Internal.Correction>
0.6578

> <Gold.Rescore>
     Score         DG    S(hbond)    S(metal)    S(lipo)     H(rot)  DE(clash)    DE(int)     intcor
     10.09     -13.80       1.65        0.00      87.46       2.90       1.66       2.05       ----

> <Gold.Chemscore.Fitness>
10.0892

> <Gold.Chemscore.DG>
-13.7973

> <Gold.Chemscore.ZeroCoef>
-5.4800

> <Gold.Chemscore.Hbond>
1.6498

> <Gold.Chemscore.Metal>
0.0000

> <Gold.Chemscore.Lipo>
87.4578

> <Gold.Chemscore.Internal_Hbond>
0.0000

> <Gold.Chemscore.DEClash>
1.6601

> <Gold.Chemscore.DEInternal>
2.0480

> <Gold.Chemscore.Rot>
2.9006

> <Gold.Chemscore.Internal.Correction>
   9.000000E+99

> <Gold.Chemscore.Hbonds>
donor molecule, donor type, donor heavy atom, donor atom, acceptor molecule, acceptor atom, score
      L1  H    21    50       P1  7948  0.60
      P1  H  7989  7998       L1    25  0.14

> <Gold.Chemscore.Hbond.Weighted>
-5.5104

> <Gold.Chemscore.Metal.Weighted>
-0.0000

> <Gold.Chemscore.Lipo.Weighted>
-10.2326

> <Gold.Chemscore.Internal_Hbond.Weighted>
0.0000

> <Gold.Chemscore.DEClash.Weighted>
1.6601

> <Gold.Chemscore.DEInternal.Weighted>
2.0480

> <Gold.Chemscore.Rot.Weighted>
7.4256

> <Gold.Chemscore.Internal.Correction.Weighted>
   9.000000E+99

> <Gold.Protein.RotatedTorsions>
[ 6907 6896 6895 6894 ] final  143.81 input  -60.11 | X-H torsion
[ 7974 7965 7964 7962 ] final -167.33 input  175.53 | X-H torsion
[ 8008 7997 7996 7995 ] final  171.42 input   59.86 | X-H torsion
[ 10167 10162 10161 10158 ] final  -28.46 input  -65.29 | X-H torsion
[ 10718 10713 10712 10709 ] final  -65.33 input   66.30 | X-H torsion
[ 10763 10752 10751 10750 ] final  -86.67 input  -60.55 | X-H torsion
[ 11005 11000 10999 10996 ] final -116.62 input  -57.11 | X-H torsion

> <Gold.Protein.ActiveResidues>
 VAL166  LYS551  ARG553  GLY616  TRP617  ASP618  TYR619  PRO620  LYS621  CYS622 
 ASP623  PHE694  ASN695  SER759  ASP760  ASP761  ALA762  ILE779  LEU786  VAL792 
 PHE793  MET794  SER795  GLU796  ALA797  LYS798  CYS799  TRP800  GLU811  SER814 

> <Gold.Protein.RotatedAtoms>
  152.2016  133.4845  159.5061 H   0  0  0  0  0  0  0  0  0  0  0  0  # atno 6907 bound_to 6896
  150.6971  134.1583  159.4175 H   0  0  0  0  0  0  0  0  0  0  0  0  # atno 6908 bound_to 6896
  151.9500  135.0173  160.0592 H   0  0  0  0  0  0  0  0  0  0  0  0  # atno 6909 bound_to 6896
  144.7225  140.2534  143.6275 H   0  0  0  0  0  0  0  0  0  0  0  0  # atno 7974 bound_to 7965
  156.1272  140.1512  156.9118 H   0  0  0  0  0  0  0  0  0  0  0  0  # atno 8008 bound_to 7997
  154.4881  140.0859  156.7572 H   0  0  0  0  0  0  0  0  0  0  0  0  # atno 8009 bound_to 7997
  155.4322  140.3427  155.4283 H   0  0  0  0  0  0  0  0  0  0  0  0  # atno 8010 bound_to 7997
  140.7269  143.4008  151.1268 H   0  0  0  0  0  0  0  0  0  0  0  0  # atno 10167 bound_to 10162
  156.0676  130.4246  150.1549 H   0  0  0  0  0  0  0  0  0  0  0  0  # atno 10718 bound_to 10713
  154.6250  135.5441  153.7617 H   0  0  0  0  0  0  0  0  0  0  0  0  # atno 10763 bound_to 10752
  153.0256  135.6422  154.1385 H   0  0  0  0  0  0  0  0  0  0  0  0  # atno 10764 bound_to 10752
  154.1317  135.2914  155.3163 H   0  0  0  0  0  0  0  0  0  0  0  0  # atno 10765 bound_to 10752
  141.0410  133.9836  157.2995 H   0  0  0  0  0  0  0  0  0  0  0  0  # atno 11005 bound_to 11000
  145.8206  139.2042  143.1940 LP  0  0  0  0  0  0  0  0  0  0  0  0  # atno 17320 bound_to 7965
  146.0517  140.8062  142.9778 LP  0  0  0  0  0  0  0  0  0  0  0  0  # atno 17321 bound_to 7965
  139.7628  143.8610  152.3104 LP  0  0  0  0  0  0  0  0  0  0  0  0  # atno 17342 bound_to 10162
  139.8502  144.7168  150.9224 LP  0  0  0  0  0  0  0  0  0  0  0  0  # atno 17343 bound_to 10162
  156.9606  130.9803  151.3480 LP  0  0  0  0  0  0  0  0  0  0  0  0  # atno 17370 bound_to 10713
  157.5727  130.8321  149.8413 LP  0  0  0  0  0  0  0  0  0  0  0  0  # atno 17371 bound_to 10713
  139.9275  135.0201  156.8287 LP  0  0  0  0  0  0  0  0  0  0  0  0  # atno 17394 bound_to 11000
  140.6235  133.9972  155.7629 LP  0  0  0  0  0  0  0  0  0  0  0  0  # atno 17395 bound_to 11000

$$$$
