AV-unprocessed.smi:87|AV-procd|sdf|823|dock5
  -GOLD-   2262017233D 1   1.00000     0.00000
 Structure written by MMmdl.
 58 60  0  0  0  0  0  0  0  0  1 V2000
  151.7937  144.2851  160.3148 C   0  0  0  0  0  0  0  0  0  0  0  0
  151.9071  143.3956  159.0681 C   0  0  0  0  0  0  0  0  0  0  0  0
  152.1496  141.8954  159.3629 C   0  0  0  0  0  0  0  0  0  0  0  0
  153.3868  141.6969  160.2704 C   0  0  0  0  0  0  0  0  0  0  0  0
  153.1313  141.9860  161.7573 C   0  0  0  0  0  0  0  0  0  0  0  0
  152.3081  141.0862  158.0498 C   0  0  0  0  0  0  0  0  0  0  0  0
  152.3743  139.6319  158.2329 N   0  0  0  0  0  0  0  0  0  0  0  0
  152.0743  139.0486  159.5434 C   0  0  0  0  0  0  0  0  0  0  0  0
  153.3359  138.6639  160.3275 C   0  0  0  0  0  0  0  0  0  0  0  0
  153.6447  137.2305  160.2209 C   0  0  0  0  0  0  0  0  0  0  0  0
  153.8878  136.1026  160.1366 N   0  0  0  0  0  0  0  0  0  0  0  0
  152.2281  138.8434  157.1340 C   0  0  0  0  0  0  0  0  0  0  0  0
  152.7160  139.2773  155.9402 N   0  0  0  0  0  0  0  0  0  0  0  0
  152.6134  138.5170  154.8470 C   0  0  0  0  0  0  0  0  0  0  0  0
  152.0632  137.3090  154.7208 N   0  0  0  0  0  0  0  0  0  0  0  0
  151.5533  136.8725  155.9073 C   0  0  0  0  0  0  0  0  0  0  0  0
  151.5922  137.5673  157.1506 C   0  0  0  0  0  0  0  0  0  0  0  0
  150.9628  136.8063  158.1298 N   0  0  0  0  0  0  0  0  0  0  0  0
  150.5977  135.7186  157.5093 C   0  0  0  0  0  0  0  0  0  0  0  0
  150.8953  135.6828  156.1664 N   0  0  0  0  0  0  0  0  0  0  0  0
  150.6107  134.5984  155.2422 C   0  0  0  0  0  0  0  0  0  0  0  0
  149.1111  134.4317  154.9007 C   0  0  1  0  0  0  0  0  0  0  0  0
  148.6964  135.6872  154.4012 O   0  0  0  0  0  0  0  0  0  0  0  0
  148.7873  133.3829  153.8119 C   0  0  1  0  0  0  0  0  0  0  0  0
  149.0648  131.9213  154.1775 C   0  0  0  0  0  0  0  0  0  0  0  0
  148.0748  131.1284  153.3381 C   0  0  0  0  0  0  0  0  0  0  0  0
  147.0988  132.1862  152.8243 C   0  0  0  0  0  0  0  0  0  0  0  0
  147.3825  133.3379  153.6032 O   0  0  0  0  0  0  0  0  0  0  0  0
  151.5052  145.2983  160.0345 H   0  0  0  0  0  0  0  0  0  0  0  0
  152.7364  144.3594  160.8553 H   0  0  0  0  0  0  0  0  0  0  0  0
  151.0370  143.9058  161.0021 H   0  0  0  0  0  0  0  0  0  0  0  0
  150.9752  143.5140  158.5191 H   0  0  0  0  0  0  0  0  0  0  0  0
  152.6899  143.7779  158.4121 H   0  0  0  0  0  0  0  0  0  0  0  0
  151.2849  141.5166  159.9084 H   0  0  0  0  0  0  0  0  0  0  0  0
  153.7754  140.6844  160.1543 H   0  0  0  0  0  0  0  0  0  0  0  0
  154.1892  142.3615  159.9552 H   0  0  0  0  0  0  0  0  0  0  0  0
  154.0615  141.9280  162.3228 H   0  0  0  0  0  0  0  0  0  0  0  0
  152.4396  141.2724  162.2031 H   0  0  0  0  0  0  0  0  0  0  0  0
  152.7220  142.9867  161.8997 H   0  0  0  0  0  0  0  0  0  0  0  0
  151.5040  141.3714  157.3749 H   0  0  0  0  0  0  0  0  0  0  0  0
  153.2211  141.3732  157.5320 H   0  0  0  0  0  0  0  0  0  0  0  0
  151.4664  139.7441  160.1228 H   0  0  0  0  0  0  0  0  0  0  0  0
  151.4756  138.1463  159.4115 H   0  0  0  0  0  0  0  0  0  0  0  0
  154.1990  139.2187  159.9591 H   0  0  0  0  0  0  0  0  0  0  0  0
  153.2249  138.8939  161.3871 H   0  0  0  0  0  0  0  0  0  0  0  0
  153.0334  138.9368  153.9448 H   0  0  0  0  0  0  0  0  0  0  0  0
  150.0852  134.9131  158.0151 H   0  0  0  0  0  0  0  0  0  0  0  0
  151.1779  134.8037  154.3329 H   0  0  0  0  0  0  0  0  0  0  0  0
  151.0115  133.6698  155.6510 H   0  0  0  0  0  0  0  0  0  0  0  0
  148.5388  134.2202  155.8042 H   0  0  0  0  0  0  0  0  0  0  0  0
  149.0803  135.8121  153.5470 H   0  0  0  0  0  0  0  0  0  0  0  0
  149.2891  133.6284  152.8735 H   0  0  0  0  0  0  0  0  0  0  0  0
  150.0958  131.6295  153.9801 H   0  0  0  0  0  0  0  0  0  0  0  0
  148.8581  131.7489  155.2347 H   0  0  0  0  0  0  0  0  0  0  0  0
  148.5642  130.6165  152.5089 H   0  0  0  0  0  0  0  0  0  0  0  0
  147.5691  130.3774  153.9461 H   0  0  0  0  0  0  0  0  0  0  0  0
  147.2882  132.4078  151.7730 H   0  0  0  0  0  0  0  0  0  0  0  0
  146.0566  131.8844  152.9278 H   0  0  0  0  0  0  0  0  0  0  0  0
  1  2  1  0  0  0  0
  1 29  1  0  0  0  0
  1 30  1  0  0  0  0
  1 31  1  0  0  0  0
  2  3  1  0  0  0  0
  2 32  1  0  0  0  0
  2 33  1  0  0  0  0
  3  4  1  0  0  0  0
  3  6  1  0  0  0  0
  3 34  1  0  0  0  0
  4  5  1  0  0  0  0
  4 35  1  0  0  0  0
  4 36  1  0  0  0  0
  5 37  1  0  0  0  0
  5 38  1  0  0  0  0
  5 39  1  0  0  0  0
  6  7  1  0  0  0  0
  6 40  1  0  0  0  0
  6 41  1  0  0  0  0
  7  8  1  0  0  0  0
  7 12  1  0  0  0  0
  8  9  1  0  0  0  0
  8 42  1  0  0  0  0
  8 43  1  0  0  0  0
  9 10  1  0  0  0  0
  9 44  1  0  0  0  0
  9 45  1  0  0  0  0
 10 11  3  0  0  0  0
 12 17  1  0  0  0  0
 12 13  2  0  0  0  0
 13 14  1  0  0  0  0
 14 15  2  0  0  0  0
 14 46  1  0  0  0  0
 15 16  1  0  0  0  0
 16 20  1  0  0  0  0
 16 17  2  0  0  0  0
 17 18  1  0  0  0  0
 18 19  2  0  0  0  0
 19 20  1  0  0  0  0
 19 47  1  0  0  0  0
 20 21  1  0  0  0  0
 21 22  1  0  0  0  0
 21 48  1  0  0  0  0
 21 49  1  0  0  0  0
 22 23  1  0  0  0  0
 22 24  1  0  0  0  0
 22 50  1  0  0  0  0
 23 51  1  0  0  0  0
 24 28  1  0  0  0  0
 24 25  1  0  0  0  0
 24 52  1  0  0  0  0
 25 26  1  0  0  0  0
 25 53  1  0  0  0  0
 25 54  1  0  0  0  0
 26 27  1  0  0  0  0
 26 55  1  0  0  0  0
 26 56  1  0  0  0  0
 27 28  1  0  0  0  0
 27 57  1  0  0  0  0
 27 58  1  0  0  0  0
M  END
> <s_m_source_file>
AV-unprocessed.smi

> <i_m_source_file_index>
87

> <i_lp_mmshare_version>
43012

> <i_f3d_flags>
0

> <s_epik_input>
W0NIM11bQ0gyXVtDSF0oW0NIMl1bQ0gzXSlbQ0gyXU4oW0NIMl1bQ0gyXUMjTiljKG5bY0hdbjEpYyhjMTIpbltjSF1uMltDSDJdW0NASF0oW09IXSlbQ0BASF0zW0NIMl1bQ0gyXVtDSDJdTzM=

> <s_epik_cmdline>
J2VwaWtfcHl0aG9uJywgJy1waCcsICc3LjAnLCAnLXRuJywgJzgnLCAnLW1hJywgJzIwMCcsICctbWV0YWxfYmluZGluZycsICctaW1hZScsICc8aW5maWxlLm1hZT4nLCAnLW9tYWUnLCAnPG91dGZpbGUubWFlPic=

> <r_lp_tautomer_probability>
1

> <r_epik_Ionization_Penalty>
0.000348566

> <r_epik_Ionization_Penalty_Charging>
0

> <r_epik_Ionization_Penalty_Neutral>
0.000348566

> <r_epik_State_Penalty>
-0

> <r_epik_Charging_Adjusted_Penalty>
0

> <i_epik_Tot_Q>
0

> <i_epik_Tot_abs_Q>
0

> <r_epik_Metal_State_Penalty>
-0

> <b_epik_Metal_Only>
0

> <s_lp_Force_Field>
OPLS_2005

> <r_lp_Energy>
38.5026

> <b_lp_Chiralities_Consistent>
1

> <s_lp_Variant>
AV-unprocessed.smi:87-4

> <Gold.Version>
5.8.1

> <Gold.Id.Protein>
6NUR|6NUR_protein|mol2

> <Gold.PLP.Fitness>
57.5027

> <Gold.PLP.PLP>
-47.3225

> <Gold.PLP.part.hbond>
-4.0000

> <Gold.PLP.part.metal>
0.0000

> <Gold.PLP.part.buried>
-5.2771

> <Gold.PLP.part.nonpolar>
-38.5488

> <Gold.PLP.part.repulsive>
0.2041

> <Gold.PLP.ligand.clash>
0.0000

> <Gold.PLP.ligand.torsion>
1.2559

> <Gold.PLP.Chemscore.Hbond>
3.7448

> <Gold.PLP.Chemscore.CHOScore>
0.0000

> <Gold.PLP.Chemscore.Metal>
0.0000

> <Gold.Chemscore.Hbonds>
donor molecule, donor type, donor heavy atom, donor atom, acceptor molecule, acceptor atom, score
      L1  H    23    51       P1  7948  1.00
      P1  H  6896  6909       L1    11  1.00
      P1  H  7997  8008       L1    13  1.00
      P1  H 10752 10763       L1    15  0.74

> <Gold.PLP.Chemscore.Internal.Correction>
1.4575

> <Gold.Rescore>
     Score         DG    S(hbond)    S(metal)    S(lipo)     H(rot)  DE(clash)    DE(int)     intcor
     17.05     -19.75       3.05        0.00     108.59       3.37       0.04       2.65       ----

> <Gold.Chemscore.Fitness>
17.0543

> <Gold.Chemscore.DG>
-19.7513

> <Gold.Chemscore.ZeroCoef>
-5.4800

> <Gold.Chemscore.Hbond>
3.0497

> <Gold.Chemscore.Metal>
0.0000

> <Gold.Chemscore.Lipo>
108.5934

> <Gold.Chemscore.Internal_Hbond>
0.0000

> <Gold.Chemscore.DEClash>
0.0441

> <Gold.Chemscore.DEInternal>
2.6529

> <Gold.Chemscore.Rot>
3.3672

> <Gold.Chemscore.Internal.Correction>
   9.000000E+99

> <Gold.Chemscore.Hbonds>
donor molecule, donor type, donor heavy atom, donor atom, acceptor molecule, acceptor atom, score
      L1  H    23    51       P1  7948  0.83
      P1  H  6896  6909       L1    11  0.93
      P1  H  7997  8008       L1    13  0.66
      P1  H 10752 10763       L1    15  0.19

> <Gold.Chemscore.Hbond.Weighted>
-10.1860

> <Gold.Chemscore.Metal.Weighted>
-0.0000

> <Gold.Chemscore.Lipo.Weighted>
-12.7054

> <Gold.Chemscore.Internal_Hbond.Weighted>
0.0000

> <Gold.Chemscore.DEClash.Weighted>
0.0441

> <Gold.Chemscore.DEInternal.Weighted>
2.6529

> <Gold.Chemscore.Rot.Weighted>
8.6201

> <Gold.Chemscore.Internal.Correction.Weighted>
   9.000000E+99

> <Gold.Protein.RotatedTorsions>
[ 6907 6896 6895 6894 ] final  176.50 input  -60.11 | X-H torsion
[ 7974 7965 7964 7962 ] final   93.80 input  175.53 | X-H torsion
[ 8008 7997 7996 7995 ] final  -36.57 input   59.86 | X-H torsion
[ 10167 10162 10161 10158 ] final  -93.43 input  -65.29 | X-H torsion
[ 10718 10713 10712 10709 ] final  -69.67 input   66.30 | X-H torsion
[ 10763 10752 10751 10750 ] final   30.58 input  -60.55 | X-H torsion
[ 11005 11000 10999 10996 ] final   -1.34 input  -57.11 | X-H torsion

> <Gold.Protein.ActiveResidues>
 VAL166  LYS551  ARG553  GLY616  TRP617  ASP618  TYR619  PRO620  LYS621  CYS622 
 ASP623  PHE694  ASN695  SER759  ASP760  ASP761  ALA762  ILE779  LEU786  VAL792 
 PHE793  MET794  SER795  GLU796  ALA797  LYS798  CYS799  TRP800  GLU811  SER814 

> <Gold.Protein.RotatedAtoms>
  151.7192  133.3314  159.3310 H   0  0  0  0  0  0  0  0  0  0  0  0  # atno 6907 bound_to 6896
  150.7660  134.6463  159.6273 H   0  0  0  0  0  0  0  0  0  0  0  0  # atno 6908 bound_to 6896
  152.3663  134.6802  160.0243 H   0  0  0  0  0  0  0  0  0  0  0  0  # atno 6909 bound_to 6896
  145.4741  139.2281  143.2919 H   0  0  0  0  0  0  0  0  0  0  0  0  # atno 7974 bound_to 7965
  154.4070  140.1627  156.2395 H   0  0  0  0  0  0  0  0  0  0  0  0  # atno 8008 bound_to 7997
  155.9213  140.3421  155.6152 H   0  0  0  0  0  0  0  0  0  0  0  0  # atno 8009 bound_to 7997
  155.7218  140.0769  157.2318 H   0  0  0  0  0  0  0  0  0  0  0  0  # atno 8010 bound_to 7997
  140.3248  143.3028  152.0007 H   0  0  0  0  0  0  0  0  0  0  0  0  # atno 10167 bound_to 10162
  156.0444  130.4317  150.2183 H   0  0  0  0  0  0  0  0  0  0  0  0  # atno 10718 bound_to 10713
  153.0363  135.6460  154.1067 H   0  0  0  0  0  0  0  0  0  0  0  0  # atno 10763 bound_to 10752
  154.0781  135.2875  155.3297 H   0  0  0  0  0  0  0  0  0  0  0  0  # atno 10764 bound_to 10752
  154.6549  135.5413  153.8010 H   0  0  0  0  0  0  0  0  0  0  0  0  # atno 10765 bound_to 10752
  140.6463  133.9445  155.8354 H   0  0  0  0  0  0  0  0  0  0  0  0  # atno 11005 bound_to 11000
  146.2379  140.5522  142.8947 LP  0  0  0  0  0  0  0  0  0  0  0  0  # atno 17320 bound_to 7965
  144.7927  140.6064  143.6530 LP  0  0  0  0  0  0  0  0  0  0  0  0  # atno 17321 bound_to 7965
  139.4867  144.6282  151.7122 LP  0  0  0  0  0  0  0  0  0  0  0  0  # atno 17342 bound_to 10162
  140.5451  144.0516  150.6104 LP  0  0  0  0  0  0  0  0  0  0  0  0  # atno 17343 bound_to 10162
  157.0274  130.9997  151.3322 LP  0  0  0  0  0  0  0  0  0  0  0  0  # atno 17370 bound_to 10713
  157.5301  130.8053  149.7907 LP  0  0  0  0  0  0  0  0  0  0  0  0  # atno 17371 bound_to 10713
  141.0570  134.0402  157.3709 LP  0  0  0  0  0  0  0  0  0  0  0  0  # atno 17394 bound_to 11000
  139.9062  135.0180  156.7495 LP  0  0  0  0  0  0  0  0  0  0  0  0  # atno 17395 bound_to 11000

$$$$
