AV-unprocessed.smi:2226|AV-procd|sdf|9001|dock10
  -GOLD-   2272012213D 1   1.00000     0.00000
 Structure written by MMmdl.
 40 42  0  0  0  0  0  0  0  0  2 V2000
  146.3750  138.3698  154.6285 C   0  0  0  0  0  0  0  0  0  0  0  0
  147.5734  139.2214  154.8187 N   0  3  2  0  0  0  0  0  0  0  0  0
  148.0426  139.3309  156.2207 C   0  0  2  0  0  0  0  0  0  0  0  0
  147.0636  140.1675  157.0823 C   0  0  0  0  0  0  0  0  0  0  0  0
  146.7002  141.5352  156.4760 C   0  0  0  0  0  0  0  0  0  0  0  0
  146.4718  141.4676  154.9557 C   0  0  0  0  0  0  0  0  0  0  0  0
  147.4847  140.5679  154.2051 C   0  0  1  0  0  0  0  0  0  0  0  0
  148.9081  141.1563  154.0676 C   0  0  0  0  0  0  0  0  0  0  0  0
  149.8099  141.0511  155.3296 C   0  0  1  0  0  0  0  0  0  0  0  0
  149.8564  142.2846  156.1118 N   0  0  0  0  0  0  0  0  0  0  0  0
  150.4596  142.4370  157.3002 C   0  0  0  0  0  0  0  0  0  0  0  0
  151.0678  141.5331  157.8739 O   0  0  0  0  0  0  0  0  0  0  0  0
  150.3100  143.6882  157.7655 N   0  0  0  0  0  0  0  0  0  0  0  0
  150.8252  144.2269  158.9711 C   0  0  0  0  0  0  0  0  0  0  0  0
  151.3047  143.5382  160.0079 N   0  0  0  0  0  0  0  0  0  0  0  0
  151.6835  144.5074  160.9253 C   0  0  0  0  0  0  0  0  0  0  0  0
  151.4097  145.7378  160.3855 C   0  0  0  0  0  0  0  0  0  0  0  0
  150.8637  145.5748  159.1407 O   0  0  0  0  0  0  0  0  0  0  0  0
  149.5092  139.8216  156.2244 C   0  0  0  0  0  0  0  0  0  0  0  0
  145.4950  138.7748  155.1274 H   0  0  0  0  0  0  0  0  0  0  0  0
  146.5550  137.3690  155.0216 H   0  0  0  0  0  0  0  0  0  0  0  0
  146.1450  138.2692  153.5674 H   0  0  0  0  0  0  0  0  0  0  0  0
  148.0579  138.3257  156.6446 H   0  0  0  0  0  0  0  0  0  0  0  0
  146.1436  139.5983  157.2170 H   0  0  0  0  0  0  0  0  0  0  0  0
  147.4678  140.3036  158.0858 H   0  0  0  0  0  0  0  0  0  0  0  0
  145.8026  141.9203  156.9610 H   0  0  0  0  0  0  0  0  0  0  0  0
  147.4656  142.2675  156.7078 H   0  0  0  0  0  0  0  0  0  0  0  0
  145.4655  141.0884  154.7756 H   0  0  0  0  0  0  0  0  0  0  0  0
  146.4803  142.4740  154.5358 H   0  0  0  0  0  0  0  0  0  0  0  0
  147.1071  140.4448  153.1888 H   0  0  0  0  0  0  0  0  0  0  0  0
  149.4060  140.5953  153.2754 H   0  0  0  0  0  0  0  0  0  0  0  0
  148.8601  142.1798  153.6944 H   0  0  0  0  0  0  0  0  0  0  0  0
  150.8334  140.9161  154.9733 H   0  0  0  0  0  0  0  0  0  0  0  0
  149.3812  143.0849  155.7208 H   0  0  0  0  0  0  0  0  0  0  0  0
  149.7735  144.3266  157.1970 H   0  0  0  0  0  0  0  0  0  0  0  0
  152.1144  144.2487  161.8813 H   0  0  0  0  0  0  0  0  0  0  0  0
  151.5344  146.7528  160.7321 H   0  0  0  0  0  0  0  0  0  0  0  0
  149.8556  139.9873  157.2456 H   0  0  0  0  0  0  0  0  0  0  0  0
  150.1190  138.9972  155.8510 H   0  0  0  0  0  0  0  0  0  0  0  0
  148.3092  138.7417  154.3200 H   0  0  0  0  0  0  0  0  0  0  0  0
  1  2  1  0  0  0  0
  1 20  1  0  0  0  0
  1 21  1  0  0  0  0
  1 22  1  0  0  0  0
  2  7  1  0  0  0  0
  2  3  1  0  0  0  0
  2 40  1  0  0  0  0
  3 19  1  0  0  0  0
  3  4  1  0  0  0  0
  3 23  1  0  0  0  0
  4  5  1  0  0  0  0
  4 24  1  0  0  0  0
  4 25  1  0  0  0  0
  5  6  1  0  0  0  0
  5 26  1  0  0  0  0
  5 27  1  0  0  0  0
  6  7  1  0  0  0  0
  6 28  1  0  0  0  0
  6 29  1  0  0  0  0
  7  8  1  0  0  0  0
  7 30  1  0  0  0  0
  8  9  1  0  0  0  0
  8 31  1  0  0  0  0
  8 32  1  0  0  0  0
  9 10  1  0  0  0  0
  9 19  1  0  0  0  0
  9 33  1  0  0  0  0
 10 11  1  0  0  0  0
 10 34  1  0  0  0  0
 11 12  2  0  0  0  0
 11 13  1  0  0  0  0
 13 14  1  0  0  0  0
 13 35  1  0  0  0  0
 14 18  1  0  0  0  0
 14 15  2  0  0  0  0
 15 16  1  0  0  0  0
 16 17  2  0  0  0  0
 16 36  1  0  0  0  0
 17 18  1  0  0  0  0
 17 37  1  0  0  0  0
 19 38  1  0  0  0  0
 19 39  1  0  0  0  0
M  CHG  1   2   1
M  END
> <s_m_source_file>
AV-unprocessed.smi

> <i_m_source_file_index>
2226

> <i_lp_mmshare_version>
43012

> <i_f3d_flags>
0

> <s_epik_input>
W0NIMl0xW0NIMl1bQ0gyXVtDQEhdKE4oW0NIM10pW0NIXTEyKVtDSDJdW0NASF0oW0NIMl0yKVtOSF1DKD1PKVtOSF1jM25bY0hdW2NIXW8z

> <s_epik_cmdline>
J2VwaWtfcHl0aG9uJywgJy1waCcsICc3LjAnLCAnLXRuJywgJzgnLCAnLW1hJywgJzIwMCcsICctbWV0YWxfYmluZGluZycsICctaW1hZScsICc8aW5maWxlLm1hZT4nLCAnLW9tYWUnLCAnPG91dGZpbGUubWFlPic=

> <r_lp_tautomer_probability>
0.785861

> <r_epik_Ionization_Penalty>
0.000929358

> <r_epik_Ionization_Penalty_Charging>
0.000890041

> <r_epik_Ionization_Penalty_Neutral>
3.93161e-05

> <r_epik_State_Penalty>
0.0312137

> <r_epik_Charging_Adjusted_Penalty>
0.0321037

> <i_epik_Tot_Q>
1

> <i_epik_Tot_abs_Q>
1

> <r_epik_Metal_State_Penalty>
0.0605703

> <b_epik_Metal_Only>
0

> <s_lp_Force_Field>
OPLS_2005

> <r_lp_Energy>
36.0435

> <b_lp_Chiralities_Consistent>
1

> <s_lp_Variant>
AV-unprocessed.smi:2226-1

> <Gold.Version>
5.8.1

> <Gold.Id.Protein>
6NUR|6NUR_protein|mol2

> <Gold.PLP.Fitness>
35.7602

> <Gold.PLP.PLP>
-30.2645

> <Gold.PLP.part.hbond>
-3.0000

> <Gold.PLP.part.metal>
0.0000

> <Gold.PLP.part.buried>
-4.6384

> <Gold.PLP.part.nonpolar>
-23.5873

> <Gold.PLP.part.repulsive>
0.3298

> <Gold.PLP.ligand.clash>
0.0000

> <Gold.PLP.ligand.torsion>
0.1839

> <Gold.PLP.Chemscore.Hbond>
1.9360

> <Gold.PLP.Chemscore.CHOScore>
0.0000

> <Gold.PLP.Chemscore.Metal>
0.0000

> <Gold.Chemscore.Hbonds>
donor molecule, donor type, donor heavy atom, donor atom, acceptor molecule, acceptor atom, score
      L1  H    10    34       P1  8028  1.00
      L1  H    13    35       P1  8028  1.00

> <Gold.PLP.Chemscore.Internal.Correction>
0.0553

> <Gold.Rescore>
     Score         DG    S(hbond)    S(metal)    S(lipo)     H(rot)  DE(clash)    DE(int)     intcor
     13.33     -15.88       1.91        0.00      56.22       1.00       0.00       2.54       ----

> <Gold.Chemscore.Fitness>
13.3287

> <Gold.Chemscore.DG>
-15.8758

> <Gold.Chemscore.ZeroCoef>
-5.4800

> <Gold.Chemscore.Hbond>
1.9097

> <Gold.Chemscore.Metal>
0.0000

> <Gold.Chemscore.Lipo>
56.2174

> <Gold.Chemscore.Internal_Hbond>
0.0000

> <Gold.Chemscore.DEClash>
0.0042

> <Gold.Chemscore.DEInternal>
2.5429

> <Gold.Chemscore.Rot>
1.0000

> <Gold.Chemscore.Internal.Correction>
   9.000000E+99

> <Gold.Chemscore.Hbonds>
donor molecule, donor type, donor heavy atom, donor atom, acceptor molecule, acceptor atom, score
      L1  H    10    34       P1  8028  0.98
      L1  H    13    35       P1  8028  0.38

> <Gold.Chemscore.Hbond.Weighted>
-6.3784

> <Gold.Chemscore.Metal.Weighted>
-0.0000

> <Gold.Chemscore.Lipo.Weighted>
-6.5774

> <Gold.Chemscore.Internal_Hbond.Weighted>
0.0000

> <Gold.Chemscore.DEClash.Weighted>
0.0042

> <Gold.Chemscore.DEInternal.Weighted>
2.5429

> <Gold.Chemscore.Rot.Weighted>
2.5600

> <Gold.Chemscore.Internal.Correction.Weighted>
   9.000000E+99

> <Gold.Protein.RotatedTorsions>
[ 6907 6896 6895 6894 ] final  -47.44 input  -60.11 | X-H torsion
[ 7974 7965 7964 7962 ] final -150.78 input  175.53 | X-H torsion
[ 8008 7997 7996 7995 ] final -140.70 input   59.86 | X-H torsion
[ 10167 10162 10161 10158 ] final -112.54 input  -65.29 | X-H torsion
[ 10718 10713 10712 10709 ] final  107.57 input   66.30 | X-H torsion
[ 10763 10752 10751 10750 ] final -177.88 input  -60.55 | X-H torsion
[ 11005 11000 10999 10996 ] final -121.34 input  -57.11 | X-H torsion

> <Gold.Protein.ActiveResidues>
 VAL166  LYS551  ARG553  GLY616  TRP617  ASP618  TYR619  PRO620  LYS621  CYS622 
 ASP623  PHE694  ASN695  SER759  ASP760  ASP761  ALA762  ILE779  LEU786  VAL792 
 PHE793  MET794  SER795  GLU796  ALA797  LYS798  CYS799  TRP800  GLU811  SER814 

> <Gold.Protein.RotatedAtoms>
  150.9008  134.8420  159.7358 H   0  0  0  0  0  0  0  0  0  0  0  0  # atno 6907 bound_to 6896
  152.4891  134.4506  159.9583 H   0  0  0  0  0  0  0  0  0  0  0  0  # atno 6908 bound_to 6896
  151.4558  133.3566  159.2837 H   0  0  0  0  0  0  0  0  0  0  0  0  # atno 6909 bound_to 6896
  144.7888  140.4886  143.5787 H   0  0  0  0  0  0  0  0  0  0  0  0  # atno 7974 bound_to 7965
  155.4656  140.0549  157.2986 H   0  0  0  0  0  0  0  0  0  0  0  0  # atno 8008 bound_to 7997
  154.4719  140.2044  155.9927 H   0  0  0  0  0  0  0  0  0  0  0  0  # atno 8009 bound_to 7997
  156.1070  140.3210  155.8024 H   0  0  0  0  0  0  0  0  0  0  0  0  # atno 8010 bound_to 7997
  140.1216  143.4438  152.1687 H   0  0  0  0  0  0  0  0  0  0  0  0  # atno 10167 bound_to 10162
  157.6623  131.0875  150.6175 H   0  0  0  0  0  0  0  0  0  0  0  0  # atno 10718 bound_to 10713
  154.5547  135.2815  155.0976 H   0  0  0  0  0  0  0  0  0  0  0  0  # atno 10763 bound_to 10752
  154.2408  135.6357  153.5210 H   0  0  0  0  0  0  0  0  0  0  0  0  # atno 10764 bound_to 10752
  153.0012  135.5559  154.6123 H   0  0  0  0  0  0  0  0  0  0  0  0  # atno 10765 bound_to 10752
  141.0077  134.0310  157.3455 H   0  0  0  0  0  0  0  0  0  0  0  0  # atno 11005 bound_to 11000
  145.5850  139.1491  143.3214 LP  0  0  0  0  0  0  0  0  0  0  0  0  # atno 17320 bound_to 7965
  146.2131  140.5979  142.9050 LP  0  0  0  0  0  0  0  0  0  0  0  0  # atno 17321 bound_to 7965
  139.5565  144.7376  151.4278 LP  0  0  0  0  0  0  0  0  0  0  0  0  # atno 17342 bound_to 10162
  140.6868  143.7954  150.7198 LP  0  0  0  0  0  0  0  0  0  0  0  0  # atno 17343 bound_to 10162
  156.6478  130.4476  149.5730 LP  0  0  0  0  0  0  0  0  0  0  0  0  # atno 17370 bound_to 10713
  156.2161  130.6708  151.1320 LP  0  0  0  0  0  0  0  0  0  0  0  0  # atno 17371 bound_to 10713
  139.9072  135.0182  156.7539 LP  0  0  0  0  0  0  0  0  0  0  0  0  # atno 17394 bound_to 11000
  140.6785  133.9496  155.7896 LP  0  0  0  0  0  0  0  0  0  0  0  0  # atno 17395 bound_to 11000

$$$$
