AV-unprocessed.smi:67|AV-procd|sdf|632|dock3
  -GOLD-   2262016523D 1   1.00000     0.00000
 Structure written by MMmdl.
 49 51  0  0  0  0  0  0  0  0  3 V2000
  146.8035  135.1834  152.4515 O   0  0  0  0  0  0  0  0  0  0  0  0
  145.8749  136.2529  152.4769 C   0  0  2  0  0  0  0  0  0  0  0  0
  146.1241  137.1170  153.7341 C   0  0  0  0  0  0  0  0  0  0  0  0
  147.4705  137.7505  153.7274 N   0  3  2  0  0  0  0  0  0  0  0  0
  148.2981  137.3689  154.9004 C   0  0  0  0  0  0  0  0  0  0  0  0
  149.7280  137.9244  154.7779 C   0  0  0  0  0  0  0  0  0  0  0  0
  149.7347  139.4492  154.5860 C   0  0  2  0  0  0  0  0  0  0  0  0
  149.2587  140.0380  155.7949 O   0  0  0  0  0  0  0  0  0  0  0  0
  150.1531  140.4604  156.7574 C   0  0  0  0  0  0  0  0  0  0  0  0
  150.9316  139.4617  157.3764 C   0  0  0  0  0  0  0  0  0  0  0  0
  151.8739  139.7930  158.3676 C   0  0  0  0  0  0  0  0  0  0  0  0
  152.0487  141.1343  158.7536 C   0  0  0  0  0  0  0  0  0  0  0  0
  151.2796  142.1505  158.1476 C   0  0  0  0  0  0  0  0  0  0  0  0
  151.4502  143.6092  158.5450 C   0  0  0  0  0  0  0  0  0  0  0  0
  150.2943  144.0867  159.0064 F   0  0  0  0  0  0  0  0  0  0  0  0
  152.3770  143.7638  159.4912 F   0  0  0  0  0  0  0  0  0  0  0  0
  151.8110  144.3181  157.4757 F   0  0  0  0  0  0  0  0  0  0  0  0
  150.3399  141.8098  157.1511 C   0  0  0  0  0  0  0  0  0  0  0  0
  148.8316  139.8147  153.3900 C   0  0  0  0  0  0  0  0  0  0  0  0
  147.4199  139.2250  153.5479 C   0  0  0  0  0  0  0  0  0  0  0  0
  144.4490  135.7032  152.3633 C   0  0  0  0  0  0  0  0  0  0  0  0
  144.2724  135.4330  150.8675 C   0  0  0  0  0  0  0  0  0  0  0  0
  145.1489  136.3931  150.1695 N   0  3  0  0  0  0  0  0  0  0  0  0
  146.0304  137.0392  151.1636 C   0  0  0  0  0  0  0  0  0  0  0  0
  147.6785  135.5376  152.3938 H   0  0  0  0  0  0  0  0  0  0  0  0
  145.3454  137.8740  153.8423 H   0  0  0  0  0  0  0  0  0  0  0  0
  146.0265  136.4779  154.6130 H   0  0  0  0  0  0  0  0  0  0  0  0
  147.8264  137.7317  155.8151 H   0  0  0  0  0  0  0  0  0  0  0  0
  148.3453  136.2817  154.9761 H   0  0  0  0  0  0  0  0  0  0  0  0
  150.3093  137.6574  155.6614 H   0  0  0  0  0  0  0  0  0  0  0  0
  150.2260  137.4513  153.9305 H   0  0  0  0  0  0  0  0  0  0  0  0
  150.7664  139.7478  154.3984 H   0  0  0  0  0  0  0  0  0  0  0  0
  150.8058  138.4284  157.0875 H   0  0  0  0  0  0  0  0  0  0  0  0
  152.4642  139.0170  158.8321 H   0  0  0  0  0  0  0  0  0  0  0  0
  152.7768  141.3731  159.5143 H   0  0  0  0  0  0  0  0  0  0  0  0
  149.7711  142.6106  156.7052 H   0  0  0  0  0  0  0  0  0  0  0  0
  148.7648  140.8948  153.2639 H   0  0  0  0  0  0  0  0  0  0  0  0
  149.2793  139.4324  152.4718 H   0  0  0  0  0  0  0  0  0  0  0  0
  146.8281  139.4730  152.6671 H   0  0  0  0  0  0  0  0  0  0  0  0
  146.9172  139.6813  154.4024 H   0  0  0  0  0  0  0  0  0  0  0  0
  144.2753  134.8174  152.9760 H   0  0  0  0  0  0  0  0  0  0  0  0
  143.7327  136.4644  152.6763 H   0  0  0  0  0  0  0  0  0  0  0  0
  144.6081  134.4237  150.6256 H   0  0  0  0  0  0  0  0  0  0  0  0
  143.2354  135.5290  150.5446 H   0  0  0  0  0  0  0  0  0  0  0  0
  145.7045  135.8971  149.4868 H   0  0  0  0  0  0  0  0  0  0  0  0
  145.6758  138.0627  151.2903 H   0  0  0  0  0  0  0  0  0  0  0  0
  147.0616  137.0944  150.8119 H   0  0  0  0  0  0  0  0  0  0  0  0
  144.5933  137.0973  149.7046 H   0  0  0  0  0  0  0  0  0  0  0  0
  147.9489  137.3792  152.9189 H   0  0  0  0  0  0  0  0  0  0  0  0
  1  2  1  0  0  0  0
  1 25  1  0  0  0  0
  2 24  1  0  0  0  0
  2  3  1  0  0  0  0
  2 21  1  0  0  0  0
  3  4  1  0  0  0  0
  3 26  1  0  0  0  0
  3 27  1  0  0  0  0
  4 20  1  0  0  0  0
  4  5  1  0  0  0  0
  4 49  1  0  0  0  0
  5  6  1  0  0  0  0
  5 28  1  0  0  0  0
  5 29  1  0  0  0  0
  6  7  1  0  0  0  0
  6 30  1  0  0  0  0
  6 31  1  0  0  0  0
  7  8  1  0  0  0  0
  7 19  1  0  0  0  0
  7 32  1  0  0  0  0
  8  9  1  0  0  0  0
  9 18  1  0  0  0  0
  9 10  2  0  0  0  0
 10 11  1  0  0  0  0
 10 33  1  0  0  0  0
 11 12  2  0  0  0  0
 11 34  1  0  0  0  0
 12 13  1  0  0  0  0
 12 35  1  0  0  0  0
 13 14  1  0  0  0  0
 13 18  2  0  0  0  0
 14 15  1  0  0  0  0
 14 16  1  0  0  0  0
 14 17  1  0  0  0  0
 18 36  1  0  0  0  0
 19 20  1  0  0  0  0
 19 37  1  0  0  0  0
 19 38  1  0  0  0  0
 20 39  1  0  0  0  0
 20 40  1  0  0  0  0
 21 22  1  0  0  0  0
 21 41  1  0  0  0  0
 21 42  1  0  0  0  0
 22 23  1  0  0  0  0
 22 43  1  0  0  0  0
 22 44  1  0  0  0  0
 23 24  1  0  0  0  0
 23 45  1  0  0  0  0
 23 48  1  0  0  0  0
 24 46  1  0  0  0  0
 24 47  1  0  0  0  0
M  CHG  1   4   1
M  CHG  1  23   1
M  END
> <s_m_source_file>
AV-unprocessed.smi

> <i_m_source_file_index>
67

> <i_lp_mmshare_version>
43012

> <i_f3d_flags>
0

> <s_epik_input>
W0NIMl0xW05IXVtDSDJdW0NIMl1bQ0BAXTEoW09IXSlbQ0gyXU4yW0NIMl1bQ0gyXVtDSF0oW0NIMl1bQ0gyXTIpT2MzW2NIXVtjSF1bY0hdYyhDKEYpKEYpRilbY0hdMw==

> <s_epik_cmdline>
J2VwaWtfcHl0aG9uJywgJy1waCcsICc3LjAnLCAnLXRuJywgJzgnLCAnLW1hJywgJzIwMCcsICctbWV0YWxfYmluZGluZycsICctaW1hZScsICc8aW5maWxlLm1hZT4nLCAnLW9tYWUnLCAnPG91dGZpbGUubWFlPic=

> <r_lp_tautomer_probability>
1

> <r_epik_Ionization_Penalty>
0.0989853

> <r_epik_Ionization_Penalty_Charging>
0.0989662

> <r_epik_Ionization_Penalty_Neutral>
1.91014e-05

> <r_epik_State_Penalty>
0.0852826

> <r_epik_Charging_Adjusted_Penalty>
0.184249

> <i_epik_Tot_Q>
2

> <i_epik_Tot_abs_Q>
2

> <r_epik_Metal_State_Penalty>
0.0849414

> <b_epik_Metal_Only>
0

> <s_lp_Force_Field>
OPLS_2005

> <r_lp_Energy>
57.0803

> <b_lp_Chiralities_Consistent>
1

> <s_lp_Variant>
AV-unprocessed.smi:67-4

> <Gold.Version>
5.8.1

> <Gold.Id.Protein>
6NUR|6NUR_protein|mol2

> <Gold.PLP.Fitness>
51.0850

> <Gold.PLP.PLP>
-38.8923

> <Gold.PLP.part.hbond>
-3.7613

> <Gold.PLP.part.metal>
0.0000

> <Gold.PLP.part.buried>
2.5438

> <Gold.PLP.part.nonpolar>
-38.5950

> <Gold.PLP.part.repulsive>
0.1664

> <Gold.PLP.ligand.clash>
0.0000

> <Gold.PLP.ligand.torsion>
1.2320

> <Gold.PLP.Chemscore.Hbond>
4.7408

> <Gold.PLP.Chemscore.CHOScore>
0.0000

> <Gold.PLP.Chemscore.Metal>
0.0000

> <Gold.Chemscore.Hbonds>
donor molecule, donor type, donor heavy atom, donor atom, acceptor molecule, acceptor atom, score
      L1  H     1    25       P1  7948  0.98
      L1  H     4    49       P1  7948  2.00
      L1  H    23    45       P1  7921  0.65
      L1  H    23    48       P1 10171  0.98

> <Gold.PLP.Chemscore.Internal.Correction>
0.4345

> <Gold.Rescore>
     Score         DG    S(hbond)    S(metal)    S(lipo)     H(rot)  DE(clash)    DE(int)     intcor
     20.14     -23.71       3.82        0.00      95.73       2.24       2.32       1.24       ----

> <Gold.Chemscore.Fitness>
20.1402

> <Gold.Chemscore.DG>
-23.7081

> <Gold.Chemscore.ZeroCoef>
-5.4800

> <Gold.Chemscore.Hbond>
3.8175

> <Gold.Chemscore.Metal>
0.0000

> <Gold.Chemscore.Lipo>
95.7262

> <Gold.Chemscore.Internal_Hbond>
0.0000

> <Gold.Chemscore.DEClash>
2.3247

> <Gold.Chemscore.DEInternal>
1.2432

> <Gold.Chemscore.Rot>
2.2352

> <Gold.Chemscore.Internal.Correction>
   9.000000E+99

> <Gold.Chemscore.Hbonds>
donor molecule, donor type, donor heavy atom, donor atom, acceptor molecule, acceptor atom, score
      L1  H     1    25       P1  7948  0.92
      L1  H     4    49       P1  7948  1.00
      L1  H    23    45       P1  7921  0.64
      L1  H    23    48       P1 10171  0.93

> <Gold.Chemscore.Hbond.Weighted>
-12.7503

> <Gold.Chemscore.Metal.Weighted>
-0.0000

> <Gold.Chemscore.Lipo.Weighted>
-11.2000

> <Gold.Chemscore.Internal_Hbond.Weighted>
0.0000

> <Gold.Chemscore.DEClash.Weighted>
2.3247

> <Gold.Chemscore.DEInternal.Weighted>
1.2432

> <Gold.Chemscore.Rot.Weighted>
5.7221

> <Gold.Chemscore.Internal.Correction.Weighted>
   9.000000E+99

> <Gold.Protein.RotatedTorsions>
[ 6907 6896 6895 6894 ] final  179.22 input  -60.11 | X-H torsion
[ 7974 7965 7964 7962 ] final   38.53 input  175.53 | X-H torsion
[ 8008 7997 7996 7995 ] final  -55.40 input   59.86 | X-H torsion
[ 10167 10162 10161 10158 ] final  -18.70 input  -65.29 | X-H torsion
[ 10718 10713 10712 10709 ] final   39.02 input   66.30 | X-H torsion
[ 10763 10752 10751 10750 ] final  -73.71 input  -60.55 | X-H torsion
[ 11005 11000 10999 10996 ] final    9.94 input  -57.11 | X-H torsion

> <Gold.Protein.ActiveResidues>
 VAL166  LYS551  ARG553  GLY616  TRP617  ASP618  TYR619  PRO620  LYS621  CYS622 
 ASP623  PHE694  ASN695  SER759  ASP760  ASP761  ALA762  ILE779  LEU786  VAL792 
 PHE793  MET794  SER795  GLU796  ALA797  LYS798  CYS799  TRP800  GLU811  SER814 

> <Gold.Protein.RotatedAtoms>
  151.6752  133.3313  159.3205 H   0  0  0  0  0  0  0  0  0  0  0  0  # atno 6907 bound_to 6896
  150.7849  134.6828  159.6463 H   0  0  0  0  0  0  0  0  0  0  0  0  # atno 6908 bound_to 6896
  152.3916  134.6436  160.0157 H   0  0  0  0  0  0  0  0  0  0  0  0  # atno 6909 bound_to 6896
  146.1054  139.5760  142.9387 H   0  0  0  0  0  0  0  0  0  0  0  0  # atno 7974 bound_to 7965
  154.4194  140.1154  156.5470 H   0  0  0  0  0  0  0  0  0  0  0  0  # atno 8008 bound_to 7997
  155.6449  140.3496  155.4708 H   0  0  0  0  0  0  0  0  0  0  0  0  # atno 8009 bound_to 7997
  155.9840  140.1166  157.0690 H   0  0  0  0  0  0  0  0  0  0  0  0  # atno 8010 bound_to 7997
  140.7261  143.4891  151.0016 H   0  0  0  0  0  0  0  0  0  0  0  0  # atno 10167 bound_to 10162
  157.3656  130.7673  149.7080 H   0  0  0  0  0  0  0  0  0  0  0  0  # atno 10718 bound_to 10713
  154.4632  135.5888  153.6270 H   0  0  0  0  0  0  0  0  0  0  0  0  # atno 10763 bound_to 10752
  152.9825  135.6049  154.3460 H   0  0  0  0  0  0  0  0  0  0  0  0  # atno 10764 bound_to 10752
  154.3334  135.2842  155.2439 H   0  0  0  0  0  0  0  0  0  0  0  0  # atno 10765 bound_to 10752
  140.5201  134.0567  155.7842 H   0  0  0  0  0  0  0  0  0  0  0  0  # atno 11005 bound_to 11000
  145.5771  141.0387  143.2142 LP  0  0  0  0  0  0  0  0  0  0  0  0  # atno 17320 bound_to 7965
  144.7467  139.7302  143.7289 LP  0  0  0  0  0  0  0  0  0  0  0  0  # atno 17321 bound_to 7965
  139.8594  143.7334  152.3174 LP  0  0  0  0  0  0  0  0  0  0  0  0  # atno 17342 bound_to 10162
  139.7544  144.7525  151.0457 LP  0  0  0  0  0  0  0  0  0  0  0  0  # atno 17343 bound_to 10162
  155.9745  130.4101  150.3915 LP  0  0  0  0  0  0  0  0  0  0  0  0  # atno 17370 bound_to 10713
  157.1998  131.0435  151.2656 LP  0  0  0  0  0  0  0  0  0  0  0  0  # atno 17371 bound_to 10713
  141.1339  133.9256  157.2477 LP  0  0  0  0  0  0  0  0  0  0  0  0  # atno 17394 bound_to 11000
  139.9610  135.0154  156.9262 LP  0  0  0  0  0  0  0  0  0  0  0  0  # atno 17395 bound_to 11000

$$$$
