AV-unprocessed.smi:1116|AV-procd|sdf|4807|dock7
  -GOLD-   22720 3353D 1   1.00000     0.00000
 Structure written by MMmdl.
 36 37  0  0  0  0  0  0  0  0  1 V2000
  153.5942  142.1834  160.5532 C   0  0  0  0  0  0  0  0  0  0  0  0
  152.6968  142.6142  159.4441 C   0  0  0  0  0  0  0  0  0  0  0  0
  151.7023  141.8638  158.9625 N   0  0  0  0  0  0  0  0  0  0  0  0
  151.0115  142.4897  157.9198 C   0  0  0  0  0  0  0  0  0  0  0  0
  149.8686  141.7891  157.2499 C   0  0  0  0  0  0  0  0  0  0  0  0
  150.1934  141.4132  155.7942 C   0  0  0  0  0  0  0  0  0  0  0  0
  149.8094  140.0400  155.4873 N   0  0  0  0  0  0  0  0  0  0  0  0
  150.6146  139.1137  154.9452 C   0  0  0  0  0  0  0  0  0  0  0  0
  151.7889  139.3305  154.6468 O   0  0  0  0  0  0  0  0  0  0  0  0
  149.9957  137.7356  154.6962 C   0  0  0  0  0  0  0  0  0  0  0  0
  150.5017  136.6721  155.6895 C   0  0  0  0  0  0  0  0  0  0  0  0
  150.5216  135.2499  155.0953 C   0  0  2  0  0  0  0  0  0  0  0  0
  149.3861  134.9852  154.2278 N   0  0  0  0  0  0  0  0  0  0  0  0
  148.6393  133.9599  154.6587 C   0  0  0  0  0  0  0  0  0  0  0  0
  147.6274  133.5252  154.1141 O   0  0  0  0  0  0  0  0  0  0  0  0
  149.1886  133.4942  155.7855 N   0  0  0  0  0  0  0  0  0  0  0  0
  150.2792  134.1728  156.1380 C   0  0  0  0  0  0  0  0  0  0  0  0
  150.9816  133.9821  157.1289 O   0  0  0  0  0  0  0  0  0  0  0  0
  151.4977  143.7386  157.6223 C   0  0  0  0  0  0  0  0  0  0  0  0
  152.8458  144.1705  158.6376 S   0  0  0  0  0  0  0  0  0  0  0  0
  153.4054  141.1430  160.8194 H   0  0  0  0  0  0  0  0  0  0  0  0
  153.4250  142.8063  161.4317 H   0  0  0  0  0  0  0  0  0  0  0  0
  154.6364  142.2821  160.2486 H   0  0  0  0  0  0  0  0  0  0  0  0
  149.6050  140.8935  157.8137 H   0  0  0  0  0  0  0  0  0  0  0  0
  148.9829  142.4252  157.2701 H   0  0  0  0  0  0  0  0  0  0  0  0
  149.6509  142.0704  155.1140 H   0  0  0  0  0  0  0  0  0  0  0  0
  151.2550  141.5593  155.5869 H   0  0  0  0  0  0  0  0  0  0  0  0
  148.8577  139.7762  155.6973 H   0  0  0  0  0  0  0  0  0  0  0  0
  148.9087  137.8112  154.7518 H   0  0  0  0  0  0  0  0  0  0  0  0
  150.2349  137.4336  153.6762 H   0  0  0  0  0  0  0  0  0  0  0  0
  151.5114  136.9296  156.0137 H   0  0  0  0  0  0  0  0  0  0  0  0
  149.8813  136.6897  156.5876 H   0  0  0  0  0  0  0  0  0  0  0  0
  151.4529  135.0528  154.5630 H   0  0  0  0  0  0  0  0  0  0  0  0
  149.1980  135.5173  153.3906 H   0  0  0  0  0  0  0  0  0  0  0  0
  148.8128  132.7208  156.3145 H   0  0  0  0  0  0  0  0  0  0  0  0
  151.1471  144.4278  156.8685 H   0  0  0  0  0  0  0  0  0  0  0  0
  1  2  1  0  0  0  0
  1 21  1  0  0  0  0
  1 22  1  0  0  0  0
  1 23  1  0  0  0  0
  2 20  1  0  0  0  0
  2  3  2  0  0  0  0
  3  4  1  0  0  0  0
  4  5  1  0  0  0  0
  4 19  2  0  0  0  0
  5  6  1  0  0  0  0
  5 24  1  0  0  0  0
  5 25  1  0  0  0  0
  6  7  1  0  0  0  0
  6 26  1  0  0  0  0
  6 27  1  0  0  0  0
  7  8  1  0  0  0  0
  7 28  1  0  0  0  0
  8  9  2  0  0  0  0
  8 10  1  0  0  0  0
 10 11  1  0  0  0  0
 10 29  1  0  0  0  0
 10 30  1  0  0  0  0
 11 12  1  0  0  0  0
 11 31  1  0  0  0  0
 11 32  1  0  0  0  0
 12 17  1  0  0  0  0
 12 13  1  0  0  0  0
 12 33  1  0  0  0  0
 13 14  1  0  0  0  0
 13 34  1  0  0  0  0
 14 15  2  0  0  0  0
 14 16  1  0  0  0  0
 16 17  1  0  0  0  0
 16 35  1  0  0  0  0
 17 18  2  0  0  0  0
 19 20  1  0  0  0  0
 19 36  1  0  0  0  0
M  END
> <s_m_source_file>
AV-unprocessed.smi

> <i_m_source_file_index>
1116

> <i_lp_mmshare_version>
43012

> <i_f3d_flags>
0

> <s_epik_input>
W0NIM11jMW5jKFtjSF1zMSlbQ0gyXVtDSDJdW05IXUMoPU8pW0NIMl1bQ0gyXVtDQEBIXTJbTkhdQyg9TylbTkhdQzI9Tw==

> <s_epik_cmdline>
J2VwaWtfcHl0aG9uJywgJy1waCcsICc3LjAnLCAnLXRuJywgJzgnLCAnLW1hJywgJzIwMCcsICctbWV0YWxfYmluZGluZycsICctaW1hZScsICc8aW5maWxlLm1hZT4nLCAnLW9tYWUnLCAnPG91dGZpbGUubWFlPic=

> <r_lp_tautomer_probability>
1

> <r_epik_Ionization_Penalty>
0.00889251

> <r_epik_Ionization_Penalty_Charging>
0

> <r_epik_Ionization_Penalty_Neutral>
0.00889251

> <r_epik_State_Penalty>
0.00583796

> <r_epik_Charging_Adjusted_Penalty>
0.00583796

> <i_epik_Tot_Q>
0

> <i_epik_Tot_abs_Q>
0

> <r_epik_Metal_State_Penalty>
0.408839

> <b_epik_Metal_Only>
0

> <s_lp_Force_Field>
OPLS_2005

> <r_lp_Energy>
12.4074

> <b_lp_Chiralities_Consistent>
1

> <s_lp_Variant>
AV-unprocessed.smi:1116-1

> <Gold.Version>
5.8.1

> <Gold.Id.Protein>
6NUR|6NUR_protein|mol2

> <Gold.PLP.Fitness>
46.2661

> <Gold.PLP.PLP>
-37.8411

> <Gold.PLP.part.hbond>
-3.0000

> <Gold.PLP.part.metal>
0.0000

> <Gold.PLP.part.buried>
-5.5497

> <Gold.PLP.part.nonpolar>
-31.0100

> <Gold.PLP.part.repulsive>
0.2667

> <Gold.PLP.ligand.clash>
0.0000

> <Gold.PLP.ligand.torsion>
1.0549

> <Gold.PLP.Chemscore.Hbond>
2.4880

> <Gold.PLP.Chemscore.CHOScore>
1.0000

> <Gold.PLP.Chemscore.Metal>
0.0000

> <Gold.Chemscore.Hbonds>
donor molecule, donor type, donor heavy atom, donor atom, acceptor molecule, acceptor atom, score
      L1  H    13    34       P1  7948  1.00
      P1  H  6896  6907       L1    18  0.44
      P1  H  7989  7998       L1     9  1.00
      L1  C    19    36       P1  8028  0.96

> <Gold.PLP.Chemscore.Internal.Correction>
0.0708

> <Gold.Rescore>
     Score         DG    S(hbond)    S(metal)    S(lipo)     H(rot)  DE(clash)    DE(int)     intcor
     15.52     -16.81       2.64        0.00      83.29       2.83       0.00       1.29       ----

> <Gold.Chemscore.Fitness>
15.5179

> <Gold.Chemscore.DG>
-16.8067

> <Gold.Chemscore.ZeroCoef>
-5.4800

> <Gold.Chemscore.Hbond>
2.6444

> <Gold.Chemscore.Metal>
0.0000

> <Gold.Chemscore.Lipo>
83.2950

> <Gold.Chemscore.Internal_Hbond>
0.0000

> <Gold.Chemscore.DEClash>
0.0000

> <Gold.Chemscore.DEInternal>
1.2888

> <Gold.Chemscore.Rot>
2.8324

> <Gold.Chemscore.Internal.Correction>
   9.000000E+99

> <Gold.Chemscore.Hbonds>
donor molecule, donor type, donor heavy atom, donor atom, acceptor molecule, acceptor atom, score
      L1  H    13    34       P1  7948  0.45
      P1  H  6896  6907       L1    18  0.43
      P1  H  7989  7998       L1     9  0.38

> <Gold.Chemscore.Hbond.Weighted>
-8.8322

> <Gold.Chemscore.Metal.Weighted>
-0.0000

> <Gold.Chemscore.Lipo.Weighted>
-9.7455

> <Gold.Chemscore.Internal_Hbond.Weighted>
0.0000

> <Gold.Chemscore.DEClash.Weighted>
0.0000

> <Gold.Chemscore.DEInternal.Weighted>
1.2888

> <Gold.Chemscore.Rot.Weighted>
7.2510

> <Gold.Chemscore.Internal.Correction.Weighted>
   9.000000E+99

> <Gold.Protein.RotatedTorsions>
[ 6907 6896 6895 6894 ] final -131.27 input  -60.11 | X-H torsion
[ 7974 7965 7964 7962 ] final -125.50 input  175.53 | X-H torsion
[ 8008 7997 7996 7995 ] final  107.59 input   59.86 | X-H torsion
[ 10167 10162 10161 10158 ] final   -8.03 input  -65.29 | X-H torsion
[ 10718 10713 10712 10709 ] final  -39.65 input   66.30 | X-H torsion
[ 10763 10752 10751 10750 ] final  -84.52 input  -60.55 | X-H torsion
[ 11005 11000 10999 10996 ] final  -99.90 input  -57.11 | X-H torsion

> <Gold.Protein.ActiveResidues>
 VAL166  LYS551  ARG553  GLY616  TRP617  ASP618  TYR619  PRO620  LYS621  CYS622 
 ASP623  PHE694  ASN695  SER759  ASP760  ASP761  ALA762  ILE779  LEU786  VAL792 
 PHE793  MET794  SER795  GLU796  ALA797  LYS798  CYS799  TRP800  GLU811  SER814 

> <Gold.Protein.RotatedAtoms>
  150.9490  133.6570  159.2775 H   0  0  0  0  0  0  0  0  0  0  0  0  # atno 6907 bound_to 6896
  151.3933  135.0958  159.9542 H   0  0  0  0  0  0  0  0  0  0  0  0  # atno 6908 bound_to 6896
  152.5102  133.9000  159.7491 H   0  0  0  0  0  0  0  0  0  0  0  0  # atno 6909 bound_to 6896
  144.9970  140.7785  143.4519 H   0  0  0  0  0  0  0  0  0  0  0  0  # atno 7974 bound_to 7965
  156.1836  140.3092  155.9196 H   0  0  0  0  0  0  0  0  0  0  0  0  # atno 8008 bound_to 7997
  155.3330  140.0461  157.3060 H   0  0  0  0  0  0  0  0  0  0  0  0  # atno 8009 bound_to 7997
  154.5370  140.2249  155.8715 H   0  0  0  0  0  0  0  0  0  0  0  0  # atno 8010 bound_to 7997
  140.7047  143.6014  150.8794 H   0  0  0  0  0  0  0  0  0  0  0  0  # atno 10167 bound_to 10162
  156.2901  130.4227  149.8247 H   0  0  0  0  0  0  0  0  0  0  0  0  # atno 10718 bound_to 10713
  154.6005  135.5517  153.7369 H   0  0  0  0  0  0  0  0  0  0  0  0  # atno 10763 bound_to 10752
  153.0152  135.6365  154.1722 H   0  0  0  0  0  0  0  0  0  0  0  0  # atno 10764 bound_to 10752
  154.1661  135.2894  155.3074 H   0  0  0  0  0  0  0  0  0  0  0  0  # atno 10765 bound_to 10752
  141.1291  133.8357  157.1032 H   0  0  0  0  0  0  0  0  0  0  0  0  # atno 11005 bound_to 11000
  145.2206  139.2161  143.5095 LP  0  0  0  0  0  0  0  0  0  0  0  0  # atno 17320 bound_to 7965
  146.3444  140.2063  142.8589 LP  0  0  0  0  0  0  0  0  0  0  0  0  # atno 17321 bound_to 7965
  139.9738  143.6027  152.2965 LP  0  0  0  0  0  0  0  0  0  0  0  0  # atno 17342 bound_to 10162
  139.6623  144.7662  151.1939 LP  0  0  0  0  0  0  0  0  0  0  0  0  # atno 17343 bound_to 10162
  156.5663  130.8405  151.3343 LP  0  0  0  0  0  0  0  0  0  0  0  0  # atno 17370 bound_to 10713
  157.7340  130.9739  150.2006 LP  0  0  0  0  0  0  0  0  0  0  0  0  # atno 17371 bound_to 10713
  140.0321  134.9896  157.0800 LP  0  0  0  0  0  0  0  0  0  0  0  0  # atno 17394 bound_to 11000
  140.4269  134.1821  155.7166 LP  0  0  0  0  0  0  0  0  0  0  0  0  # atno 17395 bound_to 11000

$$$$
