AV-unprocessed.smi:159|AV-procd|sdf|1340|dock6
  -GOLD-   2262019 33D 1   1.00000     0.00000
 Structure written by MMmdl.
 28 29  0  0  0  0  0  0  0  0  1 V2000
  146.4456  139.6402  152.9327 N   0  0  0  0  0  0  0  0  0  0  0  0
  147.5204  140.0028  153.6466 C   0  0  0  0  0  0  0  0  0  0  0  0
  147.5792  141.3073  154.2652 C   0  0  0  0  0  0  0  0  0  0  0  0
  148.6936  141.5993  154.9716 C   0  0  0  0  0  0  0  0  0  0  0  0
  149.7386  140.6941  155.1152 N   0  0  0  0  0  0  0  0  0  0  0  0
  150.9992  141.0206  155.8941 C   0  0  2  0  0  0  0  0  0  0  0  0
  151.1826  140.0486  157.0755 C   0  0  0  0  0  0  0  0  0  0  0  0
  151.3489  140.9869  158.2544 C   0  0  0  0  0  0  0  0  0  0  0  0
  150.5329  142.1982  157.8168 C   0  0  1  0  0  0  0  0  0  0  0  0
  150.8918  143.4872  158.5685 C   0  0  0  0  0  0  0  0  0  0  0  0
  150.6854  144.6048  157.7314 O   0  0  0  0  0  0  0  0  0  0  0  0
  150.9031  142.3018  156.4469 O   0  0  0  0  0  0  0  0  0  0  0  0
  149.6562  139.4302  154.4818 C   0  0  0  0  0  0  0  0  0  0  0  0
  150.5672  138.6067  154.5617 O   0  0  0  0  0  0  0  0  0  0  0  0
  148.5196  139.1515  153.7715 N   0  0  0  0  0  0  0  0  0  0  0  0
  151.8100  140.9986  155.1635 H   0  0  0  0  0  0  0  0  0  0  0  0
  149.4693  141.9699  157.9115 H   0  0  0  0  0  0  0  0  0  0  0  0
  146.4076  138.7286  152.5000 H   0  0  0  0  0  0  0  0  0  0  0  0
  145.6731  140.2822  152.8296 H   0  0  0  0  0  0  0  0  0  0  0  0
  146.7870  142.0380  154.1866 H   0  0  0  0  0  0  0  0  0  0  0  0
  148.7394  142.5765  155.4280 H   0  0  0  0  0  0  0  0  0  0  0  0
  150.2915  139.4318  157.2031 H   0  0  0  0  0  0  0  0  0  0  0  0
  152.0447  139.3996  156.9193 H   0  0  0  0  0  0  0  0  0  0  0  0
  151.0014  140.5553  159.1935 H   0  0  0  0  0  0  0  0  0  0  0  0
  152.3997  141.2572  158.3696 H   0  0  0  0  0  0  0  0  0  0  0  0
  150.2463  143.6059  159.4391 H   0  0  0  0  0  0  0  0  0  0  0  0
  151.9213  143.4644  158.9271 H   0  0  0  0  0  0  0  0  0  0  0  0
  150.0042  144.3944  157.1112 H   0  0  0  0  0  0  0  0  0  0  0  0
  1  2  1  0  0  0  0
  1 18  1  0  0  0  0
  1 19  1  0  0  0  0
  2 15  2  0  0  0  0
  2  3  1  0  0  0  0
  3  4  2  0  0  0  0
  3 20  1  0  0  0  0
  4  5  1  0  0  0  0
  4 21  1  0  0  0  0
  5  6  1  0  0  0  0
  5 13  1  0  0  0  0
  6 16  1  0  0  0  0
  6 12  1  0  0  0  0
  6  7  1  0  0  0  0
  7  8  1  0  0  0  0
  7 22  1  0  0  0  0
  7 23  1  0  0  0  0
  8  9  1  0  0  0  0
  8 24  1  0  0  0  0
  8 25  1  0  0  0  0
  9 17  1  0  0  0  0
  9 10  1  0  0  0  0
  9 12  1  0  0  0  0
 10 11  1  0  0  0  0
 10 26  1  0  0  0  0
 10 27  1  0  0  0  0
 11 28  1  0  0  0  0
 13 14  2  0  0  0  0
 13 15  1  0  0  0  0
M  END
> <s_m_source_file>
AV-unprocessed.smi

> <i_m_source_file_index>
159

> <i_lp_mmshare_version>
43012

> <i_f3d_flags>
0

> <s_epik_input>
W05IMl1jMVtjSF1bY0hdbihjKD1PKW4xKVtDQEhdMltDSDJdW0NIMl1bQ0BIXShPMilbQ0gyXVtPSF0=

> <s_epik_cmdline>
J2VwaWtfcHl0aG9uJywgJy1waCcsICc3LjAnLCAnLXRuJywgJzgnLCAnLW1hJywgJzIwMCcsICctbWV0YWxfYmluZGluZycsICctaW1hZScsICc8aW5maWxlLm1hZT4nLCAnLW9tYWUnLCAnPG91dGZpbGUubWFlPic=

> <r_lp_tautomer_probability>
0.99996

> <r_epik_Ionization_Penalty>
0.00126102

> <r_epik_Ionization_Penalty_Charging>
4.46248e-08

> <r_epik_Ionization_Penalty_Neutral>
0.00126097

> <r_epik_State_Penalty>
1.15523e-05

> <r_epik_Charging_Adjusted_Penalty>
1.1597e-05

> <i_epik_Tot_Q>
0

> <i_epik_Tot_abs_Q>
0

> <r_epik_Metal_State_Penalty>
-0

> <b_epik_Metal_Only>
0

> <s_epik_Chemistry_Notes>
This compound contains an acetal/aminal-like group ( X-CH(R)-Y where X, Y are N, S, or O) that may be acid/base labile, releasing an aldehyde.

> <s_lp_Force_Field>
OPLS_2005

> <r_lp_Energy>
23.8013

> <b_lp_Chiralities_Consistent>
1

> <s_lp_Variant>
AV-unprocessed.smi:159-2

> <Gold.Version>
5.8.1

> <Gold.Id.Protein>
6NUR|6NUR_protein|mol2

> <Gold.PLP.Fitness>
34.1476

> <Gold.PLP.PLP>
-25.9923

> <Gold.PLP.part.hbond>
-2.7280

> <Gold.PLP.part.metal>
0.0000

> <Gold.PLP.part.buried>
-4.2387

> <Gold.PLP.part.nonpolar>
-20.5113

> <Gold.PLP.part.repulsive>
1.4856

> <Gold.PLP.ligand.clash>
0.0000

> <Gold.PLP.ligand.torsion>
0.3258

> <Gold.PLP.Chemscore.Hbond>
1.9280

> <Gold.PLP.Chemscore.CHOScore>
1.0000

> <Gold.PLP.Chemscore.Metal>
0.0000

> <Gold.Chemscore.Hbonds>
donor molecule, donor type, donor heavy atom, donor atom, acceptor molecule, acceptor atom, score
      L1  H     1    19       P1 10175  0.93
      L1  H    11    28       P1  8028  1.00
      L1  C     4    21       P1  8028  1.00

> <Gold.PLP.Chemscore.Internal.Correction>
0.0230

> <Gold.Rescore>
     Score         DG    S(hbond)    S(metal)    S(lipo)     H(rot)  DE(clash)    DE(int)     intcor
      9.36     -11.23       1.89        0.00      41.00       2.09       0.20       1.66       ----

> <Gold.Chemscore.Fitness>
9.3639

> <Gold.Chemscore.DG>
-11.2291

> <Gold.Chemscore.ZeroCoef>
-5.4800

> <Gold.Chemscore.Hbond>
1.8896

> <Gold.Chemscore.Metal>
0.0000

> <Gold.Chemscore.Lipo>
41.0029

> <Gold.Chemscore.Internal_Hbond>
0.0000

> <Gold.Chemscore.DEClash>
0.2020

> <Gold.Chemscore.DEInternal>
1.6632

> <Gold.Chemscore.Rot>
2.0935

> <Gold.Chemscore.Internal.Correction>
   9.000000E+99

> <Gold.Chemscore.Hbonds>
donor molecule, donor type, donor heavy atom, donor atom, acceptor molecule, acceptor atom, score
      L1  H     1    19       P1 10175  0.76
      L1  H    11    28       P1  8028  0.58

> <Gold.Chemscore.Hbond.Weighted>
-6.3112

> <Gold.Chemscore.Metal.Weighted>
-0.0000

> <Gold.Chemscore.Lipo.Weighted>
-4.7973

> <Gold.Chemscore.Internal_Hbond.Weighted>
0.0000

> <Gold.Chemscore.DEClash.Weighted>
0.2020

> <Gold.Chemscore.DEInternal.Weighted>
1.6632

> <Gold.Chemscore.Rot.Weighted>
5.3594

> <Gold.Chemscore.Internal.Correction.Weighted>
   9.000000E+99

> <Gold.Protein.RotatedTorsions>
[ 6907 6896 6895 6894 ] final   93.87 input  -60.11 | X-H torsion
[ 7974 7965 7964 7962 ] final   32.88 input  175.53 | X-H torsion
[ 8008 7997 7996 7995 ] final  176.36 input   59.86 | X-H torsion
[ 10167 10162 10161 10158 ] final   80.62 input  -65.29 | X-H torsion
[ 10718 10713 10712 10709 ] final  -91.54 input   66.30 | X-H torsion
[ 10763 10752 10751 10750 ] final -112.81 input  -60.55 | X-H torsion
[ 11005 11000 10999 10996 ] final   78.35 input  -57.11 | X-H torsion

> <Gold.Protein.ActiveResidues>
 VAL166  LYS551  ARG553  GLY616  TRP617  ASP618  TYR619  PRO620  LYS621  CYS622 
 ASP623  PHE694  ASN695  SER759  ASP760  ASP761  ALA762  ILE779  LEU786  VAL792 
 PHE793  MET794  SER795  GLU796  ALA797  LYS798  CYS799  TRP800  GLU811  SER814 

> <Gold.Protein.RotatedAtoms>
  152.5451  134.1281  159.8427 H   0  0  0  0  0  0  0  0  0  0  0  0  # atno 6907 bound_to 6896
  151.1329  133.5017  159.2606 H   0  0  0  0  0  0  0  0  0  0  0  0  # atno 6908 bound_to 6896
  151.1655  135.0304  159.8784 H   0  0  0  0  0  0  0  0  0  0  0  0  # atno 6909 bound_to 6896
  146.1457  139.6468  142.9133 H   0  0  0  0  0  0  0  0  0  0  0  0  # atno 7974 bound_to 7965
  156.0773  140.1385  156.9756 H   0  0  0  0  0  0  0  0  0  0  0  0  # atno 8008 bound_to 7997
  154.4565  140.0959  156.6821 H   0  0  0  0  0  0  0  0  0  0  0  0  # atno 8009 bound_to 7997
  155.5133  140.3454  155.4394 H   0  0  0  0  0  0  0  0  0  0  0  0  # atno 8010 bound_to 7997
  139.9479  144.6046  150.8189 H   0  0  0  0  0  0  0  0  0  0  0  0  # atno 10167 bound_to 10162
  155.9994  130.4952  150.5489 H   0  0  0  0  0  0  0  0  0  0  0  0  # atno 10718 bound_to 10713
  154.8367  135.4477  154.1251 H   0  0  0  0  0  0  0  0  0  0  0  0  # atno 10763 bound_to 10752
  153.2477  135.6923  153.7720 H   0  0  0  0  0  0  0  0  0  0  0  0  # atno 10764 bound_to 10752
  153.7044  135.3367  155.3208 H   0  0  0  0  0  0  0  0  0  0  0  0  # atno 10765 bound_to 10752
  139.9216  134.7756  156.1639 H   0  0  0  0  0  0  0  0  0  0  0  0  # atno 11005 bound_to 11000
  145.4943  141.0438  143.2576 LP  0  0  0  0  0  0  0  0  0  0  0  0  # atno 17320 bound_to 7965
  144.7844  139.6458  143.7140 LP  0  0  0  0  0  0  0  0  0  0  0  0  # atno 17321 bound_to 7965
  140.7592  143.3123  151.2815 LP  0  0  0  0  0  0  0  0  0  0  0  0  # atno 17342 bound_to 10162
  139.6652  144.0118  152.2718 LP  0  0  0  0  0  0  0  0  0  0  0  0  # atno 17343 bound_to 10162
  157.3415  131.0717  151.1784 LP  0  0  0  0  0  0  0  0  0  0  0  0  # atno 17370 bound_to 10713
  157.2631  130.6668  149.5984 LP  0  0  0  0  0  0  0  0  0  0  0  0  # atno 17371 bound_to 10713
  141.0741  133.6783  156.2201 LP  0  0  0  0  0  0  0  0  0  0  0  0  # atno 17394 bound_to 11000
  140.6457  134.5119  157.5573 LP  0  0  0  0  0  0  0  0  0  0  0  0  # atno 17395 bound_to 11000

$$$$
