AV-unprocessed.smi:594|AV-procd|sdf|3015|dock1
  -GOLD-   2262023523D 1   1.00000     0.00000
 Structure written by MMmdl.
 40 41  0  0  0  0  0  0  0  0  3 V2000
  147.0993  142.3987  154.5234 C   0  0  0  0  0  0  0  0  0  0  0  0
  147.7198  141.0333  154.8657 C   0  0  1  0  0  0  0  0  0  0  0  0
  148.9095  140.7037  153.9396 C   0  0  0  0  0  0  0  0  0  0  0  0
  149.5012  139.3187  154.2468 C   0  0  0  0  0  0  0  0  0  0  0  0
  149.9080  139.1993  155.7229 C   0  0  0  0  0  0  0  0  0  0  0  0
  148.7252  139.5202  156.6521 C   0  0  0  0  0  0  0  0  0  0  0  0
  148.1155  140.9090  156.3584 C   0  0  1  0  0  0  0  0  0  0  0  0
  149.0360  141.9766  156.7508 N   0  0  0  0  0  0  0  0  0  0  0  0
  149.7513  142.0154  157.8846 C   0  0  0  0  0  0  0  0  0  0  0  0
  149.6854  141.1484  158.7569 O   0  0  0  0  0  0  0  0  0  0  0  0
  150.6698  143.2325  158.0582 C   0  0  0  0  0  0  0  0  0  0  0  0
  151.5349  143.1350  159.2459 N   0  0  0  0  0  0  0  0  0  0  0  0
  152.5196  142.1273  159.2432 C   0  0  0  0  0  0  0  0  0  0  0  0
  153.3656  141.9501  160.2768 C   0  0  0  0  0  0  0  0  0  0  0  0
  154.3717  140.9109  160.2565 N   0  3  0  0  0  0  0  0  0  0  0  0
  155.0895  140.7674  161.2409 O   0  0  0  0  0  0  0  0  0  0  0  0
  154.4773  140.2034  159.2589 O   0  5  0  0  0  0  0  0  0  0  0  0
  153.2354  142.8396  161.4147 C   0  0  0  0  0  0  0  0  0  0  0  0
  152.2975  143.8071  161.4225 C   0  0  0  0  0  0  0  0  0  0  0  0
  151.3792  143.9993  160.2955 C   0  0  0  0  0  0  0  0  0  0  0  0
  150.5217  144.8831  160.2950 O   0  0  0  0  0  0  0  0  0  0  0  0
  147.8215  143.2089  154.6269 H   0  0  0  0  0  0  0  0  0  0  0  0
  146.2539  142.6197  155.1755 H   0  0  0  0  0  0  0  0  0  0  0  0
  146.7341  142.4144  153.4962 H   0  0  0  0  0  0  0  0  0  0  0  0
  146.9490  140.2844  154.6770 H   0  0  0  0  0  0  0  0  0  0  0  0
  148.5898  140.7378  152.8974 H   0  0  0  0  0  0  0  0  0  0  0  0
  149.6861  141.4623  154.0457 H   0  0  0  0  0  0  0  0  0  0  0  0
  148.7683  138.5472  154.0069 H   0  0  0  0  0  0  0  0  0  0  0  0
  150.3648  139.1334  153.6075 H   0  0  0  0  0  0  0  0  0  0  0  0
  150.2766  138.1936  155.9258 H   0  0  0  0  0  0  0  0  0  0  0  0
  150.7364  139.8777  155.9315 H   0  0  0  0  0  0  0  0  0  0  0  0
  147.9555  138.7583  156.5232 H   0  0  0  0  0  0  0  0  0  0  0  0
  149.0415  139.4523  157.6936 H   0  0  0  0  0  0  0  0  0  0  0  0
  147.2059  141.0141  156.9527 H   0  0  0  0  0  0  0  0  0  0  0  0
  149.1491  142.7370  156.0962 H   0  0  0  0  0  0  0  0  0  0  0  0
  151.2816  143.3617  157.1631 H   0  0  0  0  0  0  0  0  0  0  0  0
  150.0439  144.1245  158.1062 H   0  0  0  0  0  0  0  0  0  0  0  0
  152.5398  141.5220  158.3483 H   0  0  0  0  0  0  0  0  0  0  0  0
  153.8896  142.7370  162.2681 H   0  0  0  0  0  0  0  0  0  0  0  0
  152.2188  144.4591  162.2801 H   0  0  0  0  0  0  0  0  0  0  0  0
  1  2  1  0  0  0  0
  1 22  1  0  0  0  0
  1 23  1  0  0  0  0
  1 24  1  0  0  0  0
  2  7  1  0  0  0  0
  2  3  1  0  0  0  0
  2 25  1  0  0  0  0
  3  4  1  0  0  0  0
  3 26  1  0  0  0  0
  3 27  1  0  0  0  0
  4  5  1  0  0  0  0
  4 28  1  0  0  0  0
  4 29  1  0  0  0  0
  5  6  1  0  0  0  0
  5 30  1  0  0  0  0
  5 31  1  0  0  0  0
  6  7  1  0  0  0  0
  6 32  1  0  0  0  0
  6 33  1  0  0  0  0
  7  8  1  0  0  0  0
  7 34  1  0  0  0  0
  8  9  1  0  0  0  0
  8 35  1  0  0  0  0
  9 10  2  0  0  0  0
  9 11  1  0  0  0  0
 11 12  1  0  0  0  0
 11 36  1  0  0  0  0
 11 37  1  0  0  0  0
 12 20  1  0  0  0  0
 12 13  1  0  0  0  0
 13 14  2  0  0  0  0
 13 38  1  0  0  0  0
 14 15  1  0  0  0  0
 14 18  1  0  0  0  0
 15 16  2  0  0  0  0
 15 17  1  0  0  0  0
 18 19  2  0  0  0  0
 18 39  1  0  0  0  0
 19 20  1  0  0  0  0
 19 40  1  0  0  0  0
 20 21  2  0  0  0  0
M  CHG  1  15   1
M  CHG  1  17  -1
M  END
> <s_m_source_file>
AV-unprocessed.smi

> <i_m_source_file_index>
594

> <i_lp_mmshare_version>
43012

> <i_f3d_flags>
0

> <s_epik_input>
W0NIM11bQ0BASF0xW0NIMl1bQ0gyXVtDSDJdW0NIMl1bQ0BIXTFbTkhdQyg9TylbQ0gyXW4yW2NIXWMoW04rXSg9TylbTy1dKVtjSF1bY0hdYzI9Tw==

> <s_epik_cmdline>
J2VwaWtfcHl0aG9uJywgJy1waCcsICc3LjAnLCAnLXRuJywgJzgnLCAnLW1hJywgJzIwMCcsICctbWV0YWxfYmluZGluZycsICctaW1hZScsICc8aW5maWxlLm1hZT4nLCAnLW9tYWUnLCAnPG91dGZpbGUubWFlPic=

> <r_lp_tautomer_probability>
1

> <r_epik_Ionization_Penalty>
1.91305e-08

> <r_epik_Ionization_Penalty_Charging>
8.35811e-11

> <r_epik_Ionization_Penalty_Neutral>
1.90469e-08

> <r_epik_State_Penalty>
-0

> <r_epik_Charging_Adjusted_Penalty>
8.35811e-11

> <i_epik_Tot_Q>
0

> <i_epik_Tot_abs_Q>
2

> <r_epik_Metal_State_Penalty>
-0

> <b_epik_Metal_Only>
0

> <s_lp_Force_Field>
OPLS_2005

> <r_lp_Energy>
20.421

> <b_lp_Chiralities_Consistent>
1

> <s_lp_Variant>
AV-unprocessed.smi:594-2

> <Gold.Version>
5.8.1

> <Gold.Id.Protein>
6NUR|6NUR_protein|mol2

> <Gold.PLP.Fitness>
43.2072

> <Gold.PLP.PLP>
-38.0301

> <Gold.PLP.part.hbond>
-3.7872

> <Gold.PLP.part.metal>
0.0000

> <Gold.PLP.part.buried>
0.8694

> <Gold.PLP.part.nonpolar>
-34.3659

> <Gold.PLP.part.repulsive>
0.2172

> <Gold.PLP.ligand.clash>
0.0000

> <Gold.PLP.ligand.torsion>
0.2742

> <Gold.PLP.Chemscore.Hbond>
1.9040

> <Gold.PLP.Chemscore.CHOScore>
0.0000

> <Gold.PLP.Chemscore.Metal>
0.0000

> <Gold.Chemscore.Hbonds>
donor molecule, donor type, donor heavy atom, donor atom, acceptor molecule, acceptor atom, score
      L1  H     8    35       P1  8028  0.94
      P1  H  7997  8009       L1    17  0.93

> <Gold.PLP.Chemscore.Internal.Correction>
0.0135

> <Gold.Rescore>
     Score         DG    S(hbond)    S(metal)    S(lipo)     H(rot)  DE(clash)    DE(int)     intcor
     15.51     -17.35       1.90        0.00      81.23       1.55       0.06       1.78       ----

> <Gold.Chemscore.Fitness>
15.5130

> <Gold.Chemscore.DG>
-17.3526

> <Gold.Chemscore.ZeroCoef>
-5.4800

> <Gold.Chemscore.Hbond>
1.8974

> <Gold.Chemscore.Metal>
0.0000

> <Gold.Chemscore.Lipo>
81.2336

> <Gold.Chemscore.Internal_Hbond>
0.0000

> <Gold.Chemscore.DEClash>
0.0627

> <Gold.Chemscore.DEInternal>
1.7769

> <Gold.Chemscore.Rot>
1.5505

> <Gold.Chemscore.Internal.Correction>
   9.000000E+99

> <Gold.Chemscore.Hbonds>
donor molecule, donor type, donor heavy atom, donor atom, acceptor molecule, acceptor atom, score
      L1  H     8    35       P1  8028  0.84
      P1  H  7997  8009       L1    17  0.86

> <Gold.Chemscore.Hbond.Weighted>
-6.3374

> <Gold.Chemscore.Metal.Weighted>
-0.0000

> <Gold.Chemscore.Lipo.Weighted>
-9.5043

> <Gold.Chemscore.Internal_Hbond.Weighted>
0.0000

> <Gold.Chemscore.DEClash.Weighted>
0.0627

> <Gold.Chemscore.DEInternal.Weighted>
1.7769

> <Gold.Chemscore.Rot.Weighted>
3.9692

> <Gold.Chemscore.Internal.Correction.Weighted>
   9.000000E+99

> <Gold.Protein.RotatedTorsions>
[ 6907 6896 6895 6894 ] final  140.38 input  -60.11 | X-H torsion
[ 7974 7965 7964 7962 ] final   94.65 input  175.53 | X-H torsion
[ 8008 7997 7996 7995 ] final  123.82 input   59.86 | X-H torsion
[ 10167 10162 10161 10158 ] final -117.57 input  -65.29 | X-H torsion
[ 10718 10713 10712 10709 ] final -159.97 input   66.30 | X-H torsion
[ 10763 10752 10751 10750 ] final  -47.55 input  -60.55 | X-H torsion
[ 11005 11000 10999 10996 ] final -145.29 input  -57.11 | X-H torsion

> <Gold.Protein.ActiveResidues>
 VAL166  LYS551  ARG553  GLY616  TRP617  ASP618  TYR619  PRO620  LYS621  CYS622 
 ASP623  PHE694  ASN695  SER759  ASP760  ASP761  ALA762  ILE779  LEU786  VAL792 
 PHE793  MET794  SER795  GLU796  ALA797  LYS798  CYS799  TRP800  GLU811  SER814 

> <Gold.Protein.RotatedAtoms>
  152.2438  133.5157  159.5284 H   0  0  0  0  0  0  0  0  0  0  0  0  # atno 6907 bound_to 6896
  150.7072  134.1054  159.3990 H   0  0  0  0  0  0  0  0  0  0  0  0  # atno 6908 bound_to 6896
  151.8974  135.0392  160.0554 H   0  0  0  0  0  0  0  0  0  0  0  0  # atno 6909 bound_to 6896
  145.4627  139.2286  143.2978 H   0  0  0  0  0  0  0  0  0  0  0  0  # atno 7974 bound_to 7965
  156.2780  140.2754  156.1689 H   0  0  0  0  0  0  0  0  0  0  0  0  # atno 8008 bound_to 7997
  155.0675  140.0387  157.2615 H   0  0  0  0  0  0  0  0  0  0  0  0  # atno 8009 bound_to 7997
  154.7067  140.2660  155.6674 H   0  0  0  0  0  0  0  0  0  0  0  0  # atno 8010 bound_to 7997
  140.0669  143.4914  152.2001 H   0  0  0  0  0  0  0  0  0  0  0  0  # atno 10167 bound_to 10162
  156.5755  130.8707  151.2850 H   0  0  0  0  0  0  0  0  0  0  0  0  # atno 10718 bound_to 10713
  154.0632  135.6615  153.4814 H   0  0  0  0  0  0  0  0  0  0  0  0  # atno 10763 bound_to 10752
  153.0419  135.5139  154.7639 H   0  0  0  0  0  0  0  0  0  0  0  0  # atno 10764 bound_to 10752
  154.6682  135.3025  154.9744 H   0  0  0  0  0  0  0  0  0  0  0  0  # atno 10765 bound_to 10752
  140.7937  134.2938  157.5004 H   0  0  0  0  0  0  0  0  0  0  0  0  # atno 11005 bound_to 11000
  146.2442  140.5398  142.8921 LP  0  0  0  0  0  0  0  0  0  0  0  0  # atno 17320 bound_to 7965
  144.7993  140.6182  143.6489 LP  0  0  0  0  0  0  0  0  0  0  0  0  # atno 17321 bound_to 7965
  139.5859  144.7531  151.3521 LP  0  0  0  0  0  0  0  0  0  0  0  0  # atno 17342 bound_to 10162
  140.7145  143.7304  150.7628 LP  0  0  0  0  0  0  0  0  0  0  0  0  # atno 17343 bound_to 10162
  157.7338  130.9737  150.1999 LP  0  0  0  0  0  0  0  0  0  0  0  0  # atno 17370 bound_to 10713
  156.2677  130.3718  149.8064 LP  0  0  0  0  0  0  0  0  0  0  0  0  # atno 17371 bound_to 10713
  139.8728  134.9389  156.3728 LP  0  0  0  0  0  0  0  0  0  0  0  0  # atno 17394 bound_to 11000
  140.9364  133.7544  156.0090 LP  0  0  0  0  0  0  0  0  0  0  0  0  # atno 17395 bound_to 11000

$$$$
