AV-unprocessed.smi:906|AV-procd|sdf|4105|dock3
  -GOLD-   22720 2 03D 1   1.00000     0.00000
 Structure written by MMmdl.
 48 49  0  0  0  0  0  0  0  0  2 V2000
  154.4793  140.7143  161.5187 C   0  0  0  0  0  0  0  0  0  0  0  0
  153.4345  141.0962  160.4916 C   0  0  0  0  0  0  0  0  0  0  0  0
  152.9018  142.4021  160.4505 C   0  0  0  0  0  0  0  0  0  0  0  0
  151.9326  142.6999  159.4737 C   0  0  0  0  0  0  0  0  0  0  0  0
  151.5309  141.6839  158.5819 C   0  0  0  0  0  0  0  0  0  0  0  0
  150.4700  141.9413  157.5260 C   0  0  0  0  0  0  0  0  0  0  0  0
  151.0142  141.9012  156.0855 C   0  0  0  0  0  0  0  0  0  0  0  0
  150.6939  140.6447  155.4124 N   0  0  0  0  0  0  0  0  0  0  0  0
  149.4725  140.0900  155.3202 C   0  0  0  0  0  0  0  0  0  0  0  0
  148.4748  140.6010  155.8300 O   0  0  0  0  0  0  0  0  0  0  0  0
  149.4186  138.9764  154.5482 N   0  0  0  0  0  0  0  0  0  0  0  0
  150.5712  138.2849  153.9533 C   0  0  0  0  0  0  0  0  0  0  0  0
  150.8413  136.9881  154.7399 C   0  0  0  0  0  0  0  0  0  0  0  0
  149.6284  136.1258  154.8018 N   0  3  0  0  0  0  0  0  0  0  0  0
  149.8776  134.8030  155.4506 C   0  0  1  0  0  0  0  0  0  0  0  0
  149.8063  134.8494  156.9910 C   0  0  0  0  0  0  0  0  0  0  0  0
  148.9924  133.6894  154.8486 C   0  0  0  0  0  0  0  0  0  0  0  0
  149.3118  132.5155  155.3940 F   0  0  0  0  0  0  0  0  0  0  0  0
  147.7128  133.9420  155.1226 F   0  0  0  0  0  0  0  0  0  0  0  0
  149.1310  133.6035  153.5264 F   0  0  0  0  0  0  0  0  0  0  0  0
  148.4200  136.8621  155.2724 C   0  0  0  0  0  0  0  0  0  0  0  0
  148.2101  138.1521  154.4602 C   0  0  0  0  0  0  0  0  0  0  0  0
  152.1266  140.4113  158.7078 C   0  0  0  0  0  0  0  0  0  0  0  0
  153.0583  140.1174  159.6396 N   0  0  0  0  0  0  0  0  0  0  0  0
  154.7422  141.5630  162.1507 H   0  0  0  0  0  0  0  0  0  0  0  0
  155.3865  140.3641  161.0254 H   0  0  0  0  0  0  0  0  0  0  0  0
  154.1056  139.9151  162.1595 H   0  0  0  0  0  0  0  0  0  0  0  0
  153.2256  143.1583  161.1504 H   0  0  0  0  0  0  0  0  0  0  0  0
  151.4993  143.6879  159.4189 H   0  0  0  0  0  0  0  0  0  0  0  0
  149.6702  141.2079  157.6370 H   0  0  0  0  0  0  0  0  0  0  0  0
  150.0161  142.9140  157.7187 H   0  0  0  0  0  0  0  0  0  0  0  0
  150.5754  142.7153  155.5083 H   0  0  0  0  0  0  0  0  0  0  0  0
  152.0911  142.0779  156.0860 H   0  0  0  0  0  0  0  0  0  0  0  0
  151.4571  140.1785  154.9442 H   0  0  0  0  0  0  0  0  0  0  0  0
  150.3430  138.0481  152.9129 H   0  0  0  0  0  0  0  0  0  0  0  0
  151.4797  138.8862  153.9221 H   0  0  0  0  0  0  0  0  0  0  0  0
  151.6584  136.4447  154.2636 H   0  0  0  0  0  0  0  0  0  0  0  0
  151.1691  137.2335  155.7510 H   0  0  0  0  0  0  0  0  0  0  0  0
  150.9007  134.5236  155.1934 H   0  0  0  0  0  0  0  0  0  0  0  0
  150.1291  133.9008  157.4202 H   0  0  0  0  0  0  0  0  0  0  0  0
  148.7927  135.0331  157.3475 H   0  0  0  0  0  0  0  0  0  0  0  0
  150.4528  135.6251  157.4014 H   0  0  0  0  0  0  0  0  0  0  0  0
  147.5323  136.2388  155.1826 H   0  0  0  0  0  0  0  0  0  0  0  0
  148.5248  137.1222  156.3263 H   0  0  0  0  0  0  0  0  0  0  0  0
  147.3186  138.6756  154.8093 H   0  0  0  0  0  0  0  0  0  0  0  0
  148.0164  137.9097  153.4143 H   0  0  0  0  0  0  0  0  0  0  0  0
  151.8413  139.6043  158.0492 H   0  0  0  0  0  0  0  0  0  0  0  0
  149.4364  135.9002  153.8360 H   0  0  0  0  0  0  0  0  0  0  0  0
  1  2  1  0  0  0  0
  1 25  1  0  0  0  0
  1 26  1  0  0  0  0
  1 27  1  0  0  0  0
  2 24  1  0  0  0  0
  2  3  2  0  0  0  0
  3  4  1  0  0  0  0
  3 28  1  0  0  0  0
  4  5  2  0  0  0  0
  4 29  1  0  0  0  0
  5  6  1  0  0  0  0
  5 23  1  0  0  0  0
  6  7  1  0  0  0  0
  6 30  1  0  0  0  0
  6 31  1  0  0  0  0
  7  8  1  0  0  0  0
  7 32  1  0  0  0  0
  7 33  1  0  0  0  0
  8  9  1  0  0  0  0
  8 34  1  0  0  0  0
  9 10  2  0  0  0  0
  9 11  1  0  0  0  0
 11 22  1  0  0  0  0
 11 12  1  0  0  0  0
 12 13  1  0  0  0  0
 12 35  1  0  0  0  0
 12 36  1  0  0  0  0
 13 14  1  0  0  0  0
 13 37  1  0  0  0  0
 13 38  1  0  0  0  0
 14 15  1  0  0  0  0
 14 21  1  0  0  0  0
 14 48  1  0  0  0  0
 15 16  1  0  0  0  0
 15 17  1  0  0  0  0
 15 39  1  0  0  0  0
 16 40  1  0  0  0  0
 16 41  1  0  0  0  0
 16 42  1  0  0  0  0
 17 18  1  0  0  0  0
 17 19  1  0  0  0  0
 17 20  1  0  0  0  0
 21 22  1  0  0  0  0
 21 43  1  0  0  0  0
 21 44  1  0  0  0  0
 22 45  1  0  0  0  0
 22 46  1  0  0  0  0
 23 24  2  0  0  0  0
 23 47  1  0  0  0  0
M  CHG  1  14   1
M  END
> <s_m_source_file>
AV-unprocessed.smi

> <i_m_source_file_index>
906

> <i_lp_mmshare_version>
43012

> <i_f3d_flags>
0

> <s_epik_input>
W0NIM11jMVtjSF1bY0hdYyhbY0hdbjEpW0NIMl1bQ0gyXVtOSF1DKD1PKU4yW0NIMl1bQ0gyXU4oW0NASF0oW0NIM10pQyhGKShGKUYpW0NIMl1bQ0gyXTI=

> <s_epik_cmdline>
J2VwaWtfcHl0aG9uJywgJy1waCcsICc3LjAnLCAnLXRuJywgJzgnLCAnLW1hJywgJzIwMCcsICctbWV0YWxfYmluZGluZycsICctaW1hZScsICc8aW5maWxlLm1hZT4nLCAnLW9tYWUnLCAnPG91dGZpbGUubWFlPic=

> <r_epik_Ionization_Penalty>
2.02136

> <r_epik_Ionization_Penalty_Charging>
1.96814

> <r_epik_Ionization_Penalty_Neutral>
0.0532286

> <r_epik_State_Penalty>
2.14285

> <r_epik_Charging_Adjusted_Penalty>
4.11098

> <i_epik_Tot_Q>
1

> <i_epik_Tot_abs_Q>
1

> <r_epik_Metal_State_Penalty>
2.1406

> <b_epik_Metal_Only>
0

> <s_lp_Force_Field>
OPLS_2005

> <r_lp_Energy>
51.1917

> <b_lp_Chiralities_Consistent>
1

> <s_lp_Variant>
AV-unprocessed.smi:906-6

> <Gold.Version>
5.8.1

> <Gold.Id.Protein>
6NUR|6NUR_protein|mol2

> <Gold.PLP.Fitness>
45.4308

> <Gold.PLP.PLP>
-40.3546

> <Gold.PLP.part.hbond>
-1.0000

> <Gold.PLP.part.metal>
0.0000

> <Gold.PLP.part.buried>
-4.6578

> <Gold.PLP.part.nonpolar>
-35.6163

> <Gold.PLP.part.repulsive>
0.5798

> <Gold.PLP.ligand.clash>
0.0000

> <Gold.PLP.ligand.torsion>
0.9052

> <Gold.PLP.Chemscore.Hbond>
2.0000

> <Gold.PLP.Chemscore.CHOScore>
0.0000

> <Gold.PLP.Chemscore.Metal>
0.0000

> <Gold.Chemscore.Hbonds>
donor molecule, donor type, donor heavy atom, donor atom, acceptor molecule, acceptor atom, score
      L1  H    14    48       P1  7948  2.00

> <Gold.PLP.Chemscore.Internal.Correction>
0.8866

> <Gold.Rescore>
     Score         DG    S(hbond)    S(metal)    S(lipo)     H(rot)  DE(clash)    DE(int)     intcor
     12.92     -15.54       0.85        0.00      97.16       1.62       0.38       2.24       ----

> <Gold.Chemscore.Fitness>
12.9157

> <Gold.Chemscore.DG>
-15.5404

> <Gold.Chemscore.ZeroCoef>
-5.4800

> <Gold.Chemscore.Hbond>
0.8479

> <Gold.Chemscore.Metal>
0.0000

> <Gold.Chemscore.Lipo>
97.1632

> <Gold.Chemscore.Internal_Hbond>
0.0000

> <Gold.Chemscore.DEClash>
0.3826

> <Gold.Chemscore.DEInternal>
2.2420

> <Gold.Chemscore.Rot>
1.6171

> <Gold.Chemscore.Internal.Correction>
   9.000000E+99

> <Gold.Chemscore.Hbonds>
donor molecule, donor type, donor heavy atom, donor atom, acceptor molecule, acceptor atom, score
      L1  H    14    48       P1  7948  0.51

> <Gold.Chemscore.Hbond.Weighted>
-2.8321

> <Gold.Chemscore.Metal.Weighted>
-0.0000

> <Gold.Chemscore.Lipo.Weighted>
-11.3681

> <Gold.Chemscore.Internal_Hbond.Weighted>
0.0000

> <Gold.Chemscore.DEClash.Weighted>
0.3826

> <Gold.Chemscore.DEInternal.Weighted>
2.2420

> <Gold.Chemscore.Rot.Weighted>
4.1398

> <Gold.Chemscore.Internal.Correction.Weighted>
   9.000000E+99

> <Gold.Protein.RotatedTorsions>
[ 6907 6896 6895 6894 ] final    9.77 input  -60.11 | X-H torsion
[ 7974 7965 7964 7962 ] final  -89.42 input  175.53 | X-H torsion
[ 8008 7997 7996 7995 ] final  165.42 input   59.86 | X-H torsion
[ 10167 10162 10161 10158 ] final -164.68 input  -65.29 | X-H torsion
[ 10718 10713 10712 10709 ] final   96.32 input   66.30 | X-H torsion
[ 10763 10752 10751 10750 ] final -176.77 input  -60.55 | X-H torsion
[ 11005 11000 10999 10996 ] final -126.39 input  -57.11 | X-H torsion

> <Gold.Protein.ActiveResidues>
 VAL166  LYS551  ARG553  GLY616  TRP617  ASP618  TYR619  PRO620  LYS621  CYS622 
 ASP623  PHE694  ASN695  SER759  ASP760  ASP761  ALA762  ILE779  LEU786  VAL792 
 PHE793  MET794  SER795  GLU796  ALA797  LYS798  CYS799  TRP800  GLU811  SER814 

> <Gold.Protein.RotatedAtoms>
  151.7276  135.0881  160.0294 H   0  0  0  0  0  0  0  0  0  0  0  0  # atno 6907 bound_to 6896
  152.3562  133.6236  159.5989 H   0  0  0  0  0  0  0  0  0  0  0  0  # atno 6908 bound_to 6896
  150.7573  133.9412  159.3498 H   0  0  0  0  0  0  0  0  0  0  0  0  # atno 6909 bound_to 6896
  145.4401  140.9558  143.2080 H   0  0  0  0  0  0  0  0  0  0  0  0  # atno 7974 bound_to 7965
  156.1802  140.1670  156.8288 H   0  0  0  0  0  0  0  0  0  0  0  0  # atno 8008 bound_to 7997
  154.5351  140.0748  156.8447 H   0  0  0  0  0  0  0  0  0  0  0  0  # atno 8009 bound_to 7997
  155.3326  140.3380  155.4241 H   0  0  0  0  0  0  0  0  0  0  0  0  # atno 8010 bound_to 7997
  139.6234  144.0580  152.1953 H   0  0  0  0  0  0  0  0  0  0  0  0  # atno 10167 bound_to 10162
  157.6928  131.0574  150.4473 H   0  0  0  0  0  0  0  0  0  0  0  0  # atno 10718 bound_to 10713
  154.5683  135.2826  155.0853 H   0  0  0  0  0  0  0  0  0  0  0  0  # atno 10763 bound_to 10752
  154.2235  135.6387  153.5156 H   0  0  0  0  0  0  0  0  0  0  0  0  # atno 10764 bound_to 10752
  153.0049  135.5520  154.6298 H   0  0  0  0  0  0  0  0  0  0  0  0  # atno 10765 bound_to 10752
  140.9685  134.0838  157.3894 H   0  0  0  0  0  0  0  0  0  0  0  0  # atno 11005 bound_to 11000
  144.8127  139.5933  143.7022 LP  0  0  0  0  0  0  0  0  0  0  0  0  # atno 17320 bound_to 7965
  146.2561  139.6305  142.9394 LP  0  0  0  0  0  0  0  0  0  0  0  0  # atno 17321 bound_to 7965
  140.0227  144.6141  150.7553 LP  0  0  0  0  0  0  0  0  0  0  0  0  # atno 17342 bound_to 10162
  140.7396  143.2793  151.3645 LP  0  0  0  0  0  0  0  0  0  0  0  0  # atno 17343 bound_to 10162
  156.4827  130.4077  149.6452 LP  0  0  0  0  0  0  0  0  0  0  0  0  # atno 17370 bound_to 10713
  156.3492  130.7423  151.2380 LP  0  0  0  0  0  0  0  0  0  0  0  0  # atno 17371 bound_to 10713
  139.8903  135.0111  156.6730 LP  0  0  0  0  0  0  0  0  0  0  0  0  # atno 17394 bound_to 11000
  140.7364  133.9015  155.8247 LP  0  0  0  0  0  0  0  0  0  0  0  0  # atno 17395 bound_to 11000

$$$$
