AV-unprocessed.smi:3235|AV-procd|sdf|12360|dock3
  -GOLD-   2272018223D 1   1.00000     0.00000
 Structure written by MMmdl.
 41 42  0  0  0  0  0  0  0  0  2 V2000
  145.2325  132.9604  150.2346 C   0  0  0  0  0  0  0  0  0  0  0  0
  144.8823  134.3079  150.7970 C   0  0  0  0  0  0  0  0  0  0  0  0
  143.6043  134.9348  150.8277 C   0  0  0  0  0  0  0  0  0  0  0  0
  143.6315  136.1299  151.3952 N   0  0  0  0  0  0  0  0  0  0  0  0
  144.9232  136.3086  151.7432 N   0  0  0  0  0  0  0  0  0  0  0  0
  145.3267  137.5364  152.4005 C   0  0  0  0  0  0  0  0  0  0  0  0
  146.2426  138.3841  151.5059 C   0  0  0  0  0  0  0  0  0  0  0  0
  147.5297  138.6617  152.1718 N   0  3  0  0  0  0  0  0  0  0  0  0
  147.3959  139.3898  153.4485 C   0  0  0  0  0  0  0  0  0  0  0  0
  148.7300  139.4333  154.2041 C   0  0  0  0  0  0  0  0  0  0  0  0
  149.0858  140.8526  154.6782 C   0  0  0  0  0  0  0  0  0  0  0  0
  150.0013  140.8322  155.8162 N   0  0  0  0  0  0  0  0  0  0  0  0
  149.6758  141.5382  157.0440 C   0  0  0  0  0  0  0  0  0  0  0  0
  150.9370  141.4295  157.9132 C   0  0  0  0  0  0  0  0  0  0  0  0
  151.8055  140.3515  157.2552 C   0  0  0  0  0  0  0  0  0  0  0  0
  151.1512  140.1523  155.8987 C   0  0  0  0  0  0  0  0  0  0  0  0
  151.6424  139.4495  155.0166 O   0  0  0  0  0  0  0  0  0  0  0  0
  145.7000  135.2227  151.3982 C   0  0  0  0  0  0  0  0  0  0  0  0
  144.7215  132.7735  149.2899 H   0  0  0  0  0  0  0  0  0  0  0  0
  144.9536  132.1564  150.9157 H   0  0  0  0  0  0  0  0  0  0  0  0
  146.3017  132.8652  150.0446 H   0  0  0  0  0  0  0  0  0  0  0  0
  142.6628  134.5585  150.4552 H   0  0  0  0  0  0  0  0  0  0  0  0
  144.4293  138.0951  152.6711 H   0  0  0  0  0  0  0  0  0  0  0  0
  145.8348  137.2809  153.3315 H   0  0  0  0  0  0  0  0  0  0  0  0
  146.4288  137.8649  150.5645 H   0  0  0  0  0  0  0  0  0  0  0  0
  145.7582  139.3306  151.2613 H   0  0  0  0  0  0  0  0  0  0  0  0
  147.9931  137.7824  152.3518 H   0  0  0  0  0  0  0  0  0  0  0  0
  147.0467  140.4036  153.2492 H   0  0  0  0  0  0  0  0  0  0  0  0
  146.6370  138.9009  154.0609 H   0  0  0  0  0  0  0  0  0  0  0  0
  148.6788  138.7603  155.0611 H   0  0  0  0  0  0  0  0  0  0  0  0
  149.5263  139.0557  153.5612 H   0  0  0  0  0  0  0  0  0  0  0  0
  149.5405  141.4138  153.8607 H   0  0  0  0  0  0  0  0  0  0  0  0
  148.1811  141.3953  154.9567 H   0  0  0  0  0  0  0  0  0  0  0  0
  149.4088  142.5773  156.8464 H   0  0  0  0  0  0  0  0  0  0  0  0
  148.8264  141.0517  157.5257 H   0  0  0  0  0  0  0  0  0  0  0  0
  151.4702  142.3811  157.9208 H   0  0  0  0  0  0  0  0  0  0  0  0
  150.6939  141.1823  158.9472 H   0  0  0  0  0  0  0  0  0  0  0  0
  152.8454  140.6641  157.1549 H   0  0  0  0  0  0  0  0  0  0  0  0
  151.7719  139.4166  157.8152 H   0  0  0  0  0  0  0  0  0  0  0  0
  146.7598  135.1908  151.6038 H   0  0  0  0  0  0  0  0  0  0  0  0
  148.1047  139.2087  151.5472 H   0  0  0  0  0  0  0  0  0  0  0  0
  1  2  1  0  0  0  0
  1 19  1  0  0  0  0
  1 20  1  0  0  0  0
  1 21  1  0  0  0  0
  2 18  2  0  0  0  0
  2  3  1  0  0  0  0
  3  4  2  0  0  0  0
  3 22  1  0  0  0  0
  4  5  1  0  0  0  0
  5  6  1  0  0  0  0
  5 18  1  0  0  0  0
  6  7  1  0  0  0  0
  6 23  1  0  0  0  0
  6 24  1  0  0  0  0
  7  8  1  0  0  0  0
  7 25  1  0  0  0  0
  7 26  1  0  0  0  0
  8  9  1  0  0  0  0
  8 27  1  0  0  0  0
  8 41  1  0  0  0  0
  9 10  1  0  0  0  0
  9 28  1  0  0  0  0
  9 29  1  0  0  0  0
 10 11  1  0  0  0  0
 10 30  1  0  0  0  0
 10 31  1  0  0  0  0
 11 12  1  0  0  0  0
 11 32  1  0  0  0  0
 11 33  1  0  0  0  0
 12 16  1  0  0  0  0
 12 13  1  0  0  0  0
 13 14  1  0  0  0  0
 13 34  1  0  0  0  0
 13 35  1  0  0  0  0
 14 15  1  0  0  0  0
 14 36  1  0  0  0  0
 14 37  1  0  0  0  0
 15 16  1  0  0  0  0
 15 38  1  0  0  0  0
 15 39  1  0  0  0  0
 16 17  2  0  0  0  0
 18 40  1  0  0  0  0
M  CHG  1   8   1
M  END
> <s_m_source_file>
AV-unprocessed.smi

> <i_m_source_file_index>
3235

> <i_lp_mmshare_version>
43012

> <i_f3d_flags>
0

> <s_epik_input>
W0NIM11jMVtjSF1ubihbY0hdMSlbQ0gyXVtDSDJdW05IXVtDSDJdW0NIMl1bQ0gyXU4yW0NIMl1bQ0gyXVtDSDJdQzI9Tw==

> <s_epik_cmdline>
J2VwaWtfcHl0aG9uJywgJy1waCcsICc3LjAnLCAnLXRuJywgJzgnLCAnLW1hJywgJzIwMCcsICctbWV0YWxfYmluZGluZycsICctaW1hZScsICc8aW5maWxlLm1hZT4nLCAnLW9tYWUnLCAnPG91dGZpbGUubWFlPic=

> <r_lp_tautomer_probability>
1

> <r_epik_Ionization_Penalty>
0.00490609

> <r_epik_Ionization_Penalty_Charging>
0.00490019

> <r_epik_Ionization_Penalty_Neutral>
5.89696e-06

> <r_epik_State_Penalty>
-0

> <r_epik_Charging_Adjusted_Penalty>
0.00490019

> <i_epik_Tot_Q>
1

> <i_epik_Tot_abs_Q>
1

> <r_epik_Metal_State_Penalty>
-0

> <b_epik_Metal_Only>
0

> <s_lp_Force_Field>
OPLS_2005

> <r_lp_Energy>
17.6896

> <b_lp_Chiralities_Consistent>
1

> <s_lp_Variant>
AV-unprocessed.smi:3235-1

> <Gold.Version>
5.8.1

> <Gold.Id.Protein>
6NUR|6NUR_protein|mol2

> <Gold.PLP.Fitness>
52.6005

> <Gold.PLP.PLP>
-36.3822

> <Gold.PLP.part.hbond>
-3.0000

> <Gold.PLP.part.metal>
0.0000

> <Gold.PLP.part.buried>
-0.5741

> <Gold.PLP.part.nonpolar>
-32.9798

> <Gold.PLP.part.repulsive>
0.3376

> <Gold.PLP.ligand.clash>
0.0000

> <Gold.PLP.ligand.torsion>
0.9809

> <Gold.PLP.Chemscore.Hbond>
3.9920

> <Gold.PLP.Chemscore.CHOScore>
1.9953

> <Gold.PLP.Chemscore.Metal>
0.0000

> <Gold.Chemscore.Hbonds>
donor molecule, donor type, donor heavy atom, donor atom, acceptor molecule, acceptor atom, score
      L1  H     8    27       P1  7948  2.00
      L1  H     8    41       P1  7957  1.00
      P1  H  7989  7998       L1    17  0.80
      L1  C     3    22       P1 10186  0.63
      L1  C    18    40       P1  7948  1.00

> <Gold.PLP.Chemscore.Internal.Correction>
0.2181

> <Gold.Rescore>
     Score         DG    S(hbond)    S(metal)    S(lipo)     H(rot)  DE(clash)    DE(int)     intcor
     16.81     -17.80       2.73        0.00      74.50       2.16       0.20       0.78       ----

> <Gold.Chemscore.Fitness>
16.8109

> <Gold.Chemscore.DG>
-17.7964

> <Gold.Chemscore.ZeroCoef>
-5.4800

> <Gold.Chemscore.Hbond>
2.7333

> <Gold.Chemscore.Metal>
0.0000

> <Gold.Chemscore.Lipo>
74.4982

> <Gold.Chemscore.Internal_Hbond>
0.0000

> <Gold.Chemscore.DEClash>
0.2005

> <Gold.Chemscore.DEInternal>
0.7849

> <Gold.Chemscore.Rot>
2.1598

> <Gold.Chemscore.Internal.Correction>
   9.000000E+99

> <Gold.Chemscore.Hbonds>
donor molecule, donor type, donor heavy atom, donor atom, acceptor molecule, acceptor atom, score
      L1  H     8    27       P1  7948  0.97
      L1  H     8    41       P1  7957  0.90
      P1  H  7989  7998       L1    17  0.15

> <Gold.Chemscore.Hbond.Weighted>
-9.1292

> <Gold.Chemscore.Metal.Weighted>
-0.0000

> <Gold.Chemscore.Lipo.Weighted>
-8.7163

> <Gold.Chemscore.Internal_Hbond.Weighted>
0.0000

> <Gold.Chemscore.DEClash.Weighted>
0.2005

> <Gold.Chemscore.DEInternal.Weighted>
0.7849

> <Gold.Chemscore.Rot.Weighted>
5.5291

> <Gold.Chemscore.Internal.Correction.Weighted>
   9.000000E+99

> <Gold.Protein.RotatedTorsions>
[ 6907 6896 6895 6894 ] final  -20.41 input  -60.11 | X-H torsion
[ 7974 7965 7964 7962 ] final   89.75 input  175.53 | X-H torsion
[ 8008 7997 7996 7995 ] final   44.94 input   59.86 | X-H torsion
[ 10167 10162 10161 10158 ] final   28.33 input  -65.29 | X-H torsion
[ 10718 10713 10712 10709 ] final  154.49 input   66.30 | X-H torsion
[ 10763 10752 10751 10750 ] final  -12.80 input  -60.55 | X-H torsion
[ 11005 11000 10999 10996 ] final  -88.81 input  -57.11 | X-H torsion

> <Gold.Protein.ActiveResidues>
 VAL166  LYS551  ARG553  GLY616  TRP617  ASP618  TYR619  PRO620  LYS621  CYS622 
 ASP623  PHE694  ASN695  SER759  ASP760  ASP761  ALA762  ILE779  LEU786  VAL792 
 PHE793  MET794  SER795  GLU796  ALA797  LYS798  CYS799  TRP800  GLU811  SER814 

> <Gold.Protein.RotatedAtoms>
  151.2486  135.0614  159.9052 H   0  0  0  0  0  0  0  0  0  0  0  0  # atno 6907 bound_to 6896
  152.5383  134.0357  159.8055 H   0  0  0  0  0  0  0  0  0  0  0  0  # atno 6908 bound_to 6896
  151.0561  133.5533  159.2669 H   0  0  0  0  0  0  0  0  0  0  0  0  # atno 6909 bound_to 6896
  145.5281  139.2282  143.2634 H   0  0  0  0  0  0  0  0  0  0  0  0  # atno 7974 bound_to 7965
  155.3276  140.3400  155.4240 H   0  0  0  0  0  0  0  0  0  0  0  0  # atno 8008 bound_to 7997
  156.1877  140.1686  156.8189 H   0  0  0  0  0  0  0  0  0  0  0  0  # atno 8009 bound_to 7997
  154.5406  140.0726  156.8486 H   0  0  0  0  0  0  0  0  0  0  0  0  # atno 8010 bound_to 7997
  140.4861  144.0539  150.6281 H   0  0  0  0  0  0  0  0  0  0  0  0  # atno 10167 bound_to 10162
  157.2309  131.0739  151.1853 H   0  0  0  0  0  0  0  0  0  0  0  0  # atno 10718 bound_to 10713
  153.5038  135.7017  153.5817 H   0  0  0  0  0  0  0  0  0  0  0  0  # atno 10763 bound_to 10752
  153.3937  135.3889  155.1941 H   0  0  0  0  0  0  0  0  0  0  0  0  # atno 10764 bound_to 10752
  154.8708  135.3864  154.4511 H   0  0  0  0  0  0  0  0  0  0  0  0  # atno 10765 bound_to 10752
  141.1595  133.7592  156.9505 H   0  0  0  0  0  0  0  0  0  0  0  0  # atno 11005 bound_to 11000
  146.2062  140.6096  142.9080 LP  0  0  0  0  0  0  0  0  0  0  0  0  # atno 17320 bound_to 7965
  144.7640  140.5488  143.6716 LP  0  0  0  0  0  0  0  0  0  0  0  0  # atno 17321 bound_to 7965
  140.3795  143.2810  152.0186 LP  0  0  0  0  0  0  0  0  0  0  0  0  # atno 17342 bound_to 10162
  139.4842  144.6166  151.7335 LP  0  0  0  0  0  0  0  0  0  0  0  0  # atno 17343 bound_to 10162
  157.3478  130.7066  149.6422 LP  0  0  0  0  0  0  0  0  0  0  0  0  # atno 17370 bound_to 10713
  155.9675  130.4261  150.4684 LP  0  0  0  0  0  0  0  0  0  0  0  0  # atno 17371 bound_to 10713
  140.1260  134.9386  157.2271 LP  0  0  0  0  0  0  0  0  0  0  0  0  # atno 17394 bound_to 11000
  140.3012  134.3129  155.7289 LP  0  0  0  0  0  0  0  0  0  0  0  0  # atno 17395 bound_to 11000

$$$$
