AV-unprocessed.smi:1701|AV-procd|sdf|6839|dock2
  -GOLD-   22720 8 13D 1   1.00000     0.00000
 Structure written by MMmdl.
 54 56  0  0  0  0  0  0  0  0  4 V2000
  151.5816  145.0904  159.1511 C   0  0  0  0  0  0  0  0  0  0  0  0
  152.6411  144.1117  158.6278 C   0  0  0  0  0  0  0  0  0  0  0  0
  152.6721  142.8686  159.3970 N   0  0  0  0  0  0  0  0  0  0  0  0
  153.2867  142.8708  160.7220 C   0  0  0  0  0  0  0  0  0  0  0  0
  152.5160  143.7495  161.7155 C   0  0  0  0  0  0  0  0  0  0  0  0
  152.1873  141.6652  158.8343 C   0  0  0  0  0  0  0  0  0  0  0  0
  152.5031  140.3832  159.3468 C   0  0  0  0  0  0  0  0  0  0  0  0
  151.9839  139.2305  158.7236 C   0  0  0  0  0  0  0  0  0  0  0  0
  151.1535  139.3523  157.5906 C   0  0  0  0  0  0  0  0  0  0  0  0
  150.6776  138.1432  157.0094 N   0  0  0  0  0  0  0  0  0  0  0  0
  150.5905  136.8867  157.5142 C   0  0  0  0  0  0  0  0  0  0  0  0
  151.0171  136.6564  158.6428 O   0  0  0  0  0  0  0  0  0  0  0  0
  150.0308  135.8931  156.7585 N   0  5  0  0  0  0  0  0  0  0  0  0
  149.3204  135.9901  155.4751 C   0  0  2  0  0  0  0  0  0  0  0  0
  147.9665  136.7119  155.6198 C   0  0  0  0  0  0  0  0  0  0  0  0
  147.0125  136.0012  154.6408 C   0  0  0  0  0  0  0  0  0  0  0  0
  147.8080  134.9209  154.0256 N   0  3  2  0  0  0  0  0  0  0  0  0
  147.0783  133.7182  153.5675 C   0  0  0  0  0  0  0  0  0  0  0  0
  148.0628  132.7663  152.8575 C   0  0  0  0  0  0  0  0  0  0  0  0
  149.2898  132.4474  153.7368 C   0  0  0  0  0  0  0  0  0  0  0  0
  149.9571  133.7378  154.2531 C   0  0  0  0  0  0  0  0  0  0  0  0
  148.8990  134.6077  154.9627 C   0  0  1  0  0  0  0  0  0  0  0  0
  150.8624  140.6549  157.1186 C   0  0  0  0  0  0  0  0  0  0  0  0
  151.3795  141.7321  157.7480 N   0  3  0  0  0  0  0  0  0  0  0  0
  151.5686  146.0012  158.5521 H   0  0  0  0  0  0  0  0  0  0  0  0
  151.7802  145.3766  160.1843 H   0  0  0  0  0  0  0  0  0  0  0  0
  150.5837  144.6536  159.1105 H   0  0  0  0  0  0  0  0  0  0  0  0
  152.4206  143.8691  157.5878 H   0  0  0  0  0  0  0  0  0  0  0  0
  153.6233  144.5846  158.6156 H   0  0  0  0  0  0  0  0  0  0  0  0
  153.3921  141.8556  161.1042 H   0  0  0  0  0  0  0  0  0  0  0  0
  154.3045  143.2512  160.6309 H   0  0  0  0  0  0  0  0  0  0  0  0
  152.9998  143.7415  162.6924 H   0  0  0  0  0  0  0  0  0  0  0  0
  151.4925  143.3981  161.8493 H   0  0  0  0  0  0  0  0  0  0  0  0
  152.4726  144.7849  161.3767 H   0  0  0  0  0  0  0  0  0  0  0  0
  153.1307  140.2599  160.2160 H   0  0  0  0  0  0  0  0  0  0  0  0
  152.2265  138.2545  159.1179 H   0  0  0  0  0  0  0  0  0  0  0  0
  150.3241  138.2393  156.0690 H   0  0  0  0  0  0  0  0  0  0  0  0
  149.9088  136.4881  154.7022 H   0  0  0  0  0  0  0  0  0  0  0  0
  147.5736  136.6209  156.6342 H   0  0  0  0  0  0  0  0  0  0  0  0
  148.0577  137.7764  155.4017 H   0  0  0  0  0  0  0  0  0  0  0  0
  146.1583  135.5883  155.1805 H   0  0  0  0  0  0  0  0  0  0  0  0
  146.6313  136.6744  153.8721 H   0  0  0  0  0  0  0  0  0  0  0  0
  146.6115  133.2210  154.4192 H   0  0  0  0  0  0  0  0  0  0  0  0
  146.2794  134.0116  152.8856 H   0  0  0  0  0  0  0  0  0  0  0  0
  147.5538  131.8433  152.5780 H   0  0  0  0  0  0  0  0  0  0  0  0
  148.3993  133.2258  151.9274 H   0  0  0  0  0  0  0  0  0  0  0  0
  148.9782  131.8359  154.5846 H   0  0  0  0  0  0  0  0  0  0  0  0
  150.0099  131.8518  153.1751 H   0  0  0  0  0  0  0  0  0  0  0  0
  150.7707  133.4826  154.9345 H   0  0  0  0  0  0  0  0  0  0  0  0
  150.4065  134.2733  153.4143 H   0  0  0  0  0  0  0  0  0  0  0  0
  148.4748  134.0399  155.7948 H   0  0  0  0  0  0  0  0  0  0  0  0
  150.2452  140.8959  156.2678 H   0  0  0  0  0  0  0  0  0  0  0  0
  148.2531  135.3284  153.2159 H   0  0  0  0  0  0  0  0  0  0  0  0
  151.1496  142.6541  157.3773 H   0  0  0  0  0  0  0  0  0  0  0  0
  1  2  1  0  0  0  0
  1 25  1  0  0  0  0
  1 26  1  0  0  0  0
  1 27  1  0  0  0  0
  2  3  1  0  0  0  0
  2 28  1  0  0  0  0
  2 29  1  0  0  0  0
  3  4  1  0  0  0  0
  3  6  1  0  0  0  0
  4  5  1  0  0  0  0
  4 30  1  0  0  0  0
  4 31  1  0  0  0  0
  5 32  1  0  0  0  0
  5 33  1  0  0  0  0
  5 34  1  0  0  0  0
  6 24  1  0  0  0  0
  6  7  2  0  0  0  0
  7  8  1  0  0  0  0
  7 35  1  0  0  0  0
  8  9  2  0  0  0  0
  8 36  1  0  0  0  0
  9 10  1  0  0  0  0
  9 23  1  0  0  0  0
 10 11  1  0  0  0  0
 10 37  1  0  0  0  0
 11 12  2  0  0  0  0
 11 13  1  0  0  0  0
 13 14  1  0  0  0  0
 14 22  1  0  0  0  0
 14 15  1  0  0  0  0
 14 38  1  0  0  0  0
 15 16  1  0  0  0  0
 15 39  1  0  0  0  0
 15 40  1  0  0  0  0
 16 17  1  0  0  0  0
 16 41  1  0  0  0  0
 16 42  1  0  0  0  0
 17 22  1  0  0  0  0
 17 18  1  0  0  0  0
 17 53  1  0  0  0  0
 18 19  1  0  0  0  0
 18 43  1  0  0  0  0
 18 44  1  0  0  0  0
 19 20  1  0  0  0  0
 19 45  1  0  0  0  0
 19 46  1  0  0  0  0
 20 21  1  0  0  0  0
 20 47  1  0  0  0  0
 20 48  1  0  0  0  0
 21 22  1  0  0  0  0
 21 49  1  0  0  0  0
 21 50  1  0  0  0  0
 22 51  1  0  0  0  0
 23 24  2  0  0  0  0
 23 52  1  0  0  0  0
 24 54  1  0  0  0  0
M  CHG  1  13  -1
M  CHG  1  17   1
M  CHG  1  24   1
M  END
> <s_m_source_file>
AV-unprocessed.smi

> <i_m_source_file_index>
1701

> <i_lp_mmshare_version>
43012

> <i_f3d_flags>
0

> <s_epik_input>
W0NIM11bQ0gyXU4oW0NIMl1bQ0gzXSljMVtjSF1bY0hdYyhbY0hdbjEpW05IXUMoPU8pW05IXVtDQEhdKFtDSDJdW0NIMl0yKVtDQEBIXShOMjMpW0NIMl1bQ0gyXVtDSDJdW0NIMl0z

> <s_epik_cmdline>
J2VwaWtfcHl0aG9uJywgJy1waCcsICc3LjAnLCAnLXRuJywgJzgnLCAnLW1hJywgJzIwMCcsICctbWV0YWxfYmluZGluZycsICctaW1hZScsICc8aW5maWxlLm1hZT4nLCAnLW9tYWUnLCAnPG91dGZpbGUubWFlPic=

> <r_lp_tautomer_probability>
0.999994

> <r_epik_Ionization_Penalty>
7.37095

> <r_epik_Ionization_Penalty_Charging>
7.37095

> <r_epik_Ionization_Penalty_Neutral>
3.78969e-06

> <r_epik_State_Penalty>
6.83842

> <r_epik_Charging_Adjusted_Penalty>
14.2094

> <i_epik_Tot_Q>
1

> <i_epik_Tot_abs_Q>
3

> <r_epik_Metal_State_Penalty>
2.78552

> <b_epik_Metal_Only>
1

> <s_lp_Force_Field>
OPLS_2005

> <r_lp_Energy>
47.8926

> <b_lp_Chiralities_Consistent>
1

> <s_lp_Variant>
AV-unprocessed.smi:1701-19

> <Gold.Version>
5.8.1

> <Gold.Id.Protein>
6NUR|6NUR_protein|mol2

> <Gold.PLP.Fitness>
53.4881

> <Gold.PLP.PLP>
-45.0483

> <Gold.PLP.part.hbond>
-2.0000

> <Gold.PLP.part.metal>
0.0000

> <Gold.PLP.part.buried>
-5.4645

> <Gold.PLP.part.nonpolar>
-37.6702

> <Gold.PLP.part.repulsive>
0.0606

> <Gold.PLP.ligand.clash>
0.0000

> <Gold.PLP.ligand.torsion>
0.4131

> <Gold.PLP.Chemscore.Hbond>
3.0000

> <Gold.PLP.Chemscore.CHOScore>
0.0000

> <Gold.PLP.Chemscore.Metal>
0.0000

> <Gold.Chemscore.Hbonds>
donor molecule, donor type, donor heavy atom, donor atom, acceptor molecule, acceptor atom, score
      L1  H    17    53       P1  7948  2.00
      P1  H  6896  6909       L1    12  0.85

> <Gold.PLP.Chemscore.Internal.Correction>
0.2661

> <Gold.Rescore>
     Score         DG    S(hbond)    S(metal)    S(lipo)     H(rot)  DE(clash)    DE(int)     intcor
     18.85     -20.81       1.95        0.00     103.34       1.28       0.03       1.93       ----

> <Gold.Chemscore.Fitness>
18.8509

> <Gold.Chemscore.DG>
-20.8083

> <Gold.Chemscore.ZeroCoef>
-5.4800

> <Gold.Chemscore.Hbond>
1.9535

> <Gold.Chemscore.Metal>
0.0000

> <Gold.Chemscore.Lipo>
103.3354

> <Gold.Chemscore.Internal_Hbond>
0.0000

> <Gold.Chemscore.DEClash>
0.0282

> <Gold.Chemscore.DEInternal>
1.9292

> <Gold.Chemscore.Rot>
1.2838

> <Gold.Chemscore.Internal.Correction>
   9.000000E+99

> <Gold.Chemscore.Hbonds>
donor molecule, donor type, donor heavy atom, donor atom, acceptor molecule, acceptor atom, score
      L1  H    17    53       P1  7948  0.99
      P1  H  6896  6909       L1    12  0.80

> <Gold.Chemscore.Hbond.Weighted>
-6.5246

> <Gold.Chemscore.Metal.Weighted>
-0.0000

> <Gold.Chemscore.Lipo.Weighted>
-12.0902

> <Gold.Chemscore.Internal_Hbond.Weighted>
0.0000

> <Gold.Chemscore.DEClash.Weighted>
0.0282

> <Gold.Chemscore.DEInternal.Weighted>
1.9292

> <Gold.Chemscore.Rot.Weighted>
3.2865

> <Gold.Chemscore.Internal.Correction.Weighted>
   9.000000E+99

> <Gold.Protein.RotatedTorsions>
[ 6907 6896 6895 6894 ] final   85.20 input  -60.11 | X-H torsion
[ 7974 7965 7964 7962 ] final  135.44 input  175.53 | X-H torsion
[ 8008 7997 7996 7995 ] final   39.03 input   59.86 | X-H torsion
[ 10167 10162 10161 10158 ] final   73.98 input  -65.29 | X-H torsion
[ 10718 10713 10712 10709 ] final  -19.76 input   66.30 | X-H torsion
[ 10763 10752 10751 10750 ] final   -7.28 input  -60.55 | X-H torsion
[ 11005 11000 10999 10996 ] final -103.63 input  -57.11 | X-H torsion

> <Gold.Protein.ActiveResidues>
 VAL166  LYS551  ARG553  GLY616  TRP617  ASP618  TYR619  PRO620  LYS621  CYS622 
 ASP623  PHE694  ASN695  SER759  ASP760  ASP761  ALA762  ILE779  LEU786  VAL792 
 PHE793  MET794  SER795  GLU796  ALA797  LYS798  CYS799  TRP800  GLU811  SER814 

> <Gold.Protein.RotatedAtoms>
  152.5369  134.2623  159.8939 H   0  0  0  0  0  0  0  0  0  0  0  0  # atno 6907 bound_to 6896
  151.2583  133.4308  159.2622 H   0  0  0  0  0  0  0  0  0  0  0  0  # atno 6908 bound_to 6896
  151.0476  134.9665  159.8251 H   0  0  0  0  0  0  0  0  0  0  0  0  # atno 6909 bound_to 6896
  144.9663  139.4654  143.5455 H   0  0  0  0  0  0  0  0  0  0  0  0  # atno 7974 bound_to 7965
  155.2299  140.3337  155.4304 H   0  0  0  0  0  0  0  0  0  0  0  0  # atno 8008 bound_to 7997
  156.2299  140.1846  156.7315 H   0  0  0  0  0  0  0  0  0  0  0  0  # atno 8009 bound_to 7997
  154.5960  140.0630  156.9289 H   0  0  0  0  0  0  0  0  0  0  0  0  # atno 8010 bound_to 7997
  140.0186  144.5558  150.7600 H   0  0  0  0  0  0  0  0  0  0  0  0  # atno 10167 bound_to 10162
  156.5412  130.4678  149.6498 H   0  0  0  0  0  0  0  0  0  0  0  0  # atno 10718 bound_to 10713
  153.4242  135.7010  153.6274 H   0  0  0  0  0  0  0  0  0  0  0  0  # atno 10763 bound_to 10752
  153.4716  135.3713  155.2394 H   0  0  0  0  0  0  0  0  0  0  0  0  # atno 10764 bound_to 10752
  154.8723  135.4044  154.3615 H   0  0  0  0  0  0  0  0  0  0  0  0  # atno 10765 bound_to 10752
  141.1137  133.8656  157.1510 H   0  0  0  0  0  0  0  0  0  0  0  0  # atno 11005 bound_to 11000
  146.3369  139.8846  142.8819 LP  0  0  0  0  0  0  0  0  0  0  0  0  # atno 17320 bound_to 7965
  145.2625  141.0082  143.3818 LP  0  0  0  0  0  0  0  0  0  0  0  0  # atno 17321 bound_to 7965
  140.7352  143.2737  151.3807 LP  0  0  0  0  0  0  0  0  0  0  0  0  # atno 17342 bound_to 10162
  139.6155  144.1012  152.2341 LP  0  0  0  0  0  0  0  0  0  0  0  0  # atno 17343 bound_to 10162
  156.2970  130.7155  151.2018 LP  0  0  0  0  0  0  0  0  0  0  0  0  # atno 17370 bound_to 10713
  157.7405  131.0516  150.5162 LP  0  0  0  0  0  0  0  0  0  0  0  0  # atno 17371 bound_to 10713
  140.0046  135.0014  157.0264 LP  0  0  0  0  0  0  0  0  0  0  0  0  # atno 17394 bound_to 11000
  140.4705  134.1391  155.7202 LP  0  0  0  0  0  0  0  0  0  0  0  0  # atno 17395 bound_to 11000

$$$$
