AV-unprocessed.smi:2227|AV-procd|sdf|9021|dock8
  -GOLD-   2272012223D 1   1.00000     0.00000
 Structure written by MMmdl.
 43 45  0  0  0  0  0  0  0  0  2 V2000
  143.7268  139.7569  156.3659 C   0  0  0  0  0  0  0  0  0  0  0  0
  144.0008  141.2572  156.1895 C   0  0  0  0  0  0  0  0  0  0  0  0
  142.8058  141.9776  155.5474 C   0  0  0  0  0  0  0  0  0  0  0  0
  145.2712  141.4884  155.4175 C   0  0  0  0  0  0  0  0  0  0  0  0
  145.5135  141.0210  154.1860 N   0  3  0  0  0  0  0  0  0  0  0  0
  146.7700  141.3711  153.7761 C   0  0  0  0  0  0  0  0  0  0  0  0
  147.3293  142.0767  154.8077 C   0  0  0  0  0  0  0  0  0  0  0  0
  146.3904  142.1299  155.8073 N   0  0  0  0  0  0  0  0  0  0  0  0
  146.5680  142.7818  157.1136 C   0  0  0  0  0  0  0  0  0  0  0  0
  147.7676  142.2117  157.8743 C   0  0  0  0  0  0  0  0  0  0  0  0
  147.6090  141.2831  158.6663 O   0  0  0  0  0  0  0  0  0  0  0  0
  148.9553  142.7866  157.6306 N   0  0  0  0  0  0  0  0  0  0  0  0
  150.2243  142.4165  158.2480 C   0  0  0  0  0  0  0  0  0  0  0  0
  151.2907  143.4668  157.9937 C   0  0  0  0  0  0  0  0  0  0  0  0
  152.2493  143.9005  159.0774 C   0  0  0  0  0  0  0  0  0  0  0  0
  151.1798  144.8504  158.5886 C   0  0  0  0  0  0  0  0  0  0  0  0
  150.7106  141.0486  157.7971 C   0  0  0  0  0  0  0  0  0  0  0  0
  150.8608  140.7092  156.3327 C   0  0  0  0  0  0  0  0  0  0  0  0
  149.7751  140.0522  157.1532 C   0  0  0  0  0  0  0  0  0  0  0  0
  144.5607  139.2605  156.8632 H   0  0  0  0  0  0  0  0  0  0  0  0
  143.5736  139.2653  155.4048 H   0  0  0  0  0  0  0  0  0  0  0  0
  142.8355  139.5886  156.9709 H   0  0  0  0  0  0  0  0  0  0  0  0
  144.1453  141.6894  157.1780 H   0  0  0  0  0  0  0  0  0  0  0  0
  142.9928  143.0488  155.4651 H   0  0  0  0  0  0  0  0  0  0  0  0
  141.9034  141.8469  156.1451 H   0  0  0  0  0  0  0  0  0  0  0  0
  142.5972  141.5973  154.5470 H   0  0  0  0  0  0  0  0  0  0  0  0
  147.1633  141.0943  152.8088 H   0  0  0  0  0  0  0  0  0  0  0  0
  148.3059  142.5287  154.9050 H   0  0  0  0  0  0  0  0  0  0  0  0
  146.7300  143.8468  156.9434 H   0  0  0  0  0  0  0  0  0  0  0  0
  145.6419  142.6904  157.6828 H   0  0  0  0  0  0  0  0  0  0  0  0
  148.9854  143.5420  156.9609 H   0  0  0  0  0  0  0  0  0  0  0  0
  150.0777  142.3726  159.3292 H   0  0  0  0  0  0  0  0  0  0  0  0
  151.7139  143.4176  156.9918 H   0  0  0  0  0  0  0  0  0  0  0  0
  152.1227  143.4792  160.0725 H   0  0  0  0  0  0  0  0  0  0  0  0
  153.2771  144.1060  158.7854 H   0  0  0  0  0  0  0  0  0  0  0  0
  151.4934  145.6892  157.9707 H   0  0  0  0  0  0  0  0  0  0  0  0
  150.3495  145.0521  159.2621 H   0  0  0  0  0  0  0  0  0  0  0  0
  151.4624  140.6203  158.4577 H   0  0  0  0  0  0  0  0  0  0  0  0
  150.5509  141.4526  155.6011 H   0  0  0  0  0  0  0  0  0  0  0  0
  151.7148  140.0996  156.0446 H   0  0  0  0  0  0  0  0  0  0  0  0
  149.9041  139.0032  157.4122 H   0  0  0  0  0  0  0  0  0  0  0  0
  148.7504  140.3617  156.9587 H   0  0  0  0  0  0  0  0  0  0  0  0
  144.8559  140.4802  153.6386 H   0  0  0  0  0  0  0  0  0  0  0  0
  1  2  1  0  0  0  0
  1 20  1  0  0  0  0
  1 21  1  0  0  0  0
  1 22  1  0  0  0  0
  2  3  1  0  0  0  0
  2  4  1  0  0  0  0
  2 23  1  0  0  0  0
  3 24  1  0  0  0  0
  3 25  1  0  0  0  0
  3 26  1  0  0  0  0
  4  8  1  0  0  0  0
  4  5  2  0  0  0  0
  5  6  1  0  0  0  0
  5 43  1  0  0  0  0
  6  7  2  0  0  0  0
  6 27  1  0  0  0  0
  7  8  1  0  0  0  0
  7 28  1  0  0  0  0
  8  9  1  0  0  0  0
  9 10  1  0  0  0  0
  9 29  1  0  0  0  0
  9 30  1  0  0  0  0
 10 11  2  0  0  0  0
 10 12  1  0  0  0  0
 12 13  1  0  0  0  0
 12 31  1  0  0  0  0
 13 14  1  0  0  0  0
 13 17  1  0  0  0  0
 13 32  1  0  0  0  0
 14 16  1  0  0  0  0
 14 15  1  0  0  0  0
 14 33  1  0  0  0  0
 15 16  1  0  0  0  0
 15 34  1  0  0  0  0
 15 35  1  0  0  0  0
 16 36  1  0  0  0  0
 16 37  1  0  0  0  0
 17 19  1  0  0  0  0
 17 18  1  0  0  0  0
 17 38  1  0  0  0  0
 18 19  1  0  0  0  0
 18 39  1  0  0  0  0
 18 40  1  0  0  0  0
 19 41  1  0  0  0  0
 19 42  1  0  0  0  0
M  CHG  1   5   1
M  END
> <s_m_source_file>
AV-unprocessed.smi

> <i_m_source_file_index>
2227

> <i_lp_mmshare_version>
43012

> <i_f3d_flags>
0

> <s_epik_input>
W0NIM11bQ0hdKFtDSDNdKWMxbltjSF1bY0hdbjFbQ0gyXUMoPU8pW05IXVtDSF0oW0NIXTJbQ0gyXVtDSDJdMilbQ0hdM1tDSDJdW0NIMl0z

> <s_epik_cmdline>
J2VwaWtfcHl0aG9uJywgJy1waCcsICc3LjAnLCAnLXRuJywgJzgnLCAnLW1hJywgJzIwMCcsICctbWV0YWxfYmluZGluZycsICctaW1hZScsICc8aW5maWxlLm1hZT4nLCAnLW9tYWUnLCAnPG91dGZpbGUubWFlPic=

> <r_lp_tautomer_probability>
1

> <r_epik_Ionization_Penalty>
0.258813

> <r_epik_Ionization_Penalty_Charging>
0

> <r_epik_Ionization_Penalty_Neutral>
0.258813

> <r_epik_State_Penalty>
0.250457

> <r_epik_Charging_Adjusted_Penalty>
0.250457

> <i_epik_Tot_Q>
1

> <i_epik_Tot_abs_Q>
1

> <r_epik_Metal_State_Penalty>
0.539096

> <b_epik_Metal_Only>
0

> <s_lp_Force_Field>
OPLS_2005

> <r_lp_Energy>
28.4044

> <b_lp_Chiralities_Consistent>
1

> <s_lp_Variant>
AV-unprocessed.smi:2227-1

> <Gold.Version>
5.8.1

> <Gold.Id.Protein>
6NUR|6NUR_protein|mol2

> <Gold.PLP.Fitness>
42.4606

> <Gold.PLP.PLP>
-31.9327

> <Gold.PLP.part.hbond>
-3.0000

> <Gold.PLP.part.metal>
0.0000

> <Gold.PLP.part.buried>
-2.7572

> <Gold.PLP.part.nonpolar>
-26.8199

> <Gold.PLP.part.repulsive>
0.0532

> <Gold.PLP.ligand.clash>
0.0000

> <Gold.PLP.ligand.torsion>
1.7129

> <Gold.PLP.Chemscore.Hbond>
2.9840

> <Gold.PLP.Chemscore.CHOScore>
0.9415

> <Gold.PLP.Chemscore.Metal>
0.0000

> <Gold.Chemscore.Hbonds>
donor molecule, donor type, donor heavy atom, donor atom, acceptor molecule, acceptor atom, score
      L1  H     5    43       P1 10175  1.86
      L1  H    12    31       P1  8028  1.00
      P1  H  6934  6946       L1    11  0.10
      L1  C     7    28       P1  8028  0.97

> <Gold.PLP.Chemscore.Internal.Correction>
2.1770

> <Gold.Rescore>
     Score         DG    S(hbond)    S(metal)    S(lipo)     H(rot)  DE(clash)    DE(int)     intcor
     14.32     -16.48       1.93        0.00      76.90       1.74       0.20       1.96       ----

> <Gold.Chemscore.Fitness>
14.3209

> <Gold.Chemscore.DG>
-16.4844

> <Gold.Chemscore.ZeroCoef>
-5.4800

> <Gold.Chemscore.Hbond>
1.9338

> <Gold.Chemscore.Metal>
0.0000

> <Gold.Chemscore.Lipo>
76.9038

> <Gold.Chemscore.Internal_Hbond>
0.0000

> <Gold.Chemscore.DEClash>
0.2020

> <Gold.Chemscore.DEInternal>
1.9614

> <Gold.Chemscore.Rot>
1.7392

> <Gold.Chemscore.Internal.Correction>
   9.000000E+99

> <Gold.Chemscore.Hbonds>
donor molecule, donor type, donor heavy atom, donor atom, acceptor molecule, acceptor atom, score
      L1  H     5    43       P1 10175  0.90
      L1  H    12    31       P1  8028  0.60
      P1  H  6934  6946       L1    11  0.10

> <Gold.Chemscore.Hbond.Weighted>
-6.4590

> <Gold.Chemscore.Metal.Weighted>
-0.0000

> <Gold.Chemscore.Lipo.Weighted>
-8.9977

> <Gold.Chemscore.Internal_Hbond.Weighted>
0.0000

> <Gold.Chemscore.DEClash.Weighted>
0.2020

> <Gold.Chemscore.DEInternal.Weighted>
1.9614

> <Gold.Chemscore.Rot.Weighted>
4.4524

> <Gold.Chemscore.Internal.Correction.Weighted>
   9.000000E+99

> <Gold.Protein.RotatedTorsions>
[ 6907 6896 6895 6894 ] final -144.71 input  -60.11 | X-H torsion
[ 7974 7965 7964 7962 ] final  152.49 input  175.53 | X-H torsion
[ 8008 7997 7996 7995 ] final  -91.32 input   59.86 | X-H torsion
[ 10167 10162 10161 10158 ] final -112.75 input  -65.29 | X-H torsion
[ 10718 10713 10712 10709 ] final -103.54 input   66.30 | X-H torsion
[ 10763 10752 10751 10750 ] final   -7.89 input  -60.55 | X-H torsion
[ 11005 11000 10999 10996 ] final  -15.91 input  -57.11 | X-H torsion

> <Gold.Protein.ActiveResidues>
 VAL166  LYS551  ARG553  GLY616  TRP617  ASP618  TYR619  PRO620  LYS621  CYS622 
 ASP623  PHE694  ASN695  SER759  ASP760  ASP761  ALA762  ILE779  LEU786  VAL792 
 PHE793  MET794  SER795  GLU796  ALA797  LYS798  CYS799  TRP800  GLU811  SER814 

> <Gold.Protein.RotatedAtoms>
  151.1177  133.5126  159.2602 H   0  0  0  0  0  0  0  0  0  0  0  0  # atno 6907 bound_to 6896
  151.1896  135.0396  159.8837 H   0  0  0  0  0  0  0  0  0  0  0  0  # atno 6908 bound_to 6896
  152.5454  134.1019  159.8375 H   0  0  0  0  0  0  0  0  0  0  0  0  # atno 6909 bound_to 6896
  144.8219  139.6675  143.6097 H   0  0  0  0  0  0  0  0  0  0  0  0  # atno 7974 bound_to 7965
  154.7094  140.0520  157.0535 H   0  0  0  0  0  0  0  0  0  0  0  0  # atno 8008 bound_to 7997
  155.0576  140.3186  155.4652 H   0  0  0  0  0  0  0  0  0  0  0  0  # atno 8009 bound_to 7997
  156.2784  140.2104  156.5702 H   0  0  0  0  0  0  0  0  0  0  0  0  # atno 8010 bound_to 7997
  140.1193  143.4458  152.1701 H   0  0  0  0  0  0  0  0  0  0  0  0  # atno 10167 bound_to 10162
  156.0269  130.5472  150.7267 H   0  0  0  0  0  0  0  0  0  0  0  0  # atno 10718 bound_to 10713
  153.4327  135.7012  153.6220 H   0  0  0  0  0  0  0  0  0  0  0  0  # atno 10763 bound_to 10752
  153.4628  135.3732  155.2348 H   0  0  0  0  0  0  0  0  0  0  0  0  # atno 10764 bound_to 10752
  154.8726  135.4024  154.3714 H   0  0  0  0  0  0  0  0  0  0  0  0  # atno 10765 bound_to 10752
  140.8014  133.8211  155.9474 H   0  0  0  0  0  0  0  0  0  0  0  0  # atno 11005 bound_to 11000
  146.2524  139.6229  142.9418 LP  0  0  0  0  0  0  0  0  0  0  0  0  # atno 17320 bound_to 7965
  145.5086  141.0436  143.2500 LP  0  0  0  0  0  0  0  0  0  0  0  0  # atno 17321 bound_to 7965
  139.5577  144.7384  151.4245 LP  0  0  0  0  0  0  0  0  0  0  0  0  # atno 17342 bound_to 10162
  140.6881  143.7926  150.7215 LP  0  0  0  0  0  0  0  0  0  0  0  0  # atno 17343 bound_to 10162
  157.4869  131.0907  151.0471 LP  0  0  0  0  0  0  0  0  0  0  0  0  # atno 17370 bound_to 10713
  157.0889  130.5934  149.5435 LP  0  0  0  0  0  0  0  0  0  0  0  0  # atno 17371 bound_to 10713
  140.9291  134.2045  157.4876 LP  0  0  0  0  0  0  0  0  0  0  0  0  # atno 17394 bound_to 11000
  139.8721  134.9825  156.5159 LP  0  0  0  0  0  0  0  0  0  0  0  0  # atno 17395 bound_to 11000

$$$$
