AV-unprocessed.smi:1707|AV-procd|sdf|6887|dock5
  -GOLD-   22720 8 93D 1   1.00000     0.00000
 Structure written by MMmdl.
 41 42  0  0  0  0  0  0  0  0  1 V2000
  145.2028  134.8731  155.5496 O   0  0  0  0  0  0  0  0  0  0  0  0
  143.9771  134.9331  155.4570 C   0  0  0  0  0  0  0  0  0  0  0  0
  143.1640  134.9984  156.5211 N   0  0  0  0  0  0  0  0  0  0  0  0
  143.6044  135.0065  157.9112 C   0  0  0  0  0  0  0  0  0  0  0  0
  142.7719  135.9829  158.7605 C   0  0  0  0  0  0  0  0  0  0  0  0
  142.6523  135.5473  160.2112 C   0  0  0  0  0  0  0  0  0  0  0  0
  142.0167  134.4136  160.5661 C   0  0  0  0  0  0  0  0  0  0  0  0
  141.8584  133.9372  161.9995 C   0  0  0  0  0  0  0  0  0  0  0  0
  142.1877  135.0370  163.0225 C   0  0  0  0  0  0  0  0  0  0  0  0
  143.4549  135.8027  162.6226 C   0  0  0  0  0  0  0  0  0  0  0  0
  143.2962  136.4668  161.2430 C   0  0  0  0  0  0  0  0  0  0  0  0
  143.2684  134.9284  154.3129 N   0  0  0  0  0  0  0  0  0  0  0  0
  143.7132  134.8809  152.9801 C   0  0  0  0  0  0  0  0  0  0  0  0
  143.7319  133.7685  152.1992 C   0  0  0  0  0  0  0  0  0  0  0  0
  144.2171  133.7948  150.8294 C   0  0  0  0  0  0  0  0  0  0  0  0
  144.1601  132.5597  149.9439 C   0  0  0  0  0  0  0  0  0  0  0  0
  143.5147  131.5594  150.5454 F   0  0  0  0  0  0  0  0  0  0  0  0
  143.5212  132.8448  148.8102 F   0  0  0  0  0  0  0  0  0  0  0  0
  145.3867  132.1395  149.6336 F   0  0  0  0  0  0  0  0  0  0  0  0
  144.6406  134.9847  150.3651 C   0  0  0  0  0  0  0  0  0  0  0  0
  144.6421  136.1284  151.1661 N   0  0  0  0  0  0  0  0  0  0  0  0
  144.2076  136.1610  152.4457 C   0  0  0  0  0  0  0  0  0  0  0  0
  144.2405  137.2117  153.0854 O   0  0  0  0  0  0  0  0  0  0  0  0
  144.9894  136.9803  150.7496 H   0  0  0  0  0  0  0  0  0  0  0  0
  142.1684  135.0432  156.3591 H   0  0  0  0  0  0  0  0  0  0  0  0
  143.5579  133.9951  158.3176 H   0  0  0  0  0  0  0  0  0  0  0  0
  144.6539  135.3015  157.9310 H   0  0  0  0  0  0  0  0  0  0  0  0
  143.2221  136.9757  158.7166 H   0  0  0  0  0  0  0  0  0  0  0  0
  141.7670  136.0843  158.3486 H   0  0  0  0  0  0  0  0  0  0  0  0
  141.5899  133.7760  159.8056 H   0  0  0  0  0  0  0  0  0  0  0  0
  140.8386  133.5829  162.1507 H   0  0  0  0  0  0  0  0  0  0  0  0
  142.5168  133.0800  162.1436 H   0  0  0  0  0  0  0  0  0  0  0  0
  141.3534  135.7368  163.0874 H   0  0  0  0  0  0  0  0  0  0  0  0
  142.3034  134.6009  164.0150 H   0  0  0  0  0  0  0  0  0  0  0  0
  143.6954  136.5570  163.3723 H   0  0  0  0  0  0  0  0  0  0  0  0
  144.2980  135.1113  162.5989 H   0  0  0  0  0  0  0  0  0  0  0  0
  144.2721  136.7934  160.8826 H   0  0  0  0  0  0  0  0  0  0  0  0
  142.6786  137.3601  161.3363 H   0  0  0  0  0  0  0  0  0  0  0  0
  142.2636  134.9357  154.4140 H   0  0  0  0  0  0  0  0  0  0  0  0
  143.4013  132.8150  152.5753 H   0  0  0  0  0  0  0  0  0  0  0  0
  144.9998  135.1539  149.3605 H   0  0  0  0  0  0  0  0  0  0  0  0
  1  2  2  0  0  0  0
  2  3  1  0  0  0  0
  2 12  1  0  0  0  0
  3  4  1  0  0  0  0
  3 25  1  0  0  0  0
  4  5  1  0  0  0  0
  4 26  1  0  0  0  0
  4 27  1  0  0  0  0
  5  6  1  0  0  0  0
  5 28  1  0  0  0  0
  5 29  1  0  0  0  0
  6 11  1  0  0  0  0
  6  7  2  0  0  0  0
  7  8  1  0  0  0  0
  7 30  1  0  0  0  0
  8  9  1  0  0  0  0
  8 31  1  0  0  0  0
  8 32  1  0  0  0  0
  9 10  1  0  0  0  0
  9 33  1  0  0  0  0
  9 34  1  0  0  0  0
 10 11  1  0  0  0  0
 10 35  1  0  0  0  0
 10 36  1  0  0  0  0
 11 37  1  0  0  0  0
 11 38  1  0  0  0  0
 12 13  1  0  0  0  0
 12 39  1  0  0  0  0
 13 22  1  0  0  0  0
 13 14  2  0  0  0  0
 14 15  1  0  0  0  0
 14 40  1  0  0  0  0
 15 16  1  0  0  0  0
 15 20  2  0  0  0  0
 16 17  1  0  0  0  0
 16 18  1  0  0  0  0
 16 19  1  0  0  0  0
 20 21  1  0  0  0  0
 20 41  1  0  0  0  0
 21 24  1  0  0  0  0
 21 22  1  0  0  0  0
 22 23  2  0  0  0  0
M  END
> <s_m_source_file>
AV-unprocessed.smi

> <i_m_source_file_index>
1707

> <i_lp_mmshare_version>
43012

> <i_f3d_flags>
0

> <s_epik_input>
Tz1jMVtuSF1bY0hdYyhDKEYpKEYpRilbY0hdYzFbTkhdQyg9TylbTkhdW0NIMl1bQ0gyXUMyPVtDSF1bQ0gyXVtDSDJdW0NIMl1bQ0gyXTI=

> <s_epik_cmdline>
J2VwaWtfcHl0aG9uJywgJy1waCcsICc3LjAnLCAnLXRuJywgJzgnLCAnLW1hJywgJzIwMCcsICctbWV0YWxfYmluZGluZycsICctaW1hZScsICc8aW5maWxlLm1hZT4nLCAnLW9tYWUnLCAnPG91dGZpbGUubWFlPic=

> <r_lp_tautomer_probability>
1

> <r_epik_Ionization_Penalty>
0.00382222

> <r_epik_Ionization_Penalty_Charging>
0.0038016

> <r_epik_Ionization_Penalty_Neutral>
2.06242e-05

> <r_epik_State_Penalty>
-0

> <r_epik_Charging_Adjusted_Penalty>
0.0038016

> <i_epik_Tot_Q>
0

> <i_epik_Tot_abs_Q>
0

> <r_epik_Metal_State_Penalty>
0.371215

> <b_epik_Metal_Only>
0

> <s_lp_Force_Field>
OPLS_2005

> <r_lp_Energy>
19.0753

> <b_lp_Chiralities_Consistent>
1

> <s_lp_Variant>
AV-unprocessed.smi:1707-1

> <Gold.Version>
5.8.1

> <Gold.Id.Protein>
6NUR|6NUR_protein|mol2

> <Gold.PLP.Fitness>
44.2135

> <Gold.PLP.PLP>
-37.6610

> <Gold.PLP.part.hbond>
-2.7750

> <Gold.PLP.part.metal>
0.0000

> <Gold.PLP.part.buried>
-5.3997

> <Gold.PLP.part.nonpolar>
-29.2818

> <Gold.PLP.part.repulsive>
0.2452

> <Gold.PLP.ligand.clash>
0.0000

> <Gold.PLP.ligand.torsion>
1.2507

> <Gold.PLP.Chemscore.Hbond>
2.0000

> <Gold.PLP.Chemscore.CHOScore>
1.0000

> <Gold.PLP.Chemscore.Metal>
0.0000

> <Gold.Chemscore.Hbonds>
donor molecule, donor type, donor heavy atom, donor atom, acceptor molecule, acceptor atom, score
      L1  H     3    25       P1 11000  0.40
      L1  H    21    24       P1 10171  0.38
      L1  C    20    41       P1  7921  1.00

> <Gold.PLP.Chemscore.Internal.Correction>
0.0538

> <Gold.Rescore>
     Score         DG    S(hbond)    S(metal)    S(lipo)     H(rot)  DE(clash)    DE(int)     intcor
     13.63     -15.09       1.84        0.00      64.04       1.57       0.04       1.42       ----

> <Gold.Chemscore.Fitness>
13.6313

> <Gold.Chemscore.DG>
-15.0894

> <Gold.Chemscore.ZeroCoef>
-5.4800

> <Gold.Chemscore.Hbond>
1.8386

> <Gold.Chemscore.Metal>
0.0000

> <Gold.Chemscore.Lipo>
64.0355

> <Gold.Chemscore.Internal_Hbond>
0.0000

> <Gold.Chemscore.DEClash>
0.0373

> <Gold.Chemscore.DEInternal>
1.4208

> <Gold.Chemscore.Rot>
1.5717

> <Gold.Chemscore.Internal.Correction>
   9.000000E+99

> <Gold.Chemscore.Hbonds>
donor molecule, donor type, donor heavy atom, donor atom, acceptor molecule, acceptor atom, score
      L1  H     3    25       P1 11000  0.01
      L1  H    21    24       P1 10171  0.39

> <Gold.Chemscore.Hbond.Weighted>
-6.1409

> <Gold.Chemscore.Metal.Weighted>
-0.0000

> <Gold.Chemscore.Lipo.Weighted>
-7.4922

> <Gold.Chemscore.Internal_Hbond.Weighted>
0.0000

> <Gold.Chemscore.DEClash.Weighted>
0.0373

> <Gold.Chemscore.DEInternal.Weighted>
1.4208

> <Gold.Chemscore.Rot.Weighted>
4.0237

> <Gold.Chemscore.Internal.Correction.Weighted>
   9.000000E+99

> <Gold.Protein.RotatedTorsions>
[ 6907 6896 6895 6894 ] final  -64.67 input  -60.11 | X-H torsion
[ 7974 7965 7964 7962 ] final  -61.21 input  175.53 | X-H torsion
[ 8008 7997 7996 7995 ] final  172.58 input   59.86 | X-H torsion
[ 10167 10162 10161 10158 ] final -174.48 input  -65.29 | X-H torsion
[ 10718 10713 10712 10709 ] final  -59.22 input   66.30 | X-H torsion
[ 10763 10752 10751 10750 ] final  -26.94 input  -60.55 | X-H torsion
[ 11005 11000 10999 10996 ] final  108.15 input  -57.11 | X-H torsion

> <Gold.Protein.ActiveResidues>
 VAL166  LYS551  ARG553  GLY616  TRP617  ASP618  TYR619  PRO620  LYS621  CYS622 
 ASP623  PHE694  ASN695  SER759  ASP760  ASP761  ALA762  ILE779  LEU786  VAL792 
 PHE793  MET794  SER795  GLU796  ALA797  LYS798  CYS799  TRP800  GLU811  SER814 

> <Gold.Protein.RotatedAtoms>
  150.7571  134.6267  159.6164 H   0  0  0  0  0  0  0  0  0  0  0  0  # atno 6907 bound_to 6896
  152.3557  134.6940  160.0232 H   0  0  0  0  0  0  0  0  0  0  0  0  # atno 6908 bound_to 6896
  151.7347  133.3283  159.3386 H   0  0  0  0  0  0  0  0  0  0  0  0  # atno 6909 bound_to 6896
  145.8062  140.8626  143.0206 H   0  0  0  0  0  0  0  0  0  0  0  0  # atno 7974 bound_to 7965
  156.1161  140.1482  156.9271 H   0  0  0  0  0  0  0  0  0  0  0  0  # atno 8008 bound_to 7997
  154.4801  140.0882  156.7399 H   0  0  0  0  0  0  0  0  0  0  0  0  # atno 8009 bound_to 7997
  155.4512  140.3435  155.4303 H   0  0  0  0  0  0  0  0  0  0  0  0  # atno 8010 bound_to 7997
  139.5631  144.1820  152.1271 H   0  0  0  0  0  0  0  0  0  0  0  0  # atno 10167 bound_to 10162
  156.1077  130.4178  150.0686 H   0  0  0  0  0  0  0  0  0  0  0  0  # atno 10718 bound_to 10713
  153.7241  135.6943  153.5005 H   0  0  0  0  0  0  0  0  0  0  0  0  # atno 10763 bound_to 10752
  153.2183  135.4379  155.0458 H   0  0  0  0  0  0  0  0  0  0  0  0  # atno 10764 bound_to 10752
  154.8275  135.3454  154.6773 H   0  0  0  0  0  0  0  0  0  0  0  0  # atno 10765 bound_to 10752
  139.8839  134.9422  156.5929 H   0  0  0  0  0  0  0  0  0  0  0  0  # atno 11005 bound_to 11000
  144.6763  140.0329  143.7482 LP  0  0  0  0  0  0  0  0  0  0  0  0  # atno 17320 bound_to 7965
  145.9826  139.2953  143.1033 LP  0  0  0  0  0  0  0  0  0  0  0  0  # atno 17321 bound_to 7965
  140.1338  144.5264  150.6786 LP  0  0  0  0  0  0  0  0  0  0  0  0  # atno 17342 bound_to 10162
  140.6913  143.2377  151.5123 LP  0  0  0  0  0  0  0  0  0  0  0  0  # atno 17343 bound_to 10162
  156.8657  130.9507  151.3614 LP  0  0  0  0  0  0  0  0  0  0  0  0  # atno 17370 bound_to 10713
  157.6256  130.8689  149.9183 LP  0  0  0  0  0  0  0  0  0  0  0  0  # atno 17371 bound_to 10713
  140.7942  133.8558  155.8671 LP  0  0  0  0  0  0  0  0  0  0  0  0  # atno 17394 bound_to 11000
  140.9650  134.1605  157.4623 LP  0  0  0  0  0  0  0  0  0  0  0  0  # atno 17395 bound_to 11000

$$$$
