AV-unprocessed.smi:2520|AV-procd|sdf|9912|dock1
  -GOLD-   2272013553D 1   1.00000     0.00000
 Structure written by MMmdl.
 41 44  0  0  0  0  0  0  0  0  1 V2000
  150.5390  137.1231  159.6627 O   0  0  0  0  0  0  0  0  0  0  0  0
  149.7372  137.2661  158.7413 C   0  0  0  0  0  0  0  0  0  0  0  0
  148.5299  136.6621  158.7672 N   0  0  0  0  0  0  0  0  0  0  0  0
  147.9264  135.8030  159.7329 C   0  0  0  0  0  0  0  0  0  0  0  0
  148.1605  136.1670  161.0763 C   0  0  0  0  0  0  0  0  0  0  0  0
  147.6049  135.3713  162.0929 C   0  0  0  0  0  0  0  0  0  0  0  0
  146.8492  134.2552  161.6963 C   0  0  0  0  0  0  0  0  0  0  0  0
  146.6514  133.9395  160.3985 N   0  0  0  0  0  0  0  0  0  0  0  0
  147.1832  134.7029  159.4385 N   0  0  0  0  0  0  0  0  0  0  0  0
  149.9940  138.0216  157.6635 N   0  0  0  0  0  0  0  0  0  0  0  0
  151.2253  138.7659  157.4031 C   0  0  1  0  0  0  0  0  0  0  0  0
  151.6015  138.7878  155.9036 C   0  0  1  0  0  0  0  0  0  0  0  0
  150.9490  137.8829  154.8865 C   0  0  0  0  0  0  0  0  0  0  0  0
  149.8523  138.7719  154.2921 C   0  0  0  0  0  0  0  0  0  0  0  0
  149.6481  139.8019  155.2575 O   0  0  0  0  0  0  0  0  0  0  0  0
  150.9168  140.1424  155.8118 C   0  0  1  0  0  0  0  0  0  0  0  0
  150.9771  140.2918  157.3466 C   0  0  0  0  0  0  0  0  0  0  0  0
  152.0983  141.1894  157.8674 C   0  0  0  0  0  0  0  0  0  0  0  0
  151.5173  142.5984  158.0246 C   0  0  0  0  0  0  0  0  0  0  0  0
  149.9985  142.4159  158.1008 C   0  0  0  0  0  0  0  0  0  0  0  0
  149.7645  140.9049  158.0483 C   0  0  0  0  0  0  0  0  0  0  0  0
  147.9466  136.8639  157.9684 H   0  0  0  0  0  0  0  0  0  0  0  0
  148.7515  137.0364  161.3255 H   0  0  0  0  0  0  0  0  0  0  0  0
  147.7526  135.6077  163.1360 H   0  0  0  0  0  0  0  0  0  0  0  0
  146.3969  133.6042  162.4296 H   0  0  0  0  0  0  0  0  0  0  0  0
  149.2760  138.0837  156.9550 H   0  0  0  0  0  0  0  0  0  0  0  0
  152.0660  138.4926  158.0432 H   0  0  0  0  0  0  0  0  0  0  0  0
  152.6811  138.8858  155.7775 H   0  0  0  0  0  0  0  0  0  0  0  0
  151.6487  137.5563  154.1170 H   0  0  0  0  0  0  0  0  0  0  0  0
  150.5288  136.9868  155.3429 H   0  0  0  0  0  0  0  0  0  0  0  0
  150.1911  139.2236  153.3589 H   0  0  0  0  0  0  0  0  0  0  0  0
  148.9308  138.2247  154.0923 H   0  0  0  0  0  0  0  0  0  0  0  0
  151.4653  140.8837  155.2291 H   0  0  0  0  0  0  0  0  0  0  0  0
  152.4375  140.8308  158.8403 H   0  0  0  0  0  0  0  0  0  0  0  0
  152.9712  141.1909  157.2137 H   0  0  0  0  0  0  0  0  0  0  0  0
  151.9135  143.0935  158.9117 H   0  0  0  0  0  0  0  0  0  0  0  0
  151.7743  143.2147  157.1624 H   0  0  0  0  0  0  0  0  0  0  0  0
  149.5736  142.8587  159.0020 H   0  0  0  0  0  0  0  0  0  0  0  0
  149.5266  142.8968  157.2430 H   0  0  0  0  0  0  0  0  0  0  0  0
  148.8226  140.6678  157.5530 H   0  0  0  0  0  0  0  0  0  0  0  0
  149.6897  140.5167  159.0650 H   0  0  0  0  0  0  0  0  0  0  0  0
  1  2  2  0  0  0  0
  2  3  1  0  0  0  0
  2 10  1  0  0  0  0
  3  4  1  0  0  0  0
  3 22  1  0  0  0  0
  4  9  1  0  0  0  0
  4  5  2  0  0  0  0
  5  6  1  0  0  0  0
  5 23  1  0  0  0  0
  6  7  2  0  0  0  0
  6 24  1  0  0  0  0
  7  8  1  0  0  0  0
  7 25  1  0  0  0  0
  8  9  2  0  0  0  0
 10 11  1  0  0  0  0
 10 26  1  0  0  0  0
 11 17  1  0  0  0  0
 11 12  1  0  0  0  0
 11 27  1  0  0  0  0
 12 16  1  0  0  0  0
 12 13  1  0  0  0  0
 12 28  1  0  0  0  0
 13 14  1  0  0  0  0
 13 29  1  0  0  0  0
 13 30  1  0  0  0  0
 14 15  1  0  0  0  0
 14 31  1  0  0  0  0
 14 32  1  0  0  0  0
 15 16  1  0  0  0  0
 16 17  1  0  0  0  0
 16 33  1  0  0  0  0
 17 21  1  0  0  0  0
 17 18  1  0  0  0  0
 18 19  1  0  0  0  0
 18 34  1  0  0  0  0
 18 35  1  0  0  0  0
 19 20  1  0  0  0  0
 19 36  1  0  0  0  0
 19 37  1  0  0  0  0
 20 21  1  0  0  0  0
 20 38  1  0  0  0  0
 20 39  1  0  0  0  0
 21 40  1  0  0  0  0
 21 41  1  0  0  0  0
M  END
> <s_m_source_file>
AV-unprocessed.smi

> <i_m_source_file_index>
2520

> <i_lp_mmshare_version>
43012

> <i_f3d_flags>
0

> <s_epik_input>
bjFuW2NIXVtjSF1bY0hdYzFbTkhdQyg9TylbTkhdW0NAQEhdMltDQEBIXShbQ0gyXVtDSDJdTzMpW0NASF0zQzI0W0NIMl1bQ0gyXVtDSDJdW0NIMl00

> <s_epik_cmdline>
J2VwaWtfcHl0aG9uJywgJy1waCcsICc3LjAnLCAnLXRuJywgJzgnLCAnLW1hJywgJzIwMCcsICctbWV0YWxfYmluZGluZycsICctaW1hZScsICc8aW5maWxlLm1hZT4nLCAnLW9tYWUnLCAnPG91dGZpbGUubWFlPic=

> <r_lp_tautomer_probability>
1

> <r_epik_Ionization_Penalty>
0.00552561

> <r_epik_Ionization_Penalty_Charging>
0

> <r_epik_Ionization_Penalty_Neutral>
0.00552561

> <r_epik_State_Penalty>
-0

> <r_epik_Charging_Adjusted_Penalty>
0

> <i_epik_Tot_Q>
0

> <i_epik_Tot_abs_Q>
0

> <r_epik_Metal_State_Penalty>
-0

> <b_epik_Metal_Only>
0

> <s_lp_Force_Field>
OPLS_2005

> <r_lp_Energy>
62.4045

> <b_lp_Chiralities_Consistent>
1

> <s_lp_Variant>
AV-unprocessed.smi:2520-6

> <Gold.Version>
5.8.1

> <Gold.Id.Protein>
6NUR|6NUR_protein|mol2

> <Gold.PLP.Fitness>
34.5384

> <Gold.PLP.PLP>
-33.1213

> <Gold.PLP.part.hbond>
-1.1326

> <Gold.PLP.part.metal>
0.0000

> <Gold.PLP.part.buried>
-6.6269

> <Gold.PLP.part.nonpolar>
-25.6327

> <Gold.PLP.part.repulsive>
0.2484

> <Gold.PLP.ligand.clash>
0.0000

> <Gold.PLP.ligand.torsion>
0.4911

> <Gold.PLP.Chemscore.Hbond>
0.7313

> <Gold.PLP.Chemscore.CHOScore>
0.0000

> <Gold.PLP.Chemscore.Metal>
0.0000

> <Gold.Chemscore.Hbonds>
donor molecule, donor type, donor heavy atom, donor atom, acceptor molecule, acceptor atom, score
      P1  H  6896  6908       L1     1  0.76

> <Gold.PLP.Chemscore.Internal.Correction>
0.2057

> <Gold.Rescore>
     Score         DG    S(hbond)    S(metal)    S(lipo)     H(rot)  DE(clash)    DE(int)     intcor
     14.78     -16.49       1.00        0.00      87.48       1.00       0.03       1.68       ----

> <Gold.Chemscore.Fitness>
14.7782

> <Gold.Chemscore.DG>
-16.4926

> <Gold.Chemscore.ZeroCoef>
-5.4800

> <Gold.Chemscore.Hbond>
0.9993

> <Gold.Chemscore.Metal>
0.0000

> <Gold.Chemscore.Lipo>
87.4779

> <Gold.Chemscore.Internal_Hbond>
0.0000

> <Gold.Chemscore.DEClash>
0.0314

> <Gold.Chemscore.DEInternal>
1.6831

> <Gold.Chemscore.Rot>
1.0000

> <Gold.Chemscore.Internal.Correction>
   9.000000E+99

> <Gold.Chemscore.Hbonds>
donor molecule, donor type, donor heavy atom, donor atom, acceptor molecule, acceptor atom, score
      P1  H  6896  6908       L1     1  0.65

> <Gold.Chemscore.Hbond.Weighted>
-3.3377

> <Gold.Chemscore.Metal.Weighted>
-0.0000

> <Gold.Chemscore.Lipo.Weighted>
-10.2349

> <Gold.Chemscore.Internal_Hbond.Weighted>
0.0000

> <Gold.Chemscore.DEClash.Weighted>
0.0314

> <Gold.Chemscore.DEInternal.Weighted>
1.6831

> <Gold.Chemscore.Rot.Weighted>
2.5600

> <Gold.Chemscore.Internal.Correction.Weighted>
   9.000000E+99

> <Gold.Protein.RotatedTorsions>
[ 6907 6896 6895 6894 ] final -141.63 input  -60.11 | X-H torsion
[ 7974 7965 7964 7962 ] final -107.91 input  175.53 | X-H torsion
[ 8008 7997 7996 7995 ] final   68.32 input   59.86 | X-H torsion
[ 10167 10162 10161 10158 ] final  120.79 input  -65.29 | X-H torsion
[ 10718 10713 10712 10709 ] final  -52.13 input   66.30 | X-H torsion
[ 10763 10752 10751 10750 ] final   97.26 input  -60.55 | X-H torsion
[ 11005 11000 10999 10996 ] final  131.15 input  -57.11 | X-H torsion

> <Gold.Protein.ActiveResidues>
 VAL166  LYS551  ARG553  GLY616  TRP617  ASP618  TYR619  PRO620  LYS621  CYS622 
 ASP623  PHE694  ASN695  SER759  ASP760  ASP761  ALA762  ILE779  LEU786  VAL792 
 PHE793  MET794  SER795  GLU796  ALA797  LYS798  CYS799  TRP800  GLU811  SER814 

> <Gold.Protein.RotatedAtoms>
  151.0764  133.5425  159.2623 H   0  0  0  0  0  0  0  0  0  0  0  0  # atno 6907 bound_to 6896
  151.2345  135.0566  159.9010 H   0  0  0  0  0  0  0  0  0  0  0  0  # atno 6908 bound_to 6896
  152.5418  134.0548  159.8179 H   0  0  0  0  0  0  0  0  0  0  0  0  # atno 6909 bound_to 6896
  145.1994  140.9050  143.3378 H   0  0  0  0  0  0  0  0  0  0  0  0  # atno 7974 bound_to 7965
  155.7064  140.3495  155.4955 H   0  0  0  0  0  0  0  0  0  0  0  0  # atno 8008 bound_to 7997
  155.9394  140.1099  157.1090 H   0  0  0  0  0  0  0  0  0  0  0  0  # atno 8009 bound_to 7997
  154.4100  140.1215  156.4894 H   0  0  0  0  0  0  0  0  0  0  0  0  # atno 8010 bound_to 7997
  139.5960  144.7041  151.3176 H   0  0  0  0  0  0  0  0  0  0  0  0  # atno 10167 bound_to 10162
  156.1649  130.4149  149.9736 H   0  0  0  0  0  0  0  0  0  0  0  0  # atno 10718 bound_to 10713
  153.2748  135.4189  155.1022 H   0  0  0  0  0  0  0  0  0  0  0  0  # atno 10763 bound_to 10752
  154.8469  135.3481  154.6194 H   0  0  0  0  0  0  0  0  0  0  0  0  # atno 10764 bound_to 10752
  153.6614  135.7048  153.5234 H   0  0  0  0  0  0  0  0  0  0  0  0  # atno 10765 bound_to 10752
  139.9713  134.9576  156.9396 H   0  0  0  0  0  0  0  0  0  0  0  0  # atno 11005 bound_to 11000
  144.9962  139.3641  143.6190 LP  0  0  0  0  0  0  0  0  0  0  0  0  # atno 17320 bound_to 7965
  146.3420  139.9166  142.8772 LP  0  0  0  0  0  0  0  0  0  0  0  0  # atno 17321 bound_to 7965
  140.7212  143.7131  150.7754 LP  0  0  0  0  0  0  0  0  0  0  0  0  # atno 17342 bound_to 10162
  140.0697  143.5073  152.2586 LP  0  0  0  0  0  0  0  0  0  0  0  0  # atno 17343 bound_to 10162
  156.7554  130.9131  151.3639 LP  0  0  0  0  0  0  0  0  0  0  0  0  # atno 17370 bound_to 10713
  157.6760  130.9095  150.0152 LP  0  0  0  0  0  0  0  0  0  0  0  0  # atno 17371 bound_to 10713
  140.5287  134.0835  155.7310 LP  0  0  0  0  0  0  0  0  0  0  0  0  # atno 17394 bound_to 11000
  141.1392  133.9167  157.2364 LP  0  0  0  0  0  0  0  0  0  0  0  0  # atno 17395 bound_to 11000

$$$$
