AV-unprocessed.smi:1550|AV-procd|sdf|6230|dock6
  -GOLD-   22720 6413D 1   1.00000     0.00000
 Structure written by MMmdl.
 42 43  0  0  0  0  0  0  0  0  2 V2000
  147.7719  140.0702  155.7324 C   0  0  0  0  0  0  0  0  0  0  0  0
  147.9831  139.7082  157.2100 C   0  0  2  0  0  0  0  0  0  0  0  0
  149.2542  140.2196  157.5997 O   0  0  0  0  0  0  0  0  0  0  0  0
  149.2922  141.6167  157.8719 C   0  0  0  0  0  0  0  0  0  0  0  0
  150.6994  142.0149  158.3376 C   0  0  1  0  0  0  0  0  0  0  0  0
  150.9015  143.5417  158.4141 C   0  0  0  0  0  0  0  0  0  0  0  0
  152.3064  143.8689  158.9322 C   0  0  0  0  0  0  0  0  0  0  0  0
  152.5562  143.1254  160.2492 C   0  0  0  0  0  0  0  0  0  0  0  0
  152.2775  141.6230  160.0788 C   0  0  0  0  0  0  0  0  0  0  0  0
  150.9480  141.4192  159.6092 O   0  0  0  0  0  0  0  0  0  0  0  0
  147.9334  138.1874  157.4299 C   0  0  0  0  0  0  0  0  0  0  0  0
  147.3859  137.4746  156.5892 O   0  0  0  0  0  0  0  0  0  0  0  0
  148.5221  137.7529  158.5616 N   0  0  0  0  0  0  0  0  0  0  0  0
  148.6812  136.4482  159.0614 C   0  0  0  0  0  0  0  0  0  0  0  0
  148.4908  136.0723  160.3571 C   0  0  0  0  0  0  0  0  0  0  0  0
  148.6735  134.6974  160.8060 C   0  0  0  0  0  0  0  0  0  0  0  0
  148.3978  134.2298  162.2243 C   0  0  0  0  0  0  0  0  0  0  0  0
  149.2466  134.7884  163.0874 F   0  0  0  0  0  0  0  0  0  0  0  0
  147.1597  134.5687  162.5810 F   0  0  0  0  0  0  0  0  0  0  0  0
  148.5104  132.9050  162.3217 F   0  0  0  0  0  0  0  0  0  0  0  0
  149.0240  133.8504  159.7727 C   0  0  0  0  0  0  0  0  0  0  0  0
  149.2408  134.1409  158.4714 N   0  5  0  0  0  0  0  0  0  0  0  0
  149.0770  135.4311  158.0645 C   0  0  0  0  0  0  0  0  0  0  0  0
  149.2515  135.7623  156.8910 O   0  0  0  0  0  0  0  0  0  0  0  0
  146.8203  139.6863  155.3627 H   0  0  0  0  0  0  0  0  0  0  0  0
  148.5649  139.6667  155.1014 H   0  0  0  0  0  0  0  0  0  0  0  0
  147.7648  141.1520  155.5981 H   0  0  0  0  0  0  0  0  0  0  0  0
  147.2001  140.1959  157.7943 H   0  0  0  0  0  0  0  0  0  0  0  0
  149.0217  142.1800  156.9776 H   0  0  0  0  0  0  0  0  0  0  0  0
  148.5741  141.8794  158.6491 H   0  0  0  0  0  0  0  0  0  0  0  0
  151.4129  141.5990  157.6241 H   0  0  0  0  0  0  0  0  0  0  0  0
  150.7478  143.9940  157.4337 H   0  0  0  0  0  0  0  0  0  0  0  0
  150.1606  143.9841  159.0812 H   0  0  0  0  0  0  0  0  0  0  0  0
  153.0502  143.5683  158.1933 H   0  0  0  0  0  0  0  0  0  0  0  0
  152.4198  144.9441  159.0734 H   0  0  0  0  0  0  0  0  0  0  0  0
  153.5822  143.2835  160.5826 H   0  0  0  0  0  0  0  0  0  0  0  0
  151.9079  143.5299  161.0275 H   0  0  0  0  0  0  0  0  0  0  0  0
  152.9903  141.1721  159.3866 H   0  0  0  0  0  0  0  0  0  0  0  0
  152.3951  141.1104  161.0336 H   0  0  0  0  0  0  0  0  0  0  0  0
  148.9059  138.4694  159.1610 H   0  0  0  0  0  0  0  0  0  0  0  0
  148.1900  136.7837  161.1070 H   0  0  0  0  0  0  0  0  0  0  0  0
  149.1453  132.7764  160.0300 H   0  0  0  0  0  0  0  0  0  0  0  0
  1  2  1  0  0  0  0
  1 25  1  0  0  0  0
  1 26  1  0  0  0  0
  1 27  1  0  0  0  0
  2  3  1  0  0  0  0
  2 11  1  0  0  0  0
  2 28  1  0  0  0  0
  3  4  1  0  0  0  0
  4  5  1  0  0  0  0
  4 29  1  0  0  0  0
  4 30  1  0  0  0  0
  5 10  1  0  0  0  0
  5  6  1  0  0  0  0
  5 31  1  0  0  0  0
  6  7  1  0  0  0  0
  6 32  1  0  0  0  0
  6 33  1  0  0  0  0
  7  8  1  0  0  0  0
  7 34  1  0  0  0  0
  7 35  1  0  0  0  0
  8  9  1  0  0  0  0
  8 36  1  0  0  0  0
  8 37  1  0  0  0  0
  9 10  1  0  0  0  0
  9 38  1  0  0  0  0
  9 39  1  0  0  0  0
 11 12  2  0  0  0  0
 11 13  1  0  0  0  0
 13 14  1  0  0  0  0
 13 40  1  0  0  0  0
 14 23  1  0  0  0  0
 14 15  2  0  0  0  0
 15 16  1  0  0  0  0
 15 41  1  0  0  0  0
 16 17  1  0  0  0  0
 16 21  2  0  0  0  0
 17 18  1  0  0  0  0
 17 19  1  0  0  0  0
 17 20  1  0  0  0  0
 21 22  1  0  0  0  0
 21 42  1  0  0  0  0
 22 23  1  0  0  0  0
 23 24  2  0  0  0  0
M  CHG  1  22  -1
M  END
> <s_m_source_file>
AV-unprocessed.smi

> <i_m_source_file_index>
1550

> <i_lp_mmshare_version>
43012

> <i_f3d_flags>
0

> <s_epik_input>
TzFbQ0gyXVtDSDJdW0NIMl1bQ0gyXVtDQEhdMVtDSDJdT1tDQEBIXShbQ0gzXSlDKD1PKVtOSF1jMltjSF1jKEMoRikoRilGKVtjSF1bbkhdYzI9Tw==

> <s_epik_cmdline>
J2VwaWtfcHl0aG9uJywgJy1waCcsICc3LjAnLCAnLXRuJywgJzgnLCAnLW1hJywgJzIwMCcsICctbWV0YWxfYmluZGluZycsICctaW1hZScsICc8aW5maWxlLm1hZT4nLCAnLW9tYWUnLCAnPG91dGZpbGUubWFlPic=

> <r_epik_Ionization_Penalty>
2.54933

> <r_epik_Ionization_Penalty_Charging>
0.0583423

> <r_epik_Ionization_Penalty_Neutral>
2.49099

> <r_epik_State_Penalty>
2.65532

> <r_epik_Charging_Adjusted_Penalty>
2.71366

> <i_epik_Tot_Q>
-1

> <i_epik_Tot_abs_Q>
1

> <r_epik_Metal_State_Penalty>
0.516364

> <b_epik_Metal_Only>
0

> <s_lp_Force_Field>
OPLS_2005

> <r_lp_Energy>
26.7738

> <b_lp_Chiralities_Consistent>
1

> <s_lp_Variant>
AV-unprocessed.smi:1550-7

> <Gold.Version>
5.8.1

> <Gold.Id.Protein>
6NUR|6NUR_protein|mol2

> <Gold.PLP.Fitness>
47.0857

> <Gold.PLP.PLP>
-43.3253

> <Gold.PLP.part.hbond>
-1.3661

> <Gold.PLP.part.metal>
0.0000

> <Gold.PLP.part.buried>
-2.5456

> <Gold.PLP.part.nonpolar>
-39.0833

> <Gold.PLP.part.repulsive>
0.1917

> <Gold.PLP.ligand.clash>
0.0000

> <Gold.PLP.ligand.torsion>
1.1945

> <Gold.PLP.Chemscore.Hbond>
2.0000

> <Gold.PLP.Chemscore.CHOScore>
0.0000

> <Gold.PLP.Chemscore.Metal>
0.0000

> <Gold.PLP.Chemscore.Internal.Correction>
0.1494

> <Gold.Rescore>
     Score         DG    S(hbond)    S(metal)    S(lipo)     H(rot)  DE(clash)    DE(int)     intcor
     12.13     -14.17       0.94        0.00      87.46       1.82       0.01       2.03       ----

> <Gold.Chemscore.Fitness>
12.1338

> <Gold.Chemscore.DG>
-14.1729

> <Gold.Chemscore.ZeroCoef>
-5.4800

> <Gold.Chemscore.Hbond>
0.9366

> <Gold.Chemscore.Metal>
0.0000

> <Gold.Chemscore.Lipo>
87.4608

> <Gold.Chemscore.Internal_Hbond>
0.0000

> <Gold.Chemscore.DEClash>
0.0110

> <Gold.Chemscore.DEInternal>
2.0281

> <Gold.Chemscore.Rot>
1.8236

> <Gold.Chemscore.Internal.Correction>
   9.000000E+99

> <Gold.Chemscore.Hbond.Weighted>
-3.1284

> <Gold.Chemscore.Metal.Weighted>
-0.0000

> <Gold.Chemscore.Lipo.Weighted>
-10.2329

> <Gold.Chemscore.Internal_Hbond.Weighted>
0.0000

> <Gold.Chemscore.DEClash.Weighted>
0.0110

> <Gold.Chemscore.DEInternal.Weighted>
2.0281

> <Gold.Chemscore.Rot.Weighted>
4.6684

> <Gold.Chemscore.Internal.Correction.Weighted>
   9.000000E+99

> <Gold.Protein.RotatedTorsions>
[ 6907 6896 6895 6894 ] final   18.37 input  -60.11 | X-H torsion
[ 7974 7965 7964 7962 ] final   78.45 input  175.53 | X-H torsion
[ 8008 7997 7996 7995 ] final  -96.80 input   59.86 | X-H torsion
[ 10167 10162 10161 10158 ] final  114.65 input  -65.29 | X-H torsion
[ 10718 10713 10712 10709 ] final  -64.38 input   66.30 | X-H torsion
[ 10763 10752 10751 10750 ] final  -25.39 input  -60.55 | X-H torsion
[ 11005 11000 10999 10996 ] final  151.37 input  -57.11 | X-H torsion

> <Gold.Protein.ActiveResidues>
 VAL166  LYS551  ARG553  GLY616  TRP617  ASP618  TYR619  PRO620  LYS621  CYS622 
 ASP623  PHE694  ASN695  SER759  ASP760  ASP761  ALA762  ILE779  LEU786  VAL792 
 PHE793  MET794  SER795  GLU796  ALA797  LYS798  CYS799  TRP800  GLU811  SER814 

> <Gold.Protein.RotatedAtoms>
  151.8642  135.0513  160.0472 H   0  0  0  0  0  0  0  0  0  0  0  0  # atno 6907 bound_to 6896
  152.2639  133.5317  159.5406 H   0  0  0  0  0  0  0  0  0  0  0  0  # atno 6908 bound_to 6896
  150.7126  134.0708  159.3906 H   0  0  0  0  0  0  0  0  0  0  0  0  # atno 6909 bound_to 6896
  145.6770  139.2513  143.1836 H   0  0  0  0  0  0  0  0  0  0  0  0  # atno 7974 bound_to 7965
  154.7792  140.0468  157.1114 H   0  0  0  0  0  0  0  0  0  0  0  0  # atno 8008 bound_to 7997
  154.9725  140.3091  155.4962 H   0  0  0  0  0  0  0  0  0  0  0  0  # atno 8009 bound_to 7997
  156.2934  140.2250  156.4819 H   0  0  0  0  0  0  0  0  0  0  0  0  # atno 8010 bound_to 7997
  139.6373  144.7121  151.2308 H   0  0  0  0  0  0  0  0  0  0  0  0  # atno 10167 bound_to 10162
  156.0733  130.4233  150.1411 H   0  0  0  0  0  0  0  0  0  0  0  0  # atno 10718 bound_to 10713
  153.6991  135.6957  153.5068 H   0  0  0  0  0  0  0  0  0  0  0  0  # atno 10763 bound_to 10752
  153.2356  135.4323  155.0642 H   0  0  0  0  0  0  0  0  0  0  0  0  # atno 10764 bound_to 10752
  154.8350  135.3495  154.6530 H   0  0  0  0  0  0  0  0  0  0  0  0  # atno 10765 bound_to 10752
  140.1213  134.8862  157.2076 H   0  0  0  0  0  0  0  0  0  0  0  0  # atno 11005 bound_to 11000
  146.0997  140.7559  142.9555 LP  0  0  0  0  0  0  0  0  0  0  0  0  # atno 17320 bound_to 7965
  144.7038  140.3767  143.7134 LP  0  0  0  0  0  0  0  0  0  0  0  0  # atno 17321 bound_to 7965
  140.7472  143.6373  150.8367 LP  0  0  0  0  0  0  0  0  0  0  0  0  # atno 17342 bound_to 10162
  140.0006  143.5748  152.2877 LP  0  0  0  0  0  0  0  0  0  0  0  0  # atno 17343 bound_to 10162
  156.9458  130.9759  151.3507 LP  0  0  0  0  0  0  0  0  0  0  0  0  # atno 17370 bound_to 10713
  157.5815  130.8380  149.8529 LP  0  0  0  0  0  0  0  0  0  0  0  0  # atno 17371 bound_to 10713
  140.2961  134.3184  155.7302 LP  0  0  0  0  0  0  0  0  0  0  0  0  # atno 17394 bound_to 11000
  141.2152  133.7564  156.9574 LP  0  0  0  0  0  0  0  0  0  0  0  0  # atno 17395 bound_to 11000

$$$$
