AV-unprocessed.smi:1947|AV-procd|sdf|7868|dock2
  -GOLD-   2272010 23D 1   1.00000     0.00000
 Structure written by MMmdl.
 39 40  0  0  0  0  0  0  0  0  1 V2000
  151.7581  143.7964  159.7573 C   0  0  0  0  0  0  0  0  0  0  0  0
  152.7492  142.6307  159.6084 C   0  0  1  0  0  0  0  0  0  0  0  0
  153.4256  142.3164  160.9578 C   0  0  0  0  0  0  0  0  0  0  0  0
  154.4207  141.1526  160.8391 C   0  0  0  0  0  0  0  0  0  0  0  0
  153.7373  139.8999  160.2739 C   0  0  0  0  0  0  0  0  0  0  0  0
  153.0671  140.1981  158.9247 C   0  0  0  0  0  0  0  0  0  0  0  0
  152.0669  141.3694  159.0316 C   0  0  2  0  0  0  0  0  0  0  0  0
  151.5802  141.6934  157.7356 O   0  0  0  0  0  0  0  0  0  0  0  0
  150.5735  140.8185  157.2478 C   0  0  0  0  0  0  0  0  0  0  0  0
  149.6370  141.6106  156.3244 C   0  0  0  0  0  0  0  0  0  0  0  0
  148.7961  142.5335  157.0789 N   0  0  0  0  0  0  0  0  0  0  0  0
  148.2223  142.2637  158.2596 C   0  0  0  0  0  0  0  0  0  0  0  0
  148.3757  141.2007  158.8607 O   0  0  0  0  0  0  0  0  0  0  0  0
  147.4678  143.2922  158.6785 N   0  0  0  0  0  0  0  0  0  0  0  0
  146.6943  143.3799  159.8626 C   0  0  0  0  0  0  0  0  0  0  0  0
  146.5727  142.2810  160.6166 N   0  0  0  0  0  0  0  0  0  0  0  0
  145.7915  142.5065  161.7433 N   0  0  0  0  0  0  0  0  0  0  0  0
  145.3539  143.7682  161.7946 C   0  0  0  0  0  0  0  0  0  0  0  0
  145.8516  144.8078  160.4715 S   0  0  0  0  0  0  0  0  0  0  0  0
  150.9394  143.5371  160.4290 H   0  0  0  0  0  0  0  0  0  0  0  0
  151.3240  144.0744  158.7966 H   0  0  0  0  0  0  0  0  0  0  0  0
  152.2513  144.6814  160.1598 H   0  0  0  0  0  0  0  0  0  0  0  0
  153.5271  142.9442  158.9104 H   0  0  0  0  0  0  0  0  0  0  0  0
  153.9440  143.2008  161.3297 H   0  0  0  0  0  0  0  0  0  0  0  0
  152.6668  142.0690  161.7015 H   0  0  0  0  0  0  0  0  0  0  0  0
  155.2493  141.4428  160.1918 H   0  0  0  0  0  0  0  0  0  0  0  0
  154.8531  140.9321  161.8154 H   0  0  0  0  0  0  0  0  0  0  0  0
  154.4676  139.0986  160.1574 H   0  0  0  0  0  0  0  0  0  0  0  0
  152.9906  139.5383  160.9820 H   0  0  0  0  0  0  0  0  0  0  0  0
  153.8324  140.4395  158.1859 H   0  0  0  0  0  0  0  0  0  0  0  0
  152.5693  139.2974  158.5668 H   0  0  0  0  0  0  0  0  0  0  0  0
  151.2399  141.0903  159.6878 H   0  0  0  0  0  0  0  0  0  0  0  0
  151.0063  139.9741  156.7113 H   0  0  0  0  0  0  0  0  0  0  0  0
  150.0069  140.4110  158.0859 H   0  0  0  0  0  0  0  0  0  0  0  0
  150.2153  142.1590  155.5793 H   0  0  0  0  0  0  0  0  0  0  0  0
  148.9911  140.9257  155.7744 H   0  0  0  0  0  0  0  0  0  0  0  0
  148.6147  143.4310  156.6539 H   0  0  0  0  0  0  0  0  0  0  0  0
  147.4339  144.1021  158.0769 H   0  0  0  0  0  0  0  0  0  0  0  0
  144.7326  144.0889  162.6176 H   0  0  0  0  0  0  0  0  0  0  0  0
  1  2  1  0  0  0  0
  1 20  1  0  0  0  0
  1 21  1  0  0  0  0
  1 22  1  0  0  0  0
  2  7  1  0  0  0  0
  2  3  1  0  0  0  0
  2 23  1  0  0  0  0
  3  4  1  0  0  0  0
  3 24  1  0  0  0  0
  3 25  1  0  0  0  0
  4  5  1  0  0  0  0
  4 26  1  0  0  0  0
  4 27  1  0  0  0  0
  5  6  1  0  0  0  0
  5 28  1  0  0  0  0
  5 29  1  0  0  0  0
  6  7  1  0  0  0  0
  6 30  1  0  0  0  0
  6 31  1  0  0  0  0
  7  8  1  0  0  0  0
  7 32  1  0  0  0  0
  8  9  1  0  0  0  0
  9 10  1  0  0  0  0
  9 33  1  0  0  0  0
  9 34  1  0  0  0  0
 10 11  1  0  0  0  0
 10 35  1  0  0  0  0
 10 36  1  0  0  0  0
 11 12  1  0  0  0  0
 11 37  1  0  0  0  0
 12 13  2  0  0  0  0
 12 14  1  0  0  0  0
 14 15  1  0  0  0  0
 14 38  1  0  0  0  0
 15 19  1  0  0  0  0
 15 16  2  0  0  0  0
 16 17  1  0  0  0  0
 17 18  2  0  0  0  0
 18 19  1  0  0  0  0
 18 39  1  0  0  0  0
M  END
> <s_m_source_file>
AV-unprocessed.smi

> <i_m_source_file_index>
1947

> <i_lp_mmshare_version>
43012

> <i_f3d_flags>
0

> <s_epik_input>
W0NIM11bQ0BASF0xW0NIMl1bQ0gyXVtDSDJdW0NIMl1bQ0BIXTFPW0NIMl1bQ0gyXVtOSF1DKD1PKVtOSF1jMm5uW2NIXXMy

> <s_epik_cmdline>
J2VwaWtfcHl0aG9uJywgJy1waCcsICc3LjAnLCAnLXRuJywgJzgnLCAnLW1hJywgJzIwMCcsICctbWV0YWxfYmluZGluZycsICctaW1hZScsICc8aW5maWxlLm1hZT4nLCAnLW9tYWUnLCAnPG91dGZpbGUubWFlPic=

> <r_lp_tautomer_probability>
1

> <r_epik_Ionization_Penalty>
0.00220897

> <r_epik_Ionization_Penalty_Charging>
0

> <r_epik_Ionization_Penalty_Neutral>
0.00220897

> <r_epik_State_Penalty>
-0

> <r_epik_Charging_Adjusted_Penalty>
0

> <i_epik_Tot_Q>
0

> <i_epik_Tot_abs_Q>
0

> <r_epik_Metal_State_Penalty>
0.345002

> <b_epik_Metal_Only>
0

> <s_lp_Force_Field>
OPLS_2005

> <r_lp_Energy>
7.32574

> <b_lp_Chiralities_Consistent>
1

> <s_lp_Variant>
AV-unprocessed.smi:1947-4

> <Gold.Version>
5.8.1

> <Gold.Id.Protein>
6NUR|6NUR_protein|mol2

> <Gold.PLP.Fitness>
44.1024

> <Gold.PLP.PLP>
-34.0005

> <Gold.PLP.part.hbond>
-6.2467

> <Gold.PLP.part.metal>
0.0000

> <Gold.PLP.part.buried>
-1.6638

> <Gold.PLP.part.nonpolar>
-26.9880

> <Gold.PLP.part.repulsive>
0.1608

> <Gold.PLP.ligand.clash>
0.0000

> <Gold.PLP.ligand.torsion>
0.5520

> <Gold.PLP.Chemscore.Hbond>
3.7208

> <Gold.PLP.Chemscore.CHOScore>
0.0000

> <Gold.PLP.Chemscore.Metal>
0.0000

> <Gold.Chemscore.Hbonds>
donor molecule, donor type, donor heavy atom, donor atom, acceptor molecule, acceptor atom, score
      L1  H    11    37       P1  8028  1.00
      L1  H    14    38       P1  8029  0.96
      P1  H  6933  6944       L1    16  0.44
      P1  H  6934  6946       L1    16  0.81

> <Gold.PLP.Chemscore.Internal.Correction>
0.0436

> <Gold.Rescore>
     Score         DG    S(hbond)    S(metal)    S(lipo)     H(rot)  DE(clash)    DE(int)     intcor
     12.45     -17.56       1.96        0.00      89.77       1.94       1.60       3.51       ----

> <Gold.Chemscore.Fitness>
12.4534

> <Gold.Chemscore.DG>
-17.5624

> <Gold.Chemscore.ZeroCoef>
-5.4800

> <Gold.Chemscore.Hbond>
1.9587

> <Gold.Chemscore.Metal>
0.0000

> <Gold.Chemscore.Lipo>
89.7687

> <Gold.Chemscore.Internal_Hbond>
0.0000

> <Gold.Chemscore.DEClash>
1.6017

> <Gold.Chemscore.DEInternal>
3.5073

> <Gold.Chemscore.Rot>
1.9385

> <Gold.Chemscore.Internal.Correction>
   9.000000E+99

> <Gold.Chemscore.Hbonds>
donor molecule, donor type, donor heavy atom, donor atom, acceptor molecule, acceptor atom, score
      L1  H    11    37       P1  8028  0.54
      L1  H    14    38       P1  8029  0.27
      P1  H  6933  6944       L1    16  0.02
      P1  H  6934  6946       L1    16  0.31

> <Gold.Chemscore.Hbond.Weighted>
-6.5420

> <Gold.Chemscore.Metal.Weighted>
-0.0000

> <Gold.Chemscore.Lipo.Weighted>
-10.5029

> <Gold.Chemscore.Internal_Hbond.Weighted>
0.0000

> <Gold.Chemscore.DEClash.Weighted>
1.6017

> <Gold.Chemscore.DEInternal.Weighted>
3.5073

> <Gold.Chemscore.Rot.Weighted>
4.9625

> <Gold.Chemscore.Internal.Correction.Weighted>
   9.000000E+99

> <Gold.Protein.RotatedTorsions>
[ 6907 6896 6895 6894 ] final -104.61 input  -60.11 | X-H torsion
[ 7974 7965 7964 7962 ] final  -66.86 input  175.53 | X-H torsion
[ 8008 7997 7996 7995 ] final -115.29 input   59.86 | X-H torsion
[ 10167 10162 10161 10158 ] final -152.45 input  -65.29 | X-H torsion
[ 10718 10713 10712 10709 ] final  139.63 input   66.30 | X-H torsion
[ 10763 10752 10751 10750 ] final    8.58 input  -60.55 | X-H torsion
[ 11005 11000 10999 10996 ] final   64.08 input  -57.11 | X-H torsion

> <Gold.Protein.ActiveResidues>
 VAL166  LYS551  ARG553  GLY616  TRP617  ASP618  TYR619  PRO620  LYS621  CYS622 
 ASP623  PHE694  ASN695  SER759  ASP760  ASP761  ALA762  ILE779  LEU786  VAL792 
 PHE793  MET794  SER795  GLU796  ALA797  LYS798  CYS799  TRP800  GLU811  SER814 

> <Gold.Protein.RotatedAtoms>
  150.7295  134.0252  159.3714 H   0  0  0  0  0  0  0  0  0  0  0  0  # atno 6907 bound_to 6896
  151.8219  135.0647  160.0435 H   0  0  0  0  0  0  0  0  0  0  0  0  # atno 6908 bound_to 6896
  152.2997  133.5607  159.5647 H   0  0  0  0  0  0  0  0  0  0  0  0  # atno 6909 bound_to 6896
  145.7365  140.8973  143.0552 H   0  0  0  0  0  0  0  0  0  0  0  0  # atno 7974 bound_to 7965
  155.0497  140.0393  157.2539 H   0  0  0  0  0  0  0  0  0  0  0  0  # atno 8008 bound_to 7997
  154.7148  140.2700  155.6572 H   0  0  0  0  0  0  0  0  0  0  0  0  # atno 8009 bound_to 7997
  156.2800  140.2714  156.1801 H   0  0  0  0  0  0  0  0  0  0  0  0  # atno 8010 bound_to 7997
  139.7181  143.9001  152.2493 H   0  0  0  0  0  0  0  0  0  0  0  0  # atno 10167 bound_to 10162
  157.4123  131.1029  151.0441 H   0  0  0  0  0  0  0  0  0  0  0  0  # atno 10718 bound_to 10713
  153.2235  135.6884  153.7972 H   0  0  0  0  0  0  0  0  0  0  0  0  # atno 10763 bound_to 10752
  153.7162  135.3274  155.3258 H   0  0  0  0  0  0  0  0  0  0  0  0  # atno 10764 bound_to 10752
  154.8281  135.4602  154.1092 H   0  0  0  0  0  0  0  0  0  0  0  0  # atno 10765 bound_to 10752
  139.9982  134.6484  155.9975 H   0  0  0  0  0  0  0  0  0  0  0  0  # atno 11005 bound_to 11000
  144.6880  139.9402  143.7475 LP  0  0  0  0  0  0  0  0  0  0  0  0  # atno 17320 bound_to 7965
  146.0488  139.3491  143.0652 LP  0  0  0  0  0  0  0  0  0  0  0  0  # atno 17321 bound_to 7965
  139.8889  144.6976  150.8792 LP  0  0  0  0  0  0  0  0  0  0  0  0  # atno 17342 bound_to 10162
  140.7748  143.3602  151.1844 LP  0  0  0  0  0  0  0  0  0  0  0  0  # atno 17343 bound_to 10162
  157.1401  130.6139  149.5553 LP  0  0  0  0  0  0  0  0  0  0  0  0  # atno 17370 bound_to 10713
  155.9854  130.4884  150.7031 LP  0  0  0  0  0  0  0  0  0  0  0  0  # atno 17371 bound_to 10713
  141.1621  133.6538  156.4354 LP  0  0  0  0  0  0  0  0  0  0  0  0  # atno 17394 bound_to 11000
  140.4778  134.6693  157.5158 LP  0  0  0  0  0  0  0  0  0  0  0  0  # atno 17395 bound_to 11000

$$$$
