AV-unprocessed.smi:626|AV-procd|sdf|3111|dock8
  -GOLD-   22720 0 33D 1   1.00000     0.00000
 Structure written by MMmdl.
 34 36  0  0  0  0  0  0  0  0  1 V2000
  149.5502  136.4977  155.3480 C   0  0  0  0  0  0  0  0  0  0  0  0
  150.4394  137.6342  155.1628 N   0  0  0  0  0  0  0  0  0  0  0  0
  151.7401  137.6359  155.4896 C   0  0  0  0  0  0  0  0  0  0  0  0
  152.3125  136.6666  155.9885 O   0  0  0  0  0  0  0  0  0  0  0  0
  152.5151  138.9267  155.2140 C   0  0  0  0  0  0  0  0  0  0  0  0
  151.9473  140.0645  156.0004 C   0  0  0  0  0  0  0  0  0  0  0  0
  151.1212  140.9439  155.4463 N   0  0  0  0  0  0  0  0  0  0  0  0
  150.8138  141.8101  156.5051 O   0  0  0  0  0  0  0  0  0  0  0  0
  151.5236  141.3666  157.5712 C   0  0  0  0  0  0  0  0  0  0  0  0
  151.3141  142.0448  158.8939 C   0  0  2  0  0  0  0  0  0  0  0  0
  150.3672  143.2663  158.8687 C   0  0  0  0  0  0  0  0  0  0  0  0
  151.2016  144.3514  159.5769 C   0  0  2  0  0  0  0  0  0  0  0  0
  152.3343  144.8150  158.6406 C   0  0  0  0  0  0  0  0  0  0  0  0
  153.3122  143.6249  158.6717 C   0  0  0  0  0  0  0  0  0  0  0  0
  152.5824  142.6108  159.5760 C   0  0  1  0  0  0  0  0  0  0  0  0
  151.9670  143.5410  160.6174 C   0  0  0  0  0  0  0  0  0  0  0  0
  152.2131  140.2536  157.3220 N   0  0  0  0  0  0  0  0  0  0  0  0
  148.5285  136.7797  155.0931 H   0  0  0  0  0  0  0  0  0  0  0  0
  149.5605  136.1564  156.3841 H   0  0  0  0  0  0  0  0  0  0  0  0
  149.8460  135.6680  154.7047 H   0  0  0  0  0  0  0  0  0  0  0  0
  150.0434  138.4694  154.7559 H   0  0  0  0  0  0  0  0  0  0  0  0
  153.5714  138.8025  155.4582 H   0  0  0  0  0  0  0  0  0  0  0  0
  152.4625  139.1556  154.1489 H   0  0  0  0  0  0  0  0  0  0  0  0
  150.8782  141.3003  159.5624 H   0  0  0  0  0  0  0  0  0  0  0  0
  150.0765  143.5780  157.8649 H   0  0  0  0  0  0  0  0  0  0  0  0
  149.4515  143.0511  159.4208 H   0  0  0  0  0  0  0  0  0  0  0  0
  150.6032  145.1703  159.9772 H   0  0  0  0  0  0  0  0  0  0  0  0
  151.9748  145.0304  157.6336 H   0  0  0  0  0  0  0  0  0  0  0  0
  152.8148  145.7158  159.0244 H   0  0  0  0  0  0  0  0  0  0  0  0
  153.5429  143.2381  157.6801 H   0  0  0  0  0  0  0  0  0  0  0  0
  154.2569  143.9262  159.1263 H   0  0  0  0  0  0  0  0  0  0  0  0
  153.2404  141.8403  159.9790 H   0  0  0  0  0  0  0  0  0  0  0  0
  152.7055  144.1282  161.1664 H   0  0  0  0  0  0  0  0  0  0  0  0
  151.3179  143.0285  161.3295 H   0  0  0  0  0  0  0  0  0  0  0  0
  1  2  1  0  0  0  0
  1 18  1  0  0  0  0
  1 19  1  0  0  0  0
  1 20  1  0  0  0  0
  2  3  1  0  0  0  0
  2 21  1  0  0  0  0
  3  4  2  0  0  0  0
  3  5  1  0  0  0  0
  5  6  1  0  0  0  0
  5 22  1  0  0  0  0
  5 23  1  0  0  0  0
  6 17  1  0  0  0  0
  6  7  2  0  0  0  0
  7  8  1  0  0  0  0
  8  9  1  0  0  0  0
  9 10  1  0  0  0  0
  9 17  2  0  0  0  0
 10 15  1  0  0  0  0
 10 11  1  0  0  0  0
 10 24  1  0  0  0  0
 11 12  1  0  0  0  0
 11 25  1  0  0  0  0
 11 26  1  0  0  0  0
 12 16  1  0  0  0  0
 12 13  1  0  0  0  0
 12 27  1  0  0  0  0
 13 14  1  0  0  0  0
 13 28  1  0  0  0  0
 13 29  1  0  0  0  0
 14 15  1  0  0  0  0
 14 30  1  0  0  0  0
 14 31  1  0  0  0  0
 15 16  1  0  0  0  0
 15 32  1  0  0  0  0
 16 33  1  0  0  0  0
 16 34  1  0  0  0  0
M  END
> <s_m_source_file>
AV-unprocessed.smi

> <i_m_source_file_index>
626

> <i_lp_mmshare_version>
43012

> <i_f3d_flags>
0

> <s_epik_input>
W0NIM11bTkhdQyg9TylbQ0gyXWMxbm9jKG4xKVtDQEhdKFtDSDJdW0NAQEhdMjMpW0NAQEhdKFtDSDJdMylbQ0gyXVtDSDJdMg==

> <s_epik_cmdline>
J2VwaWtfcHl0aG9uJywgJy1waCcsICc3LjAnLCAnLXRuJywgJzgnLCAnLW1hJywgJzIwMCcsICctbWV0YWxfYmluZGluZycsICctaW1hZScsICc8aW5maWxlLm1hZT4nLCAnLW9tYWUnLCAnPG91dGZpbGUubWFlPic=

> <r_lp_tautomer_probability>
1

> <r_epik_Ionization_Penalty>
1.02916e-07

> <r_epik_Ionization_Penalty_Charging>
0

> <r_epik_Ionization_Penalty_Neutral>
1.02916e-07

> <r_epik_State_Penalty>
-0

> <r_epik_Charging_Adjusted_Penalty>
0

> <i_epik_Tot_Q>
0

> <i_epik_Tot_abs_Q>
0

> <r_epik_Metal_State_Penalty>
-0

> <b_epik_Metal_Only>
0

> <s_lp_Force_Field>
OPLS_2005

> <r_lp_Energy>
49.4755

> <b_lp_Chiralities_Consistent>
1

> <s_lp_Variant>
AV-unprocessed.smi:626-3

> <Gold.Version>
5.8.1

> <Gold.Id.Protein>
6NUR|6NUR_protein|mol2

> <Gold.PLP.Fitness>
39.8764

> <Gold.PLP.PLP>
-34.8841

> <Gold.PLP.part.hbond>
-2.4865

> <Gold.PLP.part.metal>
0.0000

> <Gold.PLP.part.buried>
-4.7257

> <Gold.PLP.part.nonpolar>
-28.1675

> <Gold.PLP.part.repulsive>
0.1932

> <Gold.PLP.ligand.clash>
0.0000

> <Gold.PLP.ligand.torsion>
0.3183

> <Gold.PLP.Chemscore.Hbond>
1.8487

> <Gold.PLP.Chemscore.CHOScore>
0.0000

> <Gold.PLP.Chemscore.Metal>
0.0000

> <Gold.Chemscore.Hbonds>
donor molecule, donor type, donor heavy atom, donor atom, acceptor molecule, acceptor atom, score
      P1  H  7989  7998       L1     7  0.69
      P1  H  7997  8009       L1    17  0.12
      P1  H 10752 10765       L1     4  1.00

> <Gold.PLP.Chemscore.Internal.Correction>
0.0826

> <Gold.Rescore>
     Score         DG    S(hbond)    S(metal)    S(lipo)     H(rot)  DE(clash)    DE(int)     intcor
     16.08     -16.70       1.50        0.00      88.31       1.61       0.28       0.34       ----

> <Gold.Chemscore.Fitness>
16.0822

> <Gold.Chemscore.DG>
-16.7035

> <Gold.Chemscore.ZeroCoef>
-5.4800

> <Gold.Chemscore.Hbond>
1.5024

> <Gold.Chemscore.Metal>
0.0000

> <Gold.Chemscore.Lipo>
88.3076

> <Gold.Chemscore.Internal_Hbond>
0.0000

> <Gold.Chemscore.DEClash>
0.2850

> <Gold.Chemscore.DEInternal>
0.3364

> <Gold.Chemscore.Rot>
1.6119

> <Gold.Chemscore.Internal.Correction>
   9.000000E+99

> <Gold.Chemscore.Hbonds>
donor molecule, donor type, donor heavy atom, donor atom, acceptor molecule, acceptor atom, score
      P1  H  7989  7998       L1     7  0.27
      P1  H 10752 10765       L1     4  0.90

> <Gold.Chemscore.Hbond.Weighted>
-5.0181

> <Gold.Chemscore.Metal.Weighted>
-0.0000

> <Gold.Chemscore.Lipo.Weighted>
-10.3320

> <Gold.Chemscore.Internal_Hbond.Weighted>
0.0000

> <Gold.Chemscore.DEClash.Weighted>
0.2850

> <Gold.Chemscore.DEInternal.Weighted>
0.3364

> <Gold.Chemscore.Rot.Weighted>
4.1266

> <Gold.Chemscore.Internal.Correction.Weighted>
   9.000000E+99

> <Gold.Protein.RotatedTorsions>
[ 6907 6896 6895 6894 ] final -127.97 input  -60.11 | X-H torsion
[ 7974 7965 7964 7962 ] final  118.08 input  175.53 | X-H torsion
[ 8008 7997 7996 7995 ] final  170.32 input   59.86 | X-H torsion
[ 10167 10162 10161 10158 ] final -149.13 input  -65.29 | X-H torsion
[ 10718 10713 10712 10709 ] final   10.20 input   66.30 | X-H torsion
[ 10763 10752 10751 10750 ] final -161.10 input  -60.55 | X-H torsion
[ 11005 11000 10999 10996 ] final -102.02 input  -57.11 | X-H torsion

> <Gold.Protein.ActiveResidues>
 VAL166  LYS551  ARG553  GLY616  TRP617  ASP618  TYR619  PRO620  LYS621  CYS622 
 ASP623  PHE694  ASN695  SER759  ASP760  ASP761  ALA762  ILE779  LEU786  VAL792 
 PHE793  MET794  SER795  GLU796  ALA797  LYS798  CYS799  TRP800  GLU811  SER814 

> <Gold.Protein.RotatedAtoms>
  150.9129  133.6975  159.2850 H   0  0  0  0  0  0  0  0  0  0  0  0  # atno 6907 bound_to 6896
  151.4456  135.1023  159.9692 H   0  0  0  0  0  0  0  0  0  0  0  0  # atno 6908 bound_to 6896
  152.4939  133.8527  159.7265 H   0  0  0  0  0  0  0  0  0  0  0  0  # atno 6909 bound_to 6896
  145.1595  139.3163  143.4524 H   0  0  0  0  0  0  0  0  0  0  0  0  # atno 7974 bound_to 7965
  156.1376  140.1541  156.8970 H   0  0  0  0  0  0  0  0  0  0  0  0  # atno 8008 bound_to 7997
  154.4960  140.0838  156.7737 H   0  0  0  0  0  0  0  0  0  0  0  0  # atno 8009 bound_to 7997
  155.4139  140.3420  155.4268 H   0  0  0  0  0  0  0  0  0  0  0  0  # atno 8010 bound_to 7997
  139.7470  143.8576  152.2577 H   0  0  0  0  0  0  0  0  0  0  0  0  # atno 10167 bound_to 10162
  156.9774  130.5992  149.5674 H   0  0  0  0  0  0  0  0  0  0  0  0  # atno 10718 bound_to 10713
  154.7333  135.3051  154.8854 H   0  0  0  0  0  0  0  0  0  0  0  0  # atno 10763 bound_to 10752
  153.9690  135.6744  153.4751 H   0  0  0  0  0  0  0  0  0  0  0  0  # atno 10764 bound_to 10752
  153.0939  135.4945  154.8663 H   0  0  0  0  0  0  0  0  0  0  0  0  # atno 10765 bound_to 10752
  141.1207  133.8524  157.1306 H   0  0  0  0  0  0  0  0  0  0  0  0  # atno 11005 bound_to 11000
  146.3484  140.1700  142.8590 LP  0  0  0  0  0  0  0  0  0  0  0  0  # atno 17320 bound_to 7965
  145.0346  140.8898  143.5089 LP  0  0  0  0  0  0  0  0  0  0  0  0  # atno 17321 bound_to 7965
  139.8543  144.7149  150.9176 LP  0  0  0  0  0  0  0  0  0  0  0  0  # atno 17342 bound_to 10162
  140.7793  143.3872  151.1373 LP  0  0  0  0  0  0  0  0  0  0  0  0  # atno 17343 bound_to 10162
  156.0258  130.5352  150.8402 LP  0  0  0  0  0  0  0  0  0  0  0  0  # atno 17370 bound_to 10713
  157.5550  131.0945  150.9642 LP  0  0  0  0  0  0  0  0  0  0  0  0  # atno 17371 bound_to 10713
  140.0162  134.9966  157.0497 LP  0  0  0  0  0  0  0  0  0  0  0  0  # atno 17394 bound_to 11000
  140.4516  134.1576  155.7182 LP  0  0  0  0  0  0  0  0  0  0  0  0  # atno 17395 bound_to 11000

$$$$
