AV-unprocessed.smi:546|AV-procd|sdf|2887|dock2
  -GOLD-   2262023383D 1   1.00000     0.00000
 Structure written by MMmdl.
 51 53  0  0  0  0  0  0  0  0  2 V2000
  153.9210  137.3209  164.6451 C   0  0  0  0  0  0  0  0  0  0  0  0
  154.1308  138.4391  163.6221 C   0  0  0  0  0  0  0  0  0  0  0  0
  154.5694  137.8594  162.4071 O   0  0  0  0  0  0  0  0  0  0  0  0
  154.6630  138.7933  161.3456 C   0  0  0  0  0  0  0  0  0  0  0  0
  153.3105  139.4890  161.1301 C   0  0  0  0  0  0  0  0  0  0  0  0
  152.8854  139.4259  159.7355 N   0  0  0  0  0  0  0  0  0  0  0  0
  152.5077  140.4613  158.9439 C   0  0  0  0  0  0  0  0  0  0  0  0
  152.4439  141.7630  159.4341 N   0  0  0  0  0  0  0  0  0  0  0  0
  151.6831  142.7964  158.7358 C   0  0  0  0  0  0  0  0  0  0  0  0
  151.0530  143.8210  159.6955 C   0  0  2  0  0  0  0  0  0  0  0  0
  150.2306  144.8683  158.9328 C   0  0  0  0  0  0  0  0  0  0  0  0
  152.1547  144.4791  160.5411 C   0  0  0  0  0  0  0  0  0  0  0  0
  153.0169  143.4189  161.2464 C   0  0  1  0  0  0  0  0  0  0  0  0
  152.3121  142.8054  162.4671 C   0  0  0  0  0  0  0  0  0  0  0  0
  153.5133  142.3597  160.2354 C   0  0  0  0  0  0  0  0  0  0  0  0
  152.1820  140.1264  157.6945 N   0  0  0  0  0  0  0  0  0  0  0  0
  152.3653  138.7514  157.6929 C   0  0  0  0  0  0  0  0  0  0  0  0
  152.7817  138.3033  158.9075 C   0  0  0  0  0  0  0  0  0  0  0  0
  153.0522  136.8802  159.2087 C   0  0  0  0  0  0  0  0  0  0  0  0
  153.4105  136.5226  160.3290 O   0  0  0  0  0  0  0  0  0  0  0  0
  152.8512  136.0751  158.1177 N   0  5  0  0  0  0  0  0  0  0  0  0
  152.4333  136.4867  156.8700 C   0  0  0  0  0  0  0  0  0  0  0  0
  152.2809  135.6872  155.9462 O   0  0  0  0  0  0  0  0  0  0  0  0
  152.1787  137.8153  156.6417 N   0  0  0  0  0  0  0  0  0  0  0  0
  151.7255  138.3321  155.3466 C   0  0  0  0  0  0  0  0  0  0  0  0
  153.5852  137.7234  165.6007 H   0  0  0  0  0  0  0  0  0  0  0  0
  154.8472  136.7724  164.8187 H   0  0  0  0  0  0  0  0  0  0  0  0
  153.1716  136.6096  164.2977 H   0  0  0  0  0  0  0  0  0  0  0  0
  153.1994  138.9845  163.4647 H   0  0  0  0  0  0  0  0  0  0  0  0
  154.8732  139.1472  163.9930 H   0  0  0  0  0  0  0  0  0  0  0  0
  155.4334  139.5339  161.5640 H   0  0  0  0  0  0  0  0  0  0  0  0
  154.9564  138.2712  160.4357 H   0  0  0  0  0  0  0  0  0  0  0  0
  152.5441  139.0478  161.7650 H   0  0  0  0  0  0  0  0  0  0  0  0
  153.3728  140.5326  161.4377 H   0  0  0  0  0  0  0  0  0  0  0  0
  152.3400  143.2973  158.0234 H   0  0  0  0  0  0  0  0  0  0  0  0
  150.8992  142.3166  158.1483 H   0  0  0  0  0  0  0  0  0  0  0  0
  150.3693  143.2912  160.3599 H   0  0  0  0  0  0  0  0  0  0  0  0
  150.8538  145.4355  158.2405 H   0  0  0  0  0  0  0  0  0  0  0  0
  149.7641  145.5764  159.6182 H   0  0  0  0  0  0  0  0  0  0  0  0
  149.4352  144.3965  158.3550 H   0  0  0  0  0  0  0  0  0  0  0  0
  152.7928  145.0818  159.8932 H   0  0  0  0  0  0  0  0  0  0  0  0
  151.7230  145.1668  161.2692 H   0  0  0  0  0  0  0  0  0  0  0  0
  153.8990  143.9286  161.6360 H   0  0  0  0  0  0  0  0  0  0  0  0
  151.4231  142.2431  162.1849 H   0  0  0  0  0  0  0  0  0  0  0  0
  152.0020  143.5799  163.1688 H   0  0  0  0  0  0  0  0  0  0  0  0
  152.9790  142.1310  163.0043 H   0  0  0  0  0  0  0  0  0  0  0  0
  154.0534  141.5703  160.7595 H   0  0  0  0  0  0  0  0  0  0  0  0
  154.2308  142.8159  159.5522 H   0  0  0  0  0  0  0  0  0  0  0  0
  151.5436  137.5650  154.5935 H   0  0  0  0  0  0  0  0  0  0  0  0
  152.4696  139.0186  154.9419 H   0  0  0  0  0  0  0  0  0  0  0  0
  150.7944  138.8852  155.4733 H   0  0  0  0  0  0  0  0  0  0  0  0
  1  2  1  0  0  0  0
  1 26  1  0  0  0  0
  1 27  1  0  0  0  0
  1 28  1  0  0  0  0
  2  3  1  0  0  0  0
  2 29  1  0  0  0  0
  2 30  1  0  0  0  0
  3  4  1  0  0  0  0
  4  5  1  0  0  0  0
  4 31  1  0  0  0  0
  4 32  1  0  0  0  0
  5  6  1  0  0  0  0
  5 33  1  0  0  0  0
  5 34  1  0  0  0  0
  6 18  1  0  0  0  0
  6  7  1  0  0  0  0
  7  8  1  0  0  0  0
  7 16  2  0  0  0  0
  8 15  1  0  0  0  0
  8  9  1  0  0  0  0
  9 10  1  0  0  0  0
  9 35  1  0  0  0  0
  9 36  1  0  0  0  0
 10 11  1  0  0  0  0
 10 12  1  0  0  0  0
 10 37  1  0  0  0  0
 11 38  1  0  0  0  0
 11 39  1  0  0  0  0
 11 40  1  0  0  0  0
 12 13  1  0  0  0  0
 12 41  1  0  0  0  0
 12 42  1  0  0  0  0
 13 14  1  0  0  0  0
 13 15  1  0  0  0  0
 13 43  1  0  0  0  0
 14 44  1  0  0  0  0
 14 45  1  0  0  0  0
 14 46  1  0  0  0  0
 15 47  1  0  0  0  0
 15 48  1  0  0  0  0
 16 17  1  0  0  0  0
 17 24  1  0  0  0  0
 17 18  2  0  0  0  0
 18 19  1  0  0  0  0
 19 20  2  0  0  0  0
 19 21  1  0  0  0  0
 21 22  1  0  0  0  0
 22 23  2  0  0  0  0
 22 24  1  0  0  0  0
 24 25  1  0  0  0  0
 25 49  1  0  0  0  0
 25 50  1  0  0  0  0
 25 51  1  0  0  0  0
M  CHG  1  21  -1
M  END
> <s_m_source_file>
AV-unprocessed.smi

> <i_m_source_file_index>
546

> <i_lp_mmshare_version>
43012

> <i_f3d_flags>
0

> <s_epik_input>
W0NIM11uMWMoPU8pW25IXWMoPU8pYyhjMTIpbihbQ0gyXVtDSDJdT1tDSDJdW0NIM10pYyhuMilOM1tDSDJdW0NAQEhdKFtDSDNdKVtDSDJdW0NAQEhdKFtDSDNdKVtDSDJdMw==

> <s_epik_cmdline>
J2VwaWtfcHl0aG9uJywgJy1waCcsICc3LjAnLCAnLXRuJywgJzgnLCAnLW1hJywgJzIwMCcsICctbWV0YWxfYmluZGluZycsICctaW1hZScsICc8aW5maWxlLm1hZT4nLCAnLW9tYWUnLCAnPG91dGZpbGUubWFlPic=

> <r_lp_tautomer_probability>
1

> <r_epik_Ionization_Penalty>
5.12825

> <r_epik_Ionization_Penalty_Charging>
0.0743105

> <r_epik_Ionization_Penalty_Neutral>
5.05394

> <r_epik_State_Penalty>
5.04406

> <r_epik_Charging_Adjusted_Penalty>
5.11837

> <i_epik_Tot_Q>
-1

> <i_epik_Tot_abs_Q>
1

> <r_epik_Metal_State_Penalty>
1.15122

> <b_epik_Metal_Only>
1

> <s_lp_Force_Field>
OPLS_2005

> <r_lp_Energy>
46.3243

> <b_lp_Chiralities_Consistent>
1

> <s_lp_Variant>
AV-unprocessed.smi:546-5

> <Gold.Version>
5.8.1

> <Gold.Id.Protein>
6NUR|6NUR_protein|mol2

> <Gold.PLP.Fitness>
47.6868

> <Gold.PLP.PLP>
-42.6796

> <Gold.PLP.part.hbond>
-2.4542

> <Gold.PLP.part.metal>
0.0000

> <Gold.PLP.part.buried>
-5.2598

> <Gold.PLP.part.nonpolar>
-36.2580

> <Gold.PLP.part.repulsive>
0.1553

> <Gold.PLP.ligand.clash>
0.0000

> <Gold.PLP.ligand.torsion>
0.8780

> <Gold.PLP.Chemscore.Hbond>
1.9280

> <Gold.PLP.Chemscore.CHOScore>
0.0000

> <Gold.PLP.Chemscore.Metal>
0.0000

> <Gold.Chemscore.Hbonds>
donor molecule, donor type, donor heavy atom, donor atom, acceptor molecule, acceptor atom, score
      P1  H  6896  6908       L1    20  0.25
      P1  H 10752 10764       L1    23  0.43

> <Gold.PLP.Chemscore.Internal.Correction>
0.9791

> <Gold.Rescore>
     Score         DG    S(hbond)    S(metal)    S(lipo)     H(rot)  DE(clash)    DE(int)     intcor
     14.89     -20.19       1.47        0.00     116.98       1.52       0.90       4.40       ----

> <Gold.Chemscore.Fitness>
14.8900

> <Gold.Chemscore.DG>
-20.1924

> <Gold.Chemscore.ZeroCoef>
-5.4800

> <Gold.Chemscore.Hbond>
1.4727

> <Gold.Chemscore.Metal>
0.0000

> <Gold.Chemscore.Lipo>
116.9756

> <Gold.Chemscore.Internal_Hbond>
0.0000

> <Gold.Chemscore.DEClash>
0.9037

> <Gold.Chemscore.DEInternal>
4.3987

> <Gold.Chemscore.Rot>
1.5206

> <Gold.Chemscore.Internal.Correction>
   9.000000E+99

> <Gold.Chemscore.Hbonds>
donor molecule, donor type, donor heavy atom, donor atom, acceptor molecule, acceptor atom, score
      P1  H 10752 10764       L1    23  0.41

> <Gold.Chemscore.Hbond.Weighted>
-4.9189

> <Gold.Chemscore.Metal.Weighted>
-0.0000

> <Gold.Chemscore.Lipo.Weighted>
-13.6861

> <Gold.Chemscore.Internal_Hbond.Weighted>
0.0000

> <Gold.Chemscore.DEClash.Weighted>
0.9037

> <Gold.Chemscore.DEInternal.Weighted>
4.3987

> <Gold.Chemscore.Rot.Weighted>
3.8926

> <Gold.Chemscore.Internal.Correction.Weighted>
   9.000000E+99

> <Gold.Protein.RotatedTorsions>
[ 6907 6896 6895 6894 ] final  -89.02 input  -60.11 | X-H torsion
[ 7974 7965 7964 7962 ] final  122.93 input  175.53 | X-H torsion
[ 8008 7997 7996 7995 ] final  110.30 input   59.86 | X-H torsion
[ 10167 10162 10161 10158 ] final   53.03 input  -65.29 | X-H torsion
[ 10718 10713 10712 10709 ] final -137.22 input   66.30 | X-H torsion
[ 10763 10752 10751 10750 ] final  -66.37 input  -60.55 | X-H torsion
[ 11005 11000 10999 10996 ] final   -3.95 input  -57.11 | X-H torsion

> <Gold.Protein.ActiveResidues>
 VAL166  LYS551  ARG553  GLY616  TRP617  ASP618  TYR619  PRO620  LYS621  CYS622 
 ASP623  PHE694  ASN695  SER759  ASP760  ASP761  ALA762  ILE779  LEU786  VAL792 
 PHE793  MET794  SER795  GLU796  ALA797  LYS798  CYS799  TRP800  GLU811  SER814 

> <Gold.Protein.RotatedAtoms>
  150.6871  134.2652  159.4565 H   0  0  0  0  0  0  0  0  0  0  0  0  # atno 6907 bound_to 6896
  152.0579  134.9610  160.0584 H   0  0  0  0  0  0  0  0  0  0  0  0  # atno 6908 bound_to 6896
  152.1049  133.4235  159.4641 H   0  0  0  0  0  0  0  0  0  0  0  0  # atno 6909 bound_to 6896
  145.1018  139.3513  143.4808 H   0  0  0  0  0  0  0  0  0  0  0  0  # atno 7974 bound_to 7965
  156.2043  140.3041  155.9593 H   0  0  0  0  0  0  0  0  0  0  0  0  # atno 8008 bound_to 7997
  155.2879  140.0440  157.3038 H   0  0  0  0  0  0  0  0  0  0  0  0  # atno 8009 bound_to 7997
  154.5612  140.2321  155.8342 H   0  0  0  0  0  0  0  0  0  0  0  0  # atno 8010 bound_to 7997
  140.2451  144.3541  150.6367 H   0  0  0  0  0  0  0  0  0  0  0  0  # atno 10167 bound_to 10162
  156.2857  130.7346  151.1357 H   0  0  0  0  0  0  0  0  0  0  0  0  # atno 10718 bound_to 10713
  154.3588  135.6120  153.5680 H   0  0  0  0  0  0  0  0  0  0  0  0  # atno 10763 bound_to 10752
  152.9794  135.5810  154.4657 H   0  0  0  0  0  0  0  0  0  0  0  0  # atno 10764 bound_to 10752
  154.4391  135.2849  155.1837 H   0  0  0  0  0  0  0  0  0  0  0  0  # atno 10765 bound_to 10752
  140.6750  133.9203  155.8518 H   0  0  0  0  0  0  0  0  0  0  0  0  # atno 11005 bound_to 11000
  146.3529  140.0899  142.8613 LP  0  0  0  0  0  0  0  0  0  0  0  0  # atno 17320 bound_to 7965
  145.0946  140.9307  143.4748 LP  0  0  0  0  0  0  0  0  0  0  0  0  # atno 17321 bound_to 7965
  140.6084  143.2168  151.6935 LP  0  0  0  0  0  0  0  0  0  0  0  0  # atno 17342 bound_to 10162
  139.5064  144.3681  152.0497 LP  0  0  0  0  0  0  0  0  0  0  0  0  # atno 17343 bound_to 10162
  157.7328  131.0597  150.5611 LP  0  0  0  0  0  0  0  0  0  0  0  0  # atno 17370 bound_to 10713
  156.5722  130.4283  149.6014 LP  0  0  0  0  0  0  0  0  0  0  0  0  # atno 17371 bound_to 10713
  141.0363  134.0685  157.3956 LP  0  0  0  0  0  0  0  0  0  0  0  0  # atno 17394 bound_to 11000
  139.8969  135.0148  156.7077 LP  0  0  0  0  0  0  0  0  0  0  0  0  # atno 17395 bound_to 11000

$$$$
