AV-unprocessed.smi:905|AV-procd|sdf|4099|dock3
  -GOLD-   22720 1593D 1   1.00000     0.00000
 Structure written by MMmdl.
 37 38  0  0  0  0  0  0  0  0  1 V2000
  146.2015  137.2914  150.7955 N   0  0  0  0  0  0  0  0  0  0  0  0
  146.2862  137.9937  152.0087 C   0  0  0  0  0  0  0  0  0  0  0  0
  145.8826  137.4811  153.1632 N   0  0  0  0  0  0  0  0  0  0  0  0
  146.1544  138.5045  154.0826 O   0  0  0  0  0  0  0  0  0  0  0  0
  146.6764  139.5231  153.3575 C   0  0  0  0  0  0  0  0  0  0  0  0
  147.1168  140.7596  154.0664 C   0  0  0  0  0  0  0  0  0  0  0  0
  148.6159  141.0428  153.8746 C   0  0  0  0  0  0  0  0  0  0  0  0
  149.1288  141.9510  154.8942 N   0  0  0  0  0  0  0  0  0  0  0  0
  150.2502  141.7508  155.6006 C   0  0  0  0  0  0  0  0  0  0  0  0
  150.9790  140.7672  155.4701 O   0  0  0  0  0  0  0  0  0  0  0  0
  150.4795  142.7465  156.4684 N   0  0  0  0  0  0  0  0  0  0  0  0
  151.6149  142.8161  157.3838 C   0  0  0  0  0  0  0  0  0  0  0  0
  151.5373  141.6885  158.4345 C   0  0  0  0  0  0  0  0  0  0  0  0
  152.6860  141.7879  159.4513 C   0  0  0  0  0  0  0  0  0  0  0  0
  152.7191  143.1691  160.1243 C   0  0  0  0  0  0  0  0  0  0  0  0
  152.8002  144.2938  159.0799 C   0  0  0  0  0  0  0  0  0  0  0  0
  151.6484  144.1968  158.0664 C   0  0  0  0  0  0  0  0  0  0  0  0
  146.7987  139.2525  152.0601 N   0  0  0  0  0  0  0  0  0  0  0  0
  146.5229  137.7157  149.9373 H   0  0  0  0  0  0  0  0  0  0  0  0
  145.8309  136.3526  150.7736 H   0  0  0  0  0  0  0  0  0  0  0  0
  146.5254  141.6004  153.7010 H   0  0  0  0  0  0  0  0  0  0  0  0
  146.8807  140.6490  155.1254 H   0  0  0  0  0  0  0  0  0  0  0  0
  149.1853  140.1117  153.8871 H   0  0  0  0  0  0  0  0  0  0  0  0
  148.7855  141.4976  152.8979 H   0  0  0  0  0  0  0  0  0  0  0  0
  148.5956  142.7900  155.0701 H   0  0  0  0  0  0  0  0  0  0  0  0
  149.8219  143.5117  156.5009 H   0  0  0  0  0  0  0  0  0  0  0  0
  152.5380  142.7008  156.8123 H   0  0  0  0  0  0  0  0  0  0  0  0
  150.5833  141.7389  158.9612 H   0  0  0  0  0  0  0  0  0  0  0  0
  151.5684  140.7140  157.9457 H   0  0  0  0  0  0  0  0  0  0  0  0
  152.5815  141.0086  160.2068 H   0  0  0  0  0  0  0  0  0  0  0  0
  153.6356  141.6043  158.9471 H   0  0  0  0  0  0  0  0  0  0  0  0
  151.8242  143.3002  160.7339 H   0  0  0  0  0  0  0  0  0  0  0  0
  153.5687  143.2311  160.8050 H   0  0  0  0  0  0  0  0  0  0  0  0
  152.7781  145.2644  159.5760 H   0  0  0  0  0  0  0  0  0  0  0  0
  153.7544  144.2367  158.5542 H   0  0  0  0  0  0  0  0  0  0  0  0
  151.7534  144.9825  157.3170 H   0  0  0  0  0  0  0  0  0  0  0  0
  150.7023  144.3817  158.5775 H   0  0  0  0  0  0  0  0  0  0  0  0
  1  2  1  0  0  0  0
  1 19  1  0  0  0  0
  1 20  1  0  0  0  0
  2 18  1  0  0  0  0
  2  3  2  0  0  0  0
  3  4  1  0  0  0  0
  4  5  1  0  0  0  0
  5  6  1  0  0  0  0
  5 18  2  0  0  0  0
  6  7  1  0  0  0  0
  6 21  1  0  0  0  0
  6 22  1  0  0  0  0
  7  8  1  0  0  0  0
  7 23  1  0  0  0  0
  7 24  1  0  0  0  0
  8  9  1  0  0  0  0
  8 25  1  0  0  0  0
  9 10  2  0  0  0  0
  9 11  1  0  0  0  0
 11 12  1  0  0  0  0
 11 26  1  0  0  0  0
 12 17  1  0  0  0  0
 12 13  1  0  0  0  0
 12 27  1  0  0  0  0
 13 14  1  0  0  0  0
 13 28  1  0  0  0  0
 13 29  1  0  0  0  0
 14 15  1  0  0  0  0
 14 30  1  0  0  0  0
 14 31  1  0  0  0  0
 15 16  1  0  0  0  0
 15 32  1  0  0  0  0
 15 33  1  0  0  0  0
 16 17  1  0  0  0  0
 16 34  1  0  0  0  0
 16 35  1  0  0  0  0
 17 36  1  0  0  0  0
 17 37  1  0  0  0  0
M  END
> <s_m_source_file>
AV-unprocessed.smi

> <i_m_source_file_index>
905

> <i_lp_mmshare_version>
43012

> <i_f3d_flags>
0

> <s_epik_input>
W05IMl1jMW5vYyhuMSlbQ0gyXVtDSDJdW05IXUMoPU8pW05IXVtDSF0yW0NIMl1bQ0gyXVtDSDJdW0NIMl1bQ0gyXTI=

> <s_epik_cmdline>
J2VwaWtfcHl0aG9uJywgJy1waCcsICc3LjAnLCAnLXRuJywgJzgnLCAnLW1hJywgJzIwMCcsICctbWV0YWxfYmluZGluZycsICctaW1hZScsICc8aW5maWxlLm1hZT4nLCAnLW9tYWUnLCAnPG91dGZpbGUubWFlPic=

> <r_lp_tautomer_probability>
1

> <r_epik_Ionization_Penalty>
0.000203748

> <r_epik_Ionization_Penalty_Charging>
0

> <r_epik_Ionization_Penalty_Neutral>
0.000203748

> <r_epik_State_Penalty>
-0

> <r_epik_Charging_Adjusted_Penalty>
0

> <i_epik_Tot_Q>
0

> <i_epik_Tot_abs_Q>
0

> <r_epik_Metal_State_Penalty>
-0

> <b_epik_Metal_Only>
0

> <s_lp_Force_Field>
OPLS_2005

> <r_lp_Energy>
0.830847

> <b_lp_Chiralities_Consistent>
1

> <s_lp_Variant>
AV-unprocessed.smi:905-1

> <Gold.Version>
5.8.1

> <Gold.Id.Protein>
6NUR|6NUR_protein|mol2

> <Gold.PLP.Fitness>
43.4564

> <Gold.PLP.PLP>
-36.2085

> <Gold.PLP.part.hbond>
-4.7912

> <Gold.PLP.part.metal>
0.0000

> <Gold.PLP.part.buried>
-3.7942

> <Gold.PLP.part.nonpolar>
-27.9259

> <Gold.PLP.part.repulsive>
1.8059

> <Gold.PLP.ligand.clash>
0.0000

> <Gold.PLP.ligand.torsion>
0.2100

> <Gold.PLP.Chemscore.Hbond>
2.5506

> <Gold.PLP.Chemscore.CHOScore>
0.0000

> <Gold.PLP.Chemscore.Metal>
0.0000

> <Gold.Chemscore.Hbonds>
donor molecule, donor type, donor heavy atom, donor atom, acceptor molecule, acceptor atom, score
      L1  H     8    25       P1  8028  0.82
      L1  H    11    26       P1  8028  0.99
      P1  H  7989  7998       L1    10  0.73

> <Gold.PLP.Chemscore.Internal.Correction>
0.0163

> <Gold.Rescore>
     Score         DG    S(hbond)    S(metal)    S(lipo)     H(rot)  DE(clash)    DE(int)     intcor
     15.07     -16.00       2.13        0.00      81.33       2.39       0.72       0.21       ----

> <Gold.Chemscore.Fitness>
15.0665

> <Gold.Chemscore.DG>
-15.9956

> <Gold.Chemscore.ZeroCoef>
-5.4800

> <Gold.Chemscore.Hbond>
2.1287

> <Gold.Chemscore.Metal>
0.0000

> <Gold.Chemscore.Lipo>
81.3260

> <Gold.Chemscore.Internal_Hbond>
0.0000

> <Gold.Chemscore.DEClash>
0.7165

> <Gold.Chemscore.DEInternal>
0.2126

> <Gold.Chemscore.Rot>
2.3865

> <Gold.Chemscore.Internal.Correction>
   9.000000E+99

> <Gold.Chemscore.Hbonds>
donor molecule, donor type, donor heavy atom, donor atom, acceptor molecule, acceptor atom, score
      L1  H     8    25       P1  8028  0.77
      L1  H    11    26       P1  8028  0.94
      P1  H  7989  7998       L1    10  0.31

> <Gold.Chemscore.Hbond.Weighted>
-7.1098

> <Gold.Chemscore.Metal.Weighted>
-0.0000

> <Gold.Chemscore.Lipo.Weighted>
-9.5151

> <Gold.Chemscore.Internal_Hbond.Weighted>
0.0000

> <Gold.Chemscore.DEClash.Weighted>
0.7165

> <Gold.Chemscore.DEInternal.Weighted>
0.2126

> <Gold.Chemscore.Rot.Weighted>
6.1093

> <Gold.Chemscore.Internal.Correction.Weighted>
   9.000000E+99

> <Gold.Protein.RotatedTorsions>
[ 6907 6896 6895 6894 ] final -113.05 input  -60.11 | X-H torsion
[ 7974 7965 7964 7962 ] final  171.95 input  175.53 | X-H torsion
[ 8008 7997 7996 7995 ] final -133.56 input   59.86 | X-H torsion
[ 10167 10162 10161 10158 ] final  -32.02 input  -65.29 | X-H torsion
[ 10718 10713 10712 10709 ] final   22.93 input   66.30 | X-H torsion
[ 10763 10752 10751 10750 ] final   48.48 input  -60.55 | X-H torsion
[ 11005 11000 10999 10996 ] final   70.03 input  -57.11 | X-H torsion

> <Gold.Protein.ActiveResidues>
 VAL166  LYS551  ARG553  GLY616  TRP617  ASP618  TYR619  PRO620  LYS621  CYS622 
 ASP623  PHE694  ASN695  SER759  ASP760  ASP761  ALA762  ILE779  LEU786  VAL792 
 PHE793  MET794  SER795  GLU796  ALA797  LYS798  CYS799  TRP800  GLU811  SER814 

> <Gold.Protein.RotatedAtoms>
  150.7801  133.9001  159.3338 H   0  0  0  0  0  0  0  0  0  0  0  0  # atno 6907 bound_to 6896
  151.6865  135.0951  160.0235 H   0  0  0  0  0  0  0  0  0  0  0  0  # atno 6908 bound_to 6896
  152.3850  133.6560  159.6227 H   0  0  0  0  0  0  0  0  0  0  0  0  # atno 6909 bound_to 6896
  144.7281  139.9426  143.6429 H   0  0  0  0  0  0  0  0  0  0  0  0  # atno 7974 bound_to 7965
  155.3476  140.0475  157.3046 H   0  0  0  0  0  0  0  0  0  0  0  0  # atno 8008 bound_to 7997
  154.5244  140.2236  155.8881 H   0  0  0  0  0  0  0  0  0  0  0  0  # atno 8009 bound_to 7997
  156.1724  140.3093  155.9003 H   0  0  0  0  0  0  0  0  0  0  0  0  # atno 8010 bound_to 7997
  140.7228  143.3727  151.1749 H   0  0  0  0  0  0  0  0  0  0  0  0  # atno 10167 bound_to 10162
  157.1591  130.6709  149.6038 H   0  0  0  0  0  0  0  0  0  0  0  0  # atno 10718 bound_to 10713
  152.9792  135.5943  154.3933 H   0  0  0  0  0  0  0  0  0  0  0  0  # atno 10763 bound_to 10752
  154.3586  135.2767  155.2334 H   0  0  0  0  0  0  0  0  0  0  0  0  # atno 10764 bound_to 10752
  154.4342  135.6029  153.6143 H   0  0  0  0  0  0  0  0  0  0  0  0  # atno 10765 bound_to 10752
  139.9620  134.7044  156.0625 H   0  0  0  0  0  0  0  0  0  0  0  0  # atno 11005 bound_to 11000
  146.0773  139.3761  143.0486 LP  0  0  0  0  0  0  0  0  0  0  0  0  # atno 17320 bound_to 7965
  145.7888  140.9823  143.1060 LP  0  0  0  0  0  0  0  0  0  0  0  0  # atno 17321 bound_to 7965
  139.7301  143.9086  152.3016 LP  0  0  0  0  0  0  0  0  0  0  0  0  # atno 17342 bound_to 10162
  139.8872  144.6985  150.8810 LP  0  0  0  0  0  0  0  0  0  0  0  0  # atno 17343 bound_to 10162
  155.9757  130.4718  150.6477 LP  0  0  0  0  0  0  0  0  0  0  0  0  # atno 17370 bound_to 10713
  157.4149  131.0829  151.1186 LP  0  0  0  0  0  0  0  0  0  0  0  0  # atno 17371 bound_to 10713
  141.1298  133.6589  156.3434 LP  0  0  0  0  0  0  0  0  0  0  0  0  # atno 17394 bound_to 11000
  140.5478  134.6057  157.5399 LP  0  0  0  0  0  0  0  0  0  0  0  0  # atno 17395 bound_to 11000

$$$$
