AV-unprocessed.smi:1417|AV-procd|sdf|5765|dock10
  -GOLD-   22720 5403D 1   1.00000     0.00000
 Structure written by MMmdl.
 39 40  0  0  0  0  0  0  0  0  1 V2000
  153.6155  141.8184  160.9154 C   0  0  0  0  0  0  0  0  0  0  0  0
  152.6154  142.3954  159.9730 C   0  0  0  0  0  0  0  0  0  0  0  0
  151.7276  141.8334  159.0995 C   0  0  0  0  0  0  0  0  0  0  0  0
  151.0878  142.9679  158.5199 C   0  0  0  0  0  0  0  0  0  0  0  0
  150.0723  142.9466  157.5291 N   0  0  0  0  0  0  0  0  0  0  0  0
  149.5273  141.8837  156.9137 C   0  0  0  0  0  0  0  0  0  0  0  0
  149.8116  140.7069  157.1359 O   0  0  0  0  0  0  0  0  0  0  0  0
  148.6145  142.2651  156.0083 N   0  0  0  0  0  0  0  0  0  0  0  0
  147.8412  141.3642  155.1588 C   0  0  0  0  0  0  0  0  0  0  0  0
  146.8990  140.4873  156.0009 C   0  0  0  0  0  0  0  0  0  0  0  0
  146.1923  139.4298  155.1350 C   0  0  0  0  0  0  0  0  0  0  0  0
  147.1787  138.5848  154.4462 N   0  0  0  0  0  0  0  0  0  0  0  0
  146.5439  137.5006  153.6615 C   0  0  0  0  0  0  0  0  0  0  0  0
  146.0152  137.9286  152.2872 C   0  0  0  0  0  0  0  0  0  0  0  0
  144.6896  137.9478  152.1244 N   0  0  0  0  0  0  0  0  0  0  0  0
  146.7934  138.2286  151.3847 O   0  0  0  0  0  0  0  0  0  0  0  0
  148.0102  139.4034  153.5579 C   0  0  0  0  0  0  0  0  0  0  0  0
  148.7907  140.4553  154.3652 C   0  0  0  0  0  0  0  0  0  0  0  0
  151.5475  144.1096  158.9977 N   0  0  0  0  0  0  0  0  0  0  0  0
  152.5260  143.7518  159.9325 O   0  0  0  0  0  0  0  0  0  0  0  0
  153.7611  140.7547  160.7263 H   0  0  0  0  0  0  0  0  0  0  0  0
  153.2861  141.9368  161.9477 H   0  0  0  0  0  0  0  0  0  0  0  0
  154.5801  142.3150  160.8083 H   0  0  0  0  0  0  0  0  0  0  0  0
  151.5763  140.7804  158.9159 H   0  0  0  0  0  0  0  0  0  0  0  0
  149.7226  143.8520  157.2525 H   0  0  0  0  0  0  0  0  0  0  0  0
  148.4435  143.2534  155.8935 H   0  0  0  0  0  0  0  0  0  0  0  0
  147.2513  141.9510  154.4517 H   0  0  0  0  0  0  0  0  0  0  0  0
  147.4619  139.9885  156.7918 H   0  0  0  0  0  0  0  0  0  0  0  0
  146.1525  141.1073  156.4984 H   0  0  0  0  0  0  0  0  0  0  0  0
  145.5544  138.8336  155.7872 H   0  0  0  0  0  0  0  0  0  0  0  0
  145.5359  139.9120  154.4085 H   0  0  0  0  0  0  0  0  0  0  0  0
  147.2501  136.6781  153.5316 H   0  0  0  0  0  0  0  0  0  0  0  0
  145.6974  137.0963  154.2183 H   0  0  0  0  0  0  0  0  0  0  0  0
  144.2981  138.2157  151.2332 H   0  0  0  0  0  0  0  0  0  0  0  0
  144.0851  137.6870  152.8898 H   0  0  0  0  0  0  0  0  0  0  0  0
  148.7228  138.7682  153.0297 H   0  0  0  0  0  0  0  0  0  0  0  0
  147.3944  139.8885  152.7983 H   0  0  0  0  0  0  0  0  0  0  0  0
  149.4054  141.0546  153.6926 H   0  0  0  0  0  0  0  0  0  0  0  0
  149.4789  139.9497  155.0446 H   0  0  0  0  0  0  0  0  0  0  0  0
  1  2  1  0  0  0  0
  1 21  1  0  0  0  0
  1 22  1  0  0  0  0
  1 23  1  0  0  0  0
  2 20  1  0  0  0  0
  2  3  2  0  0  0  0
  3  4  1  0  0  0  0
  3 24  1  0  0  0  0
  4  5  1  0  0  0  0
  4 19  2  0  0  0  0
  5  6  1  0  0  0  0
  5 25  1  0  0  0  0
  6  7  2  0  0  0  0
  6  8  1  0  0  0  0
  8  9  1  0  0  0  0
  8 26  1  0  0  0  0
  9 18  1  0  0  0  0
  9 10  1  0  0  0  0
  9 27  1  0  0  0  0
 10 11  1  0  0  0  0
 10 28  1  0  0  0  0
 10 29  1  0  0  0  0
 11 12  1  0  0  0  0
 11 30  1  0  0  0  0
 11 31  1  0  0  0  0
 12 13  1  0  0  0  0
 12 17  1  0  0  0  0
 13 14  1  0  0  0  0
 13 32  1  0  0  0  0
 13 33  1  0  0  0  0
 14 15  1  0  0  0  0
 14 16  2  0  0  0  0
 15 34  1  0  0  0  0
 15 35  1  0  0  0  0
 17 18  1  0  0  0  0
 17 36  1  0  0  0  0
 17 37  1  0  0  0  0
 18 38  1  0  0  0  0
 18 39  1  0  0  0  0
 19 20  1  0  0  0  0
M  END
> <s_m_source_file>
AV-unprocessed.smi

> <i_m_source_file_index>
1417

> <i_lp_mmshare_version>
43012

> <i_f3d_flags>
0

> <s_epik_input>
W0NIM11jMVtjSF1jKG5vMSlbTkhdQyg9TylbTkhdW0NIXTJbQ0gyXVtDSDJdTihbQ0gyXVtDSDJdMilbQ0gyXUMoPU8pW05IMl0=

> <s_epik_cmdline>
J2VwaWtfcHl0aG9uJywgJy1waCcsICc3LjAnLCAnLXRuJywgJzgnLCAnLW1hJywgJzIwMCcsICctbWV0YWxfYmluZGluZycsICctaW1hZScsICc8aW5maWxlLm1hZT4nLCAnLW9tYWUnLCAnPG91dGZpbGUubWFlPic=

> <r_epik_Ionization_Penalty>
0.155825

> <r_epik_Ionization_Penalty_Charging>
0

> <r_epik_Ionization_Penalty_Neutral>
0.155825

> <r_epik_State_Penalty>
0.145092

> <r_epik_Charging_Adjusted_Penalty>
0.145092

> <i_epik_Tot_Q>
0

> <i_epik_Tot_abs_Q>
0

> <r_epik_Metal_State_Penalty>
0.171119

> <b_epik_Metal_Only>
0

> <s_lp_Force_Field>
OPLS_2005

> <r_lp_Energy>
11.4398

> <b_lp_Chiralities_Consistent>
1

> <s_lp_Variant>
AV-unprocessed.smi:1417-1

> <Gold.Version>
5.8.1

> <Gold.Id.Protein>
6NUR|6NUR_protein|mol2

> <Gold.PLP.Fitness>
38.7086

> <Gold.PLP.PLP>
-27.8596

> <Gold.PLP.part.hbond>
-4.8454

> <Gold.PLP.part.metal>
0.0000

> <Gold.PLP.part.buried>
-4.3386

> <Gold.PLP.part.nonpolar>
-21.9806

> <Gold.PLP.part.repulsive>
1.8662

> <Gold.PLP.ligand.clash>
0.0000

> <Gold.PLP.ligand.torsion>
0.2877

> <Gold.PLP.Chemscore.Hbond>
3.8073

> <Gold.PLP.Chemscore.CHOScore>
0.0000

> <Gold.PLP.Chemscore.Metal>
0.0000

> <Gold.Chemscore.Hbonds>
donor molecule, donor type, donor heavy atom, donor atom, acceptor molecule, acceptor atom, score
      L1  H     5    25       P1  8028  0.80
      L1  H     8    26       P1  8028  1.00
      L1  H    15    34       P1 10171  0.99
      P1  H  7954  7966       L1    16  0.94

> <Gold.PLP.Chemscore.Internal.Correction>
0.0026

> <Gold.Rescore>
     Score         DG    S(hbond)    S(metal)    S(lipo)     H(rot)  DE(clash)    DE(int)     intcor
     13.05     -17.48       3.32        0.00      52.10       2.02       0.47       3.95       ----

> <Gold.Chemscore.Fitness>
13.0543

> <Gold.Chemscore.DG>
-17.4754

> <Gold.Chemscore.ZeroCoef>
-5.4800

> <Gold.Chemscore.Hbond>
3.3160

> <Gold.Chemscore.Metal>
0.0000

> <Gold.Chemscore.Lipo>
52.0975

> <Gold.Chemscore.Internal_Hbond>
0.0000

> <Gold.Chemscore.DEClash>
0.4745

> <Gold.Chemscore.DEInternal>
3.9467

> <Gold.Chemscore.Rot>
2.0217

> <Gold.Chemscore.Internal.Correction>
   9.000000E+99

> <Gold.Chemscore.Hbonds>
donor molecule, donor type, donor heavy atom, donor atom, acceptor molecule, acceptor atom, score
      L1  H     5    25       P1  8028  0.58
      L1  H     8    26       P1  8028  0.87
      L1  H    15    34       P1 10171  0.92
      P1  H  7954  7966       L1    16  0.90

> <Gold.Chemscore.Hbond.Weighted>
-11.0756

> <Gold.Chemscore.Metal.Weighted>
-0.0000

> <Gold.Chemscore.Lipo.Weighted>
-6.0954

> <Gold.Chemscore.Internal_Hbond.Weighted>
0.0000

> <Gold.Chemscore.DEClash.Weighted>
0.4745

> <Gold.Chemscore.DEInternal.Weighted>
3.9467

> <Gold.Chemscore.Rot.Weighted>
5.1755

> <Gold.Chemscore.Internal.Correction.Weighted>
   9.000000E+99

> <Gold.Protein.RotatedTorsions>
[ 6907 6896 6895 6894 ] final  139.30 input  -60.11 | X-H torsion
[ 7974 7965 7964 7962 ] final   62.73 input  175.53 | X-H torsion
[ 8008 7997 7996 7995 ] final -177.66 input   59.86 | X-H torsion
[ 10167 10162 10161 10158 ] final  -77.13 input  -65.29 | X-H torsion
[ 10718 10713 10712 10709 ] final    6.63 input   66.30 | X-H torsion
[ 10763 10752 10751 10750 ] final -167.74 input  -60.55 | X-H torsion
[ 11005 11000 10999 10996 ] final  152.82 input  -57.11 | X-H torsion

> <Gold.Protein.ActiveResidues>
 VAL166  LYS551  ARG553  GLY616  TRP617  ASP618  TYR619  PRO620  LYS621  CYS622 
 ASP623  PHE694  ASN695  SER759  ASP760  ASP761  ALA762  ILE779  LEU786  VAL792 
 PHE793  MET794  SER795  GLU796  ALA797  LYS798  CYS799  TRP800  GLU811  SER814 

> <Gold.Protein.RotatedAtoms>
  152.2566  133.5260  159.5356 H   0  0  0  0  0  0  0  0  0  0  0  0  # atno 6907 bound_to 6896
  150.7111  134.0888  159.3933 H   0  0  0  0  0  0  0  0  0  0  0  0  # atno 6908 bound_to 6896
  151.8806  135.0455  160.0539 H   0  0  0  0  0  0  0  0  0  0  0  0  # atno 6909 bound_to 6896
  145.8700  139.3371  143.0768 H   0  0  0  0  0  0  0  0  0  0  0  0  # atno 7974 bound_to 7965
  156.0096  140.1238  157.0467 H   0  0  0  0  0  0  0  0  0  0  0  0  # atno 8008 bound_to 7997
  154.4271  140.1090  156.5880 H   0  0  0  0  0  0  0  0  0  0  0  0  # atno 8009 bound_to 7997
  155.6099  140.3471  155.4621 H   0  0  0  0  0  0  0  0  0  0  0  0  # atno 8010 bound_to 7997
  140.4797  143.2405  151.8077 H   0  0  0  0  0  0  0  0  0  0  0  0  # atno 10167 bound_to 10162
  156.9250  130.5805  149.5648 H   0  0  0  0  0  0  0  0  0  0  0  0  # atno 10718 bound_to 10713
  154.6701  135.2938  154.9753 H   0  0  0  0  0  0  0  0  0  0  0  0  # atno 10763 bound_to 10752
  154.0783  135.6608  153.4838 H   0  0  0  0  0  0  0  0  0  0  0  0  # atno 10764 bound_to 10752
  153.0481  135.5191  154.7693 H   0  0  0  0  0  0  0  0  0  0  0  0  # atno 10765 bound_to 10752
  140.1342  134.8782  157.2245 H   0  0  0  0  0  0  0  0  0  0  0  0  # atno 11005 bound_to 11000
  145.9148  140.9156  143.0435 LP  0  0  0  0  0  0  0  0  0  0  0  0  # atno 17320 bound_to 7965
  144.6726  140.1209  143.7450 LP  0  0  0  0  0  0  0  0  0  0  0  0  # atno 17321 bound_to 7965
  139.4831  144.4788  151.9333 LP  0  0  0  0  0  0  0  0  0  0  0  0  # atno 17342 bound_to 10162
  140.3873  144.2660  150.5903 LP  0  0  0  0  0  0  0  0  0  0  0  0  # atno 17343 bound_to 10162
  156.0473  130.5548  150.8911 LP  0  0  0  0  0  0  0  0  0  0  0  0  # atno 17370 bound_to 10713
  157.5884  131.0945  150.9159 LP  0  0  0  0  0  0  0  0  0  0  0  0  # atno 17371 bound_to 10713
  140.2803  134.3357  155.7345 LP  0  0  0  0  0  0  0  0  0  0  0  0  # atno 17394 bound_to 11000
  141.2175  133.7474  156.9354 LP  0  0  0  0  0  0  0  0  0  0  0  0  # atno 17395 bound_to 11000

$$$$
