AV-unprocessed.smi:399|AV-procd|sdf|2490|dock9
  -GOLD-   2262022433D 1   1.00000     0.00000
 Structure written by MMmdl.
 46 47  0  0  0  0  0  0  0  0  3 V2000
  143.5781  136.2068  152.2997 C   0  0  0  0  0  0  0  0  0  0  0  0
  144.9408  135.5356  151.9889 C   0  0  0  0  0  0  0  0  0  0  0  0
  145.4065  136.1565  150.6462 C   0  0  0  0  0  0  0  0  0  0  0  0
  145.9605  135.9204  153.1031 C   0  0  0  0  0  0  0  0  0  0  0  0
  146.4755  137.2790  152.9607 N   0  0  0  0  0  0  0  0  0  0  0  0
  146.8820  138.0486  153.9797 C   0  0  0  0  0  0  0  0  0  0  0  0
  146.8638  137.6745  155.1534 O   0  0  0  0  0  0  0  0  0  0  0  0
  147.4007  139.4435  153.6016 C   0  0  0  0  0  0  0  0  0  0  0  0
  148.7281  139.7460  154.1637 N   0  0  0  0  0  0  0  0  0  0  0  0
  149.7244  138.7609  154.0167 C   0  0  0  0  0  0  0  0  0  0  0  0
  150.9718  138.9265  154.4986 C   0  0  0  0  0  0  0  0  0  0  0  0
  151.9805  137.9011  154.3449 N   0  3  0  0  0  0  0  0  0  0  0  0
  153.1621  138.2298  154.3695 O   0  0  0  0  0  0  0  0  0  0  0  0
  151.6265  136.7355  154.1939 O   0  5  0  0  0  0  0  0  0  0  0  0
  151.2702  140.1692  155.1836 C   0  0  0  0  0  0  0  0  0  0  0  0
  150.3204  141.1135  155.3317 C   0  0  0  0  0  0  0  0  0  0  0  0
  148.9618  140.9284  154.8115 C   0  0  0  0  0  0  0  0  0  0  0  0
  148.0873  141.7840  154.9500 O   0  0  0  0  0  0  0  0  0  0  0  0
  144.7710  134.0632  151.8467 N   0  0  0  0  0  0  0  0  0  0  0  0
  143.8573  133.6440  150.7765 C   0  0  0  0  0  0  0  0  0  0  0  0
  143.6307  132.1225  150.7713 C   0  0  0  0  0  0  0  0  0  0  0  0
  144.8797  131.4527  150.6512 O   0  0  0  0  0  0  0  0  0  0  0  0
  145.7762  131.7844  151.7045 C   0  0  0  0  0  0  0  0  0  0  0  0
  146.0206  133.3032  151.7185 C   0  0  0  0  0  0  0  0  0  0  0  0
  143.6238  137.2927  152.2111 H   0  0  0  0  0  0  0  0  0  0  0  0
  143.2385  135.9994  153.3144 H   0  0  0  0  0  0  0  0  0  0  0  0
  142.8032  135.8650  151.6123 H   0  0  0  0  0  0  0  0  0  0  0  0
  145.3491  137.2454  150.6542 H   0  0  0  0  0  0  0  0  0  0  0  0
  144.7884  135.8121  149.8161 H   0  0  0  0  0  0  0  0  0  0  0  0
  146.4426  135.9099  150.4147 H   0  0  0  0  0  0  0  0  0  0  0  0
  145.5035  135.8460  154.0901 H   0  0  0  0  0  0  0  0  0  0  0  0
  146.8080  135.2344  153.0971 H   0  0  0  0  0  0  0  0  0  0  0  0
  146.5218  137.6563  152.0252 H   0  0  0  0  0  0  0  0  0  0  0  0
  147.4237  139.5142  152.5131 H   0  0  0  0  0  0  0  0  0  0  0  0
  146.6746  140.1940  153.9196 H   0  0  0  0  0  0  0  0  0  0  0  0
  149.3998  137.8697  153.4990 H   0  0  0  0  0  0  0  0  0  0  0  0
  152.2568  140.3519  155.5833 H   0  0  0  0  0  0  0  0  0  0  0  0
  150.5645  142.0315  155.8460 H   0  0  0  0  0  0  0  0  0  0  0  0
  142.8858  134.1232  150.8829 H   0  0  0  0  0  0  0  0  0  0  0  0
  144.2522  133.9394  149.8045 H   0  0  0  0  0  0  0  0  0  0  0  0
  143.1240  131.8039  151.6837 H   0  0  0  0  0  0  0  0  0  0  0  0
  142.9928  131.8377  149.9344 H   0  0  0  0  0  0  0  0  0  0  0  0
  145.3679  131.4495  152.6594 H   0  0  0  0  0  0  0  0  0  0  0  0
  146.7149  131.2516  151.5531 H   0  0  0  0  0  0  0  0  0  0  0  0
  146.5397  133.5802  150.8011 H   0  0  0  0  0  0  0  0  0  0  0  0
  146.6966  133.5217  152.5431 H   0  0  0  0  0  0  0  0  0  0  0  0
  1  2  1  0  0  0  0
  1 25  1  0  0  0  0
  1 26  1  0  0  0  0
  1 27  1  0  0  0  0
  2  3  1  0  0  0  0
  2  4  1  0  0  0  0
  2 19  1  0  0  0  0
  3 28  1  0  0  0  0
  3 29  1  0  0  0  0
  3 30  1  0  0  0  0
  4  5  1  0  0  0  0
  4 31  1  0  0  0  0
  4 32  1  0  0  0  0
  5  6  1  0  0  0  0
  5 33  1  0  0  0  0
  6  7  2  0  0  0  0
  6  8  1  0  0  0  0
  8  9  1  0  0  0  0
  8 34  1  0  0  0  0
  8 35  1  0  0  0  0
  9 17  1  0  0  0  0
  9 10  1  0  0  0  0
 10 11  2  0  0  0  0
 10 36  1  0  0  0  0
 11 12  1  0  0  0  0
 11 15  1  0  0  0  0
 12 13  2  0  0  0  0
 12 14  1  0  0  0  0
 15 16  2  0  0  0  0
 15 37  1  0  0  0  0
 16 17  1  0  0  0  0
 16 38  1  0  0  0  0
 17 18  2  0  0  0  0
 19 24  1  0  0  0  0
 19 20  1  0  0  0  0
 20 21  1  0  0  0  0
 20 39  1  0  0  0  0
 20 40  1  0  0  0  0
 21 22  1  0  0  0  0
 21 41  1  0  0  0  0
 21 42  1  0  0  0  0
 22 23  1  0  0  0  0
 23 24  1  0  0  0  0
 23 43  1  0  0  0  0
 23 44  1  0  0  0  0
 24 45  1  0  0  0  0
 24 46  1  0  0  0  0
M  CHG  1  12   1
M  CHG  1  14  -1
M  END
> <s_m_source_file>
AV-unprocessed.smi

> <i_m_source_file_index>
399

> <i_lp_mmshare_version>
43012

> <i_f3d_flags>
0

> <s_epik_input>
W0NIMl0xW0NIMl1PW0NIMl1bQ0gyXU4xQyhbQ0gzXSkoW0NIM10pW0NIMl1bTkhdQyg9TylbQ0gyXW4yW2NIXWMoW04rXSg9TylbTy1dKVtjSF1bY0hdYzI9Tw==

> <s_epik_cmdline>
J2VwaWtfcHl0aG9uJywgJy1waCcsICc3LjAnLCAnLXRuJywgJzgnLCAnLW1hJywgJzIwMCcsICctbWV0YWxfYmluZGluZycsICctaW1hZScsICc8aW5maWxlLm1hZT4nLCAnLW9tYWUnLCAnPG91dGZpbGUubWFlPic=

> <r_lp_tautomer_probability>
1

> <r_epik_Ionization_Penalty>
0.237382

> <r_epik_Ionization_Penalty_Charging>
7.45368e-11

> <r_epik_Ionization_Penalty_Neutral>
0.237382

> <r_epik_State_Penalty>
0.228245

> <r_epik_Charging_Adjusted_Penalty>
0.228245

> <i_epik_Tot_Q>
0

> <i_epik_Tot_abs_Q>
2

> <r_epik_Metal_State_Penalty>
0.22822

> <b_epik_Metal_Only>
0

> <s_lp_Force_Field>
OPLS_2005

> <r_lp_Energy>
50.757

> <b_lp_Chiralities_Consistent>
1

> <s_lp_Variant>
AV-unprocessed.smi:399-1

> <Gold.Version>
5.8.1

> <Gold.Id.Protein>
6NUR|6NUR_protein|mol2

> <Gold.PLP.Fitness>
44.8369

> <Gold.PLP.PLP>
-40.7243

> <Gold.PLP.part.hbond>
-2.2055

> <Gold.PLP.part.metal>
0.0000

> <Gold.PLP.part.buried>
-3.4123

> <Gold.PLP.part.nonpolar>
-36.4467

> <Gold.PLP.part.repulsive>
1.1086

> <Gold.PLP.ligand.clash>
0.0000

> <Gold.PLP.ligand.torsion>
0.9883

> <Gold.PLP.Chemscore.Hbond>
1.0000

> <Gold.PLP.Chemscore.CHOScore>
1.0000

> <Gold.PLP.Chemscore.Metal>
0.0000

> <Gold.Chemscore.Hbonds>
donor molecule, donor type, donor heavy atom, donor atom, acceptor molecule, acceptor atom, score
      P1  H 10752 10764       L1    14  1.00
      L1  C    10    36       P1  7948  1.00

> <Gold.PLP.Chemscore.Internal.Correction>
0.0892

> <Gold.Rescore>
     Score         DG    S(hbond)    S(metal)    S(lipo)     H(rot)  DE(clash)    DE(int)     intcor
     14.02     -14.89       1.58        0.00      81.40       2.11       0.06       0.80       ----

> <Gold.Chemscore.Fitness>
14.0241

> <Gold.Chemscore.DG>
-14.8857

> <Gold.Chemscore.ZeroCoef>
-5.4800

> <Gold.Chemscore.Hbond>
1.5812

> <Gold.Chemscore.Metal>
0.0000

> <Gold.Chemscore.Lipo>
81.3979

> <Gold.Chemscore.Internal_Hbond>
0.0000

> <Gold.Chemscore.DEClash>
0.0594

> <Gold.Chemscore.DEInternal>
0.8022

> <Gold.Chemscore.Rot>
2.1090

> <Gold.Chemscore.Internal.Correction>
   9.000000E+99

> <Gold.Chemscore.Hbonds>
donor molecule, donor type, donor heavy atom, donor atom, acceptor molecule, acceptor atom, score
      P1  H 10752 10764       L1    14  0.82

> <Gold.Chemscore.Hbond.Weighted>
-5.2811

> <Gold.Chemscore.Metal.Weighted>
-0.0000

> <Gold.Chemscore.Lipo.Weighted>
-9.5236

> <Gold.Chemscore.Internal_Hbond.Weighted>
0.0000

> <Gold.Chemscore.DEClash.Weighted>
0.0594

> <Gold.Chemscore.DEInternal.Weighted>
0.8022

> <Gold.Chemscore.Rot.Weighted>
5.3989

> <Gold.Chemscore.Internal.Correction.Weighted>
   9.000000E+99

> <Gold.Protein.RotatedTorsions>
[ 6907 6896 6895 6894 ] final  132.48 input  -60.11 | X-H torsion
[ 7974 7965 7964 7962 ] final   23.44 input  175.53 | X-H torsion
[ 8008 7997 7996 7995 ] final  118.70 input   59.86 | X-H torsion
[ 10167 10162 10161 10158 ] final   97.99 input  -65.29 | X-H torsion
[ 10718 10713 10712 10709 ] final -124.80 input   66.30 | X-H torsion
[ 10763 10752 10751 10750 ] final  -75.79 input  -60.55 | X-H torsion
[ 11005 11000 10999 10996 ] final -110.73 input  -57.11 | X-H torsion

> <Gold.Protein.ActiveResidues>
 VAL166  LYS551  ARG553  GLY616  TRP617  ASP618  TYR619  PRO620  LYS621  CYS622 
 ASP623  PHE694  ASN695  SER759  ASP760  ASP761  ALA762  ILE779  LEU786  VAL792 
 PHE793  MET794  SER795  GLU796  ALA797  LYS798  CYS799  TRP800  GLU811  SER814 

> <Gold.Protein.RotatedAtoms>
  152.3319  133.5968  159.5815 H   0  0  0  0  0  0  0  0  0  0  0  0  # atno 6907 bound_to 6896
  150.7428  133.9854  159.3599 H   0  0  0  0  0  0  0  0  0  0  0  0  # atno 6908 bound_to 6896
  151.7728  135.0782  160.0413 H   0  0  0  0  0  0  0  0  0  0  0  0  # atno 6909 bound_to 6896
  146.1984  139.7744  142.8780 H   0  0  0  0  0  0  0  0  0  0  0  0  # atno 7974 bound_to 7965
  156.2559  140.2869  156.0876 H   0  0  0  0  0  0  0  0  0  0  0  0  # atno 8008 bound_to 7997
  155.1498  140.0397  157.2836 H   0  0  0  0  0  0  0  0  0  0  0  0  # atno 8009 bound_to 7997
  154.6469  140.2535  155.7265 H   0  0  0  0  0  0  0  0  0  0  0  0  # atno 8010 bound_to 7997
  139.7749  144.6909  151.0103 H   0  0  0  0  0  0  0  0  0  0  0  0  # atno 10167 bound_to 10162
  156.1619  130.6608  151.0062 H   0  0  0  0  0  0  0  0  0  0  0  0  # atno 10718 bound_to 10713
  154.4912  135.5819  153.6461 H   0  0  0  0  0  0  0  0  0  0  0  0  # atno 10763 bound_to 10752
  152.9862  135.6113  154.3122 H   0  0  0  0  0  0  0  0  0  0  0  0  # atno 10764 bound_to 10752
  154.3022  135.2846  155.2585 H   0  0  0  0  0  0  0  0  0  0  0  0  # atno 10765 bound_to 10752
  141.0775  133.9276  157.2359 H   0  0  0  0  0  0  0  0  0  0  0  0  # atno 11005 bound_to 11000
  145.3567  141.0318  143.3308 LP  0  0  0  0  0  0  0  0  0  0  0  0  # atno 17320 bound_to 7965
  144.8629  139.5150  143.6803 LP  0  0  0  0  0  0  0  0  0  0  0  0  # atno 17321 bound_to 7965
  140.7816  143.4547  151.0363 LP  0  0  0  0  0  0  0  0  0  0  0  0  # atno 17342 bound_to 10162
  139.8229  143.7795  152.3177 LP  0  0  0  0  0  0  0  0  0  0  0  0  # atno 17343 bound_to 10162
  157.6739  131.0855  150.7544 LP  0  0  0  0  0  0  0  0  0  0  0  0  # atno 17370 bound_to 10713
  156.7606  130.4797  149.5438 LP  0  0  0  0  0  0  0  0  0  0  0  0  # atno 17371 bound_to 10713
  139.9587  135.0159  156.9202 LP  0  0  0  0  0  0  0  0  0  0  0  0  # atno 17394 bound_to 11000
  140.5541  134.0598  155.7378 LP  0  0  0  0  0  0  0  0  0  0  0  0  # atno 17395 bound_to 11000

$$$$
