AV-unprocessed.smi:3278|AV-procd|sdf|12546|dock1
  -GOLD-   2272018463D 1   1.00000     0.00000
 Structure written by MMmdl.
 38 39  0  0  0  0  0  0  0  0  1 V2000
  146.6295  142.1643  153.9128 C   0  0  0  0  0  0  0  0  0  0  0  0
  147.6363  141.1500  154.1400 N   0  0  0  0  0  0  0  0  0  0  0  0
  148.8031  141.2434  154.8671 C   0  0  0  0  0  0  0  0  0  0  0  0
  149.4317  140.0303  154.8000 C   0  0  0  0  0  0  0  0  0  0  0  0
  150.7407  139.5934  155.4234 C   0  0  1  0  0  0  0  0  0  0  0  0
  151.0027  138.1145  155.0923 C   0  0  0  0  0  0  0  0  0  0  0  0
  151.8482  140.3021  154.8978 O   0  0  0  0  0  0  0  0  0  0  0  0
  150.7479  139.8010  156.9545 C   0  0  0  0  0  0  0  0  0  0  0  0
  150.5270  141.2028  157.3223 N   0  0  0  0  0  0  0  0  0  0  0  0
  151.5707  141.8244  158.1425 C   0  0  1  0  0  0  0  0  0  0  0  0
  151.1779  143.2504  158.5957 C   0  0  0  0  0  0  0  0  0  0  0  0
  152.2749  143.9387  159.4250 C   0  0  0  0  0  0  0  0  0  0  0  0
  152.6098  143.1757  160.7126 C   0  0  0  0  0  0  0  0  0  0  0  0
  153.2504  141.5235  160.3389 S   0  0  0  0  0  0  0  0  0  0  0  0
  151.8536  140.9175  159.3544 C   0  0  0  0  0  0  0  0  0  0  0  0
  148.5493  139.2542  153.9923 C   0  0  0  0  0  0  0  0  0  0  0  0
  147.4786  139.9247  153.6004 N   0  0  0  0  0  0  0  0  0  0  0  0
  146.9684  143.1223  154.3079 H   0  0  0  0  0  0  0  0  0  0  0  0
  145.7027  141.8813  154.4129 H   0  0  0  0  0  0  0  0  0  0  0  0
  146.4429  142.2689  152.8435 H   0  0  0  0  0  0  0  0  0  0  0  0
  149.0879  142.1559  155.3698 H   0  0  0  0  0  0  0  0  0  0  0  0
  150.2141  137.4737  155.4882 H   0  0  0  0  0  0  0  0  0  0  0  0
  151.9462  137.7702  155.5174 H   0  0  0  0  0  0  0  0  0  0  0  0
  151.0472  137.9510  154.0147 H   0  0  0  0  0  0  0  0  0  0  0  0
  152.5602  139.6939  154.7713 H   0  0  0  0  0  0  0  0  0  0  0  0
  149.9641  139.1889  157.4026 H   0  0  0  0  0  0  0  0  0  0  0  0
  151.6915  139.4354  157.3584 H   0  0  0  0  0  0  0  0  0  0  0  0
  150.3711  141.7526  156.4833 H   0  0  0  0  0  0  0  0  0  0  0  0
  152.4852  141.8885  157.5513 H   0  0  0  0  0  0  0  0  0  0  0  0
  150.9769  143.8836  157.7328 H   0  0  0  0  0  0  0  0  0  0  0  0
  150.2520  143.2151  159.1716 H   0  0  0  0  0  0  0  0  0  0  0  0
  153.1754  144.0538  158.8209 H   0  0  0  0  0  0  0  0  0  0  0  0
  151.9497  144.9471  159.6813 H   0  0  0  0  0  0  0  0  0  0  0  0
  153.3582  143.7184  161.2903 H   0  0  0  0  0  0  0  0  0  0  0  0
  151.7243  143.0819  161.3418 H   0  0  0  0  0  0  0  0  0  0  0  0
  150.9743  140.8461  159.9961 H   0  0  0  0  0  0  0  0  0  0  0  0
  152.0889  139.9054  159.0239 H   0  0  0  0  0  0  0  0  0  0  0  0
  148.6566  138.2251  153.6827 H   0  0  0  0  0  0  0  0  0  0  0  0
  1  2  1  0  0  0  0
  1 18  1  0  0  0  0
  1 19  1  0  0  0  0
  1 20  1  0  0  0  0
  2 17  1  0  0  0  0
  2  3  1  0  0  0  0
  3  4  2  0  0  0  0
  3 21  1  0  0  0  0
  4  5  1  0  0  0  0
  4 16  1  0  0  0  0
  5  6  1  0  0  0  0
  5  7  1  0  0  0  0
  5  8  1  0  0  0  0
  6 22  1  0  0  0  0
  6 23  1  0  0  0  0
  6 24  1  0  0  0  0
  7 25  1  0  0  0  0
  8  9  1  0  0  0  0
  8 26  1  0  0  0  0
  8 27  1  0  0  0  0
  9 10  1  0  0  0  0
  9 28  1  0  0  0  0
 10 15  1  0  0  0  0
 10 11  1  0  0  0  0
 10 29  1  0  0  0  0
 11 12  1  0  0  0  0
 11 30  1  0  0  0  0
 11 31  1  0  0  0  0
 12 13  1  0  0  0  0
 12 32  1  0  0  0  0
 12 33  1  0  0  0  0
 13 14  1  0  0  0  0
 13 34  1  0  0  0  0
 13 35  1  0  0  0  0
 14 15  1  0  0  0  0
 15 36  1  0  0  0  0
 15 37  1  0  0  0  0
 16 17  2  0  0  0  0
 16 38  1  0  0  0  0
M  END
> <s_m_source_file>
AV-unprocessed.smi

> <i_m_source_file_index>
3278

> <i_lp_mmshare_version>
43012

> <i_f3d_flags>
0

> <s_epik_input>
W0NIM11uMVtjSF1jKFtjSF1uMSlbQ0BAXShbQ0gzXSkoW09IXSlbQ0gyXVtOSF1bQ0BASF0yW0NIMl1bQ0gyXVtDSDJdU1tDSDJdMg==

> <s_epik_cmdline>
J2VwaWtfcHl0aG9uJywgJy1waCcsICc3LjAnLCAnLXRuJywgJzgnLCAnLW1hJywgJzIwMCcsICctbWV0YWxfYmluZGluZycsICctaW1hZScsICc8aW5maWxlLm1hZT4nLCAnLW9tYWUnLCAnPG91dGZpbGUubWFlPic=

> <r_lp_tautomer_probability>
1

> <r_epik_Ionization_Penalty>
2.06123

> <r_epik_Ionization_Penalty_Charging>
0

> <r_epik_Ionization_Penalty_Neutral>
2.06123

> <r_epik_State_Penalty>
2.1944

> <r_epik_Charging_Adjusted_Penalty>
2.1944

> <i_epik_Tot_Q>
0

> <i_epik_Tot_abs_Q>
0

> <r_epik_Metal_State_Penalty>
2.19434

> <b_epik_Metal_Only>
0

> <s_lp_Force_Field>
OPLS_2005

> <r_lp_Energy>
12.2085

> <b_lp_Chiralities_Consistent>
1

> <s_lp_Variant>
AV-unprocessed.smi:3278-7

> <Gold.Version>
5.8.1

> <Gold.Id.Protein>
6NUR|6NUR_protein|mol2

> <Gold.PLP.Fitness>
43.6500

> <Gold.PLP.PLP>
-37.6674

> <Gold.PLP.part.hbond>
-0.5589

> <Gold.PLP.part.metal>
0.0000

> <Gold.PLP.part.buried>
-4.1777

> <Gold.PLP.part.nonpolar>
-33.0126

> <Gold.PLP.part.repulsive>
0.3927

> <Gold.PLP.ligand.clash>
0.0000

> <Gold.PLP.ligand.torsion>
0.4465

> <Gold.PLP.Chemscore.Hbond>
0.8160

> <Gold.PLP.Chemscore.CHOScore>
1.4552

> <Gold.PLP.Chemscore.Metal>
0.0000

> <Gold.Chemscore.Hbonds>
donor molecule, donor type, donor heavy atom, donor atom, acceptor molecule, acceptor atom, score
      P1  H  7989  7998       L1     7  0.80
      L1  C     3    21       P1  8028  0.87
      L1  C    16    38       P1  7948  0.58

> <Gold.PLP.Chemscore.Internal.Correction>
0.0619

> <Gold.Rescore>
     Score         DG    S(hbond)    S(metal)    S(lipo)     H(rot)  DE(clash)    DE(int)     intcor
     15.24     -15.70       0.84        0.00     105.80       1.93       0.03       0.44       ----

> <Gold.Chemscore.Fitness>
15.2415

> <Gold.Chemscore.DG>
-15.7047

> <Gold.Chemscore.ZeroCoef>
-5.4800

> <Gold.Chemscore.Hbond>
0.8366

> <Gold.Chemscore.Metal>
0.0000

> <Gold.Chemscore.Lipo>
105.8007

> <Gold.Chemscore.Internal_Hbond>
0.0000

> <Gold.Chemscore.DEClash>
0.0275

> <Gold.Chemscore.DEInternal>
0.4357

> <Gold.Chemscore.Rot>
1.9329

> <Gold.Chemscore.Internal.Correction>
   9.000000E+99

> <Gold.Chemscore.Hbonds>
donor molecule, donor type, donor heavy atom, donor atom, acceptor molecule, acceptor atom, score
      P1  H  7989  7998       L1     7  0.24

> <Gold.Chemscore.Hbond.Weighted>
-2.7943

> <Gold.Chemscore.Metal.Weighted>
-0.0000

> <Gold.Chemscore.Lipo.Weighted>
-12.3787

> <Gold.Chemscore.Internal_Hbond.Weighted>
0.0000

> <Gold.Chemscore.DEClash.Weighted>
0.0275

> <Gold.Chemscore.DEInternal.Weighted>
0.4357

> <Gold.Chemscore.Rot.Weighted>
4.9483

> <Gold.Chemscore.Internal.Correction.Weighted>
   9.000000E+99

> <Gold.Protein.RotatedTorsions>
[ 6907 6896 6895 6894 ] final  154.37 input  -60.11 | X-H torsion
[ 7974 7965 7964 7962 ] final  -50.38 input  175.53 | X-H torsion
[ 8008 7997 7996 7995 ] final -117.12 input   59.86 | X-H torsion
[ 10167 10162 10161 10158 ] final -109.85 input  -65.29 | X-H torsion
[ 10718 10713 10712 10709 ] final  -27.87 input   66.30 | X-H torsion
[ 10763 10752 10751 10750 ] final   85.49 input  -60.55 | X-H torsion
[ 11005 11000 10999 10996 ] final  -82.67 input  -57.11 | X-H torsion

> <Gold.Protein.ActiveResidues>
 VAL166  LYS551  ARG553  GLY616  TRP617  ASP618  TYR619  PRO620  LYS621  CYS622 
 ASP623  PHE694  ASN695  SER759  ASP760  ASP761  ALA762  ILE779  LEU786  VAL792 
 PHE793  MET794  SER795  GLU796  ALA797  LYS798  CYS799  TRP800  GLU811  SER814 

> <Gold.Protein.RotatedAtoms>
  152.0594  133.4055  159.4411 H   0  0  0  0  0  0  0  0  0  0  0  0  # atno 6907 bound_to 6896
  150.6867  134.3217  159.4798 H   0  0  0  0  0  0  0  0  0  0  0  0  # atno 6908 bound_to 6896
  152.1036  134.9323  160.0619 H   0  0  0  0  0  0  0  0  0  0  0  0  # atno 6909 bound_to 6896
  145.9305  140.7753  142.9602 H   0  0  0  0  0  0  0  0  0  0  0  0  # atno 7974 bound_to 7965
  155.0786  140.0394  157.2632 H   0  0  0  0  0  0  0  0  0  0  0  0  # atno 8008 bound_to 7997
  154.6925  140.2656  155.6774 H   0  0  0  0  0  0  0  0  0  0  0  0  # atno 8009 bound_to 7997
  156.2733  140.2756  156.1508 H   0  0  0  0  0  0  0  0  0  0  0  0  # atno 8010 bound_to 7997
  140.1508  143.4200  152.1496 H   0  0  0  0  0  0  0  0  0  0  0  0  # atno 10167 bound_to 10162
  156.4325  130.4448  149.7107 H   0  0  0  0  0  0  0  0  0  0  0  0  # atno 10718 bound_to 10713
  153.1480  135.4615  154.9594 H   0  0  0  0  0  0  0  0  0  0  0  0  # atno 10763 bound_to 10752
  154.7801  135.3186  154.8009 H   0  0  0  0  0  0  0  0  0  0  0  0  # atno 10764 bound_to 10752
  153.8520  135.6920  153.4845 H   0  0  0  0  0  0  0  0  0  0  0  0  # atno 10765 bound_to 10752
  141.1662  133.7256  156.8607 H   0  0  0  0  0  0  0  0  0  0  0  0  # atno 11005 bound_to 11000
  144.6764  140.2119  143.7376 LP  0  0  0  0  0  0  0  0  0  0  0  0  # atno 17320 bound_to 7965
  145.8432  139.2140  143.1815 LP  0  0  0  0  0  0  0  0  0  0  0  0  # atno 17321 bound_to 7965
  139.5427  144.7271  151.4683 LP  0  0  0  0  0  0  0  0  0  0  0  0  # atno 17342 bound_to 10162
  140.6703  143.8308  150.6992 LP  0  0  0  0  0  0  0  0  0  0  0  0  # atno 17343 bound_to 10162
  156.4004  130.7672  151.2679 LP  0  0  0  0  0  0  0  0  0  0  0  0  # atno 17370 bound_to 10713
  157.7508  131.0241  150.3863 LP  0  0  0  0  0  0  0  0  0  0  0  0  # atno 17371 bound_to 10713
  140.1851  134.9006  157.2994 LP  0  0  0  0  0  0  0  0  0  0  0  0  # atno 17394 bound_to 11000
  140.2352  134.3861  155.7504 LP  0  0  0  0  0  0  0  0  0  0  0  0  # atno 17395 bound_to 11000

$$$$
