AV-unprocessed.smi:2356|AV-procd|sdf|9398|dock10
  -GOLD-   2272013 33D 1   1.00000     0.00000
 Structure written by MMmdl.
 54 57  0  0  0  0  0  0  0  0  2 V2000
  151.5452  137.9181  154.1473 C   0  0  0  0  0  0  0  0  0  0  0  0
  150.6954  138.8044  155.0436 C   0  0  0  0  0  0  0  0  0  0  0  0
  151.3634  139.7035  155.8007 N   0  3  0  0  0  0  0  0  0  0  0  0
  150.7628  140.5668  156.6469 C   0  0  0  0  0  0  0  0  0  0  0  0
  151.5940  141.4384  157.3641 N   0  0  0  0  0  0  0  0  0  0  0  0
  151.6057  141.2307  158.8025 C   0  0  0  0  0  0  0  0  0  0  0  0
  152.2063  142.5071  159.3977 C   0  0  0  0  0  0  0  0  0  0  0  0
  152.0189  143.5748  158.3132 C   0  0  0  0  0  0  0  0  0  0  0  0
  151.3098  142.8498  157.1666 C   0  0  0  0  0  0  0  0  0  0  0  0
  149.3546  140.5529  156.7559 C   0  0  0  0  0  0  0  0  0  0  0  0
  148.6113  139.6345  155.9885 C   0  0  0  0  0  0  0  0  0  0  0  0
  149.2813  138.7294  155.1263 C   0  0  0  0  0  0  0  0  0  0  0  0
  148.5915  137.7869  154.3138 N   0  0  0  0  0  0  0  0  0  0  0  0
  147.3181  137.3564  154.4110 C   0  0  0  0  0  0  0  0  0  0  0  0
  146.5218  137.7191  155.2739 O   0  0  0  0  0  0  0  0  0  0  0  0
  146.9655  136.4589  153.4728 N   0  0  0  0  0  0  0  0  0  0  0  0
  145.6737  135.7935  153.2879 C   0  0  1  0  0  0  0  0  0  0  0  0
  144.7527  136.6832  152.4395 C   0  0  0  0  0  0  0  0  0  0  0  0
  143.4410  135.9530  152.1094 C   0  0  0  0  0  0  0  0  0  0  0  0
  143.7219  134.7202  151.4552 O   0  0  0  0  0  0  0  0  0  0  0  0
  144.4686  133.8150  152.2624 C   0  0  1  0  0  0  0  0  0  0  0  0
  144.6045  132.5078  151.5074 C   0  0  0  0  0  0  0  0  0  0  0  0
  145.2273  132.4701  150.1315 C   0  0  0  0  0  0  0  0  0  0  0  0
  143.7466  132.2254  150.2958 C   0  0  0  0  0  0  0  0  0  0  0  0
  145.8408  134.4322  152.5889 C   0  0  0  0  0  0  0  0  0  0  0  0
  150.9562  137.2421  153.5285 H   0  0  0  0  0  0  0  0  0  0  0  0
  152.2197  137.3130  154.7537 H   0  0  0  0  0  0  0  0  0  0  0  0
  152.1508  138.5328  153.4809 H   0  0  0  0  0  0  0  0  0  0  0  0
  150.5929  141.0828  159.1794 H   0  0  0  0  0  0  0  0  0  0  0  0
  152.1933  140.3508  159.0665 H   0  0  0  0  0  0  0  0  0  0  0  0
  151.7202  142.7782  160.3355 H   0  0  0  0  0  0  0  0  0  0  0  0
  153.2686  142.3680  159.6027 H   0  0  0  0  0  0  0  0  0  0  0  0
  151.4414  144.4295  158.6661 H   0  0  0  0  0  0  0  0  0  0  0  0
  152.9913  143.9435  157.9846 H   0  0  0  0  0  0  0  0  0  0  0  0
  151.6683  143.1899  156.1945 H   0  0  0  0  0  0  0  0  0  0  0  0
  150.2359  143.0353  157.2130 H   0  0  0  0  0  0  0  0  0  0  0  0
  148.8419  141.2392  157.4139 H   0  0  0  0  0  0  0  0  0  0  0  0
  147.5357  139.6548  156.0676 H   0  0  0  0  0  0  0  0  0  0  0  0
  149.1520  137.3356  153.6057 H   0  0  0  0  0  0  0  0  0  0  0  0
  147.6751  136.2237  152.7938 H   0  0  0  0  0  0  0  0  0  0  0  0
  145.1963  135.6452  154.2583 H   0  0  0  0  0  0  0  0  0  0  0  0
  144.5388  137.6160  152.9626 H   0  0  0  0  0  0  0  0  0  0  0  0
  145.2528  136.9544  151.5084 H   0  0  0  0  0  0  0  0  0  0  0  0
  142.8570  135.7733  153.0134 H   0  0  0  0  0  0  0  0  0  0  0  0
  142.8260  136.5678  151.4518 H   0  0  0  0  0  0  0  0  0  0  0  0
  143.9217  133.6251  153.1880 H   0  0  0  0  0  0  0  0  0  0  0  0
  144.8153  131.6524  152.1468 H   0  0  0  0  0  0  0  0  0  0  0  0
  145.5344  133.4151  149.6879 H   0  0  0  0  0  0  0  0  0  0  0  0
  145.8558  131.6155  149.8898 H   0  0  0  0  0  0  0  0  0  0  0  0
  143.3862  131.2076  150.1624 H   0  0  0  0  0  0  0  0  0  0  0  0
  143.0685  133.0081  149.9610 H   0  0  0  0  0  0  0  0  0  0  0  0
  146.4110  134.5587  151.6671 H   0  0  0  0  0  0  0  0  0  0  0  0
  146.4121  133.7473  153.2159 H   0  0  0  0  0  0  0  0  0  0  0  0
  152.3806  139.7317  155.7283 H   0  0  0  0  0  0  0  0  0  0  0  0
  1  2  1  0  0  0  0
  1 26  1  0  0  0  0
  1 27  1  0  0  0  0
  1 28  1  0  0  0  0
  2 12  1  0  0  0  0
  2  3  2  0  0  0  0
  3  4  1  0  0  0  0
  3 54  1  0  0  0  0
  4  5  1  0  0  0  0
  4 10  2  0  0  0  0
  5  9  1  0  0  0  0
  5  6  1  0  0  0  0
  6  7  1  0  0  0  0
  6 29  1  0  0  0  0
  6 30  1  0  0  0  0
  7  8  1  0  0  0  0
  7 31  1  0  0  0  0
  7 32  1  0  0  0  0
  8  9  1  0  0  0  0
  8 33  1  0  0  0  0
  8 34  1  0  0  0  0
  9 35  1  0  0  0  0
  9 36  1  0  0  0  0
 10 11  1  0  0  0  0
 10 37  1  0  0  0  0
 11 12  2  0  0  0  0
 11 38  1  0  0  0  0
 12 13  1  0  0  0  0
 13 14  1  0  0  0  0
 13 39  1  0  0  0  0
 14 15  2  0  0  0  0
 14 16  1  0  0  0  0
 16 17  1  0  0  0  0
 16 40  1  0  0  0  0
 17 25  1  0  0  0  0
 17 18  1  0  0  0  0
 17 41  1  0  0  0  0
 18 19  1  0  0  0  0
 18 42  1  0  0  0  0
 18 43  1  0  0  0  0
 19 20  1  0  0  0  0
 19 44  1  0  0  0  0
 19 45  1  0  0  0  0
 20 21  1  0  0  0  0
 21 22  1  0  0  0  0
 21 25  1  0  0  0  0
 21 46  1  0  0  0  0
 22 24  1  0  0  0  0
 22 23  1  0  0  0  0
 22 47  1  0  0  0  0
 23 24  1  0  0  0  0
 23 48  1  0  0  0  0
 23 49  1  0  0  0  0
 24 50  1  0  0  0  0
 24 51  1  0  0  0  0
 25 52  1  0  0  0  0
 25 53  1  0  0  0  0
M  CHG  1   3   1
M  END
> <s_m_source_file>
AV-unprocessed.smi

> <i_m_source_file_index>
2356

> <i_lp_mmshare_version>
43012

> <i_f3d_flags>
0

> <s_epik_input>
W0NIMl0xW0NIMl1bQ0gyXVtDSDJdTjFjKG5jMltDSDNdKVtjSF1bY0hdYzJbTkhdQyg9TylbTkhdW0NAQEhdM1tDSDJdW0NIMl1PW0NASF0oW0NIMl0zKVtDSF00W0NIMl1bQ0gyXTQ=

> <s_epik_cmdline>
J2VwaWtfcHl0aG9uJywgJy1waCcsICc3LjAnLCAnLXRuJywgJzgnLCAnLW1hJywgJzIwMCcsICctbWV0YWxfYmluZGluZycsICctaW1hZScsICc8aW5maWxlLm1hZT4nLCAnLW9tYWUnLCAnPG91dGZpbGUubWFlPic=

> <r_lp_tautomer_probability>
0.999994

> <r_epik_Ionization_Penalty>
0.534681

> <r_epik_Ionization_Penalty_Charging>
0.534661

> <r_epik_Ionization_Penalty_Neutral>
1.99132e-05

> <r_epik_State_Penalty>
0.543738

> <r_epik_Charging_Adjusted_Penalty>
1.0784

> <i_epik_Tot_Q>
1

> <i_epik_Tot_abs_Q>
1

> <r_epik_Metal_State_Penalty>
0.74699

> <b_epik_Metal_Only>
0

> <s_lp_Force_Field>
OPLS_2005

> <r_lp_Energy>
63.5996

> <b_lp_Chiralities_Consistent>
1

> <s_lp_Variant>
AV-unprocessed.smi:2356-6

> <Gold.Version>
5.8.1

> <Gold.Id.Protein>
6NUR|6NUR_protein|mol2

> <Gold.PLP.Fitness>
42.9893

> <Gold.PLP.PLP>
-38.7632

> <Gold.PLP.part.hbond>
-1.9896

> <Gold.PLP.part.metal>
0.0000

> <Gold.PLP.part.buried>
-7.2032

> <Gold.PLP.part.nonpolar>
-30.2574

> <Gold.PLP.part.repulsive>
0.3823

> <Gold.PLP.ligand.clash>
0.0000

> <Gold.PLP.ligand.torsion>
1.1077

> <Gold.PLP.Chemscore.Hbond>
1.7842

> <Gold.PLP.Chemscore.CHOScore>
0.0000

> <Gold.PLP.Chemscore.Metal>
0.0000

> <Gold.Chemscore.Hbonds>
donor molecule, donor type, donor heavy atom, donor atom, acceptor molecule, acceptor atom, score
      L1  H    13    39       P1  7948  0.80
      L1  H    16    40       P1  7948  1.00

> <Gold.PLP.Chemscore.Internal.Correction>
1.0890

> <Gold.Rescore>
     Score         DG    S(hbond)    S(metal)    S(lipo)     H(rot)  DE(clash)    DE(int)     intcor
     18.62     -21.22       1.83        0.00     110.96       1.31       0.35       2.24       ----

> <Gold.Chemscore.Fitness>
18.6229

> <Gold.Chemscore.DG>
-21.2191

> <Gold.Chemscore.ZeroCoef>
-5.4800

> <Gold.Chemscore.Hbond>
1.8265

> <Gold.Chemscore.Metal>
0.0000

> <Gold.Chemscore.Lipo>
110.9575

> <Gold.Chemscore.Internal_Hbond>
0.0000

> <Gold.Chemscore.DEClash>
0.3517

> <Gold.Chemscore.DEInternal>
2.2446

> <Gold.Chemscore.Rot>
1.3060

> <Gold.Chemscore.Internal.Correction>
   9.000000E+99

> <Gold.Chemscore.Hbonds>
donor molecule, donor type, donor heavy atom, donor atom, acceptor molecule, acceptor atom, score
      L1  H    13    39       P1  7948  0.75
      L1  H    16    40       P1  7948  0.97

> <Gold.Chemscore.Hbond.Weighted>
-6.1004

> <Gold.Chemscore.Metal.Weighted>
-0.0000

> <Gold.Chemscore.Lipo.Weighted>
-12.9820

> <Gold.Chemscore.Internal_Hbond.Weighted>
0.0000

> <Gold.Chemscore.DEClash.Weighted>
0.3517

> <Gold.Chemscore.DEInternal.Weighted>
2.2446

> <Gold.Chemscore.Rot.Weighted>
3.3433

> <Gold.Chemscore.Internal.Correction.Weighted>
   9.000000E+99

> <Gold.Protein.RotatedTorsions>
[ 6907 6896 6895 6894 ] final   16.68 input  -60.11 | X-H torsion
[ 7974 7965 7964 7962 ] final   89.24 input  175.53 | X-H torsion
[ 8008 7997 7996 7995 ] final   15.17 input   59.86 | X-H torsion
[ 10167 10162 10161 10158 ] final -162.03 input  -65.29 | X-H torsion
[ 10718 10713 10712 10709 ] final  -19.96 input   66.30 | X-H torsion
[ 10763 10752 10751 10750 ] final   58.28 input  -60.55 | X-H torsion
[ 11005 11000 10999 10996 ] final  164.51 input  -57.11 | X-H torsion

> <Gold.Protein.ActiveResidues>
 VAL166  LYS551  ARG553  GLY616  TRP617  ASP618  TYR619  PRO620  LYS621  CYS622 
 ASP623  PHE694  ASN695  SER759  ASP760  ASP761  ALA762  ILE779  LEU786  VAL792 
 PHE793  MET794  SER795  GLU796  ALA797  LYS798  CYS799  TRP800  GLU811  SER814 

> <Gold.Protein.RotatedAtoms>
  151.8376  135.0601  160.0444 H   0  0  0  0  0  0  0  0  0  0  0  0  # atno 6907 bound_to 6896
  152.2833  133.5487  159.5520 H   0  0  0  0  0  0  0  0  0  0  0  0  # atno 6908 bound_to 6896
  150.7198  134.0449  159.3820 H   0  0  0  0  0  0  0  0  0  0  0  0  # atno 6909 bound_to 6896
  145.5350  139.2285  143.2597 H   0  0  0  0  0  0  0  0  0  0  0  0  # atno 7974 bound_to 7965
  154.8588  140.2941  155.5552 H   0  0  0  0  0  0  0  0  0  0  0  0  # atno 8008 bound_to 7997
  156.3019  140.2482  156.3492 H   0  0  0  0  0  0  0  0  0  0  0  0  # atno 8009 bound_to 7997
  154.8941  140.0393  157.1844 H   0  0  0  0  0  0  0  0  0  0  0  0  # atno 8010 bound_to 7997
  139.6421  144.0239  152.2100 H   0  0  0  0  0  0  0  0  0  0  0  0  # atno 10167 bound_to 10162
  156.5384  130.4672  149.6511 H   0  0  0  0  0  0  0  0  0  0  0  0  # atno 10718 bound_to 10713
  152.9867  135.5612  154.5526 H   0  0  0  0  0  0  0  0  0  0  0  0  # atno 10763 bound_to 10752
  154.4961  135.2795  155.1460 H   0  0  0  0  0  0  0  0  0  0  0  0  # atno 10764 bound_to 10752
  154.2910  135.6326  153.5438 H   0  0  0  0  0  0  0  0  0  0  0  0  # atno 10765 bound_to 10752
  140.2466  134.8009  157.3462 H   0  0  0  0  0  0  0  0  0  0  0  0  # atno 11005 bound_to 11000
  146.2019  140.6168  142.9098 LP  0  0  0  0  0  0  0  0  0  0  0  0  # atno 17320 bound_to 7965
  144.7606  140.5413  143.6738 LP  0  0  0  0  0  0  0  0  0  0  0  0  # atno 17321 bound_to 7965
  139.9932  144.6347  150.7796 LP  0  0  0  0  0  0  0  0  0  0  0  0  # atno 17342 bound_to 10162
  140.7496  143.2942  151.3250 LP  0  0  0  0  0  0  0  0  0  0  0  0  # atno 17343 bound_to 10162
  156.2994  130.7168  151.2037 LP  0  0  0  0  0  0  0  0  0  0  0  0  # atno 17370 bound_to 10713
  157.7409  131.0510  150.5130 LP  0  0  0  0  0  0  0  0  0  0  0  0  # atno 17371 bound_to 10713
  140.1600  134.4741  155.7901 LP  0  0  0  0  0  0  0  0  0  0  0  0  # atno 17394 bound_to 11000
  141.2205  133.6897  156.7527 LP  0  0  0  0  0  0  0  0  0  0  0  0  # atno 17395 bound_to 11000

$$$$
