AV-unprocessed.smi:1436|AV-procd|sdf|5860|dock6
  -GOLD-   22720 5533D 1   1.00000     0.00000
 Structure written by MMmdl.
 43 44  0  0  0  0  0  0  0  0  1 V2000
  144.4949  141.6119  160.0283 C   0  0  0  0  0  0  0  0  0  0  0  0
  145.3359  142.7125  160.6078 C   0  0  0  0  0  0  0  0  0  0  0  0
  145.2442  142.9934  161.8966 N   0  0  0  0  0  0  0  0  0  0  0  0
  146.1264  144.0545  162.1208 O   0  0  0  0  0  0  0  0  0  0  0  0
  146.7200  144.3754  160.9431 C   0  0  0  0  0  0  0  0  0  0  0  0
  147.7001  145.4990  160.9691 C   0  0  0  0  0  0  0  0  0  0  0  0
  146.2663  143.5618  159.9419 C   0  0  0  0  0  0  0  0  0  0  0  0
  146.6518  143.5631  158.4833 C   0  0  0  0  0  0  0  0  0  0  0  0
  147.5678  142.3785  158.1610 C   0  0  0  0  0  0  0  0  0  0  0  0
  147.3293  141.2608  158.6201 O   0  0  0  0  0  0  0  0  0  0  0  0
  148.6197  142.6415  157.3701 N   0  0  0  0  0  0  0  0  0  0  0  0
  149.6414  141.6791  156.9641 C   0  0  1  0  0  0  0  0  0  0  0  0
  149.5247  141.3663  155.4638 C   0  0  0  0  0  0  0  0  0  0  0  0
  151.0592  142.1213  157.4021 C   0  0  0  0  0  0  0  0  0  0  0  0
  151.2306  142.5042  158.8072 N   0  0  0  0  0  0  0  0  0  0  0  0
  151.0386  143.9407  158.9792 C   0  0  0  0  0  0  0  0  0  0  0  0
  151.2031  144.3745  160.4460 C   0  0  0  0  0  0  0  0  0  0  0  0
  152.4877  143.9811  160.9164 O   0  0  0  0  0  0  0  0  0  0  0  0
  152.7008  142.5776  160.8126 C   0  0  0  0  0  0  0  0  0  0  0  0
  152.5374  142.1360  159.3480 C   0  0  0  0  0  0  0  0  0  0  0  0
  143.6209  142.0210  159.5213 H   0  0  0  0  0  0  0  0  0  0  0  0
  144.1418  140.9255  160.7984 H   0  0  0  0  0  0  0  0  0  0  0  0
  145.0597  141.0288  159.3008 H   0  0  0  0  0  0  0  0  0  0  0  0
  147.4221  146.2682  160.2484 H   0  0  0  0  0  0  0  0  0  0  0  0
  148.6994  145.1442  160.7168 H   0  0  0  0  0  0  0  0  0  0  0  0
  147.7442  145.9615  161.9555 H   0  0  0  0  0  0  0  0  0  0  0  0
  145.7739  143.4957  157.8402 H   0  0  0  0  0  0  0  0  0  0  0  0
  147.1505  144.4961  158.2179 H   0  0  0  0  0  0  0  0  0  0  0  0
  148.7330  143.5878  157.0368 H   0  0  0  0  0  0  0  0  0  0  0  0
  149.4277  140.7454  157.4875 H   0  0  0  0  0  0  0  0  0  0  0  0
  150.2673  140.6277  155.1609 H   0  0  0  0  0  0  0  0  0  0  0  0
  149.6718  142.2565  154.8517 H   0  0  0  0  0  0  0  0  0  0  0  0
  148.5412  140.9612  155.2244 H   0  0  0  0  0  0  0  0  0  0  0  0
  151.7907  141.3581  157.1315 H   0  0  0  0  0  0  0  0  0  0  0  0
  151.3113  142.9873  156.7884 H   0  0  0  0  0  0  0  0  0  0  0  0
  151.7535  144.4859  158.3610 H   0  0  0  0  0  0  0  0  0  0  0  0
  150.0449  144.2259  158.6314 H   0  0  0  0  0  0  0  0  0  0  0  0
  151.1063  145.4567  160.5352 H   0  0  0  0  0  0  0  0  0  0  0  0
  150.4267  143.9299  161.0706 H   0  0  0  0  0  0  0  0  0  0  0  0
  153.7032  142.3418  161.1701 H   0  0  0  0  0  0  0  0  0  0  0  0
  151.9973  142.0471  161.4561 H   0  0  0  0  0  0  0  0  0  0  0  0
  152.6792  141.0578  159.2983 H   0  0  0  0  0  0  0  0  0  0  0  0
  153.3263  142.5874  158.7462 H   0  0  0  0  0  0  0  0  0  0  0  0
  1  2  1  0  0  0  0
  1 21  1  0  0  0  0
  1 22  1  0  0  0  0
  1 23  1  0  0  0  0
  2  7  1  0  0  0  0
  2  3  2  0  0  0  0
  3  4  1  0  0  0  0
  4  5  1  0  0  0  0
  5  6  1  0  0  0  0
  5  7  2  0  0  0  0
  6 24  1  0  0  0  0
  6 25  1  0  0  0  0
  6 26  1  0  0  0  0
  7  8  1  0  0  0  0
  8  9  1  0  0  0  0
  8 27  1  0  0  0  0
  8 28  1  0  0  0  0
  9 10  2  0  0  0  0
  9 11  1  0  0  0  0
 11 12  1  0  0  0  0
 11 29  1  0  0  0  0
 12 13  1  0  0  0  0
 12 14  1  0  0  0  0
 12 30  1  0  0  0  0
 13 31  1  0  0  0  0
 13 32  1  0  0  0  0
 13 33  1  0  0  0  0
 14 15  1  0  0  0  0
 14 34  1  0  0  0  0
 14 35  1  0  0  0  0
 15 20  1  0  0  0  0
 15 16  1  0  0  0  0
 16 17  1  0  0  0  0
 16 36  1  0  0  0  0
 16 37  1  0  0  0  0
 17 18  1  0  0  0  0
 17 38  1  0  0  0  0
 17 39  1  0  0  0  0
 18 19  1  0  0  0  0
 19 20  1  0  0  0  0
 19 40  1  0  0  0  0
 19 41  1  0  0  0  0
 20 42  1  0  0  0  0
 20 43  1  0  0  0  0
M  END
> <s_m_source_file>
AV-unprocessed.smi

> <i_m_source_file_index>
1436

> <i_lp_mmshare_version>
43012

> <i_f3d_flags>
0

> <s_epik_input>
W0NIM11jMW5vYyhbQ0gzXSljMVtDSDJdQyg9TylbTkhdW0NASF0oW0NIM10pW0NIMl1OMltDSDJdW0NIMl1PW0NIMl1bQ0gyXTI=

> <s_epik_cmdline>
J2VwaWtfcHl0aG9uJywgJy1waCcsICc3LjAnLCAnLXRuJywgJzgnLCAnLW1hJywgJzIwMCcsICctbWV0YWxfYmluZGluZycsICctaW1hZScsICc8aW5maWxlLm1hZT4nLCAnLW9tYWUnLCAnPG91dGZpbGUubWFlPic=

> <r_epik_Ionization_Penalty>
0.234179

> <r_epik_Ionization_Penalty_Charging>
0

> <r_epik_Ionization_Penalty_Neutral>
0.234179

> <r_epik_State_Penalty>
0.224936

> <r_epik_Charging_Adjusted_Penalty>
0.224936

> <i_epik_Tot_Q>
0

> <i_epik_Tot_abs_Q>
0

> <r_epik_Metal_State_Penalty>
0.224936

> <b_epik_Metal_Only>
0

> <s_lp_Force_Field>
OPLS_2005

> <r_lp_Energy>
22.5578

> <b_lp_Chiralities_Consistent>
1

> <s_lp_Variant>
AV-unprocessed.smi:1436-2

> <Gold.Version>
5.8.1

> <Gold.Id.Protein>
6NUR|6NUR_protein|mol2

> <Gold.PLP.Fitness>
36.1500

> <Gold.PLP.PLP>
-34.4287

> <Gold.PLP.part.hbond>
-2.2466

> <Gold.PLP.part.metal>
0.0000

> <Gold.PLP.part.buried>
-5.6187

> <Gold.PLP.part.nonpolar>
-26.8264

> <Gold.PLP.part.repulsive>
0.2970

> <Gold.PLP.ligand.clash>
0.0000

> <Gold.PLP.ligand.torsion>
0.9173

> <Gold.PLP.Chemscore.Hbond>
1.1453

> <Gold.PLP.Chemscore.CHOScore>
0.0000

> <Gold.PLP.Chemscore.Metal>
0.0000

> <Gold.Chemscore.Hbonds>
donor molecule, donor type, donor heavy atom, donor atom, acceptor molecule, acceptor atom, score
      L1  H    11    29       P1  8028  1.00
      P1  H  6934  6946       L1    10  0.16

> <Gold.PLP.Chemscore.Internal.Correction>
0.1199

> <Gold.Rescore>
     Score         DG    S(hbond)    S(metal)    S(lipo)     H(rot)  DE(clash)    DE(int)     intcor
     11.58     -13.03       0.72        0.00      81.39       1.71       0.41       1.04       ----

> <Gold.Chemscore.Fitness>
11.5786

> <Gold.Chemscore.DG>
-13.0283

> <Gold.Chemscore.ZeroCoef>
-5.4800

> <Gold.Chemscore.Hbond>
0.7231

> <Gold.Chemscore.Metal>
0.0000

> <Gold.Chemscore.Lipo>
81.3878

> <Gold.Chemscore.Internal_Hbond>
0.0000

> <Gold.Chemscore.DEClash>
0.4117

> <Gold.Chemscore.DEInternal>
1.0380

> <Gold.Chemscore.Rot>
1.7145

> <Gold.Chemscore.Internal.Correction>
   9.000000E+99

> <Gold.Chemscore.Hbonds>
donor molecule, donor type, donor heavy atom, donor atom, acceptor molecule, acceptor atom, score
      L1  H    11    29       P1  8028  0.24
      P1  H  6934  6946       L1    10  0.18

> <Gold.Chemscore.Hbond.Weighted>
-2.4150

> <Gold.Chemscore.Metal.Weighted>
-0.0000

> <Gold.Chemscore.Lipo.Weighted>
-9.5224

> <Gold.Chemscore.Internal_Hbond.Weighted>
0.0000

> <Gold.Chemscore.DEClash.Weighted>
0.4117

> <Gold.Chemscore.DEInternal.Weighted>
1.0380

> <Gold.Chemscore.Rot.Weighted>
4.3891

> <Gold.Chemscore.Internal.Correction.Weighted>
   9.000000E+99

> <Gold.Protein.RotatedTorsions>
[ 6907 6896 6895 6894 ] final -164.55 input  -60.11 | X-H torsion
[ 7974 7965 7964 7962 ] final   72.52 input  175.53 | X-H torsion
[ 8008 7997 7996 7995 ] final -124.54 input   59.86 | X-H torsion
[ 10167 10162 10161 10158 ] final   11.88 input  -65.29 | X-H torsion
[ 10718 10713 10712 10709 ] final  -68.30 input   66.30 | X-H torsion
[ 10763 10752 10751 10750 ] final   26.86 input  -60.55 | X-H torsion
[ 11005 11000 10999 10996 ] final -123.93 input  -57.11 | X-H torsion

> <Gold.Protein.ActiveResidues>
 VAL166  LYS551  ARG553  GLY616  TRP617  ASP618  TYR619  PRO620  LYS621  CYS622 
 ASP623  PHE694  ASN695  SER759  ASP760  ASP761  ALA762  ILE779  LEU786  VAL792 
 PHE793  MET794  SER795  GLU796  ALA797  LYS798  CYS799  TRP800  GLU811  SER814 

> <Gold.Protein.RotatedAtoms>
  151.4136  133.3720  159.2746 H   0  0  0  0  0  0  0  0  0  0  0  0  # atno 6907 bound_to 6896
  150.9345  134.8760  159.7583 H   0  0  0  0  0  0  0  0  0  0  0  0  # atno 6908 bound_to 6896
  152.5043  134.4082  159.9492 H   0  0  0  0  0  0  0  0  0  0  0  0  # atno 6909 bound_to 6896
  145.7523  139.2765  143.1424 H   0  0  0  0  0  0  0  0  0  0  0  0  # atno 7974 bound_to 7965
  155.1985  140.0415  157.2913 H   0  0  0  0  0  0  0  0  0  0  0  0  # atno 8008 bound_to 7997
  154.6090  140.2472  155.7664 H   0  0  0  0  0  0  0  0  0  0  0  0  # atno 8009 bound_to 7997
  156.2368  140.2918  156.0343 H   0  0  0  0  0  0  0  0  0  0  0  0  # atno 8010 bound_to 7997
  140.6103  143.8421  150.7058 H   0  0  0  0  0  0  0  0  0  0  0  0  # atno 10167 bound_to 10162
  156.0512  130.4292  150.1981 H   0  0  0  0  0  0  0  0  0  0  0  0  # atno 10718 bound_to 10713
  153.0594  135.6550  154.0499 H   0  0  0  0  0  0  0  0  0  0  0  0  # atno 10763 bound_to 10752
  154.0170  135.2923  155.3387 H   0  0  0  0  0  0  0  0  0  0  0  0  # atno 10764 bound_to 10752
  154.6925  135.5277  153.8480 H   0  0  0  0  0  0  0  0  0  0  0  0  # atno 10765 bound_to 10752
  140.9880  134.0579  157.3688 H   0  0  0  0  0  0  0  0  0  0  0  0  # atno 11005 bound_to 11000
  146.0344  140.8226  142.9860 LP  0  0  0  0  0  0  0  0  0  0  0  0  # atno 17320 bound_to 7965
  144.6847  140.2817  143.7291 LP  0  0  0  0  0  0  0  0  0  0  0  0  # atno 17321 bound_to 7965
  140.1988  143.3976  152.1808 LP  0  0  0  0  0  0  0  0  0  0  0  0  # atno 17342 bound_to 10162
  139.5356  144.7206  151.4904 LP  0  0  0  0  0  0  0  0  0  0  0  0  # atno 17343 bound_to 10162
  157.0064  130.9938  151.3377 LP  0  0  0  0  0  0  0  0  0  0  0  0  # atno 17370 bound_to 10713
  157.5440  130.8138  149.8063 LP  0  0  0  0  0  0  0  0  0  0  0  0  # atno 17371 bound_to 10713
  139.8979  135.0152  156.7124 LP  0  0  0  0  0  0  0  0  0  0  0  0  # atno 17394 bound_to 11000
  140.7084  133.9245  155.8068 LP  0  0  0  0  0  0  0  0  0  0  0  0  # atno 17395 bound_to 11000

$$$$
