AV-unprocessed.smi:1849|AV-procd|sdf|7520|dock2
  -GOLD-   22720 9223D 1   1.00000     0.00000
 Structure written by MMmdl.
 41 42  0  0  0  0  0  0  0  0  2 V2000
  148.0235  141.6953  154.6700 C   0  0  0  0  0  0  0  0  0  0  0  0
  147.8569  140.4916  153.8523 N   0  0  0  0  0  0  0  0  0  0  0  0
  146.7745  140.1777  153.0709 C   0  0  0  0  0  0  0  0  0  0  0  0
  147.0467  138.9661  152.4907 C   0  0  0  0  0  0  0  0  0  0  0  0
  148.2833  138.5910  152.9411 N   0  3  0  0  0  0  0  0  0  0  0  0
  148.7802  139.5196  153.7666 C   0  0  0  0  0  0  0  0  0  0  0  0
  150.1034  139.4473  154.4614 C   0  0  0  0  0  0  0  0  0  0  0  0
  149.9666  139.2972  155.9857 C   0  0  0  0  0  0  0  0  0  0  0  0
  150.0309  140.5884  156.6592 N   0  0  0  0  0  0  0  0  0  0  0  0
  151.0389  140.9884  157.4470 C   0  0  0  0  0  0  0  0  0  0  0  0
  152.0321  140.3036  157.6936 O   0  0  0  0  0  0  0  0  0  0  0  0
  150.8296  142.2177  157.9382 N   0  0  0  0  0  0  0  0  0  0  0  0
  151.7310  142.9294  158.8393 C   0  0  0  0  0  0  0  0  0  0  0  0
  152.1844  142.0088  159.9921 C   0  0  0  0  0  0  0  0  0  0  0  0
  153.0666  142.7619  161.0007 C   0  0  0  0  0  0  0  0  0  0  0  0
  152.3549  144.0120  161.5412 C   0  0  0  0  0  0  0  0  0  0  0  0
  151.9121  144.9350  160.3955 C   0  0  0  0  0  0  0  0  0  0  0  0
  151.0265  144.1855  159.3868 C   0  0  0  0  0  0  0  0  0  0  0  0
  147.1106  142.2905  154.6337 H   0  0  0  0  0  0  0  0  0  0  0  0
  148.8542  142.2841  154.2798 H   0  0  0  0  0  0  0  0  0  0  0  0
  148.2252  141.4101  155.7029 H   0  0  0  0  0  0  0  0  0  0  0  0
  145.9116  140.8227  152.9882 H   0  0  0  0  0  0  0  0  0  0  0  0
  146.4680  138.3587  151.8100 H   0  0  0  0  0  0  0  0  0  0  0  0
  150.6415  138.5992  154.0360 H   0  0  0  0  0  0  0  0  0  0  0  0
  150.6592  140.3466  154.1950 H   0  0  0  0  0  0  0  0  0  0  0  0
  149.0323  138.7957  156.2426 H   0  0  0  0  0  0  0  0  0  0  0  0
  150.7709  138.6704  156.3718 H   0  0  0  0  0  0  0  0  0  0  0  0
  149.2574  141.2211  156.5145 H   0  0  0  0  0  0  0  0  0  0  0  0
  149.9811  142.6975  157.6750 H   0  0  0  0  0  0  0  0  0  0  0  0
  152.6110  143.2524  158.2794 H   0  0  0  0  0  0  0  0  0  0  0  0
  151.3116  141.6050  160.5073 H   0  0  0  0  0  0  0  0  0  0  0  0
  152.7331  141.1525  159.5980 H   0  0  0  0  0  0  0  0  0  0  0  0
  153.3351  142.1012  161.8255 H   0  0  0  0  0  0  0  0  0  0  0  0
  154.0018  143.0532  160.5208 H   0  0  0  0  0  0  0  0  0  0  0  0
  151.4849  143.7132  162.1276 H   0  0  0  0  0  0  0  0  0  0  0  0
  153.0155  144.5517  162.2202 H   0  0  0  0  0  0  0  0  0  0  0  0
  151.3727  145.7934  160.7971 H   0  0  0  0  0  0  0  0  0  0  0  0
  152.7909  145.3325  159.8863 H   0  0  0  0  0  0  0  0  0  0  0  0
  150.7610  144.8534  158.5664 H   0  0  0  0  0  0  0  0  0  0  0  0
  150.0903  143.9037  159.8712 H   0  0  0  0  0  0  0  0  0  0  0  0
  148.7581  137.7339  152.6865 H   0  0  0  0  0  0  0  0  0  0  0  0
  1  2  1  0  0  0  0
  1 19  1  0  0  0  0
  1 20  1  0  0  0  0
  1 21  1  0  0  0  0
  2  6  1  0  0  0  0
  2  3  1  0  0  0  0
  3  4  2  0  0  0  0
  3 22  1  0  0  0  0
  4  5  1  0  0  0  0
  4 23  1  0  0  0  0
  5  6  2  0  0  0  0
  5 41  1  0  0  0  0
  6  7  1  0  0  0  0
  7  8  1  0  0  0  0
  7 24  1  0  0  0  0
  7 25  1  0  0  0  0
  8  9  1  0  0  0  0
  8 26  1  0  0  0  0
  8 27  1  0  0  0  0
  9 10  1  0  0  0  0
  9 28  1  0  0  0  0
 10 11  2  0  0  0  0
 10 12  1  0  0  0  0
 12 13  1  0  0  0  0
 12 29  1  0  0  0  0
 13 18  1  0  0  0  0
 13 14  1  0  0  0  0
 13 30  1  0  0  0  0
 14 15  1  0  0  0  0
 14 31  1  0  0  0  0
 14 32  1  0  0  0  0
 15 16  1  0  0  0  0
 15 33  1  0  0  0  0
 15 34  1  0  0  0  0
 16 17  1  0  0  0  0
 16 35  1  0  0  0  0
 16 36  1  0  0  0  0
 17 18  1  0  0  0  0
 17 37  1  0  0  0  0
 17 38  1  0  0  0  0
 18 39  1  0  0  0  0
 18 40  1  0  0  0  0
M  CHG  1   5   1
M  END
> <s_m_source_file>
AV-unprocessed.smi

> <i_m_source_file_index>
1849

> <i_lp_mmshare_version>
43012

> <i_f3d_flags>
0

> <s_epik_input>
W0NIM11uMVtjSF1bY0hdbmMxW0NIMl1bQ0gyXVtOSF1DKD1PKVtOSF1bQ0hdMltDSDJdW0NIMl1bQ0gyXVtDSDJdW0NIMl0y

> <s_epik_cmdline>
J2VwaWtfcHl0aG9uJywgJy1waCcsICc3LjAnLCAnLXRuJywgJzgnLCAnLW1hJywgJzIwMCcsICctbWV0YWxfYmluZGluZycsICctaW1hZScsICc8aW5maWxlLm1hZT4nLCAnLW9tYWUnLCAnPG91dGZpbGUubWFlPic=

> <r_lp_tautomer_probability>
1

> <r_epik_Ionization_Penalty>
0.0507041

> <r_epik_Ionization_Penalty_Charging>
0

> <r_epik_Ionization_Penalty_Neutral>
0.0507041

> <r_epik_State_Penalty>
0.0433397

> <r_epik_Charging_Adjusted_Penalty>
0.0433397

> <i_epik_Tot_Q>
1

> <i_epik_Tot_abs_Q>
1

> <r_epik_Metal_State_Penalty>
0.385258

> <b_epik_Metal_Only>
0

> <s_lp_Force_Field>
OPLS_2005

> <r_lp_Energy>
7.33452

> <b_lp_Chiralities_Consistent>
1

> <s_lp_Variant>
AV-unprocessed.smi:1849-1

> <Gold.Version>
5.8.1

> <Gold.Id.Protein>
6NUR|6NUR_protein|mol2

> <Gold.PLP.Fitness>
45.9798

> <Gold.PLP.PLP>
-37.8473

> <Gold.PLP.part.hbond>
-2.0000

> <Gold.PLP.part.metal>
0.0000

> <Gold.PLP.part.buried>
0.9271

> <Gold.PLP.part.nonpolar>
-36.5184

> <Gold.PLP.part.repulsive>
0.1402

> <Gold.PLP.ligand.clash>
0.0000

> <Gold.PLP.ligand.torsion>
0.4447

> <Gold.PLP.Chemscore.Hbond>
2.0000

> <Gold.PLP.Chemscore.CHOScore>
1.0000

> <Gold.PLP.Chemscore.Metal>
0.0000

> <Gold.Chemscore.Hbonds>
donor molecule, donor type, donor heavy atom, donor atom, acceptor molecule, acceptor atom, score
      L1  H     5    41       P1  7948  2.00
      L1  C     3    22       P1 10175  1.00

> <Gold.PLP.Chemscore.Internal.Correction>
0.0220

> <Gold.Rescore>
     Score         DG    S(hbond)    S(metal)    S(lipo)     H(rot)  DE(clash)    DE(int)     intcor
     13.09     -16.29       1.00        0.00     101.72       1.73       1.27       1.93       ----

> <Gold.Chemscore.Fitness>
13.0870

> <Gold.Chemscore.DG>
-16.2900

> <Gold.Chemscore.ZeroCoef>
-5.4800

> <Gold.Chemscore.Hbond>
0.9967

> <Gold.Chemscore.Metal>
0.0000

> <Gold.Chemscore.Lipo>
101.7173

> <Gold.Chemscore.Internal_Hbond>
0.0000

> <Gold.Chemscore.DEClash>
1.2723

> <Gold.Chemscore.DEInternal>
1.9307

> <Gold.Chemscore.Rot>
1.7265

> <Gold.Chemscore.Internal.Correction>
   9.000000E+99

> <Gold.Chemscore.Hbonds>
donor molecule, donor type, donor heavy atom, donor atom, acceptor molecule, acceptor atom, score
      L1  H     5    41       P1  7948  0.98

> <Gold.Chemscore.Hbond.Weighted>
-3.3290

> <Gold.Chemscore.Metal.Weighted>
-0.0000

> <Gold.Chemscore.Lipo.Weighted>
-11.9009

> <Gold.Chemscore.Internal_Hbond.Weighted>
0.0000

> <Gold.Chemscore.DEClash.Weighted>
1.2723

> <Gold.Chemscore.DEInternal.Weighted>
1.9307

> <Gold.Chemscore.Rot.Weighted>
4.4199

> <Gold.Chemscore.Internal.Correction.Weighted>
   9.000000E+99

> <Gold.Protein.RotatedTorsions>
[ 6907 6896 6895 6894 ] final -134.38 input  -60.11 | X-H torsion
[ 7974 7965 7964 7962 ] final  104.53 input  175.53 | X-H torsion
[ 8008 7997 7996 7995 ] final   70.09 input   59.86 | X-H torsion
[ 10167 10162 10161 10158 ] final  -20.81 input  -65.29 | X-H torsion
[ 10718 10713 10712 10709 ] final -148.78 input   66.30 | X-H torsion
[ 10763 10752 10751 10750 ] final  -15.92 input  -60.55 | X-H torsion
[ 11005 11000 10999 10996 ] final  178.73 input  -57.11 | X-H torsion

> <Gold.Protein.ActiveResidues>
 VAL166  LYS551  ARG553  GLY616  TRP617  ASP618  TYR619  PRO620  LYS621  CYS622 
 ASP623  PHE694  ASN695  SER759  ASP760  ASP761  ALA762  ILE779  LEU786  VAL792 
 PHE793  MET794  SER795  GLU796  ALA797  LYS798  CYS799  TRP800  GLU811  SER814 

> <Gold.Protein.RotatedAtoms>
  150.9851  133.6206  159.2716 H   0  0  0  0  0  0  0  0  0  0  0  0  # atno 6907 bound_to 6896
  151.3447  135.0870  159.9392 H   0  0  0  0  0  0  0  0  0  0  0  0  # atno 6908 bound_to 6896
  152.5228  133.9456  159.7701 H   0  0  0  0  0  0  0  0  0  0  0  0  # atno 6909 bound_to 6896
  145.3315  139.2485  143.3658 H   0  0  0  0  0  0  0  0  0  0  0  0  # atno 7974 bound_to 7965
  155.7335  140.3491  155.5070 H   0  0  0  0  0  0  0  0  0  0  0  0  # atno 8008 bound_to 7997
  155.9160  140.1059  157.1265 H   0  0  0  0  0  0  0  0  0  0  0  0  # atno 8009 bound_to 7997
  154.4062  140.1258  156.4605 H   0  0  0  0  0  0  0  0  0  0  0  0  # atno 8010 bound_to 7997
  140.7278  143.4687  151.0277 H   0  0  0  0  0  0  0  0  0  0  0  0  # atno 10167 bound_to 10162
  156.4247  130.8046  151.2270 H   0  0  0  0  0  0  0  0  0  0  0  0  # atno 10718 bound_to 10713
  153.5507  135.7011  153.5593 H   0  0  0  0  0  0  0  0  0  0  0  0  # atno 10763 bound_to 10752
  153.3518  135.3993  155.1652 H   0  0  0  0  0  0  0  0  0  0  0  0  # atno 10764 bound_to 10752
  154.8661  135.3767  154.5017 H   0  0  0  0  0  0  0  0  0  0  0  0  # atno 10765 bound_to 10752
  140.3983  134.6800  157.4547 H   0  0  0  0  0  0  0  0  0  0  0  0  # atno 11005 bound_to 11000
  146.3043  140.3894  142.8692 LP  0  0  0  0  0  0  0  0  0  0  0  0  # atno 17320 bound_to 7965
  144.8860  140.7462  143.5956 LP  0  0  0  0  0  0  0  0  0  0  0  0  # atno 17321 bound_to 7965
  139.8377  143.7605  152.3180 LP  0  0  0  0  0  0  0  0  0  0  0  0  # atno 17342 bound_to 10162
  139.7743  144.7466  151.0179 LP  0  0  0  0  0  0  0  0  0  0  0  0  # atno 17343 bound_to 10162
  157.7508  131.0217  150.3761 LP  0  0  0  0  0  0  0  0  0  0  0  0  # atno 17370 bound_to 10713
  156.4086  130.3929  149.6908 LP  0  0  0  0  0  0  0  0  0  0  0  0  # atno 17371 bound_to 10713
  140.0355  134.6343  155.9049 LP  0  0  0  0  0  0  0  0  0  0  0  0  # atno 17394 bound_to 11000
  141.1866  133.6557  156.5246 LP  0  0  0  0  0  0  0  0  0  0  0  0  # atno 17395 bound_to 11000

$$$$
