AV-unprocessed.smi:752|AV-procd|sdf|3597|dock1
  -GOLD-   22720 0593D 1   1.00000     0.00000
 Structure written by MMmdl.
 41 42  0  0  0  0  0  0  0  0  1 V2000
  152.2350  145.6516  159.2955 C   0  0  0  0  0  0  0  0  0  0  0  0
  152.5523  144.6212  158.2069 C   0  0  0  0  0  0  0  0  0  0  0  0
  152.5847  143.2249  158.7313 C   0  0  0  0  0  0  0  0  0  0  0  0
  151.8120  142.2433  158.2594 N   0  0  0  0  0  0  0  0  0  0  0  0
  152.0187  141.0274  158.9212 C   0  0  0  0  0  0  0  0  0  0  0  0
  151.2770  139.7972  158.4826 C   0  0  0  0  0  0  0  0  0  0  0  0
  151.6315  139.4915  157.0274 C   0  0  0  0  0  0  0  0  0  0  0  0
  152.8104  139.4022  156.6851 O   0  0  0  0  0  0  0  0  0  0  0  0
  150.5973  139.3837  156.1785 N   0  0  0  0  0  0  0  0  0  0  0  0
  150.6918  139.3320  154.7239 C   0  0  0  0  0  0  0  0  0  0  0  0
  149.4946  140.0467  154.0622 C   0  0  2  0  0  0  0  0  0  0  0  0
  149.2536  141.4285  154.7031 C   0  0  0  0  0  0  0  0  0  0  0  0
  148.0792  142.1680  154.0406 C   0  0  0  0  0  0  0  0  0  0  0  0
  146.7956  141.3250  154.0795 C   0  0  0  0  0  0  0  0  0  0  0  0
  147.0243  139.9488  153.4336 C   0  0  2  0  0  0  0  0  0  0  0  0
  145.8511  139.1717  153.5480 O   0  0  0  0  0  0  0  0  0  0  0  0
  148.1951  139.2095  154.1031 C   0  0  0  0  0  0  0  0  0  0  0  0
  152.9439  141.1146  159.9320 C   0  0  0  0  0  0  0  0  0  0  0  0
  153.6023  142.7209  160.0754 S   0  0  0  0  0  0  0  0  0  0  0  0
  152.2184  146.6604  158.8828 H   0  0  0  0  0  0  0  0  0  0  0  0
  152.9823  145.6283  160.0890 H   0  0  0  0  0  0  0  0  0  0  0  0
  151.2609  145.4596  159.7463 H   0  0  0  0  0  0  0  0  0  0  0  0
  151.8112  144.6809  157.4089 H   0  0  0  0  0  0  0  0  0  0  0  0
  153.5178  144.8457  157.7528 H   0  0  0  0  0  0  0  0  0  0  0  0
  151.5396  138.9431  159.1080 H   0  0  0  0  0  0  0  0  0  0  0  0
  150.1988  139.9331  158.5777 H   0  0  0  0  0  0  0  0  0  0  0  0
  149.6680  139.4612  156.5659 H   0  0  0  0  0  0  0  0  0  0  0  0
  151.6310  139.7590  154.3681 H   0  0  0  0  0  0  0  0  0  0  0  0
  150.7036  138.2819  154.4306 H   0  0  0  0  0  0  0  0  0  0  0  0
  149.7495  140.2100  153.0138 H   0  0  0  0  0  0  0  0  0  0  0  0
  149.0526  141.3101  155.7686 H   0  0  0  0  0  0  0  0  0  0  0  0
  150.1549  142.0377  154.6260 H   0  0  0  0  0  0  0  0  0  0  0  0
  147.9117  143.1221  154.5410 H   0  0  0  0  0  0  0  0  0  0  0  0
  148.3319  142.4023  153.0058 H   0  0  0  0  0  0  0  0  0  0  0  0
  146.4754  141.2004  155.1150 H   0  0  0  0  0  0  0  0  0  0  0  0
  145.9907  141.8527  153.5664 H   0  0  0  0  0  0  0  0  0  0  0  0
  147.2384  140.0773  152.3717 H   0  0  0  0  0  0  0  0  0  0  0  0
  145.1957  139.5306  152.9694 H   0  0  0  0  0  0  0  0  0  0  0  0
  148.3396  138.2540  153.5989 H   0  0  0  0  0  0  0  0  0  0  0  0
  147.9444  138.9767  155.1393 H   0  0  0  0  0  0  0  0  0  0  0  0
  153.2855  140.3296  160.5906 H   0  0  0  0  0  0  0  0  0  0  0  0
  1  2  1  0  0  0  0
  1 20  1  0  0  0  0
  1 21  1  0  0  0  0
  1 22  1  0  0  0  0
  2  3  1  0  0  0  0
  2 23  1  0  0  0  0
  2 24  1  0  0  0  0
  3 19  1  0  0  0  0
  3  4  2  0  0  0  0
  4  5  1  0  0  0  0
  5  6  1  0  0  0  0
  5 18  2  0  0  0  0
  6  7  1  0  0  0  0
  6 25  1  0  0  0  0
  6 26  1  0  0  0  0
  7  8  2  0  0  0  0
  7  9  1  0  0  0  0
  9 10  1  0  0  0  0
  9 27  1  0  0  0  0
 10 11  1  0  0  0  0
 10 28  1  0  0  0  0
 10 29  1  0  0  0  0
 11 17  1  0  0  0  0
 11 12  1  0  0  0  0
 11 30  1  0  0  0  0
 12 13  1  0  0  0  0
 12 31  1  0  0  0  0
 12 32  1  0  0  0  0
 13 14  1  0  0  0  0
 13 33  1  0  0  0  0
 13 34  1  0  0  0  0
 14 15  1  0  0  0  0
 14 35  1  0  0  0  0
 14 36  1  0  0  0  0
 15 16  1  0  0  0  0
 15 17  1  0  0  0  0
 15 37  1  0  0  0  0
 16 38  1  0  0  0  0
 17 39  1  0  0  0  0
 17 40  1  0  0  0  0
 18 19  1  0  0  0  0
 18 41  1  0  0  0  0
M  END
> <s_m_source_file>
AV-unprocessed.smi

> <i_m_source_file_index>
752

> <i_lp_mmshare_version>
43012

> <i_f3d_flags>
0

> <s_epik_input>
W0NIM11bQ0gyXWMxbmMoW2NIXXMxKVtDSDJdQyg9TylbTkhdW0NIMl1bQ0BASF0yW0NIMl1bQ0gyXVtDSDJdW0NAQEhdKFtPSF0pW0NIMl0y

> <s_epik_cmdline>
J2VwaWtfcHl0aG9uJywgJy1waCcsICc3LjAnLCAnLXRuJywgJzgnLCAnLW1hJywgJzIwMCcsICctbWV0YWxfYmluZGluZycsICctaW1hZScsICc8aW5maWxlLm1hZT4nLCAnLW9tYWUnLCAnPG91dGZpbGUubWFlPic=

> <r_lp_tautomer_probability>
1

> <r_epik_Ionization_Penalty>
5.44903e-05

> <r_epik_Ionization_Penalty_Charging>
0

> <r_epik_Ionization_Penalty_Neutral>
5.44903e-05

> <r_epik_State_Penalty>
-0

> <r_epik_Charging_Adjusted_Penalty>
0

> <i_epik_Tot_Q>
0

> <i_epik_Tot_abs_Q>
0

> <r_epik_Metal_State_Penalty>
-0

> <b_epik_Metal_Only>
0

> <s_lp_Force_Field>
OPLS_2005

> <r_lp_Energy>
2.70877

> <b_lp_Chiralities_Consistent>
1

> <s_lp_Variant>
AV-unprocessed.smi:752-3

> <Gold.Version>
5.8.1

> <Gold.Id.Protein>
6NUR|6NUR_protein|mol2

> <Gold.PLP.Fitness>
48.9755

> <Gold.PLP.PLP>
-43.6045

> <Gold.PLP.part.hbond>
-2.0000

> <Gold.PLP.part.metal>
0.0000

> <Gold.PLP.part.buried>
-0.7611

> <Gold.PLP.part.nonpolar>
-40.2791

> <Gold.PLP.part.repulsive>
0.0612

> <Gold.PLP.ligand.clash>
0.0000

> <Gold.PLP.ligand.torsion>
0.3343

> <Gold.PLP.Chemscore.Hbond>
2.0000

> <Gold.PLP.Chemscore.CHOScore>
0.0000

> <Gold.PLP.Chemscore.Metal>
0.0000

> <Gold.Chemscore.Hbonds>
donor molecule, donor type, donor heavy atom, donor atom, acceptor molecule, acceptor atom, score
      L1  H    16    38       P1 10175  1.00
      P1  H  7997  8010       L1     8  1.00

> <Gold.PLP.Chemscore.Internal.Correction>
0.0396

> <Gold.Rescore>
     Score         DG    S(hbond)    S(metal)    S(lipo)     H(rot)  DE(clash)    DE(int)     intcor
     20.18     -20.77       1.99        0.00     119.44       2.08       0.34       0.25       ----

> <Gold.Chemscore.Fitness>
20.1808

> <Gold.Chemscore.DG>
-20.7697

> <Gold.Chemscore.ZeroCoef>
-5.4800

> <Gold.Chemscore.Hbond>
1.9913

> <Gold.Chemscore.Metal>
0.0000

> <Gold.Chemscore.Lipo>
119.4352

> <Gold.Chemscore.Internal_Hbond>
0.0000

> <Gold.Chemscore.DEClash>
0.3377

> <Gold.Chemscore.DEInternal>
0.2512

> <Gold.Chemscore.Rot>
2.0840

> <Gold.Chemscore.Internal.Correction>
   9.000000E+99

> <Gold.Chemscore.Hbonds>
donor molecule, donor type, donor heavy atom, donor atom, acceptor molecule, acceptor atom, score
      L1  H    16    38       P1 10175  0.99
      P1  H  7997  8010       L1     8  0.99

> <Gold.Chemscore.Hbond.Weighted>
-6.6508

> <Gold.Chemscore.Metal.Weighted>
-0.0000

> <Gold.Chemscore.Lipo.Weighted>
-13.9739

> <Gold.Chemscore.Internal_Hbond.Weighted>
0.0000

> <Gold.Chemscore.DEClash.Weighted>
0.3377

> <Gold.Chemscore.DEInternal.Weighted>
0.2512

> <Gold.Chemscore.Rot.Weighted>
5.3350

> <Gold.Chemscore.Internal.Correction.Weighted>
   9.000000E+99

> <Gold.Protein.RotatedTorsions>
[ 6907 6896 6895 6894 ] final  116.03 input  -60.11 | X-H torsion
[ 7974 7965 7964 7962 ] final   -0.80 input  175.53 | X-H torsion
[ 8008 7997 7996 7995 ] final   51.68 input   59.86 | X-H torsion
[ 10167 10162 10161 10158 ] final -158.24 input  -65.29 | X-H torsion
[ 10718 10713 10712 10709 ] final  -52.30 input   66.30 | X-H torsion
[ 10763 10752 10751 10750 ] final  165.42 input  -60.55 | X-H torsion
[ 11005 11000 10999 10996 ] final -100.71 input  -57.11 | X-H torsion

> <Gold.Protein.ActiveResidues>
 VAL166  LYS551  ARG553  GLY616  TRP617  ASP618  TYR619  PRO620  LYS621  CYS622 
 ASP623  PHE694  ASN695  SER759  ASP760  ASP761  ALA762  ILE779  LEU786  VAL792 
 PHE793  MET794  SER795  GLU796  ALA797  LYS798  CYS799  TRP800  GLU811  SER814 

> <Gold.Protein.RotatedAtoms>
  152.4704  133.8017  159.6956 H   0  0  0  0  0  0  0  0  0  0  0  0  # atno 6907 bound_to 6896
  150.8690  133.7523  159.2974 H   0  0  0  0  0  0  0  0  0  0  0  0  # atno 6908 bound_to 6896
  151.5064  135.1067  159.9894 H   0  0  0  0  0  0  0  0  0  0  0  0  # atno 6909 bound_to 6896
  146.2424  140.1325  142.8337 H   0  0  0  0  0  0  0  0  0  0  0  0  # atno 7974 bound_to 7965
  155.4393  140.3454  155.4288 H   0  0  0  0  0  0  0  0  0  0  0  0  # atno 8008 bound_to 7997
  156.1289  140.1508  156.9126 H   0  0  0  0  0  0  0  0  0  0  0  0  # atno 8009 bound_to 7997
  154.4879  140.0850  156.7508 H   0  0  0  0  0  0  0  0  0  0  0  0  # atno 8010 bound_to 7997
  139.6707  143.9749  152.2282 H   0  0  0  0  0  0  0  0  0  0  0  0  # atno 10167 bound_to 10162
  156.1633  130.4149  149.9759 H   0  0  0  0  0  0  0  0  0  0  0  0  # atno 10718 bound_to 10713
  154.3237  135.2755  155.2507 H   0  0  0  0  0  0  0  0  0  0  0  0  # atno 10763 bound_to 10752
  154.4849  135.5849  153.6420 H   0  0  0  0  0  0  0  0  0  0  0  0  # atno 10764 bound_to 10752
  152.9874  135.6120  154.3423 H   0  0  0  0  0  0  0  0  0  0  0  0  # atno 10765 bound_to 10752
  141.1260  133.8421  157.1138 H   0  0  0  0  0  0  0  0  0  0  0  0  # atno 11005 bound_to 11000
  145.0314  140.8874  143.5107 LP  0  0  0  0  0  0  0  0  0  0  0  0  # atno 17320 bound_to 7965
  145.1390  139.2584  143.5500 LP  0  0  0  0  0  0  0  0  0  0  0  0  # atno 17321 bound_to 7965
  139.9513  144.6618  150.8169 LP  0  0  0  0  0  0  0  0  0  0  0  0  # atno 17342 bound_to 10162
  140.7617  143.3180  151.2687 LP  0  0  0  0  0  0  0  0  0  0  0  0  # atno 17343 bound_to 10162
  156.7581  130.9140  151.3640 LP  0  0  0  0  0  0  0  0  0  0  0  0  # atno 17370 bound_to 10713
  157.6749  130.9085  150.0127 LP  0  0  0  0  0  0  0  0  0  0  0  0  # atno 17371 bound_to 10713
  140.0258  134.9924  157.0684 LP  0  0  0  0  0  0  0  0  0  0  0  0  # atno 17394 bound_to 11000
  140.4364  134.1726  155.7171 LP  0  0  0  0  0  0  0  0  0  0  0  0  # atno 17395 bound_to 11000

$$$$
