AV-unprocessed.smi:1406|AV-procd|sdf|5716|dock7
  -GOLD-   22720 5353D 1   1.00000     0.00000
 Structure written by MMmdl.
 41 43  0  0  0  0  0  0  0  0  2 V2000
  149.7005  132.6845  154.3065 C   0  0  0  0  0  0  0  0  0  0  0  0
  148.9475  134.0054  154.5642 C   0  0  1  0  0  0  0  0  0  0  0  0
  147.4856  133.9607  154.0913 C   0  0  0  0  0  0  0  0  0  0  0  0
  146.6976  133.1350  154.5535 O   0  0  0  0  0  0  0  0  0  0  0  0
  147.1366  134.8581  153.1549 N   0  0  0  0  0  0  0  0  0  0  0  0
  145.7964  135.0132  152.5927 C   0  0  1  0  0  0  0  0  0  0  0  0
  145.6760  136.2271  151.6517 C   0  0  0  0  0  0  0  0  0  0  0  0
  144.7889  135.7373  150.5025 C   0  0  0  0  0  0  0  0  0  0  0  0
  145.1578  134.3218  150.3856 N   0  3  2  0  0  0  0  0  0  0  0  0
  144.3328  133.4427  149.5325 C   0  0  0  0  0  0  0  0  0  0  0  0
  145.0346  132.0714  149.4259 C   0  0  0  0  0  0  0  0  0  0  0  0
  145.3801  131.4801  150.8118 C   0  0  0  0  0  0  0  0  0  0  0  0
  146.1266  132.4973  151.7025 C   0  0  0  0  0  0  0  0  0  0  0  0
  145.3146  133.8038  151.7558 C   0  0  1  0  0  0  0  0  0  0  0  0
  149.0147  134.4104  155.9630 N   0  0  0  0  0  0  0  0  0  0  0  0
  150.0750  134.6649  156.7328 C   0  0  0  0  0  0  0  0  0  0  0  0
  149.7679  135.0574  157.9610 N   0  0  0  0  0  0  0  0  0  0  0  0
  148.4048  135.0293  157.8751 C   0  0  0  0  0  0  0  0  0  0  0  0
  147.9018  134.6596  156.6975 N   0  0  0  0  0  0  0  0  0  0  0  0
  149.6884  132.4254  153.2470 H   0  0  0  0  0  0  0  0  0  0  0  0
  149.2644  131.8489  154.8558 H   0  0  0  0  0  0  0  0  0  0  0  0
  150.7446  132.7682  154.6094 H   0  0  0  0  0  0  0  0  0  0  0  0
  149.4502  134.7796  153.9824 H   0  0  0  0  0  0  0  0  0  0  0  0
  147.8463  135.4977  152.8280 H   0  0  0  0  0  0  0  0  0  0  0  0
  145.0898  135.1619  153.4120 H   0  0  0  0  0  0  0  0  0  0  0  0
  145.2665  137.1067  152.1496 H   0  0  0  0  0  0  0  0  0  0  0  0
  146.6564  136.4994  151.2571 H   0  0  0  0  0  0  0  0  0  0  0  0
  143.7337  135.8234  150.7667 H   0  0  0  0  0  0  0  0  0  0  0  0
  144.9612  136.2830  149.5745 H   0  0  0  0  0  0  0  0  0  0  0  0
  143.3325  133.3378  149.9551 H   0  0  0  0  0  0  0  0  0  0  0  0
  144.2225  133.8870  148.5427 H   0  0  0  0  0  0  0  0  0  0  0  0
  144.4096  131.3741  148.8670 H   0  0  0  0  0  0  0  0  0  0  0  0
  145.9543  132.1852  148.8505 H   0  0  0  0  0  0  0  0  0  0  0  0
  144.4587  131.1757  151.3100 H   0  0  0  0  0  0  0  0  0  0  0  0
  145.9772  130.5752  150.6948 H   0  0  0  0  0  0  0  0  0  0  0  0
  146.2552  132.0834  152.7028 H   0  0  0  0  0  0  0  0  0  0  0  0
  147.1244  132.6849  151.3033 H   0  0  0  0  0  0  0  0  0  0  0  0
  144.3174  133.5582  152.1278 H   0  0  0  0  0  0  0  0  0  0  0  0
  151.0933  134.5652  156.3864 H   0  0  0  0  0  0  0  0  0  0  0  0
  147.7644  135.2960  158.7029 H   0  0  0  0  0  0  0  0  0  0  0  0
  146.0836  134.3213  149.9817 H   0  0  0  0  0  0  0  0  0  0  0  0
  1  2  1  0  0  0  0
  1 20  1  0  0  0  0
  1 21  1  0  0  0  0
  1 22  1  0  0  0  0
  2  3  1  0  0  0  0
  2 15  1  0  0  0  0
  2 23  1  0  0  0  0
  3  4  2  0  0  0  0
  3  5  1  0  0  0  0
  5  6  1  0  0  0  0
  5 24  1  0  0  0  0
  6 14  1  0  0  0  0
  6  7  1  0  0  0  0
  6 25  1  0  0  0  0
  7  8  1  0  0  0  0
  7 26  1  0  0  0  0
  7 27  1  0  0  0  0
  8  9  1  0  0  0  0
  8 28  1  0  0  0  0
  8 29  1  0  0  0  0
  9 14  1  0  0  0  0
  9 10  1  0  0  0  0
  9 41  1  0  0  0  0
 10 11  1  0  0  0  0
 10 30  1  0  0  0  0
 10 31  1  0  0  0  0
 11 12  1  0  0  0  0
 11 32  1  0  0  0  0
 11 33  1  0  0  0  0
 12 13  1  0  0  0  0
 12 34  1  0  0  0  0
 12 35  1  0  0  0  0
 13 14  1  0  0  0  0
 13 36  1  0  0  0  0
 13 37  1  0  0  0  0
 14 38  1  0  0  0  0
 15 19  1  0  0  0  0
 15 16  1  0  0  0  0
 16 17  2  0  0  0  0
 16 39  1  0  0  0  0
 17 18  1  0  0  0  0
 18 19  2  0  0  0  0
 18 40  1  0  0  0  0
M  CHG  1   9   1
M  END
> <s_m_source_file>
AV-unprocessed.smi

> <i_m_source_file_index>
1406

> <i_lp_mmshare_version>
43012

> <i_f3d_flags>
0

> <s_epik_input>
bjFbY0hdbltjSF1uMVtDQEhdKFtDSDNdKUMoPU8pW05IXVtDQEhdKFtDSDJdW0NIMl0yKVtDQEBIXShOMjMpW0NIMl1bQ0gyXVtDSDJdW0NIMl0z

> <s_epik_cmdline>
J2VwaWtfcHl0aG9uJywgJy1waCcsICc3LjAnLCAnLXRuJywgJzgnLCAnLW1hJywgJzIwMCcsICctbWV0YWxfYmluZGluZycsICctaW1hZScsICc8aW5maWxlLm1hZT4nLCAnLW9tYWUnLCAnPG91dGZpbGUubWFlPic=

> <r_lp_tautomer_probability>
1

> <r_epik_Ionization_Penalty>
0.00197066

> <r_epik_Ionization_Penalty_Charging>
0.00196223

> <r_epik_Ionization_Penalty_Neutral>
8.43107e-06

> <r_epik_State_Penalty>
0.00133866

> <r_epik_Charging_Adjusted_Penalty>
0.00330089

> <i_epik_Tot_Q>
1

> <i_epik_Tot_abs_Q>
1

> <r_epik_Metal_State_Penalty>
-0

> <b_epik_Metal_Only>
0

> <s_lp_Force_Field>
OPLS_2005

> <r_lp_Energy>
47.4686

> <b_lp_Chiralities_Consistent>
1

> <s_lp_Variant>
AV-unprocessed.smi:1406-8

> <Gold.Version>
5.8.1

> <Gold.Id.Protein>
6NUR|6NUR_protein|mol2

> <Gold.PLP.Fitness>
34.6138

> <Gold.PLP.PLP>
-28.6435

> <Gold.PLP.part.hbond>
-3.0000

> <Gold.PLP.part.metal>
0.0000

> <Gold.PLP.part.buried>
-1.6450

> <Gold.PLP.part.nonpolar>
-24.5492

> <Gold.PLP.part.repulsive>
0.1062

> <Gold.PLP.ligand.clash>
0.0000

> <Gold.PLP.ligand.torsion>
0.1027

> <Gold.PLP.Chemscore.Hbond>
2.0266

> <Gold.PLP.Chemscore.CHOScore>
0.0000

> <Gold.PLP.Chemscore.Metal>
0.0000

> <Gold.Chemscore.Hbonds>
donor molecule, donor type, donor heavy atom, donor atom, acceptor molecule, acceptor atom, score
      L1  H     5    24       P1  7948  1.00
      L1  H     9    41       P1  7921  0.03
      P1  H  6896  6908       L1    17  1.00

> <Gold.PLP.Chemscore.Internal.Correction>
0.0961

> <Gold.Rescore>
     Score         DG    S(hbond)    S(metal)    S(lipo)     H(rot)  DE(clash)    DE(int)     intcor
     13.84     -15.34       1.92        0.00      70.60       1.89       0.04       1.46       ----

> <Gold.Chemscore.Fitness>
13.8430

> <Gold.Chemscore.DG>
-15.3398

> <Gold.Chemscore.ZeroCoef>
-5.4800

> <Gold.Chemscore.Hbond>
1.9249

> <Gold.Chemscore.Metal>
0.0000

> <Gold.Chemscore.Lipo>
70.6013

> <Gold.Chemscore.Internal_Hbond>
0.0000

> <Gold.Chemscore.DEClash>
0.0398

> <Gold.Chemscore.DEInternal>
1.4570

> <Gold.Chemscore.Rot>
1.8865

> <Gold.Chemscore.Internal.Correction>
   9.000000E+99

> <Gold.Chemscore.Hbonds>
donor molecule, donor type, donor heavy atom, donor atom, acceptor molecule, acceptor atom, score
      L1  H     5    24       P1  7948  0.99
      L1  H     9    41       P1  7921  0.01
      P1  H  6896  6908       L1    17  0.91

> <Gold.Chemscore.Hbond.Weighted>
-6.4290

> <Gold.Chemscore.Metal.Weighted>
-0.0000

> <Gold.Chemscore.Lipo.Weighted>
-8.2604

> <Gold.Chemscore.Internal_Hbond.Weighted>
0.0000

> <Gold.Chemscore.DEClash.Weighted>
0.0398

> <Gold.Chemscore.DEInternal.Weighted>
1.4570

> <Gold.Chemscore.Rot.Weighted>
4.8295

> <Gold.Chemscore.Internal.Correction.Weighted>
   9.000000E+99

> <Gold.Protein.RotatedTorsions>
[ 6907 6896 6895 6894 ] final  152.48 input  -60.11 | X-H torsion
[ 7974 7965 7964 7962 ] final -128.96 input  175.53 | X-H torsion
[ 8008 7997 7996 7995 ] final   66.96 input   59.86 | X-H torsion
[ 10167 10162 10161 10158 ] final   65.75 input  -65.29 | X-H torsion
[ 10718 10713 10712 10709 ] final   79.18 input   66.30 | X-H torsion
[ 10763 10752 10751 10750 ] final    3.10 input  -60.55 | X-H torsion
[ 11005 11000 10999 10996 ] final  -17.47 input  -57.11 | X-H torsion

> <Gold.Protein.ActiveResidues>
 VAL166  LYS551  ARG553  GLY616  TRP617  ASP618  TYR619  PRO620  LYS621  CYS622 
 ASP623  PHE694  ASN695  SER759  ASP760  ASP761  ALA762  ILE779  LEU786  VAL792 
 PHE793  MET794  SER795  GLU796  ALA797  LYS798  CYS799  TRP800  GLU811  SER814 

> <Gold.Protein.RotatedAtoms>
  152.0861  133.4177  159.4522 H   0  0  0  0  0  0  0  0  0  0  0  0  # atno 6907 bound_to 6896
  150.6862  134.2926  159.4682 H   0  0  0  0  0  0  0  0  0  0  0  0  # atno 6908 bound_to 6896
  152.0772  134.9494  160.0624 H   0  0  0  0  0  0  0  0  0  0  0  0  # atno 6909 bound_to 6896
  144.9619  140.7455  143.4724 H   0  0  0  0  0  0  0  0  0  0  0  0  # atno 7974 bound_to 7965
  155.6855  140.3496  155.4872 H   0  0  0  0  0  0  0  0  0  0  0  0  # atno 8008 bound_to 7997
  155.9570  140.1130  157.0951 H   0  0  0  0  0  0  0  0  0  0  0  0  # atno 8009 bound_to 7997
  154.4134  140.1183  156.5114 H   0  0  0  0  0  0  0  0  0  0  0  0  # atno 8010 bound_to 7997
  140.1079  144.4845  150.6996 H   0  0  0  0  0  0  0  0  0  0  0  0  # atno 10167 bound_to 10162
  157.6768  130.9902  150.1894 H   0  0  0  0  0  0  0  0  0  0  0  0  # atno 10718 bound_to 10713
  153.2875  135.6946  153.7325 H   0  0  0  0  0  0  0  0  0  0  0  0  # atno 10763 bound_to 10752
  153.6289  135.3414  155.3036 H   0  0  0  0  0  0  0  0  0  0  0  0  # atno 10764 bound_to 10752
  154.8514  135.4404  154.1947 H   0  0  0  0  0  0  0  0  0  0  0  0  # atno 10765 bound_to 10752
  140.8171  133.8096  155.9622 H   0  0  0  0  0  0  0  0  0  0  0  0  # atno 11005 bound_to 11000
  145.2687  139.1963  143.4853 LP  0  0  0  0  0  0  0  0  0  0  0  0  # atno 17320 bound_to 7965
  146.3355  140.2630  142.8602 LP  0  0  0  0  0  0  0  0  0  0  0  0  # atno 17321 bound_to 7965
  140.6942  143.2394  151.5047 LP  0  0  0  0  0  0  0  0  0  0  0  0  # atno 17342 bound_to 10162
  139.5635  144.2098  152.1729 LP  0  0  0  0  0  0  0  0  0  0  0  0  # atno 17343 bound_to 10162
  156.2609  130.3711  149.8131 LP  0  0  0  0  0  0  0  0  0  0  0  0  # atno 17370 bound_to 10713
  156.5877  130.8493  151.3400 LP  0  0  0  0  0  0  0  0  0  0  0  0  # atno 17371 bound_to 10713
  140.9137  134.2228  157.4970 LP  0  0  0  0  0  0  0  0  0  0  0  0  # atno 17394 bound_to 11000
  139.8710  134.9762  156.4911 LP  0  0  0  0  0  0  0  0  0  0  0  0  # atno 17395 bound_to 11000

$$$$
