AV-unprocessed.smi:1295|AV-procd|sdf|5404|dock5
  -GOLD-   22720 4563D 1   1.00000     0.00000
 Structure written by MMmdl.
 43 44  0  0  0  0  0  0  0  0  1 V2000
  147.1270  140.3094  153.0473 C   0  0  0  0  0  0  0  0  0  0  0  0
  147.9628  139.8880  154.2374 C   0  0  0  0  0  0  0  0  0  0  0  0
  147.4688  139.5680  155.3879 N   0  0  0  0  0  0  0  0  0  0  0  0
  148.3449  139.1978  156.4177 C   0  0  0  0  0  0  0  0  0  0  0  0
  147.6891  138.8438  157.7416 C   0  0  0  0  0  0  0  0  0  0  0  0
  149.6971  139.1643  156.2302 C   0  0  0  0  0  0  0  0  0  0  0  0
  150.6757  138.7698  157.3351 C   0  0  0  0  0  0  0  0  0  0  0  0
  151.6487  139.8653  157.7772 C   0  0  0  0  0  0  0  0  0  0  0  0
  152.8616  139.7093  157.6363 O   0  0  0  0  0  0  0  0  0  0  0  0
  151.0978  140.9698  158.3041 N   0  0  0  0  0  0  0  0  0  0  0  0
  151.8192  142.1590  158.7549 C   0  0  1  0  0  0  0  0  0  0  0  0
  150.8344  143.3443  158.7959 C   0  0  0  0  0  0  0  0  0  0  0  0
  151.5032  144.6215  159.3235 C   0  0  0  0  0  0  0  0  0  0  0  0
  152.1247  144.3828  160.7059 C   0  0  0  0  0  0  0  0  0  0  0  0
  153.1223  143.2155  160.6665 C   0  0  0  0  0  0  0  0  0  0  0  0
  152.4736  141.9189  160.1399 C   0  0  2  0  0  0  0  0  0  0  0  0
  153.5023  140.7739  160.1203 C   0  0  0  0  0  0  0  0  0  0  0  0
  150.2500  139.5289  154.9113 C   0  0  0  0  0  0  0  0  0  0  0  0
  151.4484  139.5360  154.6341 O   0  0  0  0  0  0  0  0  0  0  0  0
  149.3327  139.8753  153.9805 N   0  0  0  0  0  0  0  0  0  0  0  0
  149.6612  140.1365  153.0624 H   0  0  0  0  0  0  0  0  0  0  0  0
  146.5481  141.1999  153.2930 H   0  0  0  0  0  0  0  0  0  0  0  0
  146.4333  139.5133  152.7750 H   0  0  0  0  0  0  0  0  0  0  0  0
  147.7469  140.5343  152.1781 H   0  0  0  0  0  0  0  0  0  0  0  0
  147.8907  137.8051  158.0033 H   0  0  0  0  0  0  0  0  0  0  0  0
  146.6070  138.9717  157.6942 H   0  0  0  0  0  0  0  0  0  0  0  0
  148.0641  139.4831  158.5408 H   0  0  0  0  0  0  0  0  0  0  0  0
  150.0999  138.4362  158.1992 H   0  0  0  0  0  0  0  0  0  0  0  0
  151.2599  137.8978  157.0394 H   0  0  0  0  0  0  0  0  0  0  0  0
  150.0915  140.9985  158.3817 H   0  0  0  0  0  0  0  0  0  0  0  0
  152.6084  142.4115  158.0440 H   0  0  0  0  0  0  0  0  0  0  0  0
  150.4312  143.5281  157.7991 H   0  0  0  0  0  0  0  0  0  0  0  0
  149.9828  143.0960  159.4312 H   0  0  0  0  0  0  0  0  0  0  0  0
  152.2741  144.9482  158.6245 H   0  0  0  0  0  0  0  0  0  0  0  0
  150.7724  145.4288  159.3780 H   0  0  0  0  0  0  0  0  0  0  0  0
  152.6253  145.2882  161.0505 H   0  0  0  0  0  0  0  0  0  0  0  0
  151.3381  144.1685  161.4304 H   0  0  0  0  0  0  0  0  0  0  0  0
  153.9695  143.4855  160.0345 H   0  0  0  0  0  0  0  0  0  0  0  0
  153.5256  143.0510  161.6663 H   0  0  0  0  0  0  0  0  0  0  0  0
  151.6867  141.6385  160.8419 H   0  0  0  0  0  0  0  0  0  0  0  0
  154.2992  140.9718  159.4026 H   0  0  0  0  0  0  0  0  0  0  0  0
  153.0428  139.8226  159.8524 H   0  0  0  0  0  0  0  0  0  0  0  0
  153.9624  140.6435  161.1000 H   0  0  0  0  0  0  0  0  0  0  0  0
  1  2  1  0  0  0  0
  1 22  1  0  0  0  0
  1 23  1  0  0  0  0
  1 24  1  0  0  0  0
  2 20  1  0  0  0  0
  2  3  2  0  0  0  0
  3  4  1  0  0  0  0
  4  5  1  0  0  0  0
  4  6  2  0  0  0  0
  5 25  1  0  0  0  0
  5 26  1  0  0  0  0
  5 27  1  0  0  0  0
  6  7  1  0  0  0  0
  6 18  1  0  0  0  0
  7  8  1  0  0  0  0
  7 28  1  0  0  0  0
  7 29  1  0  0  0  0
  8  9  2  0  0  0  0
  8 10  1  0  0  0  0
 10 11  1  0  0  0  0
 10 30  1  0  0  0  0
 11 16  1  0  0  0  0
 11 12  1  0  0  0  0
 11 31  1  0  0  0  0
 12 13  1  0  0  0  0
 12 32  1  0  0  0  0
 12 33  1  0  0  0  0
 13 14  1  0  0  0  0
 13 34  1  0  0  0  0
 13 35  1  0  0  0  0
 14 15  1  0  0  0  0
 14 36  1  0  0  0  0
 14 37  1  0  0  0  0
 15 16  1  0  0  0  0
 15 38  1  0  0  0  0
 15 39  1  0  0  0  0
 16 17  1  0  0  0  0
 16 40  1  0  0  0  0
 17 41  1  0  0  0  0
 17 42  1  0  0  0  0
 17 43  1  0  0  0  0
 18 19  2  0  0  0  0
 18 20  1  0  0  0  0
 20 21  1  0  0  0  0
M  END
> <s_m_source_file>
AV-unprocessed.smi

> <i_m_source_file_index>
1295

> <i_lp_mmshare_version>
43012

> <i_f3d_flags>
0

> <s_epik_input>
W0NIM11jMW5jKFtDSDNdKWMoYyg9TylbbkhdMSlbQ0gyXUMoPU8pW05IXVtDQEBIXTJbQ0gyXVtDSDJdW0NIMl1bQ0gyXVtDQEhdMltDSDNd

> <s_epik_cmdline>
J2VwaWtfcHl0aG9uJywgJy1waCcsICc3LjAnLCAnLXRuJywgJzgnLCAnLW1hJywgJzIwMCcsICctbWV0YWxfYmluZGluZycsICctaW1hZScsICc8aW5maWxlLm1hZT4nLCAnLW9tYWUnLCAnPG91dGZpbGUubWFlPic=

> <r_lp_tautomer_probability>
0.839158

> <r_epik_Ionization_Penalty>
0.00037085

> <r_epik_Ionization_Penalty_Charging>
0.000336002

> <r_epik_Ionization_Penalty_Neutral>
3.48485e-05

> <r_epik_State_Penalty>
0.09125

> <r_epik_Charging_Adjusted_Penalty>
0.091586

> <i_epik_Tot_Q>
0

> <i_epik_Tot_abs_Q>
0

> <r_epik_Metal_State_Penalty>
0.251445

> <b_epik_Metal_Only>
0

> <s_lp_Force_Field>
OPLS_2005

> <r_lp_Energy>
11.9106

> <b_lp_Chiralities_Consistent>
1

> <s_lp_Variant>
AV-unprocessed.smi:1295-4

> <Gold.Version>
5.8.1

> <Gold.Id.Protein>
6NUR|6NUR_protein|mol2

> <Gold.PLP.Fitness>
42.8962

> <Gold.PLP.PLP>
-34.4795

> <Gold.PLP.part.hbond>
-3.0000

> <Gold.PLP.part.metal>
0.0000

> <Gold.PLP.part.buried>
-5.4815

> <Gold.PLP.part.nonpolar>
-25.9995

> <Gold.PLP.part.repulsive>
0.3776

> <Gold.PLP.ligand.clash>
0.0000

> <Gold.PLP.ligand.torsion>
0.2818

> <Gold.PLP.Chemscore.Hbond>
2.9920

> <Gold.PLP.Chemscore.CHOScore>
0.0000

> <Gold.PLP.Chemscore.Metal>
0.0000

> <Gold.Chemscore.Hbonds>
donor molecule, donor type, donor heavy atom, donor atom, acceptor molecule, acceptor atom, score
      L1  H    20    21       P1  7957  1.00
      P1  H  7989  7998       L1    19  1.00
      P1  H  7997  8009       L1     9  1.00

> <Gold.PLP.Chemscore.Internal.Correction>
0.0042

> <Gold.Rescore>
     Score         DG    S(hbond)    S(metal)    S(lipo)     H(rot)  DE(clash)    DE(int)     intcor
     20.15     -21.89       2.96        0.00      88.02       1.48       0.08       1.66       ----

> <Gold.Chemscore.Fitness>
20.1458

> <Gold.Chemscore.DG>
-21.8915

> <Gold.Chemscore.ZeroCoef>
-5.4800

> <Gold.Chemscore.Hbond>
2.9647

> <Gold.Chemscore.Metal>
0.0000

> <Gold.Chemscore.Lipo>
88.0216

> <Gold.Chemscore.Internal_Hbond>
0.0000

> <Gold.Chemscore.DEClash>
0.0824

> <Gold.Chemscore.DEInternal>
1.6632

> <Gold.Chemscore.Rot>
1.4801

> <Gold.Chemscore.Internal.Correction>
   9.000000E+99

> <Gold.Chemscore.Hbonds>
donor molecule, donor type, donor heavy atom, donor atom, acceptor molecule, acceptor atom, score
      L1  H    20    21       P1  7957  0.97
      P1  H  7989  7998       L1    19  0.50
      P1  H  7997  8009       L1     9  0.99

> <Gold.Chemscore.Hbond.Weighted>
-9.9021

> <Gold.Chemscore.Metal.Weighted>
-0.0000

> <Gold.Chemscore.Lipo.Weighted>
-10.2985

> <Gold.Chemscore.Internal_Hbond.Weighted>
0.0000

> <Gold.Chemscore.DEClash.Weighted>
0.0824

> <Gold.Chemscore.DEInternal.Weighted>
1.6632

> <Gold.Chemscore.Rot.Weighted>
3.7891

> <Gold.Chemscore.Internal.Correction.Weighted>
   9.000000E+99

> <Gold.Protein.RotatedTorsions>
[ 6907 6896 6895 6894 ] final  -24.86 input  -60.11 | X-H torsion
[ 7974 7965 7964 7962 ] final  172.21 input  175.53 | X-H torsion
[ 8008 7997 7996 7995 ] final  179.07 input   59.86 | X-H torsion
[ 10167 10162 10161 10158 ] final   49.42 input  -65.29 | X-H torsion
[ 10718 10713 10712 10709 ] final -157.76 input   66.30 | X-H torsion
[ 10763 10752 10751 10750 ] final   24.04 input  -60.55 | X-H torsion
[ 11005 11000 10999 10996 ] final    8.07 input  -57.11 | X-H torsion

> <Gold.Protein.ActiveResidues>
 VAL166  LYS551  ARG553  GLY616  TRP617  ASP618  TYR619  PRO620  LYS621  CYS622 
 ASP623  PHE694  ASN695  SER759  ASP760  ASP761  ALA762  ILE779  LEU786  VAL792 
 PHE793  MET794  SER795  GLU796  ALA797  LYS798  CYS799  TRP800  GLU811  SER814 

> <Gold.Protein.RotatedAtoms>
  151.1835  135.0371  159.8802 H   0  0  0  0  0  0  0  0  0  0  0  0  # atno 6907 bound_to 6896
  152.5443  134.1036  159.8339 H   0  0  0  0  0  0  0  0  0  0  0  0  # atno 6908 bound_to 6896
  151.1156  133.5094  159.2636 H   0  0  0  0  0  0  0  0  0  0  0  0  # atno 6909 bound_to 6896
  144.7274  139.9464  143.6430 H   0  0  0  0  0  0  0  0  0  0  0  0  # atno 7974 bound_to 7965
  156.0476  140.1318  157.0086 H   0  0  0  0  0  0  0  0  0  0  0  0  # atno 8008 bound_to 7997
  154.4419  140.1017  156.6399 H   0  0  0  0  0  0  0  0  0  0  0  0  # atno 8009 bound_to 7997
  155.5572  140.3464  155.4485 H   0  0  0  0  0  0  0  0  0  0  0  0  # atno 8010 bound_to 7997
  140.2831  144.3133  150.6259 H   0  0  0  0  0  0  0  0  0  0  0  0  # atno 10167 bound_to 10162
  156.5448  130.8579  151.2761 H   0  0  0  0  0  0  0  0  0  0  0  0  # atno 10718 bound_to 10713
  153.0793  135.6614  154.0078 H   0  0  0  0  0  0  0  0  0  0  0  0  # atno 10763 bound_to 10752
  153.9704  135.2965  155.3429 H   0  0  0  0  0  0  0  0  0  0  0  0  # atno 10764 bound_to 10752
  154.7189  135.5173  153.8852 H   0  0  0  0  0  0  0  0  0  0  0  0  # atno 10765 bound_to 10752
  140.5412  134.0373  155.7904 H   0  0  0  0  0  0  0  0  0  0  0  0  # atno 11005 bound_to 11000
  146.0745  139.3733  143.0502 LP  0  0  0  0  0  0  0  0  0  0  0  0  # atno 17320 bound_to 7965
  145.7924  140.9808  143.1042 LP  0  0  0  0  0  0  0  0  0  0  0  0  # atno 17321 bound_to 7965
  140.5795  143.2174  151.7454 LP  0  0  0  0  0  0  0  0  0  0  0  0  # atno 17342 bound_to 10162
  139.4957  144.4101  152.0090 LP  0  0  0  0  0  0  0  0  0  0  0  0  # atno 17343 bound_to 10162
  157.7398  130.9839  150.2340 LP  0  0  0  0  0  0  0  0  0  0  0  0  # atno 17370 bound_to 10713
  156.2938  130.3749  149.7816 LP  0  0  0  0  0  0  0  0  0  0  0  0  # atno 17371 bound_to 10713
  141.1226  133.9436  157.2699 LP  0  0  0  0  0  0  0  0  0  0  0  0  # atno 17394 bound_to 11000
  139.9503  135.0176  156.8974 LP  0  0  0  0  0  0  0  0  0  0  0  0  # atno 17395 bound_to 11000

$$$$
