AV-unprocessed.smi:2967|AV-procd|sdf|11326|dock6
  -GOLD-   2272016233D 1   1.00000     0.00000
 Structure written by MMmdl.
 38 39  0  0  0  0  0  0  0  0  1 V2000
  150.9940  140.4914  155.3093 O   0  0  0  0  0  0  0  0  0  0  0  0
  150.1464  141.3854  155.3247 C   0  0  0  0  0  0  0  0  0  0  0  0
  148.9250  141.3306  154.3954 C   0  0  0  0  0  0  0  0  0  0  0  0
  147.6772  141.7533  155.0487 N   0  0  0  0  0  0  0  0  0  0  0  0
  146.7984  142.6042  154.3935 C   0  0  0  0  0  0  0  0  0  0  0  0
  145.6365  143.0385  154.9365 C   0  0  0  0  0  0  0  0  0  0  0  0
  145.2453  142.6177  156.2776 C   0  0  0  0  0  0  0  0  0  0  0  0
  144.2127  142.9537  156.8531 O   0  0  0  0  0  0  0  0  0  0  0  0
  146.1573  141.7654  156.9058 N   0  0  0  0  0  0  0  0  0  0  0  0
  147.3574  141.3158  156.3527 C   0  0  0  0  0  0  0  0  0  0  0  0
  148.0930  140.5679  156.9962 O   0  0  0  0  0  0  0  0  0  0  0  0
  150.2114  142.4468  156.1435 N   0  0  0  0  0  0  0  0  0  0  0  0
  151.2739  142.7142  157.1102 C   0  0  0  0  0  0  0  0  0  0  0  0
  150.8813  142.0854  158.4635 C   0  0  0  0  0  0  0  0  0  0  0  0
  152.0521  142.0041  159.4577 C   0  0  0  0  0  0  0  0  0  0  0  0
  152.2740  143.2525  160.3297 C   0  0  0  0  0  0  0  0  0  0  0  0
  152.0961  144.6151  159.6376 C   0  0  0  0  0  0  0  0  0  0  0  0
  152.5937  144.6839  158.1851 C   0  0  0  0  0  0  0  0  0  0  0  0
  151.5295  144.2344  157.1691 C   0  0  0  0  0  0  0  0  0  0  0  0
  145.9306  141.4509  157.8380 H   0  0  0  0  0  0  0  0  0  0  0  0
  149.1292  141.9615  153.5291 H   0  0  0  0  0  0  0  0  0  0  0  0
  148.8159  140.3202  153.9960 H   0  0  0  0  0  0  0  0  0  0  0  0
  147.0492  142.9454  153.3990 H   0  0  0  0  0  0  0  0  0  0  0  0
  144.9936  143.7015  154.3761 H   0  0  0  0  0  0  0  0  0  0  0  0
  149.4685  143.1285  156.0891 H   0  0  0  0  0  0  0  0  0  0  0  0
  152.1853  142.2219  156.7654 H   0  0  0  0  0  0  0  0  0  0  0  0
  150.0298  142.6025  158.9075 H   0  0  0  0  0  0  0  0  0  0  0  0
  150.5437  141.0648  158.2761 H   0  0  0  0  0  0  0  0  0  0  0  0
  151.8882  141.1581  160.1260 H   0  0  0  0  0  0  0  0  0  0  0  0
  152.9700  141.7657  158.9189 H   0  0  0  0  0  0  0  0  0  0  0  0
  151.5994  143.2161  161.1861 H   0  0  0  0  0  0  0  0  0  0  0  0
  153.2794  143.1953  160.7487 H   0  0  0  0  0  0  0  0  0  0  0  0
  151.0468  144.9103  159.6759 H   0  0  0  0  0  0  0  0  0  0  0  0
  152.6241  145.3632  160.2301 H   0  0  0  0  0  0  0  0  0  0  0  0
  152.8396  145.7234  157.9651 H   0  0  0  0  0  0  0  0  0  0  0  0
  153.5223  144.1261  158.0586 H   0  0  0  0  0  0  0  0  0  0  0  0
  151.8477  144.5675  156.1802 H   0  0  0  0  0  0  0  0  0  0  0  0
  150.5945  144.7604  157.3671 H   0  0  0  0  0  0  0  0  0  0  0  0
  1  2  2  0  0  0  0
  2  3  1  0  0  0  0
  2 12  1  0  0  0  0
  3  4  1  0  0  0  0
  3 21  1  0  0  0  0
  3 22  1  0  0  0  0
  4 10  1  0  0  0  0
  4  5  1  0  0  0  0
  5  6  2  0  0  0  0
  5 23  1  0  0  0  0
  6  7  1  0  0  0  0
  6 24  1  0  0  0  0
  7  8  2  0  0  0  0
  7  9  1  0  0  0  0
  9 20  1  0  0  0  0
  9 10  1  0  0  0  0
 10 11  2  0  0  0  0
 12 13  1  0  0  0  0
 12 25  1  0  0  0  0
 13 19  1  0  0  0  0
 13 14  1  0  0  0  0
 13 26  1  0  0  0  0
 14 15  1  0  0  0  0
 14 27  1  0  0  0  0
 14 28  1  0  0  0  0
 15 16  1  0  0  0  0
 15 29  1  0  0  0  0
 15 30  1  0  0  0  0
 16 17  1  0  0  0  0
 16 31  1  0  0  0  0
 16 32  1  0  0  0  0
 17 18  1  0  0  0  0
 17 33  1  0  0  0  0
 17 34  1  0  0  0  0
 18 19  1  0  0  0  0
 18 35  1  0  0  0  0
 18 36  1  0  0  0  0
 19 37  1  0  0  0  0
 19 38  1  0  0  0  0
M  END
> <s_m_source_file>
AV-unprocessed.smi

> <i_m_source_file_index>
2967

> <i_lp_mmshare_version>
43012

> <i_f3d_flags>
0

> <s_epik_input>
W0NIMl0xW0NIMl1bQ0gyXVtDSDJdW0NIMl1bQ0gyXVtDSF0xW05IXUMoPU8pW0NIMl1uMltjSF1bY0hdYyg9TylbbkhdYzI9Tw==

> <s_epik_cmdline>
J2VwaWtfcHl0aG9uJywgJy1waCcsICc3LjAnLCAnLXRuJywgJzgnLCAnLW1hJywgJzIwMCcsICctbWV0YWxfYmluZGluZycsICctaW1hZScsICc8aW5maWxlLm1hZT4nLCAnLW9tYWUnLCAnPG91dGZpbGUubWFlPic=

> <r_lp_tautomer_probability>
0.999537

> <r_epik_Ionization_Penalty>
0.00321433

> <r_epik_Ionization_Penalty_Charging>
0.00321431

> <r_epik_Ionization_Penalty_Neutral>
2.02148e-08

> <r_epik_State_Penalty>
0.00226744

> <r_epik_Charging_Adjusted_Penalty>
0.00548175

> <i_epik_Tot_Q>
0

> <i_epik_Tot_abs_Q>
0

> <r_epik_Metal_State_Penalty>
0.364272

> <b_epik_Metal_Only>
0

> <s_lp_Force_Field>
OPLS_2005

> <r_lp_Energy>
14.3008

> <b_lp_Chiralities_Consistent>
1

> <s_lp_Variant>
AV-unprocessed.smi:2967-1

> <Gold.Version>
5.8.1

> <Gold.Id.Protein>
6NUR|6NUR_protein|mol2

> <Gold.PLP.Fitness>
45.3075

> <Gold.PLP.PLP>
-41.6116

> <Gold.PLP.part.hbond>
-2.0000

> <Gold.PLP.part.metal>
0.0000

> <Gold.PLP.part.buried>
-2.5165

> <Gold.PLP.part.nonpolar>
-36.1997

> <Gold.PLP.part.repulsive>
0.2112

> <Gold.PLP.ligand.clash>
0.0000

> <Gold.PLP.ligand.torsion>
0.8309

> <Gold.PLP.Chemscore.Hbond>
1.7808

> <Gold.PLP.Chemscore.CHOScore>
0.0000

> <Gold.PLP.Chemscore.Metal>
0.0000

> <Gold.Chemscore.Hbonds>
donor molecule, donor type, donor heavy atom, donor atom, acceptor molecule, acceptor atom, score
      L1  H    12    25       P1  8028  1.00
      P1  H  7989  7998       L1     1  0.73

> <Gold.PLP.Chemscore.Internal.Correction>
0.0153

> <Gold.Rescore>
     Score         DG    S(hbond)    S(metal)    S(lipo)     H(rot)  DE(clash)    DE(int)     intcor
     14.37     -16.46       1.19        0.00      96.93       1.69       0.11       1.98       ----

> <Gold.Chemscore.Fitness>
14.3671

> <Gold.Chemscore.DG>
-16.4598

> <Gold.Chemscore.ZeroCoef>
-5.4800

> <Gold.Chemscore.Hbond>
1.1854

> <Gold.Chemscore.Metal>
0.0000

> <Gold.Chemscore.Lipo>
96.9273

> <Gold.Chemscore.Internal_Hbond>
0.0000

> <Gold.Chemscore.DEClash>
0.1147

> <Gold.Chemscore.DEInternal>
1.9780

> <Gold.Chemscore.Rot>
1.6874

> <Gold.Chemscore.Internal.Correction>
   9.000000E+99

> <Gold.Chemscore.Hbonds>
donor molecule, donor type, donor heavy atom, donor atom, acceptor molecule, acceptor atom, score
      L1  H    12    25       P1  8028  0.95
      P1  H  7989  7998       L1     1  0.09

> <Gold.Chemscore.Hbond.Weighted>
-3.9591

> <Gold.Chemscore.Metal.Weighted>
-0.0000

> <Gold.Chemscore.Lipo.Weighted>
-11.3405

> <Gold.Chemscore.Internal_Hbond.Weighted>
0.0000

> <Gold.Chemscore.DEClash.Weighted>
0.1147

> <Gold.Chemscore.DEInternal.Weighted>
1.9780

> <Gold.Chemscore.Rot.Weighted>
4.3198

> <Gold.Chemscore.Internal.Correction.Weighted>
   9.000000E+99

> <Gold.Protein.RotatedTorsions>
[ 6907 6896 6895 6894 ] final -144.28 input  -60.11 | X-H torsion
[ 7974 7965 7964 7962 ] final  139.06 input  175.53 | X-H torsion
[ 8008 7997 7996 7995 ] final  139.00 input   59.86 | X-H torsion
[ 10167 10162 10161 10158 ] final   27.72 input  -65.29 | X-H torsion
[ 10718 10713 10712 10709 ] final  125.60 input   66.30 | X-H torsion
[ 10763 10752 10751 10750 ] final   11.36 input  -60.55 | X-H torsion
[ 11005 11000 10999 10996 ] final  132.74 input  -57.11 | X-H torsion

> <Gold.Protein.ActiveResidues>
 VAL166  LYS551  ARG553  GLY616  TRP617  ASP618  TYR619  PRO620  LYS621  CYS622 
 ASP623  PHE694  ASN695  SER759  ASP760  ASP761  ALA762  ILE779  LEU786  VAL792 
 PHE793  MET794  SER795  GLU796  ALA797  LYS798  CYS799  TRP800  GLU811  SER814 

> <Gold.Protein.RotatedAtoms>
  151.1119  133.5167  159.2605 H   0  0  0  0  0  0  0  0  0  0  0  0  # atno 6907 bound_to 6896
  151.1958  135.0421  159.8861 H   0  0  0  0  0  0  0  0  0  0  0  0  # atno 6908 bound_to 6896
  152.5450  134.0953  159.8348 H   0  0  0  0  0  0  0  0  0  0  0  0  # atno 6909 bound_to 6896
  144.9314  139.5043  143.5616 H   0  0  0  0  0  0  0  0  0  0  0  0  # atno 7974 bound_to 7965
  156.2993  140.2379  156.4166 H   0  0  0  0  0  0  0  0  0  0  0  0  # atno 8008 bound_to 7997
  154.8393  140.0429  157.1550 H   0  0  0  0  0  0  0  0  0  0  0  0  # atno 8009 bound_to 7997
  154.9121  140.2992  155.5264 H   0  0  0  0  0  0  0  0  0  0  0  0  # atno 8010 bound_to 7997
  140.4914  144.0461  150.6298 H   0  0  0  0  0  0  0  0  0  0  0  0  # atno 10167 bound_to 10162
  157.5489  131.1094  150.8735 H   0  0  0  0  0  0  0  0  0  0  0  0  # atno 10718 bound_to 10713
  153.1934  135.6845  153.8323 H   0  0  0  0  0  0  0  0  0  0  0  0  # atno 10763 bound_to 10752
  153.7615  135.3209  155.3339 H   0  0  0  0  0  0  0  0  0  0  0  0  # atno 10764 bound_to 10752
  154.8130  135.4704  154.0667 H   0  0  0  0  0  0  0  0  0  0  0  0  # atno 10765 bound_to 10752
  139.9809  134.9548  156.9626 H   0  0  0  0  0  0  0  0  0  0  0  0  # atno 11005 bound_to 11000
  146.3248  139.8266  142.8916 LP  0  0  0  0  0  0  0  0  0  0  0  0  # atno 17320 bound_to 7965
  145.3137  141.0226  143.3540 LP  0  0  0  0  0  0  0  0  0  0  0  0  # atno 17321 bound_to 7965
  140.3731  143.2844  152.0256 LP  0  0  0  0  0  0  0  0  0  0  0  0  # atno 17342 bound_to 10162
  139.4852  144.6214  151.7247 LP  0  0  0  0  0  0  0  0  0  0  0  0  # atno 17343 bound_to 10162
  156.9265  130.5334  149.5279 LP  0  0  0  0  0  0  0  0  0  0  0  0  # atno 17370 bound_to 10713
  156.0560  130.5621  150.9091 LP  0  0  0  0  0  0  0  0  0  0  0  0  # atno 17371 bound_to 10713
  140.5099  134.1012  155.7268 LP  0  0  0  0  0  0  0  0  0  0  0  0  # atno 17394 bound_to 11000
  141.1481  133.9019  157.2166 LP  0  0  0  0  0  0  0  0  0  0  0  0  # atno 17395 bound_to 11000

$$$$
