AV-unprocessed.smi:1290|AV-procd|sdf|5389|dock9
  -GOLD-   22720 4543D 1   1.00000     0.00000
 Structure written by MMmdl.
 38 40  0  0  0  0  0  0  0  0  1 V2000
  145.7236  143.4397  158.1385 C   0  0  0  0  0  0  0  0  0  0  0  0
  146.5346  143.0786  156.9604 N   0  0  0  0  0  0  0  0  0  0  0  0
  147.6050  142.2427  157.1424 C   0  0  0  0  0  0  0  0  0  0  0  0
  147.9501  141.7607  158.2223 O   0  0  0  0  0  0  0  0  0  0  0  0
  148.3442  141.9514  155.9113 C   0  0  0  0  0  0  0  0  0  0  0  0
  147.9989  142.4598  154.7044 C   0  0  0  0  0  0  0  0  0  0  0  0
  148.8647  142.0274  153.7060 N   0  0  0  0  0  0  0  0  0  0  0  0
  149.7136  141.2579  154.3892 C   0  0  0  0  0  0  0  0  0  0  0  0
  149.4739  141.1607  155.7130 N   0  0  0  0  0  0  0  0  0  0  0  0
  150.2448  140.3924  156.6784 C   0  0  0  0  0  0  0  0  0  0  0  0
  151.7539  140.7034  156.6195 C   0  0  2  0  0  0  0  0  0  0  0  0
  152.4550  139.5934  156.0916 O   0  0  0  0  0  0  0  0  0  0  0  0
  152.2818  141.1245  157.9821 C   0  0  0  0  0  0  0  0  0  0  0  0
  151.9712  142.4033  158.4922 C   0  0  0  0  0  0  0  0  0  0  0  0
  152.4480  142.7982  159.7574 C   0  0  0  0  0  0  0  0  0  0  0  0
  153.2361  141.9154  160.5212 C   0  0  0  0  0  0  0  0  0  0  0  0
  153.8200  142.3992  162.0711 Cl  0  0  0  0  0  0  0  0  0  0  0  0
  153.5458  140.6366  160.0193 C   0  0  0  0  0  0  0  0  0  0  0  0
  153.0692  140.2415  158.7543 C   0  0  0  0  0  0  0  0  0  0  0  0
  146.8716  143.3144  154.6250 N   0  0  0  0  0  0  0  0  0  0  0  0
  146.5277  143.8459  153.3029 C   0  0  0  0  0  0  0  0  0  0  0  0
  146.1441  143.6251  155.7488 C   0  0  0  0  0  0  0  0  0  0  0  0
  145.1661  144.3744  155.6787 O   0  0  0  0  0  0  0  0  0  0  0  0
  146.0379  142.9736  159.0729 H   0  0  0  0  0  0  0  0  0  0  0  0
  144.6816  143.1531  157.9872 H   0  0  0  0  0  0  0  0  0  0  0  0
  145.7539  144.5181  158.3027 H   0  0  0  0  0  0  0  0  0  0  0  0
  150.5397  140.7508  153.9123 H   0  0  0  0  0  0  0  0  0  0  0  0
  149.8501  140.5939  157.6746 H   0  0  0  0  0  0  0  0  0  0  0  0
  150.0716  139.3312  156.4926 H   0  0  0  0  0  0  0  0  0  0  0  0
  151.9192  141.5271  155.9245 H   0  0  0  0  0  0  0  0  0  0  0  0
  152.0617  138.8033  156.4297 H   0  0  0  0  0  0  0  0  0  0  0  0
  151.3641  143.0860  157.9154 H   0  0  0  0  0  0  0  0  0  0  0  0
  152.2072  143.7789  160.1410 H   0  0  0  0  0  0  0  0  0  0  0  0
  154.1481  139.9564  160.6036 H   0  0  0  0  0  0  0  0  0  0  0  0
  153.3085  139.2568  158.3801 H   0  0  0  0  0  0  0  0  0  0  0  0
  145.6566  144.5016  153.2925 H   0  0  0  0  0  0  0  0  0  0  0  0
  146.3232  143.0252  152.6145 H   0  0  0  0  0  0  0  0  0  0  0  0
  147.3665  144.4161  152.9024 H   0  0  0  0  0  0  0  0  0  0  0  0
  1  2  1  0  0  0  0
  1 24  1  0  0  0  0
  1 25  1  0  0  0  0
  1 26  1  0  0  0  0
  2 22  1  0  0  0  0
  2  3  1  0  0  0  0
  3  4  2  0  0  0  0
  3  5  1  0  0  0  0
  5  9  1  0  0  0  0
  5  6  2  0  0  0  0
  6  7  1  0  0  0  0
  6 20  1  0  0  0  0
  7  8  2  0  0  0  0
  8  9  1  0  0  0  0
  8 27  1  0  0  0  0
  9 10  1  0  0  0  0
 10 11  1  0  0  0  0
 10 28  1  0  0  0  0
 10 29  1  0  0  0  0
 11 12  1  0  0  0  0
 11 13  1  0  0  0  0
 11 30  1  0  0  0  0
 12 31  1  0  0  0  0
 13 19  1  0  0  0  0
 13 14  2  0  0  0  0
 14 15  1  0  0  0  0
 14 32  1  0  0  0  0
 15 16  2  0  0  0  0
 15 33  1  0  0  0  0
 16 17  1  0  0  0  0
 16 18  1  0  0  0  0
 18 19  2  0  0  0  0
 18 34  1  0  0  0  0
 19 35  1  0  0  0  0
 20 21  1  0  0  0  0
 20 22  1  0  0  0  0
 21 36  1  0  0  0  0
 21 37  1  0  0  0  0
 21 38  1  0  0  0  0
 22 23  2  0  0  0  0
M  END
> <s_m_source_file>
AV-unprocessed.smi

> <i_m_source_file_index>
1290

> <i_lp_mmshare_version>
43012

> <i_f3d_flags>
0

> <s_epik_input>
Tz1jMW4oW0NIM10pYyg9TyluKFtDSDNdKWMoYzEyKW5bY0hdbjJbQ0gyXVtDQEhdKFtPSF0pYzNbY0hdW2NIXWMoQ2wpW2NIXVtjSF0z

> <s_epik_cmdline>
J2VwaWtfcHl0aG9uJywgJy1waCcsICc3LjAnLCAnLXRuJywgJzgnLCAnLW1hJywgJzIwMCcsICctbWV0YWxfYmluZGluZycsICctaW1hZScsICc8aW5maWxlLm1hZT4nLCAnLW9tYWUnLCAnPG91dGZpbGUubWFlPic=

> <r_lp_tautomer_probability>
1

> <r_epik_Ionization_Penalty>
1.48293e-06

> <r_epik_Ionization_Penalty_Charging>
3.74189e-09

> <r_epik_Ionization_Penalty_Neutral>
1.47919e-06

> <r_epik_State_Penalty>
-0

> <r_epik_Charging_Adjusted_Penalty>
3.74189e-09

> <i_epik_Tot_Q>
0

> <i_epik_Tot_abs_Q>
0

> <r_epik_Metal_State_Penalty>
-0

> <b_epik_Metal_Only>
0

> <s_lp_Force_Field>
OPLS_2005

> <r_lp_Energy>
35.4502

> <b_lp_Chiralities_Consistent>
1

> <s_lp_Variant>
AV-unprocessed.smi:1290-1

> <Gold.Version>
5.8.1

> <Gold.Id.Protein>
6NUR|6NUR_protein|mol2

> <Gold.PLP.Fitness>
45.5331

> <Gold.PLP.PLP>
-42.9915

> <Gold.PLP.part.hbond>
-3.0000

> <Gold.PLP.part.metal>
0.0000

> <Gold.PLP.part.buried>
-5.1835

> <Gold.PLP.part.nonpolar>
-34.1166

> <Gold.PLP.part.repulsive>
0.3339

> <Gold.PLP.ligand.clash>
0.0000

> <Gold.PLP.ligand.torsion>
1.1931

> <Gold.PLP.Chemscore.Hbond>
1.6344

> <Gold.PLP.Chemscore.CHOScore>
0.0000

> <Gold.PLP.Chemscore.Metal>
0.0000

> <Gold.Chemscore.Hbonds>
donor molecule, donor type, donor heavy atom, donor atom, acceptor molecule, acceptor atom, score
      P1  H  7997  8010       L1    12  1.00
      P1  H  8011  8017       L1     7  0.45

> <Gold.PLP.Chemscore.Internal.Correction>
0.0246

> <Gold.Rescore>
     Score         DG    S(hbond)    S(metal)    S(lipo)     H(rot)  DE(clash)    DE(int)     intcor
     13.31     -14.58       1.26        0.00      88.72       2.15       0.18       1.08       ----

> <Gold.Chemscore.Fitness>
13.3149

> <Gold.Chemscore.DG>
-14.5828

> <Gold.Chemscore.ZeroCoef>
-5.4800

> <Gold.Chemscore.Hbond>
1.2634

> <Gold.Chemscore.Metal>
0.0000

> <Gold.Chemscore.Lipo>
88.7212

> <Gold.Chemscore.Internal_Hbond>
0.0000

> <Gold.Chemscore.DEClash>
0.1838

> <Gold.Chemscore.DEInternal>
1.0841

> <Gold.Chemscore.Rot>
2.1474

> <Gold.Chemscore.Internal.Correction>
   9.000000E+99

> <Gold.Chemscore.Hbonds>
donor molecule, donor type, donor heavy atom, donor atom, acceptor molecule, acceptor atom, score
      P1  H  7997  8010       L1    12  0.34
      P1  H  8011  8017       L1     7  0.15

> <Gold.Chemscore.Hbond.Weighted>
-4.2197

> <Gold.Chemscore.Metal.Weighted>
-0.0000

> <Gold.Chemscore.Lipo.Weighted>
-10.3804

> <Gold.Chemscore.Internal_Hbond.Weighted>
0.0000

> <Gold.Chemscore.DEClash.Weighted>
0.1838

> <Gold.Chemscore.DEInternal.Weighted>
1.0841

> <Gold.Chemscore.Rot.Weighted>
5.4974

> <Gold.Chemscore.Internal.Correction.Weighted>
   9.000000E+99

> <Gold.Protein.RotatedTorsions>
[ 6907 6896 6895 6894 ] final  152.09 input  -60.11 | X-H torsion
[ 7974 7965 7964 7962 ] final  123.98 input  175.53 | X-H torsion
[ 8008 7997 7996 7995 ] final   75.61 input   59.86 | X-H torsion
[ 10167 10162 10161 10158 ] final   66.78 input  -65.29 | X-H torsion
[ 10718 10713 10712 10709 ] final   96.97 input   66.30 | X-H torsion
[ 10763 10752 10751 10750 ] final -171.32 input  -60.55 | X-H torsion
[ 11005 11000 10999 10996 ] final   84.66 input  -57.11 | X-H torsion

> <Gold.Protein.ActiveResidues>
 VAL166  LYS551  ARG553  GLY616  TRP617  ASP618  TYR619  PRO620  LYS621  CYS622 
 ASP623  PHE694  ASN695  SER759  ASP760  ASP761  ALA762  ILE779  LEU786  VAL792 
 PHE793  MET794  SER795  GLU796  ALA797  LYS798  CYS799  TRP800  GLU811  SER814 

> <Gold.Protein.RotatedAtoms>
  152.0916  133.4203  159.4545 H   0  0  0  0  0  0  0  0  0  0  0  0  # atno 6907 bound_to 6896
  150.6862  134.2865  159.4658 H   0  0  0  0  0  0  0  0  0  0  0  0  # atno 6908 bound_to 6896
  152.0717  134.9528  160.0625 H   0  0  0  0  0  0  0  0  0  0  0  0  # atno 6909 bound_to 6896
  145.0897  139.3596  143.4867 H   0  0  0  0  0  0  0  0  0  0  0  0  # atno 7974 bound_to 7965
  155.8154  140.3471  155.5482 H   0  0  0  0  0  0  0  0  0  0  0  0  # atno 8008 bound_to 7997
  155.8397  140.0939  157.1762 H   0  0  0  0  0  0  0  0  0  0  0  0  # atno 8009 bound_to 7997
  154.4005  140.1396  156.3701 H   0  0  0  0  0  0  0  0  0  0  0  0  # atno 8010 bound_to 7997
  140.0967  144.4940  150.7063 H   0  0  0  0  0  0  0  0  0  0  0  0  # atno 10167 bound_to 10162
  157.6919  131.0595  150.4573 H   0  0  0  0  0  0  0  0  0  0  0  0  # atno 10718 bound_to 10713
  154.6318  135.2887  155.0208 H   0  0  0  0  0  0  0  0  0  0  0  0  # atno 10763 bound_to 10752
  154.1366  135.6525  153.4937 H   0  0  0  0  0  0  0  0  0  0  0  0  # atno 10764 bound_to 10752
  153.0283  135.5323  154.7148 H   0  0  0  0  0  0  0  0  0  0  0  0  # atno 10765 bound_to 10752
  139.8994  134.8232  156.2475 H   0  0  0  0  0  0  0  0  0  0  0  0  # atno 11005 bound_to 11000
  146.3531  140.0725  142.8622 LP  0  0  0  0  0  0  0  0  0  0  0  0  # atno 17320 bound_to 7965
  145.1080  140.9388  143.4673 LP  0  0  0  0  0  0  0  0  0  0  0  0  # atno 17321 bound_to 7965
  140.7000  143.2428  151.4893 LP  0  0  0  0  0  0  0  0  0  0  0  0  # atno 17342 bound_to 10162
  139.5694  144.1965  152.1814 LP  0  0  0  0  0  0  0  0  0  0  0  0  # atno 17343 bound_to 10162
  156.4919  130.4097  149.6401 LP  0  0  0  0  0  0  0  0  0  0  0  0  # atno 17370 bound_to 10713
  156.3409  130.7381  151.2326 LP  0  0  0  0  0  0  0  0  0  0  0  0  # atno 17371 bound_to 10713
  141.0245  133.7023  156.1324 LP  0  0  0  0  0  0  0  0  0  0  0  0  # atno 17394 bound_to 11000
  140.7186  134.4383  157.5576 LP  0  0  0  0  0  0  0  0  0  0  0  0  # atno 17395 bound_to 11000

$$$$
