AV-unprocessed.smi:1649|AV-procd|sdf|6635|dock3
  -GOLD-   22720 7343D 1   1.00000     0.00000
 Structure written by MMmdl.
 43 44  0  0  0  0  0  0  0  0  1 V2000
  154.8214  136.3227  158.2218 C   0  0  0  0  0  0  0  0  0  0  0  0
  153.2959  137.3095  158.5066 S   0  0  0  0  0  0  0  0  0  0  0  0
  152.7192  136.9067  159.7988 O   0  0  0  0  0  0  0  0  0  0  0  0
  153.6219  138.7239  158.2662 O   0  0  0  0  0  0  0  0  0  0  0  0
  152.1882  136.7602  157.2136 C   0  0  0  0  0  0  0  0  0  0  0  0
  152.0148  137.5329  156.0478 C   0  0  0  0  0  0  0  0  0  0  0  0
  151.1681  137.0332  155.0402 C   0  0  0  0  0  0  0  0  0  0  0  0
  150.5331  135.7821  155.2373 C   0  0  0  0  0  0  0  0  0  0  0  0
  149.6765  135.1592  154.2900 N   0  0  0  0  0  0  0  0  0  0  0  0
  149.1753  133.9124  154.3004 C   0  0  0  0  0  0  0  0  0  0  0  0
  149.4198  133.0523  155.1459 O   0  0  0  0  0  0  0  0  0  0  0  0
  148.3655  133.7122  153.2511 N   0  0  0  0  0  0  0  0  0  0  0  0
  147.6380  132.4795  152.9533 C   0  0  0  0  0  0  0  0  0  0  0  0
  146.6220  132.6352  151.7943 C   0  0  0  0  0  0  0  0  0  0  0  0
  147.3766  132.7174  150.5982 O   0  0  0  0  0  0  0  0  0  0  0  0
  145.7426  131.3648  151.7049 C   0  0  0  0  0  0  0  0  0  0  0  0
  144.6460  131.4596  150.6289 C   0  0  0  0  0  0  0  0  0  0  0  0
  143.7737  132.7055  150.8317 C   0  0  0  0  0  0  0  0  0  0  0  0
  144.6323  133.9772  150.8516 C   0  0  0  0  0  0  0  0  0  0  0  0
  145.7332  133.8991  151.9247 C   0  0  0  0  0  0  0  0  0  0  0  0
  150.8027  135.0869  156.4358 C   0  0  0  0  0  0  0  0  0  0  0  0
  151.6134  135.5544  157.4078 N   0  0  0  0  0  0  0  0  0  0  0  0
  155.5701  136.5887  158.9676 H   0  0  0  0  0  0  0  0  0  0  0  0
  155.2096  136.5330  157.2255 H   0  0  0  0  0  0  0  0  0  0  0  0
  154.5886  135.2611  158.3040 H   0  0  0  0  0  0  0  0  0  0  0  0
  152.5174  138.4803  155.9214 H   0  0  0  0  0  0  0  0  0  0  0  0
  151.0402  137.6088  154.1371 H   0  0  0  0  0  0  0  0  0  0  0  0
  149.4434  135.7214  153.4845 H   0  0  0  0  0  0  0  0  0  0  0  0
  148.2250  134.4789  152.6096 H   0  0  0  0  0  0  0  0  0  0  0  0
  148.3685  131.7064  152.7109 H   0  0  0  0  0  0  0  0  0  0  0  0
  147.1248  132.1259  153.8492 H   0  0  0  0  0  0  0  0  0  0  0  0
  147.7534  131.8683  150.4247 H   0  0  0  0  0  0  0  0  0  0  0  0
  146.3633  130.4871  151.5185 H   0  0  0  0  0  0  0  0  0  0  0  0
  145.2630  131.1931  152.6696 H   0  0  0  0  0  0  0  0  0  0  0  0
  145.0988  131.4849  149.6369 H   0  0  0  0  0  0  0  0  0  0  0  0
  144.0238  130.5648  150.6576 H   0  0  0  0  0  0  0  0  0  0  0  0
  143.0283  132.7714  150.0387 H   0  0  0  0  0  0  0  0  0  0  0  0
  143.2229  132.6197  151.7692 H   0  0  0  0  0  0  0  0  0  0  0  0
  145.0833  134.1297  149.8706 H   0  0  0  0  0  0  0  0  0  0  0  0
  144.0002  134.8464  151.0356 H   0  0  0  0  0  0  0  0  0  0  0  0
  145.2637  133.9037  152.9092 H   0  0  0  0  0  0  0  0  0  0  0  0
  146.3390  134.8043  151.8736 H   0  0  0  0  0  0  0  0  0  0  0  0
  150.3538  134.1220  156.6218 H   0  0  0  0  0  0  0  0  0  0  0  0
  1  2  1  0  0  0  0
  1 23  1  0  0  0  0
  1 24  1  0  0  0  0
  1 25  1  0  0  0  0
  2  3  2  0  0  0  0
  2  4  2  0  0  0  0
  2  5  1  0  0  0  0
  5 22  1  0  0  0  0
  5  6  2  0  0  0  0
  6  7  1  0  0  0  0
  6 26  1  0  0  0  0
  7  8  2  0  0  0  0
  7 27  1  0  0  0  0
  8  9  1  0  0  0  0
  8 21  1  0  0  0  0
  9 10  1  0  0  0  0
  9 28  1  0  0  0  0
 10 11  2  0  0  0  0
 10 12  1  0  0  0  0
 12 13  1  0  0  0  0
 12 29  1  0  0  0  0
 13 14  1  0  0  0  0
 13 30  1  0  0  0  0
 13 31  1  0  0  0  0
 14 20  1  0  0  0  0
 14 15  1  0  0  0  0
 14 16  1  0  0  0  0
 15 32  1  0  0  0  0
 16 17  1  0  0  0  0
 16 33  1  0  0  0  0
 16 34  1  0  0  0  0
 17 18  1  0  0  0  0
 17 35  1  0  0  0  0
 17 36  1  0  0  0  0
 18 19  1  0  0  0  0
 18 37  1  0  0  0  0
 18 38  1  0  0  0  0
 19 20  1  0  0  0  0
 19 39  1  0  0  0  0
 19 40  1  0  0  0  0
 20 41  1  0  0  0  0
 20 42  1  0  0  0  0
 21 22  2  0  0  0  0
 21 43  1  0  0  0  0
M  END
> <s_m_source_file>
AV-unprocessed.smi

> <i_m_source_file_index>
1649

> <i_lp_mmshare_version>
43012

> <i_f3d_flags>
0

> <s_epik_input>
W0NIM11TKD1PKSg9TyljMVtjSF1bY0hdYyhbY0hdbjEpW05IXUMoPU8pW05IXVtDSDJdQzIoW09IXSlbQ0gyXVtDSDJdW0NIMl1bQ0gyXVtDSDJdMg==

> <s_epik_cmdline>
J2VwaWtfcHl0aG9uJywgJy1waCcsICc3LjAnLCAnLXRuJywgJzgnLCAnLW1hJywgJzIwMCcsICctbWV0YWxfYmluZGluZycsICctaW1hZScsICc8aW5maWxlLm1hZT4nLCAnLW9tYWUnLCAnPG91dGZpbGUubWFlPic=

> <r_lp_tautomer_probability>
1

> <r_epik_Ionization_Penalty>
4.25152e-05

> <r_epik_Ionization_Penalty_Charging>
0

> <r_epik_Ionization_Penalty_Neutral>
4.25152e-05

> <r_epik_State_Penalty>
-0

> <r_epik_Charging_Adjusted_Penalty>
0

> <i_epik_Tot_Q>
0

> <i_epik_Tot_abs_Q>
0

> <r_epik_Metal_State_Penalty>
-0

> <b_epik_Metal_Only>
0

> <s_lp_Force_Field>
OPLS_2005

> <r_lp_Energy>
14.216

> <b_lp_Chiralities_Consistent>
1

> <s_lp_Variant>
AV-unprocessed.smi:1649-1

> <Gold.Version>
5.8.1

> <Gold.Id.Protein>
6NUR|6NUR_protein|mol2

> <Gold.PLP.Fitness>
49.1734

> <Gold.PLP.PLP>
-34.7410

> <Gold.PLP.part.hbond>
-6.1071

> <Gold.PLP.part.metal>
0.0000

> <Gold.PLP.part.buried>
-6.1371

> <Gold.PLP.part.nonpolar>
-23.3678

> <Gold.PLP.part.repulsive>
0.0636

> <Gold.PLP.ligand.clash>
0.0000

> <Gold.PLP.ligand.torsion>
1.1798

> <Gold.PLP.Chemscore.Hbond>
4.9199

> <Gold.PLP.Chemscore.CHOScore>
0.0000

> <Gold.PLP.Chemscore.Metal>
0.0000

> <Gold.Chemscore.Hbonds>
donor molecule, donor type, donor heavy atom, donor atom, acceptor molecule, acceptor atom, score
      L1  H     9    28       P1  7948  1.00
      L1  H    12    29       P1  7948  0.93
      L1  H    15    32       P1 10747  1.00
      P1  H  6896  6907       L1     3  1.00
      P1  H  7997  8008       L1     4  0.89

> <Gold.PLP.Chemscore.Internal.Correction>
2.0322

> <Gold.Rescore>
     Score         DG    S(hbond)    S(metal)    S(lipo)     H(rot)  DE(clash)    DE(int)     intcor
     19.69     -22.25       3.89        0.00      71.94       1.80       0.01       2.55       ----

> <Gold.Chemscore.Fitness>
19.6941

> <Gold.Chemscore.DG>
-22.2538

> <Gold.Chemscore.ZeroCoef>
-5.4800

> <Gold.Chemscore.Hbond>
3.8855

> <Gold.Chemscore.Metal>
0.0000

> <Gold.Chemscore.Lipo>
71.9386

> <Gold.Chemscore.Internal_Hbond>
0.0000

> <Gold.Chemscore.DEClash>
0.0103

> <Gold.Chemscore.DEInternal>
2.5494

> <Gold.Chemscore.Rot>
1.8049

> <Gold.Chemscore.Internal.Correction>
   9.000000E+99

> <Gold.Chemscore.Hbonds>
donor molecule, donor type, donor heavy atom, donor atom, acceptor molecule, acceptor atom, score
      L1  H     9    28       P1  7948  0.30
      L1  H    12    29       P1  7948  0.26
      L1  H    15    32       P1 10747  0.95
      P1  H  6896  6907       L1     3  0.93
      P1  H  7997  8008       L1     4  0.86

> <Gold.Chemscore.Hbond.Weighted>
-12.9775

> <Gold.Chemscore.Metal.Weighted>
-0.0000

> <Gold.Chemscore.Lipo.Weighted>
-8.4168

> <Gold.Chemscore.Internal_Hbond.Weighted>
0.0000

> <Gold.Chemscore.DEClash.Weighted>
0.0103

> <Gold.Chemscore.DEInternal.Weighted>
2.5494

> <Gold.Chemscore.Rot.Weighted>
4.6205

> <Gold.Chemscore.Internal.Correction.Weighted>
   9.000000E+99

> <Gold.Protein.RotatedTorsions>
[ 6907 6896 6895 6894 ] final   10.26 input  -60.11 | X-H torsion
[ 7974 7965 7964 7962 ] final   27.79 input  175.53 | X-H torsion
[ 8008 7997 7996 7995 ] final -107.77 input   59.86 | X-H torsion
[ 10167 10162 10161 10158 ] final  104.44 input  -65.29 | X-H torsion
[ 10718 10713 10712 10709 ] final  177.02 input   66.30 | X-H torsion
[ 10763 10752 10751 10750 ] final   56.76 input  -60.55 | X-H torsion
[ 11005 11000 10999 10996 ] final -113.40 input  -57.11 | X-H torsion

> <Gold.Protein.ActiveResidues>
 VAL166  LYS551  ARG553  GLY616  TRP617  ASP618  TYR619  PRO620  LYS621  CYS622 
 ASP623  PHE694  ASN695  SER759  ASP760  ASP761  ALA762  ILE779  LEU786  VAL792 
 PHE793  MET794  SER795  GLU796  ALA797  LYS798  CYS799  TRP800  GLU811  SER814 

> <Gold.Protein.RotatedAtoms>
  151.7354  135.0866  160.0306 H   0  0  0  0  0  0  0  0  0  0  0  0  # atno 6907 bound_to 6896
  152.3514  133.6180  159.5956 H   0  0  0  0  0  0  0  0  0  0  0  0  # atno 6908 bound_to 6896
  150.7542  133.9484  159.3519 H   0  0  0  0  0  0  0  0  0  0  0  0  # atno 6909 bound_to 6896
  146.1765  139.7143  142.8931 H   0  0  0  0  0  0  0  0  0  0  0  0  # atno 7974 bound_to 7965
  154.9342  140.0404  157.2064 H   0  0  0  0  0  0  0  0  0  0  0  0  # atno 8008 bound_to 7997
  154.8131  140.2871  155.5817 H   0  0  0  0  0  0  0  0  0  0  0  0  # atno 8009 bound_to 7997
  156.2973  140.2533  156.3023 H   0  0  0  0  0  0  0  0  0  0  0  0  # atno 8010 bound_to 7997
  139.7177  144.7065  151.0923 H   0  0  0  0  0  0  0  0  0  0  0  0  # atno 10167 bound_to 10162
  156.9116  130.9911  151.3020 H   0  0  0  0  0  0  0  0  0  0  0  0  # atno 10718 bound_to 10713
  152.9837  135.5665  154.5281 H   0  0  0  0  0  0  0  0  0  0  0  0  # atno 10763 bound_to 10752
  154.4757  135.2786  155.1611 H   0  0  0  0  0  0  0  0  0  0  0  0  # atno 10764 bound_to 10752
  154.3140  135.6282  153.5531 H   0  0  0  0  0  0  0  0  0  0  0  0  # atno 10765 bound_to 10752
  141.0616  133.9526  157.2656 H   0  0  0  0  0  0  0  0  0  0  0  0  # atno 11005 bound_to 11000
  145.4198  141.0405  143.2970 LP  0  0  0  0  0  0  0  0  0  0  0  0  # atno 17320 bound_to 7965
  144.8244  139.5735  143.6972 LP  0  0  0  0  0  0  0  0  0  0  0  0  # atno 17321 bound_to 7965
  140.7747  143.5208  150.9539 LP  0  0  0  0  0  0  0  0  0  0  0  0  # atno 17342 bound_to 10162
  139.8894  143.6972  152.3147 LP  0  0  0  0  0  0  0  0  0  0  0  0  # atno 17343 bound_to 10162
  157.5964  130.8480  149.8735 LP  0  0  0  0  0  0  0  0  0  0  0  0  # atno 17370 bound_to 10713
  156.0533  130.3713  150.1149 LP  0  0  0  0  0  0  0  0  0  0  0  0  # atno 17371 bound_to 10713
  139.9438  135.0187  156.8790 LP  0  0  0  0  0  0  0  0  0  0  0  0  # atno 17394 bound_to 11000
  140.5856  134.0310  155.7480 LP  0  0  0  0  0  0  0  0  0  0  0  0  # atno 17395 bound_to 11000

$$$$
