AV-unprocessed.smi:843|AV-procd|sdf|3922|dock7
  -GOLD-   22720 1383D 1   1.00000     0.00000
 Structure written by MMmdl.
 46 47  0  0  0  0  0  0  0  0  2 V2000
  145.8363  137.5089  151.7341 C   0  0  0  0  0  0  0  0  0  0  0  0
  145.8428  137.8369  153.2346 C   0  0  0  0  0  0  0  0  0  0  0  0
  146.1297  139.2680  153.5087 N   0  3  2  0  0  0  0  0  0  0  0  0
  147.0525  139.8537  152.5016 C   0  0  0  0  0  0  0  0  0  0  0  0
  147.2503  141.3645  152.7278 C   0  0  0  0  0  0  0  0  0  0  0  0
  147.7407  141.6829  154.1527 C   0  0  2  0  0  0  0  0  0  0  0  0
  149.2291  141.3101  154.3536 C   0  0  0  0  0  0  0  0  0  0  0  0
  149.8175  141.9756  155.5127 N   0  0  0  0  0  0  0  0  0  0  0  0
  150.7053  141.4296  156.3567 C   0  0  0  0  0  0  0  0  0  0  0  0
  151.1384  140.2842  156.2355 O   0  0  0  0  0  0  0  0  0  0  0  0
  151.0456  142.2955  157.3266 N   0  0  0  0  0  0  0  0  0  0  0  0
  151.9180  142.1075  158.4357 C   0  0  0  0  0  0  0  0  0  0  0  0
  152.5403  140.8759  158.7570 C   0  0  0  0  0  0  0  0  0  0  0  0
  153.3713  140.8048  159.8900 C   0  0  0  0  0  0  0  0  0  0  0  0
  153.5466  141.9638  160.6670 C   0  0  0  0  0  0  0  0  0  0  0  0
  152.9518  143.1400  160.3820 N   0  0  0  0  0  0  0  0  0  0  0  0
  152.1496  143.2113  159.2902 C   0  0  0  0  0  0  0  0  0  0  0  0
  151.5344  144.4158  159.0060 O   0  0  0  0  0  0  0  0  0  0  0  0
  151.8458  145.5457  159.8142 C   0  0  0  0  0  0  0  0  0  0  0  0
  146.7740  141.0245  155.1585 C   0  0  0  0  0  0  0  0  0  0  0  0
  146.6023  139.5184  154.8960 C   0  0  0  0  0  0  0  0  0  0  0  0
  145.7351  136.4346  151.5788 H   0  0  0  0  0  0  0  0  0  0  0  0
  146.7644  137.8244  151.2568 H   0  0  0  0  0  0  0  0  0  0  0  0
  145.0077  137.9867  151.2124 H   0  0  0  0  0  0  0  0  0  0  0  0
  144.8967  137.5494  153.6956 H   0  0  0  0  0  0  0  0  0  0  0  0
  146.6138  137.2238  153.7031 H   0  0  0  0  0  0  0  0  0  0  0  0
  148.0096  139.3316  152.5347 H   0  0  0  0  0  0  0  0  0  0  0  0
  146.6473  139.6970  151.5013 H   0  0  0  0  0  0  0  0  0  0  0  0
  147.9458  141.7652  151.9895 H   0  0  0  0  0  0  0  0  0  0  0  0
  146.3018  141.8748  152.5543 H   0  0  0  0  0  0  0  0  0  0  0  0
  147.6687  142.7632  154.2878 H   0  0  0  0  0  0  0  0  0  0  0  0
  149.3612  140.2296  154.4199 H   0  0  0  0  0  0  0  0  0  0  0  0
  149.8012  141.6236  153.4799 H   0  0  0  0  0  0  0  0  0  0  0  0
  149.5231  142.9255  155.6871 H   0  0  0  0  0  0  0  0  0  0  0  0
  150.6561  143.2235  157.2460 H   0  0  0  0  0  0  0  0  0  0  0  0
  152.3910  139.9824  158.1724 H   0  0  0  0  0  0  0  0  0  0  0  0
  153.8595  139.8799  160.1594 H   0  0  0  0  0  0  0  0  0  0  0  0
  154.1762  141.9447  161.5443 H   0  0  0  0  0  0  0  0  0  0  0  0
  151.2721  146.4055  159.4689 H   0  0  0  0  0  0  0  0  0  0  0  0
  152.9034  145.8051  159.7470 H   0  0  0  0  0  0  0  0  0  0  0  0
  151.5844  145.3733  160.8594 H   0  0  0  0  0  0  0  0  0  0  0  0
  147.0988  141.1937  156.1846 H   0  0  0  0  0  0  0  0  0  0  0  0
  145.7985  141.5065  155.0800 H   0  0  0  0  0  0  0  0  0  0  0  0
  145.8873  139.1226  155.6161 H   0  0  0  0  0  0  0  0  0  0  0  0
  147.5407  138.9893  155.0656 H   0  0  0  0  0  0  0  0  0  0  0  0
  145.2535  139.7596  153.4053 H   0  0  0  0  0  0  0  0  0  0  0  0
  1  2  1  0  0  0  0
  1 22  1  0  0  0  0
  1 23  1  0  0  0  0
  1 24  1  0  0  0  0
  2  3  1  0  0  0  0
  2 25  1  0  0  0  0
  2 26  1  0  0  0  0
  3 21  1  0  0  0  0
  3  4  1  0  0  0  0
  3 46  1  0  0  0  0
  4  5  1  0  0  0  0
  4 27  1  0  0  0  0
  4 28  1  0  0  0  0
  5  6  1  0  0  0  0
  5 29  1  0  0  0  0
  5 30  1  0  0  0  0
  6  7  1  0  0  0  0
  6 20  1  0  0  0  0
  6 31  1  0  0  0  0
  7  8  1  0  0  0  0
  7 32  1  0  0  0  0
  7 33  1  0  0  0  0
  8  9  1  0  0  0  0
  8 34  1  0  0  0  0
  9 10  2  0  0  0  0
  9 11  1  0  0  0  0
 11 12  1  0  0  0  0
 11 35  1  0  0  0  0
 12 17  1  0  0  0  0
 12 13  2  0  0  0  0
 13 14  1  0  0  0  0
 13 36  1  0  0  0  0
 14 15  2  0  0  0  0
 14 37  1  0  0  0  0
 15 16  1  0  0  0  0
 15 38  1  0  0  0  0
 16 17  2  0  0  0  0
 17 18  1  0  0  0  0
 18 19  1  0  0  0  0
 19 39  1  0  0  0  0
 19 40  1  0  0  0  0
 19 41  1  0  0  0  0
 20 21  1  0  0  0  0
 20 42  1  0  0  0  0
 20 43  1  0  0  0  0
 21 44  1  0  0  0  0
 21 45  1  0  0  0  0
M  CHG  1   3   1
M  END
> <s_m_source_file>
AV-unprocessed.smi

> <i_m_source_file_index>
843

> <i_lp_mmshare_version>
43012

> <i_f3d_flags>
0

> <s_epik_input>
W0NIM11bQ0gyXU4xW0NIMl1bQ0gyXVtDSF0oW0NIMl1bQ0gyXTEpW0NIMl1bTkhdQyg9TylbTkhdYzJbY0hdW2NIXVtjSF1uYzJPW0NIM10=

> <s_epik_cmdline>
J2VwaWtfcHl0aG9uJywgJy1waCcsICc3LjAnLCAnLXRuJywgJzgnLCAnLW1hJywgJzIwMCcsICctbWV0YWxfYmluZGluZycsICctaW1hZScsICc8aW5maWxlLm1hZT4nLCAnLW9tYWUnLCAnPG91dGZpbGUubWFlPic=

> <r_lp_tautomer_probability>
1

> <r_epik_Ionization_Penalty>
0.00115026

> <r_epik_Ionization_Penalty_Charging>
0.00106265

> <r_epik_Ionization_Penalty_Neutral>
8.76119e-05

> <r_epik_State_Penalty>
0.000695551

> <r_epik_Charging_Adjusted_Penalty>
0.0017582

> <i_epik_Tot_Q>
1

> <i_epik_Tot_abs_Q>
1

> <r_epik_Metal_State_Penalty>
-0

> <b_epik_Metal_Only>
0

> <s_lp_Force_Field>
OPLS_2005

> <r_lp_Energy>
22.0854

> <b_lp_Chiralities_Consistent>
1

> <s_lp_Variant>
AV-unprocessed.smi:843-2

> <Gold.Version>
5.8.1

> <Gold.Id.Protein>
6NUR|6NUR_protein|mol2

> <Gold.PLP.Fitness>
46.8835

> <Gold.PLP.PLP>
-38.9732

> <Gold.PLP.part.hbond>
-2.0000

> <Gold.PLP.part.metal>
0.0000

> <Gold.PLP.part.buried>
-3.4709

> <Gold.PLP.part.nonpolar>
-33.1192

> <Gold.PLP.part.repulsive>
0.2761

> <Gold.PLP.ligand.clash>
0.0000

> <Gold.PLP.ligand.torsion>
0.5654

> <Gold.PLP.Chemscore.Hbond>
3.0000

> <Gold.PLP.Chemscore.CHOScore>
0.0000

> <Gold.PLP.Chemscore.Metal>
0.0000

> <Gold.Chemscore.Hbonds>
donor molecule, donor type, donor heavy atom, donor atom, acceptor molecule, acceptor atom, score
      L1  H     3    46       P1 10175  2.00
      L1  H     8    34       P1  8028  1.00

> <Gold.PLP.Chemscore.Internal.Correction>
0.0410

> <Gold.Rescore>
     Score         DG    S(hbond)    S(metal)    S(lipo)     H(rot)  DE(clash)    DE(int)     intcor
     15.89     -18.91       1.89        0.00      96.96       1.65       1.39       1.64       ----

> <Gold.Chemscore.Fitness>
15.8858

> <Gold.Chemscore.DG>
-18.9141

> <Gold.Chemscore.ZeroCoef>
-5.4800

> <Gold.Chemscore.Hbond>
1.8897

> <Gold.Chemscore.Metal>
0.0000

> <Gold.Chemscore.Lipo>
96.9596

> <Gold.Chemscore.Internal_Hbond>
0.0000

> <Gold.Chemscore.DEClash>
1.3870

> <Gold.Chemscore.DEInternal>
1.6413

> <Gold.Chemscore.Rot>
1.6492

> <Gold.Chemscore.Internal.Correction>
   9.000000E+99

> <Gold.Chemscore.Hbonds>
donor molecule, donor type, donor heavy atom, donor atom, acceptor molecule, acceptor atom, score
      L1  H     3    46       P1 10175  0.98
      L1  H     8    34       P1  8028  1.00

> <Gold.Chemscore.Hbond.Weighted>
-6.3117

> <Gold.Chemscore.Metal.Weighted>
-0.0000

> <Gold.Chemscore.Lipo.Weighted>
-11.3443

> <Gold.Chemscore.Internal_Hbond.Weighted>
0.0000

> <Gold.Chemscore.DEClash.Weighted>
1.3870

> <Gold.Chemscore.DEInternal.Weighted>
1.6413

> <Gold.Chemscore.Rot.Weighted>
4.2219

> <Gold.Chemscore.Internal.Correction.Weighted>
   9.000000E+99

> <Gold.Protein.RotatedTorsions>
[ 6907 6896 6895 6894 ] final   75.36 input  -60.11 | X-H torsion
[ 7974 7965 7964 7962 ] final  -99.61 input  175.53 | X-H torsion
[ 8008 7997 7996 7995 ] final   79.91 input   59.86 | X-H torsion
[ 10167 10162 10161 10158 ] final  -93.18 input  -65.29 | X-H torsion
[ 10718 10713 10712 10709 ] final  -90.86 input   66.30 | X-H torsion
[ 10763 10752 10751 10750 ] final   54.62 input  -60.55 | X-H torsion
[ 11005 11000 10999 10996 ] final -118.30 input  -57.11 | X-H torsion

> <Gold.Protein.ActiveResidues>
 VAL166  LYS551  ARG553  GLY616  TRP617  ASP618  TYR619  PRO620  LYS621  CYS622 
 ASP623  PHE694  ASN695  SER759  ASP760  ASP761  ALA762  ILE779  LEU786  VAL792 
 PHE793  MET794  SER795  GLU796  ALA797  LYS798  CYS799  TRP800  GLU811  SER814 

> <Gold.Protein.RotatedAtoms>
  152.5022  134.4132  159.9455 H   0  0  0  0  0  0  0  0  0  0  0  0  # atno 6907 bound_to 6896
  151.4101  133.3724  159.2750 H   0  0  0  0  0  0  0  0  0  0  0  0  # atno 6908 bound_to 6896
  150.9298  134.8735  159.7603 H   0  0  0  0  0  0  0  0  0  0  0  0  # atno 6909 bound_to 6896
  145.3053  140.9387  143.2800 H   0  0  0  0  0  0  0  0  0  0  0  0  # atno 7974 bound_to 7965
  155.8762  140.3446  155.5855 H   0  0  0  0  0  0  0  0  0  0  0  0  # atno 8008 bound_to 7997
  155.7772  140.0853  157.2097 H   0  0  0  0  0  0  0  0  0  0  0  0  # atno 8009 bound_to 7997
  154.4021  140.1507  156.2997 H   0  0  0  0  0  0  0  0  0  0  0  0  # atno 8010 bound_to 7997
  140.3273  143.3015  151.9981 H   0  0  0  0  0  0  0  0  0  0  0  0  # atno 10167 bound_to 10162
  155.9990  130.4926  150.5387 H   0  0  0  0  0  0  0  0  0  0  0  0  # atno 10718 bound_to 10713
  152.9807  135.5738  154.4934 H   0  0  0  0  0  0  0  0  0  0  0  0  # atno 10763 bound_to 10752
  154.4465  135.2777  155.1813 H   0  0  0  0  0  0  0  0  0  0  0  0  # atno 10764 bound_to 10752
  154.3459  135.6219  153.5672 H   0  0  0  0  0  0  0  0  0  0  0  0  # atno 10765 bound_to 10752
  141.0295  134.0002  157.3164 H   0  0  0  0  0  0  0  0  0  0  0  0  # atno 11005 bound_to 11000
  144.9060  139.4589  143.6610 LP  0  0  0  0  0  0  0  0  0  0  0  0  # atno 17320 bound_to 7965
  146.3137  139.7841  142.9000 LP  0  0  0  0  0  0  0  0  0  0  0  0  # atno 17321 bound_to 7965
  139.4863  144.6264  151.7157 LP  0  0  0  0  0  0  0  0  0  0  0  0  # atno 17342 bound_to 10162
  140.5430  144.0549  150.6095 LP  0  0  0  0  0  0  0  0  0  0  0  0  # atno 17343 bound_to 10162
  157.3326  131.0702  151.1849 LP  0  0  0  0  0  0  0  0  0  0  0  0  # atno 17370 bound_to 10713
  157.2724  130.6711  149.6026 LP  0  0  0  0  0  0  0  0  0  0  0  0  # atno 17371 bound_to 10713
  139.9198  135.0200  156.8022 LP  0  0  0  0  0  0  0  0  0  0  0  0  # atno 17394 bound_to 11000
  140.6431  133.9799  155.7717 LP  0  0  0  0  0  0  0  0  0  0  0  0  # atno 17395 bound_to 11000

$$$$
