AV-unprocessed.smi:2110|AV-procd|sdf|8608|dock7
  -GOLD-   2272011353D 1   1.00000     0.00000
 Structure written by MMmdl.
 46 47  0  0  0  0  0  0  0  0  1 V2000
  147.3368  134.3813  162.3223 C   0  0  0  0  0  0  0  0  0  0  0  0
  146.7051  134.4096  160.9212 C   0  0  0  0  0  0  0  0  0  0  0  0
  147.5924  134.9993  159.8990 N   0  0  0  0  0  0  0  0  0  0  0  0
  147.7546  134.2437  158.6417 C   0  0  0  0  0  0  0  0  0  0  0  0
  148.5015  132.9153  158.8320 C   0  0  0  0  0  0  0  0  0  0  0  0
  148.0237  136.6821  159.9713 S   0  0  0  0  0  0  0  0  0  0  0  0
  146.8278  137.4990  159.7140 O   0  0  0  0  0  0  0  0  0  0  0  0
  148.8582  136.9187  161.1593 O   0  0  0  0  0  0  0  0  0  0  0  0
  149.0389  136.7722  158.5864 N   0  0  0  0  0  0  0  0  0  0  0  0
  150.4207  137.2354  158.6883 C   0  0  0  0  0  0  0  0  0  0  0  0
  150.7359  138.4665  157.8510 C   0  0  0  0  0  0  0  0  0  0  0  0
  150.5455  138.4205  156.4564 C   0  0  0  0  0  0  0  0  0  0  0  0
  150.8484  139.5659  155.6972 C   0  0  0  0  0  0  0  0  0  0  0  0
  151.3084  140.7127  156.2392 N   0  0  0  0  0  0  0  0  0  0  0  0
  151.4896  140.7748  157.5814 C   0  0  0  0  0  0  0  0  0  0  0  0
  151.9596  141.9819  158.1414 N   0  0  0  0  0  0  0  0  0  0  0  0
  152.3056  141.9211  159.5595 C   0  0  0  0  0  0  0  0  0  0  0  0
  153.0808  143.1827  159.9757 C   0  0  0  0  0  0  0  0  0  0  0  0
  152.3290  144.3437  159.6387 O   0  0  0  0  0  0  0  0  0  0  0  0
  152.0990  144.4381  158.2368 C   0  0  0  0  0  0  0  0  0  0  0  0
  151.2856  143.2219  157.7625 C   0  0  0  0  0  0  0  0  0  0  0  0
  151.2222  139.6666  158.4192 C   0  0  0  0  0  0  0  0  0  0  0  0
  146.6184  134.0167  163.0564 H   0  0  0  0  0  0  0  0  0  0  0  0
  147.6636  135.3686  162.6461 H   0  0  0  0  0  0  0  0  0  0  0  0
  148.1986  133.7155  162.3593 H   0  0  0  0  0  0  0  0  0  0  0  0
  146.4519  133.3937  160.6175 H   0  0  0  0  0  0  0  0  0  0  0  0
  145.7640  134.9598  160.9522 H   0  0  0  0  0  0  0  0  0  0  0  0
  146.7752  134.0529  158.2036 H   0  0  0  0  0  0  0  0  0  0  0  0
  148.2884  134.8647  157.9216 H   0  0  0  0  0  0  0  0  0  0  0  0
  148.5530  132.3706  157.8893 H   0  0  0  0  0  0  0  0  0  0  0  0
  148.0018  132.2693  159.5524 H   0  0  0  0  0  0  0  0  0  0  0  0
  149.5262  133.0737  159.1673 H   0  0  0  0  0  0  0  0  0  0  0  0
  148.8470  136.0893  157.8544 H   0  0  0  0  0  0  0  0  0  0  0  0
  150.6464  137.4417  159.7349 H   0  0  0  0  0  0  0  0  0  0  0  0
  151.0840  136.4296  158.3720 H   0  0  0  0  0  0  0  0  0  0  0  0
  150.1783  137.5258  155.9753 H   0  0  0  0  0  0  0  0  0  0  0  0
  150.7165  139.5617  154.6255 H   0  0  0  0  0  0  0  0  0  0  0  0
  151.3868  141.8402  160.1415 H   0  0  0  0  0  0  0  0  0  0  0  0
  152.9056  141.0427  159.7929 H   0  0  0  0  0  0  0  0  0  0  0  0
  153.2583  143.1756  161.0511 H   0  0  0  0  0  0  0  0  0  0  0  0
  154.0584  143.2153  159.4918 H   0  0  0  0  0  0  0  0  0  0  0  0
  151.5541  145.3583  158.0269 H   0  0  0  0  0  0  0  0  0  0  0  0
  153.0499  144.5023  157.7051 H   0  0  0  0  0  0  0  0  0  0  0  0
  151.1618  143.2686  156.6798 H   0  0  0  0  0  0  0  0  0  0  0  0
  150.2897  143.2432  158.2073 H   0  0  0  0  0  0  0  0  0  0  0  0
  151.4041  139.7396  159.4801 H   0  0  0  0  0  0  0  0  0  0  0  0
  1  2  1  0  0  0  0
  1 23  1  0  0  0  0
  1 24  1  0  0  0  0
  1 25  1  0  0  0  0
  2  3  1  0  0  0  0
  2 26  1  0  0  0  0
  2 27  1  0  0  0  0
  3  4  1  0  0  0  0
  3  6  1  0  0  0  0
  4  5  1  0  0  0  0
  4 28  1  0  0  0  0
  4 29  1  0  0  0  0
  5 30  1  0  0  0  0
  5 31  1  0  0  0  0
  5 32  1  0  0  0  0
  6  7  2  0  0  0  0
  6  8  2  0  0  0  0
  6  9  1  0  0  0  0
  9 10  1  0  0  0  0
  9 33  1  0  0  0  0
 10 11  1  0  0  0  0
 10 34  1  0  0  0  0
 10 35  1  0  0  0  0
 11 22  1  0  0  0  0
 11 12  2  0  0  0  0
 12 13  1  0  0  0  0
 12 36  1  0  0  0  0
 13 14  2  0  0  0  0
 13 37  1  0  0  0  0
 14 15  1  0  0  0  0
 15 16  1  0  0  0  0
 15 22  2  0  0  0  0
 16 21  1  0  0  0  0
 16 17  1  0  0  0  0
 17 18  1  0  0  0  0
 17 38  1  0  0  0  0
 17 39  1  0  0  0  0
 18 19  1  0  0  0  0
 18 40  1  0  0  0  0
 18 41  1  0  0  0  0
 19 20  1  0  0  0  0
 20 21  1  0  0  0  0
 20 42  1  0  0  0  0
 20 43  1  0  0  0  0
 21 44  1  0  0  0  0
 21 45  1  0  0  0  0
 22 46  1  0  0  0  0
M  END
> <s_m_source_file>
AV-unprocessed.smi

> <i_m_source_file_index>
2110

> <i_lp_mmshare_version>
43012

> <i_f3d_flags>
0

> <s_epik_input>
W0NIM11bQ0gyXU4oW0NIMl1bQ0gzXSlTKD1PKSg9TylbTkhdW0NIMl1jMVtjSF1bY0hdbmMoW2NIXTEpTjJbQ0gyXVtDSDJdT1tDSDJdW0NIMl0y

> <s_epik_cmdline>
J2VwaWtfcHl0aG9uJywgJy1waCcsICc3LjAnLCAnLXRuJywgJzgnLCAnLW1hJywgJzIwMCcsICctbWV0YWxfYmluZGluZycsICctaW1hZScsICc8aW5maWxlLm1hZT4nLCAnLW9tYWUnLCAnPG91dGZpbGUubWFlPic=

> <r_lp_tautomer_probability>
1

> <r_epik_Ionization_Penalty>
0.0503757

> <r_epik_Ionization_Penalty_Charging>
0

> <r_epik_Ionization_Penalty_Neutral>
0.0503757

> <r_epik_State_Penalty>
0.0467666

> <r_epik_Charging_Adjusted_Penalty>
0.0467666

> <i_epik_Tot_Q>
0

> <i_epik_Tot_abs_Q>
0

> <r_epik_Metal_State_Penalty>
0.311919

> <b_epik_Metal_Only>
0

> <s_lp_Force_Field>
OPLS_2005

> <r_lp_Energy>
13.6867

> <b_lp_Chiralities_Consistent>
1

> <s_lp_Variant>
AV-unprocessed.smi:2110-1

> <Gold.Version>
5.8.1

> <Gold.Id.Protein>
6NUR|6NUR_protein|mol2

> <Gold.PLP.Fitness>
41.4979

> <Gold.PLP.PLP>
-36.1297

> <Gold.PLP.part.hbond>
-1.8179

> <Gold.PLP.part.metal>
0.0000

> <Gold.PLP.part.buried>
-5.5173

> <Gold.PLP.part.nonpolar>
-29.8779

> <Gold.PLP.part.repulsive>
0.1758

> <Gold.PLP.ligand.clash>
0.0372

> <Gold.PLP.ligand.torsion>
2.1162

> <Gold.PLP.Chemscore.Hbond>
2.0000

> <Gold.PLP.Chemscore.CHOScore>
0.0000

> <Gold.PLP.Chemscore.Metal>
0.0000

> <Gold.Chemscore.Hbonds>
donor molecule, donor type, donor heavy atom, donor atom, acceptor molecule, acceptor atom, score
      P1  H  6931  6943       L1     8  0.99
      P1  H  6934  6947       L1     7  1.00

> <Gold.PLP.Chemscore.Internal.Correction>
3.6378

> <Gold.Rescore>
     Score         DG    S(hbond)    S(metal)    S(lipo)     H(rot)  DE(clash)    DE(int)     intcor
     14.43     -16.66       1.60        0.00      87.41       1.72       0.11       2.12       ----

> <Gold.Chemscore.Fitness>
14.4279

> <Gold.Chemscore.DG>
-16.6597

> <Gold.Chemscore.ZeroCoef>
-5.4800

> <Gold.Chemscore.Hbond>
1.6017

> <Gold.Chemscore.Metal>
0.0000

> <Gold.Chemscore.Lipo>
87.4133

> <Gold.Chemscore.Internal_Hbond>
0.0000

> <Gold.Chemscore.DEClash>
0.1095

> <Gold.Chemscore.DEInternal>
2.1223

> <Gold.Chemscore.Rot>
1.7177

> <Gold.Chemscore.Internal.Correction>
   9.000000E+99

> <Gold.Chemscore.Hbonds>
donor molecule, donor type, donor heavy atom, donor atom, acceptor molecule, acceptor atom, score
      P1  H  6931  6943       L1     8  0.89
      P1  H  6934  6947       L1     7  0.28

> <Gold.Chemscore.Hbond.Weighted>
-5.3497

> <Gold.Chemscore.Metal.Weighted>
-0.0000

> <Gold.Chemscore.Lipo.Weighted>
-10.2274

> <Gold.Chemscore.Internal_Hbond.Weighted>
0.0000

> <Gold.Chemscore.DEClash.Weighted>
0.1095

> <Gold.Chemscore.DEInternal.Weighted>
2.1223

> <Gold.Chemscore.Rot.Weighted>
4.3974

> <Gold.Chemscore.Internal.Correction.Weighted>
   9.000000E+99

> <Gold.Protein.RotatedTorsions>
[ 6907 6896 6895 6894 ] final -118.99 input  -60.11 | X-H torsion
[ 7974 7965 7964 7962 ] final  128.66 input  175.53 | X-H torsion
[ 8008 7997 7996 7995 ] final    2.02 input   59.86 | X-H torsion
[ 10167 10162 10161 10158 ] final   59.47 input  -65.29 | X-H torsion
[ 10718 10713 10712 10709 ] final -101.57 input   66.30 | X-H torsion
[ 10763 10752 10751 10750 ] final -163.60 input  -60.55 | X-H torsion
[ 11005 11000 10999 10996 ] final  -92.68 input  -57.11 | X-H torsion

> <Gold.Protein.ActiveResidues>
 VAL166  LYS551  ARG553  GLY616  TRP617  ASP618  TYR619  PRO620  LYS621  CYS622 
 ASP623  PHE694  ASN695  SER759  ASP760  ASP761  ALA762  ILE779  LEU786  VAL792 
 PHE793  MET794  SER795  GLU796  ALA797  LYS798  CYS799  TRP800  GLU811  SER814 

> <Gold.Protein.RotatedAtoms>
  150.8267  133.8160  159.3115 H   0  0  0  0  0  0  0  0  0  0  0  0  # atno 6907 bound_to 6896
  151.5902  135.1052  160.0047 H   0  0  0  0  0  0  0  0  0  0  0  0  # atno 6908 bound_to 6896
  152.4351  133.7305  159.6641 H   0  0  0  0  0  0  0  0  0  0  0  0  # atno 6909 bound_to 6896
  145.0371  139.3995  143.5120 H   0  0  0  0  0  0  0  0  0  0  0  0  # atno 7974 bound_to 7965
  154.6867  140.2644  155.6854 H   0  0  0  0  0  0  0  0  0  0  0  0  # atno 8008 bound_to 7997
  156.2717  140.2799  156.1353 H   0  0  0  0  0  0  0  0  0  0  0  0  # atno 8009 bound_to 7997
  155.0955  140.0374  157.2671 H   0  0  0  0  0  0  0  0  0  0  0  0  # atno 8010 bound_to 7997
  140.1760  144.4229  150.6638 H   0  0  0  0  0  0  0  0  0  0  0  0  # atno 10167 bound_to 10162
  156.0199  130.5379  150.6982 H   0  0  0  0  0  0  0  0  0  0  0  0  # atno 10718 bound_to 10713
  154.7107  135.3005  154.9202 H   0  0  0  0  0  0  0  0  0  0  0  0  # atno 10763 bound_to 10752
  154.0104  135.6695  153.4769 H   0  0  0  0  0  0  0  0  0  0  0  0  # atno 10764 bound_to 10752
  153.0752  135.5038  154.8303 H   0  0  0  0  0  0  0  0  0  0  0  0  # atno 10765 bound_to 10752
  141.1516  133.7837  157.0053 H   0  0  0  0  0  0  0  0  0  0  0  0  # atno 11005 bound_to 11000
  146.3505  139.9952  142.8681 LP  0  0  0  0  0  0  0  0  0  0  0  0  # atno 17320 bound_to 7965
  145.1695  140.9714  143.4330 LP  0  0  0  0  0  0  0  0  0  0  0  0  # atno 17321 bound_to 7965
  140.6551  143.2235  151.5988 LP  0  0  0  0  0  0  0  0  0  0  0  0  # atno 17342 bound_to 10162
  139.5317  144.2898  152.1161 LP  0  0  0  0  0  0  0  0  0  0  0  0  # atno 17343 bound_to 10162
  157.4648  131.0887  151.0706 LP  0  0  0  0  0  0  0  0  0  0  0  0  # atno 17370 bound_to 10713
  157.1184  130.6051  149.5499 LP  0  0  0  0  0  0  0  0  0  0  0  0  # atno 17371 bound_to 10713
  140.0913  134.9591  157.1780 LP  0  0  0  0  0  0  0  0  0  0  0  0  # atno 17394 bound_to 11000
  140.3442  134.2670  155.7207 LP  0  0  0  0  0  0  0  0  0  0  0  0  # atno 17395 bound_to 11000

$$$$
