AV-unprocessed.smi:2503|AV-procd|sdf|9847|dock5
  -GOLD-   2272013473D 1   1.00000     0.00000
 Structure written by MMmdl.
 37 38  0  0  0  0  0  0  0  0  2 V2000
  147.4464  141.3083  153.4107 C   0  0  0  0  0  0  0  0  0  0  0  0
  147.6029  139.8308  153.7954 C   0  0  0  0  0  0  0  0  0  0  0  0
  146.6606  139.4440  154.9462 C   0  0  0  0  0  0  0  0  0  0  0  0
  149.0375  139.4983  154.1025 C   0  0  0  0  0  0  0  0  0  0  0  0
  149.7308  138.4882  153.5613 N   0  3  0  0  0  0  0  0  0  0  0  0
  150.9962  138.4411  154.0780 C   0  0  0  0  0  0  0  0  0  0  0  0
  151.0776  139.4578  154.9917 C   0  0  0  0  0  0  0  0  0  0  0  0
  149.8574  140.0858  154.9951 N   0  0  0  0  0  0  0  0  0  0  0  0
  149.4827  141.2343  155.8348 C   0  0  0  0  0  0  0  0  0  0  0  0
  150.5103  141.5147  156.9381 C   0  0  0  0  0  0  0  0  0  0  0  0
  151.0141  140.5713  157.5524 O   0  0  0  0  0  0  0  0  0  0  0  0
  150.7829  142.8243  157.1405 N   0  0  0  0  0  0  0  0  0  0  0  0
  151.6467  143.4342  157.9868 C   0  0  0  0  0  0  0  0  0  0  0  0
  151.7247  144.6611  158.0178 O   0  0  0  0  0  0  0  0  0  0  0  0
  152.4038  142.6415  158.7678 N   0  0  0  0  0  0  0  0  0  0  0  0
  153.1828  143.0689  159.8844 C   0  0  0  0  0  0  0  0  0  0  0  0
  153.2592  142.1451  161.0804 C   0  0  0  0  0  0  0  0  0  0  0  0
  152.4473  143.4082  161.1626 C   0  0  0  0  0  0  0  0  0  0  0  0
  148.0665  141.5589  152.5496 H   0  0  0  0  0  0  0  0  0  0  0  0
  147.7352  141.9653  154.2317 H   0  0  0  0  0  0  0  0  0  0  0  0
  146.4130  141.5375  153.1495 H   0  0  0  0  0  0  0  0  0  0  0  0
  147.3219  139.2246  152.9354 H   0  0  0  0  0  0  0  0  0  0  0  0
  146.7470  138.3832  155.1833 H   0  0  0  0  0  0  0  0  0  0  0  0
  145.6207  139.6360  154.6803 H   0  0  0  0  0  0  0  0  0  0  0  0
  146.8782  140.0093  155.8528 H   0  0  0  0  0  0  0  0  0  0  0  0
  151.7231  137.7044  153.7682 H   0  0  0  0  0  0  0  0  0  0  0  0
  151.8936  139.7722  155.6263 H   0  0  0  0  0  0  0  0  0  0  0  0
  149.3469  142.1040  155.1903 H   0  0  0  0  0  0  0  0  0  0  0  0
  148.5163  141.0201  156.2926 H   0  0  0  0  0  0  0  0  0  0  0  0
  150.2563  143.4602  156.5594 H   0  0  0  0  0  0  0  0  0  0  0  0
  152.4296  141.6552  158.5502 H   0  0  0  0  0  0  0  0  0  0  0  0
  154.0744  143.6593  159.6769 H   0  0  0  0  0  0  0  0  0  0  0  0
  152.7170  141.2025  161.0323 H   0  0  0  0  0  0  0  0  0  0  0  0
  154.1978  142.1138  161.6304 H   0  0  0  0  0  0  0  0  0  0  0  0
  152.8433  144.2209  161.7682 H   0  0  0  0  0  0  0  0  0  0  0  0
  151.3634  143.3080  161.1697 H   0  0  0  0  0  0  0  0  0  0  0  0
  149.3664  137.8519  152.8634 H   0  0  0  0  0  0  0  0  0  0  0  0
  1  2  1  0  0  0  0
  1 19  1  0  0  0  0
  1 20  1  0  0  0  0
  1 21  1  0  0  0  0
  2  3  1  0  0  0  0
  2  4  1  0  0  0  0
  2 22  1  0  0  0  0
  3 23  1  0  0  0  0
  3 24  1  0  0  0  0
  3 25  1  0  0  0  0
  4  8  1  0  0  0  0
  4  5  2  0  0  0  0
  5  6  1  0  0  0  0
  5 37  1  0  0  0  0
  6  7  2  0  0  0  0
  6 26  1  0  0  0  0
  7  8  1  0  0  0  0
  7 27  1  0  0  0  0
  8  9  1  0  0  0  0
  9 10  1  0  0  0  0
  9 28  1  0  0  0  0
  9 29  1  0  0  0  0
 10 11  2  0  0  0  0
 10 12  1  0  0  0  0
 12 13  1  0  0  0  0
 12 30  1  0  0  0  0
 13 14  2  0  0  0  0
 13 15  1  0  0  0  0
 15 16  1  0  0  0  0
 15 31  1  0  0  0  0
 16 18  1  0  0  0  0
 16 17  1  0  0  0  0
 16 32  1  0  0  0  0
 17 18  1  0  0  0  0
 17 33  1  0  0  0  0
 17 34  1  0  0  0  0
 18 35  1  0  0  0  0
 18 36  1  0  0  0  0
M  CHG  1   5   1
M  END
> <s_m_source_file>
AV-unprocessed.smi

> <i_m_source_file_index>
2503

> <i_lp_mmshare_version>
43012

> <i_f3d_flags>
0

> <s_epik_input>
W0NIM11bQ0hdKFtDSDNdKWMxbltjSF1bY0hdbjFbQ0gyXUMoPU8pW05IXUMoPU8pW05IXVtDSF0yW0NIMl1bQ0gyXTI=

> <s_epik_cmdline>
J2VwaWtfcHl0aG9uJywgJy1waCcsICc3LjAnLCAnLXRuJywgJzgnLCAnLW1hJywgJzIwMCcsICctbWV0YWxfYmluZGluZycsICctaW1hZScsICc8aW5maWxlLm1hZT4nLCAnLW9tYWUnLCAnPG91dGZpbGUubWFlPic=

> <r_lp_tautomer_probability>
1

> <r_epik_Ionization_Penalty>
0.381304

> <r_epik_Ionization_Penalty_Charging>
0

> <r_epik_Ionization_Penalty_Neutral>
0.381304

> <r_epik_State_Penalty>
0.37936

> <r_epik_Charging_Adjusted_Penalty>
0.37936

> <i_epik_Tot_Q>
1

> <i_epik_Tot_abs_Q>
1

> <r_epik_Metal_State_Penalty>
0.628559

> <b_epik_Metal_Only>
0

> <s_lp_Force_Field>
OPLS_2005

> <r_lp_Energy>
25.6891

> <b_lp_Chiralities_Consistent>
1

> <s_lp_Variant>
AV-unprocessed.smi:2503-1

> <Gold.Version>
5.8.1

> <Gold.Id.Protein>
6NUR|6NUR_protein|mol2

> <Gold.PLP.Fitness>
45.5465

> <Gold.PLP.PLP>
-38.1276

> <Gold.PLP.part.hbond>
-3.0000

> <Gold.PLP.part.metal>
0.0000

> <Gold.PLP.part.buried>
-4.7943

> <Gold.PLP.part.nonpolar>
-29.8293

> <Gold.PLP.part.repulsive>
0.2748

> <Gold.PLP.ligand.clash>
0.0000

> <Gold.PLP.ligand.torsion>
0.8365

> <Gold.PLP.Chemscore.Hbond>
3.0000

> <Gold.PLP.Chemscore.CHOScore>
0.0000

> <Gold.PLP.Chemscore.Metal>
0.0000

> <Gold.Chemscore.Hbonds>
donor molecule, donor type, donor heavy atom, donor atom, acceptor molecule, acceptor atom, score
      L1  H     5    37       P1  7948  2.00
      L1  H    12    30       P1  8028  0.93

> <Gold.PLP.Chemscore.Internal.Correction>
0.0920

> <Gold.Rescore>
     Score         DG    S(hbond)    S(metal)    S(lipo)     H(rot)  DE(clash)    DE(int)     intcor
     13.73     -15.89       1.97        0.00      72.60       1.82       0.02       2.14       ----

> <Gold.Chemscore.Fitness>
13.7328

> <Gold.Chemscore.DG>
-15.8914

> <Gold.Chemscore.ZeroCoef>
-5.4800

> <Gold.Chemscore.Hbond>
1.9706

> <Gold.Chemscore.Metal>
0.0000

> <Gold.Chemscore.Lipo>
72.5982

> <Gold.Chemscore.Internal_Hbond>
0.0000

> <Gold.Chemscore.DEClash>
0.0178

> <Gold.Chemscore.DEInternal>
2.1408

> <Gold.Chemscore.Rot>
1.8220

> <Gold.Chemscore.Internal.Correction>
   9.000000E+99

> <Gold.Chemscore.Hbonds>
donor molecule, donor type, donor heavy atom, donor atom, acceptor molecule, acceptor atom, score
      L1  H     5    37       P1  7948  0.92
      L1  H    12    30       P1  8028  0.89

> <Gold.Chemscore.Hbond.Weighted>
-6.5817

> <Gold.Chemscore.Metal.Weighted>
-0.0000

> <Gold.Chemscore.Lipo.Weighted>
-8.4940

> <Gold.Chemscore.Internal_Hbond.Weighted>
0.0000

> <Gold.Chemscore.DEClash.Weighted>
0.0178

> <Gold.Chemscore.DEInternal.Weighted>
2.1408

> <Gold.Chemscore.Rot.Weighted>
4.6643

> <Gold.Chemscore.Internal.Correction.Weighted>
   9.000000E+99

> <Gold.Protein.RotatedTorsions>
[ 6907 6896 6895 6894 ] final  172.99 input  -60.11 | X-H torsion
[ 7974 7965 7964 7962 ] final  -38.94 input  175.53 | X-H torsion
[ 8008 7997 7996 7995 ] final   28.21 input   59.86 | X-H torsion
[ 10167 10162 10161 10158 ] final  158.63 input  -65.29 | X-H torsion
[ 10718 10713 10712 10709 ] final -166.38 input   66.30 | X-H torsion
[ 10763 10752 10751 10750 ] final    7.66 input  -60.55 | X-H torsion
[ 11005 11000 10999 10996 ] final  -45.88 input  -57.11 | X-H torsion

> <Gold.Protein.ActiveResidues>
 VAL166  LYS551  ARG553  GLY616  TRP617  ASP618  TYR619  PRO620  LYS621  CYS622 
 ASP623  PHE694  ASN695  SER759  ASP760  ASP761  ALA762  ILE779  LEU786  VAL792 
 PHE793  MET794  SER795  GLU796  ALA797  LYS798  CYS799  TRP800  GLU811  SER814 

> <Gold.Protein.RotatedAtoms>
  151.7755  133.3345  159.3456 H   0  0  0  0  0  0  0  0  0  0  0  0  # atno 6907 bound_to 6896
  150.7445  134.5979  159.6030 H   0  0  0  0  0  0  0  0  0  0  0  0  # atno 6908 bound_to 6896
  152.3312  134.7259  160.0340 H   0  0  0  0  0  0  0  0  0  0  0  0  # atno 6909 bound_to 6896
  146.0442  140.6569  142.9073 H   0  0  0  0  0  0  0  0  0  0  0  0  # atno 7974 bound_to 7965
  155.0551  140.3184  155.4679 H   0  0  0  0  0  0  0  0  0  0  0  0  # atno 8008 bound_to 7997
  156.2826  140.2139  156.5622 H   0  0  0  0  0  0  0  0  0  0  0  0  # atno 8009 bound_to 7997
  154.7178  140.0492  157.0598 H   0  0  0  0  0  0  0  0  0  0  0  0  # atno 8010 bound_to 7997
  139.4828  144.4806  151.8449 H   0  0  0  0  0  0  0  0  0  0  0  0  # atno 10167 bound_to 10162
  156.6670  130.9069  151.3038 H   0  0  0  0  0  0  0  0  0  0  0  0  # atno 10718 bound_to 10713
  153.2337  135.6895  153.7860 H   0  0  0  0  0  0  0  0  0  0  0  0  # atno 10763 bound_to 10752
  153.7015  135.3296  155.3227 H   0  0  0  0  0  0  0  0  0  0  0  0  # atno 10764 bound_to 10752
  154.8325  135.4569  154.1233 H   0  0  0  0  0  0  0  0  0  0  0  0  # atno 10765 bound_to 10752
  141.0544  133.6731  156.3076 H   0  0  0  0  0  0  0  0  0  0  0  0  # atno 11005 bound_to 11000
  144.7089  140.3963  143.7096 LP  0  0  0  0  0  0  0  0  0  0  0  0  # atno 17320 bound_to 7965
  145.6834  139.1623  143.2687 LP  0  0  0  0  0  0  0  0  0  0  0  0  # atno 17321 bound_to 7965
  140.4282  144.2151  150.5887 LP  0  0  0  0  0  0  0  0  0  0  0  0  # atno 17342 bound_to 10162
  140.4806  143.2380  151.8961 LP  0  0  0  0  0  0  0  0  0  0  0  0  # atno 17343 bound_to 10162
  157.7090  130.9418  150.1026 LP  0  0  0  0  0  0  0  0  0  0  0  0  # atno 17370 bound_to 10713
  156.1967  130.3658  149.8840 LP  0  0  0  0  0  0  0  0  0  0  0  0  # atno 17371 bound_to 10713
  140.5993  134.5571  157.5514 LP  0  0  0  0  0  0  0  0  0  0  0  0  # atno 17394 bound_to 11000
  139.9377  134.7844  156.0759 LP  0  0  0  0  0  0  0  0  0  0  0  0  # atno 17395 bound_to 11000

$$$$
