AV-unprocessed.smi:1082|AV-procd|sdf|4712|dock4
  -GOLD-   22720 3233D 1   1.00000     0.00000
 Structure written by MMmdl.
 48 50  0  0  0  0  0  0  0  0  2 V2000
  145.4622  138.3064  153.5583 O   0  0  0  0  0  0  0  0  0  0  0  0
  146.4223  137.7255  153.0519 C   0  0  0  0  0  0  0  0  0  0  0  0
  146.3245  136.5432  152.4282 N   0  0  0  0  0  0  0  0  0  0  0  0
  145.0864  135.7930  152.2553 C   0  0  0  0  0  0  0  0  0  0  0  0
  144.8131  135.5007  150.7686 C   0  0  0  0  0  0  0  0  0  0  0  0
  145.3036  134.1634  150.3600 N   0  3  0  0  0  0  0  0  0  0  0  0
  146.4856  133.6910  151.1210 C   0  0  0  0  0  0  0  0  0  0  0  0
  146.2204  132.2281  151.4985 C   0  0  0  0  0  0  0  0  0  0  0  0
  145.0868  131.7969  150.5757 C   0  0  0  0  0  0  0  0  0  0  0  0
  144.2915  133.0854  150.3950 C   0  0  0  0  0  0  0  0  0  0  0  0
  147.6822  138.1896  153.0224 N   0  0  0  0  0  0  0  0  0  0  0  0
  148.1757  139.4144  153.5532 C   0  0  0  0  0  0  0  0  0  0  0  0
  147.4018  140.5997  153.5789 C   0  0  0  0  0  0  0  0  0  0  0  0
  147.9506  141.7639  154.1461 C   0  0  0  0  0  0  0  0  0  0  0  0
  149.2515  141.7003  154.6764 C   0  0  0  0  0  0  0  0  0  0  0  0
  149.9955  140.5752  154.6734 N   0  0  0  0  0  0  0  0  0  0  0  0
  149.4743  139.4518  154.1235 C   0  0  0  0  0  0  0  0  0  0  0  0
  150.2590  138.2845  154.1572 N   0  0  0  0  0  0  0  0  0  0  0  0
  149.7289  137.2312  155.0161 C   0  0  0  0  0  0  0  0  0  0  0  0
  150.8926  136.7527  155.8892 C   0  0  0  0  0  0  0  0  0  0  0  0
  152.1244  137.1347  155.0768 C   0  0  0  0  0  0  0  0  0  0  0  0
  151.6876  138.4385  154.4135 C   0  0  0  0  0  0  0  0  0  0  0  0
  147.1641  136.1387  152.0396 H   0  0  0  0  0  0  0  0  0  0  0  0
  145.1846  134.8635  152.8158 H   0  0  0  0  0  0  0  0  0  0  0  0
  144.2513  136.3378  152.6995 H   0  0  0  0  0  0  0  0  0  0  0  0
  143.7380  135.5399  150.5860 H   0  0  0  0  0  0  0  0  0  0  0  0
  145.2664  136.2675  150.1384 H   0  0  0  0  0  0  0  0  0  0  0  0
  147.3655  133.7764  150.4827 H   0  0  0  0  0  0  0  0  0  0  0  0
  146.6685  134.2887  152.0153 H   0  0  0  0  0  0  0  0  0  0  0  0
  147.1060  131.5997  151.4003 H   0  0  0  0  0  0  0  0  0  0  0  0
  145.8863  132.1718  152.5355 H   0  0  0  0  0  0  0  0  0  0  0  0
  145.4904  131.4695  149.6165 H   0  0  0  0  0  0  0  0  0  0  0  0
  144.4894  130.9828  150.9871 H   0  0  0  0  0  0  0  0  0  0  0  0
  143.6273  133.2261  151.2496 H   0  0  0  0  0  0  0  0  0  0  0  0
  143.6816  133.0732  149.4911 H   0  0  0  0  0  0  0  0  0  0  0  0
  148.3449  137.6567  152.4780 H   0  0  0  0  0  0  0  0  0  0  0  0
  146.3953  140.6297  153.1901 H   0  0  0  0  0  0  0  0  0  0  0  0
  147.3841  142.6829  154.1796 H   0  0  0  0  0  0  0  0  0  0  0  0
  149.7039  142.5734  155.1227 H   0  0  0  0  0  0  0  0  0  0  0  0
  148.8872  137.5648  155.6252 H   0  0  0  0  0  0  0  0  0  0  0  0
  149.3749  136.4202  154.3794 H   0  0  0  0  0  0  0  0  0  0  0  0
  150.8927  137.2998  156.8331 H   0  0  0  0  0  0  0  0  0  0  0  0
  150.8431  135.6876  156.1168 H   0  0  0  0  0  0  0  0  0  0  0  0
  153.0219  137.2468  155.6854 H   0  0  0  0  0  0  0  0  0  0  0  0
  152.3193  136.3754  154.3181 H   0  0  0  0  0  0  0  0  0  0  0  0
  152.2305  138.6137  153.4846 H   0  0  0  0  0  0  0  0  0  0  0  0
  151.8897  139.2775  155.0798 H   0  0  0  0  0  0  0  0  0  0  0  0
  145.6088  134.2386  149.4000 H   0  0  0  0  0  0  0  0  0  0  0  0
  1  2  2  0  0  0  0
  2  3  1  0  0  0  0
  2 11  1  0  0  0  0
  3  4  1  0  0  0  0
  3 23  1  0  0  0  0
  4  5  1  0  0  0  0
  4 24  1  0  0  0  0
  4 25  1  0  0  0  0
  5  6  1  0  0  0  0
  5 26  1  0  0  0  0
  5 27  1  0  0  0  0
  6 10  1  0  0  0  0
  6  7  1  0  0  0  0
  6 48  1  0  0  0  0
  7  8  1  0  0  0  0
  7 28  1  0  0  0  0
  7 29  1  0  0  0  0
  8  9  1  0  0  0  0
  8 30  1  0  0  0  0
  8 31  1  0  0  0  0
  9 10  1  0  0  0  0
  9 32  1  0  0  0  0
  9 33  1  0  0  0  0
 10 34  1  0  0  0  0
 10 35  1  0  0  0  0
 11 12  1  0  0  0  0
 11 36  1  0  0  0  0
 12 17  1  0  0  0  0
 12 13  2  0  0  0  0
 13 14  1  0  0  0  0
 13 37  1  0  0  0  0
 14 15  2  0  0  0  0
 14 38  1  0  0  0  0
 15 16  1  0  0  0  0
 15 39  1  0  0  0  0
 16 17  2  0  0  0  0
 17 18  1  0  0  0  0
 18 22  1  0  0  0  0
 18 19  1  0  0  0  0
 19 20  1  0  0  0  0
 19 40  1  0  0  0  0
 19 41  1  0  0  0  0
 20 21  1  0  0  0  0
 20 42  1  0  0  0  0
 20 43  1  0  0  0  0
 21 22  1  0  0  0  0
 21 44  1  0  0  0  0
 21 45  1  0  0  0  0
 22 46  1  0  0  0  0
 22 47  1  0  0  0  0
M  CHG  1   6   1
M  END
> <s_m_source_file>
AV-unprocessed.smi

> <i_m_source_file_index>
1082

> <i_lp_mmshare_version>
43012

> <i_f3d_flags>
0

> <s_epik_input>
W0NIMl0xW0NIMl1bQ0gyXVtDSDJdTjFbQ0gyXVtDSDJdW05IXUMoPU8pW05IXWMyW2NIXVtjSF1bY0hdbmMyTjNbQ0gyXVtDSDJdW0NIMl1bQ0gyXTM=

> <s_epik_cmdline>
J2VwaWtfcHl0aG9uJywgJy1waCcsICc3LjAnLCAnLXRuJywgJzgnLCAnLW1hJywgJzIwMCcsICctbWV0YWxfYmluZGluZycsICctaW1hZScsICc8aW5maWxlLm1hZT4nLCAnLW9tYWUnLCAnPG91dGZpbGUubWFlPic=

> <r_lp_tautomer_probability>
1

> <r_epik_Ionization_Penalty>
0.0844881

> <r_epik_Ionization_Penalty_Charging>
0.00210487

> <r_epik_Ionization_Penalty_Neutral>
0.0823833

> <r_epik_State_Penalty>
0.0725565

> <r_epik_Charging_Adjusted_Penalty>
0.0746613

> <i_epik_Tot_Q>
1

> <i_epik_Tot_abs_Q>
1

> <r_epik_Metal_State_Penalty>
0.064294

> <b_epik_Metal_Only>
0

> <s_lp_Force_Field>
OPLS_2005

> <r_lp_Energy>
55.3809

> <b_lp_Chiralities_Consistent>
1

> <s_lp_Variant>
AV-unprocessed.smi:1082-1

> <Gold.Version>
5.8.1

> <Gold.Id.Protein>
6NUR|6NUR_protein|mol2

> <Gold.PLP.Fitness>
48.4761

> <Gold.PLP.PLP>
-36.1329

> <Gold.PLP.part.hbond>
-4.3409

> <Gold.PLP.part.metal>
0.0000

> <Gold.PLP.part.buried>
1.4439

> <Gold.PLP.part.nonpolar>
-34.4491

> <Gold.PLP.part.repulsive>
1.5954

> <Gold.PLP.ligand.clash>
0.0000

> <Gold.PLP.ligand.torsion>
1.1815

> <Gold.PLP.Chemscore.Hbond>
3.8560

> <Gold.PLP.Chemscore.CHOScore>
1.0000

> <Gold.PLP.Chemscore.Metal>
0.0000

> <Gold.Chemscore.Hbonds>
donor molecule, donor type, donor heavy atom, donor atom, acceptor molecule, acceptor atom, score
      L1  H     3    23       P1  7948  0.98
      L1  H     6    48       P1  7921  1.00
      L1  H    11    36       P1  7948  1.00
      P1  H  7989  7998       L1    16  0.86
      L1  C    15    39       P1  8028  1.00

> <Gold.PLP.Chemscore.Internal.Correction>
0.1382

> <Gold.Rescore>
     Score         DG    S(hbond)    S(metal)    S(lipo)     H(rot)  DE(clash)    DE(int)     intcor
     18.04     -22.25       2.92        0.00      95.06       1.60       1.81       2.41       ----

> <Gold.Chemscore.Fitness>
18.0385

> <Gold.Chemscore.DG>
-22.2535

> <Gold.Chemscore.ZeroCoef>
-5.4800

> <Gold.Chemscore.Hbond>
2.9183

> <Gold.Chemscore.Metal>
0.0000

> <Gold.Chemscore.Lipo>
95.0589

> <Gold.Chemscore.Internal_Hbond>
0.0000

> <Gold.Chemscore.DEClash>
1.8088

> <Gold.Chemscore.DEInternal>
2.4062

> <Gold.Chemscore.Rot>
1.5998

> <Gold.Chemscore.Internal.Correction>
   9.000000E+99

> <Gold.Chemscore.Hbonds>
donor molecule, donor type, donor heavy atom, donor atom, acceptor molecule, acceptor atom, score
      L1  H     3    23       P1  7948  0.93
      L1  H     6    48       P1  7921  0.78
      L1  H    11    36       P1  7948  0.97
      P1  H  7989  7998       L1    16  0.16

> <Gold.Chemscore.Hbond.Weighted>
-9.7472

> <Gold.Chemscore.Metal.Weighted>
-0.0000

> <Gold.Chemscore.Lipo.Weighted>
-11.1219

> <Gold.Chemscore.Internal_Hbond.Weighted>
0.0000

> <Gold.Chemscore.DEClash.Weighted>
1.8088

> <Gold.Chemscore.DEInternal.Weighted>
2.4062

> <Gold.Chemscore.Rot.Weighted>
4.0956

> <Gold.Chemscore.Internal.Correction.Weighted>
   9.000000E+99

> <Gold.Protein.RotatedTorsions>
[ 6907 6896 6895 6894 ] final -171.14 input  -60.11 | X-H torsion
[ 7974 7965 7964 7962 ] final  158.56 input  175.53 | X-H torsion
[ 8008 7997 7996 7995 ] final -140.85 input   59.86 | X-H torsion
[ 10167 10162 10161 10158 ] final -126.67 input  -65.29 | X-H torsion
[ 10718 10713 10712 10709 ] final  137.75 input   66.30 | X-H torsion
[ 10763 10752 10751 10750 ] final -169.46 input  -60.55 | X-H torsion
[ 11005 11000 10999 10996 ] final   -1.71 input  -57.11 | X-H torsion

> <Gold.Protein.ActiveResidues>
 VAL166  LYS551  ARG553  GLY616  TRP617  ASP618  TYR619  PRO620  LYS621  CYS622 
 ASP623  PHE694  ASN695  SER759  ASP760  ASP761  ALA762  ILE779  LEU786  VAL792 
 PHE793  MET794  SER795  GLU796  ALA797  LYS798  CYS799  TRP800  GLU811  SER814 

> <Gold.Protein.RotatedAtoms>
  151.5190  133.3470  159.2897 H   0  0  0  0  0  0  0  0  0  0  0  0  # atno 6907 bound_to 6896
  150.8664  134.8031  159.7133 H   0  0  0  0  0  0  0  0  0  0  0  0  # atno 6908 bound_to 6896
  152.4667  134.5067  159.9793 H   0  0  0  0  0  0  0  0  0  0  0  0  # atno 6909 bound_to 6896
  144.7839  139.7495  143.6249 H   0  0  0  0  0  0  0  0  0  0  0  0  # atno 7974 bound_to 7965
  155.4682  140.0551  157.2983 H   0  0  0  0  0  0  0  0  0  0  0  0  # atno 8008 bound_to 7997
  154.4709  140.2040  155.9951 H   0  0  0  0  0  0  0  0  0  0  0  0  # atno 8009 bound_to 7997
  156.1054  140.3212  155.8004 H   0  0  0  0  0  0  0  0  0  0  0  0  # atno 8010 bound_to 7997
  139.9689  143.5867  152.2419 H   0  0  0  0  0  0  0  0  0  0  0  0  # atno 10167 bound_to 10162
  157.4327  131.1050  151.0232 H   0  0  0  0  0  0  0  0  0  0  0  0  # atno 10718 bound_to 10713
  154.6520  135.2912  154.9975 H   0  0  0  0  0  0  0  0  0  0  0  0  # atno 10763 bound_to 10752
  154.1064  135.6569  153.4881 H   0  0  0  0  0  0  0  0  0  0  0  0  # atno 10764 bound_to 10752
  153.0382  135.5255  154.7432 H   0  0  0  0  0  0  0  0  0  0  0  0  # atno 10765 bound_to 10752
  140.6503  133.9410  155.8376 H   0  0  0  0  0  0  0  0  0  0  0  0  # atno 11005 bound_to 11000
  146.2061  139.5387  142.9711 LP  0  0  0  0  0  0  0  0  0  0  0  0  # atno 17320 bound_to 7965
  145.5975  141.0360  143.2037 LP  0  0  0  0  0  0  0  0  0  0  0  0  # atno 17321 bound_to 7965
  139.6496  144.7660  151.2174 LP  0  0  0  0  0  0  0  0  0  0  0  0  # atno 17342 bound_to 10162
  140.7528  143.6183  150.8538 LP  0  0  0  0  0  0  0  0  0  0  0  0  # atno 17343 bound_to 10162
  157.1123  130.6027  149.5485 LP  0  0  0  0  0  0  0  0  0  0  0  0  # atno 17370 bound_to 10713
  155.9919  130.4975  150.7318 LP  0  0  0  0  0  0  0  0  0  0  0  0  # atno 17371 bound_to 10713
  141.0541  134.0441  157.3745 LP  0  0  0  0  0  0  0  0  0  0  0  0  # atno 17394 bound_to 11000
  139.9048  135.0176  156.7436 LP  0  0  0  0  0  0  0  0  0  0  0  0  # atno 17395 bound_to 11000

$$$$
