AV-unprocessed.smi:54|AV-procd|sdf|542|dock4
  -GOLD-   2262016433D 1   1.00000     0.00000
 Structure written by MMmdl.
 44 46  0  0  0  0  0  0  0  0  1 V2000
  148.7464  140.3309  154.4243 C   0  0  0  0  0  0  0  0  0  0  0  0
  147.7084  140.8672  153.4254 C   0  0  0  0  0  0  0  0  0  0  0  0
  146.9165  142.0428  154.0204 C   0  0  0  0  0  0  0  0  0  0  0  0
  146.7634  139.7456  152.9795 C   0  0  0  0  0  0  0  0  0  0  0  0
  146.7569  139.3175  151.8245 O   0  0  0  0  0  0  0  0  0  0  0  0
  145.8734  139.2360  154.0079 N   0  0  0  0  0  0  0  0  0  0  0  0
  144.9354  138.2696  153.8757 C   0  0  0  0  0  0  0  0  0  0  0  0
  145.0289  137.2872  152.9909 N   0  0  0  0  0  0  0  0  0  0  0  0
  143.9799  136.4109  153.0006 C   0  0  0  0  0  0  0  0  0  0  0  0
  142.8807  136.4530  153.8318 C   0  0  0  0  0  0  0  0  0  0  0  0
  142.0280  135.3919  153.5499 N   0  0  0  0  0  0  0  0  0  0  0  0
  142.6236  134.7548  152.5803 C   0  0  0  0  0  0  0  0  0  0  0  0
  143.8115  135.3198  152.1756 N   0  0  0  0  0  0  0  0  0  0  0  0
  144.7761  134.8713  151.1201 C   0  0  1  0  0  0  0  0  0  0  0  0
  146.0230  134.6848  151.7197 O   0  0  0  0  0  0  0  0  0  0  0  0
  146.1797  133.3133  152.0668 C   0  0  2  0  0  0  0  0  0  0  0  0
  147.6533  132.9716  152.3470 C   0  0  0  0  0  0  0  0  0  0  0  0
  147.7816  131.5943  152.6281 O   0  0  0  0  0  0  0  0  0  0  0  0
  145.5510  132.6132  150.8560 C   0  0  2  0  0  0  0  0  0  0  0  0
  146.4725  132.5611  149.7786 O   0  0  0  0  0  0  0  0  0  0  0  0
  144.3438  133.5026  150.5571 C   0  0  2  0  0  0  0  0  0  0  0  0
  144.0142  133.5387  149.1809 O   0  0  0  0  0  0  0  0  0  0  0  0
  142.7715  137.5011  154.8054 C   0  0  0  0  0  0  0  0  0  0  0  0
  141.8739  137.6913  155.6232 O   0  0  0  0  0  0  0  0  0  0  0  0
  143.8605  138.3818  154.7579 N   0  0  0  0  0  0  0  0  0  0  0  0
  144.7966  135.6853  150.3941 H   0  0  0  0  0  0  0  0  0  0  0  0
  145.5711  133.0908  152.9459 H   0  0  0  0  0  0  0  0  0  0  0  0
  145.2477  131.5927  151.0922 H   0  0  0  0  0  0  0  0  0  0  0  0
  143.4810  133.1346  151.1148 H   0  0  0  0  0  0  0  0  0  0  0  0
  149.3084  139.4964  154.0026 H   0  0  0  0  0  0  0  0  0  0  0  0
  148.2760  139.9840  155.3455 H   0  0  0  0  0  0  0  0  0  0  0  0
  149.4651  141.1056  154.6923 H   0  0  0  0  0  0  0  0  0  0  0  0
  148.2423  141.2322  152.5467 H   0  0  0  0  0  0  0  0  0  0  0  0
  146.1720  142.4171  153.3167 H   0  0  0  0  0  0  0  0  0  0  0  0
  147.5793  142.8728  154.2663 H   0  0  0  0  0  0  0  0  0  0  0  0
  146.3962  141.7552  154.9350 H   0  0  0  0  0  0  0  0  0  0  0  0
  145.9437  139.6790  154.9119 H   0  0  0  0  0  0  0  0  0  0  0  0
  142.2077  133.8604  152.1394 H   0  0  0  0  0  0  0  0  0  0  0  0
  148.2613  133.1840  151.4673 H   0  0  0  0  0  0  0  0  0  0  0  0
  148.0527  133.5635  153.1711 H   0  0  0  0  0  0  0  0  0  0  0  0
  148.0757  131.1563  151.8440 H   0  0  0  0  0  0  0  0  0  0  0  0
  146.1338  133.0917  149.0732 H   0  0  0  0  0  0  0  0  0  0  0  0
  144.8107  133.6610  148.6856 H   0  0  0  0  0  0  0  0  0  0  0  0
  143.8476  139.1495  155.4132 H   0  0  0  0  0  0  0  0  0  0  0  0
  1  2  1  0  0  0  0
  1 30  1  0  0  0  0
  1 31  1  0  0  0  0
  1 32  1  0  0  0  0
  2  3  1  0  0  0  0
  2  4  1  0  0  0  0
  2 33  1  0  0  0  0
  3 34  1  0  0  0  0
  3 35  1  0  0  0  0
  3 36  1  0  0  0  0
  4  5  2  0  0  0  0
  4  6  1  0  0  0  0
  6 37  1  0  0  0  0
  6  7  1  0  0  0  0
  7 25  1  0  0  0  0
  7  8  2  0  0  0  0
  8  9  1  0  0  0  0
  9 13  1  0  0  0  0
  9 10  2  0  0  0  0
 10 11  1  0  0  0  0
 10 23  1  0  0  0  0
 11 12  2  0  0  0  0
 12 13  1  0  0  0  0
 12 38  1  0  0  0  0
 13 14  1  0  0  0  0
 14 26  1  0  0  0  0
 14 21  1  0  0  0  0
 14 15  1  0  0  0  0
 15 16  1  0  0  0  0
 16 27  1  0  0  0  0
 16 17  1  0  0  0  0
 16 19  1  0  0  0  0
 17 18  1  0  0  0  0
 17 39  1  0  0  0  0
 17 40  1  0  0  0  0
 18 41  1  0  0  0  0
 19 28  1  0  0  0  0
 19 20  1  0  0  0  0
 19 21  1  0  0  0  0
 20 42  1  0  0  0  0
 21 29  1  0  0  0  0
 21 22  1  0  0  0  0
 22 43  1  0  0  0  0
 23 24  2  0  0  0  0
 23 25  1  0  0  0  0
 25 44  1  0  0  0  0
M  END
> <s_m_source_file>
AV-unprocessed.smi

> <i_m_source_file_index>
54

> <i_lp_mmshare_version>
43012

> <i_f3d_flags>
0

> <s_epik_input>
W0NIM11bQ0hdKFtDSDNdKUMoPU8pW05IXWMobjEpW25IXWMoPU8pYyhjMTIpbltjSF1uMltDQEBIXTNPW0NASF0oW0NIMl1bT0hdKVtDQEBIXShbT0hdKVtDQEhdM1tPSF0=

> <s_epik_cmdline>
J2VwaWtfcHl0aG9uJywgJy1waCcsICc3LjAnLCAnLXRuJywgJzgnLCAnLW1hJywgJzIwMCcsICctbWV0YWxfYmluZGluZycsICctaW1hZScsICc8aW5maWxlLm1hZT4nLCAnLW9tYWUnLCAnPG91dGZpbGUubWFlPic=

> <r_lp_tautomer_probability>
0.85571

> <r_epik_Ionization_Penalty>
0.0316551

> <r_epik_Ionization_Penalty_Charging>
0.0316043

> <r_epik_Ionization_Penalty_Neutral>
5.07097e-05

> <r_epik_State_Penalty>
3.15494e-07

> <r_epik_Charging_Adjusted_Penalty>
0.0316047

> <i_epik_Tot_Q>
0

> <i_epik_Tot_abs_Q>
0

> <r_epik_Metal_State_Penalty>
0.421206

> <b_epik_Metal_Only>
0

> <s_epik_Chemistry_Notes>
This compound contains an acetal/aminal-like group ( X-CH(R)-Y where X, Y are N, S, or O) that may be acid/base labile, releasing an aldehyde.

> <s_lp_Force_Field>
OPLS_2005

> <r_lp_Energy>
43.5631

> <b_lp_Chiralities_Consistent>
1

> <s_lp_Variant>
AV-unprocessed.smi:54-14

> <Gold.Version>
5.8.1

> <Gold.Id.Protein>
6NUR|6NUR_protein|mol2

> <Gold.PLP.Fitness>
41.6670

> <Gold.PLP.PLP>
-35.9278

> <Gold.PLP.part.hbond>
-6.4130

> <Gold.PLP.part.metal>
0.0000

> <Gold.PLP.part.buried>
-4.4643

> <Gold.PLP.part.nonpolar>
-27.5897

> <Gold.PLP.part.repulsive>
2.0092

> <Gold.PLP.ligand.clash>
0.0000

> <Gold.PLP.ligand.torsion>
0.3079

> <Gold.PLP.Chemscore.Hbond>
2.0617

> <Gold.PLP.Chemscore.CHOScore>
0.0416

> <Gold.PLP.Chemscore.Metal>
0.0000

> <Gold.Chemscore.Hbonds>
donor molecule, donor type, donor heavy atom, donor atom, acceptor molecule, acceptor atom, score
      L1  H    18    41       P1 10747  1.00
      L1  H    20    42       P1  7921  0.05
      L1  H    22    43       P1  7921  0.99
      L1  C    12    38       P1 10186  0.03

> <Gold.PLP.Chemscore.Internal.Correction>
0.0449

> <Gold.Rescore>
     Score         DG    S(hbond)    S(metal)    S(lipo)     H(rot)  DE(clash)    DE(int)     intcor
      5.65      -7.53       2.00        0.00      49.11       4.05       0.45       1.44       ----

> <Gold.Chemscore.Fitness>
5.6474

> <Gold.Chemscore.DG>
-7.5319

> <Gold.Chemscore.ZeroCoef>
-5.4800

> <Gold.Chemscore.Hbond>
1.9975

> <Gold.Chemscore.Metal>
0.0000

> <Gold.Chemscore.Lipo>
49.1145

> <Gold.Chemscore.Internal_Hbond>
0.0000

> <Gold.Chemscore.DEClash>
0.4477

> <Gold.Chemscore.DEInternal>
1.4369

> <Gold.Chemscore.Rot>
4.0493

> <Gold.Chemscore.Internal.Correction>
   9.000000E+99

> <Gold.Chemscore.Hbonds>
donor molecule, donor type, donor heavy atom, donor atom, acceptor molecule, acceptor atom, score
      L1  H    18    41       P1 10747  1.00
      L1  H    22    43       P1  7921  0.86

> <Gold.Chemscore.Hbond.Weighted>
-6.6718

> <Gold.Chemscore.Metal.Weighted>
-0.0000

> <Gold.Chemscore.Lipo.Weighted>
-5.7464

> <Gold.Chemscore.Internal_Hbond.Weighted>
0.0000

> <Gold.Chemscore.DEClash.Weighted>
0.4477

> <Gold.Chemscore.DEInternal.Weighted>
1.4369

> <Gold.Chemscore.Rot.Weighted>
10.3662

> <Gold.Chemscore.Internal.Correction.Weighted>
   9.000000E+99

> <Gold.Protein.RotatedTorsions>
[ 6907 6896 6895 6894 ] final   83.68 input  -60.11 | X-H torsion
[ 7974 7965 7964 7962 ] final  133.09 input  175.53 | X-H torsion
[ 8008 7997 7996 7995 ] final  -99.08 input   59.86 | X-H torsion
[ 10167 10162 10161 10158 ] final   33.95 input  -65.29 | X-H torsion
[ 10718 10713 10712 10709 ] final  121.25 input   66.30 | X-H torsion
[ 10763 10752 10751 10750 ] final   35.22 input  -60.55 | X-H torsion
[ 11005 11000 10999 10996 ] final -100.67 input  -57.11 | X-H torsion

> <Gold.Protein.ActiveResidues>
 VAL166  LYS551  ARG553  GLY616  TRP617  ASP618  TYR619  PRO620  LYS621  CYS622 
 ASP623  PHE694  ASN695  SER759  ASP760  ASP761  ALA762  ILE779  LEU786  VAL792 
 PHE793  MET794  SER795  GLU796  ALA797  LYS798  CYS799  TRP800  GLU811  SER814 

> <Gold.Protein.RotatedAtoms>
  152.5333  134.2858  159.9024 H   0  0  0  0  0  0  0  0  0  0  0  0  # atno 6907 bound_to 6896
  151.2812  133.4202  159.2634 H   0  0  0  0  0  0  0  0  0  0  0  0  # atno 6908 bound_to 6896
  151.0282  134.9535  159.8153 H   0  0  0  0  0  0  0  0  0  0  0  0  # atno 6909 bound_to 6896
  144.9901  139.4416  143.5344 H   0  0  0  0  0  0  0  0  0  0  0  0  # atno 7974 bound_to 7965
  154.8099  140.0450  157.1335 H   0  0  0  0  0  0  0  0  0  0  0  0  # atno 8008 bound_to 7997
  154.9380  140.3049  155.5114 H   0  0  0  0  0  0  0  0  0  0  0  0  # atno 8009 bound_to 7997
  156.2970  140.2311  156.4447 H   0  0  0  0  0  0  0  0  0  0  0  0  # atno 8010 bound_to 7997
  140.4360  144.1256  150.6166 H   0  0  0  0  0  0  0  0  0  0  0  0  # atno 10167 bound_to 10162
  157.5832  131.1073  150.8147 H   0  0  0  0  0  0  0  0  0  0  0  0  # atno 10718 bound_to 10713
  153.0128  135.6339  154.1793 H   0  0  0  0  0  0  0  0  0  0  0  0  # atno 10763 bound_to 10752
  154.1534  135.2827  155.3130 H   0  0  0  0  0  0  0  0  0  0  0  0  # atno 10764 bound_to 10752
  154.6036  135.5579  153.7461 H   0  0  0  0  0  0  0  0  0  0  0  0  # atno 10765 bound_to 10752
  141.1261  133.8417  157.1132 H   0  0  0  0  0  0  0  0  0  0  0  0  # atno 11005 bound_to 11000
  146.3429  139.9226  142.8764 LP  0  0  0  0  0  0  0  0  0  0  0  0  # atno 17320 bound_to 7965
  145.2298  140.9968  143.3997 LP  0  0  0  0  0  0  0  0  0  0  0  0  # atno 17321 bound_to 7965
  140.4373  143.2542  151.9519 LP  0  0  0  0  0  0  0  0  0  0  0  0  # atno 17342 bound_to 10162
  139.4787  144.5688  151.8122 LP  0  0  0  0  0  0  0  0  0  0  0  0  # atno 17343 bound_to 10162
  156.8588  130.5106  149.5305 LP  0  0  0  0  0  0  0  0  0  0  0  0  # atno 17370 bound_to 10713
  156.0879  130.5872  150.9680 LP  0  0  0  0  0  0  0  0  0  0  0  0  # atno 17371 bound_to 10713
  140.0262  134.9923  157.0690 LP  0  0  0  0  0  0  0  0  0  0  0  0  # atno 17394 bound_to 11000
  140.4359  134.1732  155.7170 LP  0  0  0  0  0  0  0  0  0  0  0  0  # atno 17395 bound_to 11000

$$$$
