AV-unprocessed.smi:1571|AV-procd|sdf|6326|dock5
  -GOLD-   22720 6533D 1   1.00000     0.00000
 Structure written by MMmdl.
 37 38  0  0  0  0  0  0  0  0  1 V2000
  145.4506  130.5130  151.6709 C   0  0  0  0  0  0  0  0  0  0  0  0
  145.0275  131.8270  151.0793 C   0  0  0  0  0  0  0  0  0  0  0  0
  144.3947  131.8350  149.9185 N   0  0  0  0  0  0  0  0  0  0  0  0
  144.1414  133.1788  149.6291 O   0  0  0  0  0  0  0  0  0  0  0  0
  144.6365  133.9370  150.6395 C   0  0  0  0  0  0  0  0  0  0  0  0
  144.4661  135.4125  150.5055 C   0  0  0  0  0  0  0  0  0  0  0  0
  145.2102  133.1432  151.5952 C   0  0  0  0  0  0  0  0  0  0  0  0
  145.8809  133.5561  152.8835 C   0  0  0  0  0  0  0  0  0  0  0  0
  147.3369  133.0778  152.9505 C   0  0  0  0  0  0  0  0  0  0  0  0
  147.8453  132.4452  152.0235 O   0  0  0  0  0  0  0  0  0  0  0  0
  147.9976  133.3999  154.0734 N   0  0  0  0  0  0  0  0  0  0  0  0
  149.3893  133.0774  154.3791 C   0  0  0  0  0  0  0  0  0  0  0  0
  149.4943  131.5898  154.7670 C   0  0  0  0  0  0  0  0  0  0  0  0
  150.9406  131.1369  155.0122 C   0  0  0  0  0  0  0  0  0  0  0  0
  151.7044  132.1080  156.3759 S   0  0  0  0  0  0  0  0  0  0  0  0
  150.9079  131.8846  157.5923 O   0  0  0  0  0  0  0  0  0  0  0  0
  153.1545  131.8639  156.3849 O   0  0  0  0  0  0  0  0  0  0  0  0
  151.3884  133.8264  155.7992 C   0  0  0  0  0  0  0  0  0  0  0  0
  149.9005  134.0269  155.4800 C   0  0  0  0  0  0  0  0  0  0  0  0
  145.9913  130.6492  152.6071 H   0  0  0  0  0  0  0  0  0  0  0  0
  146.1065  129.9706  150.9897 H   0  0  0  0  0  0  0  0  0  0  0  0
  144.5872  129.8799  151.8766 H   0  0  0  0  0  0  0  0  0  0  0  0
  144.9105  135.9390  151.3498 H   0  0  0  0  0  0  0  0  0  0  0  0
  143.4094  135.6764  150.4612 H   0  0  0  0  0  0  0  0  0  0  0  0
  144.9447  135.7741  149.5955 H   0  0  0  0  0  0  0  0  0  0  0  0
  145.8720  134.6405  152.9971 H   0  0  0  0  0  0  0  0  0  0  0  0
  145.3459  133.1614  153.7477 H   0  0  0  0  0  0  0  0  0  0  0  0
  147.4932  133.9200  154.7769 H   0  0  0  0  0  0  0  0  0  0  0  0
  150.0061  133.2337  153.4922 H   0  0  0  0  0  0  0  0  0  0  0  0
  148.8954  131.3947  155.6576 H   0  0  0  0  0  0  0  0  0  0  0  0
  149.0670  130.9768  153.9725 H   0  0  0  0  0  0  0  0  0  0  0  0
  150.9799  130.0815  155.2815 H   0  0  0  0  0  0  0  0  0  0  0  0
  151.5458  131.2727  154.1159 H   0  0  0  0  0  0  0  0  0  0  0  0
  151.7173  134.5137  156.5786 H   0  0  0  0  0  0  0  0  0  0  0  0
  152.0019  134.0088  154.9167 H   0  0  0  0  0  0  0  0  0  0  0  0
  149.7471  135.0604  155.1673 H   0  0  0  0  0  0  0  0  0  0  0  0
  149.3116  133.8934  156.3885 H   0  0  0  0  0  0  0  0  0  0  0  0
  1  2  1  0  0  0  0
  1 20  1  0  0  0  0
  1 21  1  0  0  0  0
  1 22  1  0  0  0  0
  2  7  1  0  0  0  0
  2  3  2  0  0  0  0
  3  4  1  0  0  0  0
  4  5  1  0  0  0  0
  5  6  1  0  0  0  0
  5  7  2  0  0  0  0
  6 23  1  0  0  0  0
  6 24  1  0  0  0  0
  6 25  1  0  0  0  0
  7  8  1  0  0  0  0
  8  9  1  0  0  0  0
  8 26  1  0  0  0  0
  8 27  1  0  0  0  0
  9 10  2  0  0  0  0
  9 11  1  0  0  0  0
 11 12  1  0  0  0  0
 11 28  1  0  0  0  0
 12 19  1  0  0  0  0
 12 13  1  0  0  0  0
 12 29  1  0  0  0  0
 13 14  1  0  0  0  0
 13 30  1  0  0  0  0
 13 31  1  0  0  0  0
 14 15  1  0  0  0  0
 14 32  1  0  0  0  0
 14 33  1  0  0  0  0
 15 16  2  0  0  0  0
 15 17  2  0  0  0  0
 15 18  1  0  0  0  0
 18 19  1  0  0  0  0
 18 34  1  0  0  0  0
 18 35  1  0  0  0  0
 19 36  1  0  0  0  0
 19 37  1  0  0  0  0
M  END
> <s_m_source_file>
AV-unprocessed.smi

> <i_m_source_file_index>
1571

> <i_lp_mmshare_version>
43012

> <i_f3d_flags>
0

> <s_epik_input>
W0NIM11jMW5vYyhbQ0gzXSljMVtDSDJdQyg9TylbTkhdW0NIXShbQ0gyXVtDSDJdMilbQ0gyXVtDSDJdUzIoPU8pPU8=

> <s_epik_cmdline>
J2VwaWtfcHl0aG9uJywgJy1waCcsICc3LjAnLCAnLXRuJywgJzgnLCAnLW1hJywgJzIwMCcsICctbWV0YWxfYmluZGluZycsICctaW1hZScsICc8aW5maWxlLm1hZT4nLCAnLW9tYWUnLCAnPG91dGZpbGUubWFlPic=

> <r_lp_tautomer_probability>
1

> <r_epik_Ionization_Penalty>
4.0065e-08

> <r_epik_Ionization_Penalty_Charging>
0

> <r_epik_Ionization_Penalty_Neutral>
4.0065e-08

> <r_epik_State_Penalty>
-0

> <r_epik_Charging_Adjusted_Penalty>
0

> <i_epik_Tot_Q>
0

> <i_epik_Tot_abs_Q>
0

> <r_epik_Metal_State_Penalty>
-0

> <b_epik_Metal_Only>
0

> <s_lp_Force_Field>
OPLS_2005

> <r_lp_Energy>
-11.0004

> <b_lp_Chiralities_Consistent>
1

> <s_lp_Variant>
AV-unprocessed.smi:1571-1

> <Gold.Version>
5.8.1

> <Gold.Id.Protein>
6NUR|6NUR_protein|mol2

> <Gold.PLP.Fitness>
31.7987

> <Gold.PLP.PLP>
-28.5498

> <Gold.PLP.part.hbond>
-2.0000

> <Gold.PLP.part.metal>
0.0000

> <Gold.PLP.part.buried>
-5.1353

> <Gold.PLP.part.nonpolar>
-23.2857

> <Gold.PLP.part.repulsive>
2.5692

> <Gold.PLP.ligand.clash>
0.0000

> <Gold.PLP.ligand.torsion>
0.2509

> <Gold.PLP.Chemscore.Hbond>
1.2470

> <Gold.PLP.Chemscore.CHOScore>
0.0000

> <Gold.PLP.Chemscore.Metal>
0.0000

> <Gold.Chemscore.Hbonds>
donor molecule, donor type, donor heavy atom, donor atom, acceptor molecule, acceptor atom, score
      P1  H  6896  6908       L1    16  0.50
      P1  H 10785 10796       L1     3  0.09

> <Gold.PLP.Chemscore.Internal.Correction>
0.0096

> <Gold.Rescore>
     Score         DG    S(hbond)    S(metal)    S(lipo)     H(rot)  DE(clash)    DE(int)     intcor
     11.97     -13.45       1.21        0.00      65.40       1.46       1.22       0.25       ----

> <Gold.Chemscore.Fitness>
11.9729

> <Gold.Chemscore.DG>
-13.4492

> <Gold.Chemscore.ZeroCoef>
-5.4800

> <Gold.Chemscore.Hbond>
1.2141

> <Gold.Chemscore.Metal>
0.0000

> <Gold.Chemscore.Lipo>
65.4017

> <Gold.Chemscore.Internal_Hbond>
0.0000

> <Gold.Chemscore.DEClash>
1.2242

> <Gold.Chemscore.DEInternal>
0.2521

> <Gold.Chemscore.Rot>
1.4601

> <Gold.Chemscore.Internal.Correction>
   9.000000E+99

> <Gold.Chemscore.Hbonds>
donor molecule, donor type, donor heavy atom, donor atom, acceptor molecule, acceptor atom, score
      P1  H  6896  6908       L1    16  0.44
      P1  H 10785 10796       L1     3  0.09

> <Gold.Chemscore.Hbond.Weighted>
-4.0551

> <Gold.Chemscore.Metal.Weighted>
-0.0000

> <Gold.Chemscore.Lipo.Weighted>
-7.6520

> <Gold.Chemscore.Internal_Hbond.Weighted>
0.0000

> <Gold.Chemscore.DEClash.Weighted>
1.2242

> <Gold.Chemscore.DEInternal.Weighted>
0.2521

> <Gold.Chemscore.Rot.Weighted>
3.7379

> <Gold.Chemscore.Internal.Correction.Weighted>
   9.000000E+99

> <Gold.Protein.RotatedTorsions>
[ 6907 6896 6895 6894 ] final   79.37 input  -60.11 | X-H torsion
[ 7974 7965 7964 7962 ] final  -35.07 input  175.53 | X-H torsion
[ 8008 7997 7996 7995 ] final  -70.53 input   59.86 | X-H torsion
[ 10167 10162 10161 10158 ] final  112.57 input  -65.29 | X-H torsion
[ 10718 10713 10712 10709 ] final  -27.91 input   66.30 | X-H torsion
[ 10763 10752 10751 10750 ] final   20.98 input  -60.55 | X-H torsion
[ 11005 11000 10999 10996 ] final   53.10 input  -57.11 | X-H torsion

> <Gold.Protein.ActiveResidues>
 VAL166  LYS551  ARG553  GLY616  TRP617  ASP618  TYR619  PRO620  LYS621  CYS622 
 ASP623  PHE694  ASN695  SER759  ASP760  ASP761  ALA762  ILE779  LEU786  VAL792 
 PHE793  MET794  SER795  GLU796  ALA797  LYS798  CYS799  TRP800  GLU811  SER814 

> <Gold.Protein.RotatedAtoms>
  152.5196  134.3522  159.9254 H   0  0  0  0  0  0  0  0  0  0  0  0  # atno 6907 bound_to 6896
  151.3473  133.3933  159.2684 H   0  0  0  0  0  0  0  0  0  0  0  0  # atno 6908 bound_to 6896
  150.9755  134.9139  159.7871 H   0  0  0  0  0  0  0  0  0  0  0  0  # atno 6909 bound_to 6896
  146.0777  140.6115  142.8923 H   0  0  0  0  0  0  0  0  0  0  0  0  # atno 7974 bound_to 7965
  154.5019  140.0832  156.7816 H   0  0  0  0  0  0  0  0  0  0  0  0  # atno 8008 bound_to 7997
  155.3983  140.3436  155.4237 H   0  0  0  0  0  0  0  0  0  0  0  0  # atno 8009 bound_to 7997
  156.1467  140.1546  156.8822 H   0  0  0  0  0  0  0  0  0  0  0  0  # atno 8010 bound_to 7997
  139.6526  144.7128  151.2019 H   0  0  0  0  0  0  0  0  0  0  0  0  # atno 10167 bound_to 10162
  156.4321  130.4447  149.7110 H   0  0  0  0  0  0  0  0  0  0  0  0  # atno 10718 bound_to 10713
  153.1033  135.6678  153.9633 H   0  0  0  0  0  0  0  0  0  0  0  0  # atno 10763 bound_to 10752
  153.9197  135.3016  155.3449 H   0  0  0  0  0  0  0  0  0  0  0  0  # atno 10764 bound_to 10752
  154.7454  135.5060  153.9270 H   0  0  0  0  0  0  0  0  0  0  0  0  # atno 10765 bound_to 10752
  140.0795  134.5359  155.8962 H   0  0  0  0  0  0  0  0  0  0  0  0  # atno 11005 bound_to 11000
  144.7272  140.4562  143.6964 LP  0  0  0  0  0  0  0  0  0  0  0  0  # atno 17320 bound_to 7965
  145.6275  139.1532  143.2987 LP  0  0  0  0  0  0  0  0  0  0  0  0  # atno 17321 bound_to 7965
  140.7544  143.6125  150.8591 LP  0  0  0  0  0  0  0  0  0  0  0  0  # atno 17342 bound_to 10162
  139.9775  143.5988  152.2954 LP  0  0  0  0  0  0  0  0  0  0  0  0  # atno 17343 bound_to 10162
  156.4009  130.7674  151.2682 LP  0  0  0  0  0  0  0  0  0  0  0  0  # atno 17370 bound_to 10713
  157.7508  131.0240  150.3858 LP  0  0  0  0  0  0  0  0  0  0  0  0  # atno 17371 bound_to 10713
  141.2041  133.6637  156.6103 LP  0  0  0  0  0  0  0  0  0  0  0  0  # atno 17394 bound_to 11000
  140.3509  134.7769  157.4466 LP  0  0  0  0  0  0  0  0  0  0  0  0  # atno 17395 bound_to 11000

$$$$
