AV-unprocessed.smi:2439|AV-procd|sdf|9614|dock10
  -GOLD-   2272013243D 1   1.00000     0.00000
 Structure written by MMmdl.
 40 42  0  0  0  0  0  0  0  0  1 V2000
  146.9179  141.7405  159.0625 N   0  0  0  0  0  0  0  0  0  0  0  0
  147.0791  141.5904  157.9266 C   0  0  0  0  0  0  0  0  0  0  0  0
  147.2824  141.4017  156.4954 C   0  0  0  0  0  0  0  0  0  0  0  0
  146.2470  141.7585  155.6059 C   0  0  0  0  0  0  0  0  0  0  0  0
  146.4375  141.5784  154.2237 C   0  0  0  0  0  0  0  0  0  0  0  0
  147.6638  141.0482  153.7844 C   0  0  0  0  0  0  0  0  0  0  0  0
  148.6626  140.7047  154.6238 N   0  0  0  0  0  0  0  0  0  0  0  0
  148.4860  140.8706  155.9580 C   0  0  0  0  0  0  0  0  0  0  0  0
  149.5453  140.5050  156.8098 N   0  0  0  0  0  0  0  0  0  0  0  0
  150.9357  140.5445  156.3715 C   0  0  0  0  0  0  0  0  0  0  0  0
  151.8642  141.1783  157.4203 C   0  0  1  0  0  0  0  0  0  0  0  0
  151.1353  142.2525  158.2478 C   0  0  0  0  0  0  0  0  0  0  0  0
  151.9880  142.8045  159.2927 N   0  0  0  0  0  0  0  0  0  0  0  0
  151.2826  143.8188  160.0745 C   0  0  0  0  0  0  0  0  0  0  0  0
  152.1716  144.4427  161.1619 C   0  0  0  0  0  0  0  0  0  0  0  0
  152.7292  143.3509  162.0861 C   0  0  0  0  0  0  0  0  0  0  0  0
  153.4220  142.2598  161.2551 C   0  0  0  0  0  0  0  0  0  0  0  0
  152.4836  141.7259  160.1531 C   0  0  2  0  0  0  0  0  0  0  0  0
  153.1872  140.6358  159.3190 C   0  0  0  0  0  0  0  0  0  0  0  0
  152.3069  140.1549  158.3083 O   0  0  0  0  0  0  0  0  0  0  0  0
  145.3159  142.1658  155.9734 H   0  0  0  0  0  0  0  0  0  0  0  0
  145.6632  141.8413  153.5182 H   0  0  0  0  0  0  0  0  0  0  0  0
  147.8489  140.8964  152.7312 H   0  0  0  0  0  0  0  0  0  0  0  0
  149.3342  140.0214  157.6711 H   0  0  0  0  0  0  0  0  0  0  0  0
  151.2689  139.5352  156.1282 H   0  0  0  0  0  0  0  0  0  0  0  0
  150.9881  141.1110  155.4416 H   0  0  0  0  0  0  0  0  0  0  0  0
  152.7274  141.6308  156.9290 H   0  0  0  0  0  0  0  0  0  0  0  0
  150.8005  143.0531  157.5873 H   0  0  0  0  0  0  0  0  0  0  0  0
  150.2378  141.8203  158.6935 H   0  0  0  0  0  0  0  0  0  0  0  0
  150.9244  144.6078  159.4122 H   0  0  0  0  0  0  0  0  0  0  0  0
  150.3976  143.3799  160.5379 H   0  0  0  0  0  0  0  0  0  0  0  0
  152.9940  144.9864  160.6948 H   0  0  0  0  0  0  0  0  0  0  0  0
  151.6038  145.1718  161.7405 H   0  0  0  0  0  0  0  0  0  0  0  0
  153.4266  143.7815  162.8051 H   0  0  0  0  0  0  0  0  0  0  0  0
  151.9157  142.9096  162.6632 H   0  0  0  0  0  0  0  0  0  0  0  0
  154.3269  142.6680  160.8025 H   0  0  0  0  0  0  0  0  0  0  0  0
  153.7404  141.4460  161.9075 H   0  0  0  0  0  0  0  0  0  0  0  0
  151.6290  141.2578  160.6449 H   0  0  0  0  0  0  0  0  0  0  0  0
  154.0983  141.0218  158.8592 H   0  0  0  0  0  0  0  0  0  0  0  0
  153.4798  139.7994  159.9545 H   0  0  0  0  0  0  0  0  0  0  0  0
  1  2  3  0  0  0  0
  2  3  1  0  0  0  0
  3  8  1  0  0  0  0
  3  4  2  0  0  0  0
  4  5  1  0  0  0  0
  4 21  1  0  0  0  0
  5  6  2  0  0  0  0
  5 22  1  0  0  0  0
  6  7  1  0  0  0  0
  6 23  1  0  0  0  0
  7  8  2  0  0  0  0
  8  9  1  0  0  0  0
  9 10  1  0  0  0  0
  9 24  1  0  0  0  0
 10 11  1  0  0  0  0
 10 25  1  0  0  0  0
 10 26  1  0  0  0  0
 11 20  1  0  0  0  0
 11 12  1  0  0  0  0
 11 27  1  0  0  0  0
 12 13  1  0  0  0  0
 12 28  1  0  0  0  0
 12 29  1  0  0  0  0
 13 18  1  0  0  0  0
 13 14  1  0  0  0  0
 14 15  1  0  0  0  0
 14 30  1  0  0  0  0
 14 31  1  0  0  0  0
 15 16  1  0  0  0  0
 15 32  1  0  0  0  0
 15 33  1  0  0  0  0
 16 17  1  0  0  0  0
 16 34  1  0  0  0  0
 16 35  1  0  0  0  0
 17 18  1  0  0  0  0
 17 36  1  0  0  0  0
 17 37  1  0  0  0  0
 18 19  1  0  0  0  0
 18 38  1  0  0  0  0
 19 20  1  0  0  0  0
 19 39  1  0  0  0  0
 19 40  1  0  0  0  0
M  END
> <s_m_source_file>
AV-unprocessed.smi

> <i_m_source_file_index>
2439

> <i_lp_mmshare_version>
43012

> <i_f3d_flags>
0

> <s_epik_input>
TiNDYzFbY0hdW2NIXVtjSF1uYzFbTkhdW0NIMl1bQ0BIXShbQ0gyXTIpT1tDSDJdW0NAQEhdKE4yMylbQ0gyXVtDSDJdW0NIMl1bQ0gyXTM=

> <s_epik_cmdline>
J2VwaWtfcHl0aG9uJywgJy1waCcsICc3LjAnLCAnLXRuJywgJzgnLCAnLW1hJywgJzIwMCcsICctbWV0YWxfYmluZGluZycsICctaW1hZScsICc8aW5maWxlLm1hZT4nLCAnLW9tYWUnLCAnPG91dGZpbGUubWFlPic=

> <r_epik_Ionization_Penalty>
1.22355

> <r_epik_Ionization_Penalty_Charging>
0

> <r_epik_Ionization_Penalty_Neutral>
1.22355

> <r_epik_State_Penalty>
1.29103

> <r_epik_Charging_Adjusted_Penalty>
1.29103

> <i_epik_Tot_Q>
0

> <i_epik_Tot_abs_Q>
0

> <r_epik_Metal_State_Penalty>
1.29103

> <b_epik_Metal_Only>
0

> <s_lp_Force_Field>
OPLS_2005

> <r_lp_Energy>
37.4095

> <b_lp_Chiralities_Consistent>
1

> <s_lp_Variant>
AV-unprocessed.smi:2439-12

> <Gold.Version>
5.8.1

> <Gold.Id.Protein>
6NUR|6NUR_protein|mol2

> <Gold.PLP.Fitness>
42.1248

> <Gold.PLP.PLP>
-38.3935

> <Gold.PLP.part.hbond>
-1.0000

> <Gold.PLP.part.metal>
0.0000

> <Gold.PLP.part.buried>
-7.9176

> <Gold.PLP.part.nonpolar>
-30.2069

> <Gold.PLP.part.repulsive>
0.1959

> <Gold.PLP.ligand.clash>
0.0000

> <Gold.PLP.ligand.torsion>
0.6102

> <Gold.PLP.Chemscore.Hbond>
0.6503

> <Gold.PLP.Chemscore.CHOScore>
0.9999

> <Gold.PLP.Chemscore.Metal>
0.0000

> <Gold.Chemscore.Hbonds>
donor molecule, donor type, donor heavy atom, donor atom, acceptor molecule, acceptor atom, score
      P1  H  6934  6946       L1     1  0.62
      L1  C     6    23       P1  7957  1.00

> <Gold.PLP.Chemscore.Internal.Correction>
0.0012

> <Gold.Rescore>
     Score         DG    S(hbond)    S(metal)    S(lipo)     H(rot)  DE(clash)    DE(int)     intcor
     16.27     -16.89       0.71        0.00     104.46       1.25       0.01       0.60       ----

> <Gold.Chemscore.Fitness>
16.2730

> <Gold.Chemscore.DG>
-16.8875

> <Gold.Chemscore.ZeroCoef>
-5.4800

> <Gold.Chemscore.Hbond>
0.7132

> <Gold.Chemscore.Metal>
0.0000

> <Gold.Chemscore.Lipo>
104.4588

> <Gold.Chemscore.Internal_Hbond>
0.0000

> <Gold.Chemscore.DEClash>
0.0121

> <Gold.Chemscore.DEInternal>
0.6024

> <Gold.Chemscore.Rot>
1.2485

> <Gold.Chemscore.Internal.Correction>
   9.000000E+99

> <Gold.Chemscore.Hbonds>
donor molecule, donor type, donor heavy atom, donor atom, acceptor molecule, acceptor atom, score
      P1  H  6934  6946       L1     1  0.62

> <Gold.Chemscore.Hbond.Weighted>
-2.3820

> <Gold.Chemscore.Metal.Weighted>
-0.0000

> <Gold.Chemscore.Lipo.Weighted>
-12.2217

> <Gold.Chemscore.Internal_Hbond.Weighted>
0.0000

> <Gold.Chemscore.DEClash.Weighted>
0.0121

> <Gold.Chemscore.DEInternal.Weighted>
0.6024

> <Gold.Chemscore.Rot.Weighted>
3.1961

> <Gold.Chemscore.Internal.Correction.Weighted>
   9.000000E+99

> <Gold.Protein.RotatedTorsions>
[ 6907 6896 6895 6894 ] final  166.36 input  -60.11 | X-H torsion
[ 7974 7965 7964 7962 ] final  -18.99 input  175.53 | X-H torsion
[ 8008 7997 7996 7995 ] final -146.86 input   59.86 | X-H torsion
[ 10167 10162 10161 10158 ] final  167.52 input  -65.29 | X-H torsion
[ 10718 10713 10712 10709 ] final  148.77 input   66.30 | X-H torsion
[ 10763 10752 10751 10750 ] final  -30.14 input  -60.55 | X-H torsion
[ 11005 11000 10999 10996 ] final   92.79 input  -57.11 | X-H torsion

> <Gold.Protein.ActiveResidues>
 VAL166  LYS551  ARG553  GLY616  TRP617  ASP618  TYR619  PRO620  LYS621  CYS622 
 ASP623  PHE694  ASN695  SER759  ASP760  ASP761  ALA762  ILE779  LEU786  VAL792 
 PHE793  MET794  SER795  GLU796  ALA797  LYS798  CYS799  TRP800  GLU811  SER814 

> <Gold.Protein.RotatedAtoms>
  151.8802  133.3493  159.3763 H   0  0  0  0  0  0  0  0  0  0  0  0  # atno 6907 bound_to 6896
  150.7129  134.5026  159.5578 H   0  0  0  0  0  0  0  0  0  0  0  0  # atno 6908 bound_to 6896
  152.2576  134.8068  160.0487 H   0  0  0  0  0  0  0  0  0  0  0  0  # atno 6909 bound_to 6896
  146.1864  140.3999  142.8474 H   0  0  0  0  0  0  0  0  0  0  0  0  # atno 7974 bound_to 7965
  155.5661  140.0630  157.2817 H   0  0  0  0  0  0  0  0  0  0  0  0  # atno 8008 bound_to 7997
  154.4375  140.1877  156.0878 H   0  0  0  0  0  0  0  0  0  0  0  0  # atno 8009 bound_to 7997
  156.0411  140.3295  155.7248 H   0  0  0  0  0  0  0  0  0  0  0  0  # atno 8010 bound_to 7997
  139.4947  144.3913  151.9514 H   0  0  0  0  0  0  0  0  0  0  0  0  # atno 10167 bound_to 10162
  157.3044  131.0876  151.1365 H   0  0  0  0  0  0  0  0  0  0  0  0  # atno 10718 bound_to 10713
  153.7761  135.6908  153.4897 H   0  0  0  0  0  0  0  0  0  0  0  0  # atno 10763 bound_to 10752
  153.1842  135.4495  155.0066 H   0  0  0  0  0  0  0  0  0  0  0  0  # atno 10764 bound_to 10752
  154.8099  135.3373  154.7267 H   0  0  0  0  0  0  0  0  0  0  0  0  # atno 10765 bound_to 10752
  139.8818  134.8753  156.3624 H   0  0  0  0  0  0  0  0  0  0  0  0  # atno 11005 bound_to 11000
  144.8405  140.6850  143.6232 LP  0  0  0  0  0  0  0  0  0  0  0  0  # atno 17320 bound_to 7965
  145.3925  139.1614  143.4221 LP  0  0  0  0  0  0  0  0  0  0  0  0  # atno 17321 bound_to 7965
  140.3350  144.3271  150.5979 LP  0  0  0  0  0  0  0  0  0  0  0  0  # atno 17342 bound_to 10162
  140.5613  143.2192  151.7760 LP  0  0  0  0  0  0  0  0  0  0  0  0  # atno 17343 bound_to 10162
  157.2711  130.6705  149.6020 LP  0  0  0  0  0  0  0  0  0  0  0  0  # atno 17370 bound_to 10713
  155.9673  130.4479  150.5597 LP  0  0  0  0  0  0  0  0  0  0  0  0  # atno 17371 bound_to 10713
  140.9520  133.7444  156.0285 LP  0  0  0  0  0  0  0  0  0  0  0  0  # atno 17394 bound_to 11000
  140.8094  134.3417  157.5416 LP  0  0  0  0  0  0  0  0  0  0  0  0  # atno 17395 bound_to 11000

$$$$
