AV-unprocessed.smi:3206|AV-procd|sdf|12256|dock7
  -GOLD-   2272018 93D 1   1.00000     0.00000
 Structure written by MMmdl.
 42 43  0  0  0  0  0  0  0  0  2 V2000
  151.9014  145.5895  159.8739 C   0  0  0  0  0  0  0  0  0  0  0  0
  152.1574  144.2746  159.1234 C   0  0  2  0  0  0  0  0  0  0  0  0
  150.9400  143.8614  158.2756 C   0  0  0  0  0  0  0  0  0  0  0  0
  151.1924  142.5408  157.5296 C   0  0  0  0  0  0  0  0  0  0  0  0
  151.5700  141.4013  158.4964 C   0  0  1  0  0  0  0  0  0  0  0  0
  151.8179  140.0893  157.7296 C   0  0  0  0  0  0  0  0  0  0  0  0
  150.7055  139.7789  156.8101 N   0  3  0  0  0  0  0  0  0  0  0  0
  151.0441  139.9272  155.3801 C   0  0  0  0  0  0  0  0  0  0  0  0
  149.9111  139.4236  154.4727 C   0  0  0  0  0  0  0  0  0  0  0  0
  148.8631  140.4608  154.2038 C   0  0  0  0  0  0  0  0  0  0  0  0
  148.9758  141.7414  154.5412 N   0  0  0  0  0  0  0  0  0  0  0  0
  147.7938  142.2263  154.0606 C   0  0  0  0  0  0  0  0  0  0  0  0
  147.0063  141.3390  153.4582 N   0  0  0  0  0  0  0  0  0  0  0  0
  147.7195  140.1940  153.5584 N   0  0  0  0  0  0  0  0  0  0  0  0
  147.2051  138.9548  153.0076 C   0  0  0  0  0  0  0  0  0  0  0  0
  152.7921  141.8188  159.3423 C   0  0  0  0  0  0  0  0  0  0  0  0
  152.5433  143.1392  160.0896 C   0  0  0  0  0  0  0  0  0  0  0  0
  151.0688  145.4927  160.5716 H   0  0  0  0  0  0  0  0  0  0  0  0
  151.6633  146.3976  159.1816 H   0  0  0  0  0  0  0  0  0  0  0  0
  152.7795  145.8935  160.4439 H   0  0  0  0  0  0  0  0  0  0  0  0
  152.9972  144.4415  158.4470 H   0  0  0  0  0  0  0  0  0  0  0  0
  150.0632  143.7548  158.9159 H   0  0  0  0  0  0  0  0  0  0  0  0
  150.7026  144.6465  157.5567 H   0  0  0  0  0  0  0  0  0  0  0  0
  150.3005  142.2702  156.9631 H   0  0  0  0  0  0  0  0  0  0  0  0
  151.9892  142.6839  156.7983 H   0  0  0  0  0  0  0  0  0  0  0  0
  150.7239  141.2454  159.1682 H   0  0  0  0  0  0  0  0  0  0  0  0
  152.7333  140.1715  157.1419 H   0  0  0  0  0  0  0  0  0  0  0  0
  151.9601  139.2631  158.4277 H   0  0  0  0  0  0  0  0  0  0  0  0
  150.4105  138.8267  156.9733 H   0  0  0  0  0  0  0  0  0  0  0  0
  151.2587  140.9744  155.1619 H   0  0  0  0  0  0  0  0  0  0  0  0
  151.9548  139.3639  155.1739 H   0  0  0  0  0  0  0  0  0  0  0  0
  150.3249  139.0784  153.5249 H   0  0  0  0  0  0  0  0  0  0  0  0
  149.4322  138.5539  154.9245 H   0  0  0  0  0  0  0  0  0  0  0  0
  147.5092  143.2641  154.1519 H   0  0  0  0  0  0  0  0  0  0  0  0
  147.9427  138.5157  152.3356 H   0  0  0  0  0  0  0  0  0  0  0  0
  146.2850  139.1350  152.4497 H   0  0  0  0  0  0  0  0  0  0  0  0
  146.9955  138.2540  153.8159 H   0  0  0  0  0  0  0  0  0  0  0  0
  153.0364  141.0409  160.0661 H   0  0  0  0  0  0  0  0  0  0  0  0
  153.6669  141.9265  158.6995 H   0  0  0  0  0  0  0  0  0  0  0  0
  153.4373  143.4151  160.6499 H   0  0  0  0  0  0  0  0  0  0  0  0
  151.7511  142.9955  160.8259 H   0  0  0  0  0  0  0  0  0  0  0  0
  149.9325  140.3941  157.0219 H   0  0  0  0  0  0  0  0  0  0  0  0
  1  2  1  0  0  0  0
  1 18  1  0  0  0  0
  1 19  1  0  0  0  0
  1 20  1  0  0  0  0
  2 17  1  0  0  0  0
  2  3  1  0  0  0  0
  2 21  1  0  0  0  0
  3  4  1  0  0  0  0
  3 22  1  0  0  0  0
  3 23  1  0  0  0  0
  4  5  1  0  0  0  0
  4 24  1  0  0  0  0
  4 25  1  0  0  0  0
  5  6  1  0  0  0  0
  5 16  1  0  0  0  0
  5 26  1  0  0  0  0
  6  7  1  0  0  0  0
  6 27  1  0  0  0  0
  6 28  1  0  0  0  0
  7  8  1  0  0  0  0
  7 29  1  0  0  0  0
  7 42  1  0  0  0  0
  8  9  1  0  0  0  0
  8 30  1  0  0  0  0
  8 31  1  0  0  0  0
  9 10  1  0  0  0  0
  9 32  1  0  0  0  0
  9 33  1  0  0  0  0
 10 14  1  0  0  0  0
 10 11  2  0  0  0  0
 11 12  1  0  0  0  0
 12 13  2  0  0  0  0
 12 34  1  0  0  0  0
 13 14  1  0  0  0  0
 14 15  1  0  0  0  0
 15 35  1  0  0  0  0
 15 36  1  0  0  0  0
 15 37  1  0  0  0  0
 16 17  1  0  0  0  0
 16 38  1  0  0  0  0
 16 39  1  0  0  0  0
 17 40  1  0  0  0  0
 17 41  1  0  0  0  0
M  CHG  1   7   1
M  END
> <s_m_source_file>
AV-unprocessed.smi

> <i_m_source_file_index>
3206

> <i_lp_mmshare_version>
43012

> <i_f3d_flags>
0

> <s_epik_input>
W0NIM11bQ0BASF0xW0NIMl1bQ0gyXVtDQEhdKFtDSDJdW0NIMl0xKVtDSDJdW05IXVtDSDJdW0NIMl1jMm5bY0hdbm4yW0NIM10=

> <s_epik_cmdline>
J2VwaWtfcHl0aG9uJywgJy1waCcsICc3LjAnLCAnLXRuJywgJzgnLCAnLW1hJywgJzIwMCcsICctbWV0YWxfYmluZGluZycsICctaW1hZScsICc8aW5maWxlLm1hZT4nLCAnLW9tYWUnLCAnPG91dGZpbGUubWFlPic=

> <r_lp_tautomer_probability>
1

> <r_epik_Ionization_Penalty>
0.00114491

> <r_epik_Ionization_Penalty_Charging>
0.00114083

> <r_epik_Ionization_Penalty_Neutral>
4.0852e-06

> <r_epik_State_Penalty>
-0

> <r_epik_Charging_Adjusted_Penalty>
0.00114083

> <i_epik_Tot_Q>
1

> <i_epik_Tot_abs_Q>
1

> <r_epik_Metal_State_Penalty>
-0

> <b_epik_Metal_Only>
0

> <s_lp_Force_Field>
OPLS_2005

> <r_lp_Energy>
13.9676

> <b_lp_Chiralities_Consistent>
1

> <s_lp_Variant>
AV-unprocessed.smi:3206-1

> <Gold.Version>
5.8.1

> <Gold.Id.Protein>
6NUR|6NUR_protein|mol2

> <Gold.PLP.Fitness>
41.4880

> <Gold.PLP.PLP>
-40.3560

> <Gold.PLP.part.hbond>
-0.4705

> <Gold.PLP.part.metal>
0.0000

> <Gold.PLP.part.buried>
-2.5332

> <Gold.PLP.part.nonpolar>
-38.0329

> <Gold.PLP.part.repulsive>
0.3882

> <Gold.PLP.ligand.clash>
0.0000

> <Gold.PLP.ligand.torsion>
0.6055

> <Gold.PLP.Chemscore.Hbond>
0.0000

> <Gold.PLP.Chemscore.CHOScore>
0.7761

> <Gold.PLP.Chemscore.Metal>
0.0000

> <Gold.Chemscore.Hbonds>
donor molecule, donor type, donor heavy atom, donor atom, acceptor molecule, acceptor atom, score
      L1  C    12    34       P1  8028  0.78

> <Gold.PLP.Chemscore.Internal.Correction>
0.0149

> <Gold.Rescore>
     Score         DG    S(hbond)    S(metal)    S(lipo)     H(rot)  DE(clash)    DE(int)     intcor
     11.70     -12.21       0.00        0.00     102.41       2.05       0.05       0.46       ----

> <Gold.Chemscore.Fitness>
11.6975

> <Gold.Chemscore.DG>
-12.2073

> <Gold.Chemscore.ZeroCoef>
-5.4800

> <Gold.Chemscore.Hbond>
0.0000

> <Gold.Chemscore.Metal>
0.0000

> <Gold.Chemscore.Lipo>
102.4130

> <Gold.Chemscore.Internal_Hbond>
0.0000

> <Gold.Chemscore.DEClash>
0.0453

> <Gold.Chemscore.DEInternal>
0.4645

> <Gold.Chemscore.Rot>
2.0528

> <Gold.Chemscore.Internal.Correction>
   9.000000E+99

> <Gold.Chemscore.Hbond.Weighted>
-0.0000

> <Gold.Chemscore.Metal.Weighted>
-0.0000

> <Gold.Chemscore.Lipo.Weighted>
-11.9823

> <Gold.Chemscore.Internal_Hbond.Weighted>
0.0000

> <Gold.Chemscore.DEClash.Weighted>
0.0453

> <Gold.Chemscore.DEInternal.Weighted>
0.4645

> <Gold.Chemscore.Rot.Weighted>
5.2551

> <Gold.Chemscore.Internal.Correction.Weighted>
   9.000000E+99

> <Gold.Protein.RotatedTorsions>
[ 6907 6896 6895 6894 ] final  132.91 input  -60.11 | X-H torsion
[ 7974 7965 7964 7962 ] final  -47.88 input  175.53 | X-H torsion
[ 8008 7997 7996 7995 ] final -138.32 input   59.86 | X-H torsion
[ 10167 10162 10161 10158 ] final  -69.91 input  -65.29 | X-H torsion
[ 10718 10713 10712 10709 ] final  -42.95 input   66.30 | X-H torsion
[ 10763 10752 10751 10750 ] final -128.43 input  -60.55 | X-H torsion
[ 11005 11000 10999 10996 ] final -169.77 input  -57.11 | X-H torsion

> <Gold.Protein.ActiveResidues>
 VAL166  LYS551  ARG553  GLY616  TRP617  ASP618  TYR619  PRO620  LYS621  CYS622 
 ASP623  PHE694  ASN695  SER759  ASP760  ASP761  ALA762  ILE779  LEU786  VAL792 
 PHE793  MET794  SER795  GLU796  ALA797  LYS798  CYS799  TRP800  GLU811  SER814 

> <Gold.Protein.RotatedAtoms>
  152.3275  133.5921  159.5786 H   0  0  0  0  0  0  0  0  0  0  0  0  # atno 6907 bound_to 6896
  150.7404  133.9919  159.3618 H   0  0  0  0  0  0  0  0  0  0  0  0  # atno 6908 bound_to 6896
  151.7797  135.0765  160.0423 H   0  0  0  0  0  0  0  0  0  0  0  0  # atno 6909 bound_to 6896
  145.9570  140.7517  142.9476 H   0  0  0  0  0  0  0  0  0  0  0  0  # atno 7974 bound_to 7965
  155.4264  140.0522  157.3022 H   0  0  0  0  0  0  0  0  0  0  0  0  # atno 8008 bound_to 7997
  154.4879  140.2108  155.9571 H   0  0  0  0  0  0  0  0  0  0  0  0  # atno 8009 bound_to 7997
  156.1301  140.3173  155.8342 H   0  0  0  0  0  0  0  0  0  0  0  0  # atno 8010 bound_to 7997
  140.5393  143.2316  151.7118 H   0  0  0  0  0  0  0  0  0  0  0  0  # atno 10167 bound_to 10162
  156.2542  130.4191  149.8615 H   0  0  0  0  0  0  0  0  0  0  0  0  # atno 10718 bound_to 10713
  154.8756  135.3929  154.3755 H   0  0  0  0  0  0  0  0  0  0  0  0  # atno 10763 bound_to 10752
  153.4509  135.7028  153.6115 H   0  0  0  0  0  0  0  0  0  0  0  0  # atno 10764 bound_to 10752
  153.4655  135.3802  155.2331 H   0  0  0  0  0  0  0  0  0  0  0  0  # atno 10765 bound_to 10752
  140.5271  134.5653  157.5064 H   0  0  0  0  0  0  0  0  0  0  0  0  # atno 11005 bound_to 11000
  144.6807  140.2528  143.7329 LP  0  0  0  0  0  0  0  0  0  0  0  0  # atno 17320 bound_to 7965
  145.8092  139.1996  143.2003 LP  0  0  0  0  0  0  0  0  0  0  0  0  # atno 17321 bound_to 7965
  139.4983  144.3993  152.0198 LP  0  0  0  0  0  0  0  0  0  0  0  0  # atno 17342 bound_to 10162
  140.3101  144.3548  150.6036 LP  0  0  0  0  0  0  0  0  0  0  0  0  # atno 17343 bound_to 10162
  156.6154  130.8604  151.3463 LP  0  0  0  0  0  0  0  0  0  0  0  0  # atno 17370 bound_to 10713
  157.7226  130.9579  150.1500 LP  0  0  0  0  0  0  0  0  0  0  0  0  # atno 17371 bound_to 10713
  139.9574  134.7511  156.0311 LP  0  0  0  0  0  0  0  0  0  0  0  0  # atno 17394 bound_to 11000
  141.1302  133.6588  156.3445 LP  0  0  0  0  0  0  0  0  0  0  0  0  # atno 17395 bound_to 11000

$$$$
