AV-unprocessed.smi:842|AV-procd|sdf|3917|dock2
  -GOLD-   22720 1383D 1   1.00000     0.00000
 Structure written by MMmdl.
 42 43  0  0  0  0  0  0  0  0  1 V2000
  143.1382  137.1498  152.8019 C   0  0  0  0  0  0  0  0  0  0  0  0
  144.5839  137.3683  153.2723 C   0  0  0  0  0  0  0  0  0  0  0  0
  145.6155  137.4417  152.1225 C   0  0  2  0  0  0  0  0  0  0  0  0
  145.5425  136.2057  151.1992 C   0  0  0  0  0  0  0  0  0  0  0  0
  145.6402  136.5996  149.8465 O   0  0  0  0  0  0  0  0  0  0  0  0
  146.9787  137.6706  152.6145 N   0  0  0  0  0  0  0  0  0  0  0  0
  147.3950  138.6121  153.4767 C   0  0  0  0  0  0  0  0  0  0  0  0
  146.6552  139.4558  153.9819 O   0  0  0  0  0  0  0  0  0  0  0  0
  148.7182  138.5151  153.6885 N   0  0  0  0  0  0  0  0  0  0  0  0
  149.5417  139.3087  154.5314 C   0  0  0  0  0  0  0  0  0  0  0  0
  150.9036  139.0392  154.8019 C   0  0  0  0  0  0  0  0  0  0  0  0
  151.6179  139.9143  155.6426 C   0  0  0  0  0  0  0  0  0  0  0  0
  150.9583  141.0427  156.1849 C   0  0  0  0  0  0  0  0  0  0  0  0
  151.6343  141.9374  157.0377 N   0  0  0  0  0  0  0  0  0  0  0  0
  152.2444  141.5003  158.2838 C   0  0  0  0  0  0  0  0  0  0  0  0
  152.7500  142.7857  158.9364 C   0  0  0  0  0  0  0  0  0  0  0  0
  151.7301  143.8297  158.4812 C   0  0  0  0  0  0  0  0  0  0  0  0
  151.3042  143.3550  157.0869 C   0  0  0  0  0  0  0  0  0  0  0  0
  149.6564  141.3025  155.9175 N   0  0  0  0  0  0  0  0  0  0  0  0
  148.9768  140.4621  155.1100 C   0  0  0  0  0  0  0  0  0  0  0  0
  142.4664  137.0500  153.6547 H   0  0  0  0  0  0  0  0  0  0  0  0
  143.0521  136.2424  152.2036 H   0  0  0  0  0  0  0  0  0  0  0  0
  142.7804  137.9851  152.1998 H   0  0  0  0  0  0  0  0  0  0  0  0
  144.6315  138.2685  153.8857 H   0  0  0  0  0  0  0  0  0  0  0  0
  144.8548  136.5466  153.9362 H   0  0  0  0  0  0  0  0  0  0  0  0
  145.3547  138.3188  151.5280 H   0  0  0  0  0  0  0  0  0  0  0  0
  146.3076  135.4645  151.4292 H   0  0  0  0  0  0  0  0  0  0  0  0
  144.5802  135.7065  151.3178 H   0  0  0  0  0  0  0  0  0  0  0  0
  145.8654  135.8412  149.3295 H   0  0  0  0  0  0  0  0  0  0  0  0
  147.6783  137.0332  152.2632 H   0  0  0  0  0  0  0  0  0  0  0  0
  149.2046  137.8228  153.1381 H   0  0  0  0  0  0  0  0  0  0  0  0
  151.4177  138.1918  154.3760 H   0  0  0  0  0  0  0  0  0  0  0  0
  152.6546  139.7062  155.8610 H   0  0  0  0  0  0  0  0  0  0  0  0
  151.4902  141.0211  158.9098 H   0  0  0  0  0  0  0  0  0  0  0  0
  153.0540  140.7904  158.1111 H   0  0  0  0  0  0  0  0  0  0  0  0
  152.8295  142.7080  160.0209 H   0  0  0  0  0  0  0  0  0  0  0  0
  153.7355  143.0374  158.5418 H   0  0  0  0  0  0  0  0  0  0  0  0
  150.8699  143.8116  159.1519 H   0  0  0  0  0  0  0  0  0  0  0  0
  152.1311  144.8436  158.4791 H   0  0  0  0  0  0  0  0  0  0  0  0
  151.8682  143.8756  156.3123 H   0  0  0  0  0  0  0  0  0  0  0  0
  150.2422  143.5379  156.9206 H   0  0  0  0  0  0  0  0  0  0  0  0
  147.9438  140.7189  154.9257 H   0  0  0  0  0  0  0  0  0  0  0  0
  1  2  1  0  0  0  0
  1 21  1  0  0  0  0
  1 22  1  0  0  0  0
  1 23  1  0  0  0  0
  2  3  1  0  0  0  0
  2 24  1  0  0  0  0
  2 25  1  0  0  0  0
  3  4  1  0  0  0  0
  3  6  1  0  0  0  0
  3 26  1  0  0  0  0
  4  5  1  0  0  0  0
  4 27  1  0  0  0  0
  4 28  1  0  0  0  0
  5 29  1  0  0  0  0
  6  7  1  0  0  0  0
  6 30  1  0  0  0  0
  7  8  2  0  0  0  0
  7  9  1  0  0  0  0
  9 10  1  0  0  0  0
  9 31  1  0  0  0  0
 10 20  1  0  0  0  0
 10 11  2  0  0  0  0
 11 12  1  0  0  0  0
 11 32  1  0  0  0  0
 12 13  2  0  0  0  0
 12 33  1  0  0  0  0
 13 14  1  0  0  0  0
 13 19  1  0  0  0  0
 14 18  1  0  0  0  0
 14 15  1  0  0  0  0
 15 16  1  0  0  0  0
 15 34  1  0  0  0  0
 15 35  1  0  0  0  0
 16 17  1  0  0  0  0
 16 36  1  0  0  0  0
 16 37  1  0  0  0  0
 17 18  1  0  0  0  0
 17 38  1  0  0  0  0
 17 39  1  0  0  0  0
 18 40  1  0  0  0  0
 18 41  1  0  0  0  0
 19 20  2  0  0  0  0
 20 42  1  0  0  0  0
M  END
> <s_m_source_file>
AV-unprocessed.smi

> <i_m_source_file_index>
842

> <i_lp_mmshare_version>
43012

> <i_f3d_flags>
0

> <s_epik_input>
W0NIM11bQ0gyXVtDQEhdKFtDSDJdW09IXSlbTkhdQyg9TylbTkhdYzFbY0hdW2NIXWMobltjSF0xKU4yW0NIMl1bQ0gyXVtDSDJdW0NIMl0y

> <s_epik_cmdline>
J2VwaWtfcHl0aG9uJywgJy1waCcsICc3LjAnLCAnLXRuJywgJzgnLCAnLW1hJywgJzIwMCcsICctbWV0YWxfYmluZGluZycsICctaW1hZScsICc8aW5maWxlLm1hZT4nLCAnLW9tYWUnLCAnPG91dGZpbGUubWFlPic=

> <r_lp_tautomer_probability>
1

> <r_epik_Ionization_Penalty>
0.0996525

> <r_epik_Ionization_Penalty_Charging>
0

> <r_epik_Ionization_Penalty_Neutral>
0.0996525

> <r_epik_State_Penalty>
0.0891422

> <r_epik_Charging_Adjusted_Penalty>
0.0891422

> <i_epik_Tot_Q>
0

> <i_epik_Tot_abs_Q>
0

> <r_epik_Metal_State_Penalty>
0.07624

> <b_epik_Metal_Only>
0

> <s_lp_Force_Field>
OPLS_2005

> <r_lp_Energy>
30.3281

> <b_lp_Chiralities_Consistent>
1

> <s_lp_Variant>
AV-unprocessed.smi:842-1

> <Gold.Version>
5.8.1

> <Gold.Id.Protein>
6NUR|6NUR_protein|mol2

> <Gold.PLP.Fitness>
44.3029

> <Gold.PLP.PLP>
-38.0255

> <Gold.PLP.part.hbond>
-4.8118

> <Gold.PLP.part.metal>
0.0000

> <Gold.PLP.part.buried>
-3.1689

> <Gold.PLP.part.nonpolar>
-31.0666

> <Gold.PLP.part.repulsive>
0.3175

> <Gold.PLP.ligand.clash>
0.0000

> <Gold.PLP.ligand.torsion>
1.3722

> <Gold.PLP.Chemscore.Hbond>
2.9120

> <Gold.PLP.Chemscore.CHOScore>
0.0000

> <Gold.PLP.Chemscore.Metal>
0.0000

> <Gold.Chemscore.Hbonds>
donor molecule, donor type, donor heavy atom, donor atom, acceptor molecule, acceptor atom, score
      L1  H     5    29       P1  7921  1.00
      L1  H     6    30       P1  7948  1.00
      L1  H     9    31       P1  7948  0.91

> <Gold.PLP.Chemscore.Internal.Correction>
0.2857

> <Gold.Rescore>
     Score         DG    S(hbond)    S(metal)    S(lipo)     H(rot)  DE(clash)    DE(int)     intcor
     16.93     -19.82       2.82        0.00      85.52       1.99       0.16       2.73       ----

> <Gold.Chemscore.Fitness>
16.9311

> <Gold.Chemscore.DG>
-19.8176

> <Gold.Chemscore.ZeroCoef>
-5.4800

> <Gold.Chemscore.Hbond>
2.8241

> <Gold.Chemscore.Metal>
0.0000

> <Gold.Chemscore.Lipo>
85.5223

> <Gold.Chemscore.Internal_Hbond>
0.0000

> <Gold.Chemscore.DEClash>
0.1589

> <Gold.Chemscore.DEInternal>
2.7276

> <Gold.Chemscore.Rot>
1.9926

> <Gold.Chemscore.Internal.Correction>
   9.000000E+99

> <Gold.Chemscore.Hbonds>
donor molecule, donor type, donor heavy atom, donor atom, acceptor molecule, acceptor atom, score
      L1  H     5    29       P1  7921  0.95
      L1  H     6    30       P1  7948  0.94
      L1  H     9    31       P1  7948  0.81

> <Gold.Chemscore.Hbond.Weighted>
-9.4324

> <Gold.Chemscore.Metal.Weighted>
-0.0000

> <Gold.Chemscore.Lipo.Weighted>
-10.0061

> <Gold.Chemscore.Internal_Hbond.Weighted>
0.0000

> <Gold.Chemscore.DEClash.Weighted>
0.1589

> <Gold.Chemscore.DEInternal.Weighted>
2.7276

> <Gold.Chemscore.Rot.Weighted>
5.1009

> <Gold.Chemscore.Internal.Correction.Weighted>
   9.000000E+99

> <Gold.Protein.RotatedTorsions>
[ 6907 6896 6895 6894 ] final   46.72 input  -60.11 | X-H torsion
[ 7974 7965 7964 7962 ] final   95.80 input  175.53 | X-H torsion
[ 8008 7997 7996 7995 ] final -130.29 input   59.86 | X-H torsion
[ 10167 10162 10161 10158 ] final  140.27 input  -65.29 | X-H torsion
[ 10718 10713 10712 10709 ] final  138.20 input   66.30 | X-H torsion
[ 10763 10752 10751 10750 ] final   71.13 input  -60.55 | X-H torsion
[ 11005 11000 10999 10996 ] final -152.03 input  -57.11 | X-H torsion

> <Gold.Protein.ActiveResidues>
 VAL166  LYS551  ARG553  GLY616  TRP617  ASP618  TYR619  PRO620  LYS621  CYS622 
 ASP623  PHE694  ASN695  SER759  ASP760  ASP761  ALA762  ILE779  LEU786  VAL792 
 PHE793  MET794  SER795  GLU796  ALA797  LYS798  CYS799  TRP800  GLU811  SER814 

> <Gold.Protein.RotatedAtoms>
  152.2596  134.8047  160.0432 H   0  0  0  0  0  0  0  0  0  0  0  0  # atno 6907 bound_to 6896
  151.8698  133.3468  159.3739 H   0  0  0  0  0  0  0  0  0  0  0  0  # atno 6908 bound_to 6896
  150.7112  134.5051  159.5624 H   0  0  0  0  0  0  0  0  0  0  0  0  # atno 6909 bound_to 6896
  145.4474  139.2296  143.3058 H   0  0  0  0  0  0  0  0  0  0  0  0  # atno 7974 bound_to 7965
  155.2932  140.0449  157.3024 H   0  0  0  0  0  0  0  0  0  0  0  0  # atno 8008 bound_to 7997
  154.5529  140.2323  155.8424 H   0  0  0  0  0  0  0  0  0  0  0  0  # atno 8009 bound_to 7997
  156.1982  140.3032  155.9478 H   0  0  0  0  0  0  0  0  0  0  0  0  # atno 8010 bound_to 7997
  139.5054  144.6244  151.5973 H   0  0  0  0  0  0  0  0  0  0  0  0  # atno 10167 bound_to 10162
  157.4278  131.1045  151.0283 H   0  0  0  0  0  0  0  0  0  0  0  0  # atno 10718 bound_to 10713
  153.0381  135.5148  154.7546 H   0  0  0  0  0  0  0  0  0  0  0  0  # atno 10763 bound_to 10752
  154.6506  135.2924  154.9994 H   0  0  0  0  0  0  0  0  0  0  0  0  # atno 10764 bound_to 10752
  154.0879  135.6654  153.4900 H   0  0  0  0  0  0  0  0  0  0  0  0  # atno 10765 bound_to 10752
  140.7232  134.3704  157.5180 H   0  0  0  0  0  0  0  0  0  0  0  0  # atno 11005 bound_to 11000
  146.2523  140.5229  142.8888 LP  0  0  0  0  0  0  0  0  0  0  0  0  # atno 17320 bound_to 7965
  144.8083  140.6339  143.6432 LP  0  0  0  0  0  0  0  0  0  0  0  0  # atno 17321 bound_to 7965
  140.5956  143.9701  150.6352 LP  0  0  0  0  0  0  0  0  0  0  0  0  # atno 17342 bound_to 10162
  140.2896  143.3333  152.1075 LP  0  0  0  0  0  0  0  0  0  0  0  0  # atno 17343 bound_to 10162
  157.1190  130.6054  149.5500 LP  0  0  0  0  0  0  0  0  0  0  0  0  # atno 17370 bound_to 10713
  155.9902  130.4953  150.7249 LP  0  0  0  0  0  0  0  0  0  0  0  0  # atno 17371 bound_to 10713
  139.8843  134.8969  156.2711 LP  0  0  0  0  0  0  0  0  0  0  0  0  # atno 17394 bound_to 11000
  140.9985  133.7165  156.0924 LP  0  0  0  0  0  0  0  0  0  0  0  0  # atno 17395 bound_to 11000

$$$$
