AV-unprocessed.smi:72|AV-procd|sdf|739|dock3
  -GOLD-   2262017 73D 1   1.00000     0.00000
 Structure written by MMmdl.
 28 29  0  0  0  0  0  0  0  0  2 V2000
  153.8429  138.0491  154.9179 N   0  0  0  0  0  0  0  0  0  0  0  0
  152.6683  138.4993  155.0067 C   0  0  0  0  0  0  0  0  0  0  0  0
  151.6091  137.9166  154.2120 N   0  0  0  0  0  0  0  0  0  0  0  0
  150.4158  138.4095  154.3411 C   0  0  0  0  0  0  0  0  0  0  0  0
  150.1319  139.5091  155.2528 N   0  0  0  0  0  0  0  0  0  0  0  0
  148.7302  140.0757  155.3806 C   0  0  2  0  0  0  0  0  0  0  0  0
  147.8243  139.0216  155.5287 O   0  0  0  0  0  0  0  0  0  0  0  0
  146.6577  139.2785  154.7540 C   0  0  2  0  0  0  0  0  0  0  0  0
  145.8954  137.9774  154.4469 C   0  0  0  0  0  0  0  0  0  0  0  0
  145.0978  138.1411  153.2936 O   0  0  0  0  0  0  0  0  0  0  0  0
  147.2024  140.0302  153.5318 C   0  0  2  0  0  0  0  0  0  0  0  0
  147.7089  139.1268  152.5627 O   0  0  0  0  0  0  0  0  0  0  0  0
  148.2935  140.8988  154.1489 C   0  0  2  0  0  0  0  0  0  0  0  0
  149.3197  141.2402  153.2323 O   0  0  0  0  0  0  0  0  0  0  0  0
  151.1940  140.0729  156.0092 C   0  0  0  0  0  0  0  0  0  0  0  0
  150.9420  141.0228  156.7508 O   0  0  0  0  0  0  0  0  0  0  0  0
  152.4439  139.5473  155.8721 N   0  5  0  0  0  0  0  0  0  0  0  0
  148.7133  140.6576  156.3030 H   0  0  0  0  0  0  0  0  0  0  0  0
  146.0187  139.9647  155.3136 H   0  0  0  0  0  0  0  0  0  0  0  0
  146.4303  140.6355  153.0560 H   0  0  0  0  0  0  0  0  0  0  0  0
  147.8441  141.8200  154.5221 H   0  0  0  0  0  0  0  0  0  0  0  0
  153.9192  137.2843  154.2633 H   0  0  0  0  0  0  0  0  0  0  0  0
  149.5590  138.0376  153.7783 H   0  0  0  0  0  0  0  0  0  0  0  0
  146.5987  137.1694  154.2426 H   0  0  0  0  0  0  0  0  0  0  0  0
  145.2801  137.6686  155.2927 H   0  0  0  0  0  0  0  0  0  0  0  0
  144.7157  139.0052  153.3127 H   0  0  0  0  0  0  0  0  0  0  0  0
  148.4053  139.5583  152.0910 H   0  0  0  0  0  0  0  0  0  0  0  0
  149.4097  140.5331  152.6114 H   0  0  0  0  0  0  0  0  0  0  0  0
  1  2  2  0  0  0  0
  1 22  1  0  0  0  0
  2 17  1  0  0  0  0
  2  3  1  0  0  0  0
  3  4  2  0  0  0  0
  4  5  1  0  0  0  0
  4 23  1  0  0  0  0
  5  6  1  0  0  0  0
  5 15  1  0  0  0  0
  6 18  1  0  0  0  0
  6 13  1  0  0  0  0
  6  7  1  0  0  0  0
  7  8  1  0  0  0  0
  8 19  1  0  0  0  0
  8  9  1  0  0  0  0
  8 11  1  0  0  0  0
  9 10  1  0  0  0  0
  9 24  1  0  0  0  0
  9 25  1  0  0  0  0
 10 26  1  0  0  0  0
 11 20  1  0  0  0  0
 11 12  1  0  0  0  0
 11 13  1  0  0  0  0
 12 27  1  0  0  0  0
 13 21  1  0  0  0  0
 13 14  1  0  0  0  0
 14 28  1  0  0  0  0
 15 16  2  0  0  0  0
 15 17  1  0  0  0  0
M  CHG  1  17  -1
M  END
> <s_m_source_file>
AV-unprocessed.smi

> <i_m_source_file_index>
72

> <i_lp_mmshare_version>
43012

> <i_f3d_flags>
0

> <s_epik_input>
W05IMl1jMW5bY0hdbihjKD1PKW4xKVtDQEBIXTJPW0NASF0oW0NIMl1bT0hdKVtDQEBIXShbT0hdKVtDQEhdMltPSF0=

> <s_epik_cmdline>
J2VwaWtfcHl0aG9uJywgJy1waCcsICc3LjAnLCAnLXRuJywgJzgnLCAnLW1hJywgJzIwMCcsICctbWV0YWxfYmluZGluZycsICctaW1hZScsICc8aW5maWxlLm1hZT4nLCAnLW9tYWUnLCAnPG91dGZpbGUubWFlPic=

> <r_lp_tautomer_probability>
7.17554e-07

> <r_epik_Ionization_Penalty>
12.8705

> <r_epik_Ionization_Penalty_Charging>
5.64144

> <r_epik_Ionization_Penalty_Neutral>
7.22905

> <r_epik_State_Penalty>
3.30104

> <r_epik_Charging_Adjusted_Penalty>
8.94249

> <i_epik_Tot_Q>
-1

> <i_epik_Tot_abs_Q>
1

> <r_epik_Metal_State_Penalty>
0.529074

> <b_epik_Metal_Only>
1

> <s_epik_Chemistry_Notes>
This compound contains an acetal/aminal-like group ( X-CH(R)-Y where X, Y are N, S, or O) that may be acid/base labile, releasing an aldehyde.

> <s_lp_Force_Field>
OPLS_2005

> <r_lp_Energy>
43.5674

> <b_lp_Chiralities_Consistent>
1

> <s_lp_Variant>
AV-unprocessed.smi:72-77

> <Gold.Version>
5.8.1

> <Gold.Id.Protein>
6NUR|6NUR_protein|mol2

> <Gold.PLP.Fitness>
46.1019

> <Gold.PLP.PLP>
-27.4997

> <Gold.PLP.part.hbond>
-7.4346

> <Gold.PLP.part.metal>
0.0000

> <Gold.PLP.part.buried>
-5.9341

> <Gold.PLP.part.nonpolar>
-15.5008

> <Gold.PLP.part.repulsive>
0.2336

> <Gold.PLP.ligand.clash>
0.0000

> <Gold.PLP.ligand.torsion>
0.5098

> <Gold.PLP.Chemscore.Hbond>
5.9456

> <Gold.PLP.Chemscore.CHOScore>
0.5933

> <Gold.PLP.Chemscore.Metal>
0.0000

> <Gold.Chemscore.Hbonds>
donor molecule, donor type, donor heavy atom, donor atom, acceptor molecule, acceptor atom, score
      L1  H    10    26       P1 10175  1.00
      L1  H    12    27       P1  7957  1.00
      L1  H    14    28       P1  7957  0.99
      P1  H  7997  8008       L1    17  1.98
      P1  H  8011  8017       L1    14  0.95
      L1  C     4    23       P1  7948  0.65

> <Gold.PLP.Chemscore.Internal.Correction>
0.0054

> <Gold.Rescore>
     Score         DG    S(hbond)    S(metal)    S(lipo)     H(rot)  DE(clash)    DE(int)     intcor
     10.58     -11.20       4.20        0.00      17.45       4.04       0.02       0.61       ----

> <Gold.Chemscore.Fitness>
10.5781

> <Gold.Chemscore.DG>
-11.2041

> <Gold.Chemscore.ZeroCoef>
-5.4800

> <Gold.Chemscore.Hbond>
4.1994

> <Gold.Chemscore.Metal>
0.0000

> <Gold.Chemscore.Lipo>
17.4468

> <Gold.Chemscore.Internal_Hbond>
0.0000

> <Gold.Chemscore.DEClash>
0.0205

> <Gold.Chemscore.DEInternal>
0.6056

> <Gold.Chemscore.Rot>
4.0403

> <Gold.Chemscore.Internal.Correction>
   9.000000E+99

> <Gold.Chemscore.Hbonds>
donor molecule, donor type, donor heavy atom, donor atom, acceptor molecule, acceptor atom, score
      L1  H    10    26       P1 10175  0.93
      L1  H    12    27       P1  7957  0.97
      L1  H    14    28       P1  7957  0.88
      P1  H  7997  8008       L1    17  0.32
      P1  H  8011  8017       L1    14  0.20

> <Gold.Chemscore.Hbond.Weighted>
-14.0260

> <Gold.Chemscore.Metal.Weighted>
-0.0000

> <Gold.Chemscore.Lipo.Weighted>
-2.0413

> <Gold.Chemscore.Internal_Hbond.Weighted>
0.0000

> <Gold.Chemscore.DEClash.Weighted>
0.0205

> <Gold.Chemscore.DEInternal.Weighted>
0.6056

> <Gold.Chemscore.Rot.Weighted>
10.3431

> <Gold.Chemscore.Internal.Correction.Weighted>
   9.000000E+99

> <Gold.Protein.RotatedTorsions>
[ 6907 6896 6895 6894 ] final  -86.31 input  -60.11 | X-H torsion
[ 7974 7965 7964 7962 ] final -131.54 input  175.53 | X-H torsion
[ 8008 7997 7996 7995 ] final  -43.44 input   59.86 | X-H torsion
[ 10167 10162 10161 10158 ] final  103.26 input  -65.29 | X-H torsion
[ 10718 10713 10712 10709 ] final  -88.58 input   66.30 | X-H torsion
[ 10763 10752 10751 10750 ] final    0.02 input  -60.55 | X-H torsion
[ 11005 11000 10999 10996 ] final -141.74 input  -57.11 | X-H torsion

> <Gold.Protein.ActiveResidues>
 VAL166  LYS551  ARG553  GLY616  TRP617  ASP618  TYR619  PRO620  LYS621  CYS622 
 ASP623  PHE694  ASN695  SER759  ASP760  ASP761  ALA762  ILE779  LEU786  VAL792 
 PHE793  MET794  SER795  GLU796  ALA797  LYS798  CYS799  TRP800  GLU811  SER814 

> <Gold.Protein.RotatedAtoms>
  150.6867  134.3071  159.4730 H   0  0  0  0  0  0  0  0  0  0  0  0  # atno 6907 bound_to 6896
  152.0960  134.9372  160.0580 H   0  0  0  0  0  0  0  0  0  0  0  0  # atno 6908 bound_to 6896
  152.0669  133.4053  159.4479 H   0  0  0  0  0  0  0  0  0  0  0  0  # atno 6909 bound_to 6896
  144.9369  140.7194  143.4871 H   0  0  0  0  0  0  0  0  0  0  0  0  # atno 7974 bound_to 7965
  154.3997  140.1447  156.3520 H   0  0  0  0  0  0  0  0  0  0  0  0  # atno 8008 bound_to 7997
  155.8260  140.3467  155.5522 H   0  0  0  0  0  0  0  0  0  0  0  0  # atno 8009 bound_to 7997
  155.8238  140.0902  157.1824 H   0  0  0  0  0  0  0  0  0  0  0  0  # atno 8010 bound_to 7997
  139.7278  144.7043  151.0770 H   0  0  0  0  0  0  0  0  0  0  0  0  # atno 10167 bound_to 10162
  155.9983  130.4841  150.5041 H   0  0  0  0  0  0  0  0  0  0  0  0  # atno 10718 bound_to 10713
  153.3260  135.6972  153.6989 H   0  0  0  0  0  0  0  0  0  0  0  0  # atno 10763 bound_to 10752
  153.5811  135.3498  155.2875 H   0  0  0  0  0  0  0  0  0  0  0  0  # atno 10764 bound_to 10752
  154.8608  135.4295  154.2436 H   0  0  0  0  0  0  0  0  0  0  0  0  # atno 10765 bound_to 10752
  140.8295  134.2534  157.4863 H   0  0  0  0  0  0  0  0  0  0  0  0  # atno 11005 bound_to 11000
  145.3052  139.1837  143.4668 LP  0  0  0  0  0  0  0  0  0  0  0  0  # atno 17320 bound_to 7965
  146.3270  140.3049  142.8623 LP  0  0  0  0  0  0  0  0  0  0  0  0  # atno 17321 bound_to 7965
  140.7766  143.5082  150.9685 LP  0  0  0  0  0  0  0  0  0  0  0  0  # atno 17342 bound_to 10162
  139.8770  143.7120  152.3161 LP  0  0  0  0  0  0  0  0  0  0  0  0  # atno 17343 bound_to 10162
  157.3022  131.0647  151.2060 LP  0  0  0  0  0  0  0  0  0  0  0  0  # atno 17370 bound_to 10713
  157.3035  130.6854  149.6177 LP  0  0  0  0  0  0  0  0  0  0  0  0  # atno 17371 bound_to 10713
  139.8705  134.9578  156.4281 LP  0  0  0  0  0  0  0  0  0  0  0  0  # atno 17394 bound_to 11000
  140.9014  133.7777  155.9684 LP  0  0  0  0  0  0  0  0  0  0  0  0  # atno 17395 bound_to 11000

$$$$
