AV-unprocessed.smi:221|AV-procd|sdf|1686|dock4
  -GOLD-   2262020123D 1   1.00000     0.00000
 Structure written by MMmdl.
 50 53  0  0  0  0  0  0  0  0  1 V2000
  142.2435  138.8748  154.0861 N   0  0  0  0  0  0  0  0  0  0  0  0
  142.7346  137.6399  154.2128 C   0  0  0  0  0  0  0  0  0  0  0  0
  142.3815  136.8861  155.1180 O   0  0  0  0  0  0  0  0  0  0  0  0
  143.7541  137.1895  153.1566 C   0  0  2  0  0  0  0  0  0  0  0  0
  143.3430  135.8696  152.4912 C   0  0  0  0  0  0  0  0  0  0  0  0
  144.6672  135.3150  151.9780 C   0  0  1  0  0  0  0  0  0  0  0  0
  144.9689  135.8885  150.8121 F   0  0  0  0  0  0  0  0  0  0  0  0
  145.6728  135.7600  153.0428 C   0  0  0  0  0  0  0  0  0  0  0  0
  145.0658  136.8929  153.7369 N   0  0  0  0  0  0  0  0  0  0  0  0
  145.8757  137.9551  153.9415 C   0  0  0  0  0  0  0  0  0  0  0  0
  146.2660  138.6562  152.8493 N   0  0  0  0  0  0  0  0  0  0  0  0
  147.0716  139.7136  152.9882 C   0  0  0  0  0  0  0  0  0  0  0  0
  147.5906  140.2283  154.1057 N   0  0  0  0  0  0  0  0  0  0  0  0
  147.1971  139.5227  155.2049 C   0  0  0  0  0  0  0  0  0  0  0  0
  146.3453  138.3833  155.2148 C   0  0  0  0  0  0  0  0  0  0  0  0
  146.1646  137.9358  156.5180 N   0  0  0  0  0  0  0  0  0  0  0  0
  146.8729  138.7623  157.2380 C   0  0  0  0  0  0  0  0  0  0  0  0
  147.5321  139.7412  156.5288 N   0  0  0  0  0  0  0  0  0  0  0  0
  148.3886  140.7821  157.0678 C   0  0  0  0  0  0  0  0  0  0  0  0
  149.6770  141.0214  156.2411 C   0  0  2  0  0  0  0  0  0  0  0  0
  150.1813  139.7406  155.5260 C   0  0  0  0  0  0  0  0  0  0  0  0
  151.2962  140.0059  154.6997 O   0  0  0  0  0  0  0  0  0  0  0  0
  150.7473  141.6995  157.1359 C   0  0  2  0  0  0  0  0  0  0  0  0
  151.5431  140.7824  158.0469 C   0  0  0  0  0  0  0  0  0  0  0  0
  152.1862  141.7878  158.9967 C   0  0  0  0  0  0  0  0  0  0  0  0
  151.2357  142.8387  159.1461 O   0  0  0  0  0  0  0  0  0  0  0  0
  150.2483  142.7624  158.1205 C   0  0  0  0  0  0  0  0  0  0  0  0
  143.8490  137.9618  152.3907 H   0  0  0  0  0  0  0  0  0  0  0  0
  144.6547  134.2365  151.8199 H   0  0  0  0  0  0  0  0  0  0  0  0
  141.5731  139.2179  154.7585 H   0  0  0  0  0  0  0  0  0  0  0  0
  142.5459  139.4623  153.3227 H   0  0  0  0  0  0  0  0  0  0  0  0
  142.9198  135.1792  153.2231 H   0  0  0  0  0  0  0  0  0  0  0  0
  142.6084  136.0064  151.6968 H   0  0  0  0  0  0  0  0  0  0  0  0
  145.8142  134.9655  153.7760 H   0  0  0  0  0  0  0  0  0  0  0  0
  146.6513  135.9771  152.6106 H   0  0  0  0  0  0  0  0  0  0  0  0
  147.3393  140.2199  152.0725 H   0  0  0  0  0  0  0  0  0  0  0  0
  146.9405  138.6747  158.3128 H   0  0  0  0  0  0  0  0  0  0  0  0
  147.7987  141.6978  157.1219 H   0  0  0  0  0  0  0  0  0  0  0  0
  148.6438  140.5195  158.0951 H   0  0  0  0  0  0  0  0  0  0  0  0
  149.4353  141.7526  155.4679 H   0  0  0  0  0  0  0  0  0  0  0  0
  150.4973  138.9814  156.2385 H   0  0  0  0  0  0  0  0  0  0  0  0
  149.3890  139.2936  154.9251 H   0  0  0  0  0  0  0  0  0  0  0  0
  151.7048  139.1842  154.4738 H   0  0  0  0  0  0  0  0  0  0  0  0
  151.4768  142.1791  156.4803 H   0  0  0  0  0  0  0  0  0  0  0  0
  150.8997  140.1080  158.6101 H   0  0  0  0  0  0  0  0  0  0  0  0
  152.2776  140.1810  157.5105 H   0  0  0  0  0  0  0  0  0  0  0  0
  152.4494  141.3466  159.9582 H   0  0  0  0  0  0  0  0  0  0  0  0
  153.0937  142.2010  158.5542 H   0  0  0  0  0  0  0  0  0  0  0  0
  150.1027  143.7312  157.6423 H   0  0  0  0  0  0  0  0  0  0  0  0
  149.3071  142.4741  158.5875 H   0  0  0  0  0  0  0  0  0  0  0  0
  1  2  1  0  0  0  0
  1 30  1  0  0  0  0
  1 31  1  0  0  0  0
  2  3  2  0  0  0  0
  2  4  1  0  0  0  0
  4 28  1  0  0  0  0
  4  9  1  0  0  0  0
  4  5  1  0  0  0  0
  5  6  1  0  0  0  0
  5 32  1  0  0  0  0
  5 33  1  0  0  0  0
  6 29  1  0  0  0  0
  6  7  1  0  0  0  0
  6  8  1  0  0  0  0
  8  9  1  0  0  0  0
  8 34  1  0  0  0  0
  8 35  1  0  0  0  0
  9 10  1  0  0  0  0
 10 15  1  0  0  0  0
 10 11  2  0  0  0  0
 11 12  1  0  0  0  0
 12 13  2  0  0  0  0
 12 36  1  0  0  0  0
 13 14  1  0  0  0  0
 14 18  1  0  0  0  0
 14 15  2  0  0  0  0
 15 16  1  0  0  0  0
 16 17  2  0  0  0  0
 17 18  1  0  0  0  0
 17 37  1  0  0  0  0
 18 19  1  0  0  0  0
 19 20  1  0  0  0  0
 19 38  1  0  0  0  0
 19 39  1  0  0  0  0
 20 21  1  0  0  0  0
 20 23  1  0  0  0  0
 20 40  1  0  0  0  0
 21 22  1  0  0  0  0
 21 41  1  0  0  0  0
 21 42  1  0  0  0  0
 22 43  1  0  0  0  0
 23 27  1  0  0  0  0
 23 24  1  0  0  0  0
 23 44  1  0  0  0  0
 24 25  1  0  0  0  0
 24 45  1  0  0  0  0
 24 46  1  0  0  0  0
 25 26  1  0  0  0  0
 25 47  1  0  0  0  0
 25 48  1  0  0  0  0
 26 27  1  0  0  0  0
 27 49  1  0  0  0  0
 27 50  1  0  0  0  0
M  END
> <s_m_source_file>
AV-unprocessed.smi

> <i_m_source_file_index>
221

> <i_lp_mmshare_version>
43012

> <i_f3d_flags>
0

> <s_epik_input>
W05IMl1DKD1PKVtDQEBIXTFbQ0gyXVtDQEBIXShGKVtDSDJdTjFjKG5bY0hdbjIpYyhjMjMpbltjSF1uM1tDSDJdW0NASF0oW0NIMl1bT0hdKVtDQEBIXTRbQ0gyXVtDSDJdT1tDSDJdNA==

> <s_epik_cmdline>
J2VwaWtfcHl0aG9uJywgJy1waCcsICc3LjAnLCAnLXRuJywgJzgnLCAnLW1hJywgJzIwMCcsICctbWV0YWxfYmluZGluZycsICctaW1hZScsICc8aW5maWxlLm1hZT4nLCAnLW9tYWUnLCAnPG91dGZpbGUubWFlPic=

> <r_lp_tautomer_probability>
1

> <r_epik_Ionization_Penalty>
0.000818822

> <r_epik_Ionization_Penalty_Charging>
0

> <r_epik_Ionization_Penalty_Neutral>
0.000818822

> <r_epik_State_Penalty>
0.000440551

> <r_epik_Charging_Adjusted_Penalty>
0.000440551

> <i_epik_Tot_Q>
0

> <i_epik_Tot_abs_Q>
0

> <r_epik_Metal_State_Penalty>
-0

> <b_epik_Metal_Only>
0

> <s_lp_Force_Field>
OPLS_2005

> <r_lp_Energy>
52.3399

> <b_lp_Chiralities_Consistent>
1

> <s_lp_Variant>
AV-unprocessed.smi:221-1

> <Gold.Version>
5.8.1

> <Gold.Id.Protein>
6NUR|6NUR_protein|mol2

> <Gold.PLP.Fitness>
36.3467

> <Gold.PLP.PLP>
-29.1856

> <Gold.PLP.part.hbond>
-1.7734

> <Gold.PLP.part.metal>
0.0000

> <Gold.PLP.part.buried>
-5.8114

> <Gold.PLP.part.nonpolar>
-22.9333

> <Gold.PLP.part.repulsive>
0.5954

> <Gold.PLP.ligand.clash>
0.0000

> <Gold.PLP.ligand.torsion>
0.9612

> <Gold.PLP.Chemscore.Hbond>
2.0000

> <Gold.PLP.Chemscore.CHOScore>
0.9166

> <Gold.PLP.Chemscore.Metal>
0.0000

> <Gold.Chemscore.Hbonds>
donor molecule, donor type, donor heavy atom, donor atom, acceptor molecule, acceptor atom, score
      L1  H     1    31       P1 10175  1.00
      P1  H  7989  7998       L1    22  0.96
      L1  C    12    36       P1  7957  0.84

> <Gold.PLP.Chemscore.Internal.Correction>
0.3337

> <Gold.Rescore>
     Score         DG    S(hbond)    S(metal)    S(lipo)     H(rot)  DE(clash)    DE(int)     intcor
      8.10      -9.17       1.98        0.00      56.42       3.72       0.02       1.04       ----

> <Gold.Chemscore.Fitness>
8.1043

> <Gold.Chemscore.DG>
-9.1671

> <Gold.Chemscore.ZeroCoef>
-5.4800

> <Gold.Chemscore.Hbond>
1.9788

> <Gold.Chemscore.Metal>
0.0000

> <Gold.Chemscore.Lipo>
56.4237

> <Gold.Chemscore.Internal_Hbond>
0.0000

> <Gold.Chemscore.DEClash>
0.0223

> <Gold.Chemscore.DEInternal>
1.0405

> <Gold.Chemscore.Rot>
3.7202

> <Gold.Chemscore.Internal.Correction>
   9.000000E+99

> <Gold.Chemscore.Hbonds>
donor molecule, donor type, donor heavy atom, donor atom, acceptor molecule, acceptor atom, score
      L1  H     1    31       P1 10175  0.99
      P1  H  7989  7998       L1    22  0.32

> <Gold.Chemscore.Hbond.Weighted>
-6.6092

> <Gold.Chemscore.Metal.Weighted>
-0.0000

> <Gold.Chemscore.Lipo.Weighted>
-6.6016

> <Gold.Chemscore.Internal_Hbond.Weighted>
0.0000

> <Gold.Chemscore.DEClash.Weighted>
0.0223

> <Gold.Chemscore.DEInternal.Weighted>
1.0405

> <Gold.Chemscore.Rot.Weighted>
9.5237

> <Gold.Chemscore.Internal.Correction.Weighted>
   9.000000E+99

> <Gold.Protein.RotatedTorsions>
[ 6907 6896 6895 6894 ] final -126.03 input  -60.11 | X-H torsion
[ 7974 7965 7964 7962 ] final   95.83 input  175.53 | X-H torsion
[ 8008 7997 7996 7995 ] final -138.71 input   59.86 | X-H torsion
[ 10167 10162 10161 10158 ] final  123.42 input  -65.29 | X-H torsion
[ 10718 10713 10712 10709 ] final  124.42 input   66.30 | X-H torsion
[ 10763 10752 10751 10750 ] final   40.68 input  -60.55 | X-H torsion
[ 11005 11000 10999 10996 ] final  -67.24 input  -57.11 | X-H torsion

> <Gold.Protein.ActiveResidues>
 VAL166  LYS551  ARG553  GLY616  TRP617  ASP618  TYR619  PRO620  LYS621  CYS622 
 ASP623  PHE694  ASN695  SER759  ASP760  ASP761  ALA762  ILE779  LEU786  VAL792 
 PHE793  MET794  SER795  GLU796  ALA797  LYS798  CYS799  TRP800  GLU811  SER814 

> <Gold.Protein.RotatedAtoms>
  150.8928  133.7220  159.2899 H   0  0  0  0  0  0  0  0  0  0  0  0  # atno 6907 bound_to 6896
  151.4765  135.1048  159.9775 H   0  0  0  0  0  0  0  0  0  0  0  0  # atno 6908 bound_to 6896
  152.4830  133.8255  159.7131 H   0  0  0  0  0  0  0  0  0  0  0  0  # atno 6909 bound_to 6896
  145.4469  139.2296  143.3061 H   0  0  0  0  0  0  0  0  0  0  0  0  # atno 7974 bound_to 7965
  155.4329  140.0526  157.3017 H   0  0  0  0  0  0  0  0  0  0  0  0  # atno 8008 bound_to 7997
  154.4852  140.2098  155.9630 H   0  0  0  0  0  0  0  0  0  0  0  0  # atno 8009 bound_to 7997
  156.1264  140.3179  155.8289 H   0  0  0  0  0  0  0  0  0  0  0  0  # atno 8010 bound_to 7997
  139.5800  144.6982  151.3552 H   0  0  0  0  0  0  0  0  0  0  0  0  # atno 10167 bound_to 10162
  157.5586  131.1090  150.8578 H   0  0  0  0  0  0  0  0  0  0  0  0  # atno 10718 bound_to 10713
  152.9929  135.6184  154.2664 H   0  0  0  0  0  0  0  0  0  0  0  0  # atno 10763 bound_to 10752
  154.2399  135.2789  155.2859 H   0  0  0  0  0  0  0  0  0  0  0  0  # atno 10764 bound_to 10752
  154.5378  135.5769  153.6871 H   0  0  0  0  0  0  0  0  0  0  0  0  # atno 10765 bound_to 10752
  141.1503  133.6715  156.6263 H   0  0  0  0  0  0  0  0  0  0  0  0  # atno 11005 bound_to 11000
  146.2526  140.5224  142.8887 LP  0  0  0  0  0  0  0  0  0  0  0  0  # atno 17320 bound_to 7965
  144.8086  140.6345  143.6430 LP  0  0  0  0  0  0  0  0  0  0  0  0  # atno 17321 bound_to 7965
  140.7080  143.7465  150.7515 LP  0  0  0  0  0  0  0  0  0  0  0  0  # atno 17342 bound_to 10162
  140.0995  143.4801  152.2433 LP  0  0  0  0  0  0  0  0  0  0  0  0  # atno 17343 bound_to 10162
  156.9082  130.5271  149.5281 LP  0  0  0  0  0  0  0  0  0  0  0  0  # atno 17370 bound_to 10713
  156.0642  130.5688  150.9254 LP  0  0  0  0  0  0  0  0  0  0  0  0  # atno 17371 bound_to 10713
  140.3501  134.7775  157.4461 LP  0  0  0  0  0  0  0  0  0  0  0  0  # atno 17394 bound_to 11000
  140.0867  134.5656  155.8485 LP  0  0  0  0  0  0  0  0  0  0  0  0  # atno 17395 bound_to 11000

$$$$
