AV-unprocessed.smi:1120|AV-procd|sdf|4818|dock9
  -GOLD-   22720 3373D 1   1.00000     0.00000
 Structure written by MMmdl.
 48 49  0  0  0  0  0  0  0  0  1 V2000
  152.1253  143.7825  160.5673 C   0  0  0  0  0  0  0  0  0  0  0  0
  152.7943  142.6578  159.7643 C   0  0  2  0  0  0  0  0  0  0  0  0
  151.7566  141.8269  158.9855 C   0  0  0  0  0  0  0  0  0  0  0  0
  152.4245  140.7004  158.1810 C   0  0  0  0  0  0  0  0  0  0  0  0
  153.2748  139.7897  159.0845 C   0  0  1  0  0  0  0  0  0  0  0  0
  153.9421  138.7787  158.2602 N   0  0  0  0  0  0  0  0  0  0  0  0
  153.0946  137.3360  157.8299 S   0  0  0  0  0  0  0  0  0  0  0  0
  154.0142  136.4942  157.0484 O   0  0  0  0  0  0  0  0  0  0  0  0
  152.4760  136.8109  159.0568 O   0  0  0  0  0  0  0  0  0  0  0  0
  151.7530  137.9794  156.7352 C   0  0  0  0  0  0  0  0  0  0  0  0
  151.3599  136.9226  155.7036 C   0  0  0  0  0  0  0  0  0  0  0  0
  151.6604  137.0809  154.5208 O   0  0  0  0  0  0  0  0  0  0  0  0
  150.6944  135.8505  156.1606 N   0  0  0  0  0  0  0  0  0  0  0  0
  150.2547  134.7272  155.3408 C   0  0  0  0  0  0  0  0  0  0  0  0
  149.8255  133.5270  156.2015 C   0  0  0  0  0  0  0  0  0  0  0  0
  149.7307  132.2458  155.3942 C   0  0  0  0  0  0  0  0  0  0  0  0
  150.4047  131.0784  155.8127 C   0  0  0  0  0  0  0  0  0  0  0  0
  150.2888  129.9177  155.0233 C   0  0  0  0  0  0  0  0  0  0  0  0
  149.5090  129.9684  153.8521 C   0  0  0  0  0  0  0  0  0  0  0  0
  148.8772  131.1833  153.5201 C   0  0  0  0  0  0  0  0  0  0  0  0
  148.9821  132.3021  154.2696 N   0  0  0  0  0  0  0  0  0  0  0  0
  154.3111  140.6141  159.8724 C   0  0  0  0  0  0  0  0  0  0  0  0
  153.6401  141.7434  160.6710 C   0  0  0  0  0  0  0  0  0  0  0  0
  151.4338  143.3827  161.3096 H   0  0  0  0  0  0  0  0  0  0  0  0
  151.5633  144.4505  159.9141 H   0  0  0  0  0  0  0  0  0  0  0  0
  152.8671  144.3841  161.0932 H   0  0  0  0  0  0  0  0  0  0  0  0
  153.4635  143.1249  159.0402 H   0  0  0  0  0  0  0  0  0  0  0  0
  151.0317  141.3974  159.6784 H   0  0  0  0  0  0  0  0  0  0  0  0
  151.1930  142.4715  158.3101 H   0  0  0  0  0  0  0  0  0  0  0  0
  151.6607  140.1121  157.6707 H   0  0  0  0  0  0  0  0  0  0  0  0
  153.0500  141.1374  157.4011 H   0  0  0  0  0  0  0  0  0  0  0  0
  152.6106  139.2845  159.7869 H   0  0  0  0  0  0  0  0  0  0  0  0
  154.8733  138.5648  158.6174 H   0  0  0  0  0  0  0  0  0  0  0  0
  150.8970  138.2374  157.3592 H   0  0  0  0  0  0  0  0  0  0  0  0
  152.0994  138.8914  156.2489 H   0  0  0  0  0  0  0  0  0  0  0  0
  150.4926  135.7999  157.1486 H   0  0  0  0  0  0  0  0  0  0  0  0
  149.4410  135.0408  154.6846 H   0  0  0  0  0  0  0  0  0  0  0  0
  151.0825  134.4397  154.6923 H   0  0  0  0  0  0  0  0  0  0  0  0
  150.5321  133.3835  157.0200 H   0  0  0  0  0  0  0  0  0  0  0  0
  148.8568  133.7206  156.6647 H   0  0  0  0  0  0  0  0  0  0  0  0
  150.9979  131.0702  156.7154 H   0  0  0  0  0  0  0  0  0  0  0  0
  150.7895  129.0052  155.3111 H   0  0  0  0  0  0  0  0  0  0  0  0
  149.3979  129.0982  153.2226 H   0  0  0  0  0  0  0  0  0  0  0  0
  148.2719  131.2589  152.6291 H   0  0  0  0  0  0  0  0  0  0  0  0
  154.8656  139.9729  160.5577 H   0  0  0  0  0  0  0  0  0  0  0  0
  155.0440  141.0416  159.1867 H   0  0  0  0  0  0  0  0  0  0  0  0
  154.4035  142.3291  161.1840 H   0  0  0  0  0  0  0  0  0  0  0  0
  153.0096  141.3104  161.4489 H   0  0  0  0  0  0  0  0  0  0  0  0
  1  2  1  0  0  0  0
  1 24  1  0  0  0  0
  1 25  1  0  0  0  0
  1 26  1  0  0  0  0
  2 23  1  0  0  0  0
  2  3  1  0  0  0  0
  2 27  1  0  0  0  0
  3  4  1  0  0  0  0
  3 28  1  0  0  0  0
  3 29  1  0  0  0  0
  4  5  1  0  0  0  0
  4 30  1  0  0  0  0
  4 31  1  0  0  0  0
  5  6  1  0  0  0  0
  5 22  1  0  0  0  0
  5 32  1  0  0  0  0
  6  7  1  0  0  0  0
  6 33  1  0  0  0  0
  7  8  2  0  0  0  0
  7  9  2  0  0  0  0
  7 10  1  0  0  0  0
 10 11  1  0  0  0  0
 10 34  1  0  0  0  0
 10 35  1  0  0  0  0
 11 12  2  0  0  0  0
 11 13  1  0  0  0  0
 13 14  1  0  0  0  0
 13 36  1  0  0  0  0
 14 15  1  0  0  0  0
 14 37  1  0  0  0  0
 14 38  1  0  0  0  0
 15 16  1  0  0  0  0
 15 39  1  0  0  0  0
 15 40  1  0  0  0  0
 16 21  1  0  0  0  0
 16 17  2  0  0  0  0
 17 18  1  0  0  0  0
 17 41  1  0  0  0  0
 18 19  2  0  0  0  0
 18 42  1  0  0  0  0
 19 20  1  0  0  0  0
 19 43  1  0  0  0  0
 20 21  2  0  0  0  0
 20 44  1  0  0  0  0
 22 23  1  0  0  0  0
 22 45  1  0  0  0  0
 22 46  1  0  0  0  0
 23 47  1  0  0  0  0
 23 48  1  0  0  0  0
M  END
> <s_m_source_file>
AV-unprocessed.smi

> <i_m_source_file_index>
1120

> <i_lp_mmshare_version>
43012

> <i_f3d_flags>
0

> <s_epik_input>
W0NIM11bQ0BASF0xW0NIMl1bQ0gyXVtDQEhdKFtDSDJdW0NIMl0xKVtOSF1TKD1PKSg9TylbQ0gyXUMoPU8pW05IXVtDSDJdW0NIMl1jMltjSF1bY0hdW2NIXVtjSF1uMg==

> <s_epik_cmdline>
J2VwaWtfcHl0aG9uJywgJy1waCcsICc3LjAnLCAnLXRuJywgJzgnLCAnLW1hJywgJzIwMCcsICctbWV0YWxfYmluZGluZycsICctaW1hZScsICc8aW5maWxlLm1hZT4nLCAnLW9tYWUnLCAnPG91dGZpbGUubWFlPic=

> <r_epik_Ionization_Penalty>
0.0216068

> <r_epik_Ionization_Penalty_Charging>
0

> <r_epik_Ionization_Penalty_Neutral>
0.0216068

> <r_epik_State_Penalty>
0.01735

> <r_epik_Charging_Adjusted_Penalty>
0.01735

> <i_epik_Tot_Q>
0

> <i_epik_Tot_abs_Q>
0

> <r_epik_Metal_State_Penalty>
0.0535325

> <b_epik_Metal_Only>
0

> <s_lp_Force_Field>
OPLS_2005

> <r_lp_Energy>
6.02559

> <b_lp_Chiralities_Consistent>
1

> <s_lp_Variant>
AV-unprocessed.smi:1120-1

> <Gold.Version>
5.8.1

> <Gold.Id.Protein>
6NUR|6NUR_protein|mol2

> <Gold.PLP.Fitness>
50.4881

> <Gold.PLP.PLP>
-39.3866

> <Gold.PLP.part.hbond>
-4.0000

> <Gold.PLP.part.metal>
0.0000

> <Gold.PLP.part.buried>
-5.3612

> <Gold.PLP.part.nonpolar>
-29.8491

> <Gold.PLP.part.repulsive>
0.3249

> <Gold.PLP.ligand.clash>
0.0000

> <Gold.PLP.ligand.torsion>
1.1952

> <Gold.PLP.Chemscore.Hbond>
3.4903

> <Gold.PLP.Chemscore.CHOScore>
0.9073

> <Gold.PLP.Chemscore.Metal>
0.0000

> <Gold.Chemscore.Hbonds>
donor molecule, donor type, donor heavy atom, donor atom, acceptor molecule, acceptor atom, score
      P1  H  6896  6908       L1     9  0.92
      P1  H  7997  8009       L1     6  0.51
      P1  H 10752 10763       L1     8  0.94
      P1  H 10752 10765       L1    12  1.00
      L1  C    20    44       P1 10747  0.93

> <Gold.PLP.Chemscore.Internal.Correction>
0.2991

> <Gold.Rescore>
     Score         DG    S(hbond)    S(metal)    S(lipo)     H(rot)  DE(clash)    DE(int)     intcor
     19.49     -20.74       2.68        0.00     100.35       2.12       0.05       1.20       ----

> <Gold.Chemscore.Fitness>
19.4949

> <Gold.Chemscore.DG>
-20.7391

> <Gold.Chemscore.ZeroCoef>
-5.4800

> <Gold.Chemscore.Hbond>
2.6793

> <Gold.Chemscore.Metal>
0.0000

> <Gold.Chemscore.Lipo>
100.3472

> <Gold.Chemscore.Internal_Hbond>
0.0000

> <Gold.Chemscore.DEClash>
0.0456

> <Gold.Chemscore.DEInternal>
1.1986

> <Gold.Chemscore.Rot>
2.1213

> <Gold.Chemscore.Internal.Correction>
   9.000000E+99

> <Gold.Chemscore.Hbonds>
donor molecule, donor type, donor heavy atom, donor atom, acceptor molecule, acceptor atom, score
      P1  H  6896  6908       L1     9  0.83
      P1  H  7997  8009       L1     6  0.01
      P1  H 10752 10763       L1     8  0.84
      P1  H 10752 10765       L1    12  0.47

> <Gold.Chemscore.Hbond.Weighted>
-8.9490

> <Gold.Chemscore.Metal.Weighted>
-0.0000

> <Gold.Chemscore.Lipo.Weighted>
-11.7406

> <Gold.Chemscore.Internal_Hbond.Weighted>
0.0000

> <Gold.Chemscore.DEClash.Weighted>
0.0456

> <Gold.Chemscore.DEInternal.Weighted>
1.1986

> <Gold.Chemscore.Rot.Weighted>
5.4305

> <Gold.Chemscore.Internal.Correction.Weighted>
   9.000000E+99

> <Gold.Protein.RotatedTorsions>
[ 6907 6896 6895 6894 ] final -101.89 input  -60.11 | X-H torsion
[ 7974 7965 7964 7962 ] final -134.73 input  175.53 | X-H torsion
[ 8008 7997 7996 7995 ] final  171.64 input   59.86 | X-H torsion
[ 10167 10162 10161 10158 ] final  -27.54 input  -65.29 | X-H torsion
[ 10718 10713 10712 10709 ] final  -22.90 input   66.30 | X-H torsion
[ 10763 10752 10751 10750 ] final  152.03 input  -60.55 | X-H torsion
[ 11005 11000 10999 10996 ] final -121.33 input  -57.11 | X-H torsion

> <Gold.Protein.ActiveResidues>
 VAL166  LYS551  ARG553  GLY616  TRP617  ASP618  TYR619  PRO620  LYS621  CYS622 
 ASP623  PHE694  ASN695  SER759  ASP760  ASP761  ALA762  ILE779  LEU786  VAL792 
 PHE793  MET794  SER795  GLU796  ALA797  LYS798  CYS799  TRP800  GLU811  SER814 

> <Gold.Protein.RotatedAtoms>
  150.7173  134.0665  159.3849 H   0  0  0  0  0  0  0  0  0  0  0  0  # atno 6907 bound_to 6896
  151.8646  135.0509  160.0482 H   0  0  0  0  0  0  0  0  0  0  0  0  # atno 6908 bound_to 6896
  152.2691  133.5330  159.5464 H   0  0  0  0  0  0  0  0  0  0  0  0  # atno 6909 bound_to 6896
  144.9077  140.6854  143.5045 H   0  0  0  0  0  0  0  0  0  0  0  0  # atno 7974 bound_to 7965
  156.1251  140.1506  156.9147 H   0  0  0  0  0  0  0  0  0  0  0  0  # atno 8008 bound_to 7997
  154.4865  140.0863  156.7540 H   0  0  0  0  0  0  0  0  0  0  0  0  # atno 8009 bound_to 7997
  155.4357  140.3429  155.4287 H   0  0  0  0  0  0  0  0  0  0  0  0  # atno 8010 bound_to 7997
  140.7276  143.4085  151.1145 H   0  0  0  0  0  0  0  0  0  0  0  0  # atno 10167 bound_to 10162
  156.4983  130.4582  149.6715 H   0  0  0  0  0  0  0  0  0  0  0  0  # atno 10718 bound_to 10713
  154.1135  135.2837  155.3225 H   0  0  0  0  0  0  0  0  0  0  0  0  # atno 10763 bound_to 10752
  154.6473  135.5381  153.7863 H   0  0  0  0  0  0  0  0  0  0  0  0  # atno 10764 bound_to 10752
  153.0337  135.6501  154.1292 H   0  0  0  0  0  0  0  0  0  0  0  0  # atno 10765 bound_to 10752
  141.0078  134.0309  157.3454 H   0  0  0  0  0  0  0  0  0  0  0  0  # atno 11005 bound_to 11000
  145.3508  139.1707  143.4435 LP  0  0  0  0  0  0  0  0  0  0  0  0  # atno 17320 bound_to 7965
  146.3142  140.3560  142.8660 LP  0  0  0  0  0  0  0  0  0  0  0  0  # atno 17321 bound_to 7965
  139.7715  143.8487  152.3121 LP  0  0  0  0  0  0  0  0  0  0  0  0  # atno 17342 bound_to 10162
  139.8407  144.7211  150.9334 LP  0  0  0  0  0  0  0  0  0  0  0  0  # atno 17343 bound_to 10162
  156.3358  130.7355  151.2293 LP  0  0  0  0  0  0  0  0  0  0  0  0  # atno 17370 bound_to 10713
  157.7466  131.0417  150.4660 LP  0  0  0  0  0  0  0  0  0  0  0  0  # atno 17371 bound_to 10713
  139.9073  135.0182  156.7540 LP  0  0  0  0  0  0  0  0  0  0  0  0  # atno 17394 bound_to 11000
  140.6784  133.9496  155.7896 LP  0  0  0  0  0  0  0  0  0  0  0  0  # atno 17395 bound_to 11000

$$$$
