AV-unprocessed.smi:54|AV-procd|sdf|554|dock7
  -GOLD-   2262016453D 1   1.00000     0.00000
 Structure written by MMmdl.
 43 45  0  0  0  0  0  0  0  0  2 V2000
  152.7798  143.5376  160.1976 C   0  0  0  0  0  0  0  0  0  0  0  0
  152.7662  142.1256  160.8059 C   0  0  0  0  0  0  0  0  0  0  0  0
  153.6838  142.0395  162.0369 C   0  0  0  0  0  0  0  0  0  0  0  0
  153.1623  141.0787  159.7548 C   0  0  0  0  0  0  0  0  0  0  0  0
  154.3053  140.6168  159.7700 O   0  0  0  0  0  0  0  0  0  0  0  0
  152.1937  140.7561  158.8691 N   0  0  0  0  0  0  0  0  0  0  0  0
  152.2383  139.8597  157.7949 C   0  0  0  0  0  0  0  0  0  0  0  0
  151.2878  140.0654  156.9155 N   0  0  0  0  0  0  0  0  0  0  0  0
  151.3243  139.1614  155.8708 C   0  0  0  0  0  0  0  0  0  0  0  0
  152.2102  138.1370  155.6814 C   0  0  0  0  0  0  0  0  0  0  0  0
  151.9485  137.4518  154.5017 N   0  0  0  0  0  0  0  0  0  0  0  0
  150.8925  138.1098  154.0260 C   0  0  0  0  0  0  0  0  0  0  0  0
  150.4443  139.1263  154.7937 N   0  0  0  0  0  0  0  0  0  0  0  0
  149.3068  140.0706  154.5255 C   0  0  1  0  0  0  0  0  0  0  0  0
  148.6954  139.7202  153.3225 O   0  0  0  0  0  0  0  0  0  0  0  0
  147.6824  138.7549  153.5751 C   0  0  2  0  0  0  0  0  0  0  0  0
  146.6863  138.7209  152.4059 C   0  0  0  0  0  0  0  0  0  0  0  0
  147.2119  137.9550  151.3431 O   0  0  0  0  0  0  0  0  0  0  0  0
  147.0675  139.2535  154.8884 C   0  0  1  0  0  0  0  0  0  0  0  0
  146.5920  138.1566  155.6426 O   0  0  0  0  0  0  0  0  0  0  0  0
  148.2256  139.9420  155.6141 C   0  0  2  0  0  0  0  0  0  0  0  0
  147.8301  141.2110  156.0934 O   0  0  0  0  0  0  0  0  0  0  0  0
  153.2551  137.9551  156.7162 C   0  0  0  0  0  0  0  0  0  0  0  0
  154.0720  137.0451  156.5888 O   0  0  0  0  0  0  0  0  0  0  0  0
  153.2143  138.8435  157.7537 N   0  5  0  0  0  0  0  0  0  0  0  0
  149.7858  141.0488  154.4688 H   0  0  0  0  0  0  0  0  0  0  0  0
  148.1373  137.7739  153.7264 H   0  0  0  0  0  0  0  0  0  0  0  0
  146.2554  139.9547  154.6883 H   0  0  0  0  0  0  0  0  0  0  0  0
  148.5955  139.3471  156.4507 H   0  0  0  0  0  0  0  0  0  0  0  0
  152.1306  143.5983  159.3231 H   0  0  0  0  0  0  0  0  0  0  0  0
  153.7835  143.8324  159.8884 H   0  0  0  0  0  0  0  0  0  0  0  0
  152.4269  144.2754  160.9186 H   0  0  0  0  0  0  0  0  0  0  0  0
  151.7477  141.9140  161.1359 H   0  0  0  0  0  0  0  0  0  0  0  0
  153.6860  141.0343  162.4605 H   0  0  0  0  0  0  0  0  0  0  0  0
  153.3509  142.7226  162.8189 H   0  0  0  0  0  0  0  0  0  0  0  0
  154.7141  142.2991  161.7894 H   0  0  0  0  0  0  0  0  0  0  0  0
  151.3383  141.2822  158.9704 H   0  0  0  0  0  0  0  0  0  0  0  0
  150.4350  137.8399  153.0858 H   0  0  0  0  0  0  0  0  0  0  0  0
  145.7558  138.2471  152.7202 H   0  0  0  0  0  0  0  0  0  0  0  0
  146.4387  139.7264  152.0647 H   0  0  0  0  0  0  0  0  0  0  0  0
  147.6565  137.2038  151.7055 H   0  0  0  0  0  0  0  0  0  0  0  0
  145.7767  138.4055  156.0509 H   0  0  0  0  0  0  0  0  0  0  0  0
  148.1190  141.2956  156.9888 H   0  0  0  0  0  0  0  0  0  0  0  0
  1  2  1  0  0  0  0
  1 30  1  0  0  0  0
  1 31  1  0  0  0  0
  1 32  1  0  0  0  0
  2  3  1  0  0  0  0
  2  4  1  0  0  0  0
  2 33  1  0  0  0  0
  3 34  1  0  0  0  0
  3 35  1  0  0  0  0
  3 36  1  0  0  0  0
  4  5  2  0  0  0  0
  4  6  1  0  0  0  0
  6 37  1  0  0  0  0
  6  7  1  0  0  0  0
  7 25  1  0  0  0  0
  7  8  2  0  0  0  0
  8  9  1  0  0  0  0
  9 13  1  0  0  0  0
  9 10  2  0  0  0  0
 10 11  1  0  0  0  0
 10 23  1  0  0  0  0
 11 12  2  0  0  0  0
 12 13  1  0  0  0  0
 12 38  1  0  0  0  0
 13 14  1  0  0  0  0
 14 26  1  0  0  0  0
 14 21  1  0  0  0  0
 14 15  1  0  0  0  0
 15 16  1  0  0  0  0
 16 27  1  0  0  0  0
 16 17  1  0  0  0  0
 16 19  1  0  0  0  0
 17 18  1  0  0  0  0
 17 39  1  0  0  0  0
 17 40  1  0  0  0  0
 18 41  1  0  0  0  0
 19 28  1  0  0  0  0
 19 20  1  0  0  0  0
 19 21  1  0  0  0  0
 20 42  1  0  0  0  0
 21 29  1  0  0  0  0
 21 22  1  0  0  0  0
 22 43  1  0  0  0  0
 23 24  2  0  0  0  0
 23 25  1  0  0  0  0
M  CHG  1  25  -1
M  END
> <s_m_source_file>
AV-unprocessed.smi

> <i_m_source_file_index>
54

> <i_lp_mmshare_version>
43012

> <i_f3d_flags>
0

> <s_epik_input>
W0NIM11bQ0hdKFtDSDNdKUMoPU8pW05IXWMobjEpW25IXWMoPU8pYyhjMTIpbltjSF1uMltDQEBIXTNPW0NASF0oW0NIMl1bT0hdKVtDQEBIXShbT0hdKVtDQEhdM1tPSF0=

> <s_epik_cmdline>
J2VwaWtfcHl0aG9uJywgJy1waCcsICc3LjAnLCAnLXRuJywgJzgnLCAnLW1hJywgJzIwMCcsICctbWV0YWxfYmluZGluZycsICctaW1hZScsICc8aW5maWxlLm1hZT4nLCAnLW9tYWUnLCAnPG91dGZpbGUubWFlPic=

> <r_lp_tautomer_probability>
0.85571

> <r_epik_Ionization_Penalty>
1.75936

> <r_epik_Ionization_Penalty_Charging>
4.55893e-11

> <r_epik_Ionization_Penalty_Neutral>
1.75936

> <r_epik_State_Penalty>
1.72072

> <r_epik_Charging_Adjusted_Penalty>
1.72072

> <i_epik_Tot_Q>
-1

> <i_epik_Tot_abs_Q>
1

> <r_epik_Metal_State_Penalty>
0.400338

> <b_epik_Metal_Only>
1

> <s_epik_Chemistry_Notes>
This compound contains an acetal/aminal-like group ( X-CH(R)-Y where X, Y are N, S, or O) that may be acid/base labile, releasing an aldehyde.

> <s_lp_Force_Field>
OPLS_2005

> <r_lp_Energy>
54.6298

> <b_lp_Chiralities_Consistent>
1

> <s_lp_Variant>
AV-unprocessed.smi:54-26

> <Gold.Version>
5.8.1

> <Gold.Id.Protein>
6NUR|6NUR_protein|mol2

> <Gold.PLP.Fitness>
51.9639

> <Gold.PLP.PLP>
-36.8893

> <Gold.PLP.part.hbond>
-5.5472

> <Gold.PLP.part.metal>
0.0000

> <Gold.PLP.part.buried>
-7.3166

> <Gold.PLP.part.nonpolar>
-30.7704

> <Gold.PLP.part.repulsive>
5.3663

> <Gold.PLP.ligand.clash>
0.0000

> <Gold.PLP.ligand.torsion>
0.8001

> <Gold.PLP.Chemscore.Hbond>
4.4562

> <Gold.PLP.Chemscore.CHOScore>
1.0814

> <Gold.PLP.Chemscore.Metal>
0.0000

> <Gold.Chemscore.Hbonds>
donor molecule, donor type, donor heavy atom, donor atom, acceptor molecule, acceptor atom, score
      L1  H    18    41       P1  7948  1.00
      P1  H  7954  7966       L1    18  0.55
      P1  H  7997  8008       L1    25  1.54
      P1  H 10752 10763       L1    11  0.76
      P1  H 10752 10764       L1    24  0.54
      L1  C    12    38       P1  7948  0.66
      L1  C    12    38       P1  7949  0.40

> <Gold.PLP.Chemscore.Internal.Correction>
0.0618

> <Gold.Rescore>
     Score         DG    S(hbond)    S(metal)    S(lipo)     H(rot)  DE(clash)    DE(int)     intcor
      7.27     -10.81       2.59        0.00      59.43       4.02       1.84       1.70       ----

> <Gold.Chemscore.Fitness>
7.2689

> <Gold.Chemscore.DG>
-10.8072

> <Gold.Chemscore.ZeroCoef>
-5.4800

> <Gold.Chemscore.Hbond>
2.5937

> <Gold.Chemscore.Metal>
0.0000

> <Gold.Chemscore.Lipo>
59.4328

> <Gold.Chemscore.Internal_Hbond>
0.0000

> <Gold.Chemscore.DEClash>
1.8408

> <Gold.Chemscore.DEInternal>
1.6975

> <Gold.Chemscore.Rot>
4.0192

> <Gold.Chemscore.Internal.Correction>
   9.000000E+99

> <Gold.Chemscore.Hbonds>
donor molecule, donor type, donor heavy atom, donor atom, acceptor molecule, acceptor atom, score
      L1  H    18    41       P1  7948  0.94
      P1  H  7954  7966       L1    18  0.03
      P1  H  7997  8008       L1    25  0.03
      P1  H 10752 10763       L1    11  0.68
      P1  H 10752 10764       L1    24  0.53

> <Gold.Chemscore.Hbond.Weighted>
-8.6628

> <Gold.Chemscore.Metal.Weighted>
-0.0000

> <Gold.Chemscore.Lipo.Weighted>
-6.9536

> <Gold.Chemscore.Internal_Hbond.Weighted>
0.0000

> <Gold.Chemscore.DEClash.Weighted>
1.8408

> <Gold.Chemscore.DEInternal.Weighted>
1.6975

> <Gold.Chemscore.Rot.Weighted>
10.2893

> <Gold.Chemscore.Internal.Correction.Weighted>
   9.000000E+99

> <Gold.Protein.RotatedTorsions>
[ 6907 6896 6895 6894 ] final  156.17 input  -60.11 | X-H torsion
[ 7974 7965 7964 7962 ] final  -89.97 input  175.53 | X-H torsion
[ 8008 7997 7996 7995 ] final -101.14 input   59.86 | X-H torsion
[ 10167 10162 10161 10158 ] final  -52.87 input  -65.29 | X-H torsion
[ 10718 10713 10712 10709 ] final   -0.57 input   66.30 | X-H torsion
[ 10763 10752 10751 10750 ] final   30.69 input  -60.55 | X-H torsion
[ 11005 11000 10999 10996 ] final  107.63 input  -57.11 | X-H torsion

> <Gold.Protein.ActiveResidues>
 VAL166  LYS551  ARG553  GLY616  TRP617  ASP618  TYR619  PRO620  LYS621  CYS622 
 ASP623  PHE694  ASN695  SER759  ASP760  ASP761  ALA762  ILE779  LEU786  VAL792 
 PHE793  MET794  SER795  GLU796  ALA797  LYS798  CYS799  TRP800  GLU811  SER814 

> <Gold.Protein.RotatedAtoms>
  152.0335  133.3947  159.4306 H   0  0  0  0  0  0  0  0  0  0  0  0  # atno 6907 bound_to 6896
  150.6880  134.3494  159.4911 H   0  0  0  0  0  0  0  0  0  0  0  0  # atno 6908 bound_to 6896
  152.1283  134.9153  160.0610 H   0  0  0  0  0  0  0  0  0  0  0  0  # atno 6909 bound_to 6896
  145.4327  140.9556  143.2119 H   0  0  0  0  0  0  0  0  0  0  0  0  # atno 7974 bound_to 7965
  154.8383  140.0436  157.1524 H   0  0  0  0  0  0  0  0  0  0  0  0  # atno 8008 bound_to 7997
  154.9075  140.3009  155.5264 H   0  0  0  0  0  0  0  0  0  0  0  0  # atno 8009 bound_to 7997
  156.2991  140.2364  156.4110 H   0  0  0  0  0  0  0  0  0  0  0  0  # atno 8010 bound_to 7997
  140.6515  143.2569  151.4710 H   0  0  0  0  0  0  0  0  0  0  0  0  # atno 10167 bound_to 10162
  156.8185  130.5448  149.5700 H   0  0  0  0  0  0  0  0  0  0  0  0  # atno 10718 bound_to 10713
  153.0357  135.6458  154.1083 H   0  0  0  0  0  0  0  0  0  0  0  0  # atno 10763 bound_to 10752
  154.0798  135.2874  155.3294 H   0  0  0  0  0  0  0  0  0  0  0  0  # atno 10764 bound_to 10752
  154.6538  135.5416  153.7998 H   0  0  0  0  0  0  0  0  0  0  0  0  # atno 10765 bound_to 10752
  139.8831  134.9406  156.5848 H   0  0  0  0  0  0  0  0  0  0  0  0  # atno 11005 bound_to 11000
  144.8172  139.5855  143.7003 LP  0  0  0  0  0  0  0  0  0  0  0  0  # atno 17320 bound_to 7965
  146.2598  139.6385  142.9369 LP  0  0  0  0  0  0  0  0  0  0  0  0  # atno 17321 bound_to 7965
  139.5730  144.1883  152.1864 LP  0  0  0  0  0  0  0  0  0  0  0  0  # atno 17342 bound_to 10162
  140.1185  144.5394  150.6878 LP  0  0  0  0  0  0  0  0  0  0  0  0  # atno 17343 bound_to 10162
  156.1003  130.5963  150.9882 LP  0  0  0  0  0  0  0  0  0  0  0  0  # atno 17370 bound_to 10713
  157.6469  131.0902  150.8134 LP  0  0  0  0  0  0  0  0  0  0  0  0  # atno 17371 bound_to 10713
  140.8000  133.8513  155.8718 LP  0  0  0  0  0  0  0  0  0  0  0  0  # atno 17394 bound_to 11000
  140.9601  134.1666  157.4660 LP  0  0  0  0  0  0  0  0  0  0  0  0  # atno 17395 bound_to 11000

$$$$
