AV-unprocessed.smi:1521|AV-procd|sdf|6130|dock6
  -GOLD-   22720 6273D 1   1.00000     0.00000
 Structure written by MMmdl.
 36 37  0  0  0  0  0  0  0  0  1 V2000
  151.5057  135.7174  155.7021 O   0  0  0  0  0  0  0  0  0  0  0  0
  150.6939  135.8221  154.7827 C   0  0  0  0  0  0  0  0  0  0  0  0
  150.4337  136.9795  154.1594 N   0  0  0  0  0  0  0  0  0  0  0  0
  151.0672  138.2583  154.4628 C   0  0  0  0  0  0  0  0  0  0  0  0
  150.0648  139.2597  155.0613 C   0  0  2  0  0  0  0  0  0  0  0  0
  148.7454  139.3008  154.2648 C   0  0  0  0  0  0  0  0  0  0  0  0
  147.8815  140.2751  154.8356 O   0  0  0  0  0  0  0  0  0  0  0  0
  148.4703  141.5683  154.8070 C   0  0  0  0  0  0  0  0  0  0  0  0
  149.7885  141.5362  155.5978 C   0  0  0  0  0  0  0  0  0  0  0  0
  150.6469  140.5590  155.0246 O   0  0  0  0  0  0  0  0  0  0  0  0
  149.9706  134.8185  154.2531 N   0  0  0  0  0  0  0  0  0  0  0  0
  149.9173  133.4678  154.6358 C   0  0  0  0  0  0  0  0  0  0  0  0
  150.7864  132.8718  155.4935 C   0  0  0  0  0  0  0  0  0  0  0  0
  150.6659  131.4717  155.8645 C   0  0  0  0  0  0  0  0  0  0  0  0
  151.6897  130.7941  156.7622 C   0  0  0  0  0  0  0  0  0  0  0  0
  152.3496  129.8379  156.1075 F   0  0  0  0  0  0  0  0  0  0  0  0
  152.5780  131.6743  157.2246 F   0  0  0  0  0  0  0  0  0  0  0  0
  151.0773  130.2358  157.8055 F   0  0  0  0  0  0  0  0  0  0  0  0
  149.6502  130.7882  155.3055 C   0  0  0  0  0  0  0  0  0  0  0  0
  148.7395  131.3991  154.4405 N   0  0  0  0  0  0  0  0  0  0  0  0
  148.7991  132.6971  154.0673 C   0  0  0  0  0  0  0  0  0  0  0  0
  147.9559  133.1622  153.3011 O   0  0  0  0  0  0  0  0  0  0  0  0
  147.9950  130.8226  154.0759 H   0  0  0  0  0  0  0  0  0  0  0  0
  149.7589  136.9750  153.4084 H   0  0  0  0  0  0  0  0  0  0  0  0
  151.8820  138.0795  155.1646 H   0  0  0  0  0  0  0  0  0  0  0  0
  151.5228  138.6702  153.5607 H   0  0  0  0  0  0  0  0  0  0  0  0
  149.8517  138.9845  156.0959 H   0  0  0  0  0  0  0  0  0  0  0  0
  148.9276  139.5313  153.2137 H   0  0  0  0  0  0  0  0  0  0  0  0
  148.2503  138.3300  154.2983 H   0  0  0  0  0  0  0  0  0  0  0  0
  148.6427  141.8811  153.7763 H   0  0  0  0  0  0  0  0  0  0  0  0
  147.7789  142.2855  155.2497 H   0  0  0  0  0  0  0  0  0  0  0  0
  150.2786  142.5089  155.5579 H   0  0  0  0  0  0  0  0  0  0  0  0
  149.6070  141.3101  156.6496 H   0  0  0  0  0  0  0  0  0  0  0  0
  149.4108  135.0476  153.4444 H   0  0  0  0  0  0  0  0  0  0  0  0
  151.5862  133.4329  155.9489 H   0  0  0  0  0  0  0  0  0  0  0  0
  149.4607  129.7376  155.4700 H   0  0  0  0  0  0  0  0  0  0  0  0
  1  2  2  0  0  0  0
  2  3  1  0  0  0  0
  2 11  1  0  0  0  0
  3  4  1  0  0  0  0
  3 24  1  0  0  0  0
  4  5  1  0  0  0  0
  4 25  1  0  0  0  0
  4 26  1  0  0  0  0
  5 10  1  0  0  0  0
  5  6  1  0  0  0  0
  5 27  1  0  0  0  0
  6  7  1  0  0  0  0
  6 28  1  0  0  0  0
  6 29  1  0  0  0  0
  7  8  1  0  0  0  0
  8  9  1  0  0  0  0
  8 30  1  0  0  0  0
  8 31  1  0  0  0  0
  9 10  1  0  0  0  0
  9 32  1  0  0  0  0
  9 33  1  0  0  0  0
 11 12  1  0  0  0  0
 11 34  1  0  0  0  0
 12 21  1  0  0  0  0
 12 13  2  0  0  0  0
 13 14  1  0  0  0  0
 13 35  1  0  0  0  0
 14 15  1  0  0  0  0
 14 19  2  0  0  0  0
 15 16  1  0  0  0  0
 15 17  1  0  0  0  0
 15 18  1  0  0  0  0
 19 20  1  0  0  0  0
 19 36  1  0  0  0  0
 20 23  1  0  0  0  0
 20 21  1  0  0  0  0
 21 22  2  0  0  0  0
M  END
> <s_m_source_file>
AV-unprocessed.smi

> <i_m_source_file_index>
1521

> <i_lp_mmshare_version>
43012

> <i_f3d_flags>
0

> <s_epik_input>
Tz1jMVtuSF1bY0hdYyhDKEYpKEYpRilbY0hdYzFbTkhdQyg9TylbTkhdW0NIMl1bQ0BASF0yW0NIMl1PW0NIMl1bQ0gyXU8y

> <s_epik_cmdline>
J2VwaWtfcHl0aG9uJywgJy1waCcsICc3LjAnLCAnLXRuJywgJzgnLCAnLW1hJywgJzIwMCcsICctbWV0YWxfYmluZGluZycsICctaW1hZScsICc8aW5maWxlLm1hZT4nLCAnLW9tYWUnLCAnPG91dGZpbGUubWFlPic=

> <r_lp_tautomer_probability>
1

> <r_epik_Ionization_Penalty>
0.00396636

> <r_epik_Ionization_Penalty_Charging>
0.00394789

> <r_epik_Ionization_Penalty_Neutral>
1.84676e-05

> <r_epik_State_Penalty>
-0

> <r_epik_Charging_Adjusted_Penalty>
0.00394789

> <i_epik_Tot_Q>
0

> <i_epik_Tot_abs_Q>
0

> <r_epik_Metal_State_Penalty>
0.372669

> <b_epik_Metal_Only>
0

> <s_lp_Force_Field>
OPLS_2005

> <r_lp_Energy>
18.8562

> <b_lp_Chiralities_Consistent>
1

> <s_lp_Variant>
AV-unprocessed.smi:1521-1

> <Gold.Version>
5.8.1

> <Gold.Id.Protein>
6NUR|6NUR_protein|mol2

> <Gold.PLP.Fitness>
44.0575

> <Gold.PLP.PLP>
-33.3229

> <Gold.PLP.part.hbond>
-5.5119

> <Gold.PLP.part.metal>
0.0000

> <Gold.PLP.part.buried>
-1.2401

> <Gold.PLP.part.nonpolar>
-27.0912

> <Gold.PLP.part.repulsive>
0.4966

> <Gold.PLP.ligand.clash>
0.0000

> <Gold.PLP.ligand.torsion>
0.2013

> <Gold.PLP.Chemscore.Hbond>
3.6920

> <Gold.PLP.Chemscore.CHOScore>
0.0000

> <Gold.PLP.Chemscore.Metal>
0.0000

> <Gold.Chemscore.Hbonds>
donor molecule, donor type, donor heavy atom, donor atom, acceptor molecule, acceptor atom, score
      L1  H     3    24       P1  7948  1.00
      L1  H    11    34       P1  7948  0.65
      P1  H  7989  7998       L1    10  0.99
      P1  H 10752 10763       L1     1  1.00

> <Gold.PLP.Chemscore.Internal.Correction>
0.0611

> <Gold.Rescore>
     Score         DG    S(hbond)    S(metal)    S(lipo)     H(rot)  DE(clash)    DE(int)     intcor
     16.45     -17.86       2.76        0.00      57.13       1.37       0.04       1.37       ----

> <Gold.Chemscore.Fitness>
16.4461

> <Gold.Chemscore.DG>
-17.8598

> <Gold.Chemscore.ZeroCoef>
-5.4800

> <Gold.Chemscore.Hbond>
2.7579

> <Gold.Chemscore.Metal>
0.0000

> <Gold.Chemscore.Lipo>
57.1342

> <Gold.Chemscore.Internal_Hbond>
0.0000

> <Gold.Chemscore.DEClash>
0.0447

> <Gold.Chemscore.DEInternal>
1.3690

> <Gold.Chemscore.Rot>
1.3735

> <Gold.Chemscore.Internal.Correction>
   9.000000E+99

> <Gold.Chemscore.Hbonds>
donor molecule, donor type, donor heavy atom, donor atom, acceptor molecule, acceptor atom, score
      L1  H     3    24       P1  7948  0.53
      L1  H    11    34       P1  7948  0.05
      P1  H  7989  7998       L1    10  0.81
      P1  H 10752 10763       L1     1  0.50

> <Gold.Chemscore.Hbond.Weighted>
-9.2113

> <Gold.Chemscore.Metal.Weighted>
-0.0000

> <Gold.Chemscore.Lipo.Weighted>
-6.6847

> <Gold.Chemscore.Internal_Hbond.Weighted>
0.0000

> <Gold.Chemscore.DEClash.Weighted>
0.0447

> <Gold.Chemscore.DEInternal.Weighted>
1.3690

> <Gold.Chemscore.Rot.Weighted>
3.5162

> <Gold.Chemscore.Internal.Correction.Weighted>
   9.000000E+99

> <Gold.Protein.RotatedTorsions>
[ 6907 6896 6895 6894 ] final   62.70 input  -60.11 | X-H torsion
[ 7974 7965 7964 7962 ] final -133.43 input  175.53 | X-H torsion
[ 8008 7997 7996 7995 ] final  -25.31 input   59.86 | X-H torsion
[ 10167 10162 10161 10158 ] final -123.74 input  -65.29 | X-H torsion
[ 10718 10713 10712 10709 ] final   81.77 input   66.30 | X-H torsion
[ 10763 10752 10751 10750 ] final   81.03 input  -60.55 | X-H torsion
[ 11005 11000 10999 10996 ] final -130.57 input  -57.11 | X-H torsion

> <Gold.Protein.ActiveResidues>
 VAL166  LYS551  ARG553  GLY616  TRP617  ASP618  TYR619  PRO620  LYS621  CYS622 
 ASP623  PHE694  ASN695  SER759  ASP760  ASP761  ALA762  ILE779  LEU786  VAL792 
 PHE793  MET794  SER795  GLU796  ALA797  LYS798  CYS799  TRP800  GLU811  SER814 

> <Gold.Protein.RotatedAtoms>
  152.4193  134.5984  159.9993 H   0  0  0  0  0  0  0  0  0  0  0  0  # atno 6907 bound_to 6896
  151.6139  133.3339  159.3081 H   0  0  0  0  0  0  0  0  0  0  0  0  # atno 6908 bound_to 6896
  150.8081  134.7258  159.6729 H   0  0  0  0  0  0  0  0  0  0  0  0  # atno 6909 bound_to 6896
  144.9194  140.6995  143.4975 H   0  0  0  0  0  0  0  0  0  0  0  0  # atno 7974 bound_to 7965
  154.4482  140.1930  156.0600 H   0  0  0  0  0  0  0  0  0  0  0  0  # atno 8008 bound_to 7997
  156.0590  140.3299  155.7412 H   0  0  0  0  0  0  0  0  0  0  0  0  # atno 8009 bound_to 7997
  155.5441  140.0589  157.2855 H   0  0  0  0  0  0  0  0  0  0  0  0  # atno 8010 bound_to 7997
  140.0002  143.5548  152.2306 H   0  0  0  0  0  0  0  0  0  0  0  0  # atno 10167 bound_to 10162
  157.6841  131.0018  150.2275 H   0  0  0  0  0  0  0  0  0  0  0  0  # atno 10718 bound_to 10713
  153.1082  135.4780  154.8989 H   0  0  0  0  0  0  0  0  0  0  0  0  # atno 10763 bound_to 10752
  154.7453  135.3092  154.8658 H   0  0  0  0  0  0  0  0  0  0  0  0  # atno 10764 bound_to 10752
  153.9254  135.6850  153.4800 H   0  0  0  0  0  0  0  0  0  0  0  0  # atno 10765 bound_to 10752
  140.9334  134.1289  157.4215 H   0  0  0  0  0  0  0  0  0  0  0  0  # atno 11005 bound_to 11000
  145.3322  139.1756  143.4531 LP  0  0  0  0  0  0  0  0  0  0  0  0  # atno 17320 bound_to 7965
  146.3197  140.3353  142.8643 LP  0  0  0  0  0  0  0  0  0  0  0  0  # atno 17321 bound_to 7965
  139.6277  144.7639  151.2603 LP  0  0  0  0  0  0  0  0  0  0  0  0  # atno 17342 bound_to 10162
  140.7421  143.6535  150.8227 LP  0  0  0  0  0  0  0  0  0  0  0  0  # atno 17343 bound_to 10162
  156.2914  130.3746  149.7837 LP  0  0  0  0  0  0  0  0  0  0  0  0  # atno 17370 bound_to 10713
  156.5496  130.8336  151.3295 LP  0  0  0  0  0  0  0  0  0  0  0  0  # atno 17371 bound_to 10713
  139.8802  135.0013  156.6058 LP  0  0  0  0  0  0  0  0  0  0  0  0  # atno 17394 bound_to 11000
  140.7832  133.8643  155.8584 LP  0  0  0  0  0  0  0  0  0  0  0  0  # atno 17395 bound_to 11000

$$$$
