AV-unprocessed.smi:1230|AV-procd|sdf|5155|dock7
  -GOLD-   22720 4223D 1   1.00000     0.00000
 Structure written by MMmdl.
 38 39  0  0  0  0  0  0  0  0  2 V2000
  153.6119  141.3429  160.2585 C   0  0  0  0  0  0  0  0  0  0  0  0
  152.5333  142.4342  160.3560 C   0  0  1  0  0  0  0  0  0  0  0  0
  152.9483  143.5182  161.3712 C   0  0  0  0  0  0  0  0  0  0  0  0
  151.8924  144.6278  161.4847 C   0  0  0  0  0  0  0  0  0  0  0  0
  151.6050  145.2553  160.1139 C   0  0  0  0  0  0  0  0  0  0  0  0
  151.1768  144.1860  159.0982 C   0  0  0  0  0  0  0  0  0  0  0  0
  152.2282  143.0621  158.9768 C   0  0  2  0  0  0  0  0  0  0  0  0
  151.7274  142.0331  158.1321 O   0  0  0  0  0  0  0  0  0  0  0  0
  151.1363  142.4956  156.9273 C   0  0  0  0  0  0  0  0  0  0  0  0
  150.0954  141.4642  156.4696 C   0  0  0  0  0  0  0  0  0  0  0  0
  150.7011  140.1412  156.2709 N   0  0  0  0  0  0  0  0  0  0  0  0
  151.1328  139.4461  157.4133 C   0  0  0  0  0  0  0  0  0  0  0  0
  151.6992  138.2277  157.3265 C   0  0  0  0  0  0  0  0  0  0  0  0
  152.1460  137.5015  158.4695 C   0  0  0  0  0  0  0  0  0  0  0  0
  152.5369  136.9255  159.3948 N   0  0  0  0  0  0  0  0  0  0  0  0
  151.8654  137.6254  156.0060 C   0  0  0  0  0  0  0  0  0  0  0  0
  152.3726  136.5096  155.8978 O   0  0  0  0  0  0  0  0  0  0  0  0
  151.4388  138.3502  154.9299 N   0  5  0  0  0  0  0  0  0  0  0  0
  150.8663  139.5906  155.0308 C   0  0  0  0  0  0  0  0  0  0  0  0
  150.4968  140.2268  154.0436 O   0  0  0  0  0  0  0  0  0  0  0  0
  154.5525  141.7477  159.8838 H   0  0  0  0  0  0  0  0  0  0  0  0
  153.3053  140.5395  159.5885 H   0  0  0  0  0  0  0  0  0  0  0  0
  153.8071  140.8965  161.2339 H   0  0  0  0  0  0  0  0  0  0  0  0
  151.6195  141.9649  160.7238 H   0  0  0  0  0  0  0  0  0  0  0  0
  153.1085  143.0683  162.3515 H   0  0  0  0  0  0  0  0  0  0  0  0
  153.9024  143.9557  161.0740 H   0  0  0  0  0  0  0  0  0  0  0  0
  150.9715  144.2173  161.9010 H   0  0  0  0  0  0  0  0  0  0  0  0
  152.2321  145.3949  162.1811 H   0  0  0  0  0  0  0  0  0  0  0  0
  150.8260  146.0124  160.2072 H   0  0  0  0  0  0  0  0  0  0  0  0
  152.4958  145.7695  159.7511 H   0  0  0  0  0  0  0  0  0  0  0  0
  150.2206  143.7592  159.4041 H   0  0  0  0  0  0  0  0  0  0  0  0
  151.0065  144.6596  158.1318 H   0  0  0  0  0  0  0  0  0  0  0  0
  153.1559  143.4690  158.5693 H   0  0  0  0  0  0  0  0  0  0  0  0
  150.6632  143.4661  157.0768 H   0  0  0  0  0  0  0  0  0  0  0  0
  151.9036  142.6172  156.1612 H   0  0  0  0  0  0  0  0  0  0  0  0
  149.2957  141.4024  157.2089 H   0  0  0  0  0  0  0  0  0  0  0  0
  149.6100  141.8048  155.5535 H   0  0  0  0  0  0  0  0  0  0  0  0
  150.9796  139.9604  158.3509 H   0  0  0  0  0  0  0  0  0  0  0  0
  1  2  1  0  0  0  0
  1 21  1  0  0  0  0
  1 22  1  0  0  0  0
  1 23  1  0  0  0  0
  2  7  1  0  0  0  0
  2  3  1  0  0  0  0
  2 24  1  0  0  0  0
  3  4  1  0  0  0  0
  3 25  1  0  0  0  0
  3 26  1  0  0  0  0
  4  5  1  0  0  0  0
  4 27  1  0  0  0  0
  4 28  1  0  0  0  0
  5  6  1  0  0  0  0
  5 29  1  0  0  0  0
  5 30  1  0  0  0  0
  6  7  1  0  0  0  0
  6 31  1  0  0  0  0
  6 32  1  0  0  0  0
  7  8  1  0  0  0  0
  7 33  1  0  0  0  0
  8  9  1  0  0  0  0
  9 10  1  0  0  0  0
  9 34  1  0  0  0  0
  9 35  1  0  0  0  0
 10 11  1  0  0  0  0
 10 36  1  0  0  0  0
 10 37  1  0  0  0  0
 11 19  1  0  0  0  0
 11 12  1  0  0  0  0
 12 13  2  0  0  0  0
 12 38  1  0  0  0  0
 13 14  1  0  0  0  0
 13 16  1  0  0  0  0
 14 15  3  0  0  0  0
 16 17  2  0  0  0  0
 16 18  1  0  0  0  0
 18 19  1  0  0  0  0
 19 20  2  0  0  0  0
M  CHG  1  18  -1
M  END
> <s_m_source_file>
AV-unprocessed.smi

> <i_m_source_file_index>
1230

> <i_lp_mmshare_version>
43012

> <i_f3d_flags>
0

> <s_epik_input>
W0NIM11bQ0BASF0xW0NIMl1bQ0gyXVtDSDJdW0NIMl1bQ0BIXTFPW0NIMl1bQ0gyXW4yW2NIXWMoQyNOKWMoPU8pW25IXWMyPU8=

> <s_epik_cmdline>
J2VwaWtfcHl0aG9uJywgJy1waCcsICc3LjAnLCAnLXRuJywgJzgnLCAnLW1hJywgJzIwMCcsICctbWV0YWxfYmluZGluZycsICctaW1hZScsICc8aW5maWxlLm1hZT4nLCAnLW9tYWUnLCAnPG91dGZpbGUubWFlPic=

> <r_epik_Ionization_Penalty>
0.400014

> <r_epik_Ionization_Penalty_Charging>
4.81474e-10

> <r_epik_Ionization_Penalty_Neutral>
0.400014

> <r_epik_State_Penalty>
0.399305

> <r_epik_Charging_Adjusted_Penalty>
0.399305

> <i_epik_Tot_Q>
-1

> <i_epik_Tot_abs_Q>
1

> <r_epik_Metal_State_Penalty>
0.00056968

> <b_epik_Metal_Only>
0

> <s_lp_Force_Field>
OPLS_2005

> <r_lp_Energy>
22.5171

> <b_lp_Chiralities_Consistent>
1

> <s_lp_Variant>
AV-unprocessed.smi:1230-4

> <Gold.Version>
5.8.1

> <Gold.Id.Protein>
6NUR|6NUR_protein|mol2

> <Gold.PLP.Fitness>
47.3180

> <Gold.PLP.PLP>
-39.0065

> <Gold.PLP.part.hbond>
-2.7573

> <Gold.PLP.part.metal>
0.0000

> <Gold.PLP.part.buried>
-4.4871

> <Gold.PLP.part.nonpolar>
-32.2098

> <Gold.PLP.part.repulsive>
0.8318

> <Gold.PLP.ligand.clash>
0.0000

> <Gold.PLP.ligand.torsion>
0.3351

> <Gold.PLP.Chemscore.Hbond>
2.9913

> <Gold.PLP.Chemscore.CHOScore>
0.0000

> <Gold.PLP.Chemscore.Metal>
0.0000

> <Gold.Chemscore.Hbonds>
donor molecule, donor type, donor heavy atom, donor atom, acceptor molecule, acceptor atom, score
      P1  H  6896  6908       L1    15  0.61
      P1  H  7989  7998       L1    20  0.68
      P1  H 10752 10764       L1    17  0.88

> <Gold.PLP.Chemscore.Internal.Correction>
0.0079

> <Gold.Rescore>
     Score         DG    S(hbond)    S(metal)    S(lipo)     H(rot)  DE(clash)    DE(int)     intcor
     19.10     -21.95       2.87        0.00     100.45       1.90       1.06       1.80       ----

> <Gold.Chemscore.Fitness>
19.0971

> <Gold.Chemscore.DG>
-21.9509

> <Gold.Chemscore.ZeroCoef>
-5.4800

> <Gold.Chemscore.Hbond>
2.8676

> <Gold.Chemscore.Metal>
0.0000

> <Gold.Chemscore.Lipo>
100.4523

> <Gold.Chemscore.Internal_Hbond>
0.0000

> <Gold.Chemscore.DEClash>
1.0563

> <Gold.Chemscore.DEInternal>
1.7975

> <Gold.Chemscore.Rot>
1.8984

> <Gold.Chemscore.Internal.Correction>
   9.000000E+99

> <Gold.Chemscore.Hbonds>
donor molecule, donor type, donor heavy atom, donor atom, acceptor molecule, acceptor atom, score
      P1  H  6896  6908       L1    15  0.57
      P1  H  7989  7998       L1    20  0.46
      P1  H 10752 10764       L1    17  0.85

> <Gold.Chemscore.Hbond.Weighted>
-9.5778

> <Gold.Chemscore.Metal.Weighted>
-0.0000

> <Gold.Chemscore.Lipo.Weighted>
-11.7529

> <Gold.Chemscore.Internal_Hbond.Weighted>
0.0000

> <Gold.Chemscore.DEClash.Weighted>
1.0563

> <Gold.Chemscore.DEInternal.Weighted>
1.7975

> <Gold.Chemscore.Rot.Weighted>
4.8598

> <Gold.Chemscore.Internal.Correction.Weighted>
   9.000000E+99

> <Gold.Protein.RotatedTorsions>
[ 6907 6896 6895 6894 ] final -127.88 input  -60.11 | X-H torsion
[ 7974 7965 7964 7962 ] final  120.11 input  175.53 | X-H torsion
[ 8008 7997 7996 7995 ] final  163.93 input   59.86 | X-H torsion
[ 10167 10162 10161 10158 ] final   69.25 input  -65.29 | X-H torsion
[ 10718 10713 10712 10709 ] final   -8.27 input   66.30 | X-H torsion
[ 10763 10752 10751 10750 ] final  -50.53 input  -60.55 | X-H torsion
[ 11005 11000 10999 10996 ] final   65.67 input  -57.11 | X-H torsion

> <Gold.Protein.ActiveResidues>
 VAL166  LYS551  ARG553  GLY616  TRP617  ASP618  TYR619  PRO620  LYS621  CYS622 
 ASP623  PHE694  ASN695  SER759  ASP760  ASP761  ALA762  ILE779  LEU786  VAL792 
 PHE793  MET794  SER795  GLU796  ALA797  LYS798  CYS799  TRP800  GLU811  SER814 

> <Gold.Protein.RotatedAtoms>
  150.9120  133.6986  159.2852 H   0  0  0  0  0  0  0  0  0  0  0  0  # atno 6907 bound_to 6896
  151.4470  135.1025  159.9696 H   0  0  0  0  0  0  0  0  0  0  0  0  # atno 6908 bound_to 6896
  152.4934  133.8514  159.7259 H   0  0  0  0  0  0  0  0  0  0  0  0  # atno 6909 bound_to 6896
  145.1350  139.3303  143.4645 H   0  0  0  0  0  0  0  0  0  0  0  0  # atno 7974 bound_to 7965
  156.1919  140.1710  156.8074 H   0  0  0  0  0  0  0  0  0  0  0  0  # atno 8008 bound_to 7997
  154.5482  140.0723  156.8656 H   0  0  0  0  0  0  0  0  0  0  0  0  # atno 8009 bound_to 7997
  155.3080  140.3366  155.4247 H   0  0  0  0  0  0  0  0  0  0  0  0  # atno 8010 bound_to 7997
  140.0699  144.5161  150.7235 H   0  0  0  0  0  0  0  0  0  0  0  0  # atno 10167 bound_to 10162
  156.7051  130.5105  149.5907 H   0  0  0  0  0  0  0  0  0  0  0  0  # atno 10718 bound_to 10713
  154.1118  135.6548  153.4886 H   0  0  0  0  0  0  0  0  0  0  0  0  # atno 10763 bound_to 10752
  153.0254  135.5249  154.7184 H   0  0  0  0  0  0  0  0  0  0  0  0  # atno 10764 bound_to 10752
  154.6366  135.2983  155.0123 H   0  0  0  0  0  0  0  0  0  0  0  0  # atno 10765 bound_to 10752
  139.9879  134.6638  156.0142 H   0  0  0  0  0  0  0  0  0  0  0  0  # atno 11005 bound_to 11000
  146.3510  140.1364  142.8595 LP  0  0  0  0  0  0  0  0  0  0  0  0  # atno 17320 bound_to 7965
  145.0594  140.9076  143.4948 LP  0  0  0  0  0  0  0  0  0  0  0  0  # atno 17321 bound_to 7965
  140.7131  143.2521  151.4520 LP  0  0  0  0  0  0  0  0  0  0  0  0  # atno 17342 bound_to 10162
  139.5842  144.1641  152.2008 LP  0  0  0  0  0  0  0  0  0  0  0  0  # atno 17343 bound_to 10162
  156.1701  130.6431  151.0826 LP  0  0  0  0  0  0  0  0  0  0  0  0  # atno 17370 bound_to 10713
  157.6958  131.0794  150.6973 LP  0  0  0  0  0  0  0  0  0  0  0  0  # atno 17371 bound_to 10713
  141.1541  133.6545  156.4105 LP  0  0  0  0  0  0  0  0  0  0  0  0  # atno 17394 bound_to 11000
  140.4965  134.6526  157.5232 LP  0  0  0  0  0  0  0  0  0  0  0  0  # atno 17395 bound_to 11000

$$$$
