AV-unprocessed.smi:69|AV-procd|sdf|651|dock8
  -GOLD-   2262016553D 1   1.00000     0.00000
 Structure written by MMmdl.
 32 34  0  0  0  0  0  0  0  0  1 V2000
  151.4991  137.2542  153.9305 N   0  0  0  0  0  0  0  0  0  0  0  0
  151.5217  137.5095  155.2458 C   0  0  0  0  0  0  0  0  0  0  0  0
  151.5963  136.4640  156.1029 N   0  0  0  0  0  0  0  0  0  0  0  0
  151.6235  136.6918  157.4206 C   0  0  0  0  0  0  0  0  0  0  0  0
  151.5853  137.8598  158.0683 N   0  0  0  0  0  0  0  0  0  0  0  0
  151.5081  138.9099  157.1995 C   0  0  0  0  0  0  0  0  0  0  0  0
  151.4734  138.8212  155.7812 C   0  0  0  0  0  0  0  0  0  0  0  0
  151.3995  140.0941  155.2300 N   0  0  0  0  0  0  0  0  0  0  0  0
  151.3928  140.8869  156.2690 C   0  0  0  0  0  0  0  0  0  0  0  0
  151.4559  140.2541  157.4926 N   0  0  0  0  0  0  0  0  0  0  0  0
  151.4795  140.8510  158.8626 C   0  0  2  0  0  0  0  0  0  0  0  0
  151.4097  142.2316  158.7364 O   0  0  0  0  0  0  0  0  0  0  0  0
  151.9410  142.7981  159.9232 C   0  0  2  0  0  0  0  0  0  0  0  0
  152.2929  144.2747  159.6883 C   0  0  0  0  0  0  0  0  0  0  0  0
  152.8718  144.4370  158.4112 O   0  0  0  0  0  0  0  0  0  0  0  0
  153.1643  141.9128  160.2034 C   0  0  1  0  0  0  0  0  0  0  0  0
  153.3920  141.8267  161.5958 O   0  0  0  0  0  0  0  0  0  0  0  0
  152.7791  140.5453  159.6358 C   0  0  2  0  0  0  0  0  0  0  0  0
  153.8224  140.0233  158.8311 O   0  0  0  0  0  0  0  0  0  0  0  0
  150.5832  140.4766  159.3608 H   0  0  0  0  0  0  0  0  0  0  0  0
  151.2076  142.6896  160.7259 H   0  0  0  0  0  0  0  0  0  0  0  0
  154.0472  142.3113  159.7006 H   0  0  0  0  0  0  0  0  0  0  0  0
  152.5433  139.8222  160.4182 H   0  0  0  0  0  0  0  0  0  0  0  0
  151.4453  138.0173  153.2713 H   0  0  0  0  0  0  0  0  0  0  0  0
  151.5375  136.3003  153.6017 H   0  0  0  0  0  0  0  0  0  0  0  0
  151.6853  135.8129  158.0452 H   0  0  0  0  0  0  0  0  0  0  0  0
  151.3457  141.9616  156.1689 H   0  0  0  0  0  0  0  0  0  0  0  0
  151.3890  144.8837  159.7167 H   0  0  0  0  0  0  0  0  0  0  0  0
  152.9633  144.6515  160.4614 H   0  0  0  0  0  0  0  0  0  0  0  0
  153.7611  144.1185  158.4413 H   0  0  0  0  0  0  0  0  0  0  0  0
  154.1466  142.3548  161.8087 H   0  0  0  0  0  0  0  0  0  0  0  0
  154.3177  139.4062  159.3477 H   0  0  0  0  0  0  0  0  0  0  0  0
  1  2  1  0  0  0  0
  1 24  1  0  0  0  0
  1 25  1  0  0  0  0
  2  7  1  0  0  0  0
  2  3  2  0  0  0  0
  3  4  1  0  0  0  0
  4  5  2  0  0  0  0
  4 26  1  0  0  0  0
  5  6  1  0  0  0  0
  6 10  1  0  0  0  0
  6  7  2  0  0  0  0
  7  8  1  0  0  0  0
  8  9  2  0  0  0  0
  9 10  1  0  0  0  0
  9 27  1  0  0  0  0
 10 11  1  0  0  0  0
 11 20  1  0  0  0  0
 11 18  1  0  0  0  0
 11 12  1  0  0  0  0
 12 13  1  0  0  0  0
 13 21  1  0  0  0  0
 13 14  1  0  0  0  0
 13 16  1  0  0  0  0
 14 15  1  0  0  0  0
 14 28  1  0  0  0  0
 14 29  1  0  0  0  0
 15 30  1  0  0  0  0
 16 22  1  0  0  0  0
 16 17  1  0  0  0  0
 16 18  1  0  0  0  0
 17 31  1  0  0  0  0
 18 23  1  0  0  0  0
 18 19  1  0  0  0  0
 19 32  1  0  0  0  0
M  END
> <s_m_source_file>
AV-unprocessed.smi

> <i_m_source_file_index>
69

> <i_lp_mmshare_version>
43012

> <i_f3d_flags>
0

> <s_epik_input>
bjFbY0hdbmMoW05IMl0pYyhjMTIpbltjSF1uMltDQEBIXTNPW0NASF0oW0NIMl1bT0hdKVtDQEBIXShbT0hdKVtDQEhdM1tPSF0=

> <s_epik_cmdline>
J2VwaWtfcHl0aG9uJywgJy1waCcsICc3LjAnLCAnLXRuJywgJzgnLCAnLW1hJywgJzIwMCcsICctbWV0YWxfYmluZGluZycsICctaW1hZScsICc8aW5maWxlLm1hZT4nLCAnLW9tYWUnLCAnPG91dGZpbGUubWFlPic=

> <r_lp_tautomer_probability>
1

> <r_epik_Ionization_Penalty>
0.000428445

> <r_epik_Ionization_Penalty_Charging>
0

> <r_epik_Ionization_Penalty_Neutral>
0.000428445

> <r_epik_State_Penalty>
-0

> <r_epik_Charging_Adjusted_Penalty>
0

> <i_epik_Tot_Q>
0

> <i_epik_Tot_abs_Q>
0

> <r_epik_Metal_State_Penalty>
-0

> <b_epik_Metal_Only>
0

> <s_epik_Chemistry_Notes>
This compound contains an acetal/aminal-like group ( X-CH(R)-Y where X, Y are N, S, or O) that may be acid/base labile, releasing an aldehyde.

> <s_lp_Force_Field>
OPLS_2005

> <r_lp_Energy>
36.244

> <b_lp_Chiralities_Consistent>
1

> <s_lp_Variant>
AV-unprocessed.smi:69-9

> <Gold.Version>
5.8.1

> <Gold.Id.Protein>
6NUR|6NUR_protein|mol2

> <Gold.PLP.Fitness>
42.3749

> <Gold.PLP.PLP>
-32.1480

> <Gold.PLP.part.hbond>
-4.2894

> <Gold.PLP.part.metal>
0.0000

> <Gold.PLP.part.buried>
-5.7385

> <Gold.PLP.part.nonpolar>
-22.7885

> <Gold.PLP.part.repulsive>
0.2215

> <Gold.PLP.ligand.clash>
0.0000

> <Gold.PLP.ligand.torsion>
0.1492

> <Gold.PLP.Chemscore.Hbond>
3.5040

> <Gold.PLP.Chemscore.CHOScore>
0.0000

> <Gold.PLP.Chemscore.Metal>
0.0000

> <Gold.Chemscore.Hbonds>
donor molecule, donor type, donor heavy atom, donor atom, acceptor molecule, acceptor atom, score
      L1  H     1    25       P1  7949  0.24
      P1  H  7989  7998       L1     8  1.00
      P1  H  7997  8008       L1    19  0.99
      P1  H 10752 10765       L1     3  0.50

> <Gold.PLP.Chemscore.Internal.Correction>
0.0132

> <Gold.Rescore>
     Score         DG    S(hbond)    S(metal)    S(lipo)     H(rot)  DE(clash)    DE(int)     intcor
      7.53      -8.52       2.46        0.00      43.98       4.03       0.31       0.69       ----

> <Gold.Chemscore.Fitness>
7.5289

> <Gold.Chemscore.DG>
-8.5238

> <Gold.Chemscore.ZeroCoef>
-5.4800

> <Gold.Chemscore.Hbond>
2.4578

> <Gold.Chemscore.Metal>
0.0000

> <Gold.Chemscore.Lipo>
43.9819

> <Gold.Chemscore.Internal_Hbond>
0.0000

> <Gold.Chemscore.DEClash>
0.3071

> <Gold.Chemscore.DEInternal>
0.6878

> <Gold.Chemscore.Rot>
4.0277

> <Gold.Chemscore.Internal.Correction>
   9.000000E+99

> <Gold.Chemscore.Hbonds>
donor molecule, donor type, donor heavy atom, donor atom, acceptor molecule, acceptor atom, score
      L1  H     1    25       P1  7949  0.19
      P1  H  7989  7998       L1     8  0.93
      P1  H  7997  8008       L1    19  0.42
      P1  H 10752 10765       L1     3  0.03

> <Gold.Chemscore.Hbond.Weighted>
-8.2089

> <Gold.Chemscore.Metal.Weighted>
-0.0000

> <Gold.Chemscore.Lipo.Weighted>
-5.1459

> <Gold.Chemscore.Internal_Hbond.Weighted>
0.0000

> <Gold.Chemscore.DEClash.Weighted>
0.3071

> <Gold.Chemscore.DEInternal.Weighted>
0.6878

> <Gold.Chemscore.Rot.Weighted>
10.3110

> <Gold.Chemscore.Internal.Correction.Weighted>
   9.000000E+99

> <Gold.Protein.RotatedTorsions>
[ 6907 6896 6895 6894 ] final -164.40 input  -60.11 | X-H torsion
[ 7974 7965 7964 7962 ] final  -21.84 input  175.53 | X-H torsion
[ 8008 7997 7996 7995 ] final  -93.74 input   59.86 | X-H torsion
[ 10167 10162 10161 10158 ] final  -28.19 input  -65.29 | X-H torsion
[ 10718 10713 10712 10709 ] final  -33.65 input   66.30 | X-H torsion
[ 10763 10752 10751 10750 ] final -158.28 input  -60.55 | X-H torsion
[ 11005 11000 10999 10996 ] final  107.32 input  -57.11 | X-H torsion

> <Gold.Protein.ActiveResidues>
 VAL166  LYS551  ARG553  GLY616  TRP617  ASP618  TYR619  PRO620  LYS621  CYS622 
 ASP623  PHE694  ASN695  SER759  ASP760  ASP761  ALA762  ILE779  LEU786  VAL792 
 PHE793  MET794  SER795  GLU796  ALA797  LYS798  CYS799  TRP800  GLU811  SER814 

> <Gold.Protein.RotatedAtoms>
  151.4112  133.3727  159.2743 H   0  0  0  0  0  0  0  0  0  0  0  0  # atno 6907 bound_to 6896
  150.9361  134.8775  159.7593 H   0  0  0  0  0  0  0  0  0  0  0  0  # atno 6908 bound_to 6896
  152.5050  134.4060  159.9484 H   0  0  0  0  0  0  0  0  0  0  0  0  # atno 6909 bound_to 6896
  146.1710  140.4397  142.8532 H   0  0  0  0  0  0  0  0  0  0  0  0  # atno 7974 bound_to 7965
  154.7395  140.0496  157.0798 H   0  0  0  0  0  0  0  0  0  0  0  0  # atno 8008 bound_to 7997
  155.0197  140.3145  155.4779 H   0  0  0  0  0  0  0  0  0  0  0  0  # atno 8009 bound_to 7997
  156.2861  140.2169  156.5314 H   0  0  0  0  0  0  0  0  0  0  0  0  # atno 8010 bound_to 7997
  140.7272  143.4030  151.1232 H   0  0  0  0  0  0  0  0  0  0  0  0  # atno 10167 bound_to 10162
  156.3601  130.4322  149.7631 H   0  0  0  0  0  0  0  0  0  0  0  0  # atno 10718 bound_to 10713
  154.7569  135.3107  154.8452 H   0  0  0  0  0  0  0  0  0  0  0  0  # atno 10763 bound_to 10752
  153.9223  135.6794  153.4751 H   0  0  0  0  0  0  0  0  0  0  0  0  # atno 10764 bound_to 10752
  153.1167  135.4841  154.9058 H   0  0  0  0  0  0  0  0  0  0  0  0  # atno 10765 bound_to 10752
  139.8826  134.9397  156.5801 H   0  0  0  0  0  0  0  0  0  0  0  0  # atno 11005 bound_to 11000
  144.8163  140.6473  143.6382 LP  0  0  0  0  0  0  0  0  0  0  0  0  # atno 17320 bound_to 7965
  145.4341  139.1545  143.4006 LP  0  0  0  0  0  0  0  0  0  0  0  0  # atno 17321 bound_to 7965
  139.7653  143.8574  152.3109 LP  0  0  0  0  0  0  0  0  0  0  0  0  # atno 17342 bound_to 10162
  139.8474  144.7181  150.9255 LP  0  0  0  0  0  0  0  0  0  0  0  0  # atno 17343 bound_to 10162
  156.4798  130.8036  151.3050 LP  0  0  0  0  0  0  0  0  0  0  0  0  # atno 17370 bound_to 10713
  157.7472  131.0009  150.2944 LP  0  0  0  0  0  0  0  0  0  0  0  0  # atno 17371 bound_to 10713
  140.8033  133.8488  155.8746 LP  0  0  0  0  0  0  0  0  0  0  0  0  # atno 17394 bound_to 11000
  140.9573  134.1702  157.4682 LP  0  0  0  0  0  0  0  0  0  0  0  0  # atno 17395 bound_to 11000

$$$$
