AV-unprocessed.smi:786|AV-procd|sdf|3724|dock4
  -GOLD-   22720 1153D 1   1.00000     0.00000
 Structure written by MMmdl.
 39 40  0  0  0  0  0  0  0  0  3 V2000
  149.7387  134.6854  157.6931 O   0  0  0  0  0  0  0  0  0  0  0  0
  150.7553  134.3815  156.6737 S   0  0  0  0  0  0  0  0  0  0  0  0
  151.9841  133.7210  157.1427 O   0  0  0  0  0  0  0  0  0  0  0  0
  149.9816  133.1917  155.4824 C   0  0  0  0  0  0  0  0  0  0  0  0
  150.2993  131.6969  155.7319 C   0  0  0  0  0  0  0  0  0  0  0  0
  151.7981  131.3421  155.7106 C   0  0  0  0  0  0  0  0  0  0  0  0
  152.0120  129.8247  155.8408 C   0  0  0  0  0  0  0  0  0  0  0  0
  151.3039  129.1344  154.8182 O   0  0  0  0  0  0  0  0  0  0  0  0
  149.8978  129.3328  154.8979 C   0  0  0  0  0  0  0  0  0  0  0  0
  149.5708  130.8209  154.6978 C   0  0  0  0  0  0  0  0  0  0  0  0
  151.0760  135.6415  155.7014 N   0  5  0  0  0  0  0  0  0  0  0  0
  150.0696  136.6675  155.4597 C   0  0  0  0  0  0  0  0  0  0  0  0
  150.6040  137.8136  154.5667 C   0  0  0  0  0  0  0  0  0  0  0  0
  149.6674  139.0083  154.4168 C   0  0  0  0  0  0  0  0  0  0  0  0
  149.9895  140.2864  154.9276 C   0  0  0  0  0  0  0  0  0  0  0  0
  149.0806  141.3506  154.7520 C   0  0  0  0  0  0  0  0  0  0  0  0
  147.8703  141.1199  154.0660 C   0  0  0  0  0  0  0  0  0  0  0  0
  147.5993  139.8282  153.5709 C   0  0  0  0  0  0  0  0  0  0  0  0
  148.4952  138.8356  153.7592 N   0  3  0  0  0  0  0  0  0  0  0  0
  148.9043  133.3500  155.5314 H   0  0  0  0  0  0  0  0  0  0  0  0
  150.2983  133.4854  154.4817 H   0  0  0  0  0  0  0  0  0  0  0  0
  149.9098  131.4264  156.7139 H   0  0  0  0  0  0  0  0  0  0  0  0
  152.2523  131.6994  154.7857 H   0  0  0  0  0  0  0  0  0  0  0  0
  152.3224  131.8277  156.5318 H   0  0  0  0  0  0  0  0  0  0  0  0
  153.0727  129.5890  155.7541 H   0  0  0  0  0  0  0  0  0  0  0  0
  151.6888  129.4716  156.8213 H   0  0  0  0  0  0  0  0  0  0  0  0
  149.4137  128.7363  154.1246 H   0  0  0  0  0  0  0  0  0  0  0  0
  149.5210  128.9760  155.8579 H   0  0  0  0  0  0  0  0  0  0  0  0
  148.4932  130.9728  154.7678 H   0  0  0  0  0  0  0  0  0  0  0  0
  149.8624  131.1195  153.6899 H   0  0  0  0  0  0  0  0  0  0  0  0
  149.1900  136.2398  154.9777 H   0  0  0  0  0  0  0  0  0  0  0  0
  149.7048  137.0929  156.3948 H   0  0  0  0  0  0  0  0  0  0  0  0
  151.5425  138.1743  154.9887 H   0  0  0  0  0  0  0  0  0  0  0  0
  150.8627  137.4359  153.5771 H   0  0  0  0  0  0  0  0  0  0  0  0
  150.9197  140.4480  155.4525 H   0  0  0  0  0  0  0  0  0  0  0  0
  149.3094  142.3324  155.1398 H   0  0  0  0  0  0  0  0  0  0  0  0
  147.1605  141.9212  153.9227 H   0  0  0  0  0  0  0  0  0  0  0  0
  146.7002  139.5591  153.0364 H   0  0  0  0  0  0  0  0  0  0  0  0
  148.2766  137.9044  153.4001 H   0  0  0  0  0  0  0  0  0  0  0  0
  1  2  2  0  0  0  0
  2  3  2  0  0  0  0
  2  4  1  0  0  0  0
  2 11  1  0  0  0  0
  4  5  1  0  0  0  0
  4 20  1  0  0  0  0
  4 21  1  0  0  0  0
  5 10  1  0  0  0  0
  5  6  1  0  0  0  0
  5 22  1  0  0  0  0
  6  7  1  0  0  0  0
  6 23  1  0  0  0  0
  6 24  1  0  0  0  0
  7  8  1  0  0  0  0
  7 25  1  0  0  0  0
  7 26  1  0  0  0  0
  8  9  1  0  0  0  0
  9 10  1  0  0  0  0
  9 27  1  0  0  0  0
  9 28  1  0  0  0  0
 10 29  1  0  0  0  0
 10 30  1  0  0  0  0
 11 12  1  0  0  0  0
 12 13  1  0  0  0  0
 12 31  1  0  0  0  0
 12 32  1  0  0  0  0
 13 14  1  0  0  0  0
 13 33  1  0  0  0  0
 13 34  1  0  0  0  0
 14 19  1  0  0  0  0
 14 15  2  0  0  0  0
 15 16  1  0  0  0  0
 15 35  1  0  0  0  0
 16 17  2  0  0  0  0
 16 36  1  0  0  0  0
 17 18  1  0  0  0  0
 17 37  1  0  0  0  0
 18 19  2  0  0  0  0
 18 38  1  0  0  0  0
 19 39  1  0  0  0  0
M  CHG  1  11  -1
M  CHG  1  19   1
M  END
> <s_m_source_file>
AV-unprocessed.smi

> <i_m_source_file_index>
786

> <i_lp_mmshare_version>
43012

> <i_f3d_flags>
0

> <s_epik_input>
W0NIMl0xW0NIMl1PW0NIMl1bQ0gyXVtDSF0xW0NIMl1TKD1PKSg9TylbTkhdW0NIMl1bQ0gyXWMyW2NIXVtjSF1bY0hdW2NIXW4y

> <s_epik_cmdline>
J2VwaWtfcHl0aG9uJywgJy1waCcsICc3LjAnLCAnLXRuJywgJzgnLCAnLW1hJywgJzIwMCcsICctbWV0YWxfYmluZGluZycsICctaW1hZScsICc8aW5maWxlLm1hZT4nLCAnLW9tYWUnLCAnPG91dGZpbGUubWFlPic=

> <r_epik_Ionization_Penalty>
7.39271

> <r_epik_Ionization_Penalty_Charging>
7.39271

> <r_epik_Ionization_Penalty_Neutral>
5.66014e-11

> <r_epik_State_Penalty>
8.23716

> <r_epik_Charging_Adjusted_Penalty>
15.6299

> <i_epik_Tot_Q>
0

> <i_epik_Tot_abs_Q>
2

> <r_epik_Metal_State_Penalty>
4.19267

> <b_epik_Metal_Only>
1

> <s_lp_Force_Field>
OPLS_2005

> <r_lp_Energy>
3.22126

> <b_lp_Chiralities_Consistent>
1

> <s_lp_Variant>
AV-unprocessed.smi:786-4

> <Gold.Version>
5.8.1

> <Gold.Id.Protein>
6NUR|6NUR_protein|mol2

> <Gold.PLP.Fitness>
48.2153

> <Gold.PLP.PLP>
-34.4605

> <Gold.PLP.part.hbond>
-5.0000

> <Gold.PLP.part.metal>
0.0000

> <Gold.PLP.part.buried>
-0.6048

> <Gold.PLP.part.nonpolar>
-29.0342

> <Gold.PLP.part.repulsive>
0.2204

> <Gold.PLP.ligand.clash>
0.0000

> <Gold.PLP.ligand.torsion>
1.0687

> <Gold.PLP.Chemscore.Hbond>
4.9438

> <Gold.PLP.Chemscore.CHOScore>
0.0000

> <Gold.PLP.Chemscore.Metal>
0.0000

> <Gold.Chemscore.Hbonds>
donor molecule, donor type, donor heavy atom, donor atom, acceptor molecule, acceptor atom, score
      L1  H    19    39       P1  7948  0.31
      P1  H  6896  6907       L1     1  0.98
      P1  H  6896  6909       L1     3  0.02
      P1  H 10752 10763       L1    11  1.40

> <Gold.PLP.Chemscore.Internal.Correction>
1.0608

> <Gold.Rescore>
     Score         DG    S(hbond)    S(metal)    S(lipo)     H(rot)  DE(clash)    DE(int)     intcor
     15.73     -18.31       2.47        0.00      75.95       1.68       0.17       2.41       ----

> <Gold.Chemscore.Fitness>
15.7265

> <Gold.Chemscore.DG>
-18.3106

> <Gold.Chemscore.ZeroCoef>
-5.4800

> <Gold.Chemscore.Hbond>
2.4706

> <Gold.Chemscore.Metal>
0.0000

> <Gold.Chemscore.Lipo>
75.9478

> <Gold.Chemscore.Internal_Hbond>
0.0000

> <Gold.Chemscore.DEClash>
0.1733

> <Gold.Chemscore.DEInternal>
2.4107

> <Gold.Chemscore.Rot>
1.6824

> <Gold.Chemscore.Internal.Correction>
   9.000000E+99

> <Gold.Chemscore.Hbonds>
donor molecule, donor type, donor heavy atom, donor atom, acceptor molecule, acceptor atom, score
      L1  H    19    39       P1  7948  0.16
      P1  H  6896  6907       L1     1  0.23
      P1  H  6896  6909       L1     3  0.03
      P1  H 10752 10763       L1    11  0.61

> <Gold.Chemscore.Hbond.Weighted>
-8.2517

> <Gold.Chemscore.Metal.Weighted>
-0.0000

> <Gold.Chemscore.Lipo.Weighted>
-8.8859

> <Gold.Chemscore.Internal_Hbond.Weighted>
0.0000

> <Gold.Chemscore.DEClash.Weighted>
0.1733

> <Gold.Chemscore.DEInternal.Weighted>
2.4107

> <Gold.Chemscore.Rot.Weighted>
4.3070

> <Gold.Chemscore.Internal.Correction.Weighted>
   9.000000E+99

> <Gold.Protein.RotatedTorsions>
[ 6907 6896 6895 6894 ] final -101.48 input  -60.11 | X-H torsion
[ 7974 7965 7964 7962 ] final  154.34 input  175.53 | X-H torsion
[ 8008 7997 7996 7995 ] final -125.09 input   59.86 | X-H torsion
[ 10167 10162 10161 10158 ] final  157.62 input  -65.29 | X-H torsion
[ 10718 10713 10712 10709 ] final  137.17 input   66.30 | X-H torsion
[ 10763 10752 10751 10750 ] final   59.50 input  -60.55 | X-H torsion
[ 11005 11000 10999 10996 ] final -100.74 input  -57.11 | X-H torsion

> <Gold.Protein.ActiveResidues>
 VAL166  LYS551  ARG553  GLY616  TRP617  ASP618  TYR619  PRO620  LYS621  CYS622 
 ASP623  PHE694  ASN695  SER759  ASP760  ASP761  ALA762  ILE779  LEU786  VAL792 
 PHE793  MET794  SER795  GLU796  ALA797  LYS798  CYS799  TRP800  GLU811  SER814 

> <Gold.Protein.RotatedAtoms>
  150.7156  134.0728  159.3870 H   0  0  0  0  0  0  0  0  0  0  0  0  # atno 6907 bound_to 6896
  151.8710  135.0487  160.0488 H   0  0  0  0  0  0  0  0  0  0  0  0  # atno 6908 bound_to 6896
  152.2643  133.5289  159.5437 H   0  0  0  0  0  0  0  0  0  0  0  0  # atno 6909 bound_to 6896
  144.8095  139.6920  143.6147 H   0  0  0  0  0  0  0  0  0  0  0  0  # atno 7974 bound_to 7965
  155.2075  140.0418  157.2928 H   0  0  0  0  0  0  0  0  0  0  0  0  # atno 8008 bound_to 7997
  154.6034  140.2458  155.7734 H   0  0  0  0  0  0  0  0  0  0  0  0  # atno 8009 bound_to 7997
  156.2335  140.2930  156.0259 H   0  0  0  0  0  0  0  0  0  0  0  0  # atno 8010 bound_to 7997
  139.4823  144.4900  151.8322 H   0  0  0  0  0  0  0  0  0  0  0  0  # atno 10167 bound_to 10162
  157.4389  131.1056  151.0166 H   0  0  0  0  0  0  0  0  0  0  0  0  # atno 10718 bound_to 10713
  152.9896  135.5569  154.5723 H   0  0  0  0  0  0  0  0  0  0  0  0  # atno 10763 bound_to 10752
  154.5121  135.2803  155.1336 H   0  0  0  0  0  0  0  0  0  0  0  0  # atno 10764 bound_to 10752
  154.2723  135.6360  153.5368 H   0  0  0  0  0  0  0  0  0  0  0  0  # atno 10765 bound_to 10752
  141.1259  133.8422  157.1141 H   0  0  0  0  0  0  0  0  0  0  0  0  # atno 11005 bound_to 11000
  146.2392  139.5966  142.9503 LP  0  0  0  0  0  0  0  0  0  0  0  0  # atno 17320 bound_to 7965
  145.5357  141.0424  143.2358 LP  0  0  0  0  0  0  0  0  0  0  0  0  # atno 17321 bound_to 7965
  140.4383  144.2021  150.5890 LP  0  0  0  0  0  0  0  0  0  0  0  0  # atno 17342 bound_to 10162
  140.4709  143.2413  151.9090 LP  0  0  0  0  0  0  0  0  0  0  0  0  # atno 17343 bound_to 10162
  157.1036  130.5992  149.5466 LP  0  0  0  0  0  0  0  0  0  0  0  0  # atno 17370 bound_to 10713
  155.9941  130.5004  150.7406 LP  0  0  0  0  0  0  0  0  0  0  0  0  # atno 17371 bound_to 10713
  140.0257  134.9925  157.0681 LP  0  0  0  0  0  0  0  0  0  0  0  0  # atno 17394 bound_to 11000
  140.4367  134.1724  155.7171 LP  0  0  0  0  0  0  0  0  0  0  0  0  # atno 17395 bound_to 11000

$$$$
