AV-unprocessed.smi:1033|AV-procd|sdf|4507|dock6
  -GOLD-   22720 2513D 1   1.00000     0.00000
 Structure written by MMmdl.
 57 59  0  0  0  0  0  0  0  0  3 V2000
  153.2676  142.6179  160.5935 C   0  0  0  0  0  0  0  0  0  0  0  0
  152.5022  142.3280  159.3141 C   0  0  0  0  0  0  0  0  0  0  0  0
  152.8295  141.1761  158.5639 C   0  0  0  0  0  0  0  0  0  0  0  0
  152.1448  140.8727  157.3671 C   0  0  0  0  0  0  0  0  0  0  0  0
  152.2973  139.8147  156.4877 N   0  0  0  0  0  0  0  0  0  0  0  0
  151.3763  140.0928  155.5703 C   0  0  0  0  0  0  0  0  0  0  0  0
  150.6314  141.1991  155.7605 N   0  0  0  0  0  0  0  0  0  0  0  0
  149.5659  141.6952  154.9088 C   0  0  0  0  0  0  0  0  0  0  0  0
  148.3528  140.7446  154.8633 C   0  0  1  0  0  0  0  0  0  0  0  0
  147.8328  140.6419  156.1731 O   0  0  0  0  0  0  0  0  0  0  0  0
  147.2282  141.2180  153.9162 C   0  0  0  0  0  0  0  0  0  0  0  0
  146.5536  140.0863  153.2302 N   0  3  2  0  0  0  0  0  0  0  0  0
  146.3842  138.8877  154.0915 C   0  0  0  0  0  0  0  0  0  0  0  0
  145.6054  137.7826  153.3564 C   0  0  0  0  0  0  0  0  0  0  0  0
  146.2606  137.4250  152.0740 N   0  3  1  0  0  0  0  0  0  0  0  0
  145.5845  136.2929  151.3886 C   0  0  0  0  0  0  0  0  0  0  0  0
  145.9442  134.9278  152.0076 C   0  0  2  0  0  0  0  0  0  0  0  0
  145.5134  133.7572  151.1146 C   0  0  0  0  0  0  0  0  0  0  0  0
  145.2885  134.7981  153.2527 O   0  0  0  0  0  0  0  0  0  0  0  0
  146.4315  138.6236  151.2131 C   0  0  0  0  0  0  0  0  0  0  0  0
  147.2099  139.7292  151.9486 C   0  0  0  0  0  0  0  0  0  0  0  0
  151.1136  141.7591  156.9387 C   0  0  0  0  0  0  0  0  0  0  0  0
  150.7796  142.9092  157.6756 C   0  0  0  0  0  0  0  0  0  0  0  0
  151.4736  143.1973  158.8694 C   0  0  0  0  0  0  0  0  0  0  0  0
  151.1062  144.4416  159.6583 C   0  0  0  0  0  0  0  0  0  0  0  0
  154.0403  141.8700  160.7739 H   0  0  0  0  0  0  0  0  0  0  0  0
  152.5935  142.6162  161.4503 H   0  0  0  0  0  0  0  0  0  0  0  0
  153.7539  143.5921  160.5359 H   0  0  0  0  0  0  0  0  0  0  0  0
  153.6142  140.5147  158.9013 H   0  0  0  0  0  0  0  0  0  0  0  0
  151.2273  139.4486  154.7159 H   0  0  0  0  0  0  0  0  0  0  0  0
  149.2656  142.6773  155.2770 H   0  0  0  0  0  0  0  0  0  0  0  0
  149.9676  141.8469  153.9056 H   0  0  0  0  0  0  0  0  0  0  0  0
  148.7025  139.7566  154.5678 H   0  0  0  0  0  0  0  0  0  0  0  0
  147.6030  141.5070  156.4778 H   0  0  0  0  0  0  0  0  0  0  0  0
  146.5020  141.7848  154.5013 H   0  0  0  0  0  0  0  0  0  0  0  0
  147.6093  141.9059  153.1603 H   0  0  0  0  0  0  0  0  0  0  0  0
  147.3643  138.5138  154.3927 H   0  0  0  0  0  0  0  0  0  0  0  0
  145.8530  139.1469  155.0066 H   0  0  0  0  0  0  0  0  0  0  0  0
  145.5430  136.9015  153.9965 H   0  0  0  0  0  0  0  0  0  0  0  0
  144.5819  138.1088  153.1637 H   0  0  0  0  0  0  0  0  0  0  0  0
  144.5022  136.4221  151.4444 H   0  0  0  0  0  0  0  0  0  0  0  0
  145.8371  136.3115  150.3272 H   0  0  0  0  0  0  0  0  0  0  0  0
  147.0175  134.8516  152.1776 H   0  0  0  0  0  0  0  0  0  0  0  0
  146.0172  133.7965  150.1483 H   0  0  0  0  0  0  0  0  0  0  0  0
  144.4386  133.7696  150.9296 H   0  0  0  0  0  0  0  0  0  0  0  0
  145.7606  132.7994  151.5742 H   0  0  0  0  0  0  0  0  0  0  0  0
  145.5767  135.4955  153.8225 H   0  0  0  0  0  0  0  0  0  0  0  0
  146.9646  138.3644  150.2990 H   0  0  0  0  0  0  0  0  0  0  0  0
  145.4521  138.9977  150.9104 H   0  0  0  0  0  0  0  0  0  0  0  0
  147.2718  140.6104  151.3085 H   0  0  0  0  0  0  0  0  0  0  0  0
  148.2334  139.4037  152.1420 H   0  0  0  0  0  0  0  0  0  0  0  0
  149.9986  143.5669  157.3238 H   0  0  0  0  0  0  0  0  0  0  0  0
  150.2792  144.9791  159.1933 H   0  0  0  0  0  0  0  0  0  0  0  0
  151.9566  145.1215  159.7152 H   0  0  0  0  0  0  0  0  0  0  0  0
  150.8048  144.1769  160.6720 H   0  0  0  0  0  0  0  0  0  0  0  0
  147.1854  137.0932  152.3106 H   0  0  0  0  0  0  0  0  0  0  0  0
  145.6281  140.4164  152.9933 H   0  0  0  0  0  0  0  0  0  0  0  0
  1  2  1  0  0  0  0
  1 26  1  0  0  0  0
  1 27  1  0  0  0  0
  1 28  1  0  0  0  0
  2 24  1  0  0  0  0
  2  3  2  0  0  0  0
  3  4  1  0  0  0  0
  3 29  1  0  0  0  0
  4 22  2  0  0  0  0
  4  5  1  0  0  0  0
  5  6  2  0  0  0  0
  6  7  1  0  0  0  0
  6 30  1  0  0  0  0
  7  8  1  0  0  0  0
  7 22  1  0  0  0  0
  8  9  1  0  0  0  0
  8 31  1  0  0  0  0
  8 32  1  0  0  0  0
  9 10  1  0  0  0  0
  9 11  1  0  0  0  0
  9 33  1  0  0  0  0
 10 34  1  0  0  0  0
 11 12  1  0  0  0  0
 11 35  1  0  0  0  0
 11 36  1  0  0  0  0
 12 21  1  0  0  0  0
 12 13  1  0  0  0  0
 12 57  1  0  0  0  0
 13 14  1  0  0  0  0
 13 37  1  0  0  0  0
 13 38  1  0  0  0  0
 14 15  1  0  0  0  0
 14 39  1  0  0  0  0
 14 40  1  0  0  0  0
 15 16  1  0  0  0  0
 15 20  1  0  0  0  0
 15 56  1  0  0  0  0
 16 17  1  0  0  0  0
 16 41  1  0  0  0  0
 16 42  1  0  0  0  0
 17 18  1  0  0  0  0
 17 19  1  0  0  0  0
 17 43  1  0  0  0  0
 18 44  1  0  0  0  0
 18 45  1  0  0  0  0
 18 46  1  0  0  0  0
 19 47  1  0  0  0  0
 20 21  1  0  0  0  0
 20 48  1  0  0  0  0
 20 49  1  0  0  0  0
 21 50  1  0  0  0  0
 21 51  1  0  0  0  0
 22 23  1  0  0  0  0
 23 24  2  0  0  0  0
 23 52  1  0  0  0  0
 24 25  1  0  0  0  0
 25 53  1  0  0  0  0
 25 54  1  0  0  0  0
 25 55  1  0  0  0  0
M  CHG  1  12   1
M  CHG  1  15   1
M  END
> <s_m_source_file>
AV-unprocessed.smi

> <i_m_source_file_index>
1033

> <i_lp_mmshare_version>
43012

> <i_f3d_flags>
0

> <s_epik_input>
W0NIM11jKFtjSF0xKWMoW0NIM10pW2NIXWMoYzEyKW4oW2NIXW4yKVtDSDJdW0NASF0oW09IXSlbQ0gyXU4zW0NIMl1bQ0gyXU4oW0NIMl1bQ0gyXTMpW0NIMl1bQ0BIXShbQ0gzXSlbT0hd

> <s_epik_cmdline>
J2VwaWtfcHl0aG9uJywgJy1waCcsICc3LjAnLCAnLXRuJywgJzgnLCAnLW1hJywgJzIwMCcsICctbWV0YWxfYmluZGluZycsICctaW1hZScsICc8aW5maWxlLm1hZT4nLCAnLW9tYWUnLCAnPG91dGZpbGUubWFlPic=

> <r_epik_Ionization_Penalty>
3.16016

> <r_epik_Ionization_Penalty_Charging>
3.07679

> <r_epik_Ionization_Penalty_Neutral>
0.083365

> <r_epik_State_Penalty>
2.09701

> <r_epik_Charging_Adjusted_Penalty>
5.1738

> <i_epik_Tot_Q>
2

> <i_epik_Tot_abs_Q>
2

> <r_epik_Metal_State_Penalty>
2.02534

> <b_epik_Metal_Only>
0

> <s_lp_Force_Field>
OPLS_2005

> <r_lp_Energy>
25.863

> <b_lp_Chiralities_Consistent>
1

> <s_lp_Variant>
AV-unprocessed.smi:1033-18

> <Gold.Version>
5.8.1

> <Gold.Id.Protein>
6NUR|6NUR_protein|mol2

> <Gold.PLP.Fitness>
58.3992

> <Gold.PLP.PLP>
-46.9237

> <Gold.PLP.part.hbond>
-2.6592

> <Gold.PLP.part.metal>
0.0000

> <Gold.PLP.part.buried>
2.2141

> <Gold.PLP.part.nonpolar>
-46.3830

> <Gold.PLP.part.repulsive>
0.0575

> <Gold.PLP.ligand.clash>
0.0000

> <Gold.PLP.ligand.torsion>
1.1081

> <Gold.PLP.Chemscore.Hbond>
4.5241

> <Gold.PLP.Chemscore.CHOScore>
0.0000

> <Gold.PLP.Chemscore.Metal>
0.0000

> <Gold.Chemscore.Hbonds>
donor molecule, donor type, donor heavy atom, donor atom, acceptor molecule, acceptor atom, score
      L1  H    12    57       P1 10175  2.00
      L1  H    15    56       P1  7948  2.00
      P1  H  7997  8010       L1     5  0.56

> <Gold.PLP.Chemscore.Internal.Correction>
0.1194

> <Gold.Rescore>
     Score         DG    S(hbond)    S(metal)    S(lipo)     H(rot)  DE(clash)    DE(int)     intcor
     16.68     -19.65       1.77        0.00     139.32       3.14       1.69       1.27       ----

> <Gold.Chemscore.Fitness>
16.6826

> <Gold.Chemscore.DG>
-19.6456

> <Gold.Chemscore.ZeroCoef>
-5.4800

> <Gold.Chemscore.Hbond>
1.7661

> <Gold.Chemscore.Metal>
0.0000

> <Gold.Chemscore.Lipo>
139.3165

> <Gold.Chemscore.Internal_Hbond>
0.0000

> <Gold.Chemscore.DEClash>
1.6945

> <Gold.Chemscore.DEInternal>
1.2684

> <Gold.Chemscore.Rot>
3.1380

> <Gold.Chemscore.Internal.Correction>
   9.000000E+99

> <Gold.Chemscore.Hbonds>
donor molecule, donor type, donor heavy atom, donor atom, acceptor molecule, acceptor atom, score
      L1  H    12    57       P1 10175  0.86
      L1  H    15    56       P1  7948  0.92
      P1  H  7997  8010       L1     5  0.04

> <Gold.Chemscore.Hbond.Weighted>
-5.8987

> <Gold.Chemscore.Metal.Weighted>
-0.0000

> <Gold.Chemscore.Lipo.Weighted>
-16.3000

> <Gold.Chemscore.Internal_Hbond.Weighted>
0.0000

> <Gold.Chemscore.DEClash.Weighted>
1.6945

> <Gold.Chemscore.DEInternal.Weighted>
1.2684

> <Gold.Chemscore.Rot.Weighted>
8.0332

> <Gold.Chemscore.Internal.Correction.Weighted>
   9.000000E+99

> <Gold.Protein.RotatedTorsions>
[ 6907 6896 6895 6894 ] final  160.87 input  -60.11 | X-H torsion
[ 7974 7965 7964 7962 ] final -129.27 input  175.53 | X-H torsion
[ 8008 7997 7996 7995 ] final   76.33 input   59.86 | X-H torsion
[ 10167 10162 10161 10158 ] final  -53.03 input  -65.29 | X-H torsion
[ 10718 10713 10712 10709 ] final  107.06 input   66.30 | X-H torsion
[ 10763 10752 10751 10750 ] final  174.27 input  -60.55 | X-H torsion
[ 11005 11000 10999 10996 ] final   63.43 input  -57.11 | X-H torsion

> <Gold.Protein.ActiveResidues>
 VAL166  LYS551  ARG553  GLY616  TRP617  ASP618  TYR619  PRO620  LYS621  CYS622 
 ASP623  PHE694  ASN695  SER759  ASP760  ASP761  ALA762  ILE779  LEU786  VAL792 
 PHE793  MET794  SER795  GLU796  ALA797  LYS798  CYS799  TRP800  GLU811  SER814 

> <Gold.Protein.RotatedAtoms>
  151.9641  133.3704  159.4045 H   0  0  0  0  0  0  0  0  0  0  0  0  # atno 6907 bound_to 6896
  150.6959  134.4210  159.5214 H   0  0  0  0  0  0  0  0  0  0  0  0  # atno 6908 bound_to 6896
  152.1903  134.8677  160.0569 H   0  0  0  0  0  0  0  0  0  0  0  0  # atno 6909 bound_to 6896
  144.9589  140.7425  143.4741 H   0  0  0  0  0  0  0  0  0  0  0  0  # atno 7974 bound_to 7965
  155.8258  140.3468  155.5542 H   0  0  0  0  0  0  0  0  0  0  0  0  # atno 8008 bound_to 7997
  155.8294  140.0925  157.1821 H   0  0  0  0  0  0  0  0  0  0  0  0  # atno 8009 bound_to 7997
  154.4004  140.1415  156.3583 H   0  0  0  0  0  0  0  0  0  0  0  0  # atno 8010 bound_to 7997
  140.6506  143.2564  151.4733 H   0  0  0  0  0  0  0  0  0  0  0  0  # atno 10167 bound_to 10162
  157.6644  131.0864  150.6099 H   0  0  0  0  0  0  0  0  0  0  0  0  # atno 10718 bound_to 10713
  154.4517  135.2765  155.1777 H   0  0  0  0  0  0  0  0  0  0  0  0  # atno 10763 bound_to 10752
  154.3601  135.6131  153.5690 H   0  0  0  0  0  0  0  0  0  0  0  0  # atno 10764 bound_to 10752
  152.9847  135.5832  154.4862 H   0  0  0  0  0  0  0  0  0  0  0  0  # atno 10765 bound_to 10752
  140.0025  134.6420  155.9908 H   0  0  0  0  0  0  0  0  0  0  0  0  # atno 11005 bound_to 11000
  145.2730  139.1947  143.4831 LP  0  0  0  0  0  0  0  0  0  0  0  0  # atno 17320 bound_to 7965
  146.3346  140.2680  142.8604 LP  0  0  0  0  0  0  0  0  0  0  0  0  # atno 17321 bound_to 7965
  139.5721  144.1903  152.1852 LP  0  0  0  0  0  0  0  0  0  0  0  0  # atno 17342 bound_to 10162
  140.1203  144.5379  150.6867 LP  0  0  0  0  0  0  0  0  0  0  0  0  # atno 17343 bound_to 10162
  156.6400  130.4456  149.5755 LP  0  0  0  0  0  0  0  0  0  0  0  0  # atno 17370 bound_to 10713
  156.2216  130.6740  151.1374 LP  0  0  0  0  0  0  0  0  0  0  0  0  # atno 17371 bound_to 10713
  141.1652  133.6537  156.4456 LP  0  0  0  0  0  0  0  0  0  0  0  0  # atno 17394 bound_to 11000
  140.4702  134.6760  157.5125 LP  0  0  0  0  0  0  0  0  0  0  0  0  # atno 17395 bound_to 11000

$$$$
