AV-unprocessed.smi:2445|AV-procd|sdf|9634|dock9
  -GOLD-   2272013263D 1   1.00000     0.00000
 Structure written by MMmdl.
 40 41  0  0  0  0  0  0  0  0  1 V2000
  152.2671  142.0842  159.0296 C   0  0  0  0  0  0  0  0  0  0  0  0
  151.7138  141.5290  157.7612 C   0  0  0  0  0  0  0  0  0  0  0  0
  151.1280  142.2171  156.7278 C   0  0  0  0  0  0  0  0  0  0  0  0
  150.7095  141.4029  155.6733 N   0  0  0  0  0  0  0  0  0  0  0  0
  150.9686  140.1102  155.8907 C   0  0  0  0  0  0  0  0  0  0  0  0
  150.6282  139.0192  154.9244 C   0  0  1  0  0  0  0  0  0  0  0  0
  151.8891  138.2959  154.4200 C   0  0  0  0  0  0  0  0  0  0  0  0
  149.5415  138.0798  155.4913 C   0  0  0  0  0  0  0  0  0  0  0  0
  149.3739  136.8658  154.6988 N   0  0  0  0  0  0  0  0  0  0  0  0
  149.2096  135.6356  155.2032 C   0  0  0  0  0  0  0  0  0  0  0  0
  149.1963  135.3799  156.4074 O   0  0  0  0  0  0  0  0  0  0  0  0
  149.0496  134.7212  154.2373 N   0  0  0  0  0  0  0  0  0  0  0  0
  148.8113  133.2989  154.4616 C   0  0  2  0  0  0  0  0  0  0  0  0
  150.0378  132.6078  155.0204 C   0  0  0  0  0  0  0  0  0  0  0  0
  149.8107  131.1566  154.6065 C   0  0  0  0  0  0  0  0  0  0  0  0
  149.0140  131.1971  153.4263 O   0  0  0  0  0  0  0  0  0  0  0  0
  148.6052  132.5327  153.1495 C   0  0  1  0  0  0  0  0  0  0  0  0
  147.1655  132.5468  152.6217 C   0  0  0  0  0  0  0  0  0  0  0  0
  151.7587  139.8160  157.4359 S   0  0  0  0  0  0  0  0  0  0  0  0
  152.1537  143.1681  159.0670 H   0  0  0  0  0  0  0  0  0  0  0  0
  153.3285  141.8534  159.1219 H   0  0  0  0  0  0  0  0  0  0  0  0
  151.7524  141.6621  159.8928 H   0  0  0  0  0  0  0  0  0  0  0  0
  150.9690  143.2832  156.6594 H   0  0  0  0  0  0  0  0  0  0  0  0
  150.1953  139.5160  154.0552 H   0  0  0  0  0  0  0  0  0  0  0  0
  152.5999  139.0041  153.9934 H   0  0  0  0  0  0  0  0  0  0  0  0
  151.6516  137.5682  153.6439 H   0  0  0  0  0  0  0  0  0  0  0  0
  152.3919  137.7665  155.2298 H   0  0  0  0  0  0  0  0  0  0  0  0
  149.8003  137.7813  156.5076 H   0  0  0  0  0  0  0  0  0  0  0  0
  148.5867  138.6042  155.5592 H   0  0  0  0  0  0  0  0  0  0  0  0
  149.3701  136.9749  153.6952 H   0  0  0  0  0  0  0  0  0  0  0  0
  149.0761  135.0324  153.2772 H   0  0  0  0  0  0  0  0  0  0  0  0
  147.9709  133.1326  155.1388 H   0  0  0  0  0  0  0  0  0  0  0  0
  150.9424  132.9868  154.5420 H   0  0  0  0  0  0  0  0  0  0  0  0
  150.1464  132.7301  156.0983 H   0  0  0  0  0  0  0  0  0  0  0  0
  150.7467  130.6243  154.4363 H   0  0  0  0  0  0  0  0  0  0  0  0
  149.2547  130.6233  155.3785 H   0  0  0  0  0  0  0  0  0  0  0  0
  149.2804  132.9225  152.3855 H   0  0  0  0  0  0  0  0  0  0  0  0
  146.8439  133.5600  152.3808 H   0  0  0  0  0  0  0  0  0  0  0  0
  146.4714  132.1403  153.3574 H   0  0  0  0  0  0  0  0  0  0  0  0
  147.0788  131.9484  151.7146 H   0  0  0  0  0  0  0  0  0  0  0  0
  1  2  1  0  0  0  0
  1 20  1  0  0  0  0
  1 21  1  0  0  0  0
  1 22  1  0  0  0  0
  2 19  1  0  0  0  0
  2  3  2  0  0  0  0
  3  4  1  0  0  0  0
  3 23  1  0  0  0  0
  4  5  2  0  0  0  0
  5  6  1  0  0  0  0
  5 19  1  0  0  0  0
  6  7  1  0  0  0  0
  6  8  1  0  0  0  0
  6 24  1  0  0  0  0
  7 25  1  0  0  0  0
  7 26  1  0  0  0  0
  7 27  1  0  0  0  0
  8  9  1  0  0  0  0
  8 28  1  0  0  0  0
  8 29  1  0  0  0  0
  9 10  1  0  0  0  0
  9 30  1  0  0  0  0
 10 11  2  0  0  0  0
 10 12  1  0  0  0  0
 12 13  1  0  0  0  0
 12 31  1  0  0  0  0
 13 17  1  0  0  0  0
 13 14  1  0  0  0  0
 13 32  1  0  0  0  0
 14 15  1  0  0  0  0
 14 33  1  0  0  0  0
 14 34  1  0  0  0  0
 15 16  1  0  0  0  0
 15 35  1  0  0  0  0
 15 36  1  0  0  0  0
 16 17  1  0  0  0  0
 17 18  1  0  0  0  0
 17 37  1  0  0  0  0
 18 38  1  0  0  0  0
 18 39  1  0  0  0  0
 18 40  1  0  0  0  0
M  END
> <s_m_source_file>
AV-unprocessed.smi

> <i_m_source_file_index>
2445

> <i_lp_mmshare_version>
43012

> <i_f3d_flags>
0

> <s_epik_input>
W0NIM11jMVtjSF1uYyhzMSlbQ0BIXShbQ0gzXSlbQ0gyXVtOSF1DKD1PKVtOSF1bQ0BASF0yW0NIMl1bQ0gyXU9bQ0BIXTJbQ0gzXQ==

> <s_epik_cmdline>
J2VwaWtfcHl0aG9uJywgJy1waCcsICc3LjAnLCAnLXRuJywgJzgnLCAnLW1hJywgJzIwMCcsICctbWV0YWxfYmluZGluZycsICctaW1hZScsICc8aW5maWxlLm1hZT4nLCAnLW9tYWUnLCAnPG91dGZpbGUubWFlPic=

> <r_epik_Ionization_Penalty>
0.000649483

> <r_epik_Ionization_Penalty_Charging>
0

> <r_epik_Ionization_Penalty_Neutral>
0.000649483

> <r_epik_State_Penalty>
0.000379895

> <r_epik_Charging_Adjusted_Penalty>
0.000379895

> <i_epik_Tot_Q>
0

> <i_epik_Tot_abs_Q>
0

> <r_epik_Metal_State_Penalty>
-0

> <b_epik_Metal_Only>
0

> <s_lp_Force_Field>
OPLS_2005

> <r_lp_Energy>
5.33919

> <b_lp_Chiralities_Consistent>
1

> <s_lp_Variant>
AV-unprocessed.smi:2445-2

> <Gold.Version>
5.8.1

> <Gold.Id.Protein>
6NUR|6NUR_protein|mol2

> <Gold.PLP.Fitness>
41.8537

> <Gold.PLP.PLP>
-33.3929

> <Gold.PLP.part.hbond>
-2.7863

> <Gold.PLP.part.metal>
0.0000

> <Gold.PLP.part.buried>
-4.4006

> <Gold.PLP.part.nonpolar>
-27.2113

> <Gold.PLP.part.repulsive>
0.2016

> <Gold.PLP.ligand.clash>
0.0000

> <Gold.PLP.ligand.torsion>
0.3397

> <Gold.PLP.Chemscore.Hbond>
2.0032

> <Gold.PLP.Chemscore.CHOScore>
1.0000

> <Gold.PLP.Chemscore.Metal>
0.0000

> <Gold.Chemscore.Hbonds>
donor molecule, donor type, donor heavy atom, donor atom, acceptor molecule, acceptor atom, score
      L1  H     9    30       P1  7948  1.00
      L1  H    12    31       P1  7948  0.90
      P1  H  7989  7998       L1     4  0.01
      L1  C     3    23       P1  8028  0.55

> <Gold.PLP.Chemscore.Internal.Correction>
0.1305

> <Gold.Rescore>
     Score         DG    S(hbond)    S(metal)    S(lipo)     H(rot)  DE(clash)    DE(int)     intcor
     16.33     -16.74       1.85        0.00      76.97       1.53       0.01       0.40       ----

> <Gold.Chemscore.Fitness>
16.3265

> <Gold.Chemscore.DG>
-16.7393

> <Gold.Chemscore.ZeroCoef>
-5.4800

> <Gold.Chemscore.Hbond>
1.8496

> <Gold.Chemscore.Metal>
0.0000

> <Gold.Chemscore.Lipo>
76.9660

> <Gold.Chemscore.Internal_Hbond>
0.0000

> <Gold.Chemscore.DEClash>
0.0130

> <Gold.Chemscore.DEInternal>
0.3997

> <Gold.Chemscore.Rot>
1.5325

> <Gold.Chemscore.Internal.Correction>
   9.000000E+99

> <Gold.Chemscore.Hbonds>
donor molecule, donor type, donor heavy atom, donor atom, acceptor molecule, acceptor atom, score
      L1  H     9    30       P1  7948  0.87
      L1  H    12    31       P1  7948  0.18

> <Gold.Chemscore.Hbond.Weighted>
-6.1776

> <Gold.Chemscore.Metal.Weighted>
-0.0000

> <Gold.Chemscore.Lipo.Weighted>
-9.0050

> <Gold.Chemscore.Internal_Hbond.Weighted>
0.0000

> <Gold.Chemscore.DEClash.Weighted>
0.0130

> <Gold.Chemscore.DEInternal.Weighted>
0.3997

> <Gold.Chemscore.Rot.Weighted>
3.9233

> <Gold.Chemscore.Internal.Correction.Weighted>
   9.000000E+99

> <Gold.Protein.RotatedTorsions>
[ 6907 6896 6895 6894 ] final  -57.53 input  -60.11 | X-H torsion
[ 7974 7965 7964 7962 ] final   37.13 input  175.53 | X-H torsion
[ 8008 7997 7996 7995 ] final  133.35 input   59.86 | X-H torsion
[ 10167 10162 10161 10158 ] final  100.90 input  -65.29 | X-H torsion
[ 10718 10713 10712 10709 ] final  158.40 input   66.30 | X-H torsion
[ 10763 10752 10751 10750 ] final -122.91 input  -60.55 | X-H torsion
[ 11005 11000 10999 10996 ] final -111.58 input  -57.11 | X-H torsion

> <Gold.Protein.ActiveResidues>
 VAL166  LYS551  ARG553  GLY616  TRP617  ASP618  TYR619  PRO620  LYS621  CYS622 
 ASP623  PHE694  ASN695  SER759  ASP760  ASP761  ALA762  ILE779  LEU786  VAL792 
 PHE793  MET794  SER795  GLU796  ALA797  LYS798  CYS799  TRP800  GLU811  SER814 

> <Gold.Protein.RotatedAtoms>
  150.8079  134.7215  159.6660 H   0  0  0  0  0  0  0  0  0  0  0  0  # atno 6907 bound_to 6896
  152.4199  134.5971  160.0000 H   0  0  0  0  0  0  0  0  0  0  0  0  # atno 6908 bound_to 6896
  151.6190  133.3303  159.3120 H   0  0  0  0  0  0  0  0  0  0  0  0  # atno 6909 bound_to 6896
  146.1160  139.5932  142.9321 H   0  0  0  0  0  0  0  0  0  0  0  0  # atno 7974 bound_to 7965
  156.2991  140.2523  156.3239 H   0  0  0  0  0  0  0  0  0  0  0  0  # atno 8008 bound_to 7997
  154.9209  140.0401  157.2016 H   0  0  0  0  0  0  0  0  0  0  0  0  # atno 8009 bound_to 7997
  154.8312  140.2876  155.5725 H   0  0  0  0  0  0  0  0  0  0  0  0  # atno 8010 bound_to 7997
  139.7486  144.6991  151.0467 H   0  0  0  0  0  0  0  0  0  0  0  0  # atno 10167 bound_to 10162
  157.1783  131.0626  151.2145 H   0  0  0  0  0  0  0  0  0  0  0  0  # atno 10718 bound_to 10713
  154.8698  135.4116  154.2859 H   0  0  0  0  0  0  0  0  0  0  0  0  # atno 10763 bound_to 10752
  153.3743  135.7009  153.6619 H   0  0  0  0  0  0  0  0  0  0  0  0  # atno 10764 bound_to 10752
  153.5468  135.3637  155.2714 H   0  0  0  0  0  0  0  0  0  0  0  0  # atno 10765 bound_to 10752
  141.0726  133.9355  157.2455 H   0  0  0  0  0  0  0  0  0  0  0  0  # atno 11005 bound_to 11000
  145.5565  141.0408  143.2250 LP  0  0  0  0  0  0  0  0  0  0  0  0  # atno 17320 bound_to 7965
  144.7554  139.7089  143.7256 LP  0  0  0  0  0  0  0  0  0  0  0  0  # atno 17321 bound_to 7965
  140.7795  143.4837  150.9984 LP  0  0  0  0  0  0  0  0  0  0  0  0  # atno 17342 bound_to 10162
  139.8525  143.7420  152.3177 LP  0  0  0  0  0  0  0  0  0  0  0  0  # atno 17343 bound_to 10162
  157.3977  130.7316  149.6743 LP  0  0  0  0  0  0  0  0  0  0  0  0  # atno 17370 bound_to 10713
  155.9728  130.4129  150.4056 LP  0  0  0  0  0  0  0  0  0  0  0  0  # atno 17371 bound_to 10713
  139.9538  135.0170  156.9071 LP  0  0  0  0  0  0  0  0  0  0  0  0  # atno 17394 bound_to 11000
  140.5642  134.0505  155.7409 LP  0  0  0  0  0  0  0  0  0  0  0  0  # atno 17395 bound_to 11000

$$$$
