AV-unprocessed.smi:308|AV-procd|sdf|2288|dock5
  -GOLD-   2262022183D 1   1.00000     0.00000
 Structure written by MMmdl.
 50 51  0  0  0  0  0  0  0  0  2 V2000
  145.6256  135.2464  152.3492 C   0  0  0  0  0  0  0  0  0  0  0  0
  144.8371  136.4720  151.8550 C   0  0  2  0  0  0  0  0  0  0  0  0
  145.7338  137.5230  151.1765 C   0  0  0  0  0  0  0  0  0  0  0  0
  146.5837  138.3079  152.1922 C   0  0  0  0  0  0  0  0  0  0  0  0
  145.7352  138.9405  153.2352 N   0  3  2  0  0  0  0  0  0  0  0  0
  146.5257  139.8017  154.1506 C   0  0  0  0  0  0  0  0  0  0  0  0
  147.3687  140.8479  153.3957 C   0  0  0  0  0  0  0  0  0  0  0  0
  148.1986  141.6268  154.3078 N   0  0  0  0  0  0  0  0  0  0  0  0
  148.9740  141.1067  155.2700 C   0  0  0  0  0  0  0  0  0  0  0  0
  149.0729  139.8973  155.4764 O   0  0  0  0  0  0  0  0  0  0  0  0
  149.5986  142.0710  155.9674 N   0  0  0  0  0  0  0  0  0  0  0  0
  150.4875  141.9321  157.0675 C   0  0  0  0  0  0  0  0  0  0  0  0
  150.9029  140.6938  157.6085 C   0  0  0  0  0  0  0  0  0  0  0  0
  151.7986  140.6884  158.6953 C   0  0  0  0  0  0  0  0  0  0  0  0
  152.2684  141.9199  159.2156 C   0  0  0  0  0  0  0  0  0  0  0  0
  153.1640  141.9655  160.3086 N   0  0  0  0  0  0  0  0  0  0  0  0
  154.3547  141.1215  160.3077 C   0  0  0  0  0  0  0  0  0  0  0  0
  152.9484  142.9147  161.3937 C   0  0  0  0  0  0  0  0  0  0  0  0
  151.8794  143.1028  158.6798 N   0  0  0  0  0  0  0  0  0  0  0  0
  151.0213  143.1035  157.6389 C   0  0  0  0  0  0  0  0  0  0  0  0
  144.9070  137.9333  153.9508 C   0  0  0  0  0  0  0  0  0  0  0  0
  144.0187  137.1446  152.9718 C   0  0  0  0  0  0  0  0  0  0  0  0
  146.3625  135.5078  153.1080 H   0  0  0  0  0  0  0  0  0  0  0  0
  146.1570  134.7674  151.5264 H   0  0  0  0  0  0  0  0  0  0  0  0
  144.9575  134.5016  152.7823 H   0  0  0  0  0  0  0  0  0  0  0  0
  144.1341  136.1044  151.1062 H   0  0  0  0  0  0  0  0  0  0  0  0
  146.3785  137.0484  150.4360 H   0  0  0  0  0  0  0  0  0  0  0  0
  145.1063  138.2242  150.6244 H   0  0  0  0  0  0  0  0  0  0  0  0
  147.3193  137.6548  152.6639 H   0  0  0  0  0  0  0  0  0  0  0  0
  147.1445  139.0775  151.6603 H   0  0  0  0  0  0  0  0  0  0  0  0
  145.8565  140.2766  154.8699 H   0  0  0  0  0  0  0  0  0  0  0  0
  147.2078  139.1792  154.7314 H   0  0  0  0  0  0  0  0  0  0  0  0
  148.0258  140.3495  152.6826 H   0  0  0  0  0  0  0  0  0  0  0  0
  146.7430  141.5283  152.8175 H   0  0  0  0  0  0  0  0  0  0  0  0
  148.1695  142.6313  154.2097 H   0  0  0  0  0  0  0  0  0  0  0  0
  149.3579  143.0212  155.7260 H   0  0  0  0  0  0  0  0  0  0  0  0
  150.5667  139.7505  157.2077 H   0  0  0  0  0  0  0  0  0  0  0  0
  152.1102  139.7392  159.1040 H   0  0  0  0  0  0  0  0  0  0  0  0
  155.0061  141.3800  159.4721 H   0  0  0  0  0  0  0  0  0  0  0  0
  154.0796  140.0697  160.2212 H   0  0  0  0  0  0  0  0  0  0  0  0
  154.9270  141.2396  161.2279 H   0  0  0  0  0  0  0  0  0  0  0  0
  152.0244  142.6845  161.9246 H   0  0  0  0  0  0  0  0  0  0  0  0
  152.8869  143.9328  161.0081 H   0  0  0  0  0  0  0  0  0  0  0  0
  153.7643  142.8842  162.1159 H   0  0  0  0  0  0  0  0  0  0  0  0
  150.7475  144.0753  157.2546 H   0  0  0  0  0  0  0  0  0  0  0  0
  145.5540  137.2553  154.5090 H   0  0  0  0  0  0  0  0  0  0  0  0
  144.2663  138.4211  154.6839 H   0  0  0  0  0  0  0  0  0  0  0  0
  143.2952  137.8268  152.5232 H   0  0  0  0  0  0  0  0  0  0  0  0
  143.4346  136.3998  153.5135 H   0  0  0  0  0  0  0  0  0  0  0  0
  145.0979  139.5513  152.7443 H   0  0  0  0  0  0  0  0  0  0  0  0
  1  2  1  0  0  0  0
  1 23  1  0  0  0  0
  1 24  1  0  0  0  0
  1 25  1  0  0  0  0
  2 22  1  0  0  0  0
  2  3  1  0  0  0  0
  2 26  1  0  0  0  0
  3  4  1  0  0  0  0
  3 27  1  0  0  0  0
  3 28  1  0  0  0  0
  4  5  1  0  0  0  0
  4 29  1  0  0  0  0
  4 30  1  0  0  0  0
  5  6  1  0  0  0  0
  5 21  1  0  0  0  0
  5 50  1  0  0  0  0
  6  7  1  0  0  0  0
  6 31  1  0  0  0  0
  6 32  1  0  0  0  0
  7  8  1  0  0  0  0
  7 33  1  0  0  0  0
  7 34  1  0  0  0  0
  8  9  1  0  0  0  0
  8 35  1  0  0  0  0
  9 10  2  0  0  0  0
  9 11  1  0  0  0  0
 11 12  1  0  0  0  0
 11 36  1  0  0  0  0
 12 20  1  0  0  0  0
 12 13  2  0  0  0  0
 13 14  1  0  0  0  0
 13 37  1  0  0  0  0
 14 15  2  0  0  0  0
 14 38  1  0  0  0  0
 15 16  1  0  0  0  0
 15 19  1  0  0  0  0
 16 17  1  0  0  0  0
 16 18  1  0  0  0  0
 17 39  1  0  0  0  0
 17 40  1  0  0  0  0
 17 41  1  0  0  0  0
 18 42  1  0  0  0  0
 18 43  1  0  0  0  0
 18 44  1  0  0  0  0
 19 20  2  0  0  0  0
 20 45  1  0  0  0  0
 21 22  1  0  0  0  0
 21 46  1  0  0  0  0
 21 47  1  0  0  0  0
 22 48  1  0  0  0  0
 22 49  1  0  0  0  0
M  CHG  1   5   1
M  END
> <s_m_source_file>
AV-unprocessed.smi

> <i_m_source_file_index>
308

> <i_lp_mmshare_version>
43012

> <i_f3d_flags>
0

> <s_epik_input>
W0NIM11bQ0hdMVtDSDJdW0NIMl1OKFtDSDJdW0NIMl0xKVtDSDJdW0NIMl1bTkhdQyg9TylbTkhdYzJbY0hdW2NIXWMoTihbQ0gzXSlbQ0gzXSluW2NIXTI=

> <s_epik_cmdline>
J2VwaWtfcHl0aG9uJywgJy1waCcsICc3LjAnLCAnLXRuJywgJzgnLCAnLW1hJywgJzIwMCcsICctbWV0YWxfYmluZGluZycsICctaW1hZScsICc8aW5maWxlLm1hZT4nLCAnLW9tYWUnLCAnPG91dGZpbGUubWFlPic=

> <r_lp_tautomer_probability>
1

> <r_epik_Ionization_Penalty>
0.536661

> <r_epik_Ionization_Penalty_Charging>
0.00139388

> <r_epik_Ionization_Penalty_Neutral>
0.535267

> <r_epik_State_Penalty>
0.543381

> <r_epik_Charging_Adjusted_Penalty>
0.544775

> <i_epik_Tot_Q>
1

> <i_epik_Tot_abs_Q>
1

> <r_epik_Metal_State_Penalty>
0.284523

> <b_epik_Metal_Only>
0

> <s_lp_Force_Field>
OPLS_2005

> <r_lp_Energy>
22.9976

> <b_lp_Chiralities_Consistent>
1

> <s_lp_Variant>
AV-unprocessed.smi:308-4

> <Gold.Version>
5.8.1

> <Gold.Id.Protein>
6NUR|6NUR_protein|mol2

> <Gold.PLP.Fitness>
50.6615

> <Gold.PLP.PLP>
-40.3383

> <Gold.PLP.part.hbond>
-2.0000

> <Gold.PLP.part.metal>
0.0000

> <Gold.PLP.part.buried>
0.5838

> <Gold.PLP.part.nonpolar>
-40.1639

> <Gold.PLP.part.repulsive>
0.3508

> <Gold.PLP.ligand.clash>
0.0000

> <Gold.PLP.ligand.torsion>
0.8617

> <Gold.PLP.Chemscore.Hbond>
3.0000

> <Gold.PLP.Chemscore.CHOScore>
1.0000

> <Gold.PLP.Chemscore.Metal>
0.0000

> <Gold.Chemscore.Hbonds>
donor molecule, donor type, donor heavy atom, donor atom, acceptor molecule, acceptor atom, score
      L1  H     5    50       P1 10175  2.00
      L1  H    11    36       P1  8028  1.00
      L1  C    20    45       P1  8028  1.00

> <Gold.PLP.Chemscore.Internal.Correction>
0.0466

> <Gold.Rescore>
     Score         DG    S(hbond)    S(metal)    S(lipo)     H(rot)  DE(clash)    DE(int)     intcor
     14.98     -19.74       1.99        0.00      96.24       1.42       1.69       3.06       ----

> <Gold.Chemscore.Fitness>
14.9812

> <Gold.Chemscore.DG>
-19.7353

> <Gold.Chemscore.ZeroCoef>
-5.4800

> <Gold.Chemscore.Hbond>
1.9884

> <Gold.Chemscore.Metal>
0.0000

> <Gold.Chemscore.Lipo>
96.2352

> <Gold.Chemscore.Internal_Hbond>
0.0000

> <Gold.Chemscore.DEClash>
1.6926

> <Gold.Chemscore.DEInternal>
3.0614

> <Gold.Chemscore.Rot>
1.4241

> <Gold.Chemscore.Internal.Correction>
   9.000000E+99

> <Gold.Chemscore.Hbonds>
donor molecule, donor type, donor heavy atom, donor atom, acceptor molecule, acceptor atom, score
      L1  H     5    50       P1 10175  0.99
      L1  H    11    36       P1  8028  1.00

> <Gold.Chemscore.Hbond.Weighted>
-6.6414

> <Gold.Chemscore.Metal.Weighted>
-0.0000

> <Gold.Chemscore.Lipo.Weighted>
-11.2595

> <Gold.Chemscore.Internal_Hbond.Weighted>
0.0000

> <Gold.Chemscore.DEClash.Weighted>
1.6926

> <Gold.Chemscore.DEInternal.Weighted>
3.0614

> <Gold.Chemscore.Rot.Weighted>
3.6456

> <Gold.Chemscore.Internal.Correction.Weighted>
   9.000000E+99

> <Gold.Protein.RotatedTorsions>
[ 6907 6896 6895 6894 ] final   49.37 input  -60.11 | X-H torsion
[ 7974 7965 7964 7962 ] final  172.85 input  175.53 | X-H torsion
[ 8008 7997 7996 7995 ] final  137.46 input   59.86 | X-H torsion
[ 10167 10162 10161 10158 ] final -159.65 input  -65.29 | X-H torsion
[ 10718 10713 10712 10709 ] final -102.43 input   66.30 | X-H torsion
[ 10763 10752 10751 10750 ] final  -58.76 input  -60.55 | X-H torsion
[ 11005 11000 10999 10996 ] final   -1.67 input  -57.11 | X-H torsion

> <Gold.Protein.ActiveResidues>
 VAL166  LYS551  ARG553  GLY616  TRP617  ASP618  TYR619  PRO620  LYS621  CYS622 
 ASP623  PHE694  ASN695  SER759  ASP760  ASP761  ALA762  ILE779  LEU786  VAL792 
 PHE793  MET794  SER795  GLU796  ALA797  LYS798  CYS799  TRP800  GLU811  SER814 

> <Gold.Protein.RotatedAtoms>
  152.2900  134.7732  160.0379 H   0  0  0  0  0  0  0  0  0  0  0  0  # atno 6907 bound_to 6896
  151.8282  133.3399  159.3613 H   0  0  0  0  0  0  0  0  0  0  0  0  # atno 6908 bound_to 6896
  150.7226  134.5438  159.5804 H   0  0  0  0  0  0  0  0  0  0  0  0  # atno 6909 bound_to 6896
  144.7258  139.9560  143.6433 H   0  0  0  0  0  0  0  0  0  0  0  0  # atno 7974 bound_to 7965
  156.3002  140.2419  156.3913 H   0  0  0  0  0  0  0  0  0  0  0  0  # atno 8008 bound_to 7997
  154.8612  140.0420  157.1686 H   0  0  0  0  0  0  0  0  0  0  0  0  # atno 8009 bound_to 7997
  154.8895  140.2961  155.5383 H   0  0  0  0  0  0  0  0  0  0  0  0  # atno 8010 bound_to 7997
  139.6599  143.9932  152.2218 H   0  0  0  0  0  0  0  0  0  0  0  0  # atno 10167 bound_to 10162
  156.0228  130.5420  150.7107 H   0  0  0  0  0  0  0  0  0  0  0  0  # atno 10718 bound_to 10713
  154.2432  135.6340  153.5214 H   0  0  0  0  0  0  0  0  0  0  0  0  # atno 10763 bound_to 10752
  152.9926  135.5547  154.5888 H   0  0  0  0  0  0  0  0  0  0  0  0  # atno 10764 bound_to 10752
  154.5398  135.2894  155.1080 H   0  0  0  0  0  0  0  0  0  0  0  0  # atno 10765 bound_to 10752
  140.6498  133.9414  155.8374 H   0  0  0  0  0  0  0  0  0  0  0  0  # atno 11005 bound_to 11000
  146.0674  139.3665  143.0544 LP  0  0  0  0  0  0  0  0  0  0  0  0  # atno 17320 bound_to 7965
  145.8012  140.9770  143.0997 LP  0  0  0  0  0  0  0  0  0  0  0  0  # atno 17321 bound_to 7965
  139.9668  144.6521  150.8027 LP  0  0  0  0  0  0  0  0  0  0  0  0  # atno 17342 bound_to 10162
  140.7575  143.3088  151.2896 LP  0  0  0  0  0  0  0  0  0  0  0  0  # atno 17343 bound_to 10162
  157.4746  131.0896  151.0604 LP  0  0  0  0  0  0  0  0  0  0  0  0  # atno 17370 bound_to 10713
  157.1055  130.5999  149.5470 LP  0  0  0  0  0  0  0  0  0  0  0  0  # atno 17371 bound_to 10713
  141.0545  134.0437  157.3741 LP  0  0  0  0  0  0  0  0  0  0  0  0  # atno 17394 bound_to 11000
  139.9050  135.0176  156.7443 LP  0  0  0  0  0  0  0  0  0  0  0  0  # atno 17395 bound_to 11000

$$$$
