AV-unprocessed.smi:2599|AV-procd|sdf|10180|dock7
  -GOLD-   2272014193D 1   1.00000     0.00000
 Structure written by MMmdl.
 40 41  0  0  0  0  0  0  0  0  1 V2000
  154.7474  138.3032  158.0136 C   0  0  0  0  0  0  0  0  0  0  0  0
  154.1035  138.9129  156.9002 O   0  0  0  0  0  0  0  0  0  0  0  0
  153.1584  138.1804  156.2120 C   0  0  0  0  0  0  0  0  0  0  0  0
  152.3640  138.8254  155.2489 C   0  0  0  0  0  0  0  0  0  0  0  0
  151.4067  138.0534  154.5696 C   0  0  0  0  0  0  0  0  0  0  0  0
  151.3081  136.6765  154.8868 C   0  0  0  0  0  0  0  0  0  0  0  0
  150.3361  135.8503  154.2631 N   0  0  0  0  0  0  0  0  0  0  0  0
  149.8904  134.6434  154.6524 C   0  0  0  0  0  0  0  0  0  0  0  0
  150.2413  134.0538  155.6747 O   0  0  0  0  0  0  0  0  0  0  0  0
  148.9917  134.1576  153.7829 N   0  0  0  0  0  0  0  0  0  0  0  0
  148.3168  132.8626  153.8761 C   0  0  1  0  0  0  0  0  0  0  0  0
  147.6976  132.7431  155.2795 C   0  0  0  0  0  0  0  0  0  0  0  0
  147.2820  132.7120  152.7296 C   0  0  0  0  0  0  0  0  0  0  0  0
  146.2707  133.8758  152.6860 C   0  0  0  0  0  0  0  0  0  0  0  0
  145.2100  133.6558  151.5950 C   0  0  0  0  0  0  0  0  0  0  0  0
  144.5416  132.4186  151.8062 O   0  0  0  0  0  0  0  0  0  0  0  0
  145.4180  131.3020  151.7225 C   0  0  0  0  0  0  0  0  0  0  0  0
  146.4882  131.3906  152.8217 C   0  0  0  0  0  0  0  0  0  0  0  0
  152.1009  136.1306  155.8400 N   0  0  0  0  0  0  0  0  0  0  0  0
  153.0147  136.8599  156.4881 N   0  0  0  0  0  0  0  0  0  0  0  0
  155.4507  139.0085  158.4557 H   0  0  0  0  0  0  0  0  0  0  0  0
  155.3109  137.4189  157.7124 H   0  0  0  0  0  0  0  0  0  0  0  0
  154.0294  138.0247  158.7865 H   0  0  0  0  0  0  0  0  0  0  0  0
  152.4792  139.8792  155.0437 H   0  0  0  0  0  0  0  0  0  0  0  0
  150.7651  138.5265  153.8420 H   0  0  0  0  0  0  0  0  0  0  0  0
  149.8738  136.2584  153.4641 H   0  0  0  0  0  0  0  0  0  0  0  0
  148.7651  134.7230  152.9779 H   0  0  0  0  0  0  0  0  0  0  0  0
  149.0472  132.0584  153.7714 H   0  0  0  0  0  0  0  0  0  0  0  0
  147.2937  131.7474  155.4599 H   0  0  0  0  0  0  0  0  0  0  0  0
  146.8920  133.4639  155.4228 H   0  0  0  0  0  0  0  0  0  0  0  0
  148.4455  132.9236  156.0524 H   0  0  0  0  0  0  0  0  0  0  0  0
  147.8244  132.7067  151.7826 H   0  0  0  0  0  0  0  0  0  0  0  0
  145.7782  133.9744  153.6543 H   0  0  0  0  0  0  0  0  0  0  0  0
  146.7771  134.8213  152.4948 H   0  0  0  0  0  0  0  0  0  0  0  0
  144.4745  134.4599  151.6215 H   0  0  0  0  0  0  0  0  0  0  0  0
  145.6631  133.6725  150.6025 H   0  0  0  0  0  0  0  0  0  0  0  0
  144.8349  130.3887  151.8415 H   0  0  0  0  0  0  0  0  0  0  0  0
  145.8771  131.2584  150.7337 H   0  0  0  0  0  0  0  0  0  0  0  0
  147.1523  130.5303  152.7365 H   0  0  0  0  0  0  0  0  0  0  0  0
  146.0091  131.3167  153.7990 H   0  0  0  0  0  0  0  0  0  0  0  0
  1  2  1  0  0  0  0
  1 21  1  0  0  0  0
  1 22  1  0  0  0  0
  1 23  1  0  0  0  0
  2  3  1  0  0  0  0
  3 20  1  0  0  0  0
  3  4  2  0  0  0  0
  4  5  1  0  0  0  0
  4 24  1  0  0  0  0
  5  6  2  0  0  0  0
  5 25  1  0  0  0  0
  6  7  1  0  0  0  0
  6 19  1  0  0  0  0
  7  8  1  0  0  0  0
  7 26  1  0  0  0  0
  8  9  2  0  0  0  0
  8 10  1  0  0  0  0
 10 11  1  0  0  0  0
 10 27  1  0  0  0  0
 11 12  1  0  0  0  0
 11 13  1  0  0  0  0
 11 28  1  0  0  0  0
 12 29  1  0  0  0  0
 12 30  1  0  0  0  0
 12 31  1  0  0  0  0
 13 18  1  0  0  0  0
 13 14  1  0  0  0  0
 13 32  1  0  0  0  0
 14 15  1  0  0  0  0
 14 33  1  0  0  0  0
 14 34  1  0  0  0  0
 15 16  1  0  0  0  0
 15 35  1  0  0  0  0
 15 36  1  0  0  0  0
 16 17  1  0  0  0  0
 17 18  1  0  0  0  0
 17 37  1  0  0  0  0
 17 38  1  0  0  0  0
 18 39  1  0  0  0  0
 18 40  1  0  0  0  0
 19 20  2  0  0  0  0
M  END
> <s_m_source_file>
AV-unprocessed.smi

> <i_m_source_file_index>
2599

> <i_lp_mmshare_version>
43012

> <i_f3d_flags>
0

> <s_epik_input>
W0NIM11PYzFbY0hdW2NIXWMobm4xKVtOSF1DKD1PKVtOSF1bQ0BIXShbQ0gzXSlbQ0hdMltDSDJdW0NIMl1PW0NIMl1bQ0gyXTI=

> <s_epik_cmdline>
J2VwaWtfcHl0aG9uJywgJy1waCcsICc3LjAnLCAnLXRuJywgJzgnLCAnLW1hJywgJzIwMCcsICctbWV0YWxfYmluZGluZycsICctaW1hZScsICc8aW5maWxlLm1hZT4nLCAnLW9tYWUnLCAnPG91dGZpbGUubWFlPic=

> <r_lp_tautomer_probability>
1

> <r_epik_Ionization_Penalty>
0.00150063

> <r_epik_Ionization_Penalty_Charging>
0

> <r_epik_Ionization_Penalty_Neutral>
0.00150063

> <r_epik_State_Penalty>
-0

> <r_epik_Charging_Adjusted_Penalty>
0

> <i_epik_Tot_Q>
0

> <i_epik_Tot_abs_Q>
0

> <r_epik_Metal_State_Penalty>
-0

> <b_epik_Metal_Only>
0

> <s_lp_Force_Field>
OPLS_2005

> <r_lp_Energy>
19.9533

> <b_lp_Chiralities_Consistent>
1

> <s_lp_Variant>
AV-unprocessed.smi:2599-2

> <Gold.Version>
5.8.1

> <Gold.Id.Protein>
6NUR|6NUR_protein|mol2

> <Gold.PLP.Fitness>
39.3104

> <Gold.PLP.PLP>
-28.9061

> <Gold.PLP.part.hbond>
-4.5807

> <Gold.PLP.part.metal>
0.0000

> <Gold.PLP.part.buried>
-1.3986

> <Gold.PLP.part.nonpolar>
-22.0330

> <Gold.PLP.part.repulsive>
0.2271

> <Gold.PLP.ligand.clash>
0.0000

> <Gold.PLP.ligand.torsion>
0.2117

> <Gold.PLP.Chemscore.Hbond>
3.6003

> <Gold.PLP.Chemscore.CHOScore>
0.0000

> <Gold.PLP.Chemscore.Metal>
0.0000

> <Gold.Chemscore.Hbonds>
donor molecule, donor type, donor heavy atom, donor atom, acceptor molecule, acceptor atom, score
      L1  H     7    26       P1  7948  0.80
      L1  H    10    27       P1  7948  0.85
      P1  H  7997  8010       L1     2  0.14
      P1  H 10752 10764       L1    19  0.42

> <Gold.PLP.Chemscore.Internal.Correction>
0.0268

> <Gold.Rescore>
     Score         DG    S(hbond)    S(metal)    S(lipo)     H(rot)  DE(clash)    DE(int)     intcor
     12.84     -15.65       2.31        0.00      54.76       1.55       0.01       2.80       ----

> <Gold.Chemscore.Fitness>
12.8421

> <Gold.Chemscore.DG>
-15.6481

> <Gold.Chemscore.ZeroCoef>
-5.4800

> <Gold.Chemscore.Hbond>
2.3135

> <Gold.Chemscore.Metal>
0.0000

> <Gold.Chemscore.Lipo>
54.7592

> <Gold.Chemscore.Internal_Hbond>
0.0000

> <Gold.Chemscore.DEClash>
0.0060

> <Gold.Chemscore.DEInternal>
2.8000

> <Gold.Chemscore.Rot>
1.5492

> <Gold.Chemscore.Internal.Correction>
   9.000000E+99

> <Gold.Chemscore.Hbonds>
donor molecule, donor type, donor heavy atom, donor atom, acceptor molecule, acceptor atom, score
      L1  H     7    26       P1  7948  0.12
      L1  H    10    27       P1  7948  0.14
      P1  H  7997  8010       L1     2  0.14
      P1  H 10752 10764       L1    19  0.01

> <Gold.Chemscore.Hbond.Weighted>
-7.7272

> <Gold.Chemscore.Metal.Weighted>
-0.0000

> <Gold.Chemscore.Lipo.Weighted>
-6.4068

> <Gold.Chemscore.Internal_Hbond.Weighted>
0.0000

> <Gold.Chemscore.DEClash.Weighted>
0.0060

> <Gold.Chemscore.DEInternal.Weighted>
2.8000

> <Gold.Chemscore.Rot.Weighted>
3.9659

> <Gold.Chemscore.Internal.Correction.Weighted>
   9.000000E+99

> <Gold.Protein.RotatedTorsions>
[ 6907 6896 6895 6894 ] final -139.27 input  -60.11 | X-H torsion
[ 7974 7965 7964 7962 ] final   83.22 input  175.53 | X-H torsion
[ 8008 7997 7996 7995 ] final   65.97 input   59.86 | X-H torsion
[ 10167 10162 10161 10158 ] final  -74.78 input  -65.29 | X-H torsion
[ 10718 10713 10712 10709 ] final  -29.09 input   66.30 | X-H torsion
[ 10763 10752 10751 10750 ] final  -27.12 input  -60.55 | X-H torsion
[ 11005 11000 10999 10996 ] final   40.53 input  -57.11 | X-H torsion

> <Gold.Protein.ActiveResidues>
 VAL166  LYS551  ARG553  GLY616  TRP617  ASP618  TYR619  PRO620  LYS621  CYS622 
 ASP623  PHE694  ASN695  SER759  ASP760  ASP761  ALA762  ILE779  LEU786  VAL792 
 PHE793  MET794  SER795  GLU796  ALA797  LYS798  CYS799  TRP800  GLU811  SER814 

> <Gold.Protein.RotatedAtoms>
  151.0457  133.5668  159.2646 H   0  0  0  0  0  0  0  0  0  0  0  0  # atno 6907 bound_to 6896
  151.2698  135.0680  159.9139 H   0  0  0  0  0  0  0  0  0  0  0  0  # atno 6908 bound_to 6896
  152.5372  134.0189  159.8026 H   0  0  0  0  0  0  0  0  0  0  0  0  # atno 6909 bound_to 6896
  145.6148  139.2375  143.2172 H   0  0  0  0  0  0  0  0  0  0  0  0  # atno 7974 bound_to 7965
  155.6700  140.3497  155.4815 H   0  0  0  0  0  0  0  0  0  0  0  0  # atno 8008 bound_to 7997
  155.9696  140.1153  157.0847 H   0  0  0  0  0  0  0  0  0  0  0  0  # atno 8009 bound_to 7997
  154.4163  140.1159  156.5275 H   0  0  0  0  0  0  0  0  0  0  0  0  # atno 8010 bound_to 7997
  140.4998  143.2363  151.7771 H   0  0  0  0  0  0  0  0  0  0  0  0  # atno 10167 bound_to 10162
  156.4169  130.4419  149.7211 H   0  0  0  0  0  0  0  0  0  0  0  0  # atno 10718 bound_to 10713
  153.7269  135.6941  153.4999 H   0  0  0  0  0  0  0  0  0  0  0  0  # atno 10763 bound_to 10752
  153.2164  135.4385  155.0437 H   0  0  0  0  0  0  0  0  0  0  0  0  # atno 10764 bound_to 10752
  154.8266  135.3449  154.6800 H   0  0  0  0  0  0  0  0  0  0  0  0  # atno 10765 bound_to 10752
  140.1922  134.3973  155.8140 H   0  0  0  0  0  0  0  0  0  0  0  0  # atno 11005 bound_to 11000
  146.1477  140.6970  142.9337 LP  0  0  0  0  0  0  0  0  0  0  0  0  # atno 17320 bound_to 7965
  144.7255  140.4511  143.6976 LP  0  0  0  0  0  0  0  0  0  0  0  0  # atno 17321 bound_to 7965
  139.4869  144.4538  151.9623 LP  0  0  0  0  0  0  0  0  0  0  0  0  # atno 17342 bound_to 10162
  140.3626  144.2954  150.5931 LP  0  0  0  0  0  0  0  0  0  0  0  0  # atno 17343 bound_to 10162
  156.4168  130.7749  151.2764 LP  0  0  0  0  0  0  0  0  0  0  0  0  # atno 17370 bound_to 10713
  157.7508  131.0195  150.3669 LP  0  0  0  0  0  0  0  0  0  0  0  0  # atno 17371 bound_to 10713
  141.2226  133.7052  156.8115 LP  0  0  0  0  0  0  0  0  0  0  0  0  # atno 17394 bound_to 11000
  140.2147  134.8802  157.3312 LP  0  0  0  0  0  0  0  0  0  0  0  0  # atno 17395 bound_to 11000

$$$$
