AV-unprocessed.smi:2822|AV-procd|sdf|10867|dock6
  -GOLD-   2272015313D 1   1.00000     0.00000
 Structure written by MMmdl.
 41 43  0  0  0  0  0  0  0  0  3 V2000
  150.1826  138.5105  154.3376 Cl  0  0  0  0  0  0  0  0  0  0  0  0
  149.0467  139.8102  154.2396 C   0  0  0  0  0  0  0  0  0  0  0  0
  149.4271  141.0926  154.6861 C   0  0  0  0  0  0  0  0  0  0  0  0
  148.5530  142.1187  154.6168 N   0  3  0  0  0  0  0  0  0  0  0  0
  147.3020  141.9792  154.1296 C   0  0  0  0  0  0  0  0  0  0  0  0
  146.8632  140.7216  153.6676 C   0  0  0  0  0  0  0  0  0  0  0  0
  147.7435  139.6115  153.7201 C   0  0  0  0  0  0  0  0  0  0  0  0
  147.3677  138.3323  153.2812 N   0  0  0  0  0  0  0  0  0  0  0  0
  145.9706  137.9268  153.2401 C   0  0  0  0  0  0  0  0  0  0  0  0
  145.7648  136.7049  152.3330 C   0  0  1  0  0  0  0  0  0  0  0  0
  146.2155  135.4023  153.0196 C   0  0  0  0  0  0  0  0  0  0  0  0
  145.9408  134.2329  152.1524 N   0  3  1  0  0  0  0  0  0  0  0  0
  146.3965  132.9567  152.7600 C   0  0  0  0  0  0  0  0  0  0  0  0
  146.1832  131.7777  151.7968 C   0  0  0  0  0  0  0  0  0  0  0  0
  144.7157  131.6881  151.3593 C   0  0  0  0  0  0  0  0  0  0  0  0
  144.2624  133.0269  150.7617 C   0  0  0  0  0  0  0  0  0  0  0  0
  144.5107  134.1902  151.7425 C   0  0  2  0  0  0  0  0  0  0  0  0
  144.0992  135.5415  151.1257 C   0  0  0  0  0  0  0  0  0  0  0  0
  144.3761  136.5958  152.0390 O   0  0  0  0  0  0  0  0  0  0  0  0
  150.3994  141.3265  155.0944 H   0  0  0  0  0  0  0  0  0  0  0  0
  146.6929  142.8714  154.1244 H   0  0  0  0  0  0  0  0  0  0  0  0
  145.8583  140.6304  153.2833 H   0  0  0  0  0  0  0  0  0  0  0  0
  148.0493  137.7593  152.8030 H   0  0  0  0  0  0  0  0  0  0  0  0
  145.6523  137.6805  154.2538 H   0  0  0  0  0  0  0  0  0  0  0  0
  145.3538  138.7585  152.8972 H   0  0  0  0  0  0  0  0  0  0  0  0
  146.3304  136.8439  151.4091 H   0  0  0  0  0  0  0  0  0  0  0  0
  147.2830  135.4481  153.2391 H   0  0  0  0  0  0  0  0  0  0  0  0
  145.6975  135.2796  153.9723 H   0  0  0  0  0  0  0  0  0  0  0  0
  147.4539  133.0310  153.0167 H   0  0  0  0  0  0  0  0  0  0  0  0
  145.8553  132.7813  153.6910 H   0  0  0  0  0  0  0  0  0  0  0  0
  146.8213  131.8990  150.9203 H   0  0  0  0  0  0  0  0  0  0  0  0
  146.4871  130.8458  152.2747 H   0  0  0  0  0  0  0  0  0  0  0  0
  144.5872  130.8870  150.6307 H   0  0  0  0  0  0  0  0  0  0  0  0
  144.0897  131.4348  152.2160 H   0  0  0  0  0  0  0  0  0  0  0  0
  144.7986  133.2078  149.8290 H   0  0  0  0  0  0  0  0  0  0  0  0
  143.2040  132.9738  150.5035 H   0  0  0  0  0  0  0  0  0  0  0  0
  143.9081  134.0259  152.6378 H   0  0  0  0  0  0  0  0  0  0  0  0
  144.6184  135.7192  150.1822 H   0  0  0  0  0  0  0  0  0  0  0  0
  143.0315  135.5442  150.9048 H   0  0  0  0  0  0  0  0  0  0  0  0
  146.4809  134.3625  151.3087 H   0  0  0  0  0  0  0  0  0  0  0  0
  148.8503  143.0375  154.9464 H   0  0  0  0  0  0  0  0  0  0  0  0
  1  2  1  0  0  0  0
  2  7  1  0  0  0  0
  2  3  2  0  0  0  0
  3  4  1  0  0  0  0
  3 20  1  0  0  0  0
  4  5  2  0  0  0  0
  4 41  1  0  0  0  0
  5  6  1  0  0  0  0
  5 21  1  0  0  0  0
  6  7  2  0  0  0  0
  6 22  1  0  0  0  0
  7  8  1  0  0  0  0
  8  9  1  0  0  0  0
  8 23  1  0  0  0  0
  9 10  1  0  0  0  0
  9 24  1  0  0  0  0
  9 25  1  0  0  0  0
 10 19  1  0  0  0  0
 10 11  1  0  0  0  0
 10 26  1  0  0  0  0
 11 12  1  0  0  0  0
 11 27  1  0  0  0  0
 11 28  1  0  0  0  0
 12 17  1  0  0  0  0
 12 13  1  0  0  0  0
 12 40  1  0  0  0  0
 13 14  1  0  0  0  0
 13 29  1  0  0  0  0
 13 30  1  0  0  0  0
 14 15  1  0  0  0  0
 14 31  1  0  0  0  0
 14 32  1  0  0  0  0
 15 16  1  0  0  0  0
 15 33  1  0  0  0  0
 15 34  1  0  0  0  0
 16 17  1  0  0  0  0
 16 35  1  0  0  0  0
 16 36  1  0  0  0  0
 17 18  1  0  0  0  0
 17 37  1  0  0  0  0
 18 19  1  0  0  0  0
 18 38  1  0  0  0  0
 18 39  1  0  0  0  0
M  CHG  1   4   1
M  CHG  1  12   1
M  END
> <s_m_source_file>
AV-unprocessed.smi

> <i_m_source_file_index>
2822

> <i_lp_mmshare_version>
43012

> <i_f3d_flags>
0

> <s_epik_input>
Q2xjMVtjSF1uW2NIXVtjSF1jMVtOSF1bQ0gyXVtDQEhdKFtDSDJdMilPW0NIMl1bQ0BASF0oTjIzKVtDSDJdW0NIMl1bQ0gyXVtDSDJdMw==

> <s_epik_cmdline>
J2VwaWtfcHl0aG9uJywgJy1waCcsICc3LjAnLCAnLXRuJywgJzgnLCAnLW1hJywgJzIwMCcsICctbWV0YWxfYmluZGluZycsICctaW1hZScsICc8aW5maWxlLm1hZT4nLCAnLW9tYWUnLCAnPG91dGZpbGUubWFlPic=

> <r_lp_tautomer_probability>
1

> <r_epik_Ionization_Penalty>
0.254999

> <r_epik_Ionization_Penalty_Charging>
0.254956

> <r_epik_Ionization_Penalty_Neutral>
4.33524e-05

> <r_epik_State_Penalty>
0.230978

> <r_epik_Charging_Adjusted_Penalty>
0.485934

> <i_epik_Tot_Q>
2

> <i_epik_Tot_abs_Q>
2

> <r_epik_Metal_State_Penalty>
3.47007

> <b_epik_Metal_Only>
0

> <s_lp_Force_Field>
OPLS_2005

> <r_lp_Energy>
36.8988

> <b_lp_Chiralities_Consistent>
1

> <s_lp_Variant>
AV-unprocessed.smi:2822-8

> <Gold.Version>
5.8.1

> <Gold.Id.Protein>
6NUR|6NUR_protein|mol2

> <Gold.PLP.Fitness>
41.8887

> <Gold.PLP.PLP>
-33.6566

> <Gold.PLP.part.hbond>
-2.0000

> <Gold.PLP.part.metal>
0.0000

> <Gold.PLP.part.buried>
-3.2709

> <Gold.PLP.part.nonpolar>
-28.9575

> <Gold.PLP.part.repulsive>
1.2201

> <Gold.PLP.ligand.clash>
0.0000

> <Gold.PLP.ligand.torsion>
0.3842

> <Gold.PLP.Chemscore.Hbond>
3.0000

> <Gold.PLP.Chemscore.CHOScore>
0.0000

> <Gold.PLP.Chemscore.Metal>
0.0000

> <Gold.Chemscore.Hbonds>
donor molecule, donor type, donor heavy atom, donor atom, acceptor molecule, acceptor atom, score
      L1  H     4    41       P1  8028  2.00
      L1  H     8    23       P1  7948  1.00

> <Gold.PLP.Chemscore.Internal.Correction>
0.0005

> <Gold.Rescore>
     Score         DG    S(hbond)    S(metal)    S(lipo)     H(rot)  DE(clash)    DE(int)     intcor
     19.19     -19.81       1.99        0.00      91.76       1.20       0.29       0.33       ----

> <Gold.Chemscore.Fitness>
19.1885

> <Gold.Chemscore.DG>
-19.8089

> <Gold.Chemscore.ZeroCoef>
-5.4800

> <Gold.Chemscore.Hbond>
1.9927

> <Gold.Chemscore.Metal>
0.0000

> <Gold.Chemscore.Lipo>
91.7561

> <Gold.Chemscore.Internal_Hbond>
0.0000

> <Gold.Chemscore.DEClash>
0.2863

> <Gold.Chemscore.DEInternal>
0.3341

> <Gold.Chemscore.Rot>
1.1962

> <Gold.Chemscore.Internal.Correction>
   9.000000E+99

> <Gold.Chemscore.Hbonds>
donor molecule, donor type, donor heavy atom, donor atom, acceptor molecule, acceptor atom, score
      L1  H     4    41       P1  8028  1.00
      L1  H     8    23       P1  7948  0.97

> <Gold.Chemscore.Hbond.Weighted>
-6.6558

> <Gold.Chemscore.Metal.Weighted>
-0.0000

> <Gold.Chemscore.Lipo.Weighted>
-10.7355

> <Gold.Chemscore.Internal_Hbond.Weighted>
0.0000

> <Gold.Chemscore.DEClash.Weighted>
0.2863

> <Gold.Chemscore.DEInternal.Weighted>
0.3341

> <Gold.Chemscore.Rot.Weighted>
3.0623

> <Gold.Chemscore.Internal.Correction.Weighted>
   9.000000E+99

> <Gold.Protein.RotatedTorsions>
[ 6907 6896 6895 6894 ] final -123.49 input  -60.11 | X-H torsion
[ 7974 7965 7964 7962 ] final   79.39 input  175.53 | X-H torsion
[ 8008 7997 7996 7995 ] final   86.62 input   59.86 | X-H torsion
[ 10167 10162 10161 10158 ] final  -77.20 input  -65.29 | X-H torsion
[ 10718 10713 10712 10709 ] final   53.58 input   66.30 | X-H torsion
[ 10763 10752 10751 10750 ] final   57.55 input  -60.55 | X-H torsion
[ 11005 11000 10999 10996 ] final  117.19 input  -57.11 | X-H torsion

> <Gold.Protein.ActiveResidues>
 VAL166  LYS551  ARG553  GLY616  TRP617  ASP618  TYR619  PRO620  LYS621  CYS622 
 ASP623  PHE694  ASN695  SER759  ASP760  ASP761  ALA762  ILE779  LEU786  VAL792 
 PHE793  MET794  SER795  GLU796  ALA797  LYS798  CYS799  TRP800  GLU811  SER814 

> <Gold.Protein.RotatedAtoms>
  150.8675  133.7553  159.2971 H   0  0  0  0  0  0  0  0  0  0  0  0  # atno 6907 bound_to 6896
  151.5175  135.1065  159.9879 H   0  0  0  0  0  0  0  0  0  0  0  0  # atno 6908 bound_to 6896
  152.4672  133.7904  159.6954 H   0  0  0  0  0  0  0  0  0  0  0  0  # atno 6909 bound_to 6896
  145.6648  139.2481  143.1902 H   0  0  0  0  0  0  0  0  0  0  0  0  # atno 7974 bound_to 7965
  155.9651  140.3390  155.6525 H   0  0  0  0  0  0  0  0  0  0  0  0  # atno 8008 bound_to 7997
  155.6747  140.0731  157.2525 H   0  0  0  0  0  0  0  0  0  0  0  0  # atno 8009 bound_to 7997
  154.4152  140.1685  156.1905 H   0  0  0  0  0  0  0  0  0  0  0  0  # atno 8010 bound_to 7997
  140.4791  143.2407  151.8087 H   0  0  0  0  0  0  0  0  0  0  0  0  # atno 10167 bound_to 10162
  157.5179  130.8545  149.8520 H   0  0  0  0  0  0  0  0  0  0  0  0  # atno 10718 bound_to 10713
  152.9852  135.5637  154.5409 H   0  0  0  0  0  0  0  0  0  0  0  0  # atno 10763 bound_to 10752
  154.4864  135.2791  155.1533 H   0  0  0  0  0  0  0  0  0  0  0  0  # atno 10764 bound_to 10752
  154.3021  135.6305  153.5482 H   0  0  0  0  0  0  0  0  0  0  0  0  # atno 10765 bound_to 10752
  139.9066  134.9607  156.7313 H   0  0  0  0  0  0  0  0  0  0  0  0  # atno 11005 bound_to 11000
  146.1095  140.7446  142.9510 LP  0  0  0  0  0  0  0  0  0  0  0  0  # atno 17320 bound_to 7965
  144.7077  140.3916  143.7105 LP  0  0  0  0  0  0  0  0  0  0  0  0  # atno 17321 bound_to 7965
  139.4830  144.4796  151.9323 LP  0  0  0  0  0  0  0  0  0  0  0  0  # atno 17342 bound_to 10162
  140.3881  144.2650  150.5902 LP  0  0  0  0  0  0  0  0  0  0  0  0  # atno 17343 bound_to 10162
  156.0333  130.3758  150.1628 LP  0  0  0  0  0  0  0  0  0  0  0  0  # atno 17370 bound_to 10713
  156.9816  130.9866  151.3436 LP  0  0  0  0  0  0  0  0  0  0  0  0  # atno 17371 bound_to 10713
  140.6923  133.9379  155.7974 LP  0  0  0  0  0  0  0  0  0  0  0  0  # atno 17394 bound_to 11000
  141.0432  134.0591  157.3876 LP  0  0  0  0  0  0  0  0  0  0  0  0  # atno 17395 bound_to 11000

$$$$
