AV-unprocessed.smi:697|AV-procd|sdf|3391|dock4
  -GOLD-   22720 0373D 1   1.00000     0.00000
 Structure written by MMmdl.
 44 45  0  0  0  0  0  0  0  0  1 V2000
  151.3270  141.3227  156.5393 C   0  0  0  0  0  0  0  0  0  0  0  0
  150.2350  140.4115  156.5344 O   0  0  0  0  0  0  0  0  0  0  0  0
  149.6384  140.1060  155.2664 C   0  0  1  0  0  0  0  0  0  0  0  0
  149.1586  141.3879  154.5736 C   0  0  0  0  0  0  0  0  0  0  0  0
  150.5227  139.1120  154.4891 C   0  0  0  0  0  0  0  0  0  0  0  0
  149.8551  138.0006  155.2965 C   0  0  2  0  0  0  0  0  0  0  0  0
  149.6145  136.7982  154.5058 N   0  0  0  0  0  0  0  0  0  0  0  0
  149.7077  135.5488  154.9799 C   0  0  0  0  0  0  0  0  0  0  0  0
  150.0284  135.2920  156.1400 O   0  0  0  0  0  0  0  0  0  0  0  0
  149.4123  134.6502  154.0226 N   0  0  0  0  0  0  0  0  0  0  0  0
  149.3480  133.2484  154.0999 C   0  0  0  0  0  0  0  0  0  0  0  0
  150.2277  132.4623  154.7746 C   0  0  0  0  0  0  0  0  0  0  0  0
  150.0926  131.0159  154.8201 C   0  0  0  0  0  0  0  0  0  0  0  0
  151.1300  130.1417  155.5075 C   0  0  0  0  0  0  0  0  0  0  0  0
  151.7180  129.3152  154.6417 F   0  0  0  0  0  0  0  0  0  0  0  0
  152.0748  130.8851  156.0840 F   0  0  0  0  0  0  0  0  0  0  0  0
  150.5472  129.4064  156.4532 F   0  0  0  0  0  0  0  0  0  0  0  0
  149.0506  130.4887  154.1514 C   0  0  0  0  0  0  0  0  0  0  0  0
  148.1289  131.2907  153.4752 N   0  0  0  0  0  0  0  0  0  0  0  0
  148.2031  132.6386  153.4030 C   0  0  0  0  0  0  0  0  0  0  0  0
  147.3490  133.2746  152.7862 O   0  0  0  0  0  0  0  0  0  0  0  0
  148.6260  138.9308  155.4668 C   0  0  0  0  0  0  0  0  0  0  0  0
  147.9155  138.8621  156.8232 C   0  0  0  0  0  0  0  0  0  0  0  0
  147.5140  138.8111  154.4070 C   0  0  0  0  0  0  0  0  0  0  0  0
  147.3636  130.8210  153.0130 H   0  0  0  0  0  0  0  0  0  0  0  0
  151.7766  141.3327  157.5319 H   0  0  0  0  0  0  0  0  0  0  0  0
  151.0012  142.3402  156.3244 H   0  0  0  0  0  0  0  0  0  0  0  0
  152.1036  141.0458  155.8273 H   0  0  0  0  0  0  0  0  0  0  0  0
  148.6117  141.1730  153.6563 H   0  0  0  0  0  0  0  0  0  0  0  0
  149.9891  142.0318  154.2849 H   0  0  0  0  0  0  0  0  0  0  0  0
  148.4969  141.9631  155.2214 H   0  0  0  0  0  0  0  0  0  0  0  0
  150.2880  139.0797  153.4236 H   0  0  0  0  0  0  0  0  0  0  0  0
  151.5971  139.1970  154.6489 H   0  0  0  0  0  0  0  0  0  0  0  0
  150.3815  137.8139  156.2356 H   0  0  0  0  0  0  0  0  0  0  0  0
  149.3522  136.9281  153.5397 H   0  0  0  0  0  0  0  0  0  0  0  0
  149.2266  135.0246  153.1034 H   0  0  0  0  0  0  0  0  0  0  0  0
  151.0532  132.8887  155.3199 H   0  0  0  0  0  0  0  0  0  0  0  0
  148.8475  129.4305  154.0772 H   0  0  0  0  0  0  0  0  0  0  0  0
  147.2841  137.9767  156.9018 H   0  0  0  0  0  0  0  0  0  0  0  0
  147.2825  139.7349  156.9858 H   0  0  0  0  0  0  0  0  0  0  0  0
  148.6217  138.8143  157.6523 H   0  0  0  0  0  0  0  0  0  0  0  0
  146.9576  137.8788  154.5096 H   0  0  0  0  0  0  0  0  0  0  0  0
  147.9082  138.8353  153.3912 H   0  0  0  0  0  0  0  0  0  0  0  0
  146.7932  139.6251  154.4912 H   0  0  0  0  0  0  0  0  0  0  0  0
  1  2  1  0  0  0  0
  1 26  1  0  0  0  0
  1 27  1  0  0  0  0
  1 28  1  0  0  0  0
  2  3  1  0  0  0  0
  3 22  1  0  0  0  0
  3  4  1  0  0  0  0
  3  5  1  0  0  0  0
  4 29  1  0  0  0  0
  4 30  1  0  0  0  0
  4 31  1  0  0  0  0
  5  6  1  0  0  0  0
  5 32  1  0  0  0  0
  5 33  1  0  0  0  0
  6  7  1  0  0  0  0
  6 22  1  0  0  0  0
  6 34  1  0  0  0  0
  7  8  1  0  0  0  0
  7 35  1  0  0  0  0
  8  9  2  0  0  0  0
  8 10  1  0  0  0  0
 10 11  1  0  0  0  0
 10 36  1  0  0  0  0
 11 20  1  0  0  0  0
 11 12  2  0  0  0  0
 12 13  1  0  0  0  0
 12 37  1  0  0  0  0
 13 14  1  0  0  0  0
 13 18  2  0  0  0  0
 14 15  1  0  0  0  0
 14 16  1  0  0  0  0
 14 17  1  0  0  0  0
 18 19  1  0  0  0  0
 18 38  1  0  0  0  0
 19 25  1  0  0  0  0
 19 20  1  0  0  0  0
 20 21  2  0  0  0  0
 22 23  1  0  0  0  0
 22 24  1  0  0  0  0
 23 39  1  0  0  0  0
 23 40  1  0  0  0  0
 23 41  1  0  0  0  0
 24 42  1  0  0  0  0
 24 43  1  0  0  0  0
 24 44  1  0  0  0  0
M  END
> <s_m_source_file>
AV-unprocessed.smi

> <i_m_source_file_index>
697

> <i_lp_mmshare_version>
43012

> <i_f3d_flags>
0

> <s_epik_input>
W0NIM11PW0NAQF0xKFtDSDNdKVtDSDJdW0NASF0oQzEoW0NIM10pW0NIM10pW05IXUMoPU8pW05IXWMyW2NIXWMoQyhGKShGKUYpW2NIXVtuSF1jMj1P

> <s_epik_cmdline>
J2VwaWtfcHl0aG9uJywgJy1waCcsICc3LjAnLCAnLXRuJywgJzgnLCAnLW1hJywgJzIwMCcsICctbWV0YWxfYmluZGluZycsICctaW1hZScsICc8aW5maWxlLm1hZT4nLCAnLW9tYWUnLCAnPG91dGZpbGUubWFlPic=

> <r_lp_tautomer_probability>
1

> <r_epik_Ionization_Penalty>
0.0036482

> <r_epik_Ionization_Penalty_Charging>
0.00362828

> <r_epik_Ionization_Penalty_Neutral>
1.99208e-05

> <r_epik_State_Penalty>
-0

> <r_epik_Charging_Adjusted_Penalty>
0.00362828

> <i_epik_Tot_Q>
0

> <i_epik_Tot_abs_Q>
0

> <r_epik_Metal_State_Penalty>
0.369362

> <b_epik_Metal_Only>
0

> <s_lp_Force_Field>
OPLS_2005

> <r_lp_Energy>
34.6264

> <b_lp_Chiralities_Consistent>
1

> <s_lp_Variant>
AV-unprocessed.smi:697-3

> <Gold.Version>
5.8.1

> <Gold.Id.Protein>
6NUR|6NUR_protein|mol2

> <Gold.PLP.Fitness>
38.6722

> <Gold.PLP.PLP>
-34.1915

> <Gold.PLP.part.hbond>
-2.0000

> <Gold.PLP.part.metal>
0.0000

> <Gold.PLP.part.buried>
-3.9665

> <Gold.PLP.part.nonpolar>
-28.5834

> <Gold.PLP.part.repulsive>
0.2291

> <Gold.PLP.ligand.clash>
0.0000

> <Gold.PLP.ligand.torsion>
0.6201

> <Gold.PLP.Chemscore.Hbond>
1.7500

> <Gold.PLP.Chemscore.CHOScore>
0.0000

> <Gold.PLP.Chemscore.Metal>
0.0000

> <Gold.Chemscore.Hbonds>
donor molecule, donor type, donor heavy atom, donor atom, acceptor molecule, acceptor atom, score
      L1  H     7    35       P1  7948  1.00
      L1  H    10    36       P1  7948  0.60

> <Gold.PLP.Chemscore.Internal.Correction>
0.4708

> <Gold.Rescore>
     Score         DG    S(hbond)    S(metal)    S(lipo)     H(rot)  DE(clash)    DE(int)     intcor
     13.15     -13.86       1.38        0.00      60.79       1.31       0.06       0.65       ----

> <Gold.Chemscore.Fitness>
13.1482

> <Gold.Chemscore.DG>
-13.8603

> <Gold.Chemscore.ZeroCoef>
-5.4800

> <Gold.Chemscore.Hbond>
1.3810

> <Gold.Chemscore.Metal>
0.0000

> <Gold.Chemscore.Lipo>
60.7852

> <Gold.Chemscore.Internal_Hbond>
0.0000

> <Gold.Chemscore.DEClash>
0.0618

> <Gold.Chemscore.DEInternal>
0.6503

> <Gold.Chemscore.Rot>
1.3062

> <Gold.Chemscore.Internal.Correction>
   9.000000E+99

> <Gold.Chemscore.Hbonds>
donor molecule, donor type, donor heavy atom, donor atom, acceptor molecule, acceptor atom, score
      L1  H     7    35       P1  7948  0.90
      L1  H    10    36       P1  7948  0.04

> <Gold.Chemscore.Hbond.Weighted>
-4.6125

> <Gold.Chemscore.Metal.Weighted>
-0.0000

> <Gold.Chemscore.Lipo.Weighted>
-7.1119

> <Gold.Chemscore.Internal_Hbond.Weighted>
0.0000

> <Gold.Chemscore.DEClash.Weighted>
0.0618

> <Gold.Chemscore.DEInternal.Weighted>
0.6503

> <Gold.Chemscore.Rot.Weighted>
3.3440

> <Gold.Chemscore.Internal.Correction.Weighted>
   9.000000E+99

> <Gold.Protein.RotatedTorsions>
[ 6907 6896 6895 6894 ] final -134.35 input  -60.11 | X-H torsion
[ 7974 7965 7964 7962 ] final   28.43 input  175.53 | X-H torsion
[ 8008 7997 7996 7995 ] final  165.30 input   59.86 | X-H torsion
[ 10167 10162 10161 10158 ] final  140.55 input  -65.29 | X-H torsion
[ 10718 10713 10712 10709 ] final   90.23 input   66.30 | X-H torsion
[ 10763 10752 10751 10750 ] final -149.81 input  -60.55 | X-H torsion
[ 11005 11000 10999 10996 ] final   54.94 input  -57.11 | X-H torsion

> <Gold.Protein.ActiveResidues>
 VAL166  LYS551  ARG553  GLY616  TRP617  ASP618  TYR619  PRO620  LYS621  CYS622 
 ASP623  PHE694  ASN695  SER759  ASP760  ASP761  ALA762  ILE779  LEU786  VAL792 
 PHE793  MET794  SER795  GLU796  ALA797  LYS798  CYS799  TRP800  GLU811  SER814 

> <Gold.Protein.RotatedAtoms>
  150.9848  133.6208  159.2716 H   0  0  0  0  0  0  0  0  0  0  0  0  # atno 6907 bound_to 6896
  151.3450  135.0871  159.9393 H   0  0  0  0  0  0  0  0  0  0  0  0  # atno 6908 bound_to 6896
  152.5227  133.9452  159.7700 H   0  0  0  0  0  0  0  0  0  0  0  0  # atno 6909 bound_to 6896
  146.1729  139.7057  142.8955 H   0  0  0  0  0  0  0  0  0  0  0  0  # atno 7974 bound_to 7965
  156.1811  140.1674  156.8271 H   0  0  0  0  0  0  0  0  0  0  0  0  # atno 8008 bound_to 7997
  154.5362  140.0746  156.8464 H   0  0  0  0  0  0  0  0  0  0  0  0  # atno 8009 bound_to 7997
  155.3307  140.3379  155.4242 H   0  0  0  0  0  0  0  0  0  0  0  0  # atno 8010 bound_to 7997
  139.5045  144.6227  151.6013 H   0  0  0  0  0  0  0  0  0  0  0  0  # atno 10167 bound_to 10162
  157.6958  131.0363  150.3547 H   0  0  0  0  0  0  0  0  0  0  0  0  # atno 10718 bound_to 10713
  154.8155  135.3300  154.7187 H   0  0  0  0  0  0  0  0  0  0  0  0  # atno 10763 bound_to 10752
  153.7828  135.6917  153.4890 H   0  0  0  0  0  0  0  0  0  0  0  0  # atno 10764 bound_to 10752
  153.1969  135.4530  155.0166 H   0  0  0  0  0  0  0  0  0  0  0  0  # atno 10765 bound_to 10752
  140.0646  134.5554  155.9113 H   0  0  0  0  0  0  0  0  0  0  0  0  # atno 11005 bound_to 11000
  145.4291  141.0413  143.2921 LP  0  0  0  0  0  0  0  0  0  0  0  0  # atno 17320 bound_to 7965
  144.8191  139.5824  143.6995 LP  0  0  0  0  0  0  0  0  0  0  0  0  # atno 17321 bound_to 7965
  140.5934  143.9739  150.6339 LP  0  0  0  0  0  0  0  0  0  0  0  0  # atno 17342 bound_to 10162
  140.2927  143.3313  152.1047 LP  0  0  0  0  0  0  0  0  0  0  0  0  # atno 17343 bound_to 10162
  156.3991  130.3912  149.6973 LP  0  0  0  0  0  0  0  0  0  0  0  0  # atno 17370 bound_to 10713
  156.4297  130.7809  151.2828 LP  0  0  0  0  0  0  0  0  0  0  0  0  # atno 17371 bound_to 10713
  141.1987  133.6603  156.5808 LP  0  0  0  0  0  0  0  0  0  0  0  0  # atno 17394 bound_to 11000
  140.3718  134.7599  157.4603 LP  0  0  0  0  0  0  0  0  0  0  0  0  # atno 17395 bound_to 11000

$$$$
