AV-unprocessed.smi:1754|AV-procd|sdf|7069|dock1
  -GOLD-   22720 8283D 1   1.00000     0.00000
 Structure written by MMmdl.
 44 45  0  0  0  0  0  0  0  0  3 V2000
  148.3183  127.5722  151.9765 C   0  0  0  0  0  0  0  0  0  0  0  0
  148.5095  128.6789  153.0215 C   0  0  0  0  0  0  0  0  0  0  0  0
  147.2721  128.9814  153.7357 N   0  0  0  0  0  0  0  0  0  0  0  0
  145.9982  128.5531  153.1603 C   0  0  0  0  0  0  0  0  0  0  0  0
  145.7609  129.1504  151.7668 C   0  0  0  0  0  0  0  0  0  0  0  0
  147.3008  129.7249  154.9383 C   0  0  0  0  0  0  0  0  0  0  0  0
  148.4958  130.0408  155.6312 C   0  0  0  0  0  0  0  0  0  0  0  0
  148.4401  130.7913  156.8233 C   0  0  0  0  0  0  0  0  0  0  0  0
  147.1943  131.2155  157.3276 C   0  0  0  0  0  0  0  0  0  0  0  0
  147.1897  131.9915  158.5176 N   0  0  0  0  0  0  0  0  0  0  0  0
  148.1786  132.7459  159.0576 C   0  0  0  0  0  0  0  0  0  0  0  0
  149.2356  132.8731  158.4421 O   0  0  0  0  0  0  0  0  0  0  0  0
  147.9766  133.3723  160.2565 N   0  5  0  0  0  0  0  0  0  0  0  0
  146.7108  133.7052  160.9337 C   0  0  1  0  0  0  0  0  0  0  0  0
  146.9667  133.8471  162.4502 C   0  0  0  0  0  0  0  0  0  0  0  0
  147.5651  135.2297  162.7436 C   0  0  0  0  0  0  0  0  0  0  0  0
  146.7771  136.3621  161.5414 S   0  0  0  0  0  0  0  0  0  0  0  0
  145.6191  137.0110  162.1761 O   0  0  0  0  0  0  0  0  0  0  0  0
  147.8150  137.1637  160.8746 O   0  0  0  0  0  0  0  0  0  0  0  0
  146.1696  135.0498  160.4073 C   0  0  0  0  0  0  0  0  0  0  0  0
  146.0298  130.8869  156.5959 C   0  0  0  0  0  0  0  0  0  0  0  0
  146.1294  130.1666  155.4583 N   0  3  0  0  0  0  0  0  0  0  0  0
  149.2514  127.3755  151.4485 H   0  0  0  0  0  0  0  0  0  0  0  0
  147.5715  127.8543  151.2336 H   0  0  0  0  0  0  0  0  0  0  0  0
  147.9951  126.6387  152.4379 H   0  0  0  0  0  0  0  0  0  0  0  0
  149.3066  128.4198  153.7179 H   0  0  0  0  0  0  0  0  0  0  0  0
  148.8485  129.5848  152.5184 H   0  0  0  0  0  0  0  0  0  0  0  0
  146.0007  127.4652  153.0859 H   0  0  0  0  0  0  0  0  0  0  0  0
  145.1707  128.7985  153.8264 H   0  0  0  0  0  0  0  0  0  0  0  0
  144.8132  128.8030  151.3551 H   0  0  0  0  0  0  0  0  0  0  0  0
  146.5495  128.8612  151.0716 H   0  0  0  0  0  0  0  0  0  0  0  0
  145.7274  130.2397  151.8012 H   0  0  0  0  0  0  0  0  0  0  0  0
  149.4604  129.7152  155.2732 H   0  0  0  0  0  0  0  0  0  0  0  0
  149.3520  131.0338  157.3493 H   0  0  0  0  0  0  0  0  0  0  0  0
  146.3132  132.0121  159.0182 H   0  0  0  0  0  0  0  0  0  0  0  0
  145.9618  132.9281  160.7737 H   0  0  0  0  0  0  0  0  0  0  0  0
  146.0094  133.7731  162.9670 H   0  0  0  0  0  0  0  0  0  0  0  0
  147.5918  133.0444  162.8434 H   0  0  0  0  0  0  0  0  0  0  0  0
  147.3795  135.5698  163.7621 H   0  0  0  0  0  0  0  0  0  0  0  0
  148.6417  135.2377  162.5649 H   0  0  0  0  0  0  0  0  0  0  0  0
  146.4695  135.2736  159.3830 H   0  0  0  0  0  0  0  0  0  0  0  0
  145.0806  135.0609  160.4484 H   0  0  0  0  0  0  0  0  0  0  0  0
  145.0257  131.1812  156.8619 H   0  0  0  0  0  0  0  0  0  0  0  0
  145.2684  129.9481  154.9571 H   0  0  0  0  0  0  0  0  0  0  0  0
  1  2  1  0  0  0  0
  1 23  1  0  0  0  0
  1 24  1  0  0  0  0
  1 25  1  0  0  0  0
  2  3  1  0  0  0  0
  2 26  1  0  0  0  0
  2 27  1  0  0  0  0
  3  4  1  0  0  0  0
  3  6  1  0  0  0  0
  4  5  1  0  0  0  0
  4 28  1  0  0  0  0
  4 29  1  0  0  0  0
  5 30  1  0  0  0  0
  5 31  1  0  0  0  0
  5 32  1  0  0  0  0
  6 22  1  0  0  0  0
  6  7  2  0  0  0  0
  7  8  1  0  0  0  0
  7 33  1  0  0  0  0
  8  9  2  0  0  0  0
  8 34  1  0  0  0  0
  9 10  1  0  0  0  0
  9 21  1  0  0  0  0
 10 11  1  0  0  0  0
 10 35  1  0  0  0  0
 11 12  2  0  0  0  0
 11 13  1  0  0  0  0
 13 14  1  0  0  0  0
 14 20  1  0  0  0  0
 14 15  1  0  0  0  0
 14 36  1  0  0  0  0
 15 16  1  0  0  0  0
 15 37  1  0  0  0  0
 15 38  1  0  0  0  0
 16 17  1  0  0  0  0
 16 39  1  0  0  0  0
 16 40  1  0  0  0  0
 17 18  2  0  0  0  0
 17 19  2  0  0  0  0
 17 20  1  0  0  0  0
 20 41  1  0  0  0  0
 20 42  1  0  0  0  0
 21 22  2  0  0  0  0
 21 43  1  0  0  0  0
 22 44  1  0  0  0  0
M  CHG  1  13  -1
M  CHG  1  22   1
M  END
> <s_m_source_file>
AV-unprocessed.smi

> <i_m_source_file_index>
1754

> <i_lp_mmshare_version>
43012

> <i_f3d_flags>
0

> <s_epik_input>
W0NIM11bQ0gyXU4oW0NIMl1bQ0gzXSljMVtjSF1bY0hdYyhbY0hdbjEpW05IXUMoPU8pW05IXVtDQEBIXShbQ0gyXTIpW0NIMl1bQ0gyXVMyKD1PKT1P

> <s_epik_cmdline>
J2VwaWtfcHl0aG9uJywgJy1waCcsICc3LjAnLCAnLXRuJywgJzgnLCAnLW1hJywgJzIwMCcsICctbWV0YWxfYmluZGluZycsICctaW1hZScsICc8aW5maWxlLm1hZT4nLCAnLW9tYWUnLCAnPG91dGZpbGUubWFlPic=

> <r_lp_tautomer_probability>
0.999994

> <r_epik_Ionization_Penalty>
7.1175

> <r_epik_Ionization_Penalty_Charging>
7.11749

> <r_epik_Ionization_Penalty_Neutral>
3.13064e-06

> <r_epik_State_Penalty>
6.65299

> <r_epik_Charging_Adjusted_Penalty>
13.7705

> <i_epik_Tot_Q>
0

> <i_epik_Tot_abs_Q>
2

> <r_epik_Metal_State_Penalty>
2.60496

> <b_epik_Metal_Only>
1

> <s_lp_Force_Field>
OPLS_2005

> <r_lp_Energy>
22.4709

> <b_lp_Chiralities_Consistent>
1

> <s_lp_Variant>
AV-unprocessed.smi:1754-6

> <Gold.Version>
5.8.1

> <Gold.Id.Protein>
6NUR|6NUR_protein|mol2

> <Gold.PLP.Fitness>
43.3647

> <Gold.PLP.PLP>
-30.3623

> <Gold.PLP.part.hbond>
-4.0000

> <Gold.PLP.part.metal>
0.0000

> <Gold.PLP.part.buried>
-4.3608

> <Gold.PLP.part.nonpolar>
-22.6498

> <Gold.PLP.part.repulsive>
0.0000

> <Gold.PLP.ligand.clash>
0.0000

> <Gold.PLP.ligand.torsion>
0.8105

> <Gold.PLP.Chemscore.Hbond>
4.7760

> <Gold.PLP.Chemscore.CHOScore>
0.0000

> <Gold.PLP.Chemscore.Metal>
0.0000

> <Gold.Chemscore.Hbonds>
donor molecule, donor type, donor heavy atom, donor atom, acceptor molecule, acceptor atom, score
      L1  H    22    44       P1 10956  1.98
      P1  H  6896  6909       L1    12  1.00
      P1  H  6931  6943       L1    19  0.88
      P1  H  6934  6947       L1    19  0.85

> <Gold.PLP.Chemscore.Internal.Correction>
0.2954

> <Gold.Rescore>
     Score         DG    S(hbond)    S(metal)    S(lipo)     H(rot)  DE(clash)    DE(int)     intcor
     19.32     -21.64       3.59        0.00      66.04       1.39       0.00       2.31       ----

> <Gold.Chemscore.Fitness>
19.3239

> <Gold.Chemscore.DG>
-21.6365

> <Gold.Chemscore.ZeroCoef>
-5.4800

> <Gold.Chemscore.Hbond>
3.5874

> <Gold.Chemscore.Metal>
0.0000

> <Gold.Chemscore.Lipo>
66.0408

> <Gold.Chemscore.Internal_Hbond>
0.0000

> <Gold.Chemscore.DEClash>
0.0000

> <Gold.Chemscore.DEInternal>
2.3126

> <Gold.Chemscore.Rot>
1.3876

> <Gold.Chemscore.Internal.Correction>
   9.000000E+99

> <Gold.Chemscore.Hbonds>
donor molecule, donor type, donor heavy atom, donor atom, acceptor molecule, acceptor atom, score
      L1  H    22    44       P1 10956  0.81
      P1  H  6896  6909       L1    12  0.94
      P1  H  6931  6943       L1    19  0.85
      P1  H  6934  6947       L1    19  0.45

> <Gold.Chemscore.Hbond.Weighted>
-11.9821

> <Gold.Chemscore.Metal.Weighted>
-0.0000

> <Gold.Chemscore.Lipo.Weighted>
-7.7268

> <Gold.Chemscore.Internal_Hbond.Weighted>
0.0000

> <Gold.Chemscore.DEClash.Weighted>
0.0000

> <Gold.Chemscore.DEInternal.Weighted>
2.3126

> <Gold.Chemscore.Rot.Weighted>
3.5524

> <Gold.Chemscore.Internal.Correction.Weighted>
   9.000000E+99

> <Gold.Protein.RotatedTorsions>
[ 6907 6896 6895 6894 ] final  -14.31 input  -60.11 | X-H torsion
[ 7974 7965 7964 7962 ] final  -59.20 input  175.53 | X-H torsion
[ 8008 7997 7996 7995 ] final -122.71 input   59.86 | X-H torsion
[ 10167 10162 10161 10158 ] final -123.19 input  -65.29 | X-H torsion
[ 10718 10713 10712 10709 ] final  -21.09 input   66.30 | X-H torsion
[ 10763 10752 10751 10750 ] final  142.93 input  -60.55 | X-H torsion
[ 11005 11000 10999 10996 ] final  141.85 input  -57.11 | X-H torsion

> <Gold.Protein.ActiveResidues>
 VAL166  LYS551  ARG553  GLY616  TRP617  ASP618  TYR619  PRO620  LYS621  CYS622 
 ASP623  PHE694  ASN695  SER759  ASP760  ASP761  ALA762  ILE779  LEU786  VAL792 
 PHE793  MET794  SER795  GLU796  ALA797  LYS798  CYS799  TRP800  GLU811  SER814 

> <Gold.Protein.RotatedAtoms>
  151.3413  135.0864  159.9371 H   0  0  0  0  0  0  0  0  0  0  0  0  # atno 6907 bound_to 6896
  152.5210  133.9444  159.7652 H   0  0  0  0  0  0  0  0  0  0  0  0  # atno 6908 bound_to 6896
  150.9802  133.6200  159.2753 H   0  0  0  0  0  0  0  0  0  0  0  0  # atno 6909 bound_to 6896
  145.8303  140.8484  143.0087 H   0  0  0  0  0  0  0  0  0  0  0  0  # atno 7974 bound_to 7965
  155.1687  140.0407  157.2858 H   0  0  0  0  0  0  0  0  0  0  0  0  # atno 8008 bound_to 7997
  154.6285  140.2518  155.7436 H   0  0  0  0  0  0  0  0  0  0  0  0  # atno 8009 bound_to 7997
  156.2472  140.2880  156.0625 H   0  0  0  0  0  0  0  0  0  0  0  0  # atno 8010 bound_to 7997
  140.0061  143.5490  152.2283 H   0  0  0  0  0  0  0  0  0  0  0  0  # atno 10167 bound_to 10162
  156.5230  130.4637  149.6587 H   0  0  0  0  0  0  0  0  0  0  0  0  # atno 10718 bound_to 10713
  153.9640  135.2957  155.3432 H   0  0  0  0  0  0  0  0  0  0  0  0  # atno 10763 bound_to 10752
  154.7359  135.5046  153.9044 H   0  0  0  0  0  0  0  0  0  0  0  0  # atno 10764 bound_to 10752
  153.0933  135.6714  153.9923 H   0  0  0  0  0  0  0  0  0  0  0  0  # atno 10765 bound_to 10752
  140.0432  134.9294  157.0882 H   0  0  0  0  0  0  0  0  0  0  0  0  # atno 11005 bound_to 11000
  144.6740  140.0662  143.7474 LP  0  0  0  0  0  0  0  0  0  0  0  0  # atno 17320 bound_to 7965
  145.9578  139.2779  143.1174 LP  0  0  0  0  0  0  0  0  0  0  0  0  # atno 17321 bound_to 7965
  139.6237  144.7633  151.2684 LP  0  0  0  0  0  0  0  0  0  0  0  0  # atno 17342 bound_to 10162
  140.7400  143.6602  150.8171 LP  0  0  0  0  0  0  0  0  0  0  0  0  # atno 17343 bound_to 10162
  156.3132  130.7240  151.2137 LP  0  0  0  0  0  0  0  0  0  0  0  0  # atno 17370 bound_to 10713
  157.7434  131.0476  150.4951 LP  0  0  0  0  0  0  0  0  0  0  0  0  # atno 17371 bound_to 10713
  140.4035  134.2057  155.7163 LP  0  0  0  0  0  0  0  0  0  0  0  0  # atno 17394 bound_to 11000
  141.1894  133.8240  157.0959 LP  0  0  0  0  0  0  0  0  0  0  0  0  # atno 17395 bound_to 11000

$$$$
