AV-unprocessed.smi:1695|AV-procd|sdf|6790|dock3
  -GOLD-   22720 7553D 1   1.00000     0.00000
 Structure written by MMmdl.
 51 53  0  0  0  0  0  0  0  0  2 V2000
  152.7948  142.8371  160.7659 C   0  0  0  0  0  0  0  0  0  0  0  0
  152.1529  142.4326  159.4506 C   0  0  0  0  0  0  0  0  0  0  0  0
  152.6101  141.2686  158.7923 C   0  0  0  0  0  0  0  0  0  0  0  0
  152.0398  140.8583  157.5675 C   0  0  0  0  0  0  0  0  0  0  0  0
  152.3271  139.7701  156.7615 N   0  0  0  0  0  0  0  0  0  0  0  0
  151.4600  139.9359  155.7672 C   0  0  0  0  0  0  0  0  0  0  0  0
  150.6482  141.0092  155.8301 N   0  0  0  0  0  0  0  0  0  0  0  0
  149.6336  141.4006  154.8684 C   0  0  0  0  0  0  0  0  0  0  0  0
  148.2697  140.7441  155.1551 C   0  0  1  0  0  0  0  0  0  0  0  0
  147.7845  141.2011  156.4033 O   0  0  0  0  0  0  0  0  0  0  0  0
  147.2327  141.0846  154.0671 C   0  0  0  0  0  0  0  0  0  0  0  0
  146.3067  139.9571  153.7867 N   0  3  1  0  0  0  0  0  0  0  0  0
  146.9190  138.9346  152.9004 C   0  0  0  0  0  0  0  0  0  0  0  0
  145.8944  137.8561  152.4984 C   0  0  0  0  0  0  0  0  0  0  0  0
  145.2037  137.1891  153.7068 C   0  0  1  0  0  0  0  0  0  0  0  0
  146.1035  136.1583  154.4141 C   0  0  0  0  0  0  0  0  0  0  0  0
  147.3229  135.9689  153.9039 N   0  0  0  0  0  0  0  0  0  0  0  0
  145.7136  135.5402  155.4023 O   0  0  0  0  0  0  0  0  0  0  0  0
  144.6763  138.2794  154.6640 C   0  0  0  0  0  0  0  0  0  0  0  0
  145.7314  139.3464  155.0142 C   0  0  0  0  0  0  0  0  0  0  0  0
  150.9928  141.6518  157.0140 C   0  0  0  0  0  0  0  0  0  0  0  0
  150.5286  142.8113  157.6596 C   0  0  0  0  0  0  0  0  0  0  0  0
  151.1084  143.2061  158.8835 C   0  0  0  0  0  0  0  0  0  0  0  0
  150.6004  144.4592  159.5744 C   0  0  0  0  0  0  0  0  0  0  0  0
  153.5727  142.1332  161.0626 H   0  0  0  0  0  0  0  0  0  0  0  0
  152.0505  142.8665  161.5618 H   0  0  0  0  0  0  0  0  0  0  0  0
  153.2509  143.8236  160.6807 H   0  0  0  0  0  0  0  0  0  0  0  0
  153.4052  140.6788  159.2241 H   0  0  0  0  0  0  0  0  0  0  0  0
  151.4165  139.2400  154.9420 H   0  0  0  0  0  0  0  0  0  0  0  0
  149.5453  142.4882  154.8759 H   0  0  0  0  0  0  0  0  0  0  0  0
  149.9846  141.1229  153.8738 H   0  0  0  0  0  0  0  0  0  0  0  0
  148.4124  139.6660  155.2212 H   0  0  0  0  0  0  0  0  0  0  0  0
  148.0905  142.0856  156.5384 H   0  0  0  0  0  0  0  0  0  0  0  0
  146.6638  141.9553  154.3977 H   0  0  0  0  0  0  0  0  0  0  0  0
  147.7288  141.3817  153.1416 H   0  0  0  0  0  0  0  0  0  0  0  0
  147.2919  139.4150  151.9949 H   0  0  0  0  0  0  0  0  0  0  0  0
  147.7849  138.4907  153.3926 H   0  0  0  0  0  0  0  0  0  0  0  0
  145.1318  138.3129  151.8660 H   0  0  0  0  0  0  0  0  0  0  0  0
  146.3807  137.1025  151.8772 H   0  0  0  0  0  0  0  0  0  0  0  0
  144.3387  136.6430  153.3259 H   0  0  0  0  0  0  0  0  0  0  0  0
  147.9528  135.3037  154.3290 H   0  0  0  0  0  0  0  0  0  0  0  0
  147.6127  136.4929  153.0905 H   0  0  0  0  0  0  0  0  0  0  0  0
  143.8197  138.7701  154.1998 H   0  0  0  0  0  0  0  0  0  0  0  0
  144.2959  137.8256  155.5805 H   0  0  0  0  0  0  0  0  0  0  0  0
  146.5297  138.9195  155.6219 H   0  0  0  0  0  0  0  0  0  0  0  0
  145.2567  140.1102  155.6287 H   0  0  0  0  0  0  0  0  0  0  0  0
  149.7321  143.3912  157.2170 H   0  0  0  0  0  0  0  0  0  0  0  0
  149.7827  144.9178  159.0175 H   0  0  0  0  0  0  0  0  0  0  0  0
  151.3995  145.1954  159.6645 H   0  0  0  0  0  0  0  0  0  0  0  0
  150.2325  144.2230  160.5730 H   0  0  0  0  0  0  0  0  0  0  0  0
  145.5371  140.3533  153.2653 H   0  0  0  0  0  0  0  0  0  0  0  0
  1  2  1  0  0  0  0
  1 25  1  0  0  0  0
  1 26  1  0  0  0  0
  1 27  1  0  0  0  0
  2 23  1  0  0  0  0
  2  3  2  0  0  0  0
  3  4  1  0  0  0  0
  3 28  1  0  0  0  0
  4 21  2  0  0  0  0
  4  5  1  0  0  0  0
  5  6  2  0  0  0  0
  6  7  1  0  0  0  0
  6 29  1  0  0  0  0
  7  8  1  0  0  0  0
  7 21  1  0  0  0  0
  8  9  1  0  0  0  0
  8 30  1  0  0  0  0
  8 31  1  0  0  0  0
  9 10  1  0  0  0  0
  9 11  1  0  0  0  0
  9 32  1  0  0  0  0
 10 33  1  0  0  0  0
 11 12  1  0  0  0  0
 11 34  1  0  0  0  0
 11 35  1  0  0  0  0
 12 20  1  0  0  0  0
 12 13  1  0  0  0  0
 12 51  1  0  0  0  0
 13 14  1  0  0  0  0
 13 36  1  0  0  0  0
 13 37  1  0  0  0  0
 14 15  1  0  0  0  0
 14 38  1  0  0  0  0
 14 39  1  0  0  0  0
 15 16  1  0  0  0  0
 15 19  1  0  0  0  0
 15 40  1  0  0  0  0
 16 17  1  0  0  0  0
 16 18  2  0  0  0  0
 17 41  1  0  0  0  0
 17 42  1  0  0  0  0
 19 20  1  0  0  0  0
 19 43  1  0  0  0  0
 19 44  1  0  0  0  0
 20 45  1  0  0  0  0
 20 46  1  0  0  0  0
 21 22  1  0  0  0  0
 22 23  2  0  0  0  0
 22 47  1  0  0  0  0
 23 24  1  0  0  0  0
 24 48  1  0  0  0  0
 24 49  1  0  0  0  0
 24 50  1  0  0  0  0
M  CHG  1  12   1
M  END
> <s_m_source_file>
AV-unprocessed.smi

> <i_m_source_file_index>
1695

> <i_lp_mmshare_version>
43012

> <i_f3d_flags>
0

> <s_epik_input>
W0NIM11jKFtjSF0xKWMoW0NIM10pW2NIXWMoYzEyKW4oW2NIXW4yKVtDSDJdW0NASF0oW09IXSlbQ0gyXU4zW0NIMl1bQ0gyXVtDSF0oQyg9TylbTkgyXSlbQ0gyXVtDSDJdMw==

> <s_epik_cmdline>
J2VwaWtfcHl0aG9uJywgJy1waCcsICc3LjAnLCAnLXRuJywgJzgnLCAnLW1hJywgJzIwMCcsICctbWV0YWxfYmluZGluZycsICctaW1hZScsICc8aW5maWxlLm1hZT4nLCAnLW9tYWUnLCAnPG91dGZpbGUubWFlPic=

> <r_epik_Ionization_Penalty>
0.113899

> <r_epik_Ionization_Penalty_Charging>
0.0258844

> <r_epik_Ionization_Penalty_Neutral>
0.0880147

> <r_epik_State_Penalty>
0.0974403

> <r_epik_Charging_Adjusted_Penalty>
0.123325

> <i_epik_Tot_Q>
1

> <i_epik_Tot_abs_Q>
1

> <r_epik_Metal_State_Penalty>
0.0851148

> <b_epik_Metal_Only>
0

> <s_lp_Force_Field>
OPLS_2005

> <r_lp_Energy>
15.764

> <b_lp_Chiralities_Consistent>
1

> <s_lp_Variant>
AV-unprocessed.smi:1695-2

> <Gold.Version>
5.8.1

> <Gold.Id.Protein>
6NUR|6NUR_protein|mol2

> <Gold.PLP.Fitness>
48.2822

> <Gold.PLP.PLP>
-39.3397

> <Gold.PLP.part.hbond>
-3.0000

> <Gold.PLP.part.metal>
0.0000

> <Gold.PLP.part.buried>
-3.6278

> <Gold.PLP.part.nonpolar>
-33.3922

> <Gold.PLP.part.repulsive>
0.0106

> <Gold.PLP.ligand.clash>
0.0000

> <Gold.PLP.ligand.torsion>
1.0100

> <Gold.PLP.Chemscore.Hbond>
3.6240

> <Gold.PLP.Chemscore.CHOScore>
0.0000

> <Gold.PLP.Chemscore.Metal>
0.0000

> <Gold.Chemscore.Hbonds>
donor molecule, donor type, donor heavy atom, donor atom, acceptor molecule, acceptor atom, score
      L1  H    12    51       P1 10175  2.00
      L1  H    17    42       P1  7948  0.66
      P1  H  7997  8010       L1     5  0.83

> <Gold.PLP.Chemscore.Internal.Correction>
0.0904

> <Gold.Rescore>
     Score         DG    S(hbond)    S(metal)    S(lipo)     H(rot)  DE(clash)    DE(int)     intcor
     17.24     -18.46       2.41        0.00     104.47       2.85       0.24       0.97       ----

> <Gold.Chemscore.Fitness>
17.2397

> <Gold.Chemscore.DG>
-18.4584

> <Gold.Chemscore.ZeroCoef>
-5.4800

> <Gold.Chemscore.Hbond>
2.4080

> <Gold.Chemscore.Metal>
0.0000

> <Gold.Chemscore.Lipo>
104.4652

> <Gold.Chemscore.Internal_Hbond>
0.0000

> <Gold.Chemscore.DEClash>
0.2439

> <Gold.Chemscore.DEInternal>
0.9748

> <Gold.Chemscore.Rot>
2.8464

> <Gold.Chemscore.Internal.Correction>
   9.000000E+99

> <Gold.Chemscore.Hbonds>
donor molecule, donor type, donor heavy atom, donor atom, acceptor molecule, acceptor atom, score
      L1  H    12    51       P1 10175  0.92
      L1  H    17    42       P1  7948  0.64
      P1  H  7997  8010       L1     5  0.23

> <Gold.Chemscore.Hbond.Weighted>
-8.0427

> <Gold.Chemscore.Metal.Weighted>
-0.0000

> <Gold.Chemscore.Lipo.Weighted>
-12.2224

> <Gold.Chemscore.Internal_Hbond.Weighted>
0.0000

> <Gold.Chemscore.DEClash.Weighted>
0.2439

> <Gold.Chemscore.DEInternal.Weighted>
0.9748

> <Gold.Chemscore.Rot.Weighted>
7.2867

> <Gold.Chemscore.Internal.Correction.Weighted>
   9.000000E+99

> <Gold.Protein.RotatedTorsions>
[ 6907 6896 6895 6894 ] final    5.60 input  -60.11 | X-H torsion
[ 7974 7965 7964 7962 ] final   54.29 input  175.53 | X-H torsion
[ 8008 7997 7996 7995 ] final   81.33 input   59.86 | X-H torsion
[ 10167 10162 10161 10158 ] final -165.66 input  -65.29 | X-H torsion
[ 10718 10713 10712 10709 ] final  -52.98 input   66.30 | X-H torsion
[ 10763 10752 10751 10750 ] final  -68.74 input  -60.55 | X-H torsion
[ 11005 11000 10999 10996 ] final -113.95 input  -57.11 | X-H torsion

> <Gold.Protein.ActiveResidues>
 VAL166  LYS551  ARG553  GLY616  TRP617  ASP618  TYR619  PRO620  LYS621  CYS622 
 ASP623  PHE694  ASN695  SER759  ASP760  ASP761  ALA762  ILE779  LEU786  VAL792 
 PHE793  MET794  SER795  GLU796  ALA797  LYS798  CYS799  TRP800  GLU811  SER814 

> <Gold.Protein.RotatedAtoms>
  151.6601  135.0990  160.0177 H   0  0  0  0  0  0  0  0  0  0  0  0  # atno 6907 bound_to 6896
  152.3951  133.6731  159.6278 H   0  0  0  0  0  0  0  0  0  0  0  0  # atno 6908 bound_to 6896
  150.7860  133.8804  159.3325 H   0  0  0  0  0  0  0  0  0  0  0  0  # atno 6909 bound_to 6896
  145.9623  139.4071  143.0240 H   0  0  0  0  0  0  0  0  0  0  0  0  # atno 7974 bound_to 7965
  155.8957  140.3436  155.5989 H   0  0  0  0  0  0  0  0  0  0  0  0  # atno 8008 bound_to 7997
  155.7559  140.0826  157.2198 H   0  0  0  0  0  0  0  0  0  0  0  0  # atno 8009 bound_to 7997
  154.4038  140.1545  156.2764 H   0  0  0  0  0  0  0  0  0  0  0  0  # atno 8010 bound_to 7997
  139.6167  144.0706  152.1894 H   0  0  0  0  0  0  0  0  0  0  0  0  # atno 10167 bound_to 10162
  156.1574  130.4150  149.9846 H   0  0  0  0  0  0  0  0  0  0  0  0  # atno 10718 bound_to 10713
  154.3934  135.6047  153.5856 H   0  0  0  0  0  0  0  0  0  0  0  0  # atno 10763 bound_to 10752
  152.9787  135.5889  154.4270 H   0  0  0  0  0  0  0  0  0  0  0  0  # atno 10764 bound_to 10752
  154.4057  135.2843  155.2046 H   0  0  0  0  0  0  0  0  0  0  0  0  # atno 10765 bound_to 10752
  141.0582  133.9577  157.2715 H   0  0  0  0  0  0  0  0  0  0  0  0  # atno 11005 bound_to 11000
  145.8022  140.9765  143.0993 LP  0  0  0  0  0  0  0  0  0  0  0  0  # atno 17320 bound_to 7965
  144.6818  139.9816  143.7483 LP  0  0  0  0  0  0  0  0  0  0  0  0  # atno 17321 bound_to 7965
  140.0338  144.6060  150.7466 LP  0  0  0  0  0  0  0  0  0  0  0  0  # atno 17342 bound_to 10162
  140.7355  143.2742  151.3793 LP  0  0  0  0  0  0  0  0  0  0  0  0  # atno 17343 bound_to 10162
  156.7686  130.9177  151.3643 LP  0  0  0  0  0  0  0  0  0  0  0  0  # atno 17370 bound_to 10713
  157.6706  130.9047  150.0032 LP  0  0  0  0  0  0  0  0  0  0  0  0  # atno 17371 bound_to 10713
  139.9409  135.0191  156.8705 LP  0  0  0  0  0  0  0  0  0  0  0  0  # atno 17394 bound_to 11000
  140.5921  134.0252  155.7503 LP  0  0  0  0  0  0  0  0  0  0  0  0  # atno 17395 bound_to 11000

$$$$
