AV-unprocessed.smi:2224|AV-procd|sdf|8995|dock10
  -GOLD-   2272012203D 1   1.00000     0.00000
 Structure written by MMmdl.
 44 46  0  0  0  0  0  0  0  0  1 V2000
  148.7954  130.2563  153.4197 C   0  0  0  0  0  0  0  0  0  0  0  0
  149.5622  131.3197  154.1774 C   0  0  0  0  0  0  0  0  0  0  0  0
  150.5532  130.9690  155.1143 C   0  0  0  0  0  0  0  0  0  0  0  0
  151.2267  132.0062  155.7890 C   0  0  0  0  0  0  0  0  0  0  0  0
  152.3052  131.7012  156.8071 C   0  0  0  0  0  0  0  0  0  0  0  0
  150.9653  133.3141  155.5784 N   0  0  0  0  0  0  0  0  0  0  0  0
  150.0132  133.6633  154.6784 C   0  0  0  0  0  0  0  0  0  0  0  0
  149.6674  135.0075  154.3793 N   0  0  0  0  0  0  0  0  0  0  0  0
  149.7598  136.0863  155.1765 C   0  0  0  0  0  0  0  0  0  0  0  0
  150.1304  136.0769  156.3507 O   0  0  0  0  0  0  0  0  0  0  0  0
  149.3875  137.1994  154.5296 N   0  0  0  0  0  0  0  0  0  0  0  0
  149.3519  138.5317  155.1254 C   0  0  2  0  0  0  0  0  0  0  0  0
  148.9496  139.6135  154.1105 C   0  0  1  0  0  0  0  0  0  0  0  0
  147.6575  140.3646  154.2859 C   0  0  0  0  0  0  0  0  0  0  0  0
  148.0991  141.6382  155.0123 C   0  0  0  0  0  0  0  0  0  0  0  0
  149.3372  141.2900  155.6270 O   0  0  0  0  0  0  0  0  0  0  0  0
  150.0556  140.4678  154.7102 C   0  0  1  0  0  0  0  0  0  0  0  0
  150.7361  139.2110  155.2925 C   0  0  0  0  0  0  0  0  0  0  0  0
  151.2581  139.3373  156.7250 C   0  0  0  0  0  0  0  0  0  0  0  0
  151.8985  138.6750  154.4441 C   0  0  0  0  0  0  0  0  0  0  0  0
  149.2929  132.6854  153.9563 C   0  0  0  0  0  0  0  0  0  0  0  0
  149.0808  129.2548  153.7430 H   0  0  0  0  0  0  0  0  0  0  0  0
  148.9910  130.3396  152.3504 H   0  0  0  0  0  0  0  0  0  0  0  0
  147.7241  130.3743  153.5838 H   0  0  0  0  0  0  0  0  0  0  0  0
  150.7911  129.9337  155.3106 H   0  0  0  0  0  0  0  0  0  0  0  0
  152.3890  130.6287  156.9851 H   0  0  0  0  0  0  0  0  0  0  0  0
  152.0800  132.1864  157.7572 H   0  0  0  0  0  0  0  0  0  0  0  0
  153.2709  132.0651  156.4555 H   0  0  0  0  0  0  0  0  0  0  0  0
  149.3120  135.1669  153.4485 H   0  0  0  0  0  0  0  0  0  0  0  0
  149.0980  137.1209  153.5660 H   0  0  0  0  0  0  0  0  0  0  0  0
  148.7522  138.5879  156.0367 H   0  0  0  0  0  0  0  0  0  0  0  0
  149.1773  139.3317  153.0809 H   0  0  0  0  0  0  0  0  0  0  0  0
  147.1716  140.5921  153.3369 H   0  0  0  0  0  0  0  0  0  0  0  0
  146.9550  139.7944  154.8945 H   0  0  0  0  0  0  0  0  0  0  0  0
  148.2720  142.4456  154.2991 H   0  0  0  0  0  0  0  0  0  0  0  0
  147.3690  141.9807  155.7459 H   0  0  0  0  0  0  0  0  0  0  0  0
  150.6314  141.0321  153.9750 H   0  0  0  0  0  0  0  0  0  0  0  0
  152.0884  140.0413  156.7880 H   0  0  0  0  0  0  0  0  0  0  0  0
  151.6069  138.3786  157.1103 H   0  0  0  0  0  0  0  0  0  0  0  0
  150.4834  139.6909  157.4059 H   0  0  0  0  0  0  0  0  0  0  0  0
  152.7458  139.3614  154.4529 H   0  0  0  0  0  0  0  0  0  0  0  0
  151.6103  138.5376  153.4016 H   0  0  0  0  0  0  0  0  0  0  0  0
  152.2560  137.7124  154.8113 H   0  0  0  0  0  0  0  0  0  0  0  0
  148.5374  132.9765  153.2408 H   0  0  0  0  0  0  0  0  0  0  0  0
  1  2  1  0  0  0  0
  1 22  1  0  0  0  0
  1 23  1  0  0  0  0
  1 24  1  0  0  0  0
  2 21  1  0  0  0  0
  2  3  2  0  0  0  0
  3  4  1  0  0  0  0
  3 25  1  0  0  0  0
  4  5  1  0  0  0  0
  4  6  2  0  0  0  0
  5 26  1  0  0  0  0
  5 27  1  0  0  0  0
  5 28  1  0  0  0  0
  6  7  1  0  0  0  0
  7  8  1  0  0  0  0
  7 21  2  0  0  0  0
  8  9  1  0  0  0  0
  8 29  1  0  0  0  0
  9 10  2  0  0  0  0
  9 11  1  0  0  0  0
 11 12  1  0  0  0  0
 11 30  1  0  0  0  0
 12 18  1  0  0  0  0
 12 13  1  0  0  0  0
 12 31  1  0  0  0  0
 13 17  1  0  0  0  0
 13 14  1  0  0  0  0
 13 32  1  0  0  0  0
 14 15  1  0  0  0  0
 14 33  1  0  0  0  0
 14 34  1  0  0  0  0
 15 16  1  0  0  0  0
 15 35  1  0  0  0  0
 15 36  1  0  0  0  0
 16 17  1  0  0  0  0
 17 18  1  0  0  0  0
 17 37  1  0  0  0  0
 18 19  1  0  0  0  0
 18 20  1  0  0  0  0
 19 38  1  0  0  0  0
 19 39  1  0  0  0  0
 19 40  1  0  0  0  0
 20 41  1  0  0  0  0
 20 42  1  0  0  0  0
 20 43  1  0  0  0  0
 21 44  1  0  0  0  0
M  END
> <s_m_source_file>
AV-unprocessed.smi

> <i_m_source_file_index>
2224

> <i_lp_mmshare_version>
43012

> <i_f3d_flags>
0

> <s_epik_input>
W0NIM11jMVtjSF1jKFtDSDNdKW5jKFtjSF0xKVtOSF1DKD1PKVtOSF1bQ0BIXTJDKFtDSDNdKShbQ0gzXSlbQ0BIXShbQ0BASF0yMylPW0NIMl1bQ0gyXTM=

> <s_epik_cmdline>
J2VwaWtfcHl0aG9uJywgJy1waCcsICc3LjAnLCAnLXRuJywgJzgnLCAnLW1hJywgJzIwMCcsICctbWV0YWxfYmluZGluZycsICctaW1hZScsICc8aW5maWxlLm1hZT4nLCAnLW9tYWUnLCAnPG91dGZpbGUubWFlPic=

> <r_lp_tautomer_probability>
1

> <r_epik_Ionization_Penalty>
0.000276544

> <r_epik_Ionization_Penalty_Charging>
0

> <r_epik_Ionization_Penalty_Neutral>
0.000276544

> <r_epik_State_Penalty>
-0

> <r_epik_Charging_Adjusted_Penalty>
0

> <i_epik_Tot_Q>
0

> <i_epik_Tot_abs_Q>
0

> <r_epik_Metal_State_Penalty>
-0

> <b_epik_Metal_Only>
0

> <s_lp_Force_Field>
OPLS_2005

> <r_lp_Energy>
38.5894

> <b_lp_Chiralities_Consistent>
1

> <s_lp_Variant>
AV-unprocessed.smi:2224-5

> <Gold.Version>
5.8.1

> <Gold.Id.Protein>
6NUR|6NUR_protein|mol2

> <Gold.PLP.Fitness>
38.6360

> <Gold.PLP.PLP>
-33.3056

> <Gold.PLP.part.hbond>
-2.0000

> <Gold.PLP.part.metal>
0.0000

> <Gold.PLP.part.buried>
1.1392

> <Gold.PLP.part.nonpolar>
-31.4688

> <Gold.PLP.part.repulsive>
0.1652

> <Gold.PLP.ligand.clash>
0.0000

> <Gold.PLP.ligand.torsion>
0.2722

> <Gold.PLP.Chemscore.Hbond>
1.9000

> <Gold.PLP.Chemscore.CHOScore>
0.0000

> <Gold.PLP.Chemscore.Metal>
0.0000

> <Gold.Chemscore.Hbonds>
donor molecule, donor type, donor heavy atom, donor atom, acceptor molecule, acceptor atom, score
      L1  H     8    29       P1  7948  0.85
      L1  H    11    30       P1  7948  1.00

> <Gold.PLP.Chemscore.Internal.Correction>
0.1749

> <Gold.Rescore>
     Score         DG    S(hbond)    S(metal)    S(lipo)     H(rot)  DE(clash)    DE(int)     intcor
     15.38     -16.83       1.50        0.00      76.14       1.00       0.05       1.40       ----

> <Gold.Chemscore.Fitness>
15.3776

> <Gold.Chemscore.DG>
-16.8258

> <Gold.Chemscore.ZeroCoef>
-5.4800

> <Gold.Chemscore.Hbond>
1.4961

> <Gold.Chemscore.Metal>
0.0000

> <Gold.Chemscore.Lipo>
76.1423

> <Gold.Chemscore.Internal_Hbond>
0.0000

> <Gold.Chemscore.DEClash>
0.0469

> <Gold.Chemscore.DEInternal>
1.4013

> <Gold.Chemscore.Rot>
1.0000

> <Gold.Chemscore.Internal.Correction>
   9.000000E+99

> <Gold.Chemscore.Hbonds>
donor molecule, donor type, donor heavy atom, donor atom, acceptor molecule, acceptor atom, score
      L1  H     8    29       P1  7948  0.14
      L1  H    11    30       P1  7948  0.97

> <Gold.Chemscore.Hbond.Weighted>
-4.9971

> <Gold.Chemscore.Metal.Weighted>
-0.0000

> <Gold.Chemscore.Lipo.Weighted>
-8.9086

> <Gold.Chemscore.Internal_Hbond.Weighted>
0.0000

> <Gold.Chemscore.DEClash.Weighted>
0.0469

> <Gold.Chemscore.DEInternal.Weighted>
1.4013

> <Gold.Chemscore.Rot.Weighted>
2.5600

> <Gold.Chemscore.Internal.Correction.Weighted>
   9.000000E+99

> <Gold.Protein.RotatedTorsions>
[ 6907 6896 6895 6894 ] final  151.83 input  -60.11 | X-H torsion
[ 7974 7965 7964 7962 ] final  118.21 input  175.53 | X-H torsion
[ 8008 7997 7996 7995 ] final  -84.57 input   59.86 | X-H torsion
[ 10167 10162 10161 10158 ] final -141.59 input  -65.29 | X-H torsion
[ 10718 10713 10712 10709 ] final   99.46 input   66.30 | X-H torsion
[ 10763 10752 10751 10750 ] final  -64.26 input  -60.55 | X-H torsion
[ 11005 11000 10999 10996 ] final  125.30 input  -57.11 | X-H torsion

> <Gold.Protein.ActiveResidues>
 VAL166  LYS551  ARG553  GLY616  TRP617  ASP618  TYR619  PRO620  LYS621  CYS622 
 ASP623  PHE694  ASN695  SER759  ASP760  ASP761  ALA762  ILE779  LEU786  VAL792 
 PHE793  MET794  SER795  GLU796  ALA797  LYS798  CYS799  TRP800  GLU811  SER814 

> <Gold.Protein.RotatedAtoms>
  152.0952  133.4221  159.4561 H   0  0  0  0  0  0  0  0  0  0  0  0  # atno 6907 bound_to 6896
  150.6863  134.2826  159.4642 H   0  0  0  0  0  0  0  0  0  0  0  0  # atno 6908 bound_to 6896
  152.0681  134.9551  160.0625 H   0  0  0  0  0  0  0  0  0  0  0  0  # atno 6909 bound_to 6896
  145.1580  139.3171  143.4532 H   0  0  0  0  0  0  0  0  0  0  0  0  # atno 7974 bound_to 7965
  154.6313  140.0603  156.9735 H   0  0  0  0  0  0  0  0  0  0  0  0  # atno 8008 bound_to 7997
  155.1662  140.3287  155.4383 H   0  0  0  0  0  0  0  0  0  0  0  0  # atno 8009 bound_to 7997
  156.2484  140.1922  156.6766 H   0  0  0  0  0  0  0  0  0  0  0  0  # atno 8010 bound_to 7997
  139.8170  143.7625  152.2665 H   0  0  0  0  0  0  0  0  0  0  0  0  # atno 10167 bound_to 10162
  157.6875  131.0670  150.4951 H   0  0  0  0  0  0  0  0  0  0  0  0  # atno 10718 bound_to 10713
  154.3274  135.6183  153.5535 H   0  0  0  0  0  0  0  0  0  0  0  0  # atno 10763 bound_to 10752
  152.9814  135.5738  154.5000 H   0  0  0  0  0  0  0  0  0  0  0  0  # atno 10764 bound_to 10752
  154.4680  135.2858  155.1640 H   0  0  0  0  0  0  0  0  0  0  0  0  # atno 10765 bound_to 10752
  139.9400  134.9636  156.8537 H   0  0  0  0  0  0  0  0  0  0  0  0  # atno 11005 bound_to 11000
  146.3486  140.1680  142.8590 LP  0  0  0  0  0  0  0  0  0  0  0  0  # atno 17320 bound_to 7965
  145.0361  140.8909  143.5080 LP  0  0  0  0  0  0  0  0  0  0  0  0  # atno 17321 bound_to 7965
  139.7792  144.7450  151.0113 LP  0  0  0  0  0  0  0  0  0  0  0  0  # atno 17342 bound_to 10162
  140.7815  143.4560  151.0344 LP  0  0  0  0  0  0  0  0  0  0  0  0  # atno 17343 bound_to 10162
  156.5276  130.4177  149.6218 LP  0  0  0  0  0  0  0  0  0  0  0  0  # atno 17370 bound_to 10713
  156.3098  130.7223  151.2113 LP  0  0  0  0  0  0  0  0  0  0  0  0  # atno 17371 bound_to 10713
  140.5977  134.0201  155.7525 LP  0  0  0  0  0  0  0  0  0  0  0  0  # atno 17394 bound_to 11000
  141.1030  133.9738  157.3046 LP  0  0  0  0  0  0  0  0  0  0  0  0  # atno 17395 bound_to 11000

$$$$
