AV-unprocessed.smi:2902|AV-procd|sdf|11151|dock6
  -GOLD-   2272016 33D 1   1.00000     0.00000
 Structure written by MMmdl.
 47 48  0  0  0  0  0  0  0  0  1 V2000
  151.3413  140.1461  156.1297 C   0  0  0  0  0  0  0  0  0  0  0  0
  150.9346  138.8218  156.7880 C   0  0  0  0  0  0  0  0  0  0  0  0
  150.7524  138.9462  158.3123 C   0  0  2  0  0  0  0  0  0  0  0  0
  151.9913  139.3975  158.8639 O   0  0  0  0  0  0  0  0  0  0  0  0
  151.9917  140.6650  159.5181 C   0  0  0  0  0  0  0  0  0  0  0  0
  151.7673  141.8485  158.5723 C   0  0  0  0  0  0  0  0  0  0  0  0
  152.3883  143.0501  159.2935 C   0  0  0  0  0  0  0  0  0  0  0  0
  153.4033  142.4746  160.2943 C   0  0  0  0  0  0  0  0  0  0  0  0
  153.3697  140.9537  160.1098 C   0  0  0  0  0  0  0  0  0  0  0  0
  150.3405  137.6047  158.9405 C   0  0  0  0  0  0  0  0  0  0  0  0
  150.9632  137.1475  159.8991 O   0  0  0  0  0  0  0  0  0  0  0  0
  149.2706  137.0021  158.3986 N   0  0  0  0  0  0  0  0  0  0  0  0
  148.6566  135.7649  158.8747 C   0  0  2  0  0  0  0  0  0  0  0  0
  148.4962  134.7845  157.6968 C   0  0  0  0  0  0  0  0  0  0  0  0
  147.3213  136.0808  159.5966 C   0  0  2  0  0  0  0  0  0  0  0  0
  146.6239  137.3430  159.0548 C   0  0  0  0  0  0  0  0  0  0  0  0
  147.5042  136.1958  161.0367 N   0  0  0  0  0  0  0  0  0  0  0  0
  147.9442  135.3098  161.9336 C   0  0  0  0  0  0  0  0  0  0  0  0
  147.9814  135.7749  163.1743 N   0  0  0  0  0  0  0  0  0  0  0  0
  147.5232  137.0430  162.9555 C   0  0  0  0  0  0  0  0  0  0  0  0
  147.2253  137.3474  161.6923 N   0  0  0  0  0  0  0  0  0  0  0  0
  151.4577  140.0237  155.0528 H   0  0  0  0  0  0  0  0  0  0  0  0
  152.2890  140.5109  156.5268 H   0  0  0  0  0  0  0  0  0  0  0  0
  150.5884  140.9166  156.2975 H   0  0  0  0  0  0  0  0  0  0  0  0
  150.0049  138.4788  156.3316 H   0  0  0  0  0  0  0  0  0  0  0  0
  151.6850  138.0628  156.5626 H   0  0  0  0  0  0  0  0  0  0  0  0
  149.9710  139.6839  158.5017 H   0  0  0  0  0  0  0  0  0  0  0  0
  151.2640  140.6947  160.3296 H   0  0  0  0  0  0  0  0  0  0  0  0
  152.2979  141.6736  157.6352 H   0  0  0  0  0  0  0  0  0  0  0  0
  150.7150  142.0054  158.3333 H   0  0  0  0  0  0  0  0  0  0  0  0
  152.8563  143.7369  158.5879 H   0  0  0  0  0  0  0  0  0  0  0  0
  151.6183  143.6069  159.8289 H   0  0  0  0  0  0  0  0  0  0  0  0
  154.4056  142.8739  160.1375 H   0  0  0  0  0  0  0  0  0  0  0  0
  153.1042  142.7341  161.3106 H   0  0  0  0  0  0  0  0  0  0  0  0
  153.5490  140.4128  161.0392 H   0  0  0  0  0  0  0  0  0  0  0  0
  154.1436  140.6573  159.4005 H   0  0  0  0  0  0  0  0  0  0  0  0
  148.8260  137.4540  157.6127 H   0  0  0  0  0  0  0  0  0  0  0  0
  149.3248  135.3031  159.6041 H   0  0  0  0  0  0  0  0  0  0  0  0
  148.1170  133.8167  158.0249 H   0  0  0  0  0  0  0  0  0  0  0  0
  149.4514  134.6017  157.2034 H   0  0  0  0  0  0  0  0  0  0  0  0
  147.8058  135.1758  156.9490 H   0  0  0  0  0  0  0  0  0  0  0  0
  146.6447  135.2416  159.4229 H   0  0  0  0  0  0  0  0  0  0  0  0
  146.3399  137.2281  158.0090 H   0  0  0  0  0  0  0  0  0  0  0  0
  147.2697  138.2182  159.1301 H   0  0  0  0  0  0  0  0  0  0  0  0
  145.7108  137.5544  159.6123 H   0  0  0  0  0  0  0  0  0  0  0  0
  148.2416  134.3047  161.6735 H   0  0  0  0  0  0  0  0  0  0  0  0
  147.4070  137.7640  163.7513 H   0  0  0  0  0  0  0  0  0  0  0  0
  1  2  1  0  0  0  0
  1 22  1  0  0  0  0
  1 23  1  0  0  0  0
  1 24  1  0  0  0  0
  2  3  1  0  0  0  0
  2 25  1  0  0  0  0
  2 26  1  0  0  0  0
  3  4  1  0  0  0  0
  3 10  1  0  0  0  0
  3 27  1  0  0  0  0
  4  5  1  0  0  0  0
  5  9  1  0  0  0  0
  5  6  1  0  0  0  0
  5 28  1  0  0  0  0
  6  7  1  0  0  0  0
  6 29  1  0  0  0  0
  6 30  1  0  0  0  0
  7  8  1  0  0  0  0
  7 31  1  0  0  0  0
  7 32  1  0  0  0  0
  8  9  1  0  0  0  0
  8 33  1  0  0  0  0
  8 34  1  0  0  0  0
  9 35  1  0  0  0  0
  9 36  1  0  0  0  0
 10 11  2  0  0  0  0
 10 12  1  0  0  0  0
 12 13  1  0  0  0  0
 12 37  1  0  0  0  0
 13 14  1  0  0  0  0
 13 15  1  0  0  0  0
 13 38  1  0  0  0  0
 14 39  1  0  0  0  0
 14 40  1  0  0  0  0
 14 41  1  0  0  0  0
 15 16  1  0  0  0  0
 15 17  1  0  0  0  0
 15 42  1  0  0  0  0
 16 43  1  0  0  0  0
 16 44  1  0  0  0  0
 16 45  1  0  0  0  0
 17 21  1  0  0  0  0
 17 18  1  0  0  0  0
 18 19  2  0  0  0  0
 18 46  1  0  0  0  0
 19 20  1  0  0  0  0
 20 21  2  0  0  0  0
 20 47  1  0  0  0  0
M  END
> <s_m_source_file>
AV-unprocessed.smi

> <i_m_source_file_index>
2902

> <i_lp_mmshare_version>
43012

> <i_f3d_flags>
0

> <s_epik_input>
W0NIMl0xW0NIMl1bQ0gyXVtDSDJdW0NIXTFPW0NAQEhdKFtDSDJdW0NIM10pQyg9TylbTkhdW0NASF0oW0NIM10pW0NASF0oW0NIM10pbjJbY0hdbltjSF1uMg==

> <s_epik_cmdline>
J2VwaWtfcHl0aG9uJywgJy1waCcsICc3LjAnLCAnLXRuJywgJzgnLCAnLW1hJywgJzIwMCcsICctbWV0YWxfYmluZGluZycsICctaW1hZScsICc8aW5maWxlLm1hZT4nLCAnLW9tYWUnLCAnPG91dGZpbGUubWFlPic=

> <r_lp_tautomer_probability>
1

> <r_epik_Ionization_Penalty>
6.95617e-05

> <r_epik_Ionization_Penalty_Charging>
0

> <r_epik_Ionization_Penalty_Neutral>
6.95617e-05

> <r_epik_State_Penalty>
-0

> <r_epik_Charging_Adjusted_Penalty>
0

> <i_epik_Tot_Q>
0

> <i_epik_Tot_abs_Q>
0

> <r_epik_Metal_State_Penalty>
-0

> <b_epik_Metal_Only>
0

> <s_lp_Force_Field>
OPLS_2005

> <r_lp_Energy>
29.4531

> <b_lp_Chiralities_Consistent>
1

> <s_lp_Variant>
AV-unprocessed.smi:2902-1

> <Gold.Version>
5.8.1

> <Gold.Id.Protein>
6NUR|6NUR_protein|mol2

> <Gold.PLP.Fitness>
37.6652

> <Gold.PLP.PLP>
-35.8384

> <Gold.PLP.part.hbond>
-3.1470

> <Gold.PLP.part.metal>
0.0000

> <Gold.PLP.part.buried>
-3.7178

> <Gold.PLP.part.nonpolar>
-28.4206

> <Gold.PLP.part.repulsive>
0.1263

> <Gold.PLP.ligand.clash>
0.0702

> <Gold.PLP.ligand.torsion>
1.9712

> <Gold.PLP.Chemscore.Hbond>
1.9100

> <Gold.PLP.Chemscore.CHOScore>
0.0000

> <Gold.PLP.Chemscore.Metal>
0.0000

> <Gold.Chemscore.Hbonds>
donor molecule, donor type, donor heavy atom, donor atom, acceptor molecule, acceptor atom, score
      P1  H  6896  6908       L1    11  0.99
      P1  H  6934  6947       L1    21  0.86

> <Gold.PLP.Chemscore.Internal.Correction>
0.1093

> <Gold.Rescore>
     Score         DG    S(hbond)    S(metal)    S(lipo)     H(rot)  DE(clash)    DE(int)     intcor
     11.18     -13.11       1.95        0.00      68.51       2.69       0.00       1.94       ----

> <Gold.Chemscore.Fitness>
11.1789

> <Gold.Chemscore.DG>
-13.1150

> <Gold.Chemscore.ZeroCoef>
-5.4800

> <Gold.Chemscore.Hbond>
1.9506

> <Gold.Chemscore.Metal>
0.0000

> <Gold.Chemscore.Lipo>
68.5071

> <Gold.Chemscore.Internal_Hbond>
0.0000

> <Gold.Chemscore.DEClash>
0.0000

> <Gold.Chemscore.DEInternal>
1.9361

> <Gold.Chemscore.Rot>
2.6935

> <Gold.Chemscore.Internal.Correction>
   9.000000E+99

> <Gold.Chemscore.Hbonds>
donor molecule, donor type, donor heavy atom, donor atom, acceptor molecule, acceptor atom, score
      P1  H  6896  6908       L1    11  0.87
      P1  H  6934  6947       L1    21  0.85

> <Gold.Chemscore.Hbond.Weighted>
-6.5150

> <Gold.Chemscore.Metal.Weighted>
-0.0000

> <Gold.Chemscore.Lipo.Weighted>
-8.0153

> <Gold.Chemscore.Internal_Hbond.Weighted>
0.0000

> <Gold.Chemscore.DEClash.Weighted>
0.0000

> <Gold.Chemscore.DEInternal.Weighted>
1.9361

> <Gold.Chemscore.Rot.Weighted>
6.8954

> <Gold.Chemscore.Internal.Correction.Weighted>
   9.000000E+99

> <Gold.Protein.RotatedTorsions>
[ 6907 6896 6895 6894 ] final -138.68 input  -60.11 | X-H torsion
[ 7974 7965 7964 7962 ] final  169.55 input  175.53 | X-H torsion
[ 8008 7997 7996 7995 ] final  116.78 input   59.86 | X-H torsion
[ 10167 10162 10161 10158 ] final   43.75 input  -65.29 | X-H torsion
[ 10718 10713 10712 10709 ] final  -13.40 input   66.30 | X-H torsion
[ 10763 10752 10751 10750 ] final -142.07 input  -60.55 | X-H torsion
[ 11005 11000 10999 10996 ] final   -8.52 input  -57.11 | X-H torsion

> <Gold.Protein.ActiveResidues>
 VAL166  LYS551  ARG553  GLY616  TRP617  ASP618  TYR619  PRO620  LYS621  CYS622 
 ASP623  PHE694  ASN695  SER759  ASP760  ASP761  ALA762  ILE779  LEU786  VAL792 
 PHE793  MET794  SER795  GLU796  ALA797  LYS798  CYS799  TRP800  GLU811  SER814 

> <Gold.Protein.RotatedAtoms>
  151.0381  133.5731  159.2653 H   0  0  0  0  0  0  0  0  0  0  0  0  # atno 6907 bound_to 6896
  151.2787  135.0706  159.9171 H   0  0  0  0  0  0  0  0  0  0  0  0  # atno 6908 bound_to 6896
  152.5358  134.0099  159.7987 H   0  0  0  0  0  0  0  0  0  0  0  0  # atno 6909 bound_to 6896
  144.7351  139.9071  143.6413 H   0  0  0  0  0  0  0  0  0  0  0  0  # atno 7974 bound_to 7965
  156.2458  140.2910  156.0576 H   0  0  0  0  0  0  0  0  0  0  0  0  # atno 8008 bound_to 7997
  155.1812  140.0404  157.2899 H   0  0  0  0  0  0  0  0  0  0  0  0  # atno 8009 bound_to 7997
  154.6259  140.2487  155.7500 H   0  0  0  0  0  0  0  0  0  0  0  0  # atno 8010 bound_to 7997
  140.3413  144.2467  150.6155 H   0  0  0  0  0  0  0  0  0  0  0  0  # atno 10167 bound_to 10162
  156.6308  130.4901  149.6130 H   0  0  0  0  0  0  0  0  0  0  0  0  # atno 10718 bound_to 10713
  154.8522  135.3506  154.5969 H   0  0  0  0  0  0  0  0  0  0  0  0  # atno 10763 bound_to 10752
  153.6578  135.6991  153.5192 H   0  0  0  0  0  0  0  0  0  0  0  0  # atno 10764 bound_to 10752
  153.2842  135.4254  155.1064 H   0  0  0  0  0  0  0  0  0  0  0  0  # atno 10765 bound_to 10752
  140.7243  133.8802  155.8844 H   0  0  0  0  0  0  0  0  0  0  0  0  # atno 11005 bound_to 11000
  146.1028  139.4025  143.0336 LP  0  0  0  0  0  0  0  0  0  0  0  0  # atno 17320 bound_to 7965
  145.7554  140.9956  143.1228 LP  0  0  0  0  0  0  0  0  0  0  0  0  # atno 17321 bound_to 7965
  140.5307  143.2244  151.8244 LP  0  0  0  0  0  0  0  0  0  0  0  0  # atno 17342 bound_to 10162
  139.4840  144.4724  151.9408 LP  0  0  0  0  0  0  0  0  0  0  0  0  # atno 17343 bound_to 10162
  156.2236  130.6752  151.1393 LP  0  0  0  0  0  0  0  0  0  0  0  0  # atno 17370 bound_to 10713
  157.7200  131.0687  150.6173 LP  0  0  0  0  0  0  0  0  0  0  0  0  # atno 17371 bound_to 10713
  140.9976  134.1194  157.4348 LP  0  0  0  0  0  0  0  0  0  0  0  0  # atno 17394 bound_to 11000
  139.8841  135.0059  156.6344 LP  0  0  0  0  0  0  0  0  0  0  0  0  # atno 17395 bound_to 11000

$$$$
