AV-unprocessed.smi:155|AV-procd|sdf|1269|dock6
  -GOLD-   2262018523D 1   1.00000     0.00000
 Structure written by MMmdl.
 63 66  0  0  0  0  0  0  0  0  2 V2000
  152.1108  144.7135  158.2452 C   0  0  0  0  0  0  0  0  0  0  0  0
  151.4214  143.4424  158.4398 N   0  0  0  0  0  0  0  0  0  0  0  0
  152.2625  142.5898  159.2691 C   0  0  0  0  0  0  0  0  0  0  0  0
  151.1623  142.7708  157.1670 C   0  0  0  0  0  0  0  0  0  0  0  0
  150.2730  141.5101  157.3025 C   0  0  0  0  0  0  0  0  0  0  0  0
  150.4288  140.5092  156.2128 N   0  3  2  0  0  0  0  0  0  0  0  0
  151.7930  139.9195  156.1143 C   0  0  0  0  0  0  0  0  0  0  0  0
  151.9524  138.8887  154.9766 C   0  0  0  0  0  0  0  0  0  0  0  0
  150.8386  137.8249  154.9080 C   0  0  0  0  0  0  0  0  0  0  0  0
  149.5038  138.4065  154.7452 N   0  0  0  0  0  0  0  0  0  0  0  0
  148.4307  137.7561  155.2651 C   0  0  0  0  0  0  0  0  0  0  0  0
  148.6290  136.9434  156.3359 N   0  0  0  0  0  0  0  0  0  0  0  0
  147.6072  136.2744  156.8778 C   0  0  0  0  0  0  0  0  0  0  0  0
  146.3232  136.2788  156.5171 N   0  0  0  0  0  0  0  0  0  0  0  0
  146.1117  137.1044  155.4530 C   0  0  0  0  0  0  0  0  0  0  0  0
  147.0976  137.8747  154.7720 C   0  0  0  0  0  0  0  0  0  0  0  0
  146.4955  138.6072  153.7538 N   0  0  0  0  0  0  0  0  0  0  0  0
  145.2355  138.2734  153.8160 C   0  0  0  0  0  0  0  0  0  0  0  0
  144.9187  137.3745  154.8070 N   0  0  0  0  0  0  0  0  0  0  0  0
  143.6021  136.8338  155.0957 C   0  0  0  0  0  0  0  0  0  0  0  0
  143.1280  135.8385  154.0186 C   0  0  1  0  0  0  0  0  0  0  0  0
  143.1173  134.5312  154.5601 O   0  0  0  0  0  0  0  0  0  0  0  0
  141.7198  136.1750  153.4949 C   0  0  2  0  0  0  0  0  0  0  0  0
  141.5014  137.6530  153.1606 C   0  0  0  0  0  0  0  0  0  0  0  0
  140.0080  137.8603  153.3661 C   0  0  0  0  0  0  0  0  0  0  0  0
  139.5480  136.5861  154.0776 C   0  0  0  0  0  0  0  0  0  0  0  0
  140.7468  135.9566  154.5047 O   0  0  0  0  0  0  0  0  0  0  0  0
  149.3346  139.6965  154.0727 C   0  0  0  0  0  0  0  0  0  0  0  0
  149.8130  140.9050  154.9164 C   0  0  0  0  0  0  0  0  0  0  0  0
  151.5063  145.4159  157.6731 H   0  0  0  0  0  0  0  0  0  0  0  0
  153.0598  144.5763  157.7244 H   0  0  0  0  0  0  0  0  0  0  0  0
  152.3197  145.1820  159.2076 H   0  0  0  0  0  0  0  0  0  0  0  0
  151.7668  141.6393  159.4698 H   0  0  0  0  0  0  0  0  0  0  0  0
  152.4615  143.0647  160.2304 H   0  0  0  0  0  0  0  0  0  0  0  0
  153.2187  142.3818  158.7861 H   0  0  0  0  0  0  0  0  0  0  0  0
  150.6833  143.4811  156.4910 H   0  0  0  0  0  0  0  0  0  0  0  0
  152.1050  142.5039  156.6893 H   0  0  0  0  0  0  0  0  0  0  0  0
  150.3931  141.0226  158.2692 H   0  0  0  0  0  0  0  0  0  0  0  0
  149.2314  141.8326  157.2797 H   0  0  0  0  0  0  0  0  0  0  0  0
  152.5322  140.7043  155.9634 H   0  0  0  0  0  0  0  0  0  0  0  0
  152.0291  139.4458  157.0679 H   0  0  0  0  0  0  0  0  0  0  0  0
  152.0285  139.4063  154.0200 H   0  0  0  0  0  0  0  0  0  0  0  0
  152.9117  138.3845  155.0972 H   0  0  0  0  0  0  0  0  0  0  0  0
  151.0272  137.1444  154.0771 H   0  0  0  0  0  0  0  0  0  0  0  0
  150.8719  137.2266  155.8199 H   0  0  0  0  0  0  0  0  0  0  0  0
  147.8542  135.6449  157.7203 H   0  0  0  0  0  0  0  0  0  0  0  0
  144.4975  138.6748  153.1365 H   0  0  0  0  0  0  0  0  0  0  0  0
  143.6244  136.3565  156.0761 H   0  0  0  0  0  0  0  0  0  0  0  0
  142.9038  137.6680  155.1726 H   0  0  0  0  0  0  0  0  0  0  0  0
  143.8326  135.8478  153.1859 H   0  0  0  0  0  0  0  0  0  0  0  0
  143.5286  134.5552  155.4106 H   0  0  0  0  0  0  0  0  0  0  0  0
  141.4738  135.5563  152.6295 H   0  0  0  0  0  0  0  0  0  0  0  0
  142.0546  138.2857  153.8558 H   0  0  0  0  0  0  0  0  0  0  0  0
  141.8270  137.9030  152.1506 H   0  0  0  0  0  0  0  0  0  0  0  0
  139.8243  138.7455  153.9757 H   0  0  0  0  0  0  0  0  0  0  0  0
  139.4818  137.9889  152.4197 H   0  0  0  0  0  0  0  0  0  0  0  0
  138.8855  136.7896  154.9191 H   0  0  0  0  0  0  0  0  0  0  0  0
  139.0249  135.9265  153.3838 H   0  0  0  0  0  0  0  0  0  0  0  0
  149.9017  139.6621  153.1421 H   0  0  0  0  0  0  0  0  0  0  0  0
  148.2996  139.8370  153.7597 H   0  0  0  0  0  0  0  0  0  0  0  0
  148.9446  141.5343  155.1148 H   0  0  0  0  0  0  0  0  0  0  0  0
  150.5071  141.5206  154.3432 H   0  0  0  0  0  0  0  0  0  0  0  0
  149.8533  139.7373  156.5185 H   0  0  0  0  0  0  0  0  0  0  0  0
  1  2  1  0  0  0  0
  1 30  1  0  0  0  0
  1 31  1  0  0  0  0
  1 32  1  0  0  0  0
  2  3  1  0  0  0  0
  2  4  1  0  0  0  0
  3 33  1  0  0  0  0
  3 34  1  0  0  0  0
  3 35  1  0  0  0  0
  4  5  1  0  0  0  0
  4 36  1  0  0  0  0
  4 37  1  0  0  0  0
  5  6  1  0  0  0  0
  5 38  1  0  0  0  0
  5 39  1  0  0  0  0
  6 29  1  0  0  0  0
  6  7  1  0  0  0  0
  6 63  1  0  0  0  0
  7  8  1  0  0  0  0
  7 40  1  0  0  0  0
  7 41  1  0  0  0  0
  8  9  1  0  0  0  0
  8 42  1  0  0  0  0
  8 43  1  0  0  0  0
  9 10  1  0  0  0  0
  9 44  1  0  0  0  0
  9 45  1  0  0  0  0
 10 11  1  0  0  0  0
 10 28  1  0  0  0  0
 11 16  1  0  0  0  0
 11 12  2  0  0  0  0
 12 13  1  0  0  0  0
 13 14  2  0  0  0  0
 13 46  1  0  0  0  0
 14 15  1  0  0  0  0
 15 19  1  0  0  0  0
 15 16  2  0  0  0  0
 16 17  1  0  0  0  0
 17 18  2  0  0  0  0
 18 19  1  0  0  0  0
 18 47  1  0  0  0  0
 19 20  1  0  0  0  0
 20 21  1  0  0  0  0
 20 48  1  0  0  0  0
 20 49  1  0  0  0  0
 21 22  1  0  0  0  0
 21 23  1  0  0  0  0
 21 50  1  0  0  0  0
 22 51  1  0  0  0  0
 23 27  1  0  0  0  0
 23 24  1  0  0  0  0
 23 52  1  0  0  0  0
 24 25  1  0  0  0  0
 24 53  1  0  0  0  0
 24 54  1  0  0  0  0
 25 26  1  0  0  0  0
 25 55  1  0  0  0  0
 25 56  1  0  0  0  0
 26 27  1  0  0  0  0
 26 57  1  0  0  0  0
 26 58  1  0  0  0  0
 28 29  1  0  0  0  0
 28 59  1  0  0  0  0
 28 60  1  0  0  0  0
 29 61  1  0  0  0  0
 29 62  1  0  0  0  0
M  CHG  1   6   1
M  END
> <s_m_source_file>
AV-unprocessed.smi

> <i_m_source_file_index>
155

> <i_lp_mmshare_version>
43012

> <i_f3d_flags>
0

> <s_epik_input>
W0NIM11OKFtDSDNdKVtDSDJdW0NIMl1OMVtDSDJdW0NIMl1bQ0gyXU4oW0NIMl1bQ0gyXTEpYyhuW2NIXW4yKWMoYzIzKW5bY0hdbjNbQ0gyXVtDQEhdKFtPSF0pW0NAQEhdNFtDSDJdW0NIMl1bQ0gyXU80

> <s_epik_cmdline>
J2VwaWtfcHl0aG9uJywgJy1waCcsICc3LjAnLCAnLXRuJywgJzgnLCAnLW1hJywgJzIwMCcsICctbWV0YWxfYmluZGluZycsICctaW1hZScsICc8aW5maWxlLm1hZT4nLCAnLW9tYWUnLCAnPG91dGZpbGUubWFlPic=

> <r_epik_Ionization_Penalty>
0.0619615

> <r_epik_Ionization_Penalty_Charging>
0.0161638

> <r_epik_Ionization_Penalty_Neutral>
0.0457976

> <r_epik_State_Penalty>
0.403408

> <r_epik_Charging_Adjusted_Penalty>
0.419572

> <i_epik_Tot_Q>
1

> <i_epik_Tot_abs_Q>
1

> <r_epik_Metal_State_Penalty>
0.404222

> <b_epik_Metal_Only>
0

> <s_lp_Force_Field>
OPLS_2005

> <r_lp_Energy>
55.2712

> <b_lp_Chiralities_Consistent>
1

> <s_lp_Variant>
AV-unprocessed.smi:155-3

> <Gold.Version>
5.8.1

> <Gold.Id.Protein>
6NUR|6NUR_protein|mol2

> <Gold.PLP.Fitness>
44.8578

> <Gold.PLP.PLP>
-42.0529

> <Gold.PLP.part.hbond>
-2.0000

> <Gold.PLP.part.metal>
0.0000

> <Gold.PLP.part.buried>
-4.3822

> <Gold.PLP.part.nonpolar>
-36.5837

> <Gold.PLP.part.repulsive>
0.3937

> <Gold.PLP.ligand.clash>
0.0000

> <Gold.PLP.ligand.torsion>
1.4687

> <Gold.PLP.Chemscore.Hbond>
0.8480

> <Gold.PLP.Chemscore.CHOScore>
1.0000

> <Gold.PLP.Chemscore.Metal>
0.0000

> <Gold.Chemscore.Hbonds>
donor molecule, donor type, donor heavy atom, donor atom, acceptor molecule, acceptor atom, score
      P1  H 11000 11005       L1    27  0.86
      L1  C    18    47       P1 10175  1.00

> <Gold.PLP.Chemscore.Internal.Correction>
0.1984

> <Gold.Rescore>
     Score         DG    S(hbond)    S(metal)    S(lipo)     H(rot)  DE(clash)    DE(int)     intcor
     11.34     -13.78       0.93        0.00     101.96       2.63       0.03       2.41       ----

> <Gold.Chemscore.Fitness>
11.3370

> <Gold.Chemscore.DG>
-13.7797

> <Gold.Chemscore.ZeroCoef>
-5.4800

> <Gold.Chemscore.Hbond>
0.9311

> <Gold.Chemscore.Metal>
0.0000

> <Gold.Chemscore.Lipo>
101.9560

> <Gold.Chemscore.Internal_Hbond>
0.0000

> <Gold.Chemscore.DEClash>
0.0296

> <Gold.Chemscore.DEInternal>
2.4131

> <Gold.Chemscore.Rot>
2.6324

> <Gold.Chemscore.Internal.Correction>
   9.000000E+99

> <Gold.Chemscore.Hbonds>
donor molecule, donor type, donor heavy atom, donor atom, acceptor molecule, acceptor atom, score
      P1  H 11000 11005       L1    27  0.31

> <Gold.Chemscore.Hbond.Weighted>
-3.1097

> <Gold.Chemscore.Metal.Weighted>
-0.0000

> <Gold.Chemscore.Lipo.Weighted>
-11.9288

> <Gold.Chemscore.Internal_Hbond.Weighted>
0.0000

> <Gold.Chemscore.DEClash.Weighted>
0.0296

> <Gold.Chemscore.DEInternal.Weighted>
2.4131

> <Gold.Chemscore.Rot.Weighted>
6.7389

> <Gold.Chemscore.Internal.Correction.Weighted>
   9.000000E+99

> <Gold.Protein.RotatedTorsions>
[ 6907 6896 6895 6894 ] final -170.32 input  -60.11 | X-H torsion
[ 7974 7965 7964 7962 ] final    5.86 input  175.53 | X-H torsion
[ 8008 7997 7996 7995 ] final   54.80 input   59.86 | X-H torsion
[ 10167 10162 10161 10158 ] final   27.43 input  -65.29 | X-H torsion
[ 10718 10713 10712 10709 ] final -168.55 input   66.30 | X-H torsion
[ 10763 10752 10751 10750 ] final -163.41 input  -60.55 | X-H torsion
[ 11005 11000 10999 10996 ] final   53.22 input  -57.11 | X-H torsion

> <Gold.Protein.ActiveResidues>
 VAL166  LYS551  ARG553  GLY616  TRP617  ASP618  TYR619  PRO620  LYS621  CYS622 
 ASP623  PHE694  ASN695  SER759  ASP760  ASP761  ALA762  ILE779  LEU786  VAL792 
 PHE793  MET794  SER795  GLU796  ALA797  LYS798  CYS799  TRP800  GLU811  SER814 

> <Gold.Protein.RotatedAtoms>
  151.5058  133.3495  159.2876 H   0  0  0  0  0  0  0  0  0  0  0  0  # atno 6907 bound_to 6896
  150.8744  134.8126  159.7189 H   0  0  0  0  0  0  0  0  0  0  0  0  # atno 6908 bound_to 6896
  152.4720  134.4947  159.9758 H   0  0  0  0  0  0  0  0  0  0  0  0  # atno 6909 bound_to 6896
  146.2438  140.0320  142.8389 H   0  0  0  0  0  0  0  0  0  0  0  0  # atno 7974 bound_to 7965
  155.4906  140.3471  155.4354 H   0  0  0  0  0  0  0  0  0  0  0  0  # atno 8008 bound_to 7997
  156.0979  140.1428  156.9534 H   0  0  0  0  0  0  0  0  0  0  0  0  # atno 8009 bound_to 7997
  154.4675  140.0912  156.7036 H   0  0  0  0  0  0  0  0  0  0  0  0  # atno 8010 bound_to 7997
  140.4939  144.0424  150.6307 H   0  0  0  0  0  0  0  0  0  0  0  0  # atno 10167 bound_to 10162
  156.6985  130.9187  151.3077 H   0  0  0  0  0  0  0  0  0  0  0  0  # atno 10718 bound_to 10713
  154.7124  135.3009  154.9176 H   0  0  0  0  0  0  0  0  0  0  0  0  # atno 10763 bound_to 10752
  154.0073  135.6699  153.4767 H   0  0  0  0  0  0  0  0  0  0  0  0  # atno 10764 bound_to 10752
  153.0766  135.5031  154.8331 H   0  0  0  0  0  0  0  0  0  0  0  0  # atno 10765 bound_to 10752
  140.0785  134.5371  155.8971 H   0  0  0  0  0  0  0  0  0  0  0  0  # atno 11005 bound_to 11000
  145.1146  140.9426  143.4636 LP  0  0  0  0  0  0  0  0  0  0  0  0  # atno 17320 bound_to 7965
  145.0541  139.3157  143.5913 LP  0  0  0  0  0  0  0  0  0  0  0  0  # atno 17321 bound_to 7965
  140.3700  143.2860  152.0288 LP  0  0  0  0  0  0  0  0  0  0  0  0  # atno 17342 bound_to 10162
  139.4857  144.6237  151.7206 LP  0  0  0  0  0  0  0  0  0  0  0  0  # atno 17343 bound_to 10162
  157.6982  130.9304  150.0706 LP  0  0  0  0  0  0  0  0  0  0  0  0  # atno 17370 bound_to 10713
  156.1746  130.3647  149.9118 LP  0  0  0  0  0  0  0  0  0  0  0  0  # atno 17371 bound_to 10713
  141.2038  133.6634  156.6084 LP  0  0  0  0  0  0  0  0  0  0  0  0  # atno 17394 bound_to 11000
  140.3523  134.7758  157.4475 LP  0  0  0  0  0  0  0  0  0  0  0  0  # atno 17395 bound_to 11000

$$$$
