AV-unprocessed.smi:254|AV-procd|sdf|1945|dock10
  -GOLD-   2262021 73D 1   1.00000     0.00000
 Structure written by MMmdl.
 50 53  0  0  0  0  0  0  0  0  1 V2000
  149.9572  132.9089  157.8156 O   0  0  0  0  0  0  0  0  0  0  0  0
  150.1825  133.7257  156.9241 C   0  0  0  0  0  0  0  0  0  0  0  0
  150.2040  135.2246  157.1600 C   0  0  0  0  0  0  0  0  0  0  0  0
  150.5377  135.7202  155.8301 N   0  0  0  0  0  0  0  0  0  0  0  0
  150.6746  137.0404  155.5425 C   0  0  0  0  0  0  0  0  0  0  0  0
  150.7953  137.4014  154.2378 N   0  0  0  0  0  0  0  0  0  0  0  0
  150.9359  138.6849  153.8981 C   0  0  0  0  0  0  0  0  0  0  0  0
  150.9782  139.7556  154.6908 N   0  0  0  0  0  0  0  0  0  0  0  0
  150.8513  139.4086  156.0026 C   0  0  0  0  0  0  0  0  0  0  0  0
  150.7023  138.0859  156.5138 C   0  0  0  0  0  0  0  0  0  0  0  0
  150.6181  138.1330  157.9008 N   0  0  0  0  0  0  0  0  0  0  0  0
  150.7130  139.4009  158.1897 C   0  0  0  0  0  0  0  0  0  0  0  0
  150.8380  140.2432  157.1082 N   0  0  0  0  0  0  0  0  0  0  0  0
  150.9592  141.6954  157.1465 C   0  0  0  0  0  0  0  0  0  0  0  0
  150.0628  142.3860  158.2092 C   0  0  2  0  0  0  0  0  0  0  0  0
  148.5703  142.2892  157.8097 C   0  0  0  0  0  0  0  0  0  0  0  0
  148.0092  141.0405  158.1564 O   0  0  0  0  0  0  0  0  0  0  0  0
  150.5158  143.8451  158.4934 C   0  0  2  0  0  0  0  0  0  0  0  0
  151.9988  143.9965  158.7928 C   0  0  0  0  0  0  0  0  0  0  0  0
  152.0640  145.3802  159.4297 C   0  0  0  0  0  0  0  0  0  0  0  0
  150.8179  145.5574  160.0933 O   0  0  0  0  0  0  0  0  0  0  0  0
  149.9369  144.4911  159.7565 C   0  0  0  0  0  0  0  0  0  0  0  0
  150.7021  134.6478  154.8588 C   0  0  0  0  0  0  0  0  0  0  0  0
  150.4465  133.4498  155.6419 N   0  0  0  0  0  0  0  0  0  0  0  0
  150.5322  132.1245  155.0326 C   0  0  0  0  0  0  0  0  0  0  0  0
  149.3624  131.8415  154.0731 C   0  0  0  0  0  0  0  0  0  0  0  0
  149.4832  132.6238  153.0015 F   0  0  0  0  0  0  0  0  0  0  0  0
  149.3639  130.5710  153.6705 F   0  0  0  0  0  0  0  0  0  0  0  0
  148.1999  132.1120  154.6669 F   0  0  0  0  0  0  0  0  0  0  0  0
  149.2263  135.5793  157.4885 H   0  0  0  0  0  0  0  0  0  0  0  0
  150.9639  135.4933  157.8947 H   0  0  0  0  0  0  0  0  0  0  0  0
  151.0266  138.8819  152.8400 H   0  0  0  0  0  0  0  0  0  0  0  0
  150.6894  139.7576  159.2090 H   0  0  0  0  0  0  0  0  0  0  0  0
  152.0048  141.9357  157.3428 H   0  0  0  0  0  0  0  0  0  0  0  0
  150.7540  142.0884  156.1509 H   0  0  0  0  0  0  0  0  0  0  0  0
  150.1894  141.8131  159.1292 H   0  0  0  0  0  0  0  0  0  0  0  0
  147.9884  143.0906  158.2664 H   0  0  0  0  0  0  0  0  0  0  0  0
  148.4614  142.3890  156.7297 H   0  0  0  0  0  0  0  0  0  0  0  0
  148.6926  140.4898  158.5071 H   0  0  0  0  0  0  0  0  0  0  0  0
  150.2591  144.4810  157.6451 H   0  0  0  0  0  0  0  0  0  0  0  0
  152.3192  143.2417  159.5124 H   0  0  0  0  0  0  0  0  0  0  0  0
  152.6397  143.9159  157.9165 H   0  0  0  0  0  0  0  0  0  0  0  0
  152.9023  145.4824  160.1188 H   0  0  0  0  0  0  0  0  0  0  0  0
  152.1590  146.1484  158.6614 H   0  0  0  0  0  0  0  0  0  0  0  0
  148.9204  144.8575  159.6130 H   0  0  0  0  0  0  0  0  0  0  0  0
  149.9296  143.7821  160.5857 H   0  0  0  0  0  0  0  0  0  0  0  0
  149.9804  134.7357  154.0456 H   0  0  0  0  0  0  0  0  0  0  0  0
  151.7144  134.6331  154.4523 H   0  0  0  0  0  0  0  0  0  0  0  0
  151.4759  132.0443  154.4914 H   0  0  0  0  0  0  0  0  0  0  0  0
  150.5659  131.3651  155.8154 H   0  0  0  0  0  0  0  0  0  0  0  0
  1  2  2  0  0  0  0
  2 24  1  0  0  0  0
  2  3  1  0  0  0  0
  3  4  1  0  0  0  0
  3 30  1  0  0  0  0
  3 31  1  0  0  0  0
  4  5  1  0  0  0  0
  4 23  1  0  0  0  0
  5 10  1  0  0  0  0
  5  6  2  0  0  0  0
  6  7  1  0  0  0  0
  7  8  2  0  0  0  0
  7 32  1  0  0  0  0
  8  9  1  0  0  0  0
  9 13  1  0  0  0  0
  9 10  2  0  0  0  0
 10 11  1  0  0  0  0
 11 12  2  0  0  0  0
 12 13  1  0  0  0  0
 12 33  1  0  0  0  0
 13 14  1  0  0  0  0
 14 15  1  0  0  0  0
 14 34  1  0  0  0  0
 14 35  1  0  0  0  0
 15 16  1  0  0  0  0
 15 18  1  0  0  0  0
 15 36  1  0  0  0  0
 16 17  1  0  0  0  0
 16 37  1  0  0  0  0
 16 38  1  0  0  0  0
 17 39  1  0  0  0  0
 18 22  1  0  0  0  0
 18 19  1  0  0  0  0
 18 40  1  0  0  0  0
 19 20  1  0  0  0  0
 19 41  1  0  0  0  0
 19 42  1  0  0  0  0
 20 21  1  0  0  0  0
 20 43  1  0  0  0  0
 20 44  1  0  0  0  0
 21 22  1  0  0  0  0
 22 45  1  0  0  0  0
 22 46  1  0  0  0  0
 23 24  1  0  0  0  0
 23 47  1  0  0  0  0
 23 48  1  0  0  0  0
 24 25  1  0  0  0  0
 25 26  1  0  0  0  0
 25 49  1  0  0  0  0
 25 50  1  0  0  0  0
 26 27  1  0  0  0  0
 26 28  1  0  0  0  0
 26 29  1  0  0  0  0
M  END
> <s_m_source_file>
AV-unprocessed.smi

> <i_m_source_file_index>
254

> <i_lp_mmshare_version>
43012

> <i_f3d_flags>
0

> <s_epik_input>
RkMoRikoRilbQ0gyXU4xW0NIMl1OKFtDSDJdQzE9TyljKG5bY0hdbjIpYyhjMjMpbltjSF1uM1tDSDJdW0NASF0oW0NIMl1bT0hdKVtDQEBIXTRbQ0gyXVtDSDJdT1tDSDJdNA==

> <s_epik_cmdline>
J2VwaWtfcHl0aG9uJywgJy1waCcsICc3LjAnLCAnLXRuJywgJzgnLCAnLW1hJywgJzIwMCcsICctbWV0YWxfYmluZGluZycsICctaW1hZScsICc8aW5maWxlLm1hZT4nLCAnLW9tYWUnLCAnPG91dGZpbGUubWFlPic=

> <r_lp_tautomer_probability>
1

> <r_epik_Ionization_Penalty>
0.000292924

> <r_epik_Ionization_Penalty_Charging>
0

> <r_epik_Ionization_Penalty_Neutral>
0.000292924

> <r_epik_State_Penalty>
-0

> <r_epik_Charging_Adjusted_Penalty>
0

> <i_epik_Tot_Q>
0

> <i_epik_Tot_abs_Q>
0

> <r_epik_Metal_State_Penalty>
-0

> <b_epik_Metal_Only>
0

> <s_epik_Chemistry_Notes>
This compound contains an acetal/aminal-like group ( X-CH(R)-Y where X, Y are N, S, or O) that may be acid/base labile, releasing an aldehyde.

> <s_lp_Force_Field>
OPLS_2005

> <r_lp_Energy>
38.7096

> <b_lp_Chiralities_Consistent>
1

> <s_lp_Variant>
AV-unprocessed.smi:254-1

> <Gold.Version>
5.8.1

> <Gold.Id.Protein>
6NUR|6NUR_protein|mol2

> <Gold.PLP.Fitness>
51.3458

> <Gold.PLP.PLP>
-44.7026

> <Gold.PLP.part.hbond>
-4.2746

> <Gold.PLP.part.metal>
0.0000

> <Gold.PLP.part.buried>
-7.2774

> <Gold.PLP.part.nonpolar>
-34.9428

> <Gold.PLP.part.repulsive>
0.8038

> <Gold.PLP.ligand.clash>
0.0000

> <Gold.PLP.ligand.torsion>
0.9738

> <Gold.PLP.Chemscore.Hbond>
1.7500

> <Gold.PLP.Chemscore.CHOScore>
1.0000

> <Gold.PLP.Chemscore.Metal>
0.0000

> <Gold.Chemscore.Hbonds>
donor molecule, donor type, donor heavy atom, donor atom, acceptor molecule, acceptor atom, score
      P1  H  6896  6909       L1     1  1.00
      P1  H  7989  7998       L1     8  0.80
      L1  C     7    32       P1  7957  0.73

> <Gold.PLP.Chemscore.Internal.Correction>
0.3408

> <Gold.Rescore>
     Score         DG    S(hbond)    S(metal)    S(lipo)     H(rot)  DE(clash)    DE(int)     intcor
      4.07      -7.62       0.64        0.00      72.07       3.30       0.66       2.88       ----

> <Gold.Chemscore.Fitness>
4.0728

> <Gold.Chemscore.DG>
-7.6156

> <Gold.Chemscore.ZeroCoef>
-5.4800

> <Gold.Chemscore.Hbond>
0.6422

> <Gold.Chemscore.Metal>
0.0000

> <Gold.Chemscore.Lipo>
72.0690

> <Gold.Chemscore.Internal_Hbond>
0.0000

> <Gold.Chemscore.DEClash>
0.6615

> <Gold.Chemscore.DEInternal>
2.8814

> <Gold.Chemscore.Rot>
3.2974

> <Gold.Chemscore.Internal.Correction>
   9.000000E+99

> <Gold.Chemscore.Hbonds>
donor molecule, donor type, donor heavy atom, donor atom, acceptor molecule, acceptor atom, score
      P1  H  6896  6909       L1     1  0.30
      P1  H  7989  7998       L1     8  0.12

> <Gold.Chemscore.Hbond.Weighted>
-2.1450

> <Gold.Chemscore.Metal.Weighted>
-0.0000

> <Gold.Chemscore.Lipo.Weighted>
-8.4321

> <Gold.Chemscore.Internal_Hbond.Weighted>
0.0000

> <Gold.Chemscore.DEClash.Weighted>
0.6615

> <Gold.Chemscore.DEInternal.Weighted>
2.8814

> <Gold.Chemscore.Rot.Weighted>
8.4414

> <Gold.Chemscore.Internal.Correction.Weighted>
   9.000000E+99

> <Gold.Protein.RotatedTorsions>
[ 6907 6896 6895 6894 ] final   -4.99 input  -60.11 | X-H torsion
[ 7974 7965 7964 7962 ] final -127.67 input  175.53 | X-H torsion
[ 8008 7997 7996 7995 ] final -108.09 input   59.86 | X-H torsion
[ 10167 10162 10161 10158 ] final -122.25 input  -65.29 | X-H torsion
[ 10718 10713 10712 10709 ] final  -95.82 input   66.30 | X-H torsion
[ 10763 10752 10751 10750 ] final -151.26 input  -60.55 | X-H torsion
[ 11005 11000 10999 10996 ] final   59.95 input  -57.11 | X-H torsion

> <Gold.Protein.ActiveResidues>
 VAL166  LYS551  ARG553  GLY616  TRP617  ASP618  TYR619  PRO620  LYS621  CYS622 
 ASP623  PHE694  ASN695  SER759  ASP760  ASP761  ALA762  ILE779  LEU786  VAL792 
 PHE793  MET794  SER795  GLU796  ALA797  LYS798  CYS799  TRP800  GLU811  SER814 

> <Gold.Protein.RotatedAtoms>
  151.4889  135.1056  159.9797 H   0  0  0  0  0  0  0  0  0  0  0  0  # atno 6907 bound_to 6896
  152.4749  133.8111  159.7014 H   0  0  0  0  0  0  0  0  0  0  0  0  # atno 6908 bound_to 6896
  150.8781  133.7348  159.2966 H   0  0  0  0  0  0  0  0  0  0  0  0  # atno 6909 bound_to 6896
  144.9747  140.7581  143.4649 H   0  0  0  0  0  0  0  0  0  0  0  0  # atno 7974 bound_to 7965
  154.9390  140.0403  157.2087 H   0  0  0  0  0  0  0  0  0  0  0  0  # atno 8008 bound_to 7997
  154.8087  140.2864  155.5847 H   0  0  0  0  0  0  0  0  0  0  0  0  # atno 8009 bound_to 7997
  156.2969  140.2541  156.2970 H   0  0  0  0  0  0  0  0  0  0  0  0  # atno 8010 bound_to 7997
  140.0162  143.5391  152.2241 H   0  0  0  0  0  0  0  0  0  0  0  0  # atno 10167 bound_to 10162
  156.0050  130.5125  150.6134 H   0  0  0  0  0  0  0  0  0  0  0  0  # atno 10718 bound_to 10713
  154.8069  135.3264  154.7408 H   0  0  0  0  0  0  0  0  0  0  0  0  # atno 10763 bound_to 10752
  153.8064  135.6899  153.4852 H   0  0  0  0  0  0  0  0  0  0  0  0  # atno 10764 bound_to 10752
  153.1820  135.4583  154.9985 H   0  0  0  0  0  0  0  0  0  0  0  0  # atno 10765 bound_to 10752
  140.0267  134.6073  155.9563 H   0  0  0  0  0  0  0  0  0  0  0  0  # atno 11005 bound_to 11000
  145.2507  139.2033  143.4944 LP  0  0  0  0  0  0  0  0  0  0  0  0  # atno 17320 bound_to 7965
  146.3392  140.2420  142.8596 LP  0  0  0  0  0  0  0  0  0  0  0  0  # atno 17321 bound_to 7965
  139.6171  144.7621  151.2823 LP  0  0  0  0  0  0  0  0  0  0  0  0  # atno 17342 bound_to 10162
  140.7361  143.6717  150.8076 LP  0  0  0  0  0  0  0  0  0  0  0  0  # atno 17343 bound_to 10162
  157.3962  131.0803  151.1349 LP  0  0  0  0  0  0  0  0  0  0  0  0  # atno 17370 bound_to 10713
  157.2025  130.6401  149.5744 LP  0  0  0  0  0  0  0  0  0  0  0  0  # atno 17371 bound_to 10713
  141.1807  133.6546  156.5007 LP  0  0  0  0  0  0  0  0  0  0  0  0  # atno 17394 bound_to 11000
  140.4295  134.7114  157.4934 LP  0  0  0  0  0  0  0  0  0  0  0  0  # atno 17395 bound_to 11000

$$$$
