AV-unprocessed.smi:229|AV-procd|sdf|1748|dock8
  -GOLD-   2262020263D 1   1.00000     0.00000
 Structure written by MMmdl.
 58 62  0  0  0  0  0  0  0  0  1 V2000
  152.4003  145.0922  158.3261 C   0  0  0  0  0  0  0  0  0  0  0  0
  152.5959  143.8165  159.1547 C   0  0  0  0  0  0  0  0  0  0  0  0
  151.5448  142.7392  158.8491 C   0  0  1  0  0  0  0  0  0  0  0  0
  150.1437  143.3437  158.6582 C   0  0  0  0  0  0  0  0  0  0  0  0
  149.2040  142.3037  158.2538 N   0  0  0  0  0  0  0  0  0  0  0  0
  147.8774  142.5803  158.3180 C   0  0  0  0  0  0  0  0  0  0  0  0
  147.0234  142.0389  157.4080 N   0  0  0  0  0  0  0  0  0  0  0  0
  145.7141  142.2984  157.4727 C   0  0  0  0  0  0  0  0  0  0  0  0
  145.0573  143.0623  158.3476 N   0  0  0  0  0  0  0  0  0  0  0  0
  145.9089  143.6153  159.2575 C   0  0  0  0  0  0  0  0  0  0  0  0
  147.3189  143.4279  159.3160 C   0  0  0  0  0  0  0  0  0  0  0  0
  147.8485  144.1563  160.3753 N   0  0  0  0  0  0  0  0  0  0  0  0
  146.8105  144.7328  160.9172 C   0  0  0  0  0  0  0  0  0  0  0  0
  145.6061  144.4613  160.3095 N   0  0  0  0  0  0  0  0  0  0  0  0
  144.3026  144.9658  160.7047 C   0  0  0  0  0  0  0  0  0  0  0  0
  143.7584  146.0171  159.7180 C   0  0  2  0  0  0  0  0  0  0  0  0
  142.9277  145.4092  158.7462 O   0  0  0  0  0  0  0  0  0  0  0  0
  144.8740  146.8376  159.0382 C   0  0  2  0  0  0  0  0  0  0  0  0
  145.4001  148.0445  159.8346 C   0  0  0  0  0  0  0  0  0  0  0  0
  145.1391  149.2232  158.9143 C   0  0  0  0  0  0  0  0  0  0  0  0
  145.1063  148.5712  157.5381 C   0  0  0  0  0  0  0  0  0  0  0  0
  144.4363  147.3454  157.7806 O   0  0  0  0  0  0  0  0  0  0  0  0
  149.6227  141.6039  157.0451 C   0  0  0  0  0  0  0  0  0  0  0  0
  151.0449  141.0280  157.2096 C   0  0  1  0  0  0  0  0  0  0  0  0
  151.1184  139.7809  158.0856 C   0  0  0  0  0  0  0  0  0  0  0  0
  152.3951  139.1197  157.5898 C   0  0  0  0  0  0  0  0  0  0  0  0
  152.3501  139.3107  156.1843 O   0  0  0  0  0  0  0  0  0  0  0  0
  151.6187  140.4979  155.8853 C   0  0  0  0  0  0  0  0  0  0  0  0
  151.9331  142.0609  157.6532 O   0  0  0  0  0  0  0  0  0  0  0  0
  153.1715  145.8270  158.5577 H   0  0  0  0  0  0  0  0  0  0  0  0
  151.4326  145.5517  158.5289 H   0  0  0  0  0  0  0  0  0  0  0  0
  152.4530  144.8801  157.2580 H   0  0  0  0  0  0  0  0  0  0  0  0
  153.5907  143.4173  158.9527 H   0  0  0  0  0  0  0  0  0  0  0  0
  152.5741  144.0635  160.2168 H   0  0  0  0  0  0  0  0  0  0  0  0
  151.5207  142.0422  159.6863 H   0  0  0  0  0  0  0  0  0  0  0  0
  149.8138  143.8074  159.5891 H   0  0  0  0  0  0  0  0  0  0  0  0
  150.1700  144.1241  157.8961 H   0  0  0  0  0  0  0  0  0  0  0  0
  145.1056  141.8258  156.7158 H   0  0  0  0  0  0  0  0  0  0  0  0
  146.8948  145.3760  161.7812 H   0  0  0  0  0  0  0  0  0  0  0  0
  143.6158  144.1212  160.7711 H   0  0  0  0  0  0  0  0  0  0  0  0
  144.3793  145.3829  161.7097 H   0  0  0  0  0  0  0  0  0  0  0  0
  143.1259  146.7118  160.2721 H   0  0  0  0  0  0  0  0  0  0  0  0
  142.0864  145.2329  159.1387 H   0  0  0  0  0  0  0  0  0  0  0  0
  145.7153  146.1738  158.8327 H   0  0  0  0  0  0  0  0  0  0  0  0
  144.9217  148.1732  160.8057 H   0  0  0  0  0  0  0  0  0  0  0  0
  146.4707  147.9337  160.0102 H   0  0  0  0  0  0  0  0  0  0  0  0
  144.1652  149.6598  159.1387 H   0  0  0  0  0  0  0  0  0  0  0  0
  145.8919  150.0074  158.9976 H   0  0  0  0  0  0  0  0  0  0  0  0
  144.5843  149.1756  156.7963 H   0  0  0  0  0  0  0  0  0  0  0  0
  146.1158  148.3714  157.1754 H   0  0  0  0  0  0  0  0  0  0  0  0
  148.9284  140.8075  156.7783 H   0  0  0  0  0  0  0  0  0  0  0  0
  149.6086  142.3161  156.2186 H   0  0  0  0  0  0  0  0  0  0  0  0
  151.1268  139.9691  159.1576 H   0  0  0  0  0  0  0  0  0  0  0  0
  150.2702  139.1269  157.8777 H   0  0  0  0  0  0  0  0  0  0  0  0
  153.2735  139.6241  157.9952 H   0  0  0  0  0  0  0  0  0  0  0  0
  152.4538  138.0629  157.8500 H   0  0  0  0  0  0  0  0  0  0  0  0
  150.8235  140.2289  155.1892 H   0  0  0  0  0  0  0  0  0  0  0  0
  152.2540  141.2320  155.3881 H   0  0  0  0  0  0  0  0  0  0  0  0
  1  2  1  0  0  0  0
  1 30  1  0  0  0  0
  1 31  1  0  0  0  0
  1 32  1  0  0  0  0
  2  3  1  0  0  0  0
  2 33  1  0  0  0  0
  2 34  1  0  0  0  0
  3 29  1  0  0  0  0
  3  4  1  0  0  0  0
  3 35  1  0  0  0  0
  4  5  1  0  0  0  0
  4 36  1  0  0  0  0
  4 37  1  0  0  0  0
  5  6  1  0  0  0  0
  5 23  1  0  0  0  0
  6 11  1  0  0  0  0
  6  7  2  0  0  0  0
  7  8  1  0  0  0  0
  8  9  2  0  0  0  0
  8 38  1  0  0  0  0
  9 10  1  0  0  0  0
 10 14  1  0  0  0  0
 10 11  2  0  0  0  0
 11 12  1  0  0  0  0
 12 13  2  0  0  0  0
 13 14  1  0  0  0  0
 13 39  1  0  0  0  0
 14 15  1  0  0  0  0
 15 16  1  0  0  0  0
 15 40  1  0  0  0  0
 15 41  1  0  0  0  0
 16 17  1  0  0  0  0
 16 18  1  0  0  0  0
 16 42  1  0  0  0  0
 17 43  1  0  0  0  0
 18 22  1  0  0  0  0
 18 19  1  0  0  0  0
 18 44  1  0  0  0  0
 19 20  1  0  0  0  0
 19 45  1  0  0  0  0
 19 46  1  0  0  0  0
 20 21  1  0  0  0  0
 20 47  1  0  0  0  0
 20 48  1  0  0  0  0
 21 22  1  0  0  0  0
 21 49  1  0  0  0  0
 21 50  1  0  0  0  0
 23 24  1  0  0  0  0
 23 51  1  0  0  0  0
 23 52  1  0  0  0  0
 24 28  1  0  0  0  0
 24 25  1  0  0  0  0
 24 29  1  0  0  0  0
 25 26  1  0  0  0  0
 25 53  1  0  0  0  0
 25 54  1  0  0  0  0
 26 27  1  0  0  0  0
 26 55  1  0  0  0  0
 26 56  1  0  0  0  0
 27 28  1  0  0  0  0
 28 57  1  0  0  0  0
 28 58  1  0  0  0  0
M  END
> <s_m_source_file>
AV-unprocessed.smi

> <i_m_source_file_index>
229

> <i_lp_mmshare_version>
43012

> <i_f3d_flags>
0

> <s_epik_input>
W0NIMl0xT1tDSDJdW0NIMl1bQ0BdMTJbQ0gyXU4oW0NIMl1bQ0BIXShPMilbQ0gyXVtDSDNdKWMobltjSF1uMyljKGMzNCluW2NIXW40W0NIMl1bQ0BIXShbT0hdKVtDQEBIXTVbQ0gyXVtDSDJdW0NIMl1PNQ==

> <s_epik_cmdline>
J2VwaWtfcHl0aG9uJywgJy1waCcsICc3LjAnLCAnLXRuJywgJzgnLCAnLW1hJywgJzIwMCcsICctbWV0YWxfYmluZGluZycsICctaW1hZScsICc8aW5maWxlLm1hZT4nLCAnLW9tYWUnLCAnPG91dGZpbGUubWFlPic=

> <r_lp_tautomer_probability>
1

> <r_epik_Ionization_Penalty>
0.00318402

> <r_epik_Ionization_Penalty_Charging>
0

> <r_epik_Ionization_Penalty_Neutral>
0.00318402

> <r_epik_State_Penalty>
0.00215642

> <r_epik_Charging_Adjusted_Penalty>
0.00215642

> <i_epik_Tot_Q>
0

> <i_epik_Tot_abs_Q>
0

> <r_epik_Metal_State_Penalty>
-0

> <b_epik_Metal_Only>
0

> <s_lp_Force_Field>
OPLS_2005

> <r_lp_Energy>
56.2374

> <b_lp_Chiralities_Consistent>
1

> <s_lp_Variant>
AV-unprocessed.smi:229-2

> <Gold.Version>
5.8.1

> <Gold.Id.Protein>
6NUR|6NUR_protein|mol2

> <Gold.PLP.Fitness>
44.3220

> <Gold.PLP.PLP>
-43.5325

> <Gold.PLP.part.hbond>
-1.8422

> <Gold.PLP.part.metal>
0.0000

> <Gold.PLP.part.buried>
-9.3510

> <Gold.PLP.part.nonpolar>
-33.8903

> <Gold.PLP.part.repulsive>
0.5053

> <Gold.PLP.ligand.clash>
0.0000

> <Gold.PLP.ligand.torsion>
1.8110

> <Gold.PLP.Chemscore.Hbond>
1.3700

> <Gold.PLP.Chemscore.CHOScore>
0.0000

> <Gold.PLP.Chemscore.Metal>
0.0000

> <Gold.Chemscore.Hbonds>
donor molecule, donor type, donor heavy atom, donor atom, acceptor molecule, acceptor atom, score
      P1  H  6933  6944       L1    12  0.40
      P1  H  7997  8008       L1    27  0.03

> <Gold.PLP.Chemscore.Internal.Correction>
0.3014

> <Gold.Rescore>
     Score         DG    S(hbond)    S(metal)    S(lipo)     H(rot)  DE(clash)    DE(int)     intcor
     12.23     -14.00       0.79        0.00     104.05       2.46       0.03       1.74       ----

> <Gold.Chemscore.Fitness>
12.2334

> <Gold.Chemscore.DG>
-14.0034

> <Gold.Chemscore.ZeroCoef>
-5.4800

> <Gold.Chemscore.Hbond>
0.7917

> <Gold.Chemscore.Metal>
0.0000

> <Gold.Chemscore.Lipo>
104.0548

> <Gold.Chemscore.Internal_Hbond>
0.0000

> <Gold.Chemscore.DEClash>
0.0329

> <Gold.Chemscore.DEInternal>
1.7371

> <Gold.Chemscore.Rot>
2.4591

> <Gold.Chemscore.Internal.Correction>
   9.000000E+99

> <Gold.Chemscore.Hbonds>
donor molecule, donor type, donor heavy atom, donor atom, acceptor molecule, acceptor atom, score
      P1  H  6933  6944       L1    12  0.03

> <Gold.Chemscore.Hbond.Weighted>
-2.6443

> <Gold.Chemscore.Metal.Weighted>
-0.0000

> <Gold.Chemscore.Lipo.Weighted>
-12.1744

> <Gold.Chemscore.Internal_Hbond.Weighted>
0.0000

> <Gold.Chemscore.DEClash.Weighted>
0.0329

> <Gold.Chemscore.DEInternal.Weighted>
1.7371

> <Gold.Chemscore.Rot.Weighted>
6.2953

> <Gold.Chemscore.Internal.Correction.Weighted>
   9.000000E+99

> <Gold.Protein.RotatedTorsions>
[ 6907 6896 6895 6894 ] final   87.32 input  -60.11 | X-H torsion
[ 7974 7965 7964 7962 ] final  -54.64 input  175.53 | X-H torsion
[ 8008 7997 7996 7995 ] final  -57.74 input   59.86 | X-H torsion
[ 10167 10162 10161 10158 ] final  133.01 input  -65.29 | X-H torsion
[ 10718 10713 10712 10709 ] final  -81.71 input   66.30 | X-H torsion
[ 10763 10752 10751 10750 ] final  -24.62 input  -60.55 | X-H torsion
[ 11005 11000 10999 10996 ] final  147.97 input  -57.11 | X-H torsion

> <Gold.Protein.ActiveResidues>
 VAL166  LYS551  ARG553  GLY616  TRP617  ASP618  TYR619  PRO620  LYS621  CYS622 
 ASP623  PHE694  ASN695  SER759  ASP760  ASP761  ALA762  ILE779  LEU786  VAL792 
 PHE793  MET794  SER795  GLU796  ALA797  LYS798  CYS799  TRP800  GLU811  SER814 

> <Gold.Protein.RotatedAtoms>
  152.5409  134.2295  159.8819 H   0  0  0  0  0  0  0  0  0  0  0  0  # atno 6907 bound_to 6896
  151.2268  133.4465  159.2610 H   0  0  0  0  0  0  0  0  0  0  0  0  # atno 6908 bound_to 6896
  151.0753  134.9838  159.8385 H   0  0  0  0  0  0  0  0  0  0  0  0  # atno 6909 bound_to 6896
  145.8832  140.8128  142.9829 H   0  0  0  0  0  0  0  0  0  0  0  0  # atno 7974 bound_to 7965
  154.4280  140.1100  156.5846 H   0  0  0  0  0  0  0  0  0  0  0  0  # atno 8008 bound_to 7997
  155.6076  140.3494  155.4593 H   0  0  0  0  0  0  0  0  0  0  0  0  # atno 8009 bound_to 7997
  156.0124  140.1222  157.0429 H   0  0  0  0  0  0  0  0  0  0  0  0  # atno 8010 bound_to 7997
  139.5315  144.6636  151.4934 H   0  0  0  0  0  0  0  0  0  0  0  0  # atno 10167 bound_to 10162
  156.0045  130.4612  150.3994 H   0  0  0  0  0  0  0  0  0  0  0  0  # atno 10718 bound_to 10713
  153.6867  135.6964  153.5102 H   0  0  0  0  0  0  0  0  0  0  0  0  # atno 10763 bound_to 10752
  153.2444  135.4295  155.0731 H   0  0  0  0  0  0  0  0  0  0  0  0  # atno 10764 bound_to 10752
  154.8384  135.3515  154.6410 H   0  0  0  0  0  0  0  0  0  0  0  0  # atno 10765 bound_to 10752
  140.0920  134.9035  157.1666 H   0  0  0  0  0  0  0  0  0  0  0  0  # atno 11005 bound_to 11000
  144.6728  140.1416  143.7436 LP  0  0  0  0  0  0  0  0  0  0  0  0  # atno 17320 bound_to 7965
  145.8998  139.2424  143.1500 LP  0  0  0  0  0  0  0  0  0  0  0  0  # atno 17321 bound_to 7965
  140.6496  143.8723  150.6772 LP  0  0  0  0  0  0  0  0  0  0  0  0  # atno 17342 bound_to 10162
  140.2084  143.3903  152.1737 LP  0  0  0  0  0  0  0  0  0  0  0  0  # atno 17343 bound_to 10162
  157.2064  131.0450  151.2623 LP  0  0  0  0  0  0  0  0  0  0  0  0  # atno 17370 bound_to 10713
  157.3929  130.7291  149.6710 LP  0  0  0  0  0  0  0  0  0  0  0  0  # atno 17371 bound_to 10713
  140.3339  134.2779  155.7223 LP  0  0  0  0  0  0  0  0  0  0  0  0  # atno 17394 bound_to 11000
  141.2081  133.7788  157.0081 LP  0  0  0  0  0  0  0  0  0  0  0  0  # atno 17395 bound_to 11000

$$$$
