AV-unprocessed.smi:3202|AV-procd|sdf|12244|dock2
  -GOLD-   2272018 73D 1   1.00000     0.00000
 Structure written by MMmdl.
 43 44  0  0  0  0  0  0  0  0  2 V2000
  152.1388  138.6694  154.6513 C   0  0  0  0  0  0  0  0  0  0  0  0
  150.6512  138.7188  154.5697 C   0  0  0  0  0  0  0  0  0  0  0  0
  149.6971  137.7888  154.8728 C   0  0  0  0  0  0  0  0  0  0  0  0
  148.4632  138.4406  154.5800 C   0  0  0  0  0  0  0  0  0  0  0  0
  147.0706  137.8907  154.7333 C   0  0  0  0  0  0  0  0  0  0  0  0
  146.3332  137.6964  153.3924 C   0  0  1  0  0  0  0  0  0  0  0  0
  146.6966  138.7526  152.3352 C   0  0  0  0  0  0  0  0  0  0  0  0
  146.6316  136.3480  152.8603 N   0  3  0  0  0  0  0  0  0  0  0  0
  145.6803  135.8335  151.8487 C   0  0  1  0  0  0  0  0  0  0  0  0
  146.1282  134.5133  151.2052 C   0  0  0  0  0  0  0  0  0  0  0  0
  144.8375  133.8318  150.7323 C   0  0  0  0  0  0  0  0  0  0  0  0
  143.6763  134.6560  151.3092 C   0  0  0  0  0  0  0  0  0  0  0  0
  144.2751  135.5415  152.4174 C   0  0  0  0  0  0  0  0  0  0  0  0
  144.3175  134.7561  153.7491 C   0  0  0  0  0  0  0  0  0  0  0  0
  143.4530  136.8304  152.6054 C   0  0  0  0  0  0  0  0  0  0  0  0
  148.6388  139.6756  154.1315 N   0  0  0  0  0  0  0  0  0  0  0  0
  149.9754  139.8334  154.1298 N   0  0  0  0  0  0  0  0  0  0  0  0
  150.4078  140.6958  153.8285 H   0  0  0  0  0  0  0  0  0  0  0  0
  152.4797  137.6818  154.9632 H   0  0  0  0  0  0  0  0  0  0  0  0
  152.5115  139.3974  155.3721 H   0  0  0  0  0  0  0  0  0  0  0  0
  152.5882  138.8898  153.6826 H   0  0  0  0  0  0  0  0  0  0  0  0
  149.8568  136.7894  155.2494 H   0  0  0  0  0  0  0  0  0  0  0  0
  147.1057  136.9421  155.2719 H   0  0  0  0  0  0  0  0  0  0  0  0
  146.4907  138.5649  155.3652 H   0  0  0  0  0  0  0  0  0  0  0  0
  145.2628  137.7780  153.5881 H   0  0  0  0  0  0  0  0  0  0  0  0
  146.4000  139.7536  152.6482 H   0  0  0  0  0  0  0  0  0  0  0  0
  146.1900  138.5523  151.3906 H   0  0  0  0  0  0  0  0  0  0  0  0
  147.7695  138.7674  152.1402 H   0  0  0  0  0  0  0  0  0  0  0  0
  147.5579  136.3539  152.4580 H   0  0  0  0  0  0  0  0  0  0  0  0
  145.5812  136.5831  151.0609 H   0  0  0  0  0  0  0  0  0  0  0  0
  146.8308  134.6720  150.3865 H   0  0  0  0  0  0  0  0  0  0  0  0
  146.6243  133.8777  151.9402 H   0  0  0  0  0  0  0  0  0  0  0  0
  144.7806  133.7949  149.6440 H   0  0  0  0  0  0  0  0  0  0  0  0
  144.8009  132.8037  151.0943 H   0  0  0  0  0  0  0  0  0  0  0  0
  143.2678  135.2818  150.5141 H   0  0  0  0  0  0  0  0  0  0  0  0
  142.8595  134.0262  151.6643 H   0  0  0  0  0  0  0  0  0  0  0  0
  143.3132  134.4738  154.0671 H   0  0  0  0  0  0  0  0  0  0  0  0
  144.7514  135.3494  154.5544 H   0  0  0  0  0  0  0  0  0  0  0  0
  144.8990  133.8376  153.6667 H   0  0  0  0  0  0  0  0  0  0  0  0
  142.4352  136.6037  152.9254 H   0  0  0  0  0  0  0  0  0  0  0  0
  143.3843  137.4040  151.6803 H   0  0  0  0  0  0  0  0  0  0  0  0
  143.8986  137.4786  153.3605 H   0  0  0  0  0  0  0  0  0  0  0  0
  146.6297  135.7054  153.6394 H   0  0  0  0  0  0  0  0  0  0  0  0
  1  2  1  0  0  0  0
  1 19  1  0  0  0  0
  1 20  1  0  0  0  0
  1 21  1  0  0  0  0
  2 17  1  0  0  0  0
  2  3  2  0  0  0  0
  3  4  1  0  0  0  0
  3 22  1  0  0  0  0
  4  5  1  0  0  0  0
  4 16  2  0  0  0  0
  5  6  1  0  0  0  0
  5 23  1  0  0  0  0
  5 24  1  0  0  0  0
  6  7  1  0  0  0  0
  6  8  1  0  0  0  0
  6 25  1  0  0  0  0
  7 26  1  0  0  0  0
  7 27  1  0  0  0  0
  7 28  1  0  0  0  0
  8  9  1  0  0  0  0
  8 29  1  0  0  0  0
  8 43  1  0  0  0  0
  9 13  1  0  0  0  0
  9 10  1  0  0  0  0
  9 30  1  0  0  0  0
 10 11  1  0  0  0  0
 10 31  1  0  0  0  0
 10 32  1  0  0  0  0
 11 12  1  0  0  0  0
 11 33  1  0  0  0  0
 11 34  1  0  0  0  0
 12 13  1  0  0  0  0
 12 35  1  0  0  0  0
 12 36  1  0  0  0  0
 13 14  1  0  0  0  0
 13 15  1  0  0  0  0
 14 37  1  0  0  0  0
 14 38  1  0  0  0  0
 14 39  1  0  0  0  0
 15 40  1  0  0  0  0
 15 41  1  0  0  0  0
 15 42  1  0  0  0  0
 16 17  1  0  0  0  0
 17 18  1  0  0  0  0
M  CHG  1   8   1
M  END
> <s_m_source_file>
AV-unprocessed.smi

> <i_m_source_file_index>
3202

> <i_lp_mmshare_version>
43012

> <i_f3d_flags>
0

> <s_epik_input>
W0NIM11jMVtjSF1jKG5bbkhdMSlbQ0gyXVtDQEhdKFtDSDNdKVtOSF1bQ0BASF0oQzIoW0NIM10pW0NIM10pW0NIMl1bQ0gyXVtDSDJdMg==

> <s_epik_cmdline>
J2VwaWtfcHl0aG9uJywgJy1waCcsICc3LjAnLCAnLXRuJywgJzgnLCAnLW1hJywgJzIwMCcsICctbWV0YWxfYmluZGluZycsICctaW1hZScsICc8aW5maWxlLm1hZT4nLCAnLW9tYWUnLCAnPG91dGZpbGUubWFlPic=

> <r_lp_tautomer_probability>
0.5

> <r_epik_Ionization_Penalty>
0.000341671

> <r_epik_Ionization_Penalty_Charging>
0.000281809

> <r_epik_Ionization_Penalty_Neutral>
5.9862e-05

> <r_epik_State_Penalty>
0.41068

> <r_epik_Charging_Adjusted_Penalty>
0.410962

> <i_epik_Tot_Q>
1

> <i_epik_Tot_abs_Q>
1

> <r_epik_Metal_State_Penalty>
0.410672

> <b_epik_Metal_Only>
0

> <s_lp_Force_Field>
OPLS_2005

> <r_lp_Energy>
30.3083

> <b_lp_Chiralities_Consistent>
1

> <s_lp_Variant>
AV-unprocessed.smi:3202-4

> <Gold.Version>
5.8.1

> <Gold.Id.Protein>
6NUR|6NUR_protein|mol2

> <Gold.PLP.Fitness>
32.5218

> <Gold.PLP.PLP>
-27.5670

> <Gold.PLP.part.hbond>
-2.0000

> <Gold.PLP.part.metal>
0.0000

> <Gold.PLP.part.buried>
-5.6995

> <Gold.PLP.part.nonpolar>
-22.8498

> <Gold.PLP.part.repulsive>
1.6960

> <Gold.PLP.ligand.clash>
0.0000

> <Gold.PLP.ligand.torsion>
0.5403

> <Gold.PLP.Chemscore.Hbond>
2.0000

> <Gold.PLP.Chemscore.CHOScore>
0.0000

> <Gold.PLP.Chemscore.Metal>
0.0000

> <Gold.Chemscore.Hbonds>
donor molecule, donor type, donor heavy atom, donor atom, acceptor molecule, acceptor atom, score
      L1  H     8    29       P1  7948  1.92

> <Gold.PLP.Chemscore.Internal.Correction>
0.0354

> <Gold.Rescore>
     Score         DG    S(hbond)    S(metal)    S(lipo)     H(rot)  DE(clash)    DE(int)     intcor
     11.29     -13.24       0.99        0.00      70.08       1.46       0.09       1.86       ----

> <Gold.Chemscore.Fitness>
11.2865

> <Gold.Chemscore.DG>
-13.2376

> <Gold.Chemscore.ZeroCoef>
-5.4800

> <Gold.Chemscore.Hbond>
0.9863

> <Gold.Chemscore.Metal>
0.0000

> <Gold.Chemscore.Lipo>
70.0832

> <Gold.Chemscore.Internal_Hbond>
0.0000

> <Gold.Chemscore.DEClash>
0.0898

> <Gold.Chemscore.DEInternal>
1.8613

> <Gold.Chemscore.Rot>
1.4596

> <Gold.Chemscore.Internal.Correction>
   9.000000E+99

> <Gold.Chemscore.Hbonds>
donor molecule, donor type, donor heavy atom, donor atom, acceptor molecule, acceptor atom, score
      L1  H     8    29       P1  7948  0.91

> <Gold.Chemscore.Hbond.Weighted>
-3.2944

> <Gold.Chemscore.Metal.Weighted>
-0.0000

> <Gold.Chemscore.Lipo.Weighted>
-8.1997

> <Gold.Chemscore.Internal_Hbond.Weighted>
0.0000

> <Gold.Chemscore.DEClash.Weighted>
0.0898

> <Gold.Chemscore.DEInternal.Weighted>
1.8613

> <Gold.Chemscore.Rot.Weighted>
3.7365

> <Gold.Chemscore.Internal.Correction.Weighted>
   9.000000E+99

> <Gold.Protein.RotatedTorsions>
[ 6907 6896 6895 6894 ] final  121.93 input  -60.11 | X-H torsion
[ 7974 7965 7964 7962 ] final -119.70 input  175.53 | X-H torsion
[ 8008 7997 7996 7995 ] final  104.82 input   59.86 | X-H torsion
[ 10167 10162 10161 10158 ] final  144.10 input  -65.29 | X-H torsion
[ 10718 10713 10712 10709 ] final  102.35 input   66.30 | X-H torsion
[ 10763 10752 10751 10750 ] final -149.01 input  -60.55 | X-H torsion
[ 11005 11000 10999 10996 ] final -152.90 input  -57.11 | X-H torsion

> <Gold.Protein.ActiveResidues>
 VAL166  LYS551  ARG553  GLY616  TRP617  ASP618  TYR619  PRO620  LYS621  CYS622 
 ASP623  PHE694  ASN695  SER759  ASP760  ASP761  ALA762  ILE779  LEU786  VAL792 
 PHE793  MET794  SER795  GLU796  ALA797  LYS798  CYS799  TRP800  GLU811  SER814 

> <Gold.Protein.RotatedAtoms>
  152.4283  133.7233  159.6545 H   0  0  0  0  0  0  0  0  0  0  0  0  # atno 6907 bound_to 6896
  150.8160  133.8325  159.3166 H   0  0  0  0  0  0  0  0  0  0  0  0  # atno 6908 bound_to 6896
  151.6021  135.1048  160.0114 H   0  0  0  0  0  0  0  0  0  0  0  0  # atno 6909 bound_to 6896
  145.0596  140.8280  143.4160 H   0  0  0  0  0  0  0  0  0  0  0  0  # atno 7974 bound_to 7965
  156.1606  140.3141  155.8801 H   0  0  0  0  0  0  0  0  0  0  0  0  # atno 8008 bound_to 7997
  155.3789  140.0486  157.3061 H   0  0  0  0  0  0  0  0  0  0  0  0  # atno 8009 bound_to 7997
  154.5143  140.2176  155.9107 H   0  0  0  0  0  0  0  0  0  0  0  0  # atno 8010 bound_to 7997
  139.4954  144.5995  151.6511 H   0  0  0  0  0  0  0  0  0  0  0  0  # atno 10167 bound_to 10162
  157.6805  131.0750  150.5390 H   0  0  0  0  0  0  0  0  0  0  0  0  # atno 10718 bound_to 10713
  154.8201  135.3320  154.7062 H   0  0  0  0  0  0  0  0  0  0  0  0  # atno 10763 bound_to 10752
  153.7697  135.6926  153.4913 H   0  0  0  0  0  0  0  0  0  0  0  0  # atno 10764 bound_to 10752
  153.2053  135.4501  155.0264 H   0  0  0  0  0  0  0  0  0  0  0  0  # atno 10765 bound_to 10752
  140.7139  134.3802  157.5194 H   0  0  0  0  0  0  0  0  0  0  0  0  # atno 11005 bound_to 11000
  145.1426  139.2563  143.5482 LP  0  0  0  0  0  0  0  0  0  0  0  0  # atno 17320 bound_to 7965
  146.3523  140.1107  142.8604 LP  0  0  0  0  0  0  0  0  0  0  0  0  # atno 17321 bound_to 7965
  140.5641  144.0219  150.6184 LP  0  0  0  0  0  0  0  0  0  0  0  0  # atno 17342 bound_to 10162
  140.3315  143.3075  152.0682 LP  0  0  0  0  0  0  0  0  0  0  0  0  # atno 17343 bound_to 10162
  156.5697  130.4277  149.6025 LP  0  0  0  0  0  0  0  0  0  0  0  0  # atno 17370 bound_to 10713
  156.2751  130.7039  151.1847 LP  0  0  0  0  0  0  0  0  0  0  0  0  # atno 17371 bound_to 10713
  139.8865  134.8909  156.2583 LP  0  0  0  0  0  0  0  0  0  0  0  0  # atno 17394 bound_to 11000
  141.0061  133.7123  156.1037 LP  0  0  0  0  0  0  0  0  0  0  0  0  # atno 17395 bound_to 11000

$$$$
