AV-unprocessed.smi:3303|AV-procd|sdf|12658|dock6
  -GOLD-   2272018593D 1   1.00000     0.00000
 Structure written by MMmdl.
 45 46  0  0  0  0  0  0  0  0  3 V2000
  148.4357  142.1249  157.9035 C   0  0  0  0  0  0  0  0  0  0  0  0
  149.5792  141.1918  157.4523 C   0  0  1  0  0  0  0  0  0  0  0  0
  149.0754  139.7513  157.2383 C   0  0  0  0  0  0  0  0  0  0  0  0
  148.2000  139.6345  156.0412 N   0  3  2  0  0  0  0  0  0  0  0  0
  147.6136  138.2752  155.9477 C   0  0  0  0  0  0  0  0  0  0  0  0
  148.8859  140.0872  154.7926 C   0  0  1  0  0  0  0  0  0  0  0  0
  147.9701  140.0168  153.5545 C   0  0  0  0  0  0  0  0  0  0  0  0
  149.4266  141.5262  154.9523 C   0  0  0  0  0  0  0  0  0  0  0  0
  150.3318  141.6684  156.1913 C   0  0  1  0  0  0  0  0  0  0  0  0
  150.8514  143.0457  156.3680 N   0  3  0  0  0  0  0  0  0  0  0  0
  151.2560  143.4025  157.7439 C   0  0  0  0  0  0  0  0  0  0  0  0
  152.2190  142.3564  158.3218 C   0  0  0  0  0  0  0  0  0  0  0  0
  152.5328  142.6139  159.7832 C   0  0  0  0  0  0  0  0  0  0  0  0
  153.3436  141.7211  160.5160 C   0  0  0  0  0  0  0  0  0  0  0  0
  153.6001  142.0073  161.8712 C   0  0  0  0  0  0  0  0  0  0  0  0
  153.0377  143.1673  162.4377 C   0  0  0  0  0  0  0  0  0  0  0  0
  152.2401  143.9934  161.6211 C   0  0  0  0  0  0  0  0  0  0  0  0
  151.9877  143.7281  160.3207 N   0  0  0  0  0  0  0  0  0  0  0  0
  147.6520  142.2104  157.1508 H   0  0  0  0  0  0  0  0  0  0  0  0
  148.7973  143.1300  158.1211 H   0  0  0  0  0  0  0  0  0  0  0  0
  147.9692  141.7517  158.8157 H   0  0  0  0  0  0  0  0  0  0  0  0
  150.2980  141.1636  158.2727 H   0  0  0  0  0  0  0  0  0  0  0  0
  149.9240  139.0742  157.1248 H   0  0  0  0  0  0  0  0  0  0  0  0
  148.5347  139.4199  158.1261 H   0  0  0  0  0  0  0  0  0  0  0  0
  148.3708  137.5395  155.6735 H   0  0  0  0  0  0  0  0  0  0  0  0
  146.8082  138.2350  155.2149 H   0  0  0  0  0  0  0  0  0  0  0  0
  147.1797  137.9741  156.9017 H   0  0  0  0  0  0  0  0  0  0  0  0
  149.7346  139.4229  154.6201 H   0  0  0  0  0  0  0  0  0  0  0  0
  148.4653  140.4390  152.6797 H   0  0  0  0  0  0  0  0  0  0  0  0
  147.0459  140.5745  153.7095 H   0  0  0  0  0  0  0  0  0  0  0  0
  147.7081  138.9913  153.2946 H   0  0  0  0  0  0  0  0  0  0  0  0
  149.9825  141.7905  154.0528 H   0  0  0  0  0  0  0  0  0  0  0  0
  148.5966  142.2313  155.0106 H   0  0  0  0  0  0  0  0  0  0  0  0
  151.1954  141.0137  156.0600 H   0  0  0  0  0  0  0  0  0  0  0  0
  151.6353  143.1856  155.7464 H   0  0  0  0  0  0  0  0  0  0  0  0
  151.7358  144.3821  157.7358 H   0  0  0  0  0  0  0  0  0  0  0  0
  150.3751  143.4775  158.3815 H   0  0  0  0  0  0  0  0  0  0  0  0
  151.7925  141.3577  158.2170 H   0  0  0  0  0  0  0  0  0  0  0  0
  153.1526  142.3523  157.7569 H   0  0  0  0  0  0  0  0  0  0  0  0
  153.7620  140.8386  160.0545 H   0  0  0  0  0  0  0  0  0  0  0  0
  154.2168  141.3491  162.4649 H   0  0  0  0  0  0  0  0  0  0  0  0
  153.2136  143.4187  163.4732 H   0  0  0  0  0  0  0  0  0  0  0  0
  151.7918  144.8899  162.0231 H   0  0  0  0  0  0  0  0  0  0  0  0
  150.1160  143.6847  156.1003 H   0  0  0  0  0  0  0  0  0  0  0  0
  147.4254  140.2651  156.1923 H   0  0  0  0  0  0  0  0  0  0  0  0
  1  2  1  0  0  0  0
  1 19  1  0  0  0  0
  1 20  1  0  0  0  0
  1 21  1  0  0  0  0
  2  9  1  0  0  0  0
  2  3  1  0  0  0  0
  2 22  1  0  0  0  0
  3  4  1  0  0  0  0
  3 23  1  0  0  0  0
  3 24  1  0  0  0  0
  4  5  1  0  0  0  0
  4  6  1  0  0  0  0
  4 45  1  0  0  0  0
  5 25  1  0  0  0  0
  5 26  1  0  0  0  0
  5 27  1  0  0  0  0
  6  7  1  0  0  0  0
  6  8  1  0  0  0  0
  6 28  1  0  0  0  0
  7 29  1  0  0  0  0
  7 30  1  0  0  0  0
  7 31  1  0  0  0  0
  8  9  1  0  0  0  0
  8 32  1  0  0  0  0
  8 33  1  0  0  0  0
  9 10  1  0  0  0  0
  9 34  1  0  0  0  0
 10 11  1  0  0  0  0
 10 35  1  0  0  0  0
 10 44  1  0  0  0  0
 11 12  1  0  0  0  0
 11 36  1  0  0  0  0
 11 37  1  0  0  0  0
 12 13  1  0  0  0  0
 12 38  1  0  0  0  0
 12 39  1  0  0  0  0
 13 18  1  0  0  0  0
 13 14  2  0  0  0  0
 14 15  1  0  0  0  0
 14 40  1  0  0  0  0
 15 16  2  0  0  0  0
 15 41  1  0  0  0  0
 16 17  1  0  0  0  0
 16 42  1  0  0  0  0
 17 18  2  0  0  0  0
 17 43  1  0  0  0  0
M  CHG  1   4   1
M  CHG  1  10   1
M  END
> <s_m_source_file>
AV-unprocessed.smi

> <i_m_source_file_index>
3303

> <i_lp_mmshare_version>
43012

> <i_f3d_flags>
0

> <s_epik_input>
W0NIM11bQ0BASF0xW0NIMl1OKFtDSDNdKVtDQEBIXShbQ0gzXSlbQ0gyXVtDQEhdMVtOSF1bQ0gyXVtDSDJdYzJbY0hdW2NIXVtjSF1bY0hdbjI=

> <s_epik_cmdline>
J2VwaWtfcHl0aG9uJywgJy1waCcsICc3LjAnLCAnLXRuJywgJzgnLCAnLW1hJywgJzIwMCcsICctbWV0YWxfYmluZGluZycsICctaW1hZScsICc8aW5maWxlLm1hZT4nLCAnLW9tYWUnLCAnPG91dGZpbGUubWFlPic=

> <r_epik_Ionization_Penalty>
0.0769462

> <r_epik_Ionization_Penalty_Charging>
0.0759813

> <r_epik_Ionization_Penalty_Neutral>
0.000964829

> <r_epik_State_Penalty>
0.0654373

> <r_epik_Charging_Adjusted_Penalty>
0.141419

> <i_epik_Tot_Q>
2

> <i_epik_Tot_abs_Q>
2

> <r_epik_Metal_State_Penalty>
0.0656439

> <b_epik_Metal_Only>
0

> <s_lp_Force_Field>
OPLS_2005

> <r_lp_Energy>
30.9153

> <b_lp_Chiralities_Consistent>
1

> <s_lp_Variant>
AV-unprocessed.smi:3303-2

> <Gold.Version>
5.8.1

> <Gold.Id.Protein>
6NUR|6NUR_protein|mol2

> <Gold.PLP.Fitness>
43.2172

> <Gold.PLP.PLP>
-37.8494

> <Gold.PLP.part.hbond>
-1.0000

> <Gold.PLP.part.metal>
0.0000

> <Gold.PLP.part.buried>
-3.5638

> <Gold.PLP.part.nonpolar>
-33.5330

> <Gold.PLP.part.repulsive>
0.1529

> <Gold.PLP.ligand.clash>
0.0000

> <Gold.PLP.ligand.torsion>
0.3216

> <Gold.PLP.Chemscore.Hbond>
2.0000

> <Gold.PLP.Chemscore.CHOScore>
0.0000

> <Gold.PLP.Chemscore.Metal>
0.0000

> <Gold.Chemscore.Hbonds>
donor molecule, donor type, donor heavy atom, donor atom, acceptor molecule, acceptor atom, score
      L1  H    10    44       P1  8028  2.00

> <Gold.PLP.Chemscore.Internal.Correction>
0.0111

> <Gold.Rescore>
     Score         DG    S(hbond)    S(metal)    S(lipo)     H(rot)  DE(clash)    DE(int)     intcor
     17.84     -18.17       1.00        0.00     110.02       1.37       0.03       0.30       ----

> <Gold.Chemscore.Fitness>
17.8430

> <Gold.Chemscore.DG>
-18.1734

> <Gold.Chemscore.ZeroCoef>
-5.4800

> <Gold.Chemscore.Hbond>
0.9999

> <Gold.Chemscore.Metal>
0.0000

> <Gold.Chemscore.Lipo>
110.0174

> <Gold.Chemscore.Internal_Hbond>
0.0000

> <Gold.Chemscore.DEClash>
0.0338

> <Gold.Chemscore.DEInternal>
0.2966

> <Gold.Chemscore.Rot>
1.3744

> <Gold.Chemscore.Internal.Correction>
   9.000000E+99

> <Gold.Chemscore.Hbonds>
donor molecule, donor type, donor heavy atom, donor atom, acceptor molecule, acceptor atom, score
      L1  H    10    44       P1  8028  1.00

> <Gold.Chemscore.Hbond.Weighted>
-3.3398

> <Gold.Chemscore.Metal.Weighted>
-0.0000

> <Gold.Chemscore.Lipo.Weighted>
-12.8720

> <Gold.Chemscore.Internal_Hbond.Weighted>
0.0000

> <Gold.Chemscore.DEClash.Weighted>
0.0338

> <Gold.Chemscore.DEInternal.Weighted>
0.2966

> <Gold.Chemscore.Rot.Weighted>
3.5185

> <Gold.Chemscore.Internal.Correction.Weighted>
   9.000000E+99

> <Gold.Protein.RotatedTorsions>
[ 6907 6896 6895 6894 ] final   36.83 input  -60.11 | X-H torsion
[ 7974 7965 7964 7962 ] final   -0.22 input  175.53 | X-H torsion
[ 8008 7997 7996 7995 ] final  -42.03 input   59.86 | X-H torsion
[ 10167 10162 10161 10158 ] final   92.50 input  -65.29 | X-H torsion
[ 10718 10713 10712 10709 ] final  -42.50 input   66.30 | X-H torsion
[ 10763 10752 10751 10750 ] final  -33.19 input  -60.55 | X-H torsion
[ 11005 11000 10999 10996 ] final -131.97 input  -57.11 | X-H torsion

> <Gold.Protein.ActiveResidues>
 VAL166  LYS551  ARG553  GLY616  TRP617  ASP618  TYR619  PRO620  LYS621  CYS622 
 ASP623  PHE694  ASN695  SER759  ASP760  ASP761  ALA762  ILE779  LEU786  VAL792 
 PHE793  MET794  SER795  GLU796  ALA797  LYS798  CYS799  TRP800  GLU811  SER814 

> <Gold.Protein.RotatedAtoms>
  152.1350  134.9106  160.0556 H   0  0  0  0  0  0  0  0  0  0  0  0  # atno 6907 bound_to 6896
  152.0196  133.3888  159.4261 H   0  0  0  0  0  0  0  0  0  0  0  0  # atno 6908 bound_to 6896
  150.6859  134.3562  159.4974 H   0  0  0  0  0  0  0  0  0  0  0  0  # atno 6909 bound_to 6896
  146.2429  140.1236  142.8340 H   0  0  0  0  0  0  0  0  0  0  0  0  # atno 7974 bound_to 7965
  154.4001  140.1484  156.3288 H   0  0  0  0  0  0  0  0  0  0  0  0  # atno 8008 bound_to 7997
  155.8462  140.3460  155.5642 H   0  0  0  0  0  0  0  0  0  0  0  0  # atno 8009 bound_to 7997
  155.8034  140.0873  157.1935 H   0  0  0  0  0  0  0  0  0  0  0  0  # atno 8010 bound_to 7997
  139.8271  144.6705  150.9446 H   0  0  0  0  0  0  0  0  0  0  0  0  # atno 10167 bound_to 10162
  156.2590  130.4195  149.8564 H   0  0  0  0  0  0  0  0  0  0  0  0  # atno 10718 bound_to 10713
  153.8262  135.6870  153.4820 H   0  0  0  0  0  0  0  0  0  0  0  0  # atno 10763 bound_to 10752
  153.1539  135.4607  154.9674 H   0  0  0  0  0  0  0  0  0  0  0  0  # atno 10764 bound_to 10752
  154.7906  135.3300  154.7730 H   0  0  0  0  0  0  0  0  0  0  0  0  # atno 10765 bound_to 10752
  140.9211  134.1443  157.4313 H   0  0  0  0  0  0  0  0  0  0  0  0  # atno 11005 bound_to 11000
  145.0385  140.8927  143.5066 LP  0  0  0  0  0  0  0  0  0  0  0  0  # atno 17320 bound_to 7965
  145.1313  139.2630  143.5538 LP  0  0  0  0  0  0  0  0  0  0  0  0  # atno 17321 bound_to 7965
  140.7809  143.4036  151.1107 LP  0  0  0  0  0  0  0  0  0  0  0  0  # atno 17342 bound_to 10162
  139.7693  143.8518  152.3117 LP  0  0  0  0  0  0  0  0  0  0  0  0  # atno 17343 bound_to 10162
  156.6086  130.8577  151.3449 LP  0  0  0  0  0  0  0  0  0  0  0  0  # atno 17370 bound_to 10713
  157.7243  130.9601  150.1569 LP  0  0  0  0  0  0  0  0  0  0  0  0  # atno 17371 bound_to 10713
  139.8776  134.9972  156.5832 LP  0  0  0  0  0  0  0  0  0  0  0  0  # atno 17394 bound_to 11000
  140.7986  133.8523  155.8707 LP  0  0  0  0  0  0  0  0  0  0  0  0  # atno 17395 bound_to 11000

$$$$
