AV-unprocessed.smi:1047|AV-procd|sdf|4576|dock4
  -GOLD-   22720 3 33D 1   1.00000     0.00000
 Structure written by MMmdl.
 56 58  0  0  0  0  0  0  0  0  2 V2000
  141.0692  140.4461  154.5068 C   0  0  0  0  0  0  0  0  0  0  0  0
  141.1130  141.9437  154.8416 C   0  0  0  0  0  0  0  0  0  0  0  0
  142.4749  142.5176  154.7052 N   0  3  1  0  0  0  0  0  0  0  0  0
  142.5305  143.9796  154.9521 C   0  0  0  0  0  0  0  0  0  0  0  0
  143.9602  144.5062  154.7428 C   0  0  0  0  0  0  0  0  0  0  0  0
  144.8619  143.8102  155.5943 O   0  0  0  0  0  0  0  0  0  0  0  0
  144.8776  142.4100  155.3346 C   0  0  1  0  0  0  0  0  0  0  0  0
  145.9694  141.7524  156.1954 C   0  0  0  0  0  0  0  0  0  0  0  0
  147.3126  142.1116  155.7477 N   0  0  0  0  0  0  0  0  0  0  0  0
  147.7829  141.3012  154.6284 C   0  0  0  0  0  0  0  0  0  0  0  0
  149.2641  140.9128  154.8030 C   0  0  1  0  0  0  0  0  0  0  0  0
  149.8302  140.7303  153.5221 O   0  0  0  0  0  0  0  0  0  0  0  0
  150.1027  141.9853  155.5257 C   0  0  0  0  0  0  0  0  0  0  0  0
  151.0033  141.4186  156.5135 N   0  0  0  0  0  0  0  0  0  0  0  0
  151.7018  140.2722  156.4065 C   0  0  0  0  0  0  0  0  0  0  0  0
  152.4699  139.9288  157.4360 N   0  0  0  0  0  0  0  0  0  0  0  0
  152.2482  140.9776  158.3117 C   0  0  0  0  0  0  0  0  0  0  0  0
  152.7686  141.2201  159.6018 C   0  0  0  0  0  0  0  0  0  0  0  0
  152.3968  142.3738  160.3283 C   0  0  0  0  0  0  0  0  0  0  0  0
  152.9809  142.5945  161.7124 C   0  0  0  0  0  0  0  0  0  0  0  0
  151.4902  143.3072  159.7646 C   0  0  0  0  0  0  0  0  0  0  0  0
  151.0775  144.5548  160.5255 C   0  0  0  0  0  0  0  0  0  0  0  0
  150.9598  143.0794  158.4775 C   0  0  0  0  0  0  0  0  0  0  0  0
  151.3377  141.9281  157.7640 C   0  0  0  0  0  0  0  0  0  0  0  0
  143.4699  141.8154  155.5501 C   0  0  0  0  0  0  0  0  0  0  0  0
  140.0778  140.0383  154.7053 H   0  0  0  0  0  0  0  0  0  0  0  0
  141.7825  139.8858  155.1117 H   0  0  0  0  0  0  0  0  0  0  0  0
  141.2914  140.2543  153.4576 H   0  0  0  0  0  0  0  0  0  0  0  0
  140.4081  142.4980  154.2204 H   0  0  0  0  0  0  0  0  0  0  0  0
  140.7780  142.0643  155.8726 H   0  0  0  0  0  0  0  0  0  0  0  0
  141.8541  144.5065  154.2803 H   0  0  0  0  0  0  0  0  0  0  0  0
  142.2009  144.1926  155.9704 H   0  0  0  0  0  0  0  0  0  0  0  0
  144.2663  144.3967  153.7013 H   0  0  0  0  0  0  0  0  0  0  0  0
  144.0058  145.5700  154.9768 H   0  0  0  0  0  0  0  0  0  0  0  0
  145.1601  142.2636  154.2903 H   0  0  0  0  0  0  0  0  0  0  0  0
  145.8362  142.0484  157.2367 H   0  0  0  0  0  0  0  0  0  0  0  0
  145.8449  140.6693  156.1643 H   0  0  0  0  0  0  0  0  0  0  0  0
  147.3328  143.0929  155.4883 H   0  0  0  0  0  0  0  0  0  0  0  0
  147.1652  140.4105  154.5051 H   0  0  0  0  0  0  0  0  0  0  0  0
  147.6649  141.8826  153.7144 H   0  0  0  0  0  0  0  0  0  0  0  0
  149.3423  139.9747  155.3545 H   0  0  0  0  0  0  0  0  0  0  0  0
  149.2526  140.1787  153.0168 H   0  0  0  0  0  0  0  0  0  0  0  0
  150.7010  142.5450  154.8052 H   0  0  0  0  0  0  0  0  0  0  0  0
  149.4535  142.7100  156.0188 H   0  0  0  0  0  0  0  0  0  0  0  0
  151.6383  139.6524  155.5238 H   0  0  0  0  0  0  0  0  0  0  0  0
  153.4586  140.5087  160.0311 H   0  0  0  0  0  0  0  0  0  0  0  0
  153.5477  143.5252  161.7437 H   0  0  0  0  0  0  0  0  0  0  0  0
  153.6533  141.7839  161.9949 H   0  0  0  0  0  0  0  0  0  0  0  0
  152.1875  142.6463  162.4583 H   0  0  0  0  0  0  0  0  0  0  0  0
  150.3906  145.1679  159.9415 H   0  0  0  0  0  0  0  0  0  0  0  0
  151.9497  145.1646  160.7624 H   0  0  0  0  0  0  0  0  0  0  0  0
  150.5780  144.2868  161.4567 H   0  0  0  0  0  0  0  0  0  0  0  0
  150.2661  143.7810  158.0382 H   0  0  0  0  0  0  0  0  0  0  0  0
  143.1703  141.8992  156.5959 H   0  0  0  0  0  0  0  0  0  0  0  0
  143.4798  140.7529  155.3034 H   0  0  0  0  0  0  0  0  0  0  0  0
  142.7585  142.3666  153.7476 H   0  0  0  0  0  0  0  0  0  0  0  0
  1  2  1  0  0  0  0
  1 26  1  0  0  0  0
  1 27  1  0  0  0  0
  1 28  1  0  0  0  0
  2  3  1  0  0  0  0
  2 29  1  0  0  0  0
  2 30  1  0  0  0  0
  3 25  1  0  0  0  0
  3  4  1  0  0  0  0
  3 56  1  0  0  0  0
  4  5  1  0  0  0  0
  4 31  1  0  0  0  0
  4 32  1  0  0  0  0
  5  6  1  0  0  0  0
  5 33  1  0  0  0  0
  5 34  1  0  0  0  0
  6  7  1  0  0  0  0
  7  8  1  0  0  0  0
  7 25  1  0  0  0  0
  7 35  1  0  0  0  0
  8  9  1  0  0  0  0
  8 36  1  0  0  0  0
  8 37  1  0  0  0  0
  9 10  1  0  0  0  0
  9 38  1  0  0  0  0
 10 11  1  0  0  0  0
 10 39  1  0  0  0  0
 10 40  1  0  0  0  0
 11 12  1  0  0  0  0
 11 13  1  0  0  0  0
 11 41  1  0  0  0  0
 12 42  1  0  0  0  0
 13 14  1  0  0  0  0
 13 43  1  0  0  0  0
 13 44  1  0  0  0  0
 14 24  1  0  0  0  0
 14 15  1  0  0  0  0
 15 16  2  0  0  0  0
 15 45  1  0  0  0  0
 16 17  1  0  0  0  0
 17 24  2  0  0  0  0
 17 18  1  0  0  0  0
 18 19  2  0  0  0  0
 18 46  1  0  0  0  0
 19 20  1  0  0  0  0
 19 21  1  0  0  0  0
 20 47  1  0  0  0  0
 20 48  1  0  0  0  0
 20 49  1  0  0  0  0
 21 22  1  0  0  0  0
 21 23  2  0  0  0  0
 22 50  1  0  0  0  0
 22 51  1  0  0  0  0
 22 52  1  0  0  0  0
 23 24  1  0  0  0  0
 23 53  1  0  0  0  0
 25 54  1  0  0  0  0
 25 55  1  0  0  0  0
M  CHG  1   3   1
M  END
> <s_m_source_file>
AV-unprocessed.smi

> <i_m_source_file_index>
1047

> <i_lp_mmshare_version>
43012

> <i_f3d_flags>
0

> <s_epik_input>
W0NIM11bQ0gyXU4xW0NIMl1bQ0gyXU9bQ0BIXShbQ0gyXTEpW0NIMl1bTkhdW0NIMl1bQ0BIXShbT0hdKVtDSDJdbihbY0hdbjIpYyhjMjMpW2NIXWMoW0NIM10pYyhbY0hdMylbQ0gzXQ==

> <s_epik_cmdline>
J2VwaWtfcHl0aG9uJywgJy1waCcsICc3LjAnLCAnLXRuJywgJzgnLCAnLW1hJywgJzIwMCcsICctbWV0YWxfYmluZGluZycsICctaW1hZScsICc8aW5maWxlLm1hZT4nLCAnLW9tYWUnLCAnPG91dGZpbGUubWFlPic=

> <r_epik_Ionization_Penalty>
1.19246

> <r_epik_Ionization_Penalty_Charging>
0.210041

> <r_epik_Ionization_Penalty_Neutral>
0.982415

> <r_epik_State_Penalty>
1.57595

> <r_epik_Charging_Adjusted_Penalty>
1.78599

> <i_epik_Tot_Q>
1

> <i_epik_Tot_abs_Q>
1

> <r_epik_Metal_State_Penalty>
1.46172

> <b_epik_Metal_Only>
0

> <s_lp_Force_Field>
OPLS_2005

> <r_lp_Energy>
33.3203

> <b_lp_Chiralities_Consistent>
1

> <s_lp_Variant>
AV-unprocessed.smi:1047-17

> <Gold.Version>
5.8.1

> <Gold.Id.Protein>
6NUR|6NUR_protein|mol2

> <Gold.PLP.Fitness>
59.8094

> <Gold.PLP.PLP>
-47.4986

> <Gold.PLP.part.hbond>
-5.4832

> <Gold.PLP.part.metal>
0.0000

> <Gold.PLP.part.buried>
-3.5843

> <Gold.PLP.part.nonpolar>
-36.2089

> <Gold.PLP.part.repulsive>
0.1531

> <Gold.PLP.ligand.clash>
0.0000

> <Gold.PLP.ligand.torsion>
1.7263

> <Gold.PLP.Chemscore.Hbond>
5.2160

> <Gold.PLP.Chemscore.CHOScore>
0.0000

> <Gold.PLP.Chemscore.Metal>
0.0000

> <Gold.Chemscore.Hbonds>
donor molecule, donor type, donor heavy atom, donor atom, acceptor molecule, acceptor atom, score
      L1  H     3    56       P1 10174  2.00
      L1  H     9    38       P1  8028  0.30
      L1  H    12    42       P1  7957  0.34
      P1  H  7989  7998       L1    12  0.38
      P1  H  7997  8010       L1    16  0.91
      P1  H  8011  8017       L1    12  0.88

> <Gold.PLP.Chemscore.Internal.Correction>
0.1153

> <Gold.Rescore>
     Score         DG    S(hbond)    S(metal)    S(lipo)     H(rot)  DE(clash)    DE(int)     intcor
     19.05     -22.19       2.83        0.00     119.37       2.62       1.60       1.54       ----

> <Gold.Chemscore.Fitness>
19.0479

> <Gold.Chemscore.DG>
-22.1863

> <Gold.Chemscore.ZeroCoef>
-5.4800

> <Gold.Chemscore.Hbond>
2.8292

> <Gold.Chemscore.Metal>
0.0000

> <Gold.Chemscore.Lipo>
119.3710

> <Gold.Chemscore.Internal_Hbond>
0.0000

> <Gold.Chemscore.DEClash>
1.5951

> <Gold.Chemscore.DEInternal>
1.5434

> <Gold.Chemscore.Rot>
2.6209

> <Gold.Chemscore.Internal.Correction>
   9.000000E+99

> <Gold.Chemscore.Hbonds>
donor molecule, donor type, donor heavy atom, donor atom, acceptor molecule, acceptor atom, score
      L1  H     3    56       P1 10174  0.29
      L1  H     9    38       P1  8028  0.04
      L1  H    12    42       P1  7957  0.34
      P1  H  7989  7998       L1    12  0.36
      P1  H  7997  8010       L1    16  0.24
      P1  H  8011  8017       L1    12  0.17

> <Gold.Chemscore.Hbond.Weighted>
-9.4495

> <Gold.Chemscore.Metal.Weighted>
-0.0000

> <Gold.Chemscore.Lipo.Weighted>
-13.9664

> <Gold.Chemscore.Internal_Hbond.Weighted>
0.0000

> <Gold.Chemscore.DEClash.Weighted>
1.5951

> <Gold.Chemscore.DEInternal.Weighted>
1.5434

> <Gold.Chemscore.Rot.Weighted>
6.7096

> <Gold.Chemscore.Internal.Correction.Weighted>
   9.000000E+99

> <Gold.Protein.RotatedTorsions>
[ 6907 6896 6895 6894 ] final  176.78 input  -60.11 | X-H torsion
[ 7974 7965 7964 7962 ] final -131.88 input  175.53 | X-H torsion
[ 8008 7997 7996 7995 ] final   57.88 input   59.86 | X-H torsion
[ 10167 10162 10161 10158 ] final   80.44 input  -65.29 | X-H torsion
[ 10718 10713 10712 10709 ] final  -64.17 input   66.30 | X-H torsion
[ 10763 10752 10751 10750 ] final -159.67 input  -60.55 | X-H torsion
[ 11005 11000 10999 10996 ] final  160.19 input  -57.11 | X-H torsion

> <Gold.Protein.ActiveResidues>
 VAL166  LYS551  ARG553  GLY616  TRP617  ASP618  TYR619  PRO620  LYS621  CYS622 
 ASP623  PHE694  ASN695  SER759  ASP760  ASP761  ALA762  ILE779  LEU786  VAL792 
 PHE793  MET794  SER795  GLU796  ALA797  LYS798  CYS799  TRP800  GLU811  SER814 

> <Gold.Protein.RotatedAtoms>
  151.7147  133.3313  159.3299 H   0  0  0  0  0  0  0  0  0  0  0  0  # atno 6907 bound_to 6896
  150.7679  134.6501  159.6293 H   0  0  0  0  0  0  0  0  0  0  0  0  # atno 6908 bound_to 6896
  152.3690  134.6765  160.0234 H   0  0  0  0  0  0  0  0  0  0  0  0  # atno 6909 bound_to 6896
  144.9337  140.7158  143.4890 H   0  0  0  0  0  0  0  0  0  0  0  0  # atno 7974 bound_to 7965
  155.5410  140.3484  155.4447 H   0  0  0  0  0  0  0  0  0  0  0  0  # atno 8008 bound_to 7997
  156.0651  140.1349  156.9921 H   0  0  0  0  0  0  0  0  0  0  0  0  # atno 8009 bound_to 7997
  154.4499  140.0977  156.6560 H   0  0  0  0  0  0  0  0  0  0  0  0  # atno 8010 bound_to 7997
  139.9497  144.6034  150.8172 H   0  0  0  0  0  0  0  0  0  0  0  0  # atno 10167 bound_to 10162
  156.0745  130.4230  150.1381 H   0  0  0  0  0  0  0  0  0  0  0  0  # atno 10718 bound_to 10713
  154.7455  135.3079  154.8652 H   0  0  0  0  0  0  0  0  0  0  0  0  # atno 10763 bound_to 10752
  153.9454  135.6770  153.4748 H   0  0  0  0  0  0  0  0  0  0  0  0  # atno 10764 bound_to 10752
  153.1052  135.4893  154.8864 H   0  0  0  0  0  0  0  0  0  0  0  0  # atno 10765 bound_to 10752
  140.2035  134.8320  157.3044 H   0  0  0  0  0  0  0  0  0  0  0  0  # atno 11005 bound_to 11000
  145.3101  139.1821  143.4643 LP  0  0  0  0  0  0  0  0  0  0  0  0  # atno 17320 bound_to 7965
  146.3258  140.3104  142.8626 LP  0  0  0  0  0  0  0  0  0  0  0  0  # atno 17321 bound_to 7965
  140.7586  143.3112  151.2841 LP  0  0  0  0  0  0  0  0  0  0  0  0  # atno 17342 bound_to 10162
  139.6638  144.0141  152.2710 LP  0  0  0  0  0  0  0  0  0  0  0  0  # atno 17343 bound_to 10162
  156.9426  130.9749  151.3513 LP  0  0  0  0  0  0  0  0  0  0  0  0  # atno 17370 bound_to 10713
  157.5834  130.8392  149.8555 LP  0  0  0  0  0  0  0  0  0  0  0  0  # atno 17371 bound_to 10713
  140.2028  134.4233  155.7653 LP  0  0  0  0  0  0  0  0  0  0  0  0  # atno 17394 bound_to 11000
  141.2227  133.7080  156.8212 LP  0  0  0  0  0  0  0  0  0  0  0  0  # atno 17395 bound_to 11000

$$$$
