AV-unprocessed.smi:107|AV-procd|sdf|1020|dock9
  -GOLD-   2262018 23D 1   1.00000     0.00000
 Structure written by MMmdl.
 31 32  0  0  0  0  0  0  0  0  1 V2000
  152.1200  141.5770  159.0270 C   0  0  0  0  0  0  0  0  0  0  0  0
  152.2030  140.3212  158.1747 C   0  0  0  0  0  0  0  0  0  0  0  0
  151.6428  140.2407  156.9403 C   0  0  0  0  0  0  0  0  0  0  0  0
  151.6985  139.1045  156.1403 N   0  0  0  0  0  0  0  0  0  0  0  0
  151.0746  139.0384  154.7582 C   0  0  1  0  0  0  0  0  0  0  0  0
  150.0037  137.9319  154.6902 C   0  0  0  0  0  0  0  0  0  0  0  0
  148.7643  138.6704  154.2139 C   0  0  2  0  0  0  0  0  0  0  0  0
  148.6390  138.5802  152.8064 O   0  0  0  0  0  0  0  0  0  0  0  0
  149.0293  140.1069  154.6761 C   0  0  2  0  0  0  0  0  0  0  0  0
  148.2436  141.2016  153.9346 C   0  0  0  0  0  0  0  0  0  0  0  0
  148.8448  142.4596  154.1558 O   0  0  0  0  0  0  0  0  0  0  0  0
  150.4302  140.2428  154.4634 O   0  0  0  0  0  0  0  0  0  0  0  0
  152.3948  137.9702  156.6074 C   0  0  0  0  0  0  0  0  0  0  0  0
  152.5062  136.9390  155.9452 O   0  0  0  0  0  0  0  0  0  0  0  0
  152.9667  138.0513  157.8750 N   0  0  0  0  0  0  0  0  0  0  0  0
  152.9193  139.1639  158.7176 C   0  0  0  0  0  0  0  0  0  0  0  0
  153.4616  139.1141  159.8205 O   0  0  0  0  0  0  0  0  0  0  0  0
  153.4599  137.2377  158.2125 H   0  0  0  0  0  0  0  0  0  0  0  0
  151.5998  142.3839  158.5101 H   0  0  0  0  0  0  0  0  0  0  0  0
  153.1189  141.9334  159.2808 H   0  0  0  0  0  0  0  0  0  0  0  0
  151.5833  141.3720  159.9537 H   0  0  0  0  0  0  0  0  0  0  0  0
  151.1321  141.1194  156.5774 H   0  0  0  0  0  0  0  0  0  0  0  0
  151.9080  138.8960  154.0677 H   0  0  0  0  0  0  0  0  0  0  0  0
  150.3159  137.1235  154.0277 H   0  0  0  0  0  0  0  0  0  0  0  0
  149.8314  137.5168  155.6844 H   0  0  0  0  0  0  0  0  0  0  0  0
  147.8572  138.2653  154.6636 H   0  0  0  0  0  0  0  0  0  0  0  0
  148.6140  137.6675  152.5631 H   0  0  0  0  0  0  0  0  0  0  0  0
  148.8222  140.1587  155.7467 H   0  0  0  0  0  0  0  0  0  0  0  0
  148.1821  140.9943  152.8658 H   0  0  0  0  0  0  0  0  0  0  0  0
  147.2238  141.2562  154.3167 H   0  0  0  0  0  0  0  0  0  0  0  0
  148.3659  142.9063  154.8372 H   0  0  0  0  0  0  0  0  0  0  0  0
  1  2  1  0  0  0  0
  1 19  1  0  0  0  0
  1 20  1  0  0  0  0
  1 21  1  0  0  0  0
  2 16  1  0  0  0  0
  2  3  2  0  0  0  0
  3  4  1  0  0  0  0
  3 22  1  0  0  0  0
  4  5  1  0  0  0  0
  4 13  1  0  0  0  0
  5 12  1  0  0  0  0
  5  6  1  0  0  0  0
  5 23  1  0  0  0  0
  6  7  1  0  0  0  0
  6 24  1  0  0  0  0
  6 25  1  0  0  0  0
  7  8  1  0  0  0  0
  7  9  1  0  0  0  0
  7 26  1  0  0  0  0
  8 27  1  0  0  0  0
  9 10  1  0  0  0  0
  9 12  1  0  0  0  0
  9 28  1  0  0  0  0
 10 11  1  0  0  0  0
 10 29  1  0  0  0  0
 10 30  1  0  0  0  0
 11 31  1  0  0  0  0
 13 14  2  0  0  0  0
 13 15  1  0  0  0  0
 15 18  1  0  0  0  0
 15 16  1  0  0  0  0
 16 17  2  0  0  0  0
M  END
> <s_m_source_file>
AV-unprocessed.smi

> <i_m_source_file_index>
107

> <i_lp_mmshare_version>
43012

> <i_f3d_flags>
0

> <s_epik_input>
Tz1jMVtuSF1jKD1PKW4oW2NIXWMxW0NIM10pW0NAQEhdMltDSDJdW0NAQEhdKFtPSF0pW0NASF0oTzIpW0NIMl1bT0hd

> <s_epik_cmdline>
J2VwaWtfcHl0aG9uJywgJy1waCcsICc3LjAnLCAnLXRuJywgJzgnLCAnLW1hJywgJzIwMCcsICctbWV0YWxfYmluZGluZycsICctaW1hZScsICc8aW5maWxlLm1hZT4nLCAnLW9tYWUnLCAnPG91dGZpbGUubWFlPic=

> <r_lp_tautomer_probability>
0.999537

> <r_epik_Ionization_Penalty>
0.00121888

> <r_epik_Ionization_Penalty_Charging>
0.00121876

> <r_epik_Ionization_Penalty_Neutral>
1.19946e-07

> <r_epik_State_Penalty>
0.000805124

> <r_epik_Charging_Adjusted_Penalty>
0.00202389

> <i_epik_Tot_Q>
0

> <i_epik_Tot_abs_Q>
0

> <r_epik_Metal_State_Penalty>
0.662472

> <b_epik_Metal_Only>
0

> <s_epik_Chemistry_Notes>
This compound contains an acetal/aminal-like group ( X-CH(R)-Y where X, Y are N, S, or O) that may be acid/base labile, releasing an aldehyde.

> <s_lp_Force_Field>
OPLS_2005

> <r_lp_Energy>
28.0991

> <b_lp_Chiralities_Consistent>
1

> <s_lp_Variant>
AV-unprocessed.smi:107-8

> <Gold.Version>
5.8.1

> <Gold.Id.Protein>
6NUR|6NUR_protein|mol2

> <Gold.PLP.Fitness>
39.2705

> <Gold.PLP.PLP>
-28.5088

> <Gold.PLP.part.hbond>
-5.7564

> <Gold.PLP.part.metal>
0.0000

> <Gold.PLP.part.buried>
-4.4752

> <Gold.PLP.part.nonpolar>
-19.4622

> <Gold.PLP.part.repulsive>
0.2142

> <Gold.PLP.ligand.clash>
0.0000

> <Gold.PLP.ligand.torsion>
0.1207

> <Gold.PLP.Chemscore.Hbond>
3.6640

> <Gold.PLP.Chemscore.CHOScore>
0.0000

> <Gold.PLP.Chemscore.Metal>
0.0000

> <Gold.Chemscore.Hbonds>
donor molecule, donor type, donor heavy atom, donor atom, acceptor molecule, acceptor atom, score
      L1  H     8    27       P1  7948  1.00
      L1  H    11    31       P1  8028  0.51
      P1  H  7989  7998       L1    12  0.85
      P1  H  8011  8017       L1    11  0.10
      P1  H 10752 10764       L1    14  0.86

> <Gold.PLP.Chemscore.Internal.Correction>
0.0111

> <Gold.Rescore>
     Score         DG    S(hbond)    S(metal)    S(lipo)     H(rot)  DE(clash)    DE(int)     intcor
     13.38     -14.28       3.23        0.00      42.61       2.73       0.12       0.78       ----

> <Gold.Chemscore.Fitness>
13.3801

> <Gold.Chemscore.DG>
-14.2831

> <Gold.Chemscore.ZeroCoef>
-5.4800

> <Gold.Chemscore.Hbond>
3.2321

> <Gold.Chemscore.Metal>
0.0000

> <Gold.Chemscore.Lipo>
42.6054

> <Gold.Chemscore.Internal_Hbond>
0.0000

> <Gold.Chemscore.DEClash>
0.1214

> <Gold.Chemscore.DEInternal>
0.7816

> <Gold.Chemscore.Rot>
2.7253

> <Gold.Chemscore.Internal.Correction>
   9.000000E+99

> <Gold.Chemscore.Hbonds>
donor molecule, donor type, donor heavy atom, donor atom, acceptor molecule, acceptor atom, score
      L1  H     8    27       P1  7948  0.99
      L1  H    11    31       P1  8028  0.46
      P1  H  7989  7998       L1    12  0.14
      P1  H  8011  8017       L1    11  0.01
      P1  H 10752 10764       L1    14  0.85

> <Gold.Chemscore.Hbond.Weighted>
-10.7951

> <Gold.Chemscore.Metal.Weighted>
-0.0000

> <Gold.Chemscore.Lipo.Weighted>
-4.9848

> <Gold.Chemscore.Internal_Hbond.Weighted>
0.0000

> <Gold.Chemscore.DEClash.Weighted>
0.1214

> <Gold.Chemscore.DEInternal.Weighted>
0.7816

> <Gold.Chemscore.Rot.Weighted>
6.9769

> <Gold.Chemscore.Internal.Correction.Weighted>
   9.000000E+99

> <Gold.Protein.RotatedTorsions>
[ 6907 6896 6895 6894 ] final   37.18 input  -60.11 | X-H torsion
[ 7974 7965 7964 7962 ] final   22.28 input  175.53 | X-H torsion
[ 8008 7997 7996 7995 ] final  151.71 input   59.86 | X-H torsion
[ 10167 10162 10161 10158 ] final  133.19 input  -65.29 | X-H torsion
[ 10718 10713 10712 10709 ] final  -27.49 input   66.30 | X-H torsion
[ 10763 10752 10751 10750 ] final  -30.13 input  -60.55 | X-H torsion
[ 11005 11000 10999 10996 ] final -172.22 input  -57.11 | X-H torsion

> <Gold.Protein.ActiveResidues>
 VAL166  LYS551  ARG553  GLY616  TRP617  ASP618  TYR619  PRO620  LYS621  CYS622 
 ASP623  PHE694  ASN695  SER759  ASP760  ASP761  ALA762  ILE779  LEU786  VAL792 
 PHE793  MET794  SER795  GLU796  ALA797  LYS798  CYS799  TRP800  GLU811  SER814 

> <Gold.Protein.RotatedAtoms>
  152.1398  134.9071  160.0554 H   0  0  0  0  0  0  0  0  0  0  0  0  # atno 6907 bound_to 6896
  152.0144  133.3869  159.4241 H   0  0  0  0  0  0  0  0  0  0  0  0  # atno 6908 bound_to 6896
  150.6864  134.3617  159.4997 H   0  0  0  0  0  0  0  0  0  0  0  0  # atno 6909 bound_to 6896
  146.2036  139.7908  142.8743 H   0  0  0  0  0  0  0  0  0  0  0  0  # atno 7974 bound_to 7965
  156.2661  140.2040  156.6219 H   0  0  0  0  0  0  0  0  0  0  0  0  # atno 8008 bound_to 7997
  154.6750  140.0546  157.0230 H   0  0  0  0  0  0  0  0  0  0  0  0  # atno 8009 bound_to 7997
  155.1082  140.3213  155.4531 H   0  0  0  0  0  0  0  0  0  0  0  0  # atno 8010 bound_to 7997
  139.5307  144.6627  151.4960 H   0  0  0  0  0  0  0  0  0  0  0  0  # atno 10167 bound_to 10162
  156.4375  130.4457  149.7075 H   0  0  0  0  0  0  0  0  0  0  0  0  # atno 10718 bound_to 10713
  153.7760  135.6909  153.4897 H   0  0  0  0  0  0  0  0  0  0  0  0  # atno 10763 bound_to 10752
  153.1843  135.4494  155.0067 H   0  0  0  0  0  0  0  0  0  0  0  0  # atno 10764 bound_to 10752
  154.8100  135.3373  154.7266 H   0  0  0  0  0  0  0  0  0  0  0  0  # atno 10765 bound_to 10752
  140.4994  134.5908  157.4982 H   0  0  0  0  0  0  0  0  0  0  0  0  # atno 11005 bound_to 11000
  145.3399  141.0285  143.3398 LP  0  0  0  0  0  0  0  0  0  0  0  0  # atno 17320 bound_to 7965
  144.8739  139.4999  143.6755 LP  0  0  0  0  0  0  0  0  0  0  0  0  # atno 17321 bound_to 7965
  140.6483  143.8748  150.6760 LP  0  0  0  0  0  0  0  0  0  0  0  0  # atno 17342 bound_to 10162
  140.2105  143.3887  152.1722 LP  0  0  0  0  0  0  0  0  0  0  0  0  # atno 17343 bound_to 10162
  156.3953  130.7648  151.2652 LP  0  0  0  0  0  0  0  0  0  0  0  0  # atno 17370 bound_to 10713
  157.7507  131.0256  150.3924 LP  0  0  0  0  0  0  0  0  0  0  0  0  # atno 17371 bound_to 10713
  139.9722  134.7274  156.0019 LP  0  0  0  0  0  0  0  0  0  0  0  0  # atno 17394 bound_to 11000
  141.1443  133.6559  156.3821 LP  0  0  0  0  0  0  0  0  0  0  0  0  # atno 17395 bound_to 11000

$$$$
