AV-unprocessed.smi:1964|AV-procd|sdf|7929|dock4
  -GOLD-   2272010103D 1   1.00000     0.00000
 Structure written by MMmdl.
 46 48  0  0  0  0  0  0  0  0  1 V2000
  151.6746  138.4595  154.6661 C   0  0  0  0  0  0  0  0  0  0  0  0
  151.8149  139.3867  155.8862 C   0  0  1  0  0  0  0  0  0  0  0  0
  150.8665  140.6007  155.7823 C   0  0  0  0  0  0  0  0  0  0  0  0
  151.0315  141.5520  156.9789 C   0  0  0  0  0  0  0  0  0  0  0  0
  150.8390  140.8164  158.3141 C   0  0  0  0  0  0  0  0  0  0  0  0
  151.7819  139.6045  158.4236 C   0  0  0  0  0  0  0  0  0  0  0  0
  151.6240  138.6401  157.2298 C   0  0  1  0  0  0  0  0  0  0  0  0
  150.3127  138.0021  157.2712 N   0  0  0  0  0  0  0  0  0  0  0  0
  149.8411  137.1722  158.2151 C   0  0  0  0  0  0  0  0  0  0  0  0
  150.4941  136.8369  159.2020 O   0  0  0  0  0  0  0  0  0  0  0  0
  148.4092  136.6355  158.0336 C   0  0  0  0  0  0  0  0  0  0  0  0
  147.8477  135.9823  159.2408 N   0  0  0  0  0  0  0  0  0  0  0  0
  148.1136  134.6047  159.4521 C   0  0  0  0  0  0  0  0  0  0  0  0
  148.7757  133.9543  158.6420 O   0  0  0  0  0  0  0  0  0  0  0  0
  147.5646  134.0392  160.6821 C   0  0  0  0  0  0  0  0  0  0  0  0
  147.7738  132.6475  160.9090 C   0  0  0  0  0  0  0  0  0  0  0  0
  147.9366  131.5207  161.1170 N   0  0  0  0  0  0  0  0  0  0  0  0
  146.8955  134.8106  161.5634 C   0  0  0  0  0  0  0  0  0  0  0  0
  146.7009  136.1603  161.3671 N   0  0  0  0  0  0  0  0  0  0  0  0
  145.8952  136.9411  162.2626 C   0  0  0  0  0  0  0  0  0  0  0  0
  144.4615  136.5367  162.5489 C   0  0  0  0  0  0  0  0  0  0  0  0
  144.7468  137.7494  161.6987 C   0  0  0  0  0  0  0  0  0  0  0  0
  147.1239  136.7723  160.1676 C   0  0  0  0  0  0  0  0  0  0  0  0
  146.8878  137.9611  159.9391 O   0  0  0  0  0  0  0  0  0  0  0  0
  150.6649  138.0581  154.5761 H   0  0  0  0  0  0  0  0  0  0  0  0
  152.3626  137.6165  154.7335 H   0  0  0  0  0  0  0  0  0  0  0  0
  151.8984  138.9935  153.7426 H   0  0  0  0  0  0  0  0  0  0  0  0
  152.8362  139.7708  155.8738 H   0  0  0  0  0  0  0  0  0  0  0  0
  151.0610  141.1455  154.8579 H   0  0  0  0  0  0  0  0  0  0  0  0
  149.8303  140.2635  155.7239 H   0  0  0  0  0  0  0  0  0  0  0  0
  152.0248  142.0018  156.9517 H   0  0  0  0  0  0  0  0  0  0  0  0
  150.3185  142.3732  156.9011 H   0  0  0  0  0  0  0  0  0  0  0  0
  151.0184  141.5009  159.1436 H   0  0  0  0  0  0  0  0  0  0  0  0
  149.8022  140.4896  158.4062 H   0  0  0  0  0  0  0  0  0  0  0  0
  152.8135  139.9564  158.4659 H   0  0  0  0  0  0  0  0  0  0  0  0
  151.6039  139.0776  159.3619 H   0  0  0  0  0  0  0  0  0  0  0  0
  152.3940  137.8698  157.3035 H   0  0  0  0  0  0  0  0  0  0  0  0
  149.6970  138.2139  156.4998 H   0  0  0  0  0  0  0  0  0  0  0  0
  147.7762  137.4627  157.7100 H   0  0  0  0  0  0  0  0  0  0  0  0
  148.4050  135.9551  157.1808 H   0  0  0  0  0  0  0  0  0  0  0  0
  146.5064  134.3582  162.4644 H   0  0  0  0  0  0  0  0  0  0  0  0
  146.4328  137.3976  163.0917 H   0  0  0  0  0  0  0  0  0  0  0  0
  144.0601  135.6614  162.0418 H   0  0  0  0  0  0  0  0  0  0  0  0
  144.0855  136.7043  163.5559 H   0  0  0  0  0  0  0  0  0  0  0  0
  144.5581  138.7268  162.1382 H   0  0  0  0  0  0  0  0  0  0  0  0
  144.5363  137.6697  160.6337 H   0  0  0  0  0  0  0  0  0  0  0  0
  1  2  1  0  0  0  0
  1 25  1  0  0  0  0
  1 26  1  0  0  0  0
  1 27  1  0  0  0  0
  2  7  1  0  0  0  0
  2  3  1  0  0  0  0
  2 28  1  0  0  0  0
  3  4  1  0  0  0  0
  3 29  1  0  0  0  0
  3 30  1  0  0  0  0
  4  5  1  0  0  0  0
  4 31  1  0  0  0  0
  4 32  1  0  0  0  0
  5  6  1  0  0  0  0
  5 33  1  0  0  0  0
  5 34  1  0  0  0  0
  6  7  1  0  0  0  0
  6 35  1  0  0  0  0
  6 36  1  0  0  0  0
  7  8  1  0  0  0  0
  7 37  1  0  0  0  0
  8  9  1  0  0  0  0
  8 38  1  0  0  0  0
  9 10  2  0  0  0  0
  9 11  1  0  0  0  0
 11 12  1  0  0  0  0
 11 39  1  0  0  0  0
 11 40  1  0  0  0  0
 12 23  1  0  0  0  0
 12 13  1  0  0  0  0
 13 14  2  0  0  0  0
 13 15  1  0  0  0  0
 15 16  1  0  0  0  0
 15 18  2  0  0  0  0
 16 17  3  0  0  0  0
 18 19  1  0  0  0  0
 18 41  1  0  0  0  0
 19 20  1  0  0  0  0
 19 23  1  0  0  0  0
 20 22  1  0  0  0  0
 20 21  1  0  0  0  0
 20 42  1  0  0  0  0
 21 22  1  0  0  0  0
 21 43  1  0  0  0  0
 21 44  1  0  0  0  0
 22 45  1  0  0  0  0
 22 46  1  0  0  0  0
 23 24  2  0  0  0  0
M  END
> <s_m_source_file>
AV-unprocessed.smi

> <i_m_source_file_index>
1964

> <i_lp_mmshare_version>
43012

> <i_f3d_flags>
0

> <s_epik_input>
W0NIM11bQ0BASF0xW0NIMl1bQ0gyXVtDSDJdW0NIMl1bQ0BIXTFbTkhdQyg9TylbQ0gyXW4yYyg9TyljKEMjTilbY0hdbihjMj1PKVtDSF0zW0NIMl1bQ0gyXTM=

> <s_epik_cmdline>
J2VwaWtfcHl0aG9uJywgJy1waCcsICc3LjAnLCAnLXRuJywgJzgnLCAnLW1hJywgJzIwMCcsICctbWV0YWxfYmluZGluZycsICctaW1hZScsICc8aW5maWxlLm1hZT4nLCAnLW9tYWUnLCAnPG91dGZpbGUubWFlPic=

> <r_lp_tautomer_probability>
1

> <r_epik_Ionization_Penalty>
1.91372e-08

> <r_epik_Ionization_Penalty_Charging>
9.0283e-11

> <r_epik_Ionization_Penalty_Neutral>
1.90469e-08

> <r_epik_State_Penalty>
-0

> <r_epik_Charging_Adjusted_Penalty>
9.0283e-11

> <i_epik_Tot_Q>
0

> <i_epik_Tot_abs_Q>
0

> <r_epik_Metal_State_Penalty>
-0

> <b_epik_Metal_Only>
0

> <s_lp_Force_Field>
OPLS_2005

> <r_lp_Energy>
33.6562

> <b_lp_Chiralities_Consistent>
1

> <s_lp_Variant>
AV-unprocessed.smi:1964-2

> <Gold.Version>
5.8.1

> <Gold.Id.Protein>
6NUR|6NUR_protein|mol2

> <Gold.PLP.Fitness>
45.5893

> <Gold.PLP.PLP>
-38.7234

> <Gold.PLP.part.hbond>
-2.6779

> <Gold.PLP.part.metal>
0.0000

> <Gold.PLP.part.buried>
-5.6062

> <Gold.PLP.part.nonpolar>
-30.4890

> <Gold.PLP.part.repulsive>
0.0115

> <Gold.PLP.ligand.clash>
0.0000

> <Gold.PLP.ligand.torsion>
0.6688

> <Gold.PLP.Chemscore.Hbond>
2.6720

> <Gold.PLP.Chemscore.CHOScore>
0.0000

> <Gold.PLP.Chemscore.Metal>
0.0000

> <Gold.Chemscore.Hbonds>
donor molecule, donor type, donor heavy atom, donor atom, acceptor molecule, acceptor atom, score
      P1  H  6896  6907       L1    10  0.76
      P1  H  6896  6909       L1    14  0.65
      P1  H  6934  6947       L1    24  0.78

> <Gold.PLP.Chemscore.Internal.Correction>
0.1875

> <Gold.Rescore>
     Score         DG    S(hbond)    S(metal)    S(lipo)     H(rot)  DE(clash)    DE(int)     intcor
     16.30     -18.40       2.63        0.00      72.65       1.70       0.10       2.01       ----

> <Gold.Chemscore.Fitness>
16.2972

> <Gold.Chemscore.DG>
-18.3992

> <Gold.Chemscore.ZeroCoef>
-5.4800

> <Gold.Chemscore.Hbond>
2.6291

> <Gold.Chemscore.Metal>
0.0000

> <Gold.Chemscore.Lipo>
72.6477

> <Gold.Chemscore.Internal_Hbond>
0.0000

> <Gold.Chemscore.DEClash>
0.0960

> <Gold.Chemscore.DEInternal>
2.0060

> <Gold.Chemscore.Rot>
1.7038

> <Gold.Chemscore.Internal.Correction>
   9.000000E+99

> <Gold.Chemscore.Hbonds>
donor molecule, donor type, donor heavy atom, donor atom, acceptor molecule, acceptor atom, score
      P1  H  6896  6907       L1    10  0.73
      P1  H  6896  6909       L1    14  0.51
      P1  H  6934  6947       L1    24  0.74

> <Gold.Chemscore.Hbond.Weighted>
-8.7812

> <Gold.Chemscore.Metal.Weighted>
-0.0000

> <Gold.Chemscore.Lipo.Weighted>
-8.4998

> <Gold.Chemscore.Internal_Hbond.Weighted>
0.0000

> <Gold.Chemscore.DEClash.Weighted>
0.0960

> <Gold.Chemscore.DEInternal.Weighted>
2.0060

> <Gold.Chemscore.Rot.Weighted>
4.3618

> <Gold.Chemscore.Internal.Correction.Weighted>
   9.000000E+99

> <Gold.Protein.RotatedTorsions>
[ 6907 6896 6895 6894 ] final   -3.52 input  -60.11 | X-H torsion
[ 7974 7965 7964 7962 ] final  -63.81 input  175.53 | X-H torsion
[ 8008 7997 7996 7995 ] final  119.23 input   59.86 | X-H torsion
[ 10167 10162 10161 10158 ] final -134.50 input  -65.29 | X-H torsion
[ 10718 10713 10712 10709 ] final  -66.89 input   66.30 | X-H torsion
[ 10763 10752 10751 10750 ] final  120.51 input  -60.55 | X-H torsion
[ 11005 11000 10999 10996 ] final   55.02 input  -57.11 | X-H torsion

> <Gold.Protein.ActiveResidues>
 VAL166  LYS551  ARG553  GLY616  TRP617  ASP618  TYR619  PRO620  LYS621  CYS622 
 ASP623  PHE694  ASN695  SER759  ASP760  ASP761  ALA762  ILE779  LEU786  VAL792 
 PHE793  MET794  SER795  GLU796  ALA797  LYS798  CYS799  TRP800  GLU811  SER814 

> <Gold.Protein.RotatedAtoms>
  151.5124  135.1065  159.9856 H   0  0  0  0  0  0  0  0  0  0  0  0  # atno 6907 bound_to 6896
  152.4656  133.7911  159.6913 H   0  0  0  0  0  0  0  0  0  0  0  0  # atno 6908 bound_to 6896
  150.8638  133.7541  159.3009 H   0  0  0  0  0  0  0  0  0  0  0  0  # atno 6909 bound_to 6896
  145.7745  140.8795  143.0363 H   0  0  0  0  0  0  0  0  0  0  0  0  # atno 7974 bound_to 7965
  156.2585  140.2857  156.0958 H   0  0  0  0  0  0  0  0  0  0  0  0  # atno 8008 bound_to 7997
  155.1413  140.0395  157.2816 H   0  0  0  0  0  0  0  0  0  0  0  0  # atno 8009 bound_to 7997
  154.6528  140.2548  155.7201 H   0  0  0  0  0  0  0  0  0  0  0  0  # atno 8010 bound_to 7997
  139.8874  143.6764  152.2617 H   0  0  0  0  0  0  0  0  0  0  0  0  # atno 10167 bound_to 10162
  156.0587  130.4269  150.1775 H   0  0  0  0  0  0  0  0  0  0  0  0  # atno 10718 bound_to 10713
  153.5997  135.3450  155.2941 H   0  0  0  0  0  0  0  0  0  0  0  0  # atno 10763 bound_to 10752
  154.8638  135.4224  154.2426 H   0  0  0  0  0  0  0  0  0  0  0  0  # atno 10764 bound_to 10752
  153.3252  135.7041  153.7067 H   0  0  0  0  0  0  0  0  0  0  0  0  # atno 10765 bound_to 10752
  140.0640  134.5562  155.9120 H   0  0  0  0  0  0  0  0  0  0  0  0  # atno 11005 bound_to 11000
  144.6807  139.9902  143.7484 LP  0  0  0  0  0  0  0  0  0  0  0  0  # atno 17320 bound_to 7965
  146.0137  139.3191  143.0855 LP  0  0  0  0  0  0  0  0  0  0  0  0  # atno 17321 bound_to 7965
  139.7140  144.7615  151.1064 LP  0  0  0  0  0  0  0  0  0  0  0  0  # atno 17342 bound_to 10162
  140.7733  143.5293  150.9442 LP  0  0  0  0  0  0  0  0  0  0  0  0  # atno 17343 bound_to 10162
  156.9847  130.9875  151.3429 LP  0  0  0  0  0  0  0  0  0  0  0  0  # atno 17370 bound_to 10713
  157.5578  130.8225  149.8227 LP  0  0  0  0  0  0  0  0  0  0  0  0  # atno 17371 bound_to 10713
  141.1985  133.6602  156.5796 LP  0  0  0  0  0  0  0  0  0  0  0  0  # atno 17394 bound_to 11000
  140.3727  134.7592  157.4609 LP  0  0  0  0  0  0  0  0  0  0  0  0  # atno 17395 bound_to 11000

$$$$
