AV-unprocessed.smi:1033|AV-procd|sdf|4499|dock8
  -GOLD-   22720 2493D 1   1.00000     0.00000
 Structure written by MMmdl.
 57 59  0  0  0  0  0  0  0  0  3 V2000
  152.0738  143.7267  160.1083 C   0  0  0  0  0  0  0  0  0  0  0  0
  151.8167  142.6862  159.0315 C   0  0  0  0  0  0  0  0  0  0  0  0
  150.9762  143.0294  157.9491 C   0  0  0  0  0  0  0  0  0  0  0  0
  150.7501  142.0525  156.9871 C   0  0  0  0  0  0  0  0  0  0  0  0
  149.9751  142.0770  155.8263 N   0  3  0  0  0  0  0  0  0  0  0  0
  150.0515  140.8692  155.2028 C   0  0  0  0  0  0  0  0  0  0  0  0
  150.8574  140.0689  155.9533 N   0  0  0  0  0  0  0  0  0  0  0  0
  151.2533  138.6708  155.7248 C   0  0  0  0  0  0  0  0  0  0  0  0
  150.1586  137.8335  155.0262 C   0  0  1  0  0  0  0  0  0  0  0  0
  150.1983  138.1494  153.6511 O   0  0  0  0  0  0  0  0  0  0  0  0
  150.3150  136.3002  155.1581 C   0  0  0  0  0  0  0  0  0  0  0  0
  149.2155  135.5351  154.5193 N   0  3  0  0  0  0  0  0  0  0  0  0
  147.9261  135.6616  155.2425 C   0  0  0  0  0  0  0  0  0  0  0  0
  146.8087  134.9688  154.4387 C   0  0  0  0  0  0  0  0  0  0  0  0
  147.0686  133.5496  154.1940 N   0  0  0  0  0  0  0  0  0  0  0  0
  146.9416  132.7362  155.4137 C   0  0  0  0  0  0  0  0  0  0  0  0
  146.9443  131.2014  155.2320 C   0  0  2  0  0  0  0  0  0  0  0  0
  148.2597  130.5583  154.7727 C   0  0  0  0  0  0  0  0  0  0  0  0
  145.8966  130.8261  154.3628 O   0  0  0  0  0  0  0  0  0  0  0  0
  148.3619  133.4349  153.5085 C   0  0  0  0  0  0  0  0  0  0  0  0
  149.5297  134.1062  154.2626 C   0  0  0  0  0  0  0  0  0  0  0  0
  151.3321  140.7719  157.0686 C   0  0  0  0  0  0  0  0  0  0  0  0
  152.1731  140.4223  158.1232 C   0  0  0  0  0  0  0  0  0  0  0  0
  152.4077  141.3992  159.1169 C   0  0  0  0  0  0  0  0  0  0  0  0
  153.3051  141.0389  160.2885 C   0  0  0  0  0  0  0  0  0  0  0  0
  151.5296  144.6503  159.9090 H   0  0  0  0  0  0  0  0  0  0  0  0
  153.1352  143.9703  160.1600 H   0  0  0  0  0  0  0  0  0  0  0  0
  151.7547  143.3566  161.0828 H   0  0  0  0  0  0  0  0  0  0  0  0
  150.5244  144.0084  157.8770 H   0  0  0  0  0  0  0  0  0  0  0  0
  149.5566  140.5939  154.2820 H   0  0  0  0  0  0  0  0  0  0  0  0
  152.1446  138.7053  155.0961 H   0  0  0  0  0  0  0  0  0  0  0  0
  151.5668  138.2134  156.6626 H   0  0  0  0  0  0  0  0  0  0  0  0
  149.1776  138.1503  155.3783 H   0  0  0  0  0  0  0  0  0  0  0  0
  149.5783  137.6032  153.1919 H   0  0  0  0  0  0  0  0  0  0  0  0
  151.2622  135.9735  154.7258 H   0  0  0  0  0  0  0  0  0  0  0  0
  150.3613  136.0499  156.2192 H   0  0  0  0  0  0  0  0  0  0  0  0
  148.0132  135.2351  156.2431 H   0  0  0  0  0  0  0  0  0  0  0  0
  147.6755  136.7157  155.3672 H   0  0  0  0  0  0  0  0  0  0  0  0
  145.8530  135.0897  154.9503 H   0  0  0  0  0  0  0  0  0  0  0  0
  146.6938  135.4790  153.4816 H   0  0  0  0  0  0  0  0  0  0  0  0
  147.7034  133.0158  156.1404 H   0  0  0  0  0  0  0  0  0  0  0  0
  145.9942  132.9786  155.8980 H   0  0  0  0  0  0  0  0  0  0  0  0
  146.7018  130.7703  156.2038 H   0  0  0  0  0  0  0  0  0  0  0  0
  149.1001  130.9023  155.3758 H   0  0  0  0  0  0  0  0  0  0  0  0
  148.4729  130.7713  153.7256 H   0  0  0  0  0  0  0  0  0  0  0  0
  148.2092  129.4734  154.8697 H   0  0  0  0  0  0  0  0  0  0  0  0
  146.2295  130.1911  153.7471 H   0  0  0  0  0  0  0  0  0  0  0  0
  148.6132  132.3963  153.3145 H   0  0  0  0  0  0  0  0  0  0  0  0
  148.2762  133.8974  152.5242 H   0  0  0  0  0  0  0  0  0  0  0  0
  150.4285  134.0221  153.6536 H   0  0  0  0  0  0  0  0  0  0  0  0
  149.7423  133.5941  155.2013 H   0  0  0  0  0  0  0  0  0  0  0  0
  152.6233  139.4437  158.1972 H   0  0  0  0  0  0  0  0  0  0  0  0
  153.7017  140.0279  160.1925 H   0  0  0  0  0  0  0  0  0  0  0  0
  152.7497  141.0912  161.2253 H   0  0  0  0  0  0  0  0  0  0  0  0
  154.1518  141.7232  160.3485 H   0  0  0  0  0  0  0  0  0  0  0  0
  149.0674  135.9633  153.6170 H   0  0  0  0  0  0  0  0  0  0  0  0
  149.4366  142.8612  155.4796 H   0  0  0  0  0  0  0  0  0  0  0  0
  1  2  1  0  0  0  0
  1 26  1  0  0  0  0
  1 27  1  0  0  0  0
  1 28  1  0  0  0  0
  2 24  1  0  0  0  0
  2  3  2  0  0  0  0
  3  4  1  0  0  0  0
  3 29  1  0  0  0  0
  4 22  2  0  0  0  0
  4  5  1  0  0  0  0
  5  6  2  0  0  0  0
  5 57  1  0  0  0  0
  6  7  1  0  0  0  0
  6 30  1  0  0  0  0
  7  8  1  0  0  0  0
  7 22  1  0  0  0  0
  8  9  1  0  0  0  0
  8 31  1  0  0  0  0
  8 32  1  0  0  0  0
  9 10  1  0  0  0  0
  9 11  1  0  0  0  0
  9 33  1  0  0  0  0
 10 34  1  0  0  0  0
 11 12  1  0  0  0  0
 11 35  1  0  0  0  0
 11 36  1  0  0  0  0
 12 21  1  0  0  0  0
 12 13  1  0  0  0  0
 12 56  1  0  0  0  0
 13 14  1  0  0  0  0
 13 37  1  0  0  0  0
 13 38  1  0  0  0  0
 14 15  1  0  0  0  0
 14 39  1  0  0  0  0
 14 40  1  0  0  0  0
 15 16  1  0  0  0  0
 15 20  1  0  0  0  0
 16 17  1  0  0  0  0
 16 41  1  0  0  0  0
 16 42  1  0  0  0  0
 17 18  1  0  0  0  0
 17 19  1  0  0  0  0
 17 43  1  0  0  0  0
 18 44  1  0  0  0  0
 18 45  1  0  0  0  0
 18 46  1  0  0  0  0
 19 47  1  0  0  0  0
 20 21  1  0  0  0  0
 20 48  1  0  0  0  0
 20 49  1  0  0  0  0
 21 50  1  0  0  0  0
 21 51  1  0  0  0  0
 22 23  1  0  0  0  0
 23 24  2  0  0  0  0
 23 52  1  0  0  0  0
 24 25  1  0  0  0  0
 25 53  1  0  0  0  0
 25 54  1  0  0  0  0
 25 55  1  0  0  0  0
M  CHG  1   5   1
M  CHG  1  12   1
M  END
> <s_m_source_file>
AV-unprocessed.smi

> <i_m_source_file_index>
1033

> <i_lp_mmshare_version>
43012

> <i_f3d_flags>
0

> <s_epik_input>
W0NIM11jKFtjSF0xKWMoW0NIM10pW2NIXWMoYzEyKW4oW2NIXW4yKVtDSDJdW0NASF0oW09IXSlbQ0gyXU4zW0NIMl1bQ0gyXU4oW0NIMl1bQ0gyXTMpW0NIMl1bQ0BIXShbQ0gzXSlbT0hd

> <s_epik_cmdline>
J2VwaWtfcHl0aG9uJywgJy1waCcsICc3LjAnLCAnLXRuJywgJzgnLCAnLW1hJywgJzIwMCcsICctbWV0YWxfYmluZGluZycsICctaW1hZScsICc8aW5maWxlLm1hZT4nLCAnLW9tYWUnLCAnPG91dGZpbGUubWFlPic=

> <r_epik_Ionization_Penalty>
1.22049

> <r_epik_Ionization_Penalty_Charging>
1.17952

> <r_epik_Ionization_Penalty_Neutral>
0.0409743

> <r_epik_State_Penalty>
1.61468

> <r_epik_Charging_Adjusted_Penalty>
2.7942

> <i_epik_Tot_Q>
2

> <i_epik_Tot_abs_Q>
2

> <r_epik_Metal_State_Penalty>
5.63169

> <b_epik_Metal_Only>
0

> <s_lp_Force_Field>
OPLS_2005

> <r_lp_Energy>
50.4079

> <b_lp_Chiralities_Consistent>
1

> <s_lp_Variant>
AV-unprocessed.smi:1033-10

> <Gold.Version>
5.8.1

> <Gold.Id.Protein>
6NUR|6NUR_protein|mol2

> <Gold.PLP.Fitness>
57.0327

> <Gold.PLP.PLP>
-43.2567

> <Gold.PLP.part.hbond>
-5.0428

> <Gold.PLP.part.metal>
0.0000

> <Gold.PLP.part.buried>
-2.1599

> <Gold.PLP.part.nonpolar>
-34.8990

> <Gold.PLP.part.repulsive>
0.2298

> <Gold.PLP.ligand.clash>
0.0000

> <Gold.PLP.ligand.torsion>
0.6977

> <Gold.PLP.Chemscore.Hbond>
5.0000

> <Gold.PLP.Chemscore.CHOScore>
0.0000

> <Gold.PLP.Chemscore.Metal>
0.0000

> <Gold.Chemscore.Hbonds>
donor molecule, donor type, donor heavy atom, donor atom, acceptor molecule, acceptor atom, score
      L1  H     5    57       P1  8028  1.98
      L1  H    10    34       P1  7948  1.00
      L1  H    12    56       P1  7948  2.00

> <Gold.PLP.Chemscore.Internal.Correction>
0.1714

> <Gold.Rescore>
     Score         DG    S(hbond)    S(metal)    S(lipo)     H(rot)  DE(clash)    DE(int)     intcor
     18.83     -19.57       2.72        0.00     111.62       3.15       0.03       0.71       ----

> <Gold.Chemscore.Fitness>
18.8326

> <Gold.Chemscore.DG>
-19.5658

> <Gold.Chemscore.ZeroCoef>
-5.4800

> <Gold.Chemscore.Hbond>
2.7204

> <Gold.Chemscore.Metal>
0.0000

> <Gold.Chemscore.Lipo>
111.6193

> <Gold.Chemscore.Internal_Hbond>
0.0000

> <Gold.Chemscore.DEClash>
0.0263

> <Gold.Chemscore.DEInternal>
0.7069

> <Gold.Chemscore.Rot>
3.1483

> <Gold.Chemscore.Internal.Correction>
   9.000000E+99

> <Gold.Chemscore.Hbonds>
donor molecule, donor type, donor heavy atom, donor atom, acceptor molecule, acceptor atom, score
      L1  H     5    57       P1  8028  0.94
      L1  H    10    34       P1  7948  0.79
      L1  H    12    56       P1  7948  0.92

> <Gold.Chemscore.Hbond.Weighted>
-9.0861

> <Gold.Chemscore.Metal.Weighted>
-0.0000

> <Gold.Chemscore.Lipo.Weighted>
-13.0595

> <Gold.Chemscore.Internal_Hbond.Weighted>
0.0000

> <Gold.Chemscore.DEClash.Weighted>
0.0263

> <Gold.Chemscore.DEInternal.Weighted>
0.7069

> <Gold.Chemscore.Rot.Weighted>
8.0597

> <Gold.Chemscore.Internal.Correction.Weighted>
   9.000000E+99

> <Gold.Protein.RotatedTorsions>
[ 6907 6896 6895 6894 ] final  -75.74 input  -60.11 | X-H torsion
[ 7974 7965 7964 7962 ] final  134.60 input  175.53 | X-H torsion
[ 8008 7997 7996 7995 ] final   -5.73 input   59.86 | X-H torsion
[ 10167 10162 10161 10158 ] final  113.83 input  -65.29 | X-H torsion
[ 10718 10713 10712 10709 ] final  142.35 input   66.30 | X-H torsion
[ 10763 10752 10751 10750 ] final  -83.46 input  -60.55 | X-H torsion
[ 11005 11000 10999 10996 ] final  -12.19 input  -57.11 | X-H torsion

> <Gold.Protein.ActiveResidues>
 VAL166  LYS551  ARG553  GLY616  TRP617  ASP618  TYR619  PRO620  LYS621  CYS622 
 ASP623  PHE694  ASN695  SER759  ASP760  ASP761  ALA762  ILE779  LEU786  VAL792 
 PHE793  MET794  SER795  GLU796  ALA797  LYS798  CYS799  TRP800  GLU811  SER814 

> <Gold.Protein.RotatedAtoms>
  150.7049  134.4677  159.5410 H   0  0  0  0  0  0  0  0  0  0  0  0  # atno 6907 bound_to 6896
  152.2339  134.8292  160.0479 H   0  0  0  0  0  0  0  0  0  0  0  0  # atno 6908 bound_to 6896
  151.9098  133.3523  159.3896 H   0  0  0  0  0  0  0  0  0  0  0  0  # atno 6909 bound_to 6896
  144.9747  139.4568  143.5416 H   0  0  0  0  0  0  0  0  0  0  0  0  # atno 7974 bound_to 7965
  154.6009  140.2451  155.7793 H   0  0  0  0  0  0  0  0  0  0  0  0  # atno 8008 bound_to 7997
  156.2310  140.2966  156.0142 H   0  0  0  0  0  0  0  0  0  0  0  0  # atno 8009 bound_to 7997
  155.2212  140.0400  157.2939 H   0  0  0  0  0  0  0  0  0  0  0  0  # atno 8010 bound_to 7997
  139.6433  144.7125  151.2193 H   0  0  0  0  0  0  0  0  0  0  0  0  # atno 10167 bound_to 10162
  157.3816  131.0993  151.0733 H   0  0  0  0  0  0  0  0  0  0  0  0  # atno 10718 bound_to 10713
  154.5880  135.5555  153.7250 H   0  0  0  0  0  0  0  0  0  0  0  0  # atno 10763 bound_to 10752
  153.0106  135.6336  154.1890 H   0  0  0  0  0  0  0  0  0  0  0  0  # atno 10764 bound_to 10752
  154.1831  135.2886  155.3026 H   0  0  0  0  0  0  0  0  0  0  0  0  # atno 10765 bound_to 10752
  140.7632  133.8498  155.9142 H   0  0  0  0  0  0  0  0  0  0  0  0  # atno 11005 bound_to 11000
  146.3392  139.8981  142.8798 LP  0  0  0  0  0  0  0  0  0  0  0  0  # atno 17320 bound_to 7965
  145.2508  141.0043  143.3882 LP  0  0  0  0  0  0  0  0  0  0  0  0  # atno 17321 bound_to 7965
  140.7502  143.6275  150.8455 LP  0  0  0  0  0  0  0  0  0  0  0  0  # atno 17342 bound_to 10162
  139.9914  143.5842  152.2908 LP  0  0  0  0  0  0  0  0  0  0  0  0  # atno 17343 bound_to 10162
  157.1800  130.6305  149.5669 LP  0  0  0  0  0  0  0  0  0  0  0  0  # atno 17370 bound_to 10713
  155.9777  130.4756  150.6609 LP  0  0  0  0  0  0  0  0  0  0  0  0  # atno 17371 bound_to 10713
  140.9644  134.1614  157.4628 LP  0  0  0  0  0  0  0  0  0  0  0  0  # atno 17394 bound_to 11000
  139.8767  134.9956  156.5753 LP  0  0  0  0  0  0  0  0  0  0  0  0  # atno 17395 bound_to 11000

$$$$
