AV-unprocessed.smi:2267|AV-procd|sdf|9148|dock9
  -GOLD-   2272012353D 1   1.00000     0.00000
 Structure written by MMmdl.
 41 42  0  0  0  0  0  0  0  0  1 V2000
  153.5357  141.5019  160.5430 C   0  0  0  0  0  0  0  0  0  0  0  0
  152.6829  142.1492  159.4715 C   0  0  0  0  0  0  0  0  0  0  0  0
  152.7547  143.5389  159.2485 C   0  0  0  0  0  0  0  0  0  0  0  0
  151.9603  144.1316  158.2501 C   0  0  0  0  0  0  0  0  0  0  0  0
  151.0945  143.3373  157.4747 C   0  0  0  0  0  0  0  0  0  0  0  0
  151.0102  141.9455  157.6840 C   0  0  0  0  0  0  0  0  0  0  0  0
  150.1361  141.2451  156.8804 O   0  0  0  0  0  0  0  0  0  0  0  0
  149.8175  141.7801  155.6025 C   0  0  0  0  0  0  0  0  0  0  0  0
  149.4415  140.6248  154.6589 C   0  0  2  0  0  0  0  0  0  0  0  0
  149.5064  141.1272  153.3384 O   0  0  0  0  0  0  0  0  0  0  0  0
  147.9998  140.1248  154.9056 C   0  0  0  0  0  0  0  0  0  0  0  0
  147.0375  141.2346  155.0152 N   0  0  0  0  0  0  0  0  0  0  0  0
  146.6263  141.8235  153.8081 C   0  0  0  0  0  0  0  0  0  0  0  0
  145.7864  142.8059  153.7827 N   0  0  0  0  0  0  0  0  0  0  0  0
  145.2604  143.3046  154.9780 C   0  0  0  0  0  0  0  0  0  0  0  0
  144.2829  144.4576  154.8338 C   0  0  0  0  0  0  0  0  0  0  0  0
  145.6124  142.7739  156.1809 C   0  0  0  0  0  0  0  0  0  0  0  0
  145.0698  143.2737  157.5141 C   0  0  0  0  0  0  0  0  0  0  0  0
  146.5664  141.6539  156.2252 C   0  0  0  0  0  0  0  0  0  0  0  0
  146.9233  141.1207  157.2777 O   0  0  0  0  0  0  0  0  0  0  0  0
  151.8156  141.3562  158.6917 C   0  0  0  0  0  0  0  0  0  0  0  0
  153.9839  142.2490  161.1986 H   0  0  0  0  0  0  0  0  0  0  0  0
  154.3374  140.9217  160.0860 H   0  0  0  0  0  0  0  0  0  0  0  0
  152.9326  140.8319  161.1565 H   0  0  0  0  0  0  0  0  0  0  0  0
  153.4172  144.1537  159.8400 H   0  0  0  0  0  0  0  0  0  0  0  0
  152.0145  145.1964  158.0783 H   0  0  0  0  0  0  0  0  0  0  0  0
  150.4880  143.8011  156.7105 H   0  0  0  0  0  0  0  0  0  0  0  0
  148.9622  142.4475  155.7204 H   0  0  0  0  0  0  0  0  0  0  0  0
  150.6424  142.3647  155.1907 H   0  0  0  0  0  0  0  0  0  0  0  0
  150.1549  139.8089  154.7822 H   0  0  0  0  0  0  0  0  0  0  0  0
  149.5653  140.3974  152.7410 H   0  0  0  0  0  0  0  0  0  0  0  0
  147.6868  139.4877  154.0763 H   0  0  0  0  0  0  0  0  0  0  0  0
  147.9663  139.4631  155.7738 H   0  0  0  0  0  0  0  0  0  0  0  0
  147.0603  141.3936  152.9037 H   0  0  0  0  0  0  0  0  0  0  0  0
  144.6470  145.3375  155.3651 H   0  0  0  0  0  0  0  0  0  0  0  0
  143.3077  144.1836  155.2376 H   0  0  0  0  0  0  0  0  0  0  0  0
  144.1453  144.7328  153.7873 H   0  0  0  0  0  0  0  0  0  0  0  0
  144.5412  142.4708  158.0287 H   0  0  0  0  0  0  0  0  0  0  0  0
  144.3780  144.1080  157.4112 H   0  0  0  0  0  0  0  0  0  0  0  0
  145.8891  143.6045  158.1532 H   0  0  0  0  0  0  0  0  0  0  0  0
  151.7855  140.2948  158.8852 H   0  0  0  0  0  0  0  0  0  0  0  0
  1  2  1  0  0  0  0
  1 22  1  0  0  0  0
  1 23  1  0  0  0  0
  1 24  1  0  0  0  0
  2 21  1  0  0  0  0
  2  3  2  0  0  0  0
  3  4  1  0  0  0  0
  3 25  1  0  0  0  0
  4  5  2  0  0  0  0
  4 26  1  0  0  0  0
  5  6  1  0  0  0  0
  5 27  1  0  0  0  0
  6  7  1  0  0  0  0
  6 21  2  0  0  0  0
  7  8  1  0  0  0  0
  8  9  1  0  0  0  0
  8 28  1  0  0  0  0
  8 29  1  0  0  0  0
  9 10  1  0  0  0  0
  9 11  1  0  0  0  0
  9 30  1  0  0  0  0
 10 31  1  0  0  0  0
 11 12  1  0  0  0  0
 11 32  1  0  0  0  0
 11 33  1  0  0  0  0
 12 19  1  0  0  0  0
 12 13  1  0  0  0  0
 13 14  2  0  0  0  0
 13 34  1  0  0  0  0
 14 15  1  0  0  0  0
 15 16  1  0  0  0  0
 15 17  2  0  0  0  0
 16 35  1  0  0  0  0
 16 36  1  0  0  0  0
 16 37  1  0  0  0  0
 17 18  1  0  0  0  0
 17 19  1  0  0  0  0
 18 38  1  0  0  0  0
 18 39  1  0  0  0  0
 18 40  1  0  0  0  0
 19 20  2  0  0  0  0
 21 41  1  0  0  0  0
M  END
> <s_m_source_file>
AV-unprocessed.smi

> <i_m_source_file_index>
2267

> <i_lp_mmshare_version>
43012

> <i_f3d_flags>
0

> <s_epik_input>
W0NIM11jMVtjSF1bY0hdW2NIXWMoW2NIXTEpT1tDSDJdW0NASF0oW09IXSlbQ0gyXW4yW2NIXW5jKFtDSDNdKWMoW0NIM10pYzI9Tw==

> <s_epik_cmdline>
J2VwaWtfcHl0aG9uJywgJy1waCcsICc3LjAnLCAnLXRuJywgJzgnLCAnLW1hJywgJzIwMCcsICctbWV0YWxfYmluZGluZycsICctaW1hZScsICc8aW5maWxlLm1hZT4nLCAnLW9tYWUnLCAnPG91dGZpbGUubWFlPic=

> <r_lp_tautomer_probability>
1

> <r_epik_Ionization_Penalty>
3.72236e-05

> <r_epik_Ionization_Penalty_Charging>
8.38864e-08

> <r_epik_Ionization_Penalty_Neutral>
3.71397e-05

> <r_epik_State_Penalty>
-0

> <r_epik_Charging_Adjusted_Penalty>
8.38864e-08

> <i_epik_Tot_Q>
0

> <i_epik_Tot_abs_Q>
0

> <r_epik_Metal_State_Penalty>
-0

> <b_epik_Metal_Only>
0

> <s_lp_Force_Field>
OPLS_2005

> <r_lp_Energy>
23.9214

> <b_lp_Chiralities_Consistent>
1

> <s_lp_Variant>
AV-unprocessed.smi:2267-1

> <Gold.Version>
5.8.1

> <Gold.Id.Protein>
6NUR|6NUR_protein|mol2

> <Gold.PLP.Fitness>
47.5429

> <Gold.PLP.PLP>
-44.0405

> <Gold.PLP.part.hbond>
-2.5333

> <Gold.PLP.part.metal>
0.0000

> <Gold.PLP.part.buried>
-5.1391

> <Gold.PLP.part.nonpolar>
-36.5868

> <Gold.PLP.part.repulsive>
0.3106

> <Gold.PLP.ligand.clash>
0.0133

> <Gold.PLP.ligand.torsion>
0.9870

> <Gold.PLP.Chemscore.Hbond>
1.8159

> <Gold.PLP.Chemscore.CHOScore>
0.0000

> <Gold.PLP.Chemscore.Metal>
0.0000

> <Gold.Chemscore.Hbonds>
donor molecule, donor type, donor heavy atom, donor atom, acceptor molecule, acceptor atom, score
      L1  H    10    31       P1  7957  0.83
      P1  H  7989  7998       L1    10  0.01
      P1  H  8011  8017       L1    10  1.00

> <Gold.PLP.Chemscore.Internal.Correction>
0.0419

> <Gold.Rescore>
     Score         DG    S(hbond)    S(metal)    S(lipo)     H(rot)  DE(clash)    DE(int)     intcor
     14.75     -16.64       1.36        0.00     107.99       2.35       0.08       1.81       ----

> <Gold.Chemscore.Fitness>
14.7455

> <Gold.Chemscore.DG>
-16.6393

> <Gold.Chemscore.ZeroCoef>
-5.4800

> <Gold.Chemscore.Hbond>
1.3585

> <Gold.Chemscore.Metal>
0.0000

> <Gold.Chemscore.Lipo>
107.9949

> <Gold.Chemscore.Internal_Hbond>
0.0000

> <Gold.Chemscore.DEClash>
0.0798

> <Gold.Chemscore.DEInternal>
1.8140

> <Gold.Chemscore.Rot>
2.3490

> <Gold.Chemscore.Internal.Correction>
   9.000000E+99

> <Gold.Chemscore.Hbonds>
donor molecule, donor type, donor heavy atom, donor atom, acceptor molecule, acceptor atom, score
      L1  H    10    31       P1  7957  0.82
      P1  H  8011  8017       L1    10  0.29

> <Gold.Chemscore.Hbond.Weighted>
-4.5375

> <Gold.Chemscore.Metal.Weighted>
-0.0000

> <Gold.Chemscore.Lipo.Weighted>
-12.6354

> <Gold.Chemscore.Internal_Hbond.Weighted>
0.0000

> <Gold.Chemscore.DEClash.Weighted>
0.0798

> <Gold.Chemscore.DEInternal.Weighted>
1.8140

> <Gold.Chemscore.Rot.Weighted>
6.0136

> <Gold.Chemscore.Internal.Correction.Weighted>
   9.000000E+99

> <Gold.Protein.RotatedTorsions>
[ 6907 6896 6895 6894 ] final  167.33 input  -60.11 | X-H torsion
[ 7974 7965 7964 7962 ] final   -5.54 input  175.53 | X-H torsion
[ 8008 7997 7996 7995 ] final  -90.48 input   59.86 | X-H torsion
[ 10167 10162 10161 10158 ] final  144.11 input  -65.29 | X-H torsion
[ 10718 10713 10712 10709 ] final -123.43 input   66.30 | X-H torsion
[ 10763 10752 10751 10750 ] final   -6.72 input  -60.55 | X-H torsion
[ 11005 11000 10999 10996 ] final   65.88 input  -57.11 | X-H torsion

> <Gold.Protein.ActiveResidues>
 VAL166  LYS551  ARG553  GLY616  TRP617  ASP618  TYR619  PRO620  LYS621  CYS622 
 ASP623  PHE694  ASN695  SER759  ASP760  ASP761  ALA762  ILE779  LEU786  VAL792 
 PHE793  MET794  SER795  GLU796  ALA797  LYS798  CYS799  TRP800  GLU811  SER814 

> <Gold.Protein.RotatedAtoms>
  151.8650  133.3464  159.3715 H   0  0  0  0  0  0  0  0  0  0  0  0  # atno 6907 bound_to 6896
  150.7168  134.5169  159.5644 H   0  0  0  0  0  0  0  0  0  0  0  0  # atno 6908 bound_to 6896
  152.2690  134.7954  160.0468 H   0  0  0  0  0  0  0  0  0  0  0  0  # atno 6909 bound_to 6896
  146.2350  140.2037  142.8334 H   0  0  0  0  0  0  0  0  0  0  0  0  # atno 7974 bound_to 7965
  154.6991  140.0530  157.0440 H   0  0  0  0  0  0  0  0  0  0  0  0  # atno 8008 bound_to 7997
  155.0710  140.3199  155.4611 H   0  0  0  0  0  0  0  0  0  0  0  0  # atno 8009 bound_to 7997
  156.2754  140.2082  156.5838 H   0  0  0  0  0  0  0  0  0  0  0  0  # atno 8010 bound_to 7997
  139.4954  144.5994  151.6512 H   0  0  0  0  0  0  0  0  0  0  0  0  # atno 10167 bound_to 10162
  156.1501  130.6529  150.9901 H   0  0  0  0  0  0  0  0  0  0  0  0  # atno 10718 bound_to 10713
  153.4163  135.7009  153.6325 H   0  0  0  0  0  0  0  0  0  0  0  0  # atno 10763 bound_to 10752
  153.4798  135.3696  155.2436 H   0  0  0  0  0  0  0  0  0  0  0  0  # atno 10764 bound_to 10752
  154.8720  135.4063  154.3523 H   0  0  0  0  0  0  0  0  0  0  0  0  # atno 10765 bound_to 10752
  139.9867  134.6657  156.0164 H   0  0  0  0  0  0  0  0  0  0  0  0  # atno 11005 bound_to 11000
  144.9762  140.8416  143.5425 LP  0  0  0  0  0  0  0  0  0  0  0  0  # atno 17320 bound_to 7965
  145.2024  139.2245  143.5186 LP  0  0  0  0  0  0  0  0  0  0  0  0  # atno 17321 bound_to 7965
  140.5640  144.0220  150.6183 LP  0  0  0  0  0  0  0  0  0  0  0  0  # atno 17342 bound_to 10162
  140.3316  143.3074  152.0682 LP  0  0  0  0  0  0  0  0  0  0  0  0  # atno 17343 bound_to 10162
  157.6650  131.0873  150.7749 LP  0  0  0  0  0  0  0  0  0  0  0  0  # atno 17370 bound_to 10713
  156.7818  130.4862  149.5399 LP  0  0  0  0  0  0  0  0  0  0  0  0  # atno 17371 bound_to 10713
  141.1530  133.6546  156.4074 LP  0  0  0  0  0  0  0  0  0  0  0  0  # atno 17394 bound_to 11000
  140.4989  134.6505  157.5240 LP  0  0  0  0  0  0  0  0  0  0  0  0  # atno 17395 bound_to 11000

$$$$
