AV-unprocessed.smi:390|AV-procd|sdf|2478|dock2
  -GOLD-   2262022423D 1   1.00000     0.00000
 Structure written by MMmdl.
 31 32  0  0  0  0  0  0  0  0  1 V2000
  146.6880  141.6652  154.3374 N   0  0  0  0  0  0  0  0  0  0  0  0
  147.7237  141.2690  154.6685 C   0  0  0  0  0  0  0  0  0  0  0  0
  149.0020  140.8054  155.0953 C   0  0  0  0  0  0  0  0  0  0  0  0
  149.7273  141.4710  156.0201 C   0  0  0  0  0  0  0  0  0  0  0  0
  150.9643  141.0399  156.4537 N   0  0  0  0  0  0  0  0  0  0  0  0
  151.7789  141.8509  157.3137 C   0  0  0  0  0  0  0  0  0  0  0  0
  151.3420  142.1356  158.7375 C   0  0  0  0  0  0  0  0  0  0  0  0
  151.2906  143.2301  157.6995 C   0  0  0  0  0  0  0  0  0  0  0  0
  151.5637  139.9003  155.8739 C   0  0  0  0  0  0  0  0  0  0  0  0
  152.7119  139.5589  156.1701 O   0  0  0  0  0  0  0  0  0  0  0  0
  150.7927  139.1842  154.9260 N   0  0  0  0  0  0  0  0  0  0  0  0
  151.3875  138.0000  154.3207 C   0  0  0  0  0  0  0  0  0  0  0  0
  151.0524  136.6818  155.0369 C   0  0  0  0  0  0  0  0  0  0  0  0
  151.6448  136.3665  156.0725 O   0  0  0  0  0  0  0  0  0  0  0  0
  150.0913  135.9459  154.4430 N   0  0  0  0  0  0  0  0  0  0  0  0
  149.6010  134.7585  154.8483 C   0  0  0  0  0  0  0  0  0  0  0  0
  148.8298  134.1992  153.9141 N   0  0  0  0  0  0  0  0  0  0  0  0
  149.8105  134.2178  155.9343 O   0  0  0  0  0  0  0  0  0  0  0  0
  149.5043  139.5779  154.4819 C   0  0  0  0  0  0  0  0  0  0  0  0
  148.8827  138.9343  153.6340 O   0  0  0  0  0  0  0  0  0  0  0  0
  149.3227  142.3791  156.4433 H   0  0  0  0  0  0  0  0  0  0  0  0
  152.8522  141.7546  157.1598 H   0  0  0  0  0  0  0  0  0  0  0  0
  150.3914  141.7278  159.0764 H   0  0  0  0  0  0  0  0  0  0  0  0
  152.1188  142.1978  159.4969 H   0  0  0  0  0  0  0  0  0  0  0  0
  152.0317  144.0236  157.7685 H   0  0  0  0  0  0  0  0  0  0  0  0
  150.3065  143.5413  157.3539 H   0  0  0  0  0  0  0  0  0  0  0  0
  151.0703  137.9609  153.2773 H   0  0  0  0  0  0  0  0  0  0  0  0
  152.4671  138.1533  154.2789 H   0  0  0  0  0  0  0  0  0  0  0  0
  149.6960  136.3309  153.5981 H   0  0  0  0  0  0  0  0  0  0  0  0
  148.3940  133.3040  154.0797 H   0  0  0  0  0  0  0  0  0  0  0  0
  148.6852  134.6796  153.0377 H   0  0  0  0  0  0  0  0  0  0  0  0
  1  2  3  0  0  0  0
  2  3  1  0  0  0  0
  3 19  1  0  0  0  0
  3  4  2  0  0  0  0
  4  5  1  0  0  0  0
  4 21  1  0  0  0  0
  5  6  1  0  0  0  0
  5  9  1  0  0  0  0
  6  8  1  0  0  0  0
  6  7  1  0  0  0  0
  6 22  1  0  0  0  0
  7  8  1  0  0  0  0
  7 23  1  0  0  0  0
  7 24  1  0  0  0  0
  8 25  1  0  0  0  0
  8 26  1  0  0  0  0
  9 10  2  0  0  0  0
  9 11  1  0  0  0  0
 11 12  1  0  0  0  0
 11 19  1  0  0  0  0
 12 13  1  0  0  0  0
 12 27  1  0  0  0  0
 12 28  1  0  0  0  0
 13 14  2  0  0  0  0
 13 15  1  0  0  0  0
 15 16  1  0  0  0  0
 15 29  1  0  0  0  0
 16 17  1  0  0  0  0
 16 18  2  0  0  0  0
 17 30  1  0  0  0  0
 17 31  1  0  0  0  0
 19 20  2  0  0  0  0
M  END
> <s_m_source_file>
AV-unprocessed.smi

> <i_m_source_file_index>
390

> <i_lp_mmshare_version>
43012

> <i_f3d_flags>
0

> <s_epik_input>
TiNDYzFbY0hdbihbQ0hdMltDSDJdW0NIMl0yKWMoPU8pbihjMT1PKVtDSDJdQyg9TylbTkhdQyg9TylbTkgyXQ==

> <s_epik_cmdline>
J2VwaWtfcHl0aG9uJywgJy1waCcsICc3LjAnLCAnLXRuJywgJzgnLCAnLW1hJywgJzIwMCcsICctbWV0YWxfYmluZGluZycsICctaW1hZScsICc8aW5maWxlLm1hZT4nLCAnLW9tYWUnLCAnPG91dGZpbGUubWFlPic=

> <r_lp_tautomer_probability>
1

> <r_epik_Ionization_Penalty>
3.12406e-05

> <r_epik_Ionization_Penalty_Charging>
4.21484e-11

> <r_epik_Ionization_Penalty_Neutral>
3.12406e-05

> <r_epik_State_Penalty>
-0

> <r_epik_Charging_Adjusted_Penalty>
4.21484e-11

> <i_epik_Tot_Q>
0

> <i_epik_Tot_abs_Q>
0

> <r_epik_Metal_State_Penalty>
-0

> <b_epik_Metal_Only>
0

> <s_lp_Force_Field>
OPLS_2005

> <r_lp_Energy>
30.8642

> <b_lp_Chiralities_Consistent>
1

> <s_lp_Variant>
AV-unprocessed.smi:390-1

> <Gold.Version>
5.8.1

> <Gold.Id.Protein>
6NUR|6NUR_protein|mol2

> <Gold.PLP.Fitness>
45.7027

> <Gold.PLP.PLP>
-32.7814

> <Gold.PLP.part.hbond>
-4.8629

> <Gold.PLP.part.metal>
0.0000

> <Gold.PLP.part.buried>
-5.0191

> <Gold.PLP.part.nonpolar>
-25.6550

> <Gold.PLP.part.repulsive>
2.8140

> <Gold.PLP.ligand.clash>
0.0000

> <Gold.PLP.ligand.torsion>
0.7740

> <Gold.PLP.Chemscore.Hbond>
3.7500

> <Gold.PLP.Chemscore.CHOScore>
1.0000

> <Gold.PLP.Chemscore.Metal>
0.0000

> <Gold.Chemscore.Hbonds>
donor molecule, donor type, donor heavy atom, donor atom, acceptor molecule, acceptor atom, score
      L1  H    15    29       P1  7948  1.00
      L1  H    17    31       P1  7948  0.95
      P1  H  7997  8009       L1    10  1.00
      P1  H 10752 10765       L1    14  0.55
      L1  C     4    21       P1  8028  1.00

> <Gold.PLP.Chemscore.Internal.Correction>
0.2194

> <Gold.Rescore>
     Score         DG    S(hbond)    S(metal)    S(lipo)     H(rot)  DE(clash)    DE(int)     intcor
     11.61     -13.91       2.51        0.00      46.20       2.09       0.20       2.10       ----

> <Gold.Chemscore.Fitness>
11.6071

> <Gold.Chemscore.DG>
-13.9094

> <Gold.Chemscore.ZeroCoef>
-5.4800

> <Gold.Chemscore.Hbond>
2.5084

> <Gold.Chemscore.Metal>
0.0000

> <Gold.Chemscore.Lipo>
46.1980

> <Gold.Chemscore.Internal_Hbond>
0.0000

> <Gold.Chemscore.DEClash>
0.2025

> <Gold.Chemscore.DEInternal>
2.0999

> <Gold.Chemscore.Rot>
2.0913

> <Gold.Chemscore.Internal.Correction>
   9.000000E+99

> <Gold.Chemscore.Hbonds>
donor molecule, donor type, donor heavy atom, donor atom, acceptor molecule, acceptor atom, score
      L1  H    15    29       P1  7948  0.39
      L1  H    17    31       P1  7948  0.21
      P1  H  7997  8009       L1    10  0.96
      P1  H 10752 10765       L1    14  0.03

> <Gold.Chemscore.Hbond.Weighted>
-8.3779

> <Gold.Chemscore.Metal.Weighted>
-0.0000

> <Gold.Chemscore.Lipo.Weighted>
-5.4052

> <Gold.Chemscore.Internal_Hbond.Weighted>
0.0000

> <Gold.Chemscore.DEClash.Weighted>
0.2025

> <Gold.Chemscore.DEInternal.Weighted>
2.0999

> <Gold.Chemscore.Rot.Weighted>
5.3537

> <Gold.Chemscore.Internal.Correction.Weighted>
   9.000000E+99

> <Gold.Protein.RotatedTorsions>
[ 6907 6896 6895 6894 ] final -168.07 input  -60.11 | X-H torsion
[ 7974 7965 7964 7962 ] final  -72.61 input  175.53 | X-H torsion
[ 8008 7997 7996 7995 ] final  179.30 input   59.86 | X-H torsion
[ 10167 10162 10161 10158 ] final -158.38 input  -65.29 | X-H torsion
[ 10718 10713 10712 10709 ] final  -51.85 input   66.30 | X-H torsion
[ 10763 10752 10751 10750 ] final -152.44 input  -60.55 | X-H torsion
[ 11005 11000 10999 10996 ] final  158.20 input  -57.11 | X-H torsion

> <Gold.Protein.ActiveResidues>
 VAL166  LYS551  ARG553  GLY616  TRP617  ASP618  TYR619  PRO620  LYS621  CYS622 
 ASP623  PHE694  ASN695  SER759  ASP760  ASP761  ALA762  ILE779  LEU786  VAL792 
 PHE793  MET794  SER795  GLU796  ALA797  LYS798  CYS799  TRP800  GLU811  SER814 

> <Gold.Protein.RotatedAtoms>
  151.4696  133.3572  159.2821 H   0  0  0  0  0  0  0  0  0  0  0  0  # atno 6907 bound_to 6896
  150.8970  134.8381  159.7344 H   0  0  0  0  0  0  0  0  0  0  0  0  # atno 6908 bound_to 6896
  152.4857  134.4612  159.9657 H   0  0  0  0  0  0  0  0  0  0  0  0  # atno 6909 bound_to 6896
  145.6630  140.9246  143.0924 H   0  0  0  0  0  0  0  0  0  0  0  0  # atno 7974 bound_to 7965
  156.0450  140.1312  157.0114 H   0  0  0  0  0  0  0  0  0  0  0  0  # atno 8008 bound_to 7997
  154.4408  140.1022  156.6362 H   0  0  0  0  0  0  0  0  0  0  0  0  # atno 8009 bound_to 7997
  155.5610  140.3465  155.4493 H   0  0  0  0  0  0  0  0  0  0  0  0  # atno 8010 bound_to 7997
  139.6697  143.9767  152.2276 H   0  0  0  0  0  0  0  0  0  0  0  0  # atno 10167 bound_to 10162
  156.1673  130.4149  149.9700 H   0  0  0  0  0  0  0  0  0  0  0  0  # atno 10718 bound_to 10713
  154.7994  135.3236  154.7588 H   0  0  0  0  0  0  0  0  0  0  0  0  # atno 10763 bound_to 10752
  153.8259  135.6883  153.4825 H   0  0  0  0  0  0  0  0  0  0  0  0  # atno 10764 bound_to 10752
  153.1702  135.4626  154.9835 H   0  0  0  0  0  0  0  0  0  0  0  0  # atno 10765 bound_to 10752
  140.1842  134.8454  157.2838 H   0  0  0  0  0  0  0  0  0  0  0  0  # atno 11005 bound_to 11000
  144.7083  139.8473  143.7423 LP  0  0  0  0  0  0  0  0  0  0  0  0  # atno 17320 bound_to 7965
  146.1110  139.4114  143.0288 LP  0  0  0  0  0  0  0  0  0  0  0  0  # atno 17321 bound_to 7965
  139.9528  144.6609  150.8155 LP  0  0  0  0  0  0  0  0  0  0  0  0  # atno 17342 bound_to 10162
  140.7613  143.3171  151.2708 LP  0  0  0  0  0  0  0  0  0  0  0  0  # atno 17343 bound_to 10162
  156.7511  130.9116  151.3637 LP  0  0  0  0  0  0  0  0  0  0  0  0  # atno 17370 bound_to 10713
  157.6777  130.9110  150.0191 LP  0  0  0  0  0  0  0  0  0  0  0  0  # atno 17371 bound_to 10713
  140.2232  134.3998  155.7556 LP  0  0  0  0  0  0  0  0  0  0  0  0  # atno 17394 bound_to 11000
  141.2224  133.7177  156.8524 LP  0  0  0  0  0  0  0  0  0  0  0  0  # atno 17395 bound_to 11000

$$$$
