AV-unprocessed.smi:2189|AV-procd|sdf|8886|dock4
  -GOLD-   2272012 83D 1   1.00000     0.00000
 Structure written by MMmdl.
 38 40  0  0  0  0  0  0  0  0  2 V2000
  152.3481  140.0696  155.9542 O   0  0  0  0  0  0  0  0  0  0  0  0
  151.4765  140.8356  156.3856 C   0  0  0  0  0  0  0  0  0  0  0  0
  150.2196  140.9752  155.8623 N   0  5  0  0  0  0  0  0  0  0  0  0
  149.6696  140.2054  154.7426 C   0  0  0  0  0  0  0  0  0  0  0  0
  148.7048  141.0833  153.9109 C   0  0  0  0  0  0  0  0  0  0  0  0
  147.5442  141.6949  154.6941 C   0  0  0  0  0  0  0  0  0  0  0  0
  146.6234  142.5567  154.0555 C   0  0  0  0  0  0  0  0  0  0  0  0
  145.5649  143.0956  154.8110 C   0  0  0  0  0  0  0  0  0  0  0  0
  145.4696  142.7652  156.1760 C   0  0  0  0  0  0  0  0  0  0  0  0
  146.4435  141.9089  156.7267 C   0  0  0  0  0  0  0  0  0  0  0  0
  147.4630  141.3868  156.0120 N   0  0  0  0  0  0  0  0  0  0  0  0
  151.7943  141.7002  157.5379 C   0  0  0  0  0  0  0  0  0  0  0  0
  151.1586  142.8969  157.6431 C   0  0  0  0  0  0  0  0  0  0  0  0
  151.4027  143.7950  158.7439 C   0  0  0  0  0  0  0  0  0  0  0  0
  152.3078  143.4335  159.6594 C   0  0  0  0  0  0  0  0  0  0  0  0
  153.0207  142.2372  159.5981 N   0  0  0  0  0  0  0  0  0  0  0  0
  154.0488  142.0280  160.6114 C   0  0  0  0  0  0  0  0  0  0  0  0
  154.0306  140.5892  161.0937 C   0  0  0  0  0  0  0  0  0  0  0  0
  154.4640  139.5706  159.6385 S   0  0  0  0  0  0  0  0  0  0  0  0
  155.8005  139.9790  159.1784 O   0  0  0  0  0  0  0  0  0  0  0  0
  154.2177  138.1610  159.9787 O   0  0  0  0  0  0  0  0  0  0  0  0
  153.3158  140.1028  158.5417 N   0  0  0  0  0  0  0  0  0  0  0  0
  152.7666  141.2846  158.5707 C   0  0  0  0  0  0  0  0  0  0  0  0
  150.4391  139.8057  154.0809 H   0  0  0  0  0  0  0  0  0  0  0  0
  149.1198  139.3371  155.1066 H   0  0  0  0  0  0  0  0  0  0  0  0
  149.2717  141.8961  153.4555 H   0  0  0  0  0  0  0  0  0  0  0  0
  148.3046  140.5038  153.0777 H   0  0  0  0  0  0  0  0  0  0  0  0
  146.7205  142.7870  153.0047 H   0  0  0  0  0  0  0  0  0  0  0  0
  144.8392  143.7496  154.3509 H   0  0  0  0  0  0  0  0  0  0  0  0
  144.6702  143.1584  156.7859 H   0  0  0  0  0  0  0  0  0  0  0  0
  146.4030  141.6370  157.7713 H   0  0  0  0  0  0  0  0  0  0  0  0
  150.4520  143.2185  156.8915 H   0  0  0  0  0  0  0  0  0  0  0  0
  150.8706  144.7309  158.8253 H   0  0  0  0  0  0  0  0  0  0  0  0
  152.5357  144.0640  160.5064 H   0  0  0  0  0  0  0  0  0  0  0  0
  155.0228  142.2881  160.1959 H   0  0  0  0  0  0  0  0  0  0  0  0
  153.8886  142.6863  161.4656 H   0  0  0  0  0  0  0  0  0  0  0  0
  154.7682  140.4142  161.8763 H   0  0  0  0  0  0  0  0  0  0  0  0
  153.0492  140.2926  161.4654 H   0  0  0  0  0  0  0  0  0  0  0  0
  1  2  2  0  0  0  0
  2  3  1  0  0  0  0
  2 12  1  0  0  0  0
  3  4  1  0  0  0  0
  4  5  1  0  0  0  0
  4 24  1  0  0  0  0
  4 25  1  0  0  0  0
  5  6  1  0  0  0  0
  5 26  1  0  0  0  0
  5 27  1  0  0  0  0
  6 11  1  0  0  0  0
  6  7  2  0  0  0  0
  7  8  1  0  0  0  0
  7 28  1  0  0  0  0
  8  9  2  0  0  0  0
  8 29  1  0  0  0  0
  9 10  1  0  0  0  0
  9 30  1  0  0  0  0
 10 11  2  0  0  0  0
 10 31  1  0  0  0  0
 12 23  1  0  0  0  0
 12 13  2  0  0  0  0
 13 14  1  0  0  0  0
 13 32  1  0  0  0  0
 14 15  2  0  0  0  0
 14 33  1  0  0  0  0
 15 16  1  0  0  0  0
 15 34  1  0  0  0  0
 16 23  1  0  0  0  0
 16 17  1  0  0  0  0
 17 18  1  0  0  0  0
 17 35  1  0  0  0  0
 17 36  1  0  0  0  0
 18 19  1  0  0  0  0
 18 37  1  0  0  0  0
 18 38  1  0  0  0  0
 19 20  2  0  0  0  0
 19 21  2  0  0  0  0
 19 22  1  0  0  0  0
 22 23  2  0  0  0  0
M  CHG  1   3  -1
M  END
> <s_m_source_file>
AV-unprocessed.smi

> <i_m_source_file_index>
2189

> <i_lp_mmshare_version>
43012

> <i_f3d_flags>
0

> <s_epik_input>
W0NIMl0xW0NIMl1TKD1PKSg9TylOPUMoTjEyKUMoPVtDSF1bQ0hdPVtDSF0yKUMoPU8pW05IXVtDSDJdW0NIMl1jM1tjSF1bY0hdW2NIXVtjSF1uMw==

> <s_epik_cmdline>
J2VwaWtfcHl0aG9uJywgJy1waCcsICc3LjAnLCAnLXRuJywgJzgnLCAnLW1hJywgJzIwMCcsICctbWV0YWxfYmluZGluZycsICctaW1hZScsICc8aW5maWxlLm1hZT4nLCAnLW9tYWUnLCAnPG91dGZpbGUubWFlPic=

> <r_epik_Ionization_Penalty>
5.6695

> <r_epik_Ionization_Penalty_Charging>
5.5942

> <r_epik_Ionization_Penalty_Neutral>
0.0753022

> <r_epik_State_Penalty>
5.60818

> <r_epik_Charging_Adjusted_Penalty>
11.2024

> <i_epik_Tot_Q>
-1

> <i_epik_Tot_abs_Q>
1

> <r_epik_Metal_State_Penalty>
1.61782

> <b_epik_Metal_Only>
1

> <s_lp_Force_Field>
OPLS_2005

> <r_lp_Energy>
39.8175

> <b_lp_Chiralities_Consistent>
1

> <s_lp_Variant>
AV-unprocessed.smi:2189-3

> <Gold.Version>
5.8.1

> <Gold.Id.Protein>
6NUR|6NUR_protein|mol2

> <Gold.PLP.Fitness>
50.2032

> <Gold.PLP.PLP>
-44.9937

> <Gold.PLP.part.hbond>
-3.0000

> <Gold.PLP.part.metal>
0.0000

> <Gold.PLP.part.buried>
-4.2537

> <Gold.PLP.part.nonpolar>
-36.7483

> <Gold.PLP.part.repulsive>
0.1498

> <Gold.PLP.ligand.clash>
0.0000

> <Gold.PLP.ligand.torsion>
0.5437

> <Gold.PLP.Chemscore.Hbond>
1.9588

> <Gold.PLP.Chemscore.CHOScore>
0.0000

> <Gold.PLP.Chemscore.Metal>
0.0000

> <Gold.Chemscore.Hbonds>
donor molecule, donor type, donor heavy atom, donor atom, acceptor molecule, acceptor atom, score
      P1  H  7997  8008       L1     1  1.00
      P1  H  7997  8010       L1    20  1.00

> <Gold.PLP.Chemscore.Internal.Correction>
0.4206

> <Gold.Rescore>
     Score         DG    S(hbond)    S(metal)    S(lipo)     H(rot)  DE(clash)    DE(int)     intcor
     14.28     -18.32       1.47        0.00      99.36       1.44       0.55       3.50       ----

> <Gold.Chemscore.Fitness>
14.2752

> <Gold.Chemscore.DG>
-18.3213

> <Gold.Chemscore.ZeroCoef>
-5.4800

> <Gold.Chemscore.Hbond>
1.4702

> <Gold.Chemscore.Metal>
0.0000

> <Gold.Chemscore.Lipo>
99.3644

> <Gold.Chemscore.Internal_Hbond>
0.0000

> <Gold.Chemscore.DEClash>
0.5500

> <Gold.Chemscore.DEInternal>
3.4962

> <Gold.Chemscore.Rot>
1.4433

> <Gold.Chemscore.Internal.Correction>
   9.000000E+99

> <Gold.Chemscore.Hbonds>
donor molecule, donor type, donor heavy atom, donor atom, acceptor molecule, acceptor atom, score
      P1  H  7997  8008       L1     1  0.94
      P1  H  7997  8010       L1    20  0.48

> <Gold.Chemscore.Hbond.Weighted>
-4.9106

> <Gold.Chemscore.Metal.Weighted>
-0.0000

> <Gold.Chemscore.Lipo.Weighted>
-11.6256

> <Gold.Chemscore.Internal_Hbond.Weighted>
0.0000

> <Gold.Chemscore.DEClash.Weighted>
0.5500

> <Gold.Chemscore.DEInternal.Weighted>
3.4962

> <Gold.Chemscore.Rot.Weighted>
3.6949

> <Gold.Chemscore.Internal.Correction.Weighted>
   9.000000E+99

> <Gold.Protein.RotatedTorsions>
[ 6907 6896 6895 6894 ] final -135.78 input  -60.11 | X-H torsion
[ 7974 7965 7964 7962 ] final -115.89 input  175.53 | X-H torsion
[ 8008 7997 7996 7995 ] final  -32.33 input   59.86 | X-H torsion
[ 10167 10162 10161 10158 ] final   -4.88 input  -65.29 | X-H torsion
[ 10718 10713 10712 10709 ] final  156.57 input   66.30 | X-H torsion
[ 10763 10752 10751 10750 ] final  109.00 input  -60.55 | X-H torsion
[ 11005 11000 10999 10996 ] final   51.60 input  -57.11 | X-H torsion

> <Gold.Protein.ActiveResidues>
 VAL166  LYS551  ARG553  GLY616  TRP617  ASP618  TYR619  PRO620  LYS621  CYS622 
 ASP623  PHE694  ASN695  SER759  ASP760  ASP761  ALA762  ILE779  LEU786  VAL792 
 PHE793  MET794  SER795  GLU796  ALA797  LYS798  CYS799  TRP800  GLU811  SER814 

> <Gold.Protein.RotatedAtoms>
  151.0020  133.6047  159.2693 H   0  0  0  0  0  0  0  0  0  0  0  0  # atno 6907 bound_to 6896
  151.3230  135.0822  159.9322 H   0  0  0  0  0  0  0  0  0  0  0  0  # atno 6908 bound_to 6896
  152.5276  133.9664  159.7795 H   0  0  0  0  0  0  0  0  0  0  0  0  # atno 6909 bound_to 6896
  145.1031  140.8564  143.3914 H   0  0  0  0  0  0  0  0  0  0  0  0  # atno 7974 bound_to 7965
  154.4183  140.1740  156.1710 H   0  0  0  0  0  0  0  0  0  0  0  0  # atno 8008 bound_to 7997
  155.9760  140.3381  155.6595 H   0  0  0  0  0  0  0  0  0  0  0  0  # atno 8009 bound_to 7997
  155.6563  140.0696  157.2560 H   0  0  0  0  0  0  0  0  0  0  0  0  # atno 8010 bound_to 7997
  140.6943  143.6372  150.8468 H   0  0  0  0  0  0  0  0  0  0  0  0  # atno 10167 bound_to 10162
  157.2032  131.0681  151.2013 H   0  0  0  0  0  0  0  0  0  0  0  0  # atno 10718 bound_to 10713
  153.4286  135.3794  155.2156 H   0  0  0  0  0  0  0  0  0  0  0  0  # atno 10763 bound_to 10752
  154.8749  135.3834  154.4296 H   0  0  0  0  0  0  0  0  0  0  0  0  # atno 10764 bound_to 10752
  153.4826  135.7088  153.5992 H   0  0  0  0  0  0  0  0  0  0  0  0  # atno 10765 bound_to 10752
  140.0919  134.5198  155.8844 H   0  0  0  0  0  0  0  0  0  0  0  0  # atno 11005 bound_to 11000
  145.0933  139.2874  143.5724 LP  0  0  0  0  0  0  0  0  0  0  0  0  # atno 17320 bound_to 7965
  146.3529  140.0477  142.8638 LP  0  0  0  0  0  0  0  0  0  0  0  0  # atno 17321 bound_to 7965
  140.0089  143.5664  152.2847 LP  0  0  0  0  0  0  0  0  0  0  0  0  # atno 17342 bound_to 10162
  139.6380  144.7652  151.2397 LP  0  0  0  0  0  0  0  0  0  0  0  0  # atno 17343 bound_to 10162
  157.3746  130.7199  149.6588 LP  0  0  0  0  0  0  0  0  0  0  0  0  # atno 17370 bound_to 10713
  155.9698  130.4189  150.4351 LP  0  0  0  0  0  0  0  0  0  0  0  0  # atno 17371 bound_to 10713
  141.2080  133.6670  156.6344 LP  0  0  0  0  0  0  0  0  0  0  0  0  # atno 17394 bound_to 11000
  140.3341  134.7904  157.4348 LP  0  0  0  0  0  0  0  0  0  0  0  0  # atno 17395 bound_to 11000

$$$$
