AV-unprocessed.smi:1047|AV-procd|sdf|4577|dock3
  -GOLD-   22720 3 43D 1   1.00000     0.00000
 Structure written by MMmdl.
 56 58  0  0  0  0  0  0  0  0  2 V2000
  145.3786  145.0120  152.0918 C   0  0  0  0  0  0  0  0  0  0  0  0
  144.5458  145.5103  153.2815 C   0  0  0  0  0  0  0  0  0  0  0  0
  143.8424  144.4064  153.9876 N   0  3  2  0  0  0  0  0  0  0  0  0
  142.9974  144.8693  155.1152 C   0  0  0  0  0  0  0  0  0  0  0  0
  143.8508  145.1871  156.3561 C   0  0  0  0  0  0  0  0  0  0  0  0
  144.6123  144.0399  156.7134 O   0  0  0  0  0  0  0  0  0  0  0  0
  145.5223  143.6466  155.6912 C   0  0  1  0  0  0  0  0  0  0  0  0
  146.3346  142.4576  156.2273 C   0  0  0  0  0  0  0  0  0  0  0  0
  147.3713  142.0509  155.2834 N   0  0  0  0  0  0  0  0  0  0  0  0
  148.2288  140.9833  155.7892 C   0  0  0  0  0  0  0  0  0  0  0  0
  149.5711  140.9464  155.0403 C   0  0  1  0  0  0  0  0  0  0  0  0
  149.3388  141.2745  153.6840 O   0  0  0  0  0  0  0  0  0  0  0  0
  150.5809  141.9494  155.6309 C   0  0  0  0  0  0  0  0  0  0  0  0
  151.3749  141.3737  156.7020 N   0  0  0  0  0  0  0  0  0  0  0  0
  151.9366  140.1498  156.7340 C   0  0  0  0  0  0  0  0  0  0  0  0
  152.6270  139.8253  157.8235 N   0  0  0  0  0  0  0  0  0  0  0  0
  152.5032  140.9747  158.5852 C   0  0  0  0  0  0  0  0  0  0  0  0
  153.0101  141.2856  159.8660 C   0  0  0  0  0  0  0  0  0  0  0  0
  152.7560  142.5423  160.4606 C   0  0  0  0  0  0  0  0  0  0  0  0
  153.3188  142.8341  161.8404 C   0  0  0  0  0  0  0  0  0  0  0  0
  151.9843  143.5117  159.7707 C   0  0  0  0  0  0  0  0  0  0  0  0
  151.6981  144.8681  160.3900 C   0  0  0  0  0  0  0  0  0  0  0  0
  151.4702  143.2174  158.4906 C   0  0  0  0  0  0  0  0  0  0  0  0
  151.7287  141.9632  157.9106 C   0  0  0  0  0  0  0  0  0  0  0  0
  144.7153  143.2857  154.4221 C   0  0  0  0  0  0  0  0  0  0  0  0
  145.7921  145.8537  151.5357 H   0  0  0  0  0  0  0  0  0  0  0  0
  144.7699  144.4283  151.4007 H   0  0  0  0  0  0  0  0  0  0  0  0
  146.2178  144.3935  152.4084 H   0  0  0  0  0  0  0  0  0  0  0  0
  145.1697  146.0808  153.9693 H   0  0  0  0  0  0  0  0  0  0  0  0
  143.8040  146.2088  152.8926 H   0  0  0  0  0  0  0  0  0  0  0  0
  142.4004  145.7338  154.8225 H   0  0  0  0  0  0  0  0  0  0  0  0
  142.2884  144.0773  155.3604 H   0  0  0  0  0  0  0  0  0  0  0  0
  144.5087  146.0389  156.1787 H   0  0  0  0  0  0  0  0  0  0  0  0
  143.2064  145.4547  157.1937 H   0  0  0  0  0  0  0  0  0  0  0  0
  146.2046  144.4748  155.4939 H   0  0  0  0  0  0  0  0  0  0  0  0
  146.8015  142.7459  157.1702 H   0  0  0  0  0  0  0  0  0  0  0  0
  145.6724  141.6207  156.4529 H   0  0  0  0  0  0  0  0  0  0  0  0
  147.9452  142.8519  155.0374 H   0  0  0  0  0  0  0  0  0  0  0  0
  148.3970  141.0948  156.8613 H   0  0  0  0  0  0  0  0  0  0  0  0
  147.7175  140.0292  155.6554 H   0  0  0  0  0  0  0  0  0  0  0  0
  149.9965  139.9429  155.0911 H   0  0  0  0  0  0  0  0  0  0  0  0
  149.2195  140.4724  153.1985 H   0  0  0  0  0  0  0  0  0  0  0  0
  151.2528  142.3183  154.8541 H   0  0  0  0  0  0  0  0  0  0  0  0
  150.0583  142.8194  156.0301 H   0  0  0  0  0  0  0  0  0  0  0  0
  151.8296  139.4565  155.9124 H   0  0  0  0  0  0  0  0  0  0  0  0
  153.5980  140.5471  160.3909 H   0  0  0  0  0  0  0  0  0  0  0  0
  153.9908  143.6917  161.8056 H   0  0  0  0  0  0  0  0  0  0  0  0
  153.8805  141.9843  162.2295 H   0  0  0  0  0  0  0  0  0  0  0  0
  152.5140  143.0524  162.5425 H   0  0  0  0  0  0  0  0  0  0  0  0
  151.1002  145.4915  159.7247 H   0  0  0  0  0  0  0  0  0  0  0  0
  152.6278  145.3979  160.5982 H   0  0  0  0  0  0  0  0  0  0  0  0
  151.1481  144.7519  161.3240 H   0  0  0  0  0  0  0  0  0  0  0  0
  150.8803  143.9459  157.9544 H   0  0  0  0  0  0  0  0  0  0  0  0
  144.0772  142.4266  154.6341 H   0  0  0  0  0  0  0  0  0  0  0  0
  145.3776  142.9735  153.6157 H   0  0  0  0  0  0  0  0  0  0  0  0
  143.2035  144.0247  153.3045 H   0  0  0  0  0  0  0  0  0  0  0  0
  1  2  1  0  0  0  0
  1 26  1  0  0  0  0
  1 27  1  0  0  0  0
  1 28  1  0  0  0  0
  2  3  1  0  0  0  0
  2 29  1  0  0  0  0
  2 30  1  0  0  0  0
  3 25  1  0  0  0  0
  3  4  1  0  0  0  0
  3 56  1  0  0  0  0
  4  5  1  0  0  0  0
  4 31  1  0  0  0  0
  4 32  1  0  0  0  0
  5  6  1  0  0  0  0
  5 33  1  0  0  0  0
  5 34  1  0  0  0  0
  6  7  1  0  0  0  0
  7  8  1  0  0  0  0
  7 25  1  0  0  0  0
  7 35  1  0  0  0  0
  8  9  1  0  0  0  0
  8 36  1  0  0  0  0
  8 37  1  0  0  0  0
  9 10  1  0  0  0  0
  9 38  1  0  0  0  0
 10 11  1  0  0  0  0
 10 39  1  0  0  0  0
 10 40  1  0  0  0  0
 11 12  1  0  0  0  0
 11 13  1  0  0  0  0
 11 41  1  0  0  0  0
 12 42  1  0  0  0  0
 13 14  1  0  0  0  0
 13 43  1  0  0  0  0
 13 44  1  0  0  0  0
 14 24  1  0  0  0  0
 14 15  1  0  0  0  0
 15 16  2  0  0  0  0
 15 45  1  0  0  0  0
 16 17  1  0  0  0  0
 17 24  2  0  0  0  0
 17 18  1  0  0  0  0
 18 19  2  0  0  0  0
 18 46  1  0  0  0  0
 19 20  1  0  0  0  0
 19 21  1  0  0  0  0
 20 47  1  0  0  0  0
 20 48  1  0  0  0  0
 20 49  1  0  0  0  0
 21 22  1  0  0  0  0
 21 23  2  0  0  0  0
 22 50  1  0  0  0  0
 22 51  1  0  0  0  0
 22 52  1  0  0  0  0
 23 24  1  0  0  0  0
 23 53  1  0  0  0  0
 25 54  1  0  0  0  0
 25 55  1  0  0  0  0
M  CHG  1   3   1
M  END
> <s_m_source_file>
AV-unprocessed.smi

> <i_m_source_file_index>
1047

> <i_lp_mmshare_version>
43012

> <i_f3d_flags>
0

> <s_epik_input>
W0NIM11bQ0gyXU4xW0NIMl1bQ0gyXU9bQ0BIXShbQ0gyXTEpW0NIMl1bTkhdW0NIMl1bQ0BIXShbT0hdKVtDSDJdbihbY0hdbjIpYyhjMjMpW2NIXWMoW0NIM10pYyhbY0hdMylbQ0gzXQ==

> <s_epik_cmdline>
J2VwaWtfcHl0aG9uJywgJy1waCcsICc3LjAnLCAnLXRuJywgJzgnLCAnLW1hJywgJzIwMCcsICctbWV0YWxfYmluZGluZycsICctaW1hZScsICc8aW5maWxlLm1hZT4nLCAnLW9tYWUnLCAnPG91dGZpbGUubWFlPic=

> <r_epik_Ionization_Penalty>
1.19246

> <r_epik_Ionization_Penalty_Charging>
0.210041

> <r_epik_Ionization_Penalty_Neutral>
0.982415

> <r_epik_State_Penalty>
1.57595

> <r_epik_Charging_Adjusted_Penalty>
1.78599

> <i_epik_Tot_Q>
1

> <i_epik_Tot_abs_Q>
1

> <r_epik_Metal_State_Penalty>
1.46172

> <b_epik_Metal_Only>
0

> <s_lp_Force_Field>
OPLS_2005

> <r_lp_Energy>
32.1695

> <b_lp_Chiralities_Consistent>
1

> <s_lp_Variant>
AV-unprocessed.smi:1047-18

> <Gold.Version>
5.8.1

> <Gold.Id.Protein>
6NUR|6NUR_protein|mol2

> <Gold.PLP.Fitness>
64.5354

> <Gold.PLP.PLP>
-51.4014

> <Gold.PLP.part.hbond>
-5.6828

> <Gold.PLP.part.metal>
0.0000

> <Gold.PLP.part.buried>
-4.6365

> <Gold.PLP.part.nonpolar>
-38.6118

> <Gold.PLP.part.repulsive>
0.1446

> <Gold.PLP.ligand.clash>
0.0000

> <Gold.PLP.ligand.torsion>
0.9781

> <Gold.PLP.Chemscore.Hbond>
4.9854

> <Gold.PLP.Chemscore.CHOScore>
0.0000

> <Gold.PLP.Chemscore.Metal>
0.0000

> <Gold.Chemscore.Hbonds>
donor molecule, donor type, donor heavy atom, donor atom, acceptor molecule, acceptor atom, score
      L1  H     3    56       P1 10174  1.98
      L1  H     9    38       P1  8028  0.68
      L1  H    12    42       P1  7957  0.46
      P1  H  7989  7998       L1    12  0.01
      P1  H  7997  8009       L1    16  0.69
      P1  H  8011  8017       L1    12  0.90

> <Gold.PLP.Chemscore.Internal.Correction>
0.1339

> <Gold.Rescore>
     Score         DG    S(hbond)    S(metal)    S(lipo)     H(rot)  DE(clash)    DE(int)     intcor
     21.88     -23.51       2.43        0.00     141.97       2.62       0.63       1.00       ----

> <Gold.Chemscore.Fitness>
21.8814

> <Gold.Chemscore.DG>
-23.5109

> <Gold.Chemscore.ZeroCoef>
-5.4800

> <Gold.Chemscore.Hbond>
2.4341

> <Gold.Chemscore.Metal>
0.0000

> <Gold.Chemscore.Lipo>
141.9718

> <Gold.Chemscore.Internal_Hbond>
0.0000

> <Gold.Chemscore.DEClash>
0.6336

> <Gold.Chemscore.DEInternal>
0.9959

> <Gold.Chemscore.Rot>
2.6209

> <Gold.Chemscore.Internal.Correction>
   9.000000E+99

> <Gold.Chemscore.Hbonds>
donor molecule, donor type, donor heavy atom, donor atom, acceptor molecule, acceptor atom, score
      L1  H     3    56       P1 10174  0.90
      L1  H     9    38       P1  8028  0.58
      L1  H    12    42       P1  7957  0.46
      P1  H  7997  8009       L1    16  0.05
      P1  H  8011  8017       L1    12  0.26

> <Gold.Chemscore.Hbond.Weighted>
-8.1298

> <Gold.Chemscore.Metal.Weighted>
-0.0000

> <Gold.Chemscore.Lipo.Weighted>
-16.6107

> <Gold.Chemscore.Internal_Hbond.Weighted>
0.0000

> <Gold.Chemscore.DEClash.Weighted>
0.6336

> <Gold.Chemscore.DEInternal.Weighted>
0.9959

> <Gold.Chemscore.Rot.Weighted>
6.7096

> <Gold.Chemscore.Internal.Correction.Weighted>
   9.000000E+99

> <Gold.Protein.RotatedTorsions>
[ 6907 6896 6895 6894 ] final  109.59 input  -60.11 | X-H torsion
[ 7974 7965 7964 7962 ] final  129.86 input  175.53 | X-H torsion
[ 8008 7997 7996 7995 ] final  154.89 input   59.86 | X-H torsion
[ 10167 10162 10161 10158 ] final -148.79 input  -65.29 | X-H torsion
[ 10718 10713 10712 10709 ] final  106.55 input   66.30 | X-H torsion
[ 10763 10752 10751 10750 ] final -126.71 input  -60.55 | X-H torsion
[ 11005 11000 10999 10996 ] final  -78.57 input  -57.11 | X-H torsion

> <Gold.Protein.ActiveResidues>
 VAL166  LYS551  ARG553  GLY616  TRP617  ASP618  TYR619  PRO620  LYS621  CYS622 
 ASP623  PHE694  ASN695  SER759  ASP760  ASP761  ALA762  ILE779  LEU786  VAL792 
 PHE793  MET794  SER795  GLU796  ALA797  LYS798  CYS799  TRP800  GLU811  SER814 

> <Gold.Protein.RotatedAtoms>
  152.5060  133.8922  159.7399 H   0  0  0  0  0  0  0  0  0  0  0  0  # atno 6907 bound_to 6896
  150.9358  133.6704  159.2808 H   0  0  0  0  0  0  0  0  0  0  0  0  # atno 6908 bound_to 6896
  151.4033  135.0979  159.9615 H   0  0  0  0  0  0  0  0  0  0  0  0  # atno 6909 bound_to 6896
  145.0241  139.4105  143.5182 H   0  0  0  0  0  0  0  0  0  0  0  0  # atno 7974 bound_to 7965
  156.2508  140.1954  156.6716 H   0  0  0  0  0  0  0  0  0  0  0  0  # atno 8008 bound_to 7997
  154.6389  140.0586  156.9847 H   0  0  0  0  0  0  0  0  0  0  0  0  # atno 8009 bound_to 7997
  155.1594  140.3258  155.4417 H   0  0  0  0  0  0  0  0  0  0  0  0  # atno 8010 bound_to 7997
  139.7500  143.8532  152.2584 H   0  0  0  0  0  0  0  0  0  0  0  0  # atno 10167 bound_to 10162
  157.6664  131.0853  150.6023 H   0  0  0  0  0  0  0  0  0  0  0  0  # atno 10718 bound_to 10713
  154.8747  135.3986  154.3475 H   0  0  0  0  0  0  0  0  0  0  0  0  # atno 10763 bound_to 10752
  153.4265  135.7024  153.6264 H   0  0  0  0  0  0  0  0  0  0  0  0  # atno 10764 bound_to 10752
  153.4904  135.3749  155.2458 H   0  0  0  0  0  0  0  0  0  0  0  0  # atno 10765 bound_to 10752
  141.1665  133.7069  156.7992 H   0  0  0  0  0  0  0  0  0  0  0  0  # atno 11005 bound_to 11000
  146.3489  139.9755  142.8701 LP  0  0  0  0  0  0  0  0  0  0  0  0  # atno 17320 bound_to 7965
  145.1857  140.9788  143.4240 LP  0  0  0  0  0  0  0  0  0  0  0  0  # atno 17321 bound_to 7965
  139.8508  144.7165  150.9217 LP  0  0  0  0  0  0  0  0  0  0  0  0  # atno 17342 bound_to 10162
  140.7797  143.3901  151.1324 LP  0  0  0  0  0  0  0  0  0  0  0  0  # atno 17343 bound_to 10162
  156.6324  130.4435  149.5782 LP  0  0  0  0  0  0  0  0  0  0  0  0  # atno 17370 bound_to 10713
  156.2272  130.6772  151.1427 LP  0  0  0  0  0  0  0  0  0  0  0  0  # atno 17371 bound_to 10713
  140.2269  134.8715  157.3436 LP  0  0  0  0  0  0  0  0  0  0  0  0  # atno 17394 bound_to 11000
  140.1931  134.4348  155.7705 LP  0  0  0  0  0  0  0  0  0  0  0  0  # atno 17395 bound_to 11000

$$$$
