AV-unprocessed.smi:3322|AV-procd|sdf|12775|dock1
  -GOLD-   2272019123D 1   1.00000     0.00000
 Structure written by MMmdl.
 38 39  0  0  0  0  0  0  0  0  1 V2000
  148.3497  135.1814  156.2827 C   0  0  0  0  0  0  0  0  0  0  0  0
  148.5638  136.3305  155.2800 C   0  0  2  0  0  0  0  0  0  0  0  0
  147.8305  136.0654  154.0279 N   0  0  0  0  0  0  0  0  0  0  0  0
  146.4233  136.4481  154.0860 C   0  0  0  0  0  0  0  0  0  0  0  0
  145.9110  136.9474  152.7185 C   0  0  0  0  0  0  0  0  0  0  0  0
  145.4668  135.8751  151.8455 N   0  0  0  0  0  0  0  0  0  0  0  0
  146.1958  134.8128  151.3540 C   0  0  0  0  0  0  0  0  0  0  0  0
  145.3471  134.0503  150.6034 C   0  0  0  0  0  0  0  0  0  0  0  0
  144.1053  134.7391  150.6922 C   0  0  0  0  0  0  0  0  0  0  0  0
  144.1808  135.8330  151.4325 N   0  0  0  0  0  0  0  0  0  0  0  0
  150.0698  136.5288  155.0065 C   0  0  0  0  0  0  0  0  0  0  0  0
  150.8291  135.5786  155.2080 O   0  0  0  0  0  0  0  0  0  0  0  0
  150.5277  137.7201  154.5432 N   0  0  0  0  0  0  0  0  0  0  0  0
  151.9376  137.9499  154.2077 C   0  0  0  0  0  0  0  0  0  0  0  0
  152.5008  139.0285  155.1481 C   0  0  0  0  0  0  0  0  0  0  0  0
  151.7367  140.2229  155.0107 O   0  0  0  0  0  0  0  0  0  0  0  0
  150.3568  140.0343  155.3093 C   0  0  0  0  0  0  0  0  0  0  0  0
  149.7596  138.9614  154.3803 C   0  0  0  0  0  0  0  0  0  0  0  0
  148.8896  135.3556  157.2136 H   0  0  0  0  0  0  0  0  0  0  0  0
  148.6946  134.2299  155.8754 H   0  0  0  0  0  0  0  0  0  0  0  0
  147.2971  135.0661  156.5405 H   0  0  0  0  0  0  0  0  0  0  0  0
  148.1718  137.2515  155.7013 H   0  0  0  0  0  0  0  0  0  0  0  0
  148.2584  136.5367  153.2430 H   0  0  0  0  0  0  0  0  0  0  0  0
  145.8627  135.5507  154.3482 H   0  0  0  0  0  0  0  0  0  0  0  0
  146.2237  137.1709  154.8778 H   0  0  0  0  0  0  0  0  0  0  0  0
  145.0969  137.6616  152.8530 H   0  0  0  0  0  0  0  0  0  0  0  0
  146.7088  137.4855  152.2052 H   0  0  0  0  0  0  0  0  0  0  0  0
  147.2433  134.6853  151.5846 H   0  0  0  0  0  0  0  0  0  0  0  0
  145.5774  133.1382  150.0733 H   0  0  0  0  0  0  0  0  0  0  0  0
  143.1577  134.4782  150.2448 H   0  0  0  0  0  0  0  0  0  0  0  0
  152.5487  137.0491  154.2762 H   0  0  0  0  0  0  0  0  0  0  0  0
  152.0106  138.2813  153.1708 H   0  0  0  0  0  0  0  0  0  0  0  0
  152.4840  138.6890  156.1852 H   0  0  0  0  0  0  0  0  0  0  0  0
  153.5396  139.2435  154.8980 H   0  0  0  0  0  0  0  0  0  0  0  0
  150.2383  139.7503  156.3562 H   0  0  0  0  0  0  0  0  0  0  0  0
  149.8350  140.9818  155.1753 H   0  0  0  0  0  0  0  0  0  0  0  0
  149.8202  139.2865  153.3407 H   0  0  0  0  0  0  0  0  0  0  0  0
  148.6998  138.8713  154.6034 H   0  0  0  0  0  0  0  0  0  0  0  0
  1  2  1  0  0  0  0
  1 19  1  0  0  0  0
  1 20  1  0  0  0  0
  1 21  1  0  0  0  0
  2  3  1  0  0  0  0
  2 11  1  0  0  0  0
  2 22  1  0  0  0  0
  3  4  1  0  0  0  0
  3 23  1  0  0  0  0
  4  5  1  0  0  0  0
  4 24  1  0  0  0  0
  4 25  1  0  0  0  0
  5  6  1  0  0  0  0
  5 26  1  0  0  0  0
  5 27  1  0  0  0  0
  6 10  1  0  0  0  0
  6  7  1  0  0  0  0
  7  8  2  0  0  0  0
  7 28  1  0  0  0  0
  8  9  1  0  0  0  0
  8 29  1  0  0  0  0
  9 10  2  0  0  0  0
  9 30  1  0  0  0  0
 11 12  2  0  0  0  0
 11 13  1  0  0  0  0
 13 18  1  0  0  0  0
 13 14  1  0  0  0  0
 14 15  1  0  0  0  0
 14 31  1  0  0  0  0
 14 32  1  0  0  0  0
 15 16  1  0  0  0  0
 15 33  1  0  0  0  0
 15 34  1  0  0  0  0
 16 17  1  0  0  0  0
 17 18  1  0  0  0  0
 17 35  1  0  0  0  0
 17 36  1  0  0  0  0
 18 37  1  0  0  0  0
 18 38  1  0  0  0  0
M  END
> <s_m_source_file>
AV-unprocessed.smi

> <i_m_source_file_index>
3322

> <i_lp_mmshare_version>
43012

> <i_f3d_flags>
0

> <s_epik_input>
W0NIMl0xW0NIMl1PW0NIMl1bQ0gyXU4xQyg9TylbQ0BIXShbQ0gzXSlbTkhdW0NIMl1bQ0gyXW4yW2NIXVtjSF1bY0hdbjI=

> <s_epik_cmdline>
J2VwaWtfcHl0aG9uJywgJy1waCcsICc3LjAnLCAnLXRuJywgJzgnLCAnLW1hJywgJzIwMCcsICctbWV0YWxfYmluZGluZycsICctaW1hZScsICc8aW5maWxlLm1hZT4nLCAnLW9tYWUnLCAnPG91dGZpbGUubWFlPic=

> <r_lp_tautomer_probability>
1

> <r_epik_Ionization_Penalty>
0.511228

> <r_epik_Ionization_Penalty_Charging>
0

> <r_epik_Ionization_Penalty_Neutral>
0.511228

> <r_epik_State_Penalty>
0.51753

> <r_epik_Charging_Adjusted_Penalty>
0.51753

> <i_epik_Tot_Q>
0

> <i_epik_Tot_abs_Q>
0

> <r_epik_Metal_State_Penalty>
0.517012

> <b_epik_Metal_Only>
0

> <s_lp_Force_Field>
OPLS_2005

> <r_lp_Energy>
29.3693

> <b_lp_Chiralities_Consistent>
1

> <s_lp_Variant>
AV-unprocessed.smi:3322-3

> <Gold.Version>
5.8.1

> <Gold.Id.Protein>
6NUR|6NUR_protein|mol2

> <Gold.PLP.Fitness>
40.7361

> <Gold.PLP.PLP>
-28.2824

> <Gold.PLP.part.hbond>
-2.9863

> <Gold.PLP.part.metal>
0.0000

> <Gold.PLP.part.buried>
-4.3841

> <Gold.PLP.part.nonpolar>
-21.8252

> <Gold.PLP.part.repulsive>
0.3238

> <Gold.PLP.ligand.clash>
0.0000

> <Gold.PLP.ligand.torsion>
1.2438

> <Gold.PLP.Chemscore.Hbond>
2.9360

> <Gold.PLP.Chemscore.CHOScore>
1.9922

> <Gold.PLP.Chemscore.Metal>
0.0000

> <Gold.Chemscore.Hbonds>
donor molecule, donor type, donor heavy atom, donor atom, acceptor molecule, acceptor atom, score
      L1  H     3    23       P1  7948  0.82
      P1  H  7989  7998       L1    16  0.91
      P1  H 10752 10764       L1    12  0.63
      L1  C     7    28       P1  7948  1.00
      L1  C     9    30       P1 10186  1.00

> <Gold.PLP.Chemscore.Internal.Correction>
0.1568

> <Gold.Rescore>
     Score         DG    S(hbond)    S(metal)    S(lipo)     H(rot)  DE(clash)    DE(int)     intcor
     15.33     -16.56       2.74        0.00      56.97       1.84       0.01       1.22       ----

> <Gold.Chemscore.Fitness>
15.3252

> <Gold.Chemscore.DG>
-16.5611

> <Gold.Chemscore.ZeroCoef>
-5.4800

> <Gold.Chemscore.Hbond>
2.7354

> <Gold.Chemscore.Metal>
0.0000

> <Gold.Chemscore.Lipo>
56.9746

> <Gold.Chemscore.Internal_Hbond>
0.0000

> <Gold.Chemscore.DEClash>
0.0149

> <Gold.Chemscore.DEInternal>
1.2211

> <Gold.Chemscore.Rot>
1.8442

> <Gold.Chemscore.Internal.Correction>
   9.000000E+99

> <Gold.Chemscore.Hbonds>
donor molecule, donor type, donor heavy atom, donor atom, acceptor molecule, acceptor atom, score
      L1  H     3    23       P1  7948  0.79
      P1  H  7989  7998       L1    16  0.29
      P1  H 10752 10764       L1    12  0.62

> <Gold.Chemscore.Hbond.Weighted>
-9.1362

> <Gold.Chemscore.Metal.Weighted>
-0.0000

> <Gold.Chemscore.Lipo.Weighted>
-6.6660

> <Gold.Chemscore.Internal_Hbond.Weighted>
0.0000

> <Gold.Chemscore.DEClash.Weighted>
0.0149

> <Gold.Chemscore.DEInternal.Weighted>
1.2211

> <Gold.Chemscore.Rot.Weighted>
4.7212

> <Gold.Chemscore.Internal.Correction.Weighted>
   9.000000E+99

> <Gold.Protein.RotatedTorsions>
[ 6907 6896 6895 6894 ] final -136.68 input  -60.11 | X-H torsion
[ 7974 7965 7964 7962 ] final  179.09 input  175.53 | X-H torsion
[ 8008 7997 7996 7995 ] final  173.66 input   59.86 | X-H torsion
[ 10167 10162 10161 10158 ] final   -1.06 input  -65.29 | X-H torsion
[ 10718 10713 10712 10709 ] final -160.39 input   66.30 | X-H torsion
[ 10763 10752 10751 10750 ] final  -52.92 input  -60.55 | X-H torsion
[ 11005 11000 10999 10996 ] final  125.06 input  -57.11 | X-H torsion

> <Gold.Protein.ActiveResidues>
 VAL166  LYS551  ARG553  GLY616  TRP617  ASP618  TYR619  PRO620  LYS621  CYS622 
 ASP623  PHE694  ASN695  SER759  ASP760  ASP761  ALA762  ILE779  LEU786  VAL792 
 PHE793  MET794  SER795  GLU796  ALA797  LYS798  CYS799  TRP800  GLU811  SER814 

> <Gold.Protein.RotatedAtoms>
  151.0131  133.5947  159.2680 H   0  0  0  0  0  0  0  0  0  0  0  0  # atno 6907 bound_to 6896
  151.3091  135.0788  159.9275 H   0  0  0  0  0  0  0  0  0  0  0  0  # atno 6908 bound_to 6896
  152.5304  133.9799  159.7856 H   0  0  0  0  0  0  0  0  0  0  0  0  # atno 6909 bound_to 6896
  144.7149  140.0495  143.6435 H   0  0  0  0  0  0  0  0  0  0  0  0  # atno 7974 bound_to 7965
  156.1052  140.1454  156.9413 H   0  0  0  0  0  0  0  0  0  0  0  0  # atno 8008 bound_to 7997
  154.4729  140.0904  156.7235 H   0  0  0  0  0  0  0  0  0  0  0  0  # atno 8009 bound_to 7997
  155.4691  140.3441  155.4325 H   0  0  0  0  0  0  0  0  0  0  0  0  # atno 8010 bound_to 7997
  140.6794  143.6820  150.8098 H   0  0  0  0  0  0  0  0  0  0  0  0  # atno 10167 bound_to 10162
  156.5815  130.8731  151.2866 H   0  0  0  0  0  0  0  0  0  0  0  0  # atno 10718 bound_to 10713
  154.1506  135.6490  153.4962 H   0  0  0  0  0  0  0  0  0  0  0  0  # atno 10763 bound_to 10752
  153.0139  135.5337  154.6812 H   0  0  0  0  0  0  0  0  0  0  0  0  # atno 10764 bound_to 10752
  154.6099  135.2953  155.0415 H   0  0  0  0  0  0  0  0  0  0  0  0  # atno 10765 bound_to 10752
  139.9388  134.9637  156.8502 H   0  0  0  0  0  0  0  0  0  0  0  0  # atno 11005 bound_to 11000
  145.9956  139.3049  143.0959 LP  0  0  0  0  0  0  0  0  0  0  0  0  # atno 17320 bound_to 7965
  145.8853  140.9337  143.0580 LP  0  0  0  0  0  0  0  0  0  0  0  0  # atno 17321 bound_to 7965
  140.0518  143.5242  152.2670 LP  0  0  0  0  0  0  0  0  0  0  0  0  # atno 17342 bound_to 10162
  139.6107  144.7608  151.2959 LP  0  0  0  0  0  0  0  0  0  0  0  0  # atno 17343 bound_to 10162
  157.7325  130.9716  150.1933 LP  0  0  0  0  0  0  0  0  0  0  0  0  # atno 17370 bound_to 10713
  156.2627  130.3712  149.8113 LP  0  0  0  0  0  0  0  0  0  0  0  0  # atno 17371 bound_to 10713
  140.6005  134.0176  155.7535 LP  0  0  0  0  0  0  0  0  0  0  0  0  # atno 17394 bound_to 11000
  141.1014  133.9762  157.3072 LP  0  0  0  0  0  0  0  0  0  0  0  0  # atno 17395 bound_to 11000

$$$$
