AV-unprocessed.smi:1933|AV-procd|sdf|7821|dock4
  -GOLD-   22720 9563D 1   1.00000     0.00000
 Structure written by MMmdl.
 48 50  0  0  0  0  0  0  0  0  2 V2000
  144.8275  136.2438  153.5722 O   0  0  0  0  0  0  0  0  0  0  0  0
  145.9178  136.2008  153.0019 C   0  0  0  0  0  0  0  0  0  0  0  0
  146.9627  136.9628  153.3523 N   0  0  0  0  0  0  0  0  0  0  0  0
  146.9596  137.9254  154.4468 C   0  0  0  0  0  0  0  0  0  0  0  0
  147.8116  139.1843  154.1347 C   0  0  2  0  0  0  0  0  0  0  0  0
  149.1448  139.2603  154.9331 C   0  0  1  0  0  0  0  0  0  0  0  0
  150.1914  138.2085  154.6004 C   0  0  0  0  0  0  0  0  0  0  0  0
  151.4760  138.8342  155.1347 C   0  0  0  0  0  0  0  0  0  0  0  0
  151.2964  140.2417  155.0332 O   0  0  0  0  0  0  0  0  0  0  0  0
  149.9559  140.5321  154.6580 C   0  0  0  0  0  0  0  0  0  0  0  0
  147.0340  140.4438  154.3394 N   0  3  0  0  0  0  0  0  0  0  0  0
  146.9306  140.8679  155.7568 C   0  0  0  0  0  0  0  0  0  0  0  0
  145.9530  142.0486  155.8831 C   0  0  0  0  0  0  0  0  0  0  0  0
  146.3795  143.1168  155.0457 O   0  0  0  0  0  0  0  0  0  0  0  0
  146.4076  142.7438  153.6728 C   0  0  0  0  0  0  0  0  0  0  0  0
  147.4064  141.5919  153.4736 C   0  0  0  0  0  0  0  0  0  0  0  0
  146.2245  135.4035  151.9635 N   0  0  0  0  0  0  0  0  0  0  0  0
  145.3975  134.4456  151.3184 C   0  0  0  0  0  0  0  0  0  0  0  0
  146.0754  133.3141  150.8110 C   0  0  0  0  0  0  0  0  0  0  0  0
  145.3440  132.3054  150.1544 C   0  0  0  0  0  0  0  0  0  0  0  0
  143.9519  132.4541  150.0226 C   0  0  0  0  0  0  0  0  0  0  0  0
  143.3550  133.6104  150.5572 C   0  0  0  0  0  0  0  0  0  0  0  0
  144.0540  134.5784  151.1867 N   0  0  0  0  0  0  0  0  0  0  0  0
  147.8197  136.8681  152.8271 H   0  0  0  0  0  0  0  0  0  0  0  0
  145.9208  138.1975  154.6342 H   0  0  0  0  0  0  0  0  0  0  0  0
  147.3291  137.4440  155.3536 H   0  0  0  0  0  0  0  0  0  0  0  0
  148.0806  139.1497  153.0777 H   0  0  0  0  0  0  0  0  0  0  0  0
  148.9414  139.2027  156.0032 H   0  0  0  0  0  0  0  0  0  0  0  0
  149.9958  137.2394  155.0596 H   0  0  0  0  0  0  0  0  0  0  0  0
  150.2650  138.0692  153.5210 H   0  0  0  0  0  0  0  0  0  0  0  0
  151.6158  138.5787  156.1858 H   0  0  0  0  0  0  0  0  0  0  0  0
  152.3583  138.5039  154.5858 H   0  0  0  0  0  0  0  0  0  0  0  0
  149.9442  140.7748  153.5945 H   0  0  0  0  0  0  0  0  0  0  0  0
  149.5777  141.3968  155.2041 H   0  0  0  0  0  0  0  0  0  0  0  0
  146.5795  140.0385  156.3717 H   0  0  0  0  0  0  0  0  0  0  0  0
  147.9106  141.1576  156.1367 H   0  0  0  0  0  0  0  0  0  0  0  0
  144.9395  141.7445  155.6160 H   0  0  0  0  0  0  0  0  0  0  0  0
  145.9187  142.3996  156.9145 H   0  0  0  0  0  0  0  0  0  0  0  0
  145.4090  142.4566  153.3394 H   0  0  0  0  0  0  0  0  0  0  0  0
  146.7063  143.6071  153.0781 H   0  0  0  0  0  0  0  0  0  0  0  0
  148.4097  141.9428  153.7181 H   0  0  0  0  0  0  0  0  0  0  0  0
  147.4142  141.2950  152.4254 H   0  0  0  0  0  0  0  0  0  0  0  0
  147.1587  135.4884  151.5918 H   0  0  0  0  0  0  0  0  0  0  0  0
  147.1456  133.2156  150.9203 H   0  0  0  0  0  0  0  0  0  0  0  0
  145.8432  131.4332  149.7589 H   0  0  0  0  0  0  0  0  0  0  0  0
  143.3571  131.7021  149.5255 H   0  0  0  0  0  0  0  0  0  0  0  0
  142.2888  133.7627  150.4781 H   0  0  0  0  0  0  0  0  0  0  0  0
  146.0887  140.2042  154.0762 H   0  0  0  0  0  0  0  0  0  0  0  0
  1  2  2  0  0  0  0
  2  3  1  0  0  0  0
  2 17  1  0  0  0  0
  3  4  1  0  0  0  0
  3 24  1  0  0  0  0
  4  5  1  0  0  0  0
  4 25  1  0  0  0  0
  4 26  1  0  0  0  0
  5  6  1  0  0  0  0
  5 11  1  0  0  0  0
  5 27  1  0  0  0  0
  6 10  1  0  0  0  0
  6  7  1  0  0  0  0
  6 28  1  0  0  0  0
  7  8  1  0  0  0  0
  7 29  1  0  0  0  0
  7 30  1  0  0  0  0
  8  9  1  0  0  0  0
  8 31  1  0  0  0  0
  8 32  1  0  0  0  0
  9 10  1  0  0  0  0
 10 33  1  0  0  0  0
 10 34  1  0  0  0  0
 11 16  1  0  0  0  0
 11 12  1  0  0  0  0
 11 48  1  0  0  0  0
 12 13  1  0  0  0  0
 12 35  1  0  0  0  0
 12 36  1  0  0  0  0
 13 14  1  0  0  0  0
 13 37  1  0  0  0  0
 13 38  1  0  0  0  0
 14 15  1  0  0  0  0
 15 16  1  0  0  0  0
 15 39  1  0  0  0  0
 15 40  1  0  0  0  0
 16 41  1  0  0  0  0
 16 42  1  0  0  0  0
 17 18  1  0  0  0  0
 17 43  1  0  0  0  0
 18 23  1  0  0  0  0
 18 19  2  0  0  0  0
 19 20  1  0  0  0  0
 19 44  1  0  0  0  0
 20 21  2  0  0  0  0
 20 45  1  0  0  0  0
 21 22  1  0  0  0  0
 21 46  1  0  0  0  0
 22 23  2  0  0  0  0
 22 47  1  0  0  0  0
M  CHG  1  11   1
M  END
> <s_m_source_file>
AV-unprocessed.smi

> <i_m_source_file_index>
1933

> <i_lp_mmshare_version>
43012

> <i_f3d_flags>
0

> <s_epik_input>
bjFbY0hdW2NIXVtjSF1bY0hdYzFbTkhdQyg9TylbTkhdW0NIMl1bQ0BIXShbQ0BASF0yW0NIMl1bQ0gyXU9bQ0gyXTIpTjNbQ0gyXVtDSDJdT1tDSDJdW0NIMl0z

> <s_epik_cmdline>
J2VwaWtfcHl0aG9uJywgJy1waCcsICc3LjAnLCAnLXRuJywgJzgnLCAnLW1hJywgJzIwMCcsICctbWV0YWxfYmluZGluZycsICctaW1hZScsICc8aW5maWxlLm1hZT4nLCAnLW9tYWUnLCAnPG91dGZpbGUubWFlPic=

> <r_epik_Ionization_Penalty>
0.983294

> <r_epik_Ionization_Penalty_Charging>
0.98326

> <r_epik_Ionization_Penalty_Neutral>
3.39688e-05

> <r_epik_State_Penalty>
1.0303

> <r_epik_Charging_Adjusted_Penalty>
2.01356

> <i_epik_Tot_Q>
1

> <i_epik_Tot_abs_Q>
1

> <r_epik_Metal_State_Penalty>
1.0303

> <b_epik_Metal_Only>
0

> <s_lp_Force_Field>
OPLS_2005

> <r_lp_Energy>
40.8927

> <b_lp_Chiralities_Consistent>
1

> <s_lp_Variant>
AV-unprocessed.smi:1933-7

> <Gold.Version>
5.8.1

> <Gold.Id.Protein>
6NUR|6NUR_protein|mol2

> <Gold.PLP.Fitness>
43.7972

> <Gold.PLP.PLP>
-35.5077

> <Gold.PLP.part.hbond>
-2.9995

> <Gold.PLP.part.metal>
0.0000

> <Gold.PLP.part.buried>
-3.7111

> <Gold.PLP.part.nonpolar>
-30.0179

> <Gold.PLP.part.repulsive>
0.4588

> <Gold.PLP.ligand.clash>
0.0000

> <Gold.PLP.ligand.torsion>
1.6034

> <Gold.PLP.Chemscore.Hbond>
2.7568

> <Gold.PLP.Chemscore.CHOScore>
1.0000

> <Gold.PLP.Chemscore.Metal>
0.0000

> <Gold.Chemscore.Hbonds>
donor molecule, donor type, donor heavy atom, donor atom, acceptor molecule, acceptor atom, score
      L1  H     3    24       P1  7948  1.00
      L1  H    17    43       P1  7948  0.96
      P1  H  7989  7998       L1     9  0.15
      L1  C    22    47       P1 10186  0.20

> <Gold.PLP.Chemscore.Internal.Correction>
0.2259

> <Gold.Rescore>
     Score         DG    S(hbond)    S(metal)    S(lipo)     H(rot)  DE(clash)    DE(int)     intcor
     14.09     -16.83       1.93        0.00      80.55       1.77       0.05       2.70       ----

> <Gold.Chemscore.Fitness>
14.0862

> <Gold.Chemscore.DG>
-16.8341

> <Gold.Chemscore.ZeroCoef>
-5.4800

> <Gold.Chemscore.Hbond>
1.9321

> <Gold.Chemscore.Metal>
0.0000

> <Gold.Chemscore.Lipo>
80.5545

> <Gold.Chemscore.Internal_Hbond>
0.0000

> <Gold.Chemscore.DEClash>
0.0489

> <Gold.Chemscore.DEInternal>
2.6991

> <Gold.Chemscore.Rot>
1.7671

> <Gold.Chemscore.Internal.Correction>
   9.000000E+99

> <Gold.Chemscore.Hbonds>
donor molecule, donor type, donor heavy atom, donor atom, acceptor molecule, acceptor atom, score
      L1  H     3    24       P1  7948  0.99
      L1  H    17    43       P1  7948  0.91

> <Gold.Chemscore.Hbond.Weighted>
-6.4530

> <Gold.Chemscore.Metal.Weighted>
-0.0000

> <Gold.Chemscore.Lipo.Weighted>
-9.4249

> <Gold.Chemscore.Internal_Hbond.Weighted>
0.0000

> <Gold.Chemscore.DEClash.Weighted>
0.0489

> <Gold.Chemscore.DEInternal.Weighted>
2.6991

> <Gold.Chemscore.Rot.Weighted>
4.5238

> <Gold.Chemscore.Internal.Correction.Weighted>
   9.000000E+99

> <Gold.Protein.RotatedTorsions>
[ 6907 6896 6895 6894 ] final  -10.53 input  -60.11 | X-H torsion
[ 7974 7965 7964 7962 ] final  -21.35 input  175.53 | X-H torsion
[ 8008 7997 7996 7995 ] final   37.28 input   59.86 | X-H torsion
[ 10167 10162 10161 10158 ] final  124.66 input  -65.29 | X-H torsion
[ 10718 10713 10712 10709 ] final  156.81 input   66.30 | X-H torsion
[ 10763 10752 10751 10750 ] final -163.92 input  -60.55 | X-H torsion
[ 11005 11000 10999 10996 ] final  -20.78 input  -57.11 | X-H torsion

> <Gold.Protein.ActiveResidues>
 VAL166  LYS551  ARG553  GLY616  TRP617  ASP618  TYR619  PRO620  LYS621  CYS622 
 ASP623  PHE694  ASN695  SER759  ASP760  ASP761  ALA762  ILE779  LEU786  VAL792 
 PHE793  MET794  SER795  GLU796  ALA797  LYS798  CYS799  TRP800  GLU811  SER814 

> <Gold.Protein.RotatedAtoms>
  151.4004  135.0970  159.9553 H   0  0  0  0  0  0  0  0  0  0  0  0  # atno 6907 bound_to 6896
  152.5052  133.8893  159.7396 H   0  0  0  0  0  0  0  0  0  0  0  0  # atno 6908 bound_to 6896
  150.9366  133.6648  159.2828 H   0  0  0  0  0  0  0  0  0  0  0  0  # atno 6909 bound_to 6896
  146.1737  140.4329  142.8522 H   0  0  0  0  0  0  0  0  0  0  0  0  # atno 7974 bound_to 7965
  155.2011  140.3316  155.4343 H   0  0  0  0  0  0  0  0  0  0  0  0  # atno 8008 bound_to 7997
  156.2406  140.1893  156.7048 H   0  0  0  0  0  0  0  0  0  0  0  0  # atno 8009 bound_to 7997
  154.6140  140.0605  156.9517 H   0  0  0  0  0  0  0  0  0  0  0  0  # atno 8010 bound_to 7997
  139.5729  144.6948  151.3730 H   0  0  0  0  0  0  0  0  0  0  0  0  # atno 10167 bound_to 10162
  157.2000  131.0674  151.2031 H   0  0  0  0  0  0  0  0  0  0  0  0  # atno 10718 bound_to 10713
  154.7078  135.3000  154.9244 H   0  0  0  0  0  0  0  0  0  0  0  0  # atno 10763 bound_to 10752
  154.0156  135.6689  153.4772 H   0  0  0  0  0  0  0  0  0  0  0  0  # atno 10764 bound_to 10752
  153.0731  135.5050  154.8258 H   0  0  0  0  0  0  0  0  0  0  0  0  # atno 10765 bound_to 10752
  140.8498  133.7865  155.9953 H   0  0  0  0  0  0  0  0  0  0  0  0  # atno 11005 bound_to 11000
  144.8203  140.6539  143.6357 LP  0  0  0  0  0  0  0  0  0  0  0  0  # atno 17320 bound_to 7965
  145.4269  139.1555  143.4043 LP  0  0  0  0  0  0  0  0  0  0  0  0  # atno 17321 bound_to 7965
  140.7013  143.7625  150.7407 LP  0  0  0  0  0  0  0  0  0  0  0  0  # atno 17342 bound_to 10162
  140.1136  143.4676  152.2355 LP  0  0  0  0  0  0  0  0  0  0  0  0  # atno 17343 bound_to 10162
  157.3777  130.7214  149.6608 LP  0  0  0  0  0  0  0  0  0  0  0  0  # atno 17370 bound_to 10713
  155.9701  130.4181  150.4312 LP  0  0  0  0  0  0  0  0  0  0  0  0  # atno 17371 bound_to 10713
  140.8803  134.2620  157.5147 LP  0  0  0  0  0  0  0  0  0  0  0  0  # atno 17394 bound_to 11000
  139.8704  134.9611  156.4387 LP  0  0  0  0  0  0  0  0  0  0  0  0  # atno 17395 bound_to 11000

$$$$
