AV-unprocessed.smi:2078|AV-procd|sdf|8468|dock2
  -GOLD-   2272011163D 1   1.00000     0.00000
 Structure written by MMmdl.
 41 42  0  0  0  0  0  0  0  0  3 V2000
  151.8962  140.4299  158.1155 C   0  0  0  0  0  0  0  0  0  0  0  0
  151.5035  139.9413  156.7634 C   0  0  0  0  0  0  0  0  0  0  0  0
  150.3252  139.4771  156.2516 C   0  0  0  0  0  0  0  0  0  0  0  0
  150.6497  139.1897  154.8977 C   0  0  0  0  0  0  0  0  0  0  0  0
  149.8122  138.6892  153.9760 N   0  5  0  0  0  0  0  0  0  0  0  0
  148.4747  138.7437  154.1692 C   0  0  0  0  0  0  0  0  0  0  0  0
  147.8701  139.5307  154.9010 O   0  0  0  0  0  0  0  0  0  0  0  0
  147.7930  137.8254  153.4719 N   0  0  0  0  0  0  0  0  0  0  0  0
  146.3471  137.6549  153.4995 C   0  0  0  0  0  0  0  0  0  0  0  0
  145.8481  137.1235  152.1469 C   0  0  0  0  0  0  0  0  0  0  0  0
  146.1339  135.6781  151.9665 N   0  3  2  0  0  0  0  0  0  0  0  0
  145.3582  135.0889  150.8446 C   0  0  0  0  0  0  0  0  0  0  0  0
  145.7822  133.6361  150.5773 C   0  0  0  0  0  0  0  0  0  0  0  0
  145.6494  132.7819  151.8455 C   0  0  0  0  0  0  0  0  0  0  0  0
  146.4037  133.4177  153.0278 C   0  0  1  0  0  0  0  0  0  0  0  0
  147.9307  133.2683  152.9110 C   0  0  0  0  0  0  0  0  0  0  0  0
  145.9740  134.8877  153.2177 C   0  0  0  0  0  0  0  0  0  0  0  0
  151.9172  139.4418  154.6170 N   0  0  0  0  0  0  0  0  0  0  0  0
  152.4703  139.9306  155.8067 O   0  0  0  0  0  0  0  0  0  0  0  0
  151.5558  139.7404  158.8879 H   0  0  0  0  0  0  0  0  0  0  0  0
  151.4551  141.4065  158.3145 H   0  0  0  0  0  0  0  0  0  0  0  0
  152.9790  140.5237  158.2009 H   0  0  0  0  0  0  0  0  0  0  0  0
  149.3810  139.3636  156.7623 H   0  0  0  0  0  0  0  0  0  0  0  0
  148.3236  137.2015  152.8816 H   0  0  0  0  0  0  0  0  0  0  0  0
  146.0750  136.9590  154.2950 H   0  0  0  0  0  0  0  0  0  0  0  0
  145.8937  138.6164  153.7403 H   0  0  0  0  0  0  0  0  0  0  0  0
  144.7797  137.3083  152.0253 H   0  0  0  0  0  0  0  0  0  0  0  0
  146.3503  137.6891  151.3606 H   0  0  0  0  0  0  0  0  0  0  0  0
  144.2922  135.1357  151.0734 H   0  0  0  0  0  0  0  0  0  0  0  0
  145.5138  135.6758  149.9385 H   0  0  0  0  0  0  0  0  0  0  0  0
  145.1704  133.2118  149.7806 H   0  0  0  0  0  0  0  0  0  0  0  0
  146.8110  133.6123  150.2166 H   0  0  0  0  0  0  0  0  0  0  0  0
  144.5931  132.6885  152.1017 H   0  0  0  0  0  0  0  0  0  0  0  0
  146.0085  131.7688  151.6604 H   0  0  0  0  0  0  0  0  0  0  0  0
  146.1117  132.8740  153.9272 H   0  0  0  0  0  0  0  0  0  0  0  0
  148.3297  133.8051  152.0502 H   0  0  0  0  0  0  0  0  0  0  0  0
  148.2148  132.2204  152.8093 H   0  0  0  0  0  0  0  0  0  0  0  0
  148.4299  133.6566  153.7993 H   0  0  0  0  0  0  0  0  0  0  0  0
  146.5535  135.3281  154.0285 H   0  0  0  0  0  0  0  0  0  0  0  0
  144.9292  134.9272  153.5301 H   0  0  0  0  0  0  0  0  0  0  0  0
  147.1062  135.6139  151.6998 H   0  0  0  0  0  0  0  0  0  0  0  0
  1  2  1  0  0  0  0
  1 20  1  0  0  0  0
  1 21  1  0  0  0  0
  1 22  1  0  0  0  0
  2 19  1  0  0  0  0
  2  3  2  0  0  0  0
  3  4  1  0  0  0  0
  3 23  1  0  0  0  0
  4  5  1  0  0  0  0
  4 18  2  0  0  0  0
  5  6  1  0  0  0  0
  6  7  2  0  0  0  0
  6  8  1  0  0  0  0
  8  9  1  0  0  0  0
  8 24  1  0  0  0  0
  9 10  1  0  0  0  0
  9 25  1  0  0  0  0
  9 26  1  0  0  0  0
 10 11  1  0  0  0  0
 10 27  1  0  0  0  0
 10 28  1  0  0  0  0
 11 17  1  0  0  0  0
 11 12  1  0  0  0  0
 11 41  1  0  0  0  0
 12 13  1  0  0  0  0
 12 29  1  0  0  0  0
 12 30  1  0  0  0  0
 13 14  1  0  0  0  0
 13 31  1  0  0  0  0
 13 32  1  0  0  0  0
 14 15  1  0  0  0  0
 14 33  1  0  0  0  0
 14 34  1  0  0  0  0
 15 16  1  0  0  0  0
 15 17  1  0  0  0  0
 15 35  1  0  0  0  0
 16 36  1  0  0  0  0
 16 37  1  0  0  0  0
 16 38  1  0  0  0  0
 17 39  1  0  0  0  0
 17 40  1  0  0  0  0
 18 19  1  0  0  0  0
M  CHG  1   5  -1
M  CHG  1  11   1
M  END
> <s_m_source_file>
AV-unprocessed.smi

> <i_m_source_file_index>
2078

> <i_lp_mmshare_version>
43012

> <i_f3d_flags>
0

> <s_epik_input>
W0NIM11jMVtjSF1jKG5vMSlbTkhdQyg9TylbTkhdW0NIMl1bQ0gyXU4yW0NIMl1bQ0gyXVtDSDJdW0NAQEhdKFtDSDNdKVtDSDJdMg==

> <s_epik_cmdline>
J2VwaWtfcHl0aG9uJywgJy1waCcsICc3LjAnLCAnLXRuJywgJzgnLCAnLW1hJywgJzIwMCcsICctbWV0YWxfYmluZGluZycsICctaW1hZScsICc8aW5maWxlLm1hZT4nLCAnLW9tYWUnLCAnPG91dGZpbGUubWFlPic=

> <r_epik_Ionization_Penalty>
6.22434

> <r_epik_Ionization_Penalty_Charging>
6.22425

> <r_epik_Ionization_Penalty_Neutral>
9.37855e-05

> <r_epik_State_Penalty>
6.22423

> <r_epik_Charging_Adjusted_Penalty>
12.4485

> <i_epik_Tot_Q>
0

> <i_epik_Tot_abs_Q>
2

> <r_epik_Metal_State_Penalty>
2.16764

> <b_epik_Metal_Only>
1

> <s_lp_Force_Field>
OPLS_2005

> <r_lp_Energy>
8.87897

> <b_lp_Chiralities_Consistent>
1

> <s_lp_Variant>
AV-unprocessed.smi:2078-6

> <Gold.Version>
5.8.1

> <Gold.Id.Protein>
6NUR|6NUR_protein|mol2

> <Gold.PLP.Fitness>
41.4238

> <Gold.PLP.PLP>
-27.5849

> <Gold.PLP.part.hbond>
-4.0000

> <Gold.PLP.part.metal>
0.0000

> <Gold.PLP.part.buried>
-2.3485

> <Gold.PLP.part.nonpolar>
-20.6399

> <Gold.PLP.part.repulsive>
0.4180

> <Gold.PLP.ligand.clash>
0.0000

> <Gold.PLP.ligand.torsion>
0.5947

> <Gold.PLP.Chemscore.Hbond>
4.9760

> <Gold.PLP.Chemscore.CHOScore>
0.0000

> <Gold.PLP.Chemscore.Metal>
0.0000

> <Gold.Chemscore.Hbonds>
donor molecule, donor type, donor heavy atom, donor atom, acceptor molecule, acceptor atom, score
      L1  H     8    24       P1  7948  1.00
      L1  H    11    41       P1  7948  2.00
      P1  H  7989  7998       L1    18  0.91
      P1  H  7997  8010       L1    19  1.00

> <Gold.PLP.Chemscore.Internal.Correction>
0.1004

> <Gold.Rescore>
     Score         DG    S(hbond)    S(metal)    S(lipo)     H(rot)  DE(clash)    DE(int)     intcor
     19.87     -20.72       3.89        0.00      52.87       1.54       0.01       0.84       ----

> <Gold.Chemscore.Fitness>
19.8713

> <Gold.Chemscore.DG>
-20.7164

> <Gold.Chemscore.ZeroCoef>
-5.4800

> <Gold.Chemscore.Hbond>
3.8907

> <Gold.Chemscore.Metal>
0.0000

> <Gold.Chemscore.Lipo>
52.8738

> <Gold.Chemscore.Internal_Hbond>
0.0000

> <Gold.Chemscore.DEClash>
0.0060

> <Gold.Chemscore.DEInternal>
0.8391

> <Gold.Chemscore.Rot>
1.5409

> <Gold.Chemscore.Internal.Correction>
   9.000000E+99

> <Gold.Chemscore.Hbonds>
donor molecule, donor type, donor heavy atom, donor atom, acceptor molecule, acceptor atom, score
      L1  H     8    24       P1  7948  0.93
      L1  H    11    41       P1  7948  0.96
      P1  H  7989  7998       L1    18  0.13
      P1  H  7997  8010       L1    19  0.99

> <Gold.Chemscore.Hbond.Weighted>
-12.9948

> <Gold.Chemscore.Metal.Weighted>
-0.0000

> <Gold.Chemscore.Lipo.Weighted>
-6.1862

> <Gold.Chemscore.Internal_Hbond.Weighted>
0.0000

> <Gold.Chemscore.DEClash.Weighted>
0.0060

> <Gold.Chemscore.DEInternal.Weighted>
0.8391

> <Gold.Chemscore.Rot.Weighted>
3.9446

> <Gold.Chemscore.Internal.Correction.Weighted>
   9.000000E+99

> <Gold.Protein.RotatedTorsions>
[ 6907 6896 6895 6894 ] final  -58.63 input  -60.11 | X-H torsion
[ 7974 7965 7964 7962 ] final   99.49 input  175.53 | X-H torsion
[ 8008 7997 7996 7995 ] final   90.38 input   59.86 | X-H torsion
[ 10167 10162 10161 10158 ] final   -0.93 input  -65.29 | X-H torsion
[ 10718 10713 10712 10709 ] final  145.57 input   66.30 | X-H torsion
[ 10763 10752 10751 10750 ] final   79.19 input  -60.55 | X-H torsion
[ 11005 11000 10999 10996 ] final   72.08 input  -57.11 | X-H torsion

> <Gold.Protein.ActiveResidues>
 VAL166  LYS551  ARG553  GLY616  TRP617  ASP618  TYR619  PRO620  LYS621  CYS622 
 ASP623  PHE694  ASN695  SER759  ASP760  ASP761  ALA762  ILE779  LEU786  VAL792 
 PHE793  MET794  SER795  GLU796  ALA797  LYS798  CYS799  TRP800  GLU811  SER814 

> <Gold.Protein.RotatedAtoms>
  150.7992  134.7074  159.6583 H   0  0  0  0  0  0  0  0  0  0  0  0  # atno 6907 bound_to 6896
  152.4107  134.6125  160.0039 H   0  0  0  0  0  0  0  0  0  0  0  0  # atno 6908 bound_to 6896
  151.6369  133.3291  159.3157 H   0  0  0  0  0  0  0  0  0  0  0  0  # atno 6909 bound_to 6896
  145.3981  139.2352  143.3315 H   0  0  0  0  0  0  0  0  0  0  0  0  # atno 7974 bound_to 7965
  156.0112  140.3350  155.6943 H   0  0  0  0  0  0  0  0  0  0  0  0  # atno 8008 bound_to 7997
  155.6155  140.0669  157.2711 H   0  0  0  0  0  0  0  0  0  0  0  0  # atno 8009 bound_to 7997
  154.4282  140.1786  156.1304 H   0  0  0  0  0  0  0  0  0  0  0  0  # atno 8010 bound_to 7997
  140.6788  143.6836  150.8085 H   0  0  0  0  0  0  0  0  0  0  0  0  # atno 10167 bound_to 10162
  157.3437  131.0940  151.1060 H   0  0  0  0  0  0  0  0  0  0  0  0  # atno 10718 bound_to 10713
  153.0933  135.4849  154.8731 H   0  0  0  0  0  0  0  0  0  0  0  0  # atno 10763 bound_to 10752
  154.7295  135.3057  154.8917 H   0  0  0  0  0  0  0  0  0  0  0  0  # atno 10764 bound_to 10752
  153.9557  135.6818  153.4798 H   0  0  0  0  0  0  0  0  0  0  0  0  # atno 10765 bound_to 10752
  139.9509  134.7228  156.0864 H   0  0  0  0  0  0  0  0  0  0  0  0  # atno 11005 bound_to 11000
  146.2765  140.4675  142.8793 LP  0  0  0  0  0  0  0  0  0  0  0  0  # atno 17320 bound_to 7965
  144.8393  140.6831  143.6240 LP  0  0  0  0  0  0  0  0  0  0  0  0  # atno 17321 bound_to 7965
  140.0533  143.5228  152.2663 LP  0  0  0  0  0  0  0  0  0  0  0  0  # atno 17342 bound_to 10162
  139.6097  144.7605  151.2979 LP  0  0  0  0  0  0  0  0  0  0  0  0  # atno 17343 bound_to 10162
  157.2263  130.6504  149.5831 LP  0  0  0  0  0  0  0  0  0  0  0  0  # atno 17370 bound_to 10713
  155.9711  130.4613  150.6105 LP  0  0  0  0  0  0  0  0  0  0  0  0  # atno 17371 bound_to 10713
  141.1172  133.6624  156.3123 LP  0  0  0  0  0  0  0  0  0  0  0  0  # atno 17394 bound_to 11000
  140.5721  134.5830  157.5460 LP  0  0  0  0  0  0  0  0  0  0  0  0  # atno 17395 bound_to 11000

$$$$
