AV-unprocessed.smi:3232|AV-procd|sdf|12340|dock1
  -GOLD-   2272018203D 1   1.00000     0.00000
 Structure written by MMmdl.
 40 41  0  0  0  0  0  0  0  0  2 V2000
  149.4132  130.6639  154.0280 C   0  0  0  0  0  0  0  0  0  0  0  0
  147.9003  130.8038  153.8051 C   0  0  0  0  0  0  0  0  0  0  0  0
  147.5779  131.6684  152.6389 N   0  3  1  0  0  0  0  0  0  0  0  0
  146.1559  131.6258  152.2242 C   0  0  0  0  0  0  0  0  0  0  0  0
  145.8884  132.9512  151.5212 C   0  0  0  0  0  0  0  0  0  0  0  0
  146.7330  133.9199  152.3333 C   0  0  0  0  0  0  0  0  0  0  0  0
  147.9877  133.1062  152.6961 C   0  0  1  0  0  0  0  0  0  0  0  0
  148.6779  133.5759  154.0022 C   0  0  0  0  0  0  0  0  0  0  0  0
  148.5841  135.0238  154.1601 N   0  0  0  0  0  0  0  0  0  0  0  0
  148.1678  135.6641  155.2650 C   0  0  0  0  0  0  0  0  0  0  0  0
  147.8925  135.0829  156.3153 O   0  0  0  0  0  0  0  0  0  0  0  0
  148.0157  137.1888  155.1453 C   0  0  2  0  0  0  0  0  0  0  0  0
  147.0246  137.6113  154.0419 C   0  0  0  0  0  0  0  0  0  0  0  0
  149.3249  137.8059  154.9685 N   0  0  0  0  0  0  0  0  0  0  0  0
  149.7318  138.7163  154.0814 C   0  0  0  0  0  0  0  0  0  0  0  0
  150.9886  139.1040  154.2450 N   0  0  0  0  0  0  0  0  0  0  0  0
  151.3231  138.3427  155.3286 C   0  0  0  0  0  0  0  0  0  0  0  0
  150.3598  137.5575  155.8099 N   0  0  0  0  0  0  0  0  0  0  0  0
  149.6160  130.0889  154.9318 H   0  0  0  0  0  0  0  0  0  0  0  0
  149.8875  131.6389  154.1441 H   0  0  0  0  0  0  0  0  0  0  0  0
  149.9001  130.1478  153.2001 H   0  0  0  0  0  0  0  0  0  0  0  0
  147.4502  129.8180  153.6804 H   0  0  0  0  0  0  0  0  0  0  0  0
  147.4779  131.2416  154.7091 H   0  0  0  0  0  0  0  0  0  0  0  0
  145.9474  130.7689  151.5830 H   0  0  0  0  0  0  0  0  0  0  0  0
  145.5170  131.5505  153.1059 H   0  0  0  0  0  0  0  0  0  0  0  0
  146.2468  132.9124  150.4917 H   0  0  0  0  0  0  0  0  0  0  0  0
  144.8313  133.2184  151.5049 H   0  0  0  0  0  0  0  0  0  0  0  0
  146.9647  134.8365  151.7890 H   0  0  0  0  0  0  0  0  0  0  0  0
  146.1868  134.1977  153.2359 H   0  0  0  0  0  0  0  0  0  0  0  0
  148.7035  133.2283  151.8818 H   0  0  0  0  0  0  0  0  0  0  0  0
  148.2594  133.0661  154.8713 H   0  0  0  0  0  0  0  0  0  0  0  0
  149.7404  133.3350  153.9787 H   0  0  0  0  0  0  0  0  0  0  0  0
  148.8004  135.5831  153.3475 H   0  0  0  0  0  0  0  0  0  0  0  0
  147.6160  137.5479  156.0950 H   0  0  0  0  0  0  0  0  0  0  0  0
  146.0355  137.1874  154.2182 H   0  0  0  0  0  0  0  0  0  0  0  0
  147.3509  137.2890  153.0522 H   0  0  0  0  0  0  0  0  0  0  0  0
  146.9138  138.6957  154.0148 H   0  0  0  0  0  0  0  0  0  0  0  0
  149.0927  139.1112  153.3051 H   0  0  0  0  0  0  0  0  0  0  0  0
  152.3028  138.3754  155.7826 H   0  0  0  0  0  0  0  0  0  0  0  0
  148.0991  131.2865  151.8624 H   0  0  0  0  0  0  0  0  0  0  0  0
  1  2  1  0  0  0  0
  1 19  1  0  0  0  0
  1 20  1  0  0  0  0
  1 21  1  0  0  0  0
  2  3  1  0  0  0  0
  2 22  1  0  0  0  0
  2 23  1  0  0  0  0
  3  7  1  0  0  0  0
  3  4  1  0  0  0  0
  3 40  1  0  0  0  0
  4  5  1  0  0  0  0
  4 24  1  0  0  0  0
  4 25  1  0  0  0  0
  5  6  1  0  0  0  0
  5 26  1  0  0  0  0
  5 27  1  0  0  0  0
  6  7  1  0  0  0  0
  6 28  1  0  0  0  0
  6 29  1  0  0  0  0
  7  8  1  0  0  0  0
  7 30  1  0  0  0  0
  8  9  1  0  0  0  0
  8 31  1  0  0  0  0
  8 32  1  0  0  0  0
  9 10  1  0  0  0  0
  9 33  1  0  0  0  0
 10 11  2  0  0  0  0
 10 12  1  0  0  0  0
 12 13  1  0  0  0  0
 12 14  1  0  0  0  0
 12 34  1  0  0  0  0
 13 35  1  0  0  0  0
 13 36  1  0  0  0  0
 13 37  1  0  0  0  0
 14 18  1  0  0  0  0
 14 15  1  0  0  0  0
 15 16  2  0  0  0  0
 15 38  1  0  0  0  0
 16 17  1  0  0  0  0
 17 18  2  0  0  0  0
 17 39  1  0  0  0  0
M  CHG  1   3   1
M  END
> <s_m_source_file>
AV-unprocessed.smi

> <i_m_source_file_index>
3232

> <i_lp_mmshare_version>
43012

> <i_f3d_flags>
0

> <s_epik_input>
W0NIM11bQ0gyXU4xW0NIMl1bQ0gyXVtDSDJdW0NASF0xW0NIMl1bTkhdQyg9TylbQ0BIXShbQ0gzXSluMltjSF1uW2NIXW4y

> <s_epik_cmdline>
J2VwaWtfcHl0aG9uJywgJy1waCcsICc3LjAnLCAnLXRuJywgJzgnLCAnLW1hJywgJzIwMCcsICctbWV0YWxfYmluZGluZycsICctaW1hZScsICc8aW5maWxlLm1hZT4nLCAnLW9tYWUnLCAnPG91dGZpbGUubWFlPic=

> <r_lp_tautomer_probability>
1

> <r_epik_Ionization_Penalty>
0.00177695

> <r_epik_Ionization_Penalty_Charging>
0.00176881

> <r_epik_Ionization_Penalty_Neutral>
8.13528e-06

> <r_epik_State_Penalty>
0.00119827

> <r_epik_Charging_Adjusted_Penalty>
0.00296709

> <i_epik_Tot_Q>
1

> <i_epik_Tot_abs_Q>
1

> <r_epik_Metal_State_Penalty>
-0

> <b_epik_Metal_Only>
0

> <s_lp_Force_Field>
OPLS_2005

> <r_lp_Energy>
36.2264

> <b_lp_Chiralities_Consistent>
1

> <s_lp_Variant>
AV-unprocessed.smi:3232-2

> <Gold.Version>
5.8.1

> <Gold.Id.Protein>
6NUR|6NUR_protein|mol2

> <Gold.PLP.Fitness>
35.8602

> <Gold.PLP.PLP>
-24.6254

> <Gold.PLP.part.hbond>
-3.0000

> <Gold.PLP.part.metal>
0.0000

> <Gold.PLP.part.buried>
-1.9081

> <Gold.PLP.part.nonpolar>
-19.4352

> <Gold.PLP.part.repulsive>
0.2232

> <Gold.PLP.ligand.clash>
0.0000

> <Gold.PLP.ligand.torsion>
0.4709

> <Gold.PLP.Chemscore.Hbond>
3.0000

> <Gold.PLP.Chemscore.CHOScore>
1.0000

> <Gold.PLP.Chemscore.Metal>
0.0000

> <Gold.Chemscore.Hbonds>
donor molecule, donor type, donor heavy atom, donor atom, acceptor molecule, acceptor atom, score
      L1  H     3    40       P1 10747  1.00
      L1  H     9    33       P1  7948  1.00
      P1  H  7989  7998       L1    16  1.00
      L1  C    15    38       P1  7957  1.00

> <Gold.PLP.Chemscore.Internal.Correction>
0.1765

> <Gold.Rescore>
     Score         DG    S(hbond)    S(metal)    S(lipo)     H(rot)  DE(clash)    DE(int)     intcor
     13.17     -13.91       2.94        0.00      42.56       2.49       0.14       0.61       ----

> <Gold.Chemscore.Fitness>
13.1697

> <Gold.Chemscore.DG>
-13.9142

> <Gold.Chemscore.ZeroCoef>
-5.4800

> <Gold.Chemscore.Hbond>
2.9413

> <Gold.Chemscore.Metal>
0.0000

> <Gold.Chemscore.Lipo>
42.5629

> <Gold.Chemscore.Internal_Hbond>
0.0000

> <Gold.Chemscore.DEClash>
0.1391

> <Gold.Chemscore.DEInternal>
0.6053

> <Gold.Chemscore.Rot>
2.4882

> <Gold.Chemscore.Internal.Correction>
   9.000000E+99

> <Gold.Chemscore.Hbonds>
donor molecule, donor type, donor heavy atom, donor atom, acceptor molecule, acceptor atom, score
      L1  H     3    40       P1 10747  1.00
      L1  H     9    33       P1  7948  0.89
      P1  H  7989  7998       L1    16  0.93

> <Gold.Chemscore.Hbond.Weighted>
-9.8241

> <Gold.Chemscore.Metal.Weighted>
-0.0000

> <Gold.Chemscore.Lipo.Weighted>
-4.9799

> <Gold.Chemscore.Internal_Hbond.Weighted>
0.0000

> <Gold.Chemscore.DEClash.Weighted>
0.1391

> <Gold.Chemscore.DEInternal.Weighted>
0.6053

> <Gold.Chemscore.Rot.Weighted>
6.3697

> <Gold.Chemscore.Internal.Correction.Weighted>
   9.000000E+99

> <Gold.Protein.RotatedTorsions>
[ 6907 6896 6895 6894 ] final  141.09 input  -60.11 | X-H torsion
[ 7974 7965 7964 7962 ] final -149.94 input  175.53 | X-H torsion
[ 8008 7997 7996 7995 ] final   46.57 input   59.86 | X-H torsion
[ 10167 10162 10161 10158 ] final   36.36 input  -65.29 | X-H torsion
[ 10718 10713 10712 10709 ] final  -88.72 input   66.30 | X-H torsion
[ 10763 10752 10751 10750 ] final  -72.56 input  -60.55 | X-H torsion
[ 11005 11000 10999 10996 ] final   86.07 input  -57.11 | X-H torsion

> <Gold.Protein.ActiveResidues>
 VAL166  LYS551  ARG553  GLY616  TRP617  ASP618  TYR619  PRO620  LYS621  CYS622 
 ASP623  PHE694  ASN695  SER759  ASP760  ASP761  ALA762  ILE779  LEU786  VAL792 
 PHE793  MET794  SER795  GLU796  ALA797  LYS798  CYS799  TRP800  GLU811  SER814 

> <Gold.Protein.RotatedAtoms>
  152.2352  133.5090  159.5238 H   0  0  0  0  0  0  0  0  0  0  0  0  # atno 6907 bound_to 6896
  150.7048  134.1163  159.4027 H   0  0  0  0  0  0  0  0  0  0  0  0  # atno 6908 bound_to 6896
  151.9084  135.0349  160.0563 H   0  0  0  0  0  0  0  0  0  0  0  0  # atno 6909 bound_to 6896
  144.7937  140.4998  143.5755 H   0  0  0  0  0  0  0  0  0  0  0  0  # atno 7974 bound_to 7965
  155.3546  140.3415  155.4240 H   0  0  0  0  0  0  0  0  0  0  0  0  # atno 8008 bound_to 7997
  156.1746  140.1643  156.8421 H   0  0  0  0  0  0  0  0  0  0  0  0  # atno 8009 bound_to 7997
  154.5268  140.0754  156.8256 H   0  0  0  0  0  0  0  0  0  0  0  0  # atno 8010 bound_to 7997
  140.4135  144.1560  150.6141 H   0  0  0  0  0  0  0  0  0  0  0  0  # atno 10167 bound_to 10162
  155.9983  130.4846  150.5062 H   0  0  0  0  0  0  0  0  0  0  0  0  # atno 10718 bound_to 10713
  154.4474  135.5926  153.6169 H   0  0  0  0  0  0  0  0  0  0  0  0  # atno 10763 bound_to 10752
  152.9810  135.6012  154.3647 H   0  0  0  0  0  0  0  0  0  0  0  0  # atno 10764 bound_to 10752
  154.3504  135.2841  155.2353 H   0  0  0  0  0  0  0  0  0  0  0  0  # atno 10765 bound_to 10752
  139.8954  134.8330  156.2670 H   0  0  0  0  0  0  0  0  0  0  0  0  # atno 11005 bound_to 11000
  145.5728  139.1484  143.3279 LP  0  0  0  0  0  0  0  0  0  0  0  0  # atno 17320 bound_to 7965
  146.2198  140.5860  142.9022 LP  0  0  0  0  0  0  0  0  0  0  0  0  # atno 17321 bound_to 7965
  140.4612  143.2448  151.9217 LP  0  0  0  0  0  0  0  0  0  0  0  0  # atno 17342 bound_to 10162
  139.4782  144.5465  151.8450 LP  0  0  0  0  0  0  0  0  0  0  0  0  # atno 17343 bound_to 10162
  157.3041  131.0651  151.2048 LP  0  0  0  0  0  0  0  0  0  0  0  0  # atno 17370 bound_to 10713
  157.3017  130.6846  149.6167 LP  0  0  0  0  0  0  0  0  0  0  0  0  # atno 17371 bound_to 10713
  141.0125  133.7087  156.1135 LP  0  0  0  0  0  0  0  0  0  0  0  0  # atno 17394 bound_to 11000
  140.7347  134.4216  157.5562 LP  0  0  0  0  0  0  0  0  0  0  0  0  # atno 17395 bound_to 11000

$$$$
