AV-unprocessed.smi:303|AV-procd|sdf|2274|dock9
  -GOLD-   2262022163D 1   1.00000     0.00000
 Structure written by MMmdl.
 45 46  0  0  0  0  0  0  0  0  1 V2000
  154.0671  129.8750  166.1036 C   0  0  0  0  0  0  0  0  0  0  0  0
  154.8715  130.9712  165.3948 C   0  0  0  0  0  0  0  0  0  0  0  0
  153.7747  132.2072  164.5650 S   0  0  0  0  0  0  0  0  0  0  0  0
  153.1041  131.5422  163.4372 O   0  0  0  0  0  0  0  0  0  0  0  0
  152.9720  132.8939  165.5893 O   0  0  0  0  0  0  0  0  0  0  0  0
  154.8794  133.3756  163.8958 N   0  0  0  0  0  0  0  0  0  0  0  0
  155.2855  133.2758  162.4809 C   0  0  0  0  0  0  0  0  0  0  0  0
  154.5394  134.3013  161.6094 C   0  0  0  0  0  0  0  0  0  0  0  0
  154.7256  135.7313  162.1479 C   0  0  0  0  0  0  0  0  0  0  0  0
  153.9580  136.7527  161.3001 C   0  0  0  0  0  0  0  0  0  0  0  0
  153.3228  136.3849  160.3112 O   0  0  0  0  0  0  0  0  0  0  0  0
  154.0059  138.0290  161.7145 N   0  0  0  0  0  0  0  0  0  0  0  0
  153.2759  139.1443  161.1163 C   0  0  0  0  0  0  0  0  0  0  0  0
  154.2150  140.2866  160.6801 C   0  0  0  0  0  0  0  0  0  0  0  0
  153.5602  141.6574  160.7070 C   0  0  0  0  0  0  0  0  0  0  0  0
  153.2904  142.3052  161.9321 C   0  0  0  0  0  0  0  0  0  0  0  0
  152.6442  143.5558  161.9015 C   0  0  0  0  0  0  0  0  0  0  0  0
  152.2996  144.1106  160.6541 C   0  0  0  0  0  0  0  0  0  0  0  0
  152.6194  143.3874  159.4876 C   0  0  0  0  0  0  0  0  0  0  0  0
  153.2366  142.1865  159.5058 N   0  0  0  0  0  0  0  0  0  0  0  0
  154.2590  135.7824  163.6141 C   0  0  0  0  0  0  0  0  0  0  0  0
  154.9818  134.7316  164.4746 C   0  0  0  0  0  0  0  0  0  0  0  0
  154.7310  129.1722  166.6069 H   0  0  0  0  0  0  0  0  0  0  0  0
  153.4630  129.3088  165.3942 H   0  0  0  0  0  0  0  0  0  0  0  0
  153.3967  130.2945  166.8529 H   0  0  0  0  0  0  0  0  0  0  0  0
  155.5413  131.4829  166.0810 H   0  0  0  0  0  0  0  0  0  0  0  0
  155.4928  130.5160  164.6237 H   0  0  0  0  0  0  0  0  0  0  0  0
  156.3598  133.4518  162.4163 H   0  0  0  0  0  0  0  0  0  0  0  0
  155.1156  132.2656  162.1093 H   0  0  0  0  0  0  0  0  0  0  0  0
  154.9066  134.2377  160.5843 H   0  0  0  0  0  0  0  0  0  0  0  0
  153.4804  134.0472  161.5685 H   0  0  0  0  0  0  0  0  0  0  0  0
  155.7888  135.9762  162.1136 H   0  0  0  0  0  0  0  0  0  0  0  0
  154.5578  138.2371  162.5341 H   0  0  0  0  0  0  0  0  0  0  0  0
  152.7358  138.7666  160.2481 H   0  0  0  0  0  0  0  0  0  0  0  0
  152.5173  139.5238  161.8028 H   0  0  0  0  0  0  0  0  0  0  0  0
  155.0971  140.3008  161.3215 H   0  0  0  0  0  0  0  0  0  0  0  0
  154.5814  140.0926  159.6711 H   0  0  0  0  0  0  0  0  0  0  0  0
  153.5574  141.8491  162.8740 H   0  0  0  0  0  0  0  0  0  0  0  0
  152.4139  144.0780  162.8183 H   0  0  0  0  0  0  0  0  0  0  0  0
  151.8026  145.0675  160.5919 H   0  0  0  0  0  0  0  0  0  0  0  0
  152.3711  143.7830  158.5140 H   0  0  0  0  0  0  0  0  0  0  0  0
  154.4506  136.7732  164.0281 H   0  0  0  0  0  0  0  0  0  0  0  0
  153.1811  135.6387  163.6797 H   0  0  0  0  0  0  0  0  0  0  0  0
  154.5935  134.7450  165.4923 H   0  0  0  0  0  0  0  0  0  0  0  0
  156.0384  134.9909  164.5486 H   0  0  0  0  0  0  0  0  0  0  0  0
  1  2  1  0  0  0  0
  1 23  1  0  0  0  0
  1 24  1  0  0  0  0
  1 25  1  0  0  0  0
  2  3  1  0  0  0  0
  2 26  1  0  0  0  0
  2 27  1  0  0  0  0
  3  4  2  0  0  0  0
  3  5  2  0  0  0  0
  3  6  1  0  0  0  0
  6 22  1  0  0  0  0
  6  7  1  0  0  0  0
  7  8  1  0  0  0  0
  7 28  1  0  0  0  0
  7 29  1  0  0  0  0
  8  9  1  0  0  0  0
  8 30  1  0  0  0  0
  8 31  1  0  0  0  0
  9 10  1  0  0  0  0
  9 21  1  0  0  0  0
  9 32  1  0  0  0  0
 10 11  2  0  0  0  0
 10 12  1  0  0  0  0
 12 13  1  0  0  0  0
 12 33  1  0  0  0  0
 13 14  1  0  0  0  0
 13 34  1  0  0  0  0
 13 35  1  0  0  0  0
 14 15  1  0  0  0  0
 14 36  1  0  0  0  0
 14 37  1  0  0  0  0
 15 20  1  0  0  0  0
 15 16  2  0  0  0  0
 16 17  1  0  0  0  0
 16 38  1  0  0  0  0
 17 18  2  0  0  0  0
 17 39  1  0  0  0  0
 18 19  1  0  0  0  0
 18 40  1  0  0  0  0
 19 20  2  0  0  0  0
 19 41  1  0  0  0  0
 21 22  1  0  0  0  0
 21 42  1  0  0  0  0
 21 43  1  0  0  0  0
 22 44  1  0  0  0  0
 22 45  1  0  0  0  0
M  END
> <s_m_source_file>
AV-unprocessed.smi

> <i_m_source_file_index>
303

> <i_lp_mmshare_version>
43012

> <i_f3d_flags>
0

> <s_epik_input>
W0NIM11bQ0gyXVMoPU8pKD1PKU4xW0NIMl1bQ0gyXVtDSF0oW0NIMl1bQ0gyXTEpQyg9TylbTkhdW0NIMl1bQ0gyXWMyW2NIXVtjSF1bY0hdW2NIXW4y

> <s_epik_cmdline>
J2VwaWtfcHl0aG9uJywgJy1waCcsICc3LjAnLCAnLXRuJywgJzgnLCAnLW1hJywgJzIwMCcsICctbWV0YWxfYmluZGluZycsICctaW1hZScsICc8aW5maWxlLm1hZT4nLCAnLW9tYWUnLCAnPG91dGZpbGUubWFlPic=

> <r_epik_Ionization_Penalty>
0.0277532

> <r_epik_Ionization_Penalty_Charging>
0

> <r_epik_Ionization_Penalty_Neutral>
0.0277532

> <r_epik_State_Penalty>
0.022734

> <r_epik_Charging_Adjusted_Penalty>
0.022734

> <i_epik_Tot_Q>
0

> <i_epik_Tot_abs_Q>
0

> <r_epik_Metal_State_Penalty>
0.021713

> <b_epik_Metal_Only>
0

> <s_lp_Force_Field>
OPLS_2005

> <r_lp_Energy>
1.72058

> <b_lp_Chiralities_Consistent>
1

> <s_lp_Variant>
AV-unprocessed.smi:303-1

> <Gold.Version>
5.8.1

> <Gold.Id.Protein>
6NUR|6NUR_protein|mol2

> <Gold.PLP.Fitness>
42.5948

> <Gold.PLP.PLP>
-40.2647

> <Gold.PLP.part.hbond>
-1.0000

> <Gold.PLP.part.metal>
0.0000

> <Gold.PLP.part.buried>
-5.0828

> <Gold.PLP.part.nonpolar>
-34.8704

> <Gold.PLP.part.repulsive>
0.1298

> <Gold.PLP.ligand.clash>
0.0000

> <Gold.PLP.ligand.torsion>
1.4339

> <Gold.PLP.Chemscore.Hbond>
1.0000

> <Gold.PLP.Chemscore.CHOScore>
0.0000

> <Gold.PLP.Chemscore.Metal>
0.0000

> <Gold.Chemscore.Hbonds>
donor molecule, donor type, donor heavy atom, donor atom, acceptor molecule, acceptor atom, score
      P1  H  6896  6909       L1    11  1.00

> <Gold.PLP.Chemscore.Internal.Correction>
2.1979

> <Gold.Rescore>
     Score         DG    S(hbond)    S(metal)    S(lipo)     H(rot)  DE(clash)    DE(int)     intcor
     15.61     -17.95       0.99        0.00     114.43       1.66       0.87       1.46       ----

> <Gold.Chemscore.Fitness>
15.6148

> <Gold.Chemscore.DG>
-17.9467

> <Gold.Chemscore.ZeroCoef>
-5.4800

> <Gold.Chemscore.Hbond>
0.9934

> <Gold.Chemscore.Metal>
0.0000

> <Gold.Chemscore.Lipo>
114.4334

> <Gold.Chemscore.Internal_Hbond>
0.0000

> <Gold.Chemscore.DEClash>
0.8719

> <Gold.Chemscore.DEInternal>
1.4600

> <Gold.Chemscore.Rot>
1.6563

> <Gold.Chemscore.Internal.Correction>
   9.000000E+99

> <Gold.Chemscore.Hbonds>
donor molecule, donor type, donor heavy atom, donor atom, acceptor molecule, acceptor atom, score
      P1  H  6896  6909       L1    11  1.00

> <Gold.Chemscore.Hbond.Weighted>
-3.3181

> <Gold.Chemscore.Metal.Weighted>
-0.0000

> <Gold.Chemscore.Lipo.Weighted>
-13.3887

> <Gold.Chemscore.Internal_Hbond.Weighted>
0.0000

> <Gold.Chemscore.DEClash.Weighted>
0.8719

> <Gold.Chemscore.DEInternal.Weighted>
1.4600

> <Gold.Chemscore.Rot.Weighted>
4.2401

> <Gold.Chemscore.Internal.Correction.Weighted>
   9.000000E+99

> <Gold.Protein.RotatedTorsions>
[ 6907 6896 6895 6894 ] final  154.62 input  -60.11 | X-H torsion
[ 7974 7965 7964 7962 ] final   72.20 input  175.53 | X-H torsion
[ 8008 7997 7996 7995 ] final  -51.52 input   59.86 | X-H torsion
[ 10167 10162 10161 10158 ] final -109.43 input  -65.29 | X-H torsion
[ 10718 10713 10712 10709 ] final -165.85 input   66.30 | X-H torsion
[ 10763 10752 10751 10750 ] final  -20.00 input  -60.55 | X-H torsion
[ 11005 11000 10999 10996 ] final  -84.31 input  -57.11 | X-H torsion

> <Gold.Protein.ActiveResidues>
 VAL166  LYS551  ARG553  GLY616  TRP617  ASP618  TYR619  PRO620  LYS621  CYS622 
 ASP623  PHE694  ASN695  SER759  ASP760  ASP761  ALA762  ILE779  LEU786  VAL792 
 PHE793  MET794  SER795  GLU796  ALA797  LYS798  CYS799  TRP800  GLU811  SER814 

> <Gold.Protein.RotatedAtoms>
  152.0559  133.4040  159.4396 H   0  0  0  0  0  0  0  0  0  0  0  0  # atno 6907 bound_to 6896
  150.6868  134.3255  159.4814 H   0  0  0  0  0  0  0  0  0  0  0  0  # atno 6908 bound_to 6896
  152.1071  134.9300  160.0618 H   0  0  0  0  0  0  0  0  0  0  0  0  # atno 6909 bound_to 6896
  145.7564  139.2781  143.1402 H   0  0  0  0  0  0  0  0  0  0  0  0  # atno 7974 bound_to 7965
  154.4085  140.1246  156.4842 H   0  0  0  0  0  0  0  0  0  0  0  0  # atno 8008 bound_to 7997
  155.7054  140.3494  155.4931 H   0  0  0  0  0  0  0  0  0  0  0  0  # atno 8009 bound_to 7997
  155.9348  140.1076  157.1093 H   0  0  0  0  0  0  0  0  0  0  0  0  # atno 8010 bound_to 7997
  140.1554  143.4164  152.1464 H   0  0  0  0  0  0  0  0  0  0  0  0  # atno 10167 bound_to 10162
  156.6594  130.9040  151.3026 H   0  0  0  0  0  0  0  0  0  0  0  0  # atno 10718 bound_to 10713
  153.6136  135.6995  153.5337 H   0  0  0  0  0  0  0  0  0  0  0  0  # atno 10763 bound_to 10752
  153.2996  135.4133  155.1240 H   0  0  0  0  0  0  0  0  0  0  0  0  # atno 10764 bound_to 10752
  154.8558  135.3645  154.5675 H   0  0  0  0  0  0  0  0  0  0  0  0  # atno 10765 bound_to 10752
  141.1651  133.7339  156.8849 H   0  0  0  0  0  0  0  0  0  0  0  0  # atno 11005 bound_to 11000
  146.0307  140.8260  142.9877 LP  0  0  0  0  0  0  0  0  0  0  0  0  # atno 17320 bound_to 7965
  144.6839  140.2765  143.7298 LP  0  0  0  0  0  0  0  0  0  0  0  0  # atno 17321 bound_to 7965
  139.5406  144.7252  151.4747 LP  0  0  0  0  0  0  0  0  0  0  0  0  # atno 17342 bound_to 10162
  140.6676  143.8363  150.6961 LP  0  0  0  0  0  0  0  0  0  0  0  0  # atno 17343 bound_to 10162
  157.7114  130.9445  150.1104 LP  0  0  0  0  0  0  0  0  0  0  0  0  # atno 17370 bound_to 10713
  156.2022  130.3661  149.8773 LP  0  0  0  0  0  0  0  0  0  0  0  0  # atno 17371 bound_to 10713
  140.1689  134.9114  157.2808 LP  0  0  0  0  0  0  0  0  0  0  0  0  # atno 17394 bound_to 11000
  140.2525  134.3666  155.7437 LP  0  0  0  0  0  0  0  0  0  0  0  0  # atno 17395 bound_to 11000

$$$$
