AV-unprocessed.smi:3245|AV-procd|sdf|12405|dock2
  -GOLD-   2272018283D 1   1.00000     0.00000
 Structure written by MMmdl.
 35 36  0  0  0  0  0  0  0  0  1 V2000
  149.0858  142.2216  158.0245 C   0  0  0  0  0  0  0  0  0  0  0  0
  150.2938  141.4168  157.5030 C   0  0  1  0  0  0  0  0  0  0  0  0
  150.6191  141.7223  156.0259 C   0  0  0  0  0  0  0  0  0  0  0  0
  149.5533  141.3373  155.1180 N   0  0  0  0  0  0  0  0  0  0  0  0
  148.3002  141.8968  154.9810 C   0  0  0  0  0  0  0  0  0  0  0  0
  147.6519  141.2058  153.9977 C   0  0  0  0  0  0  0  0  0  0  0  0
  148.6048  140.2334  153.5838 C   0  0  0  0  0  0  0  0  0  0  0  0
  149.7434  140.3173  154.2528 N   0  0  0  0  0  0  0  0  0  0  0  0
  151.4845  141.7268  158.2848 N   0  0  0  0  0  0  0  0  0  0  0  0
  151.8934  143.1174  158.1402 C   0  0  0  0  0  0  0  0  0  0  0  0
  153.1286  143.4008  159.0138 C   0  0  0  0  0  0  0  0  0  0  0  0
  152.7884  143.4859  160.4389 N   0  0  0  0  0  0  0  0  0  0  0  0
  153.2750  142.6702  161.3840 C   0  0  0  0  0  0  0  0  0  0  0  0
  154.0537  141.7288  161.2352 O   0  0  0  0  0  0  0  0  0  0  0  0
  152.7091  143.0945  162.7216 C   0  0  0  0  0  0  0  0  0  0  0  0
  151.8968  144.2110  162.2893 N   0  0  0  0  0  0  0  0  0  0  0  0
  151.9666  144.4117  160.9670 C   0  0  0  0  0  0  0  0  0  0  0  0
  151.3754  145.2992  160.3537 O   0  0  0  0  0  0  0  0  0  0  0  0
  148.1866  142.0038  157.4483 H   0  0  0  0  0  0  0  0  0  0  0  0
  149.2681  143.2947  157.9586 H   0  0  0  0  0  0  0  0  0  0  0  0
  148.8538  141.9874  159.0627 H   0  0  0  0  0  0  0  0  0  0  0  0
  150.0815  140.3499  157.5890 H   0  0  0  0  0  0  0  0  0  0  0  0
  150.8114  142.7882  155.8934 H   0  0  0  0  0  0  0  0  0  0  0  0
  151.5283  141.2018  155.7209 H   0  0  0  0  0  0  0  0  0  0  0  0
  147.9765  142.7283  155.5897 H   0  0  0  0  0  0  0  0  0  0  0  0
  146.6502  141.3707  153.6295 H   0  0  0  0  0  0  0  0  0  0  0  0
  148.5041  139.4751  152.8213 H   0  0  0  0  0  0  0  0  0  0  0  0
  151.2995  141.5452  159.2611 H   0  0  0  0  0  0  0  0  0  0  0  0
  152.1054  143.3614  157.0997 H   0  0  0  0  0  0  0  0  0  0  0  0
  151.0709  143.7590  158.4582 H   0  0  0  0  0  0  0  0  0  0  0  0
  153.8550  142.5986  158.8755 H   0  0  0  0  0  0  0  0  0  0  0  0
  153.6330  144.3082  158.6762 H   0  0  0  0  0  0  0  0  0  0  0  0
  152.1044  142.3071  163.1726 H   0  0  0  0  0  0  0  0  0  0  0  0
  153.4944  143.4100  163.4093 H   0  0  0  0  0  0  0  0  0  0  0  0
  151.3477  144.7712  162.9253 H   0  0  0  0  0  0  0  0  0  0  0  0
  1  2  1  0  0  0  0
  1 19  1  0  0  0  0
  1 20  1  0  0  0  0
  1 21  1  0  0  0  0
  2  3  1  0  0  0  0
  2  9  1  0  0  0  0
  2 22  1  0  0  0  0
  3  4  1  0  0  0  0
  3 23  1  0  0  0  0
  3 24  1  0  0  0  0
  4  8  1  0  0  0  0
  4  5  1  0  0  0  0
  5  6  2  0  0  0  0
  5 25  1  0  0  0  0
  6  7  1  0  0  0  0
  6 26  1  0  0  0  0
  7  8  2  0  0  0  0
  7 27  1  0  0  0  0
  9 10  1  0  0  0  0
  9 28  1  0  0  0  0
 10 11  1  0  0  0  0
 10 29  1  0  0  0  0
 10 30  1  0  0  0  0
 11 12  1  0  0  0  0
 11 31  1  0  0  0  0
 11 32  1  0  0  0  0
 12 17  1  0  0  0  0
 12 13  1  0  0  0  0
 13 14  2  0  0  0  0
 13 15  1  0  0  0  0
 15 16  1  0  0  0  0
 15 33  1  0  0  0  0
 15 34  1  0  0  0  0
 16 17  1  0  0  0  0
 16 35  1  0  0  0  0
 17 18  2  0  0  0  0
M  END
> <s_m_source_file>
AV-unprocessed.smi

> <i_m_source_file_index>
3245

> <i_lp_mmshare_version>
43012

> <i_f3d_flags>
0

> <s_epik_input>
bjFbY0hdW2NIXVtjSF1uMVtDSDJdW0NAQEhdKFtDSDNdKVtOSF1bQ0gyXVtDSDJdTjJDKD1PKVtDSDJdW05IXUMyPU8=

> <s_epik_cmdline>
J2VwaWtfcHl0aG9uJywgJy1waCcsICc3LjAnLCAnLXRuJywgJzgnLCAnLW1hJywgJzIwMCcsICctbWV0YWxfYmluZGluZycsICctaW1hZScsICc8aW5maWxlLm1hZT4nLCAnLW9tYWUnLCAnPG91dGZpbGUubWFlPic=

> <r_lp_tautomer_probability>
1

> <r_epik_Ionization_Penalty>
2.14948

> <r_epik_Ionization_Penalty_Charging>
0

> <r_epik_Ionization_Penalty_Neutral>
2.14948

> <r_epik_State_Penalty>
2.28912

> <r_epik_Charging_Adjusted_Penalty>
2.28912

> <i_epik_Tot_Q>
0

> <i_epik_Tot_abs_Q>
0

> <r_epik_Metal_State_Penalty>
2.36471

> <b_epik_Metal_Only>
0

> <s_lp_Force_Field>
OPLS_2005

> <r_lp_Energy>
25.1449

> <b_lp_Chiralities_Consistent>
1

> <s_lp_Variant>
AV-unprocessed.smi:3245-4

> <Gold.Version>
5.8.1

> <Gold.Id.Protein>
6NUR|6NUR_protein|mol2

> <Gold.PLP.Fitness>
46.7295

> <Gold.PLP.PLP>
-40.0221

> <Gold.PLP.part.hbond>
-3.7130

> <Gold.PLP.part.metal>
0.0000

> <Gold.PLP.part.buried>
-1.9766

> <Gold.PLP.part.nonpolar>
-34.9868

> <Gold.PLP.part.repulsive>
0.7429

> <Gold.PLP.ligand.clash>
0.0000

> <Gold.PLP.ligand.torsion>
0.1403

> <Gold.PLP.Chemscore.Hbond>
0.8208

> <Gold.PLP.Chemscore.CHOScore>
1.4745

> <Gold.PLP.Chemscore.Metal>
0.0000

> <Gold.Chemscore.Hbonds>
donor molecule, donor type, donor heavy atom, donor atom, acceptor molecule, acceptor atom, score
      P1  H  7989  7998       L1     8  0.66
      L1  C     5    25       P1  8028  0.94
      L1  C     7    27       P1  7957  0.59

> <Gold.PLP.Chemscore.Internal.Correction>
0.1023

> <Gold.Rescore>
     Score         DG    S(hbond)    S(metal)    S(lipo)     H(rot)  DE(clash)    DE(int)     intcor
      5.51      -7.63       0.14        0.00      72.73       2.66       1.88       0.23       ----

> <Gold.Chemscore.Fitness>
5.5124

> <Gold.Chemscore.DG>
-7.6287

> <Gold.Chemscore.ZeroCoef>
-5.4800

> <Gold.Chemscore.Hbond>
0.1352

> <Gold.Chemscore.Metal>
0.0000

> <Gold.Chemscore.Lipo>
72.7266

> <Gold.Chemscore.Internal_Hbond>
0.0000

> <Gold.Chemscore.DEClash>
1.8825

> <Gold.Chemscore.DEInternal>
0.2338

> <Gold.Chemscore.Rot>
2.6609

> <Gold.Chemscore.Internal.Correction>
   9.000000E+99

> <Gold.Chemscore.Hbonds>
donor molecule, donor type, donor heavy atom, donor atom, acceptor molecule, acceptor atom, score
      P1  H  7989  7998       L1     8  0.14

> <Gold.Chemscore.Hbond.Weighted>
-0.4515

> <Gold.Chemscore.Metal.Weighted>
-0.0000

> <Gold.Chemscore.Lipo.Weighted>
-8.5090

> <Gold.Chemscore.Internal_Hbond.Weighted>
0.0000

> <Gold.Chemscore.DEClash.Weighted>
1.8825

> <Gold.Chemscore.DEInternal.Weighted>
0.2338

> <Gold.Chemscore.Rot.Weighted>
6.8118

> <Gold.Chemscore.Internal.Correction.Weighted>
   9.000000E+99

> <Gold.Protein.RotatedTorsions>
[ 6907 6896 6895 6894 ] final  -16.54 input  -60.11 | X-H torsion
[ 7974 7965 7964 7962 ] final   83.60 input  175.53 | X-H torsion
[ 8008 7997 7996 7995 ] final  163.87 input   59.86 | X-H torsion
[ 10167 10162 10161 10158 ] final  -75.21 input  -65.29 | X-H torsion
[ 10718 10713 10712 10709 ] final  133.19 input   66.30 | X-H torsion
[ 10763 10752 10751 10750 ] final  -80.82 input  -60.55 | X-H torsion
[ 11005 11000 10999 10996 ] final -151.47 input  -57.11 | X-H torsion

> <Gold.Protein.ActiveResidues>
 VAL166  LYS551  ARG553  GLY616  TRP617  ASP618  TYR619  PRO620  LYS621  CYS622 
 ASP623  PHE694  ASN695  SER759  ASP760  ASP761  ALA762  ILE779  LEU786  VAL792 
 PHE793  MET794  SER795  GLU796  ALA797  LYS798  CYS799  TRP800  GLU811  SER814 

> <Gold.Protein.RotatedAtoms>
  151.3070  135.0784  159.9258 H   0  0  0  0  0  0  0  0  0  0  0  0  # atno 6907 bound_to 6896
  152.5285  133.9774  159.7801 H   0  0  0  0  0  0  0  0  0  0  0  0  # atno 6908 bound_to 6896
  151.0071  133.5949  159.2717 H   0  0  0  0  0  0  0  0  0  0  0  0  # atno 6909 bound_to 6896
  145.6098  139.2366  143.2198 H   0  0  0  0  0  0  0  0  0  0  0  0  # atno 7974 bound_to 7965
  156.1924  140.1712  156.8065 H   0  0  0  0  0  0  0  0  0  0  0  0  # atno 8008 bound_to 7997
  154.5488  140.0722  156.8665 H   0  0  0  0  0  0  0  0  0  0  0  0  # atno 8009 bound_to 7997
  155.3070  140.3365  155.4247 H   0  0  0  0  0  0  0  0  0  0  0  0  # atno 8010 bound_to 7997
  140.4962  143.2370  151.7828 H   0  0  0  0  0  0  0  0  0  0  0  0  # atno 10167 bound_to 10162
  157.4797  131.1085  150.9697 H   0  0  0  0  0  0  0  0  0  0  0  0  # atno 10718 bound_to 10713
  154.5559  135.5648  153.6964 H   0  0  0  0  0  0  0  0  0  0  0  0  # atno 10763 bound_to 10752
  153.0003  135.6262  154.2310 H   0  0  0  0  0  0  0  0  0  0  0  0  # atno 10764 bound_to 10752
  154.2246  135.2868  155.2892 H   0  0  0  0  0  0  0  0  0  0  0  0  # atno 10765 bound_to 10752
  140.7292  134.3640  157.5169 H   0  0  0  0  0  0  0  0  0  0  0  0  # atno 11005 bound_to 11000
  146.1513  140.6921  142.9321 LP  0  0  0  0  0  0  0  0  0  0  0  0  # atno 17320 bound_to 7965
  144.7274  140.4569  143.6962 LP  0  0  0  0  0  0  0  0  0  0  0  0  # atno 17321 bound_to 7965
  139.4861  144.4584  151.9571 LP  0  0  0  0  0  0  0  0  0  0  0  0  # atno 17342 bound_to 10162
  140.3672  144.2900  150.5925 LP  0  0  0  0  0  0  0  0  0  0  0  0  # atno 17343 bound_to 10162
  157.0434  130.5758  149.5359 LP  0  0  0  0  0  0  0  0  0  0  0  0  # atno 17370 bound_to 10713
  156.0115  130.5207  150.8004 LP  0  0  0  0  0  0  0  0  0  0  0  0  # atno 17371 bound_to 10713
  139.8830  134.9007  156.2795 LP  0  0  0  0  0  0  0  0  0  0  0  0  # atno 17394 bound_to 11000
  140.9935  133.7194  156.0851 LP  0  0  0  0  0  0  0  0  0  0  0  0  # atno 17395 bound_to 11000

$$$$
