AV-unprocessed.smi:1099|AV-procd|sdf|4755|dock4
  -GOLD-   22720 3293D 1   1.00000     0.00000
 Structure written by MMmdl.
 41 43  0  0  0  0  0  0  0  0  1 V2000
  151.0709  141.3640  157.7025 C   0  0  0  0  0  0  0  0  0  0  0  0
  150.7709  141.7820  156.2592 C   0  0  0  0  0  0  0  0  0  0  0  0
  150.2350  140.6579  155.4372 C   0  0  0  0  0  0  0  0  0  0  0  0
  149.0620  140.7041  154.7998 N   0  0  0  0  0  0  0  0  0  0  0  0
  148.8005  139.5412  154.0680 C   0  0  0  0  0  0  0  0  0  0  0  0
  147.5212  139.4103  153.2989 C   0  0  0  0  0  0  0  0  0  0  0  0
  146.6714  138.2228  153.7811 C   0  0  0  0  0  0  0  0  0  0  0  0
  146.5811  137.1800  152.7653 N   0  0  0  0  0  0  0  0  0  0  0  0
  145.4368  136.7040  152.2502 C   0  0  0  0  0  0  0  0  0  0  0  0
  144.3281  137.1205  152.5872 O   0  0  0  0  0  0  0  0  0  0  0  0
  145.5764  135.5878  151.1996 C   0  0  2  0  0  0  0  0  0  0  0  0
  144.2283  135.1694  150.5617 C   0  0  0  0  0  0  0  0  0  0  0  0
  144.1749  133.6496  150.8134 C   0  0  1  0  0  0  0  0  0  0  0  0
  145.2423  132.9488  149.9511 C   0  0  0  0  0  0  0  0  0  0  0  0
  146.5569  133.3404  150.6535 C   0  0  0  0  0  0  0  0  0  0  0  0
  146.0682  134.2462  151.8003 C   0  0  2  0  0  0  0  0  0  0  0  0
  144.7770  133.5369  152.2070 C   0  0  0  0  0  0  0  0  0  0  0  0
  149.8057  138.6104  154.1539 C   0  0  0  0  0  0  0  0  0  0  0  0
  151.1202  139.1632  155.1542 S   0  0  0  0  0  0  0  0  0  0  0  0
  151.4579  142.2052  158.2781 H   0  0  0  0  0  0  0  0  0  0  0  0
  151.8146  140.5671  157.7351 H   0  0  0  0  0  0  0  0  0  0  0  0
  150.1713  141.0039  158.2024 H   0  0  0  0  0  0  0  0  0  0  0  0
  150.0458  142.5962  156.2516 H   0  0  0  0  0  0  0  0  0  0  0  0
  151.6758  142.1655  155.7864 H   0  0  0  0  0  0  0  0  0  0  0  0
  146.9414  140.3301  153.3843 H   0  0  0  0  0  0  0  0  0  0  0  0
  147.7429  139.2961  152.2370 H   0  0  0  0  0  0  0  0  0  0  0  0
  147.0811  137.8102  154.7047 H   0  0  0  0  0  0  0  0  0  0  0  0
  145.6600  138.5578  154.0131 H   0  0  0  0  0  0  0  0  0  0  0  0
  147.4508  136.7883  152.4338 H   0  0  0  0  0  0  0  0  0  0  0  0
  146.2678  135.9243  150.4248 H   0  0  0  0  0  0  0  0  0  0  0  0
  143.3762  135.6606  151.0343 H   0  0  0  0  0  0  0  0  0  0  0  0
  144.1887  135.4069  149.4980 H   0  0  0  0  0  0  0  0  0  0  0  0
  143.1770  133.2234  150.7060 H   0  0  0  0  0  0  0  0  0  0  0  0
  145.1080  131.8666  149.9665 H   0  0  0  0  0  0  0  0  0  0  0  0
  145.2123  133.2754  148.9109 H   0  0  0  0  0  0  0  0  0  0  0  0
  147.0583  132.4553  151.0472 H   0  0  0  0  0  0  0  0  0  0  0  0
  147.2538  133.8475  149.9853 H   0  0  0  0  0  0  0  0  0  0  0  0
  146.7973  134.3576  152.6043 H   0  0  0  0  0  0  0  0  0  0  0  0
  144.1991  134.0567  152.9713 H   0  0  0  0  0  0  0  0  0  0  0  0
  144.9332  132.5053  152.5275 H   0  0  0  0  0  0  0  0  0  0  0  0
  149.8529  137.6369  153.6887 H   0  0  0  0  0  0  0  0  0  0  0  0
  1  2  1  0  0  0  0
  1 20  1  0  0  0  0
  1 21  1  0  0  0  0
  1 22  1  0  0  0  0
  2  3  1  0  0  0  0
  2 23  1  0  0  0  0
  2 24  1  0  0  0  0
  3 19  1  0  0  0  0
  3  4  2  0  0  0  0
  4  5  1  0  0  0  0
  5  6  1  0  0  0  0
  5 18  2  0  0  0  0
  6  7  1  0  0  0  0
  6 25  1  0  0  0  0
  6 26  1  0  0  0  0
  7  8  1  0  0  0  0
  7 27  1  0  0  0  0
  7 28  1  0  0  0  0
  8  9  1  0  0  0  0
  8 29  1  0  0  0  0
  9 10  2  0  0  0  0
  9 11  1  0  0  0  0
 11 16  1  0  0  0  0
 11 12  1  0  0  0  0
 11 30  1  0  0  0  0
 12 13  1  0  0  0  0
 12 31  1  0  0  0  0
 12 32  1  0  0  0  0
 13 17  1  0  0  0  0
 13 14  1  0  0  0  0
 13 33  1  0  0  0  0
 14 15  1  0  0  0  0
 14 34  1  0  0  0  0
 14 35  1  0  0  0  0
 15 16  1  0  0  0  0
 15 36  1  0  0  0  0
 15 37  1  0  0  0  0
 16 17  1  0  0  0  0
 16 38  1  0  0  0  0
 17 39  1  0  0  0  0
 17 40  1  0  0  0  0
 18 19  1  0  0  0  0
 18 41  1  0  0  0  0
M  END
> <s_m_source_file>
AV-unprocessed.smi

> <i_m_source_file_index>
1099

> <i_lp_mmshare_version>
43012

> <i_f3d_flags>
0

> <s_epik_input>
W0NIM11bQ0gyXWMxbmMoW2NIXXMxKVtDSDJdW0NIMl1bTkhdQyg9TylbQ0BIXShbQ0gyXVtDQEBIXTIzKVtDQEBIXShbQ0gyXTMpW0NIMl1bQ0gyXTI=

> <s_epik_cmdline>
J2VwaWtfcHl0aG9uJywgJy1waCcsICc3LjAnLCAnLXRuJywgJzgnLCAnLW1hJywgJzIwMCcsICctbWV0YWxfYmluZGluZycsICctaW1hZScsICc8aW5maWxlLm1hZT4nLCAnLW9tYWUnLCAnPG91dGZpbGUubWFlPic=

> <r_epik_Ionization_Penalty>
0.00110131

> <r_epik_Ionization_Penalty_Charging>
0

> <r_epik_Ionization_Penalty_Neutral>
0.00110131

> <r_epik_State_Penalty>
0.00072257

> <r_epik_Charging_Adjusted_Penalty>
0.00072257

> <i_epik_Tot_Q>
0

> <i_epik_Tot_abs_Q>
0

> <r_epik_Metal_State_Penalty>
-0

> <b_epik_Metal_Only>
0

> <s_lp_Force_Field>
OPLS_2005

> <r_lp_Energy>
37.6271

> <b_lp_Chiralities_Consistent>
1

> <s_lp_Variant>
AV-unprocessed.smi:1099-1

> <Gold.Version>
5.8.1

> <Gold.Id.Protein>
6NUR|6NUR_protein|mol2

> <Gold.PLP.Fitness>
41.5286

> <Gold.PLP.PLP>
-36.4509

> <Gold.PLP.part.hbond>
-1.0000

> <Gold.PLP.part.metal>
0.0000

> <Gold.PLP.part.buried>
-2.1859

> <Gold.PLP.part.nonpolar>
-32.6054

> <Gold.PLP.part.repulsive>
0.3340

> <Gold.PLP.ligand.clash>
0.0000

> <Gold.PLP.ligand.torsion>
0.4847

> <Gold.PLP.Chemscore.Hbond>
1.0000

> <Gold.PLP.Chemscore.CHOScore>
1.0000

> <Gold.PLP.Chemscore.Metal>
0.0000

> <Gold.Chemscore.Hbonds>
donor molecule, donor type, donor heavy atom, donor atom, acceptor molecule, acceptor atom, score
      L1  H     8    29       P1  7948  1.00
      L1  C    18    41       P1  7948  1.00

> <Gold.PLP.Chemscore.Internal.Correction>
0.0471

> <Gold.Rescore>
     Score         DG    S(hbond)    S(metal)    S(lipo)     H(rot)  DE(clash)    DE(int)     intcor
     15.73     -16.49       1.00        0.00      96.59       1.42       0.05       0.70       ----

> <Gold.Chemscore.Fitness>
15.7347

> <Gold.Chemscore.DG>
-16.4939

> <Gold.Chemscore.ZeroCoef>
-5.4800

> <Gold.Chemscore.Hbond>
0.9999

> <Gold.Chemscore.Metal>
0.0000

> <Gold.Chemscore.Lipo>
96.5863

> <Gold.Chemscore.Internal_Hbond>
0.0000

> <Gold.Chemscore.DEClash>
0.0543

> <Gold.Chemscore.DEInternal>
0.7049

> <Gold.Chemscore.Rot>
1.4165

> <Gold.Chemscore.Internal.Correction>
   9.000000E+99

> <Gold.Chemscore.Hbonds>
donor molecule, donor type, donor heavy atom, donor atom, acceptor molecule, acceptor atom, score
      L1  H     8    29       P1  7948  1.00

> <Gold.Chemscore.Hbond.Weighted>
-3.3395

> <Gold.Chemscore.Metal.Weighted>
-0.0000

> <Gold.Chemscore.Lipo.Weighted>
-11.3006

> <Gold.Chemscore.Internal_Hbond.Weighted>
0.0000

> <Gold.Chemscore.DEClash.Weighted>
0.0543

> <Gold.Chemscore.DEInternal.Weighted>
0.7049

> <Gold.Chemscore.Rot.Weighted>
3.6262

> <Gold.Chemscore.Internal.Correction.Weighted>
   9.000000E+99

> <Gold.Protein.RotatedTorsions>
[ 6907 6896 6895 6894 ] final  -33.06 input  -60.11 | X-H torsion
[ 7974 7965 7964 7962 ] final -104.06 input  175.53 | X-H torsion
[ 8008 7997 7996 7995 ] final  162.31 input   59.86 | X-H torsion
[ 10167 10162 10161 10158 ] final  165.07 input  -65.29 | X-H torsion
[ 10718 10713 10712 10709 ] final  -22.77 input   66.30 | X-H torsion
[ 10763 10752 10751 10750 ] final  119.00 input  -60.55 | X-H torsion
[ 11005 11000 10999 10996 ] final -159.37 input  -57.11 | X-H torsion

> <Gold.Protein.ActiveResidues>
 VAL166  LYS551  ARG553  GLY616  TRP617  ASP618  TYR619  PRO620  LYS621  CYS622 
 ASP623  PHE694  ASN695  SER759  ASP760  ASP761  ALA762  ILE779  LEU786  VAL792 
 PHE793  MET794  SER795  GLU796  ALA797  LYS798  CYS799  TRP800  GLU811  SER814 

> <Gold.Protein.RotatedAtoms>
  151.0705  134.9795  159.8306 H   0  0  0  0  0  0  0  0  0  0  0  0  # atno 6907 bound_to 6896
  152.5408  134.2304  159.8833 H   0  0  0  0  0  0  0  0  0  0  0  0  # atno 6908 bound_to 6896
  151.2329  133.4397  159.2638 H   0  0  0  0  0  0  0  0  0  0  0  0  # atno 6909 bound_to 6896
  145.2479  140.9228  143.3112 H   0  0  0  0  0  0  0  0  0  0  0  0  # atno 7974 bound_to 7965
  156.2041  140.1754  156.7838 H   0  0  0  0  0  0  0  0  0  0  0  0  # atno 8008 bound_to 7997
  154.5631  140.0696  156.8880 H   0  0  0  0  0  0  0  0  0  0  0  0  # atno 8009 bound_to 7997
  155.2812  140.3349  155.4260 H   0  0  0  0  0  0  0  0  0  0  0  0  # atno 8010 bound_to 7997
  139.4899  144.4169  151.9232 H   0  0  0  0  0  0  0  0  0  0  0  0  # atno 10167 bound_to 10162
  156.5000  130.4586  149.6706 H   0  0  0  0  0  0  0  0  0  0  0  0  # atno 10718 bound_to 10713
  153.5764  135.3492  155.2858 H   0  0  0  0  0  0  0  0  0  0  0  0  # atno 10763 bound_to 10752
  154.8674  135.4171  154.2669 H   0  0  0  0  0  0  0  0  0  0  0  0  # atno 10764 bound_to 10752
  153.3446  135.7052  153.6909 H   0  0  0  0  0  0  0  0  0  0  0  0  # atno 10765 bound_to 10752
  140.6434  134.4527  157.5234 H   0  0  0  0  0  0  0  0  0  0  0  0  # atno 11005 bound_to 11000
  144.9529  139.4063  143.6393 LP  0  0  0  0  0  0  0  0  0  0  0  0  # atno 17320 bound_to 7965
  146.3310  139.8546  142.8867 LP  0  0  0  0  0  0  0  0  0  0  0  0  # atno 17321 bound_to 7965
  140.3612  144.2970  150.5933 LP  0  0  0  0  0  0  0  0  0  0  0  0  # atno 17342 bound_to 10162
  140.5401  143.2225  151.8099 LP  0  0  0  0  0  0  0  0  0  0  0  0  # atno 17343 bound_to 10162
  156.3342  130.7347  151.2282 LP  0  0  0  0  0  0  0  0  0  0  0  0  # atno 17370 bound_to 10713
  157.7464  131.0421  150.4681 LP  0  0  0  0  0  0  0  0  0  0  0  0  # atno 17371 bound_to 10713
  139.9072  134.8423  156.1662 LP  0  0  0  0  0  0  0  0  0  0  0  0  # atno 17394 bound_to 11000
  141.0590  133.6851  156.1916 LP  0  0  0  0  0  0  0  0  0  0  0  0  # atno 17395 bound_to 11000

$$$$
