AV-unprocessed.smi:529|AV-procd|sdf|2839|dock7
  -GOLD-   2262023333D 1   1.00000     0.00000
 Structure written by MMmdl.
 31 32  0  0  0  0  0  0  0  0  2 V2000
  149.6370  138.5534  153.7140 N   0  0  0  0  0  0  0  0  0  0  0  0
  148.7330  139.5320  153.8033 C   0  0  0  0  0  0  0  0  0  0  0  0
  147.1312  139.4601  153.1320 S   0  0  0  0  0  0  0  0  0  0  0  0
  146.8012  141.0605  153.7235 C   0  0  0  0  0  0  0  0  0  0  0  0
  147.8796  141.5814  154.3885 C   0  0  0  0  0  0  0  0  0  0  0  0
  148.9634  140.7063  154.4275 N   0  3  0  0  0  0  0  0  0  0  0  0
  150.2418  141.0440  155.0808 C   0  0  0  0  0  0  0  0  0  0  0  0
  150.0348  141.4998  156.5279 C   0  0  0  0  0  0  0  0  0  0  0  0
  148.9182  141.4344  157.0418 O   0  0  0  0  0  0  0  0  0  0  0  0
  151.1169  141.9702  157.1664 N   0  0  0  0  0  0  0  0  0  0  0  0
  151.1269  142.4843  158.5332 C   0  0  0  0  0  0  0  0  0  0  0  0
  150.2913  143.7741  158.6386 C   0  0  0  0  0  0  0  0  0  0  0  0
  151.1502  144.7701  159.4190 C   0  0  0  0  0  0  0  0  0  0  0  0
  152.5839  144.3843  159.0689 C   0  0  0  0  0  0  0  0  0  0  0  0
  152.5521  142.8573  158.9884 C   0  0  0  0  0  0  0  0  0  0  0  0
  150.5609  138.6328  154.1134 H   0  0  0  0  0  0  0  0  0  0  0  0
  145.8399  141.5191  153.5441 H   0  0  0  0  0  0  0  0  0  0  0  0
  147.9797  142.5495  154.8586 H   0  0  0  0  0  0  0  0  0  0  0  0
  150.8771  140.1573  155.0737 H   0  0  0  0  0  0  0  0  0  0  0  0
  150.7557  141.8033  154.4888 H   0  0  0  0  0  0  0  0  0  0  0  0
  151.9978  141.9762  156.6726 H   0  0  0  0  0  0  0  0  0  0  0  0
  150.7159  141.7335  159.2109 H   0  0  0  0  0  0  0  0  0  0  0  0
  150.0889  144.1842  157.6478 H   0  0  0  0  0  0  0  0  0  0  0  0
  149.3270  143.6033  159.1183 H   0  0  0  0  0  0  0  0  0  0  0  0
  150.9208  145.8070  159.1720 H   0  0  0  0  0  0  0  0  0  0  0  0
  150.9865  144.6381  160.4896 H   0  0  0  0  0  0  0  0  0  0  0  0
  152.8486  144.7993  158.0954 H   0  0  0  0  0  0  0  0  0  0  0  0
  153.3081  144.7518  159.7964 H   0  0  0  0  0  0  0  0  0  0  0  0
  152.7302  142.4411  159.9809 H   0  0  0  0  0  0  0  0  0  0  0  0
  153.3345  142.4678  158.3354 H   0  0  0  0  0  0  0  0  0  0  0  0
  149.4549  137.6938  153.2157 H   0  0  0  0  0  0  0  0  0  0  0  0
  1  2  1  0  0  0  0
  1 16  1  0  0  0  0
  1 31  1  0  0  0  0
  2  6  2  0  0  0  0
  2  3  1  0  0  0  0
  3  4  1  0  0  0  0
  4  5  2  0  0  0  0
  4 17  1  0  0  0  0
  5  6  1  0  0  0  0
  5 18  1  0  0  0  0
  6  7  1  0  0  0  0
  7  8  1  0  0  0  0
  7 19  1  0  0  0  0
  7 20  1  0  0  0  0
  8  9  2  0  0  0  0
  8 10  1  0  0  0  0
 10 11  1  0  0  0  0
 10 21  1  0  0  0  0
 11 15  1  0  0  0  0
 11 12  1  0  0  0  0
 11 22  1  0  0  0  0
 12 13  1  0  0  0  0
 12 23  1  0  0  0  0
 12 24  1  0  0  0  0
 13 14  1  0  0  0  0
 13 25  1  0  0  0  0
 13 26  1  0  0  0  0
 14 15  1  0  0  0  0
 14 27  1  0  0  0  0
 14 28  1  0  0  0  0
 15 29  1  0  0  0  0
 15 30  1  0  0  0  0
M  CHG  1   6   1
M  END
> <s_m_source_file>
AV-unprocessed.smi

> <i_m_source_file_index>
529

> <i_lp_mmshare_version>
43012

> <i_f3d_flags>
0

> <s_epik_input>
W0hdL049YzFcc1tjSF1bY0hdbjFbQ0gyXUMoPU8pW05IXVtDSF0yW0NIMl1bQ0gyXVtDSDJdW0NIMl0y

> <s_epik_cmdline>
J2VwaWtfcHl0aG9uJywgJy1waCcsICc3LjAnLCAnLXRuJywgJzgnLCAnLW1hJywgJzIwMCcsICctbWV0YWxfYmluZGluZycsICctaW1hZScsICc8aW5maWxlLm1hZT4nLCAnLW9tYWUnLCAnPG91dGZpbGUubWFlPic=

> <r_lp_tautomer_probability>
1

> <r_epik_Ionization_Penalty>
0.0151346

> <r_epik_Ionization_Penalty_Charging>
0

> <r_epik_Ionization_Penalty_Neutral>
0.0151346

> <r_epik_State_Penalty>
0.0235202

> <r_epik_Charging_Adjusted_Penalty>
0.0235202

> <i_epik_Tot_Q>
1

> <i_epik_Tot_abs_Q>
1

> <r_epik_Metal_State_Penalty>
0.0235202

> <b_epik_Metal_Only>
0

> <s_lp_Force_Field>
OPLS_2005

> <r_lp_Energy>
21.8229

> <b_lp_Chiralities_Consistent>
1

> <s_lp_Variant>
AV-unprocessed.smi:529-1

> <Gold.Version>
5.8.1

> <Gold.Id.Protein>
6NUR|6NUR_protein|mol2

> <Gold.PLP.Fitness>
40.7210

> <Gold.PLP.PLP>
-31.9503

> <Gold.PLP.part.hbond>
-2.0000

> <Gold.PLP.part.metal>
0.0000

> <Gold.PLP.part.buried>
-0.7763

> <Gold.PLP.part.nonpolar>
-30.3175

> <Gold.PLP.part.repulsive>
0.2130

> <Gold.PLP.ligand.clash>
0.0000

> <Gold.PLP.ligand.torsion>
0.1161

> <Gold.PLP.Chemscore.Hbond>
2.0000

> <Gold.PLP.Chemscore.CHOScore>
1.0000

> <Gold.PLP.Chemscore.Metal>
0.0000

> <Gold.Chemscore.Hbonds>
donor molecule, donor type, donor heavy atom, donor atom, acceptor molecule, acceptor atom, score
      L1  H     1    31       P1  7948  2.00
      L1  C     4    17       P1 10175  0.73

> <Gold.PLP.Chemscore.Internal.Correction>
0.0029

> <Gold.Rescore>
     Score         DG    S(hbond)    S(metal)    S(lipo)     H(rot)  DE(clash)    DE(int)     intcor
     12.47     -14.07       0.96        0.00      81.23       1.61       0.09       1.51       ----

> <Gold.Chemscore.Fitness>
12.4666

> <Gold.Chemscore.DG>
-14.0678

> <Gold.Chemscore.ZeroCoef>
-5.4800

> <Gold.Chemscore.Hbond>
0.9589

> <Gold.Chemscore.Metal>
0.0000

> <Gold.Chemscore.Lipo>
81.2287

> <Gold.Chemscore.Internal_Hbond>
0.0000

> <Gold.Chemscore.DEClash>
0.0947

> <Gold.Chemscore.DEInternal>
1.5065

> <Gold.Chemscore.Rot>
1.6089

> <Gold.Chemscore.Internal.Correction>
   9.000000E+99

> <Gold.Chemscore.Hbonds>
donor molecule, donor type, donor heavy atom, donor atom, acceptor molecule, acceptor atom, score
      L1  H     1    31       P1  7948  0.88

> <Gold.Chemscore.Hbond.Weighted>
-3.2029

> <Gold.Chemscore.Metal.Weighted>
-0.0000

> <Gold.Chemscore.Lipo.Weighted>
-9.5038

> <Gold.Chemscore.Internal_Hbond.Weighted>
0.0000

> <Gold.Chemscore.DEClash.Weighted>
0.0947

> <Gold.Chemscore.DEInternal.Weighted>
1.5065

> <Gold.Chemscore.Rot.Weighted>
4.1188

> <Gold.Chemscore.Internal.Correction.Weighted>
   9.000000E+99

> <Gold.Protein.RotatedTorsions>
[ 6907 6896 6895 6894 ] final  -47.48 input  -60.11 | X-H torsion
[ 7974 7965 7964 7962 ] final  -80.24 input  175.53 | X-H torsion
[ 8008 7997 7996 7995 ] final  125.29 input   59.86 | X-H torsion
[ 10167 10162 10161 10158 ] final  -85.59 input  -65.29 | X-H torsion
[ 10718 10713 10712 10709 ] final  -92.69 input   66.30 | X-H torsion
[ 10763 10752 10751 10750 ] final  151.76 input  -60.55 | X-H torsion
[ 11005 11000 10999 10996 ] final  111.74 input  -57.11 | X-H torsion

> <Gold.Protein.ActiveResidues>
 VAL166  LYS551  ARG553  GLY616  TRP617  ASP618  TYR619  PRO620  LYS621  CYS622 
 ASP623  PHE694  ASN695  SER759  ASP760  ASP761  ALA762  ILE779  LEU786  VAL792 
 PHE793  MET794  SER795  GLU796  ALA797  LYS798  CYS799  TRP800  GLU811  SER814 

> <Gold.Protein.RotatedAtoms>
  150.9004  134.8415  159.7355 H   0  0  0  0  0  0  0  0  0  0  0  0  # atno 6907 bound_to 6896
  152.4889  134.4511  159.9585 H   0  0  0  0  0  0  0  0  0  0  0  0  # atno 6908 bound_to 6896
  151.4564  133.3565  159.2838 H   0  0  0  0  0  0  0  0  0  0  0  0  # atno 6909 bound_to 6896
  145.5625  140.9479  143.1439 H   0  0  0  0  0  0  0  0  0  0  0  0  # atno 7974 bound_to 7965
  156.2829  140.2720  156.1925 H   0  0  0  0  0  0  0  0  0  0  0  0  # atno 8008 bound_to 7997
  155.0444  140.0386  157.2539 H   0  0  0  0  0  0  0  0  0  0  0  0  # atno 8009 bound_to 7997
  154.7247  140.2695  155.6514 H   0  0  0  0  0  0  0  0  0  0  0  0  # atno 8010 bound_to 7997
  140.4022  143.2658  151.9127 H   0  0  0  0  0  0  0  0  0  0  0  0  # atno 10167 bound_to 10162
  156.0005  130.4997  150.5663 H   0  0  0  0  0  0  0  0  0  0  0  0  # atno 10718 bound_to 10713
  154.1090  135.2840  155.3235 H   0  0  0  0  0  0  0  0  0  0  0  0  # atno 10763 bound_to 10752
  154.6503  135.5371  153.7897 H   0  0  0  0  0  0  0  0  0  0  0  0  # atno 10764 bound_to 10752
  153.0352  135.6508  154.1250 H   0  0  0  0  0  0  0  0  0  0  0  0  # atno 10765 bound_to 10752
  139.8910  134.9514  156.6478 H   0  0  0  0  0  0  0  0  0  0  0  0  # atno 11005 bound_to 11000
  144.7476  139.7279  143.7286 LP  0  0  0  0  0  0  0  0  0  0  0  0  # atno 17320 bound_to 7965
  146.1841  139.5047  142.9847 LP  0  0  0  0  0  0  0  0  0  0  0  0  # atno 17321 bound_to 7965
  139.4784  144.5622  151.8222 LP  0  0  0  0  0  0  0  0  0  0  0  0  # atno 17342 bound_to 10162
  140.4727  144.1563  150.5920 LP  0  0  0  0  0  0  0  0  0  0  0  0  # atno 17343 bound_to 10162
  157.3565  131.0742  151.1671 LP  0  0  0  0  0  0  0  0  0  0  0  0  # atno 17370 bound_to 10713
  157.2470  130.6596  149.5914 LP  0  0  0  0  0  0  0  0  0  0  0  0  # atno 17371 bound_to 10713
  140.7544  133.8870  155.8371 LP  0  0  0  0  0  0  0  0  0  0  0  0  # atno 17394 bound_to 11000
  140.9974  134.1196  157.4350 LP  0  0  0  0  0  0  0  0  0  0  0  0  # atno 17395 bound_to 11000

$$$$
