AV-unprocessed.smi:1645|AV-procd|sdf|6603|dock1
  -GOLD-   22720 7303D 1   1.00000     0.00000
 Structure written by MMmdl.
 55 58  0  0  0  0  0  0  0  0  2 V2000
  149.2590  135.1069  156.1800 O   0  0  0  0  0  0  0  0  0  0  0  0
  149.1831  135.4896  155.0128 C   0  0  0  0  0  0  0  0  0  0  0  0
  149.4659  136.7289  154.5769 N   0  0  0  0  0  0  0  0  0  0  0  0
  149.9457  137.8424  155.3186 C   0  0  0  0  0  0  0  0  0  0  0  0
  150.0880  137.8659  156.7256 C   0  0  0  0  0  0  0  0  0  0  0  0
  150.5962  139.0262  157.3401 C   0  0  0  0  0  0  0  0  0  0  0  0
  150.9589  140.1336  156.5380 C   0  0  0  0  0  0  0  0  0  0  0  0
  151.4733  141.3040  157.1366 N   0  0  0  0  0  0  0  0  0  0  0  0
  150.7608  142.5399  156.8051 C   0  0  0  0  0  0  0  0  0  0  0  0
  151.6044  143.7783  157.1534 C   0  0  0  0  0  0  0  0  0  0  0  0
  152.0653  143.7388  158.6179 C   0  0  0  0  0  0  0  0  0  0  0  0
  152.8075  142.4243  158.8999 C   0  0  0  0  0  0  0  0  0  0  0  0
  151.9442  141.2088  158.5208 C   0  0  0  0  0  0  0  0  0  0  0  0
  150.8268  140.1048  155.1891 N   0  0  0  0  0  0  0  0  0  0  0  0
  150.3411  138.9904  154.6041 C   0  0  0  0  0  0  0  0  0  0  0  0
  148.7867  134.6990  154.0056 N   0  0  0  0  0  0  0  0  0  0  0  0
  148.3956  133.2988  154.1528 C   0  0  1  0  0  0  0  0  0  0  0  0
  147.2226  133.0930  155.1209 C   0  0  0  0  0  0  0  0  0  0  0  0
  146.4686  131.8640  154.5817 C   0  0  0  0  0  0  0  0  0  0  0  0
  147.1853  131.4464  153.3558 N   0  3  1  0  0  0  0  0  0  0  0  0
  146.3936  130.6941  152.3491 C   0  0  0  0  0  0  0  0  0  0  0  0
  145.4966  131.6069  151.4962 C   0  0  0  0  0  0  0  0  0  0  0  0
  146.3176  132.7354  150.8641 C   0  0  0  0  0  0  0  0  0  0  0  0
  147.0233  133.5358  151.9637 C   0  0  0  0  0  0  0  0  0  0  0  0
  147.9155  132.6308  152.8523 C   0  0  1  0  0  0  0  0  0  0  0  0
  149.2746  136.9120  153.6027 H   0  0  0  0  0  0  0  0  0  0  0  0
  149.8313  137.0208  157.3446 H   0  0  0  0  0  0  0  0  0  0  0  0
  150.6932  139.0573  158.4150 H   0  0  0  0  0  0  0  0  0  0  0  0
  150.4920  142.5809  155.7504 H   0  0  0  0  0  0  0  0  0  0  0  0
  149.8250  142.5603  157.3651 H   0  0  0  0  0  0  0  0  0  0  0  0
  152.4747  143.8224  156.4971 H   0  0  0  0  0  0  0  0  0  0  0  0
  151.0292  144.6855  156.9667 H   0  0  0  0  0  0  0  0  0  0  0  0
  152.7112  144.5903  158.8340 H   0  0  0  0  0  0  0  0  0  0  0  0
  151.2017  143.8239  159.2786 H   0  0  0  0  0  0  0  0  0  0  0  0
  153.7373  142.4017  158.3299 H   0  0  0  0  0  0  0  0  0  0  0  0
  153.0870  142.3696  159.9522 H   0  0  0  0  0  0  0  0  0  0  0  0
  151.0837  141.1400  159.1877 H   0  0  0  0  0  0  0  0  0  0  0  0
  152.5318  140.2999  158.6563 H   0  0  0  0  0  0  0  0  0  0  0  0
  150.2630  139.0201  153.5270 H   0  0  0  0  0  0  0  0  0  0  0  0
  148.7465  135.0926  153.0766 H   0  0  0  0  0  0  0  0  0  0  0  0
  149.2483  132.7349  154.5373 H   0  0  0  0  0  0  0  0  0  0  0  0
  147.5685  132.9467  156.1447 H   0  0  0  0  0  0  0  0  0  0  0  0
  146.5585  133.9587  155.1195 H   0  0  0  0  0  0  0  0  0  0  0  0
  146.4535  131.0458  155.3021 H   0  0  0  0  0  0  0  0  0  0  0  0
  145.4349  132.1305  154.3590 H   0  0  0  0  0  0  0  0  0  0  0  0
  147.0949  130.1723  151.6967 H   0  0  0  0  0  0  0  0  0  0  0  0
  145.8016  129.9241  152.8453 H   0  0  0  0  0  0  0  0  0  0  0  0
  145.0087  131.0212  150.7166 H   0  0  0  0  0  0  0  0  0  0  0  0
  144.6981  132.0288  152.1071 H   0  0  0  0  0  0  0  0  0  0  0  0
  147.0530  132.3221  150.1725 H   0  0  0  0  0  0  0  0  0  0  0  0
  145.6699  133.3901  150.2802 H   0  0  0  0  0  0  0  0  0  0  0  0
  147.6234  134.3238  151.5077 H   0  0  0  0  0  0  0  0  0  0  0  0
  146.2706  134.0388  152.5722 H   0  0  0  0  0  0  0  0  0  0  0  0
  148.7682  132.2914  152.2620 H   0  0  0  0  0  0  0  0  0  0  0  0
  147.9005  130.8115  153.6812 H   0  0  0  0  0  0  0  0  0  0  0  0
  1  2  2  0  0  0  0
  2  3  1  0  0  0  0
  2 16  1  0  0  0  0
  3  4  1  0  0  0  0
  3 26  1  0  0  0  0
  4 15  1  0  0  0  0
  4  5  2  0  0  0  0
  5  6  1  0  0  0  0
  5 27  1  0  0  0  0
  6  7  2  0  0  0  0
  6 28  1  0  0  0  0
  7  8  1  0  0  0  0
  7 14  1  0  0  0  0
  8 13  1  0  0  0  0
  8  9  1  0  0  0  0
  9 10  1  0  0  0  0
  9 29  1  0  0  0  0
  9 30  1  0  0  0  0
 10 11  1  0  0  0  0
 10 31  1  0  0  0  0
 10 32  1  0  0  0  0
 11 12  1  0  0  0  0
 11 33  1  0  0  0  0
 11 34  1  0  0  0  0
 12 13  1  0  0  0  0
 12 35  1  0  0  0  0
 12 36  1  0  0  0  0
 13 37  1  0  0  0  0
 13 38  1  0  0  0  0
 14 15  2  0  0  0  0
 15 39  1  0  0  0  0
 16 17  1  0  0  0  0
 16 40  1  0  0  0  0
 17 25  1  0  0  0  0
 17 18  1  0  0  0  0
 17 41  1  0  0  0  0
 18 19  1  0  0  0  0
 18 42  1  0  0  0  0
 18 43  1  0  0  0  0
 19 20  1  0  0  0  0
 19 44  1  0  0  0  0
 19 45  1  0  0  0  0
 20 25  1  0  0  0  0
 20 21  1  0  0  0  0
 20 55  1  0  0  0  0
 21 22  1  0  0  0  0
 21 46  1  0  0  0  0
 21 47  1  0  0  0  0
 22 23  1  0  0  0  0
 22 48  1  0  0  0  0
 22 49  1  0  0  0  0
 23 24  1  0  0  0  0
 23 50  1  0  0  0  0
 23 51  1  0  0  0  0
 24 25  1  0  0  0  0
 24 52  1  0  0  0  0
 24 53  1  0  0  0  0
 25 54  1  0  0  0  0
M  CHG  1  20   1
M  END
> <s_m_source_file>
AV-unprocessed.smi

> <i_m_source_file_index>
1645

> <i_lp_mmshare_version>
43012

> <i_f3d_flags>
0

> <s_epik_input>
W0NIMl0xW0NIMl1bQ0gyXVtDSDJdW0NASF0oTjEyKVtDQEBIXShbQ0gyXVtDSDJdMilbTkhdQyg9TylbTkhdYzNbY0hdW2NIXWMobltjSF0zKU40W0NIMl1bQ0gyXVtDSDJdW0NIMl1bQ0gyXTQ=

> <s_epik_cmdline>
J2VwaWtfcHl0aG9uJywgJy1waCcsICc3LjAnLCAnLXRuJywgJzgnLCAnLW1hJywgJzIwMCcsICctbWV0YWxfYmluZGluZycsICctaW1hZScsICc8aW5maWxlLm1hZT4nLCAnLW9tYWUnLCAnPG91dGZpbGUubWFlPic=

> <r_lp_tautomer_probability>
1

> <r_epik_Ionization_Penalty>
0.0808019

> <r_epik_Ionization_Penalty_Charging>
0.000974069

> <r_epik_Ionization_Penalty_Neutral>
0.0798278

> <r_epik_State_Penalty>
0.0653665

> <r_epik_Charging_Adjusted_Penalty>
0.0663406

> <i_epik_Tot_Q>
1

> <i_epik_Tot_abs_Q>
1

> <r_epik_Metal_State_Penalty>
0.0585673

> <b_epik_Metal_Only>
0

> <s_lp_Force_Field>
OPLS_2005

> <r_lp_Energy>
52.8365

> <b_lp_Chiralities_Consistent>
1

> <s_lp_Variant>
AV-unprocessed.smi:1645-4

> <Gold.Version>
5.8.1

> <Gold.Id.Protein>
6NUR|6NUR_protein|mol2

> <Gold.PLP.Fitness>
49.0906

> <Gold.PLP.PLP>
-38.7008

> <Gold.PLP.part.hbond>
-3.0000

> <Gold.PLP.part.metal>
0.0000

> <Gold.PLP.part.buried>
-2.3012

> <Gold.PLP.part.nonpolar>
-33.1399

> <Gold.PLP.part.repulsive>
0.1072

> <Gold.PLP.ligand.clash>
0.0000

> <Gold.PLP.ligand.torsion>
0.2494

> <Gold.PLP.Chemscore.Hbond>
2.7760

> <Gold.PLP.Chemscore.CHOScore>
0.7151

> <Gold.PLP.Chemscore.Metal>
0.0000

> <Gold.Chemscore.Hbonds>
donor molecule, donor type, donor heavy atom, donor atom, acceptor molecule, acceptor atom, score
      L1  H     3    26       P1  7948  0.98
      L1  H    16    40       P1  7948  1.00
      P1  H  7989  7998       L1    14  0.80
      L1  C    15    39       P1  7957  0.71

> <Gold.PLP.Chemscore.Internal.Correction>
0.4154

> <Gold.Rescore>
     Score         DG    S(hbond)    S(metal)    S(lipo)     H(rot)  DE(clash)    DE(int)     intcor
     19.61     -21.08       1.62        0.00     112.78       1.17       0.01       1.46       ----

> <Gold.Chemscore.Fitness>
19.6071

> <Gold.Chemscore.DG>
-21.0781

> <Gold.Chemscore.ZeroCoef>
-5.4800

> <Gold.Chemscore.Hbond>
1.6186

> <Gold.Chemscore.Metal>
0.0000

> <Gold.Chemscore.Lipo>
112.7798

> <Gold.Chemscore.Internal_Hbond>
0.0000

> <Gold.Chemscore.DEClash>
0.0069

> <Gold.Chemscore.DEInternal>
1.4640

> <Gold.Chemscore.Rot>
1.1731

> <Gold.Chemscore.Internal.Correction>
   9.000000E+99

> <Gold.Chemscore.Hbonds>
donor molecule, donor type, donor heavy atom, donor atom, acceptor molecule, acceptor atom, score
      L1  H     3    26       P1  7948  0.90
      L1  H    16    40       P1  7948  0.50
      P1  H  7989  7998       L1    14  0.11

> <Gold.Chemscore.Hbond.Weighted>
-5.4061

> <Gold.Chemscore.Metal.Weighted>
-0.0000

> <Gold.Chemscore.Lipo.Weighted>
-13.1952

> <Gold.Chemscore.Internal_Hbond.Weighted>
0.0000

> <Gold.Chemscore.DEClash.Weighted>
0.0069

> <Gold.Chemscore.DEInternal.Weighted>
1.4640

> <Gold.Chemscore.Rot.Weighted>
3.0032

> <Gold.Chemscore.Internal.Correction.Weighted>
   9.000000E+99

> <Gold.Protein.RotatedTorsions>
[ 6907 6896 6895 6894 ] final  114.41 input  -60.11 | X-H torsion
[ 7974 7965 7964 7962 ] final   36.73 input  175.53 | X-H torsion
[ 8008 7997 7996 7995 ] final -170.51 input   59.86 | X-H torsion
[ 10167 10162 10161 10158 ] final -171.03 input  -65.29 | X-H torsion
[ 10718 10713 10712 10709 ] final   22.27 input   66.30 | X-H torsion
[ 10763 10752 10751 10750 ] final  -12.86 input  -60.55 | X-H torsion
[ 11005 11000 10999 10996 ] final -166.07 input  -57.11 | X-H torsion

> <Gold.Protein.ActiveResidues>
 VAL166  LYS551  ARG553  GLY616  TRP617  ASP618  TYR619  PRO620  LYS621  CYS622 
 ASP623  PHE694  ASN695  SER759  ASP760  ASP761  ALA762  ILE779  LEU786  VAL792 
 PHE793  MET794  SER795  GLU796  ALA797  LYS798  CYS799  TRP800  GLU811  SER814 

> <Gold.Protein.RotatedAtoms>
  152.4804  133.8240  159.7067 H   0  0  0  0  0  0  0  0  0  0  0  0  # atno 6907 bound_to 6896
  150.8849  133.7311  159.2928 H   0  0  0  0  0  0  0  0  0  0  0  0  # atno 6908 bound_to 6896
  151.4803  135.1055  159.9828 H   0  0  0  0  0  0  0  0  0  0  0  0  # atno 6909 bound_to 6896
  146.1190  139.5981  142.9302 H   0  0  0  0  0  0  0  0  0  0  0  0  # atno 7974 bound_to 7965
  155.9193  140.1071  157.1219 H   0  0  0  0  0  0  0  0  0  0  0  0  # atno 8008 bound_to 7997
  154.4051  140.1259  156.4723 H   0  0  0  0  0  0  0  0  0  0  0  0  # atno 8009 bound_to 7997
  155.7216  140.3469  155.5021 H   0  0  0  0  0  0  0  0  0  0  0  0  # atno 8010 bound_to 7997
  139.5826  144.1389  152.1535 H   0  0  0  0  0  0  0  0  0  0  0  0  # atno 10167 bound_to 10162
  157.1500  130.6670  149.6009 H   0  0  0  0  0  0  0  0  0  0  0  0  # atno 10718 bound_to 10713
  153.5048  135.7017  153.5812 H   0  0  0  0  0  0  0  0  0  0  0  0  # atno 10763 bound_to 10752
  153.3928  135.3891  155.1935 H   0  0  0  0  0  0  0  0  0  0  0  0  # atno 10764 bound_to 10752
  154.8708  135.3862  154.4522 H   0  0  0  0  0  0  0  0  0  0  0  0  # atno 10765 bound_to 10752
  140.5686  134.5260  157.5157 H   0  0  0  0  0  0  0  0  0  0  0  0  # atno 11005 bound_to 11000
  145.5507  141.0413  143.2280 LP  0  0  0  0  0  0  0  0  0  0  0  0  # atno 17320 bound_to 7965
  144.7579  139.7028  143.7246 LP  0  0  0  0  0  0  0  0  0  0  0  0  # atno 17321 bound_to 7965
  140.0946  144.5592  150.7031 LP  0  0  0  0  0  0  0  0  0  0  0  0  # atno 17342 bound_to 10162
  140.7102  143.2499  151.4603 LP  0  0  0  0  0  0  0  0  0  0  0  0  # atno 17343 bound_to 10162
  155.9772  130.4748  150.6579 LP  0  0  0  0  0  0  0  0  0  0  0  0  # atno 17370 bound_to 10713
  157.4229  131.0839  151.1114 LP  0  0  0  0  0  0  0  0  0  0  0  0  # atno 17371 bound_to 10713
  139.9372  134.7852  156.0771 LP  0  0  0  0  0  0  0  0  0  0  0  0  # atno 17394 bound_to 11000
  141.1070  133.6656  156.2887 LP  0  0  0  0  0  0  0  0  0  0  0  0  # atno 17395 bound_to 11000

$$$$
