AV-unprocessed.smi:2739|AV-procd|sdf|10551|dock2
  -GOLD-   2272015 03D 1   1.00000     0.00000
 Structure written by MMmdl.
 35 35  0  0  0  0  0  0  0  0  1 V2000
  152.0411  144.6125  158.3428 C   0  0  0  0  0  0  0  0  0  0  0  0
  152.3109  144.0510  159.7463 C   0  0  0  0  0  0  0  0  0  0  0  0
  152.8489  142.6029  159.7482 C   0  0  1  0  0  0  0  0  0  0  0  0
  153.4206  142.1907  161.1163 C   0  0  0  0  0  0  0  0  0  0  0  0
  151.8705  141.6278  159.2598 N   0  0  0  0  0  0  0  0  0  0  0  0
  152.0974  140.5712  158.4598 C   0  0  0  0  0  0  0  0  0  0  0  0
  153.2079  140.2585  158.0320 O   0  0  0  0  0  0  0  0  0  0  0  0
  150.8741  139.7373  158.0790 C   0  0  0  0  0  0  0  0  0  0  0  0
  150.6599  139.7558  156.6433 N   0  0  0  0  0  0  0  0  0  0  0  0
  151.4552  139.2227  155.6518 C   0  0  0  0  0  0  0  0  0  0  0  0
  150.8520  139.4961  154.4582 C   0  0  0  0  0  0  0  0  0  0  0  0
  149.6751  140.2141  154.8206 C   0  0  0  0  0  0  0  0  0  0  0  0
  148.6043  140.7786  153.9235 C   0  0  2  0  0  0  0  0  0  0  0  0
  147.5324  141.5254  154.7290 C   0  0  0  0  0  0  0  0  0  0  0  0
  147.9662  139.7763  153.1595 O   0  0  0  0  0  0  0  0  0  0  0  0
  149.5670  140.3635  156.1332 N   0  0  0  0  0  0  0  0  0  0  0  0
  151.7151  145.6513  158.4002 H   0  0  0  0  0  0  0  0  0  0  0  0
  151.2598  144.0516  157.8294 H   0  0  0  0  0  0  0  0  0  0  0  0
  152.9396  144.5796  157.7261 H   0  0  0  0  0  0  0  0  0  0  0  0
  153.0367  144.6966  160.2421 H   0  0  0  0  0  0  0  0  0  0  0  0
  151.4008  144.1186  160.3429 H   0  0  0  0  0  0  0  0  0  0  0  0
  153.6740  142.5634  159.0360 H   0  0  0  0  0  0  0  0  0  0  0  0
  154.2402  142.8473  161.4091 H   0  0  0  0  0  0  0  0  0  0  0  0
  153.8105  141.1728  161.0885 H   0  0  0  0  0  0  0  0  0  0  0  0
  152.6673  142.2382  161.9029 H   0  0  0  0  0  0  0  0  0  0  0  0
  150.9145  141.7836  159.5458 H   0  0  0  0  0  0  0  0  0  0  0  0
  151.0120  138.7036  158.3989 H   0  0  0  0  0  0  0  0  0  0  0  0
  149.9863  140.1158  158.5885 H   0  0  0  0  0  0  0  0  0  0  0  0
  152.3741  138.7012  155.8765 H   0  0  0  0  0  0  0  0  0  0  0  0
  151.1993  139.2243  153.4724 H   0  0  0  0  0  0  0  0  0  0  0  0
  149.0550  141.4757  153.2157 H   0  0  0  0  0  0  0  0  0  0  0  0
  147.9697  142.3487  155.2948 H   0  0  0  0  0  0  0  0  0  0  0  0
  147.0352  140.8622  155.4379 H   0  0  0  0  0  0  0  0  0  0  0  0
  146.7692  141.9466  154.0739 H   0  0  0  0  0  0  0  0  0  0  0  0
  148.3209  139.7983  152.2837 H   0  0  0  0  0  0  0  0  0  0  0  0
  1  2  1  0  0  0  0
  1 17  1  0  0  0  0
  1 18  1  0  0  0  0
  1 19  1  0  0  0  0
  2  3  1  0  0  0  0
  2 20  1  0  0  0  0
  2 21  1  0  0  0  0
  3  4  1  0  0  0  0
  3  5  1  0  0  0  0
  3 22  1  0  0  0  0
  4 23  1  0  0  0  0
  4 24  1  0  0  0  0
  4 25  1  0  0  0  0
  5  6  1  0  0  0  0
  5 26  1  0  0  0  0
  6  7  2  0  0  0  0
  6  8  1  0  0  0  0
  8  9  1  0  0  0  0
  8 27  1  0  0  0  0
  8 28  1  0  0  0  0
  9 16  1  0  0  0  0
  9 10  1  0  0  0  0
 10 11  2  0  0  0  0
 10 29  1  0  0  0  0
 11 12  1  0  0  0  0
 11 30  1  0  0  0  0
 12 13  1  0  0  0  0
 12 16  2  0  0  0  0
 13 14  1  0  0  0  0
 13 15  1  0  0  0  0
 13 31  1  0  0  0  0
 14 32  1  0  0  0  0
 14 33  1  0  0  0  0
 14 34  1  0  0  0  0
 15 35  1  0  0  0  0
M  END
> <s_m_source_file>
AV-unprocessed.smi

> <i_m_source_file_index>
2739

> <i_lp_mmshare_version>
43012

> <i_f3d_flags>
0

> <s_epik_input>
W0NIM11bQ0gyXVtDQEhdKFtDSDNdKVtOSF1DKD1PKVtDSDJdbjFbY0hdW2NIXWMobjEpW0NASF0oW0NIM10pW09IXQ==

> <s_epik_cmdline>
J2VwaWtfcHl0aG9uJywgJy1waCcsICc3LjAnLCAnLXRuJywgJzgnLCAnLW1hJywgJzIwMCcsICctbWV0YWxfYmluZGluZycsICctaW1hZScsICc8aW5maWxlLm1hZT4nLCAnLW9tYWUnLCAnPG91dGZpbGUubWFlPic=

> <r_lp_tautomer_probability>
1

> <r_epik_Ionization_Penalty>
5.22246e-06

> <r_epik_Ionization_Penalty_Charging>
0

> <r_epik_Ionization_Penalty_Neutral>
5.22246e-06

> <r_epik_State_Penalty>
-0

> <r_epik_Charging_Adjusted_Penalty>
0

> <i_epik_Tot_Q>
0

> <i_epik_Tot_abs_Q>
0

> <r_epik_Metal_State_Penalty>
-0

> <b_epik_Metal_Only>
0

> <s_lp_Force_Field>
OPLS_2005

> <r_lp_Energy>
1.58762

> <b_lp_Chiralities_Consistent>
1

> <s_lp_Variant>
AV-unprocessed.smi:2739-2

> <Gold.Version>
5.8.1

> <Gold.Id.Protein>
6NUR|6NUR_protein|mol2

> <Gold.PLP.Fitness>
41.2209

> <Gold.PLP.PLP>
-35.9339

> <Gold.PLP.part.hbond>
-2.0000

> <Gold.PLP.part.metal>
0.0000

> <Gold.PLP.part.buried>
-0.7418

> <Gold.PLP.part.nonpolar>
-33.6259

> <Gold.PLP.part.repulsive>
0.1643

> <Gold.PLP.ligand.clash>
0.0000

> <Gold.PLP.ligand.torsion>
0.4285

> <Gold.PLP.Chemscore.Hbond>
2.0000

> <Gold.PLP.Chemscore.CHOScore>
0.0000

> <Gold.PLP.Chemscore.Metal>
0.0000

> <Gold.Chemscore.Hbonds>
donor molecule, donor type, donor heavy atom, donor atom, acceptor molecule, acceptor atom, score
      L1  H    15    35       P1  7957  1.00
      P1  H  7997  8010       L1     7  0.91

> <Gold.PLP.Chemscore.Internal.Correction>
0.1440

> <Gold.Rescore>
     Score         DG    S(hbond)    S(metal)    S(lipo)     H(rot)  DE(clash)    DE(int)     intcor
     15.89     -16.75       1.95        0.00      92.07       2.34       0.45       0.41       ----

> <Gold.Chemscore.Fitness>
15.8942

> <Gold.Chemscore.DG>
-16.7521

> <Gold.Chemscore.ZeroCoef>
-5.4800

> <Gold.Chemscore.Hbond>
1.9471

> <Gold.Chemscore.Metal>
0.0000

> <Gold.Chemscore.Lipo>
92.0652

> <Gold.Chemscore.Internal_Hbond>
0.0000

> <Gold.Chemscore.DEClash>
0.4498

> <Gold.Chemscore.DEInternal>
0.4080

> <Gold.Chemscore.Rot>
2.3448

> <Gold.Chemscore.Internal.Correction>
   9.000000E+99

> <Gold.Chemscore.Hbonds>
donor molecule, donor type, donor heavy atom, donor atom, acceptor molecule, acceptor atom, score
      L1  H    15    35       P1  7957  0.98
      P1  H  7997  8010       L1     7  0.90

> <Gold.Chemscore.Hbond.Weighted>
-6.5032

> <Gold.Chemscore.Metal.Weighted>
-0.0000

> <Gold.Chemscore.Lipo.Weighted>
-10.7716

> <Gold.Chemscore.Internal_Hbond.Weighted>
0.0000

> <Gold.Chemscore.DEClash.Weighted>
0.4498

> <Gold.Chemscore.DEInternal.Weighted>
0.4080

> <Gold.Chemscore.Rot.Weighted>
6.0027

> <Gold.Chemscore.Internal.Correction.Weighted>
   9.000000E+99

> <Gold.Protein.RotatedTorsions>
[ 6907 6896 6895 6894 ] final -154.06 input  -60.11 | X-H torsion
[ 7974 7965 7964 7962 ] final   74.48 input  175.53 | X-H torsion
[ 8008 7997 7996 7995 ] final   43.31 input   59.86 | X-H torsion
[ 10167 10162 10161 10158 ] final  110.19 input  -65.29 | X-H torsion
[ 10718 10713 10712 10709 ] final   14.25 input   66.30 | X-H torsion
[ 10763 10752 10751 10750 ] final -175.40 input  -60.55 | X-H torsion
[ 11005 11000 10999 10996 ] final  169.74 input  -57.11 | X-H torsion

> <Gold.Protein.ActiveResidues>
 VAL166  LYS551  ARG553  GLY616  TRP617  ASP618  TYR619  PRO620  LYS621  CYS622 
 ASP623  PHE694  ASN695  SER759  ASP760  ASP761  ALA762  ILE779  LEU786  VAL792 
 PHE793  MET794  SER795  GLU796  ALA797  LYS798  CYS799  TRP800  GLU811  SER814 

> <Gold.Protein.RotatedAtoms>
  151.2518  133.4346  159.2611 H   0  0  0  0  0  0  0  0  0  0  0  0  # atno 6907 bound_to 6896
  151.0611  134.9737  159.8271 H   0  0  0  0  0  0  0  0  0  0  0  0  # atno 6908 bound_to 6896
  152.5398  134.2468  159.8936 H   0  0  0  0  0  0  0  0  0  0  0  0  # atno 6909 bound_to 6896
  145.7277  139.2672  143.1559 H   0  0  0  0  0  0  0  0  0  0  0  0  # atno 7974 bound_to 7965
  155.3007  140.3385  155.4248 H   0  0  0  0  0  0  0  0  0  0  0  0  # atno 8008 bound_to 7997
  156.2003  140.1730  156.7953 H   0  0  0  0  0  0  0  0  0  0  0  0  # atno 8009 bound_to 7997
  154.5550  140.0698  156.8713 H   0  0  0  0  0  0  0  0  0  0  0  0  # atno 8010 bound_to 7997
  139.6708  144.7125  151.1692 H   0  0  0  0  0  0  0  0  0  0  0  0  # atno 10167 bound_to 10162
  157.0365  130.6214  149.5744 H   0  0  0  0  0  0  0  0  0  0  0  0  # atno 10718 bound_to 10713
  154.5849  135.2839  155.0695 H   0  0  0  0  0  0  0  0  0  0  0  0  # atno 10763 bound_to 10752
  154.2018  135.6423  153.5093 H   0  0  0  0  0  0  0  0  0  0  0  0  # atno 10764 bound_to 10752
  153.0101  135.5471  154.6515 H   0  0  0  0  0  0  0  0  0  0  0  0  # atno 10765 bound_to 10752
  140.3010  134.7595  157.3916 H   0  0  0  0  0  0  0  0  0  0  0  0  # atno 11005 bound_to 11000
  146.0567  140.8014  142.9755 LP  0  0  0  0  0  0  0  0  0  0  0  0  # atno 17320 bound_to 7965
  144.6900  140.3134  143.7244 LP  0  0  0  0  0  0  0  0  0  0  0  0  # atno 17321 bound_to 7965
  140.7617  143.5848  150.8857 LP  0  0  0  0  0  0  0  0  0  0  0  0  # atno 17342 bound_to 10162
  139.9513  143.6269  152.3028 LP  0  0  0  0  0  0  0  0  0  0  0  0  # atno 17343 bound_to 10162
  156.0052  130.5138  150.7805 LP  0  0  0  0  0  0  0  0  0  0  0  0  # atno 17370 bound_to 10713
  157.5138  131.0927  151.0165 LP  0  0  0  0  0  0  0  0  0  0  0  0  # atno 17371 bound_to 10713
  140.1109  134.5346  155.8267 LP  0  0  0  0  0  0  0  0  0  0  0  0  # atno 17394 bound_to 11000
  141.2128  133.6724  156.6687 LP  0  0  0  0  0  0  0  0  0  0  0  0  # atno 17395 bound_to 11000

$$$$
