AV-unprocessed.smi:146|AV-procd|sdf|1200|dock8
  -GOLD-   2262018363D 1   1.00000     0.00000
 Structure written by MMmdl.
 55 59  0  0  0  0  0  0  0  0  1 V2000
  154.0696  138.7946  159.9362 C   0  0  0  0  0  0  0  0  0  0  0  0
  153.0893  138.1290  158.9575 C   0  0  0  0  0  0  0  0  0  0  0  0
  153.6374  136.7387  158.5755 C   0  0  0  0  0  0  0  0  0  0  0  0
  151.6987  138.0219  159.6154 C   0  0  0  0  0  0  0  0  0  0  0  0
  150.6849  137.6981  158.6220 N   0  0  0  0  0  0  0  0  0  0  0  0
  149.5265  137.2012  159.1210 C   0  0  0  0  0  0  0  0  0  0  0  0
  149.3143  137.1843  160.4641 N   0  0  0  0  0  0  0  0  0  0  0  0
  148.1781  136.6867  160.9607 C   0  0  0  0  0  0  0  0  0  0  0  0
  147.1376  136.1691  160.3053 N   0  0  0  0  0  0  0  0  0  0  0  0
  147.3377  136.1945  158.9569 C   0  0  0  0  0  0  0  0  0  0  0  0
  148.4946  136.6849  158.2876 C   0  0  0  0  0  0  0  0  0  0  0  0
  148.3392  136.5499  156.9132 N   0  0  0  0  0  0  0  0  0  0  0  0
  147.1636  135.9999  156.7787 C   0  0  0  0  0  0  0  0  0  0  0  0
  146.4862  135.7635  157.9543 N   0  0  0  0  0  0  0  0  0  0  0  0
  145.1650  135.1687  158.0904 C   0  0  0  0  0  0  0  0  0  0  0  0
  145.1776  133.6406  158.3063 C   0  0  0  0  0  0  0  0  0  0  0  0
  143.7459  133.0760  158.3121 C   0  0  0  0  0  0  0  0  0  0  0  0
  143.0230  133.4834  157.1676 O   0  0  0  0  0  0  0  0  0  0  0  0
  146.1758  132.8531  157.4465 C   0  0  0  0  0  0  0  0  0  0  0  0
  146.7099  132.1655  158.5974 O   0  0  0  0  0  0  0  0  0  0  0  0
  146.0610  133.1287  159.4536 C   0  0  0  0  0  0  0  0  0  0  0  0
  150.6145  138.6913  157.5589 C   0  0  0  0  0  0  0  0  0  0  0  0
  151.9867  138.8459  156.8676 C   0  0  1  0  0  0  0  0  0  0  0  0
  152.2834  137.7278  155.8623 C   0  0  0  0  0  0  0  0  0  0  0  0
  151.9652  138.3205  154.4867 C   0  0  0  0  0  0  0  0  0  0  0  0
  151.4226  139.6052  154.7417 O   0  0  0  0  0  0  0  0  0  0  0  0
  151.9853  140.0749  155.9538 C   0  0  0  0  0  0  0  0  0  0  0  0
  153.0377  139.0167  157.8294 O   0  0  0  0  0  0  0  0  0  0  0  0
  154.1779  138.2106  160.8508 H   0  0  0  0  0  0  0  0  0  0  0  0
  153.7297  139.7915  160.2194 H   0  0  0  0  0  0  0  0  0  0  0  0
  155.0598  138.9011  159.4917 H   0  0  0  0  0  0  0  0  0  0  0  0
  153.8161  136.1340  159.4652 H   0  0  0  0  0  0  0  0  0  0  0  0
  154.5826  136.8212  158.0383 H   0  0  0  0  0  0  0  0  0  0  0  0
  152.9450  136.1746  157.9531 H   0  0  0  0  0  0  0  0  0  0  0  0
  151.7249  137.2905  160.4230 H   0  0  0  0  0  0  0  0  0  0  0  0
  151.4289  138.9749  160.0728 H   0  0  0  0  0  0  0  0  0  0  0  0
  148.0904  136.7057  162.0371 H   0  0  0  0  0  0  0  0  0  0  0  0
  146.7503  135.7584  155.8101 H   0  0  0  0  0  0  0  0  0  0  0  0
  144.6517  135.6670  158.9138 H   0  0  0  0  0  0  0  0  0  0  0  0
  144.5930  135.4231  157.1974 H   0  0  0  0  0  0  0  0  0  0  0  0
  143.7654  131.9857  158.3208 H   0  0  0  0  0  0  0  0  0  0  0  0
  143.1989  133.3726  159.2071 H   0  0  0  0  0  0  0  0  0  0  0  0
  143.2123  132.8819  156.4633 H   0  0  0  0  0  0  0  0  0  0  0  0
  145.7113  132.1748  156.7298 H   0  0  0  0  0  0  0  0  0  0  0  0
  146.9300  133.4749  156.9611 H   0  0  0  0  0  0  0  0  0  0  0  0
  146.7727  133.8622  159.8342 H   0  0  0  0  0  0  0  0  0  0  0  0
  145.5074  132.6633  160.2702 H   0  0  0  0  0  0  0  0  0  0  0  0
  149.8549  138.4178  156.8250 H   0  0  0  0  0  0  0  0  0  0  0  0
  150.3077  139.6424  157.9969 H   0  0  0  0  0  0  0  0  0  0  0  0
  153.3352  137.4416  155.8881 H   0  0  0  0  0  0  0  0  0  0  0  0
  151.6932  136.8321  156.0581 H   0  0  0  0  0  0  0  0  0  0  0  0
  152.8745  138.4234  153.8932 H   0  0  0  0  0  0  0  0  0  0  0  0
  151.2591  137.7097  153.9238 H   0  0  0  0  0  0  0  0  0  0  0  0
  151.4270  140.9180  156.3614 H   0  0  0  0  0  0  0  0  0  0  0  0
  153.0043  140.4131  155.7576 H   0  0  0  0  0  0  0  0  0  0  0  0
  1  2  1  0  0  0  0
  1 29  1  0  0  0  0
  1 30  1  0  0  0  0
  1 31  1  0  0  0  0
  2 28  1  0  0  0  0
  2  3  1  0  0  0  0
  2  4  1  0  0  0  0
  3 32  1  0  0  0  0
  3 33  1  0  0  0  0
  3 34  1  0  0  0  0
  4  5  1  0  0  0  0
  4 35  1  0  0  0  0
  4 36  1  0  0  0  0
  5  6  1  0  0  0  0
  5 22  1  0  0  0  0
  6 11  1  0  0  0  0
  6  7  2  0  0  0  0
  7  8  1  0  0  0  0
  8  9  2  0  0  0  0
  8 37  1  0  0  0  0
  9 10  1  0  0  0  0
 10 14  1  0  0  0  0
 10 11  2  0  0  0  0
 11 12  1  0  0  0  0
 12 13  2  0  0  0  0
 13 14  1  0  0  0  0
 13 38  1  0  0  0  0
 14 15  1  0  0  0  0
 15 16  1  0  0  0  0
 15 39  1  0  0  0  0
 15 40  1  0  0  0  0
 16 21  1  0  0  0  0
 16 17  1  0  0  0  0
 16 19  1  0  0  0  0
 17 18  1  0  0  0  0
 17 41  1  0  0  0  0
 17 42  1  0  0  0  0
 18 43  1  0  0  0  0
 19 20  1  0  0  0  0
 19 44  1  0  0  0  0
 19 45  1  0  0  0  0
 20 21  1  0  0  0  0
 21 46  1  0  0  0  0
 21 47  1  0  0  0  0
 22 23  1  0  0  0  0
 22 48  1  0  0  0  0
 22 49  1  0  0  0  0
 23 27  1  0  0  0  0
 23 24  1  0  0  0  0
 23 28  1  0  0  0  0
 24 25  1  0  0  0  0
 24 50  1  0  0  0  0
 24 51  1  0  0  0  0
 25 26  1  0  0  0  0
 25 52  1  0  0  0  0
 25 53  1  0  0  0  0
 26 27  1  0  0  0  0
 27 54  1  0  0  0  0
 27 55  1  0  0  0  0
M  END
> <s_m_source_file>
AV-unprocessed.smi

> <i_m_source_file_index>
146

> <i_lp_mmshare_version>
43012

> <i_f3d_flags>
0

> <s_epik_input>
W0NIMl0xT1tDSDJdW0NIMl1bQ0BAXTEyW0NIMl1OKFtDSDJdQyhPMikoW0NIM10pW0NIM10pYyhuW2NIXW4zKWMoYzM0KW5bY0hdbjRbQ0gyXUM1KFtDSDJdW09IXSlbQ0gyXU9bQ0gyXTU=

> <s_epik_cmdline>
J2VwaWtfcHl0aG9uJywgJy1waCcsICc3LjAnLCAnLXRuJywgJzgnLCAnLW1hJywgJzIwMCcsICctbWV0YWxfYmluZGluZycsICctaW1hZScsICc8aW5maWxlLm1hZT4nLCAnLW9tYWUnLCAnPG91dGZpbGUubWFlPic=

> <r_lp_tautomer_probability>
1

> <r_epik_Ionization_Penalty>
0.00353822

> <r_epik_Ionization_Penalty_Charging>
0

> <r_epik_Ionization_Penalty_Neutral>
0.00353822

> <r_epik_State_Penalty>
0.0023805

> <r_epik_Charging_Adjusted_Penalty>
0.0023805

> <i_epik_Tot_Q>
0

> <i_epik_Tot_abs_Q>
0

> <r_epik_Metal_State_Penalty>
-0

> <b_epik_Metal_Only>
0

> <s_lp_Force_Field>
OPLS_2005

> <r_lp_Energy>
57.4997

> <b_lp_Chiralities_Consistent>
1

> <s_lp_Variant>
AV-unprocessed.smi:146-2

> <Gold.Version>
5.8.1

> <Gold.Id.Protein>
6NUR|6NUR_protein|mol2

> <Gold.PLP.Fitness>
38.9244

> <Gold.PLP.PLP>
-27.4554

> <Gold.PLP.part.hbond>
-5.0000

> <Gold.PLP.part.metal>
0.0000

> <Gold.PLP.part.buried>
-6.4491

> <Gold.PLP.part.nonpolar>
-16.7061

> <Gold.PLP.part.repulsive>
0.0671

> <Gold.PLP.ligand.clash>
0.0000

> <Gold.PLP.ligand.torsion>
0.7314

> <Gold.PLP.Chemscore.Hbond>
4.1001

> <Gold.PLP.Chemscore.CHOScore>
0.0000

> <Gold.PLP.Chemscore.Metal>
0.0000

> <Gold.Chemscore.Hbonds>
donor molecule, donor type, donor heavy atom, donor atom, acceptor molecule, acceptor atom, score
      L1  H    18    43       P1 10957  0.96
      P1  H  7989  7998       L1    26  1.00
      P1  H  7997  8008       L1    28  1.00
      P1  H 11000 11005       L1    18  1.00

> <Gold.PLP.Chemscore.Internal.Correction>
0.6315

> <Gold.Rescore>
     Score         DG    S(hbond)    S(metal)    S(lipo)     H(rot)  DE(clash)    DE(int)     intcor
     14.95     -15.76       2.99        0.00      55.68       2.44       0.05       0.75       ----

> <Gold.Chemscore.Fitness>
14.9509

> <Gold.Chemscore.DG>
-15.7568

> <Gold.Chemscore.ZeroCoef>
-5.4800

> <Gold.Chemscore.Hbond>
2.9946

> <Gold.Chemscore.Metal>
0.0000

> <Gold.Chemscore.Lipo>
55.6821

> <Gold.Chemscore.Internal_Hbond>
0.0000

> <Gold.Chemscore.DEClash>
0.0523

> <Gold.Chemscore.DEInternal>
0.7535

> <Gold.Chemscore.Rot>
2.4376

> <Gold.Chemscore.Internal.Correction>
   9.000000E+99

> <Gold.Chemscore.Hbonds>
donor molecule, donor type, donor heavy atom, donor atom, acceptor molecule, acceptor atom, score
      L1  H    18    43       P1 10957  0.88
      P1  H  7989  7998       L1    26  0.62
      P1  H  7997  8008       L1    28  0.58
      P1  H 11000 11005       L1    18  0.40

> <Gold.Chemscore.Hbond.Weighted>
-10.0021

> <Gold.Chemscore.Metal.Weighted>
-0.0000

> <Gold.Chemscore.Lipo.Weighted>
-6.5148

> <Gold.Chemscore.Internal_Hbond.Weighted>
0.0000

> <Gold.Chemscore.DEClash.Weighted>
0.0523

> <Gold.Chemscore.DEInternal.Weighted>
0.7535

> <Gold.Chemscore.Rot.Weighted>
6.2402

> <Gold.Chemscore.Internal.Correction.Weighted>
   9.000000E+99

> <Gold.Protein.RotatedTorsions>
[ 6907 6896 6895 6894 ] final  -44.85 input  -60.11 | X-H torsion
[ 7974 7965 7964 7962 ] final   23.71 input  175.53 | X-H torsion
[ 8008 7997 7996 7995 ] final  -78.70 input   59.86 | X-H torsion
[ 10167 10162 10161 10158 ] final  101.54 input  -65.29 | X-H torsion
[ 10718 10713 10712 10709 ] final  -94.52 input   66.30 | X-H torsion
[ 10763 10752 10751 10750 ] final -141.52 input  -60.55 | X-H torsion
[ 11005 11000 10999 10996 ] final  -92.03 input  -57.11 | X-H torsion

> <Gold.Protein.ActiveResidues>
 VAL166  LYS551  ARG553  GLY616  TRP617  ASP618  TYR619  PRO620  LYS621  CYS622 
 ASP623  PHE694  ASN695  SER759  ASP760  ASP761  ALA762  ILE779  LEU786  VAL792 
 PHE793  MET794  SER795  GLU796  ALA797  LYS798  CYS799  TRP800  GLU811  SER814 

> <Gold.Protein.RotatedAtoms>
  150.9283  134.8699  159.7534 H   0  0  0  0  0  0  0  0  0  0  0  0  # atno 6907 bound_to 6896
  152.5026  134.4117  159.9460 H   0  0  0  0  0  0  0  0  0  0  0  0  # atno 6908 bound_to 6896
  151.4145  133.3677  159.2783 H   0  0  0  0  0  0  0  0  0  0  0  0  # atno 6909 bound_to 6896
  146.1972  139.7707  142.8788 H   0  0  0  0  0  0  0  0  0  0  0  0  # atno 7974 bound_to 7965
  154.5714  140.0690  156.8970 H   0  0  0  0  0  0  0  0  0  0  0  0  # atno 8008 bound_to 7997
  155.2628  140.3359  155.4253 H   0  0  0  0  0  0  0  0  0  0  0  0  # atno 8009 bound_to 7997
  156.2121  140.1763  156.7657 H   0  0  0  0  0  0  0  0  0  0  0  0  # atno 8010 bound_to 7997
  139.7429  144.7006  151.0548 H   0  0  0  0  0  0  0  0  0  0  0  0  # atno 10167 bound_to 10162
  156.0028  130.5071  150.5939 H   0  0  0  0  0  0  0  0  0  0  0  0  # atno 10718 bound_to 10713
  154.8542  135.3522  154.5880 H   0  0  0  0  0  0  0  0  0  0  0  0  # atno 10763 bound_to 10752
  153.6490  135.6995  153.5220 H   0  0  0  0  0  0  0  0  0  0  0  0  # atno 10764 bound_to 10752
  153.2909  135.4235  155.1124 H   0  0  0  0  0  0  0  0  0  0  0  0  # atno 10765 bound_to 10752
  141.1531  133.7794  156.9963 H   0  0  0  0  0  0  0  0  0  0  0  0  # atno 11005 bound_to 11000
  145.3605  141.0325  143.3287 LP  0  0  0  0  0  0  0  0  0  0  0  0  # atno 17320 bound_to 7965
  144.8605  139.5185  143.6814 LP  0  0  0  0  0  0  0  0  0  0  0  0  # atno 17321 bound_to 7965
  140.7788  143.4902  150.9903 LP  0  0  0  0  0  0  0  0  0  0  0  0  # atno 17342 bound_to 10162
  139.8590  143.7339  152.3174 LP  0  0  0  0  0  0  0  0  0  0  0  0  # atno 17343 bound_to 10162
  157.3799  131.0779  151.1486 LP  0  0  0  0  0  0  0  0  0  0  0  0  # atno 17370 bound_to 10713
  157.2212  130.6482  149.5812 LP  0  0  0  0  0  0  0  0  0  0  0  0  # atno 17371 bound_to 10713
  140.0969  134.9559  157.1864 LP  0  0  0  0  0  0  0  0  0  0  0  0  # atno 17394 bound_to 11000
  140.3370  134.2746  155.7218 LP  0  0  0  0  0  0  0  0  0  0  0  0  # atno 17395 bound_to 11000

$$$$
