AV-unprocessed.smi:781|AV-procd|sdf|3709|dock2
  -GOLD-   22720 1133D 1   1.00000     0.00000
 Structure written by MMmdl.
 38 40  0  0  0  0  0  0  0  0  1 V2000
  154.5216  134.8611  162.6457 C   0  0  0  0  0  0  0  0  0  0  0  0
  154.1173  136.0342  161.8200 C   0  0  0  0  0  0  0  0  0  0  0  0
  153.8864  137.3476  162.1191 C   0  0  0  0  0  0  0  0  0  0  0  0
  153.5369  137.9057  160.8605 C   0  0  0  0  0  0  0  0  0  0  0  0
  153.2141  139.2813  160.7399 N   0  0  0  0  0  0  0  0  0  0  0  0
  153.1207  140.0062  159.6122 C   0  0  0  0  0  0  0  0  0  0  0  0
  153.3226  139.5803  158.4746 O   0  0  0  0  0  0  0  0  0  0  0  0
  152.7805  141.2747  159.8784 N   0  0  0  0  0  0  0  0  0  0  0  0
  152.5999  142.3210  158.8745 C   0  0  2  0  0  0  0  0  0  0  0  0
  153.0707  143.7194  159.3490 C   0  0  2  0  0  0  0  0  0  0  0  0
  152.4632  144.0858  160.7200 C   0  0  0  0  0  0  0  0  0  0  0  0
  150.9758  144.2998  160.3825 C   0  0  0  0  0  0  0  0  0  0  0  0
  150.9342  144.0644  158.8597 C   0  0  1  0  0  0  0  0  0  0  0  0
  152.2789  144.6378  158.4269 C   0  0  0  0  0  0  0  0  0  0  0  0
  151.0964  142.5542  158.5687 C   0  0  1  0  0  0  0  0  0  0  0  0
  150.6971  142.1763  157.1294 C   0  0  0  0  0  0  0  0  0  0  0  0
  149.3425  142.5020  156.8988 O   0  0  0  0  0  0  0  0  0  0  0  0
  153.5525  137.0139  159.8816 N   0  0  0  0  0  0  0  0  0  0  0  0
  153.9245  135.8100  160.4917 O   0  0  0  0  0  0  0  0  0  0  0  0
  154.7394  135.1618  163.6706 H   0  0  0  0  0  0  0  0  0  0  0  0
  155.4145  134.3888  162.2359 H   0  0  0  0  0  0  0  0  0  0  0  0
  153.7263  134.1161  162.6737 H   0  0  0  0  0  0  0  0  0  0  0  0
  153.9569  137.8285  163.0834 H   0  0  0  0  0  0  0  0  0  0  0  0
  153.0291  139.7650  161.6061 H   0  0  0  0  0  0  0  0  0  0  0  0
  152.6338  141.5389  160.8414 H   0  0  0  0  0  0  0  0  0  0  0  0
  153.1330  142.0469  157.9620 H   0  0  0  0  0  0  0  0  0  0  0  0
  154.1522  143.8526  159.3043 H   0  0  0  0  0  0  0  0  0  0  0  0
  152.6166  143.3236  161.4837 H   0  0  0  0  0  0  0  0  0  0  0  0
  152.9021  145.0115  161.0948 H   0  0  0  0  0  0  0  0  0  0  0  0
  150.3230  143.6165  160.9267 H   0  0  0  0  0  0  0  0  0  0  0  0
  150.6709  145.3179  160.6277 H   0  0  0  0  0  0  0  0  0  0  0  0
  150.0654  144.5158  158.3797 H   0  0  0  0  0  0  0  0  0  0  0  0
  152.3951  145.6966  158.6651 H   0  0  0  0  0  0  0  0  0  0  0  0
  152.5020  144.4870  157.3697 H   0  0  0  0  0  0  0  0  0  0  0  0
  150.4592  141.9902  159.2525 H   0  0  0  0  0  0  0  0  0  0  0  0
  151.3072  142.7250  156.4114 H   0  0  0  0  0  0  0  0  0  0  0  0
  150.8494  141.1144  156.9363 H   0  0  0  0  0  0  0  0  0  0  0  0
  149.2998  143.1289  156.1928 H   0  0  0  0  0  0  0  0  0  0  0  0
  1  2  1  0  0  0  0
  1 20  1  0  0  0  0
  1 21  1  0  0  0  0
  1 22  1  0  0  0  0
  2 19  1  0  0  0  0
  2  3  2  0  0  0  0
  3  4  1  0  0  0  0
  3 23  1  0  0  0  0
  4  5  1  0  0  0  0
  4 18  2  0  0  0  0
  5  6  1  0  0  0  0
  5 24  1  0  0  0  0
  6  7  2  0  0  0  0
  6  8  1  0  0  0  0
  8  9  1  0  0  0  0
  8 25  1  0  0  0  0
  9 15  1  0  0  0  0
  9 10  1  0  0  0  0
  9 26  1  0  0  0  0
 10 14  1  0  0  0  0
 10 11  1  0  0  0  0
 10 27  1  0  0  0  0
 11 12  1  0  0  0  0
 11 28  1  0  0  0  0
 11 29  1  0  0  0  0
 12 13  1  0  0  0  0
 12 30  1  0  0  0  0
 12 31  1  0  0  0  0
 13 14  1  0  0  0  0
 13 15  1  0  0  0  0
 13 32  1  0  0  0  0
 14 33  1  0  0  0  0
 14 34  1  0  0  0  0
 15 16  1  0  0  0  0
 15 35  1  0  0  0  0
 16 17  1  0  0  0  0
 16 36  1  0  0  0  0
 16 37  1  0  0  0  0
 17 38  1  0  0  0  0
 18 19  1  0  0  0  0
M  END
> <s_m_source_file>
AV-unprocessed.smi

> <i_m_source_file_index>
781

> <i_lp_mmshare_version>
43012

> <i_f3d_flags>
0

> <s_epik_input>
W0NIM11jMVtjSF1jKG5vMSlbTkhdQyg9TylbTkhdW0NASF0oW0NAQEhdMjMpW0NASF0oW0NIMl1bT0hdKVtDQEBIXShbQ0gyXTMpW0NIMl1bQ0gyXTI=

> <s_epik_cmdline>
J2VwaWtfcHl0aG9uJywgJy1waCcsICc3LjAnLCAnLXRuJywgJzgnLCAnLW1hJywgJzIwMCcsICctbWV0YWxfYmluZGluZycsICctaW1hZScsICc8aW5maWxlLm1hZT4nLCAnLW9tYWUnLCAnPG91dGZpbGUubWFlPic=

> <r_lp_tautomer_probability>
1

> <r_epik_Ionization_Penalty>
2.32222e-05

> <r_epik_Ionization_Penalty_Charging>
0

> <r_epik_Ionization_Penalty_Neutral>
2.32222e-05

> <r_epik_State_Penalty>
-0

> <r_epik_Charging_Adjusted_Penalty>
0

> <i_epik_Tot_Q>
0

> <i_epik_Tot_abs_Q>
0

> <r_epik_Metal_State_Penalty>
-0

> <b_epik_Metal_Only>
0

> <s_lp_Force_Field>
OPLS_2005

> <r_lp_Energy>
46.3862

> <b_lp_Chiralities_Consistent>
1

> <s_lp_Variant>
AV-unprocessed.smi:781-3

> <Gold.Version>
5.8.1

> <Gold.Id.Protein>
6NUR|6NUR_protein|mol2

> <Gold.PLP.Fitness>
44.0073

> <Gold.PLP.PLP>
-35.6965

> <Gold.PLP.part.hbond>
-3.0000

> <Gold.PLP.part.metal>
0.0000

> <Gold.PLP.part.buried>
-4.8065

> <Gold.PLP.part.nonpolar>
-29.1332

> <Gold.PLP.part.repulsive>
0.1665

> <Gold.PLP.ligand.clash>
0.0000

> <Gold.PLP.ligand.torsion>
0.3534

> <Gold.PLP.Chemscore.Hbond>
3.0000

> <Gold.PLP.Chemscore.CHOScore>
0.0000

> <Gold.PLP.Chemscore.Metal>
0.0000

> <Gold.Chemscore.Hbonds>
donor molecule, donor type, donor heavy atom, donor atom, acceptor molecule, acceptor atom, score
      L1  H    17    38       P1  8028  0.96
      P1  H  6896  6908       L1    19  1.00
      P1  H  7997  8008       L1     7  1.00

> <Gold.PLP.Chemscore.Internal.Correction>
0.0176

> <Gold.Rescore>
     Score         DG    S(hbond)    S(metal)    S(lipo)     H(rot)  DE(clash)    DE(int)     intcor
     20.11     -22.09       2.61        0.00     107.99       1.86       0.38       1.59       ----

> <Gold.Chemscore.Fitness>
20.1139

> <Gold.Chemscore.DG>
-22.0876

> <Gold.Chemscore.ZeroCoef>
-5.4800

> <Gold.Chemscore.Hbond>
2.6142

> <Gold.Chemscore.Metal>
0.0000

> <Gold.Chemscore.Lipo>
107.9879

> <Gold.Chemscore.Internal_Hbond>
0.0000

> <Gold.Chemscore.DEClash>
0.3810

> <Gold.Chemscore.DEInternal>
1.5927

> <Gold.Chemscore.Rot>
1.8587

> <Gold.Chemscore.Internal.Correction>
   9.000000E+99

> <Gold.Chemscore.Hbonds>
donor molecule, donor type, donor heavy atom, donor atom, acceptor molecule, acceptor atom, score
      L1  H    17    38       P1  8028  0.92
      P1  H  6896  6908       L1    19  0.37
      P1  H  7997  8008       L1     7  0.92

> <Gold.Chemscore.Hbond.Weighted>
-8.7313

> <Gold.Chemscore.Metal.Weighted>
-0.0000

> <Gold.Chemscore.Lipo.Weighted>
-12.6346

> <Gold.Chemscore.Internal_Hbond.Weighted>
0.0000

> <Gold.Chemscore.DEClash.Weighted>
0.3810

> <Gold.Chemscore.DEInternal.Weighted>
1.5927

> <Gold.Chemscore.Rot.Weighted>
4.7583

> <Gold.Chemscore.Internal.Correction.Weighted>
   9.000000E+99

> <Gold.Protein.RotatedTorsions>
[ 6907 6896 6895 6894 ] final  -56.81 input  -60.11 | X-H torsion
[ 7974 7965 7964 7962 ] final -101.73 input  175.53 | X-H torsion
[ 8008 7997 7996 7995 ] final -106.21 input   59.86 | X-H torsion
[ 10167 10162 10161 10158 ] final -115.42 input  -65.29 | X-H torsion
[ 10718 10713 10712 10709 ] final   71.17 input   66.30 | X-H torsion
[ 10763 10752 10751 10750 ] final -123.30 input  -60.55 | X-H torsion
[ 11005 11000 10999 10996 ] final -117.91 input  -57.11 | X-H torsion

> <Gold.Protein.ActiveResidues>
 VAL166  LYS551  ARG553  GLY616  TRP617  ASP618  TYR619  PRO620  LYS621  CYS622 
 ASP623  PHE694  ASN695  SER759  ASP760  ASP761  ALA762  ILE779  LEU786  VAL792 
 PHE793  MET794  SER795  GLU796  ALA797  LYS798  CYS799  TRP800  GLU811  SER814 

> <Gold.Protein.RotatedAtoms>
  150.8137  134.7306  159.6710 H   0  0  0  0  0  0  0  0  0  0  0  0  # atno 6907 bound_to 6896
  152.4256  134.5871  159.9973 H   0  0  0  0  0  0  0  0  0  0  0  0  # atno 6908 bound_to 6896
  151.6074  133.3313  159.3096 H   0  0  0  0  0  0  0  0  0  0  0  0  # atno 6909 bound_to 6896
  145.2778  140.9317  143.2949 H   0  0  0  0  0  0  0  0  0  0  0  0  # atno 7974 bound_to 7965
  154.9112  140.0410  157.1947 H   0  0  0  0  0  0  0  0  0  0  0  0  # atno 8008 bound_to 7997
  154.8346  140.2904  155.5678 H   0  0  0  0  0  0  0  0  0  0  0  0  # atno 8009 bound_to 7997
  156.2989  140.2494  156.3277 H   0  0  0  0  0  0  0  0  0  0  0  0  # atno 8010 bound_to 7997
  140.0903  143.4706  152.1874 H   0  0  0  0  0  0  0  0  0  0  0  0  # atno 10167 bound_to 10162
  157.6438  130.9514  150.0752 H   0  0  0  0  0  0  0  0  0  0  0  0  # atno 10718 bound_to 10713
  154.8705  135.4103  154.2922 H   0  0  0  0  0  0  0  0  0  0  0  0  # atno 10763 bound_to 10752
  153.3796  135.7011  153.6581 H   0  0  0  0  0  0  0  0  0  0  0  0  # atno 10764 bound_to 10752
  153.5409  135.3648  155.2689 H   0  0  0  0  0  0  0  0  0  0  0  0  # atno 10765 bound_to 10752
  141.0322  133.9963  157.3125 H   0  0  0  0  0  0  0  0  0  0  0  0  # atno 11005 bound_to 11000
  144.9279  139.4333  143.6509 LP  0  0  0  0  0  0  0  0  0  0  0  0  # atno 17320 bound_to 7965
  146.3226  139.8175  142.8933 LP  0  0  0  0  0  0  0  0  0  0  0  0  # atno 17321 bound_to 7965
  139.5728  144.7472  151.3844 LP  0  0  0  0  0  0  0  0  0  0  0  0  # atno 17342 bound_to 10162
  140.7032  143.7580  150.7437 LP  0  0  0  0  0  0  0  0  0  0  0  0  # atno 17343 bound_to 10162
  156.1744  130.3647  149.9120 LP  0  0  0  0  0  0  0  0  0  0  0  0  # atno 17370 bound_to 10713
  156.7088  130.8962  151.3607 LP  0  0  0  0  0  0  0  0  0  0  0  0  # atno 17371 bound_to 10713
  139.9216  135.0200  156.8084 LP  0  0  0  0  0  0  0  0  0  0  0  0  # atno 17394 bound_to 11000
  140.6385  133.9840  155.7696 LP  0  0  0  0  0  0  0  0  0  0  0  0  # atno 17395 bound_to 11000

$$$$
