AV-unprocessed.smi:157|AV-procd|sdf|1292|dock7
  -GOLD-   2262018573D 1   1.00000     0.00000
 Structure written by MMmdl.
 35 37  0  0  0  0  0  0  0  0  1 V2000
  151.4782  140.0388  155.1427 O   0  0  0  0  0  0  0  0  0  0  0  0
  151.7997  138.9031  155.9172 C   0  0  0  0  0  0  0  0  0  0  0  0
  151.7960  139.2551  157.4151 C   0  0  2  0  0  0  0  0  0  0  0  0
  152.7893  140.2326  157.7102 O   0  0  0  0  0  0  0  0  0  0  0  0
  153.2653  140.0644  159.0137 C   0  0  1  0  0  0  0  0  0  0  0  0
  152.9718  141.3079  159.7954 N   0  0  0  0  0  0  0  0  0  0  0  0
  153.3018  141.5391  161.0731 C   0  0  0  0  0  0  0  0  0  0  0  0
  152.9354  142.7247  161.5297 N   0  0  0  0  0  0  0  0  0  0  0  0
  152.3037  143.3232  160.4410 C   0  0  0  0  0  0  0  0  0  0  0  0
  152.3181  142.4615  159.3532 C   0  0  0  0  0  0  0  0  0  0  0  0
  151.8780  142.5055  158.0442 N   0  0  0  0  0  0  0  0  0  0  0  0
  150.9721  143.3797  157.7377 C   0  0  0  0  0  0  0  0  0  0  0  0
  150.4074  144.3883  158.5052 N   0  0  0  0  0  0  0  0  0  0  0  0
  151.1945  145.3268  159.2868 C   0  0  0  0  0  0  0  0  0  0  0  0
  151.7723  144.7217  160.5726 C   0  0  1  0  0  0  0  0  0  0  0  0
  150.7660  144.6892  161.5643 O   0  0  0  0  0  0  0  0  0  0  0  0
  152.5306  138.8685  159.6282 C   0  0  0  0  0  0  0  0  0  0  0  0
  152.0733  138.1101  158.3994 C   0  0  2  0  0  0  0  0  0  0  0  0
  153.0883  137.2370  157.9404 O   0  0  0  0  0  0  0  0  0  0  0  0
  150.8354  139.7048  157.6725 H   0  0  0  0  0  0  0  0  0  0  0  0
  154.3504  139.9588  158.9976 H   0  0  0  0  0  0  0  0  0  0  0  0
  152.5569  145.3824  160.9421 H   0  0  0  0  0  0  0  0  0  0  0  0
  151.1769  137.5213  158.5967 H   0  0  0  0  0  0  0  0  0  0  0  0
  150.8744  140.5749  155.6339 H   0  0  0  0  0  0  0  0  0  0  0  0
  151.1043  138.0941  155.6930 H   0  0  0  0  0  0  0  0  0  0  0  0
  152.7908  138.5586  155.6214 H   0  0  0  0  0  0  0  0  0  0  0  0
  153.8293  140.8220  161.6844 H   0  0  0  0  0  0  0  0  0  0  0  0
  150.5609  143.3675  156.7274 H   0  0  0  0  0  0  0  0  0  0  0  0
  149.5459  144.8086  158.1881 H   0  0  0  0  0  0  0  0  0  0  0  0
  152.0191  145.6602  158.6552 H   0  0  0  0  0  0  0  0  0  0  0  0
  150.6027  146.2157  159.5074 H   0  0  0  0  0  0  0  0  0  0  0  0
  151.1681  144.8807  162.3979 H   0  0  0  0  0  0  0  0  0  0  0  0
  153.1795  138.3008  160.2962 H   0  0  0  0  0  0  0  0  0  0  0  0
  151.6642  139.2176  160.1926 H   0  0  0  0  0  0  0  0  0  0  0  0
  153.3100  136.6434  158.6415 H   0  0  0  0  0  0  0  0  0  0  0  0
  1  2  1  0  0  0  0
  1 24  1  0  0  0  0
  2  3  1  0  0  0  0
  2 25  1  0  0  0  0
  2 26  1  0  0  0  0
  3 20  1  0  0  0  0
  3 18  1  0  0  0  0
  3  4  1  0  0  0  0
  4  5  1  0  0  0  0
  5 21  1  0  0  0  0
  5  6  1  0  0  0  0
  5 17  1  0  0  0  0
  6 10  1  0  0  0  0
  6  7  1  0  0  0  0
  7  8  2  0  0  0  0
  7 27  1  0  0  0  0
  8  9  1  0  0  0  0
  9 15  1  0  0  0  0
  9 10  2  0  0  0  0
 10 11  1  0  0  0  0
 11 12  2  0  0  0  0
 12 13  1  0  0  0  0
 12 28  1  0  0  0  0
 13 14  1  0  0  0  0
 13 29  1  0  0  0  0
 14 15  1  0  0  0  0
 14 30  1  0  0  0  0
 14 31  1  0  0  0  0
 15 22  1  0  0  0  0
 15 16  1  0  0  0  0
 16 32  1  0  0  0  0
 17 18  1  0  0  0  0
 17 33  1  0  0  0  0
 17 34  1  0  0  0  0
 18 23  1  0  0  0  0
 18 19  1  0  0  0  0
 19 35  1  0  0  0  0
M  END
> <s_m_source_file>
AV-unprocessed.smi

> <i_m_source_file_index>
157

> <i_lp_mmshare_version>
43012

> <i_f3d_flags>
0

> <s_epik_input>
W09IXVtDSDJdW0NASF0xT1tDQEhdKFtDSDJdW0NAQEhdMVtPSF0pbihbY0hdbjIpYyhjMjMpTj1bQ0hdW05IXVtDSDJdW0NASF0zW09IXQ==

> <s_epik_cmdline>
J2VwaWtfcHl0aG9uJywgJy1waCcsICc3LjAnLCAnLXRuJywgJzgnLCAnLW1hJywgJzIwMCcsICctbWV0YWxfYmluZGluZycsICctaW1hZScsICc8aW5maWxlLm1hZT4nLCAnLW9tYWUnLCAnPG91dGZpbGUubWFlPic=

> <r_lp_tautomer_probability>
1

> <r_epik_Ionization_Penalty>
0.0357149

> <r_epik_Ionization_Penalty_Charging>
0.0355056

> <r_epik_Ionization_Penalty_Neutral>
0.000209255

> <r_epik_State_Penalty>
0.0296046

> <r_epik_Charging_Adjusted_Penalty>
0.0651102

> <i_epik_Tot_Q>
0

> <i_epik_Tot_abs_Q>
0

> <r_epik_Metal_State_Penalty>
3.03559e-05

> <b_epik_Metal_Only>
0

> <s_epik_Chemistry_Notes>
This compound has an imine and may undergo hydrolysis. This compound contains an acetal/aminal-like group ( X-CH(R)-Y where X, Y are N, S, or O) that may be acid/base labile, releasing an aldehyde.

> <s_lp_Force_Field>
OPLS_2005

> <r_lp_Energy>
45.9661

> <b_lp_Chiralities_Consistent>
1

> <s_lp_Variant>
AV-unprocessed.smi:157-2

> <Gold.Version>
5.8.1

> <Gold.Id.Protein>
6NUR|6NUR_protein|mol2

> <Gold.PLP.Fitness>
46.4143

> <Gold.PLP.PLP>
-36.8912

> <Gold.PLP.part.hbond>
-4.8410

> <Gold.PLP.part.metal>
0.0000

> <Gold.PLP.part.buried>
-4.1777

> <Gold.PLP.part.nonpolar>
-28.2624

> <Gold.PLP.part.repulsive>
0.2038

> <Gold.PLP.ligand.clash>
1.1358

> <Gold.PLP.ligand.torsion>
0.0163

> <Gold.PLP.Chemscore.Hbond>
2.5621

> <Gold.PLP.Chemscore.CHOScore>
1.0000

> <Gold.PLP.Chemscore.Metal>
0.0000

> <Gold.Chemscore.Hbonds>
donor molecule, donor type, donor heavy atom, donor atom, acceptor molecule, acceptor atom, score
      L1  H    13    29       P1  8029  0.57
      P1  H  7989  7998       L1     1  1.00
      P1  H  7997  8010       L1     4  0.83
      L1  C    12    28       P1  8028  1.00

> <Gold.PLP.Chemscore.Internal.Correction>
0.0055

> <Gold.Rescore>
     Score         DG    S(hbond)    S(metal)    S(lipo)     H(rot)  DE(clash)    DE(int)     intcor
      3.87      -7.69       1.49        0.00      55.86       3.64       1.86       1.95       ----

> <Gold.Chemscore.Fitness>
3.8724

> <Gold.Chemscore.DG>
-7.6882

> <Gold.Chemscore.ZeroCoef>
-5.4800

> <Gold.Chemscore.Hbond>
1.4915

> <Gold.Chemscore.Metal>
0.0000

> <Gold.Chemscore.Lipo>
55.8561

> <Gold.Chemscore.Internal_Hbond>
0.0000

> <Gold.Chemscore.DEClash>
1.8639

> <Gold.Chemscore.DEInternal>
1.9520

> <Gold.Chemscore.Rot>
3.6362

> <Gold.Chemscore.Internal.Correction>
   9.000000E+99

> <Gold.Chemscore.Hbonds>
donor molecule, donor type, donor heavy atom, donor atom, acceptor molecule, acceptor atom, score
      L1  H    13    29       P1  8029  0.13
      P1  H  7989  7998       L1     1  0.49
      P1  H  7997  8010       L1     4  0.13

> <Gold.Chemscore.Hbond.Weighted>
-4.9817

> <Gold.Chemscore.Metal.Weighted>
-0.0000

> <Gold.Chemscore.Lipo.Weighted>
-6.5352

> <Gold.Chemscore.Internal_Hbond.Weighted>
0.0000

> <Gold.Chemscore.DEClash.Weighted>
1.8639

> <Gold.Chemscore.DEInternal.Weighted>
1.9520

> <Gold.Chemscore.Rot.Weighted>
9.3087

> <Gold.Chemscore.Internal.Correction.Weighted>
   9.000000E+99

> <Gold.Protein.RotatedTorsions>
[ 6907 6896 6895 6894 ] final -115.25 input  -60.11 | X-H torsion
[ 7974 7965 7964 7962 ] final   35.78 input  175.53 | X-H torsion
[ 8008 7997 7996 7995 ] final   48.32 input   59.86 | X-H torsion
[ 10167 10162 10161 10158 ] final   -7.35 input  -65.29 | X-H torsion
[ 10718 10713 10712 10709 ] final   27.92 input   66.30 | X-H torsion
[ 10763 10752 10751 10750 ] final -173.73 input  -60.55 | X-H torsion
[ 11005 11000 10999 10996 ] final   54.75 input  -57.11 | X-H torsion

> <Gold.Protein.ActiveResidues>
 VAL166  LYS551  ARG553  GLY616  TRP617  ASP618  TYR619  PRO620  LYS621  CYS622 
 ASP623  PHE694  ASN695  SER759  ASP760  ASP761  ALA762  ILE779  LEU786  VAL792 
 PHE793  MET794  SER795  GLU796  ALA797  LYS798  CYS799  TRP800  GLU811  SER814 

> <Gold.Protein.RotatedAtoms>
  150.7963  133.8685  159.3251 H   0  0  0  0  0  0  0  0  0  0  0  0  # atno 6907 bound_to 6896
  151.6510  135.1000  160.0170 H   0  0  0  0  0  0  0  0  0  0  0  0  # atno 6908 bound_to 6896
  152.4045  133.6829  159.6380 H   0  0  0  0  0  0  0  0  0  0  0  0  # atno 6909 bound_to 6896
  146.1258  139.6100  142.9259 H   0  0  0  0  0  0  0  0  0  0  0  0  # atno 7974 bound_to 7965
  155.3837  140.3430  155.4248 H   0  0  0  0  0  0  0  0  0  0  0  0  # atno 8008 bound_to 7997
  156.1596  140.1596  156.8668 H   0  0  0  0  0  0  0  0  0  0  0  0  # atno 8009 bound_to 7997
  154.5127  140.0786  156.8003 H   0  0  0  0  0  0  0  0  0  0  0  0  # atno 8010 bound_to 7997
  140.7026  143.6091  150.8722 H   0  0  0  0  0  0  0  0  0  0  0  0  # atno 10167 bound_to 10162
  157.2266  130.7004  149.6294 H   0  0  0  0  0  0  0  0  0  0  0  0  # atno 10718 bound_to 10713
  154.6045  135.2858  155.0500 H   0  0  0  0  0  0  0  0  0  0  0  0  # atno 10763 bound_to 10752
  154.1752  135.6466  153.5023 H   0  0  0  0  0  0  0  0  0  0  0  0  # atno 10764 bound_to 10752
  153.0170  135.5410  154.6776 H   0  0  0  0  0  0  0  0  0  0  0  0  # atno 10765 bound_to 10752
  140.0662  134.5533  155.9097 H   0  0  0  0  0  0  0  0  0  0  0  0  # atno 11005 bound_to 11000
  145.5367  141.0423  143.2353 LP  0  0  0  0  0  0  0  0  0  0  0  0  # atno 17320 bound_to 7965
  144.7641  139.6886  143.7222 LP  0  0  0  0  0  0  0  0  0  0  0  0  # atno 17321 bound_to 7965
  139.9814  143.5947  152.2941 LP  0  0  0  0  0  0  0  0  0  0  0  0  # atno 17342 bound_to 10162
  139.6569  144.7662  151.2037 LP  0  0  0  0  0  0  0  0  0  0  0  0  # atno 17343 bound_to 10162
  155.9678  130.4502  150.5689 LP  0  0  0  0  0  0  0  0  0  0  0  0  # atno 17370 bound_to 10713
  157.3521  131.0735  151.1705 LP  0  0  0  0  0  0  0  0  0  0  0  0  # atno 17371 bound_to 10713
  141.1993  133.6606  156.5839 LP  0  0  0  0  0  0  0  0  0  0  0  0  # atno 17394 bound_to 11000
  140.3696  134.7617  157.4589 LP  0  0  0  0  0  0  0  0  0  0  0  0  # atno 17395 bound_to 11000

$$$$
