AV-unprocessed.smi:2106|AV-procd|sdf|8597|dock3
  -GOLD-   2272011333D 1   1.00000     0.00000
 Structure written by MMmdl.
 48 49  0  0  0  0  0  0  0  0  2 V2000
  148.6402  141.6934  154.4828 C   0  0  0  0  0  0  0  0  0  0  0  0
  149.7041  140.7093  154.8703 C   0  0  0  0  0  0  0  0  0  0  0  0
  150.5063  140.6961  156.0453 C   0  0  0  0  0  0  0  0  0  0  0  0
  151.3012  139.5942  155.8998 C   0  0  0  0  0  0  0  0  0  0  0  0
  152.3540  139.0419  156.8040 C   0  0  0  0  0  0  0  0  0  0  0  0
  150.9615  139.0116  154.6913 N   0  0  0  0  0  0  0  0  0  0  0  0
  151.4957  137.8118  154.0665 C   0  0  0  0  0  0  0  0  0  0  0  0
  151.0370  136.5560  154.8088 C   0  0  0  0  0  0  0  0  0  0  0  0
  151.6109  136.2037  155.8391 O   0  0  0  0  0  0  0  0  0  0  0  0
  149.9984  135.8914  154.2787 N   0  0  0  0  0  0  0  0  0  0  0  0
  149.3858  134.7001  154.8541 C   0  0  0  0  0  0  0  0  0  0  0  0
  147.8520  134.8294  154.9401 C   0  0  0  0  0  0  0  0  0  0  0  0
  147.1852  134.5866  153.6365 N   0  3  1  0  0  0  0  0  0  0  0  0
  146.8460  133.1573  153.4383 C   0  0  0  0  0  0  0  0  0  0  0  0
  146.2127  132.9187  152.0535 C   0  0  2  0  0  0  0  0  0  0  0  0
  147.2229  132.9885  150.8945 C   0  0  0  0  0  0  0  0  0  0  0  0
  145.1050  133.7982  151.8599 O   0  0  0  0  0  0  0  0  0  0  0  0
  145.4068  135.1828  152.0102 C   0  0  1  0  0  0  0  0  0  0  0  0
  144.1181  135.9770  151.7702 C   0  0  0  0  0  0  0  0  0  0  0  0
  145.9869  135.4318  153.4142 C   0  0  0  0  0  0  0  0  0  0  0  0
  149.9818  139.6986  154.0633 N   0  0  0  0  0  0  0  0  0  0  0  0
  148.5510  142.4888  155.2231 H   0  0  0  0  0  0  0  0  0  0  0  0
  147.6678  141.2076  154.3999 H   0  0  0  0  0  0  0  0  0  0  0  0
  148.8650  142.1585  153.5226 H   0  0  0  0  0  0  0  0  0  0  0  0
  150.4979  141.3909  156.8719 H   0  0  0  0  0  0  0  0  0  0  0  0
  152.4350  139.6352  157.7149 H   0  0  0  0  0  0  0  0  0  0  0  0
  153.3280  139.0458  156.3145 H   0  0  0  0  0  0  0  0  0  0  0  0
  152.1221  138.0171  157.0935 H   0  0  0  0  0  0  0  0  0  0  0  0
  151.1763  137.7731  153.0236 H   0  0  0  0  0  0  0  0  0  0  0  0
  152.5849  137.8642  154.0601 H   0  0  0  0  0  0  0  0  0  0  0  0
  149.5844  136.2589  153.4337 H   0  0  0  0  0  0  0  0  0  0  0  0
  149.6845  133.8342  154.2631 H   0  0  0  0  0  0  0  0  0  0  0  0
  149.8022  134.5544  155.8511 H   0  0  0  0  0  0  0  0  0  0  0  0
  147.4922  134.0973  155.6647 H   0  0  0  0  0  0  0  0  0  0  0  0
  147.5574  135.8087  155.3202 H   0  0  0  0  0  0  0  0  0  0  0  0
  147.7370  132.5379  153.5503 H   0  0  0  0  0  0  0  0  0  0  0  0
  146.1478  132.8483  154.2181 H   0  0  0  0  0  0  0  0  0  0  0  0
  145.7996  131.9096  152.0486 H   0  0  0  0  0  0  0  0  0  0  0  0
  147.9847  132.2157  150.9991 H   0  0  0  0  0  0  0  0  0  0  0  0
  147.7395  133.9469  150.8510 H   0  0  0  0  0  0  0  0  0  0  0  0
  146.7260  132.8315  149.9368 H   0  0  0  0  0  0  0  0  0  0  0  0
  146.1326  135.4857  151.2553 H   0  0  0  0  0  0  0  0  0  0  0  0
  144.2932  137.0492  151.8644 H   0  0  0  0  0  0  0  0  0  0  0  0
  143.3433  135.7003  152.4855 H   0  0  0  0  0  0  0  0  0  0  0  0
  143.7278  135.7924  150.7690 H   0  0  0  0  0  0  0  0  0  0  0  0
  145.2388  135.2128  154.1781 H   0  0  0  0  0  0  0  0  0  0  0  0
  146.2400  136.4868  153.5114 H   0  0  0  0  0  0  0  0  0  0  0  0
  147.8555  134.8236  152.9191 H   0  0  0  0  0  0  0  0  0  0  0  0
  1  2  1  0  0  0  0
  1 22  1  0  0  0  0
  1 23  1  0  0  0  0
  1 24  1  0  0  0  0
  2 21  2  0  0  0  0
  2  3  1  0  0  0  0
  3  4  2  0  0  0  0
  3 25  1  0  0  0  0
  4  5  1  0  0  0  0
  4  6  1  0  0  0  0
  5 26  1  0  0  0  0
  5 27  1  0  0  0  0
  5 28  1  0  0  0  0
  6  7  1  0  0  0  0
  6 21  1  0  0  0  0
  7  8  1  0  0  0  0
  7 29  1  0  0  0  0
  7 30  1  0  0  0  0
  8  9  2  0  0  0  0
  8 10  1  0  0  0  0
 10 11  1  0  0  0  0
 10 31  1  0  0  0  0
 11 12  1  0  0  0  0
 11 32  1  0  0  0  0
 11 33  1  0  0  0  0
 12 13  1  0  0  0  0
 12 34  1  0  0  0  0
 12 35  1  0  0  0  0
 13 20  1  0  0  0  0
 13 14  1  0  0  0  0
 13 48  1  0  0  0  0
 14 15  1  0  0  0  0
 14 36  1  0  0  0  0
 14 37  1  0  0  0  0
 15 16  1  0  0  0  0
 15 17  1  0  0  0  0
 15 38  1  0  0  0  0
 16 39  1  0  0  0  0
 16 40  1  0  0  0  0
 16 41  1  0  0  0  0
 17 18  1  0  0  0  0
 18 19  1  0  0  0  0
 18 20  1  0  0  0  0
 18 42  1  0  0  0  0
 19 43  1  0  0  0  0
 19 44  1  0  0  0  0
 19 45  1  0  0  0  0
 20 46  1  0  0  0  0
 20 47  1  0  0  0  0
M  CHG  1  13   1
M  END
> <s_m_source_file>
AV-unprocessed.smi

> <i_m_source_file_index>
2106

> <i_lp_mmshare_version>
43012

> <i_f3d_flags>
0

> <s_epik_input>
W0NIM11jMVtjSF1jKFtDSDNdKW4objEpW0NIMl1DKD1PKVtOSF1bQ0gyXVtDSDJdTjJbQ0gyXVtDQEBIXShbQ0gzXSlPW0NAQEhdKFtDSDNdKVtDSDJdMg==

> <s_epik_cmdline>
J2VwaWtfcHl0aG9uJywgJy1waCcsICc3LjAnLCAnLXRuJywgJzgnLCAnLW1hJywgJzIwMCcsICctbWV0YWxfYmluZGluZycsICctaW1hZScsICc8aW5maWxlLm1hZT4nLCAnLW9tYWUnLCAnPG91dGZpbGUubWFlPic=

> <r_lp_tautomer_probability>
1

> <r_epik_Ionization_Penalty>
0.748586

> <r_epik_Ionization_Penalty_Charging>
0.748396

> <r_epik_Ionization_Penalty_Neutral>
0.000189656

> <r_epik_State_Penalty>
0.775162

> <r_epik_Charging_Adjusted_Penalty>
1.52356

> <i_epik_Tot_Q>
1

> <i_epik_Tot_abs_Q>
1

> <r_epik_Metal_State_Penalty>
0.775295

> <b_epik_Metal_Only>
0

> <s_lp_Force_Field>
OPLS_2005

> <r_lp_Energy>
15.7435

> <b_lp_Chiralities_Consistent>
1

> <s_lp_Variant>
AV-unprocessed.smi:2106-5

> <Gold.Version>
5.8.1

> <Gold.Id.Protein>
6NUR|6NUR_protein|mol2

> <Gold.PLP.Fitness>
41.7208

> <Gold.PLP.PLP>
-31.4910

> <Gold.PLP.part.hbond>
-4.9851

> <Gold.PLP.part.metal>
0.0000

> <Gold.PLP.part.buried>
3.3496

> <Gold.PLP.part.nonpolar>
-29.6432

> <Gold.PLP.part.repulsive>
1.4259

> <Gold.PLP.ligand.clash>
0.0000

> <Gold.PLP.ligand.torsion>
0.9730

> <Gold.PLP.Chemscore.Hbond>
4.0383

> <Gold.PLP.Chemscore.CHOScore>
0.0000

> <Gold.PLP.Chemscore.Metal>
0.0000

> <Gold.Chemscore.Hbonds>
donor molecule, donor type, donor heavy atom, donor atom, acceptor molecule, acceptor atom, score
      L1  H    10    31       P1  7948  1.00
      L1  H    13    48       P1  7948  1.92
      P1  H  7989  7998       L1    21  0.01
      P1  H 10752 10764       L1     9  0.98

> <Gold.PLP.Chemscore.Internal.Correction>
0.0608

> <Gold.Rescore>
     Score         DG    S(hbond)    S(metal)    S(lipo)     H(rot)  DE(clash)    DE(int)     intcor
     15.33     -17.57       2.30        0.00      75.50       1.73       1.19       1.05       ----

> <Gold.Chemscore.Fitness>
15.3339

> <Gold.Chemscore.DG>
-17.5689

> <Gold.Chemscore.ZeroCoef>
-5.4800

> <Gold.Chemscore.Hbond>
2.3018

> <Gold.Chemscore.Metal>
0.0000

> <Gold.Chemscore.Lipo>
75.5032

> <Gold.Chemscore.Internal_Hbond>
0.0000

> <Gold.Chemscore.DEClash>
1.1861

> <Gold.Chemscore.DEInternal>
1.0489

> <Gold.Chemscore.Rot>
1.7316

> <Gold.Chemscore.Internal.Correction>
   9.000000E+99

> <Gold.Chemscore.Hbonds>
donor molecule, donor type, donor heavy atom, donor atom, acceptor molecule, acceptor atom, score
      L1  H    10    31       P1  7948  0.39
      L1  H    13    48       P1  7948  0.83
      P1  H 10752 10764       L1     9  0.32

> <Gold.Chemscore.Hbond.Weighted>
-7.6880

> <Gold.Chemscore.Metal.Weighted>
-0.0000

> <Gold.Chemscore.Lipo.Weighted>
-8.8339

> <Gold.Chemscore.Internal_Hbond.Weighted>
0.0000

> <Gold.Chemscore.DEClash.Weighted>
1.1861

> <Gold.Chemscore.DEInternal.Weighted>
1.0489

> <Gold.Chemscore.Rot.Weighted>
4.4330

> <Gold.Chemscore.Internal.Correction.Weighted>
   9.000000E+99

> <Gold.Protein.RotatedTorsions>
[ 6907 6896 6895 6894 ] final  -54.27 input  -60.11 | X-H torsion
[ 7974 7965 7964 7962 ] final  -13.66 input  175.53 | X-H torsion
[ 8008 7997 7996 7995 ] final  -92.14 input   59.86 | X-H torsion
[ 10167 10162 10161 10158 ] final  -43.10 input  -65.29 | X-H torsion
[ 10718 10713 10712 10709 ] final  158.78 input   66.30 | X-H torsion
[ 10763 10752 10751 10750 ] final  -18.90 input  -60.55 | X-H torsion
[ 11005 11000 10999 10996 ] final  177.76 input  -57.11 | X-H torsion

> <Gold.Protein.ActiveResidues>
 VAL166  LYS551  ARG553  GLY616  TRP617  ASP618  TYR619  PRO620  LYS621  CYS622 
 ASP623  PHE694  ASN695  SER759  ASP760  ASP761  ALA762  ILE779  LEU786  VAL792 
 PHE793  MET794  SER795  GLU796  ALA797  LYS798  CYS799  TRP800  GLU811  SER814 

> <Gold.Protein.RotatedAtoms>
  150.8353  134.7623  159.6887 H   0  0  0  0  0  0  0  0  0  0  0  0  # atno 6907 bound_to 6896
  152.4451  134.5509  159.9876 H   0  0  0  0  0  0  0  0  0  0  0  0  # atno 6908 bound_to 6896
  151.5660  133.3359  159.3016 H   0  0  0  0  0  0  0  0  0  0  0  0  # atno 6909 bound_to 6896
  146.2105  140.3235  142.8392 H   0  0  0  0  0  0  0  0  0  0  0  0  # atno 7974 bound_to 7965
  154.7194  140.0512  157.0625 H   0  0  0  0  0  0  0  0  0  0  0  0  # atno 8008 bound_to 7997
  155.0448  140.3172  155.4693 H   0  0  0  0  0  0  0  0  0  0  0  0  # atno 8009 bound_to 7997
  156.2812  140.2126  156.5572 H   0  0  0  0  0  0  0  0  0  0  0  0  # atno 8010 bound_to 7997
  140.6946  143.3001  151.3304 H   0  0  0  0  0  0  0  0  0  0  0  0  # atno 10167 bound_to 10162
  157.1732  131.0615  151.2172 H   0  0  0  0  0  0  0  0  0  0  0  0  # atno 10718 bound_to 10713
  153.5965  135.7001  153.5402 H   0  0  0  0  0  0  0  0  0  0  0  0  # atno 10763 bound_to 10752
  153.3133  135.4095  155.1354 H   0  0  0  0  0  0  0  0  0  0  0  0  # atno 10764 bound_to 10752
  154.8591  135.3677  154.5499 H   0  0  0  0  0  0  0  0  0  0  0  0  # atno 10765 bound_to 10752
  140.3877  134.6890  157.4489 H   0  0  0  0  0  0  0  0  0  0  0  0  # atno 11005 bound_to 11000
  144.8903  140.7515  143.5931 LP  0  0  0  0  0  0  0  0  0  0  0  0  # atno 17320 bound_to 7965
  145.3158  139.1804  143.4614 LP  0  0  0  0  0  0  0  0  0  0  0  0  # atno 17321 bound_to 7965
  139.6386  144.0583  152.2536 LP  0  0  0  0  0  0  0  0  0  0  0  0  # atno 17342 bound_to 10162
  140.0081  144.6244  150.7671 LP  0  0  0  0  0  0  0  0  0  0  0  0  # atno 17343 bound_to 10162
  157.4023  130.7340  149.6776 LP  0  0  0  0  0  0  0  0  0  0  0  0  # atno 17370 bound_to 10713
  155.9735  130.4117  150.3996 LP  0  0  0  0  0  0  0  0  0  0  0  0  # atno 17371 bound_to 10713
  140.0430  134.6239  155.8956 LP  0  0  0  0  0  0  0  0  0  0  0  0  # atno 17394 bound_to 11000
  141.1902  133.6567  156.5400 LP  0  0  0  0  0  0  0  0  0  0  0  0  # atno 17395 bound_to 11000

$$$$
