AV-unprocessed.smi:1794|AV-procd|sdf|7236|dock1
  -GOLD-   22720 8483D 1   1.00000     0.00000
 Structure written by MMmdl.
 55 57  0  0  0  0  0  0  0  0  4 V2000
  149.4914  132.9305  154.4222 C   0  0  0  0  0  0  0  0  0  0  0  0
  148.8982  134.2726  154.9429 C   0  0  0  0  0  0  0  0  0  0  0  0
  148.3143  133.9813  156.3623 C   0  0  0  0  0  0  0  0  0  0  0  0
  149.9978  135.3896  155.0640 C   0  0  0  0  0  0  0  0  0  0  0  0
  149.5504  136.5215  155.8791 N   0  5  0  0  0  0  0  0  0  0  0  0
  150.3451  137.5507  156.2734 C   0  0  0  0  0  0  0  0  0  0  0  0
  151.5237  137.4991  156.6429 O   0  0  0  0  0  0  0  0  0  0  0  0
  149.6924  138.7249  156.2494 N   0  0  0  0  0  0  0  0  0  0  0  0
  150.1595  140.0123  156.6345 C   0  0  0  0  0  0  0  0  0  0  0  0
  151.3674  140.1637  157.3613 C   0  0  0  0  0  0  0  0  0  0  0  0
  151.8004  141.4469  157.7448 C   0  0  0  0  0  0  0  0  0  0  0  0
  151.0213  142.5610  157.3895 C   0  0  0  0  0  0  0  0  0  0  0  0
  149.8888  142.3858  156.6776 N   0  3  0  0  0  0  0  0  0  0  0  0
  149.4267  141.1780  156.2660 C   0  0  0  0  0  0  0  0  0  0  0  0
  148.2285  141.1541  155.5151 N   0  0  0  0  0  0  0  0  0  0  0  0
  146.9603  141.5243  156.1317 C   0  0  0  0  0  0  0  0  0  0  0  0
  145.9888  141.6941  154.9669 C   0  0  0  0  0  0  0  0  0  0  0  0
  146.8854  142.2639  153.8715 C   0  0  0  0  0  0  0  0  0  0  0  0
  148.2381  141.5889  154.1218 C   0  0  0  0  0  0  0  0  0  0  0  0
  147.8318  134.7904  153.9948 N   0  3  0  0  0  0  0  0  0  0  0  0
  146.9656  133.7566  153.3456 C   0  0  0  0  0  0  0  0  0  0  0  0
  146.1083  134.3835  152.2367 C   0  0  0  0  0  0  0  0  0  0  0  0
  145.2902  135.3975  152.8006 O   0  0  0  0  0  0  0  0  0  0  0  0
  146.0695  136.4439  153.3605 C   0  0  0  0  0  0  0  0  0  0  0  0
  146.9662  135.9012  154.4882 C   0  0  0  0  0  0  0  0  0  0  0  0
  150.1736  132.4762  155.1433 H   0  0  0  0  0  0  0  0  0  0  0  0
  150.0471  133.0314  153.4880 H   0  0  0  0  0  0  0  0  0  0  0  0
  148.7006  132.1996  154.2500 H   0  0  0  0  0  0  0  0  0  0  0  0
  149.0702  133.6280  157.0670 H   0  0  0  0  0  0  0  0  0  0  0  0
  147.5709  133.1842  156.3334 H   0  0  0  0  0  0  0  0  0  0  0  0
  147.8415  134.8552  156.8152 H   0  0  0  0  0  0  0  0  0  0  0  0
  150.9043  134.9470  155.4781 H   0  0  0  0  0  0  0  0  0  0  0  0
  150.2748  135.7151  154.0604 H   0  0  0  0  0  0  0  0  0  0  0  0
  148.7075  138.6632  156.0379 H   0  0  0  0  0  0  0  0  0  0  0  0
  151.9719  139.3091  157.6264 H   0  0  0  0  0  0  0  0  0  0  0  0
  152.7160  141.5721  158.3043 H   0  0  0  0  0  0  0  0  0  0  0  0
  151.2714  143.5811  157.6423 H   0  0  0  0  0  0  0  0  0  0  0  0
  146.6208  140.7624  156.8342 H   0  0  0  0  0  0  0  0  0  0  0  0
  147.0603  142.4692  156.6677 H   0  0  0  0  0  0  0  0  0  0  0  0
  145.5994  140.7220  154.6605 H   0  0  0  0  0  0  0  0  0  0  0  0
  145.1429  142.3387  155.2082 H   0  0  0  0  0  0  0  0  0  0  0  0
  146.5007  142.0817  152.8676 H   0  0  0  0  0  0  0  0  0  0  0  0
  146.9836  143.3423  154.0031 H   0  0  0  0  0  0  0  0  0  0  0  0
  149.0649  142.2677  153.9078 H   0  0  0  0  0  0  0  0  0  0  0  0
  148.3412  140.7119  153.4814 H   0  0  0  0  0  0  0  0  0  0  0  0
  147.5574  132.9511  152.9118 H   0  0  0  0  0  0  0  0  0  0  0  0
  146.3049  133.3017  154.0846 H   0  0  0  0  0  0  0  0  0  0  0  0
  146.7323  134.7917  151.4400 H   0  0  0  0  0  0  0  0  0  0  0  0
  145.4674  133.6263  151.7847 H   0  0  0  0  0  0  0  0  0  0  0  0
  146.6707  136.9183  152.5832 H   0  0  0  0  0  0  0  0  0  0  0  0
  145.3993  137.2095  153.7517 H   0  0  0  0  0  0  0  0  0  0  0  0
  146.3562  135.5490  155.3214 H   0  0  0  0  0  0  0  0  0  0  0  0
  147.5552  136.7443  154.8450 H   0  0  0  0  0  0  0  0  0  0  0  0
  148.3645  135.2049  153.2432 H   0  0  0  0  0  0  0  0  0  0  0  0
  149.3503  143.2146  156.4258 H   0  0  0  0  0  0  0  0  0  0  0  0
  1  2  1  0  0  0  0
  1 26  1  0  0  0  0
  1 27  1  0  0  0  0
  1 28  1  0  0  0  0
  2  3  1  0  0  0  0
  2  4  1  0  0  0  0
  2 20  1  0  0  0  0
  3 29  1  0  0  0  0
  3 30  1  0  0  0  0
  3 31  1  0  0  0  0
  4  5  1  0  0  0  0
  4 32  1  0  0  0  0
  4 33  1  0  0  0  0
  5  6  1  0  0  0  0
  6  7  2  0  0  0  0
  6  8  1  0  0  0  0
  8  9  1  0  0  0  0
  8 34  1  0  0  0  0
  9 14  1  0  0  0  0
  9 10  2  0  0  0  0
 10 11  1  0  0  0  0
 10 35  1  0  0  0  0
 11 12  2  0  0  0  0
 11 36  1  0  0  0  0
 12 13  1  0  0  0  0
 12 37  1  0  0  0  0
 13 14  2  0  0  0  0
 13 55  1  0  0  0  0
 14 15  1  0  0  0  0
 15 19  1  0  0  0  0
 15 16  1  0  0  0  0
 16 17  1  0  0  0  0
 16 38  1  0  0  0  0
 16 39  1  0  0  0  0
 17 18  1  0  0  0  0
 17 40  1  0  0  0  0
 17 41  1  0  0  0  0
 18 19  1  0  0  0  0
 18 42  1  0  0  0  0
 18 43  1  0  0  0  0
 19 44  1  0  0  0  0
 19 45  1  0  0  0  0
 20 25  1  0  0  0  0
 20 21  1  0  0  0  0
 20 54  1  0  0  0  0
 21 22  1  0  0  0  0
 21 46  1  0  0  0  0
 21 47  1  0  0  0  0
 22 23  1  0  0  0  0
 22 48  1  0  0  0  0
 22 49  1  0  0  0  0
 23 24  1  0  0  0  0
 24 25  1  0  0  0  0
 24 50  1  0  0  0  0
 24 51  1  0  0  0  0
 25 52  1  0  0  0  0
 25 53  1  0  0  0  0
M  CHG  1   5  -1
M  CHG  1  13   1
M  CHG  1  20   1
M  END
> <s_m_source_file>
AV-unprocessed.smi

> <i_m_source_file_index>
1794

> <i_lp_mmshare_version>
43012

> <i_f3d_flags>
0

> <s_epik_input>
W0NIMl0xW0NIMl1PW0NIMl1bQ0gyXU4xQyhbQ0gzXSkoW0NIM10pW0NIMl1bTkhdQyg9TylbTkhdYzJbY0hdW2NIXVtjSF1uYzJOM1tDSDJdW0NIMl1bQ0gyXVtDSDJdMw==

> <s_epik_cmdline>
J2VwaWtfcHl0aG9uJywgJy1waCcsICc3LjAnLCAnLXRuJywgJzgnLCAnLW1hJywgJzIwMCcsICctbWV0YWxfYmluZGluZycsICctaW1hZScsICc8aW5maWxlLm1hZT4nLCAnLW9tYWUnLCAnPG91dGZpbGUubWFlPic=

> <r_lp_tautomer_probability>
0.999994

> <r_epik_Ionization_Penalty>
8.57565

> <r_epik_Ionization_Penalty_Charging>
8.57565

> <r_epik_Ionization_Penalty_Neutral>
3.55275e-06

> <r_epik_State_Penalty>
8.56988

> <r_epik_Charging_Adjusted_Penalty>
17.1455

> <i_epik_Tot_Q>
1

> <i_epik_Tot_abs_Q>
3

> <r_epik_Metal_State_Penalty>
4.56715

> <b_epik_Metal_Only>
1

> <s_lp_Force_Field>
OPLS_2005

> <r_lp_Energy>
59.2957

> <b_lp_Chiralities_Consistent>
1

> <s_lp_Variant>
AV-unprocessed.smi:1794-5

> <Gold.Version>
5.8.1

> <Gold.Id.Protein>
6NUR|6NUR_protein|mol2

> <Gold.PLP.Fitness>
41.6060

> <Gold.PLP.PLP>
-31.1404

> <Gold.PLP.part.hbond>
-2.0000

> <Gold.PLP.part.metal>
0.0000

> <Gold.PLP.part.buried>
-3.6871

> <Gold.PLP.part.nonpolar>
-24.7505

> <Gold.PLP.part.repulsive>
0.2799

> <Gold.PLP.ligand.clash>
0.0128

> <Gold.PLP.ligand.torsion>
1.1780

> <Gold.PLP.Chemscore.Hbond>
4.0000

> <Gold.PLP.Chemscore.CHOScore>
0.0000

> <Gold.PLP.Chemscore.Metal>
0.0000

> <Gold.Chemscore.Hbonds>
donor molecule, donor type, donor heavy atom, donor atom, acceptor molecule, acceptor atom, score
      L1  H    13    55       P1  8028  2.00
      L1  H    20    54       P1  7948  2.00

> <Gold.PLP.Chemscore.Internal.Correction>
0.8343

> <Gold.Rescore>
     Score         DG    S(hbond)    S(metal)    S(lipo)     H(rot)  DE(clash)    DE(int)     intcor
     14.26     -17.29       1.99        0.00      79.36       1.60       0.04       2.99       ----

> <Gold.Chemscore.Fitness>
14.2608

> <Gold.Chemscore.DG>
-17.2887

> <Gold.Chemscore.ZeroCoef>
-5.4800

> <Gold.Chemscore.Hbond>
1.9853

> <Gold.Chemscore.Metal>
0.0000

> <Gold.Chemscore.Lipo>
79.3599

> <Gold.Chemscore.Internal_Hbond>
0.0000

> <Gold.Chemscore.DEClash>
0.0357

> <Gold.Chemscore.DEInternal>
2.9922

> <Gold.Chemscore.Rot>
1.6044

> <Gold.Chemscore.Internal.Correction>
   9.000000E+99

> <Gold.Chemscore.Hbonds>
donor molecule, donor type, donor heavy atom, donor atom, acceptor molecule, acceptor atom, score
      L1  H    13    55       P1  8028  1.00
      L1  H    20    54       P1  7948  0.96

> <Gold.Chemscore.Hbond.Weighted>
-6.6308

> <Gold.Chemscore.Metal.Weighted>
-0.0000

> <Gold.Chemscore.Lipo.Weighted>
-9.2851

> <Gold.Chemscore.Internal_Hbond.Weighted>
0.0000

> <Gold.Chemscore.DEClash.Weighted>
0.0357

> <Gold.Chemscore.DEInternal.Weighted>
2.9922

> <Gold.Chemscore.Rot.Weighted>
4.1072

> <Gold.Chemscore.Internal.Correction.Weighted>
   9.000000E+99

> <Gold.Protein.RotatedTorsions>
[ 6907 6896 6895 6894 ] final  100.41 input  -60.11 | X-H torsion
[ 7974 7965 7964 7962 ] final   83.53 input  175.53 | X-H torsion
[ 8008 7997 7996 7995 ] final -131.16 input   59.86 | X-H torsion
[ 10167 10162 10161 10158 ] final  132.64 input  -65.29 | X-H torsion
[ 10718 10713 10712 10709 ] final  -19.79 input   66.30 | X-H torsion
[ 10763 10752 10751 10750 ] final  -87.80 input  -60.55 | X-H torsion
[ 11005 11000 10999 10996 ] final -106.40 input  -57.11 | X-H torsion

> <Gold.Protein.ActiveResidues>
 VAL166  LYS551  ARG553  GLY616  TRP617  ASP618  TYR619  PRO620  LYS621  CYS622 
 ASP623  PHE694  ASN695  SER759  ASP760  ASP761  ALA762  ILE779  LEU786  VAL792 
 PHE793  MET794  SER795  GLU796  ALA797  LYS798  CYS799  TRP800  GLU811  SER814 

> <Gold.Protein.RotatedAtoms>
  152.5372  134.0281  159.8012 H   0  0  0  0  0  0  0  0  0  0  0  0  # atno 6907 bound_to 6896
  151.0457  133.5660  159.2654 H   0  0  0  0  0  0  0  0  0  0  0  0  # atno 6908 bound_to 6896
  151.2613  135.0662  159.9153 H   0  0  0  0  0  0  0  0  0  0  0  0  # atno 6909 bound_to 6896
  145.6108  139.2368  143.2193 H   0  0  0  0  0  0  0  0  0  0  0  0  # atno 7974 bound_to 7965
  155.3078  140.0456  157.3033 H   0  0  0  0  0  0  0  0  0  0  0  0  # atno 8008 bound_to 7997
  154.5450  140.2299  155.8545 H   0  0  0  0  0  0  0  0  0  0  0  0  # atno 8009 bound_to 7997
  156.1916  140.3049  155.9350 H   0  0  0  0  0  0  0  0  0  0  0  0  # atno 8010 bound_to 7997
  139.5331  144.6653  151.4880 H   0  0  0  0  0  0  0  0  0  0  0  0  # atno 10167 bound_to 10162
  156.5408  130.4678  149.6499 H   0  0  0  0  0  0  0  0  0  0  0  0  # atno 10718 bound_to 10713
  154.6376  135.5400  153.7752 H   0  0  0  0  0  0  0  0  0  0  0  0  # atno 10763 bound_to 10752
  153.0317  135.6451  154.1207 H   0  0  0  0  0  0  0  0  0  0  0  0  # atno 10764 bound_to 10752
  154.1134  135.2925  155.3205 H   0  0  0  0  0  0  0  0  0  0  0  0  # atno 10765 bound_to 10752
  141.1006  133.8890  157.1851 H   0  0  0  0  0  0  0  0  0  0  0  0  # atno 11005 bound_to 11000
  146.1506  140.6931  142.9324 LP  0  0  0  0  0  0  0  0  0  0  0  0  # atno 17320 bound_to 7965
  144.7271  140.4557  143.6965 LP  0  0  0  0  0  0  0  0  0  0  0  0  # atno 17321 bound_to 7965
  140.6521  143.8674  150.6797 LP  0  0  0  0  0  0  0  0  0  0  0  0  # atno 17342 bound_to 10162
  140.2042  143.3935  152.1768 LP  0  0  0  0  0  0  0  0  0  0  0  0  # atno 17343 bound_to 10162
  156.2973  130.7157  151.2020 LP  0  0  0  0  0  0  0  0  0  0  0  0  # atno 17370 bound_to 10713
  157.7405  131.0515  150.5159 LP  0  0  0  0  0  0  0  0  0  0  0  0  # atno 17371 bound_to 10713
  139.9857  135.0083  156.9856 LP  0  0  0  0  0  0  0  0  0  0  0  0  # atno 17394 bound_to 11000
  140.5030  134.1078  155.7254 LP  0  0  0  0  0  0  0  0  0  0  0  0  # atno 17395 bound_to 11000

$$$$
