AV-unprocessed.smi:261|AV-procd|sdf|1998|dock7
  -GOLD-   2262021193D 1   1.00000     0.00000
 Structure written by MMmdl.
 51 54  0  0  0  0  0  0  0  0  1 V2000
  155.0066  129.2033  165.1801 C   0  0  0  0  0  0  0  0  0  0  0  0
  155.4120  129.8527  163.9858 O   0  0  0  0  0  0  0  0  0  0  0  0
  156.1607  131.0429  164.2013 C   0  0  2  0  0  0  0  0  0  0  0  0
  155.3970  132.0562  165.0650 C   0  0  0  0  0  0  0  0  0  0  0  0
  154.4820  132.8063  164.0840 C   0  0  2  0  0  0  0  0  0  0  0  0
  153.0939  132.1389  163.9745 C   0  0  0  0  0  0  0  0  0  0  0  0
  152.0220  132.7971  164.4287 N   0  0  0  0  0  0  0  0  0  0  0  0
  152.9970  131.0156  163.4853 O   0  0  0  0  0  0  0  0  0  0  0  0
  155.2595  132.7934  162.8443 N   0  0  0  0  0  0  0  0  0  0  0  0
  155.0764  133.6338  161.7877 C   0  0  0  0  0  0  0  0  0  0  0  0
  155.4984  133.2146  160.5651 N   0  0  0  0  0  0  0  0  0  0  0  0
  155.3448  133.9854  159.4861 C   0  0  0  0  0  0  0  0  0  0  0  0
  154.7993  135.1981  159.4004 N   0  0  0  0  0  0  0  0  0  0  0  0
  154.3690  135.6323  160.6189 C   0  0  0  0  0  0  0  0  0  0  0  0
  154.4705  134.9262  161.8536 C   0  0  0  0  0  0  0  0  0  0  0  0
  153.9294  135.7051  162.8709 N   0  0  0  0  0  0  0  0  0  0  0  0
  153.5328  136.7956  162.2769 C   0  0  0  0  0  0  0  0  0  0  0  0
  153.7456  136.8320  160.9187 N   0  0  0  0  0  0  0  0  0  0  0  0
  153.4017  137.9114  160.0030 C   0  0  0  0  0  0  0  0  0  0  0  0
  154.1436  139.2400  160.2888 C   0  0  1  0  0  0  0  0  0  0  0  0
  155.0774  139.4600  159.2495 O   0  0  0  0  0  0  0  0  0  0  0  0
  153.2280  140.4790  160.3695 C   0  0  1  0  0  0  0  0  0  0  0  0
  153.9627  141.7963  160.6307 C   0  0  0  0  0  0  0  0  0  0  0  0
  153.0210  142.8484  160.0700 C   0  0  0  0  0  0  0  0  0  0  0  0
  152.1164  142.0591  159.1220 C   0  0  0  0  0  0  0  0  0  0  0  0
  152.6671  140.7497  159.0927 O   0  0  0  0  0  0  0  0  0  0  0  0
  156.2994  131.7686  162.8584 C   0  0  0  0  0  0  0  0  0  0  0  0
  157.1419  130.8025  164.6142 H   0  0  0  0  0  0  0  0  0  0  0  0
  154.3519  133.8243  164.4502 H   0  0  0  0  0  0  0  0  0  0  0  0
  154.4492  128.3007  164.9301 H   0  0  0  0  0  0  0  0  0  0  0  0
  154.3596  129.8348  165.7886 H   0  0  0  0  0  0  0  0  0  0  0  0
  155.8689  128.9077  165.7788 H   0  0  0  0  0  0  0  0  0  0  0  0
  154.8653  131.6060  165.9036 H   0  0  0  0  0  0  0  0  0  0  0  0
  156.1094  132.7635  165.4917 H   0  0  0  0  0  0  0  0  0  0  0  0
  151.1091  132.3697  164.3711 H   0  0  0  0  0  0  0  0  0  0  0  0
  152.1307  133.7149  164.8347 H   0  0  0  0  0  0  0  0  0  0  0  0
  155.7089  133.5691  158.5585 H   0  0  0  0  0  0  0  0  0  0  0  0
  153.0719  137.6040  162.8232 H   0  0  0  0  0  0  0  0  0  0  0  0
  153.5985  137.5757  158.9845 H   0  0  0  0  0  0  0  0  0  0  0  0
  152.3245  138.0730  160.0598 H   0  0  0  0  0  0  0  0  0  0  0  0
  154.6929  139.1376  161.2253 H   0  0  0  0  0  0  0  0  0  0  0  0
  155.4191  138.6245  158.9699 H   0  0  0  0  0  0  0  0  0  0  0  0
  152.4295  140.3388  161.1010 H   0  0  0  0  0  0  0  0  0  0  0  0
  154.1951  141.9630  161.6813 H   0  0  0  0  0  0  0  0  0  0  0  0
  154.9014  141.8161  160.0749 H   0  0  0  0  0  0  0  0  0  0  0  0
  152.4302  143.3109  160.8616 H   0  0  0  0  0  0  0  0  0  0  0  0
  153.5695  143.6364  159.5533 H   0  0  0  0  0  0  0  0  0  0  0  0
  151.0975  142.0148  159.5092 H   0  0  0  0  0  0  0  0  0  0  0  0
  152.0830  142.4884  158.1204 H   0  0  0  0  0  0  0  0  0  0  0  0
  157.2735  132.2559  162.7953 H   0  0  0  0  0  0  0  0  0  0  0  0
  156.2095  131.0814  162.0155 H   0  0  0  0  0  0  0  0  0  0  0  0
  1  2  1  0  0  0  0
  1 30  1  0  0  0  0
  1 31  1  0  0  0  0
  1 32  1  0  0  0  0
  2  3  1  0  0  0  0
  3 28  1  0  0  0  0
  3 27  1  0  0  0  0
  3  4  1  0  0  0  0
  4  5  1  0  0  0  0
  4 33  1  0  0  0  0
  4 34  1  0  0  0  0
  5 29  1  0  0  0  0
  5  6  1  0  0  0  0
  5  9  1  0  0  0  0
  6  7  1  0  0  0  0
  6  8  2  0  0  0  0
  7 35  1  0  0  0  0
  7 36  1  0  0  0  0
  9 10  1  0  0  0  0
  9 27  1  0  0  0  0
 10 15  1  0  0  0  0
 10 11  2  0  0  0  0
 11 12  1  0  0  0  0
 12 13  2  0  0  0  0
 12 37  1  0  0  0  0
 13 14  1  0  0  0  0
 14 18  1  0  0  0  0
 14 15  2  0  0  0  0
 15 16  1  0  0  0  0
 16 17  2  0  0  0  0
 17 18  1  0  0  0  0
 17 38  1  0  0  0  0
 18 19  1  0  0  0  0
 19 20  1  0  0  0  0
 19 39  1  0  0  0  0
 19 40  1  0  0  0  0
 20 21  1  0  0  0  0
 20 22  1  0  0  0  0
 20 41  1  0  0  0  0
 21 42  1  0  0  0  0
 22 26  1  0  0  0  0
 22 23  1  0  0  0  0
 22 43  1  0  0  0  0
 23 24  1  0  0  0  0
 23 44  1  0  0  0  0
 23 45  1  0  0  0  0
 24 25  1  0  0  0  0
 24 46  1  0  0  0  0
 24 47  1  0  0  0  0
 25 26  1  0  0  0  0
 25 48  1  0  0  0  0
 25 49  1  0  0  0  0
 27 50  1  0  0  0  0
 27 51  1  0  0  0  0
M  END
> <s_m_source_file>
AV-unprocessed.smi

> <i_m_source_file_index>
261

> <i_lp_mmshare_version>
43012

> <i_f3d_flags>
0

> <s_epik_input>
W0NIM11PW0NASF0xW0NIMl1bQ0BASF0oQyg9TylbTkgyXSlOKFtDSDJdMSljKG5bY0hdbjIpYyhjMjMpbltjSF1uM1tDSDJdW0NASF0oW09IXSlbQ0BASF00W0NIMl1bQ0gyXVtDSDJdTzQ=

> <s_epik_cmdline>
J2VwaWtfcHl0aG9uJywgJy1waCcsICc3LjAnLCAnLXRuJywgJzgnLCAnLW1hJywgJzIwMCcsICctbWV0YWxfYmluZGluZycsICctaW1hZScsICc8aW5maWxlLm1hZT4nLCAnLW9tYWUnLCAnPG91dGZpbGUubWFlPic=

> <r_lp_tautomer_probability>
1

> <r_epik_Ionization_Penalty>
0.000713824

> <r_epik_Ionization_Penalty_Charging>
0

> <r_epik_Ionization_Penalty_Neutral>
0.000713824

> <r_epik_State_Penalty>
0.000402132

> <r_epik_Charging_Adjusted_Penalty>
0.000402132

> <i_epik_Tot_Q>
0

> <i_epik_Tot_abs_Q>
0

> <r_epik_Metal_State_Penalty>
-0

> <b_epik_Metal_Only>
0

> <s_lp_Force_Field>
OPLS_2005

> <r_lp_Energy>
45.1221

> <b_lp_Chiralities_Consistent>
1

> <s_lp_Variant>
AV-unprocessed.smi:261-16

> <Gold.Version>
5.8.1

> <Gold.Id.Protein>
6NUR|6NUR_protein|mol2

> <Gold.PLP.Fitness>
39.6185

> <Gold.PLP.PLP>
-36.1079

> <Gold.PLP.part.hbond>
-2.9929

> <Gold.PLP.part.metal>
0.0000

> <Gold.PLP.part.buried>
-5.2874

> <Gold.PLP.part.nonpolar>
-29.0012

> <Gold.PLP.part.repulsive>
0.1982

> <Gold.PLP.ligand.clash>
0.0000

> <Gold.PLP.ligand.torsion>
1.1587

> <Gold.PLP.Chemscore.Hbond>
1.9025

> <Gold.PLP.Chemscore.CHOScore>
0.0000

> <Gold.PLP.Chemscore.Metal>
0.0000

> <Gold.Chemscore.Hbonds>
donor molecule, donor type, donor heavy atom, donor atom, acceptor molecule, acceptor atom, score
      P1  H  7997  8010       L1    21  0.30

> <Gold.PLP.Chemscore.Internal.Correction>
0.1205

> <Gold.Rescore>
     Score         DG    S(hbond)    S(metal)    S(lipo)     H(rot)  DE(clash)    DE(int)     intcor
      6.22      -9.04       0.97        0.00      72.45       3.18       0.15       2.67       ----

> <Gold.Chemscore.Fitness>
6.2208

> <Gold.Chemscore.DG>
-9.0398

> <Gold.Chemscore.ZeroCoef>
-5.4800

> <Gold.Chemscore.Hbond>
0.9675

> <Gold.Chemscore.Metal>
0.0000

> <Gold.Chemscore.Lipo>
72.4533

> <Gold.Chemscore.Internal_Hbond>
0.0000

> <Gold.Chemscore.DEClash>
0.1465

> <Gold.Chemscore.DEInternal>
2.6725

> <Gold.Chemscore.Rot>
3.1831

> <Gold.Chemscore.Internal.Correction>
   9.000000E+99

> <Gold.Chemscore.Hbonds>
donor molecule, donor type, donor heavy atom, donor atom, acceptor molecule, acceptor atom, score
      P1  H  7997  8010       L1    21  0.01

> <Gold.Chemscore.Hbond.Weighted>
-3.2314

> <Gold.Chemscore.Metal.Weighted>
-0.0000

> <Gold.Chemscore.Lipo.Weighted>
-8.4770

> <Gold.Chemscore.Internal_Hbond.Weighted>
0.0000

> <Gold.Chemscore.DEClash.Weighted>
0.1465

> <Gold.Chemscore.DEInternal.Weighted>
2.6725

> <Gold.Chemscore.Rot.Weighted>
8.1486

> <Gold.Chemscore.Internal.Correction.Weighted>
   9.000000E+99

> <Gold.Protein.RotatedTorsions>
[ 6907 6896 6895 6894 ] final  -48.87 input  -60.11 | X-H torsion
[ 7974 7965 7964 7962 ] final   58.93 input  175.53 | X-H torsion
[ 8008 7997 7996 7995 ] final   17.90 input   59.86 | X-H torsion
[ 10167 10162 10161 10158 ] final -108.65 input  -65.29 | X-H torsion
[ 10718 10713 10712 10709 ] final -112.88 input   66.30 | X-H torsion
[ 10763 10752 10751 10750 ] final  -81.63 input  -60.55 | X-H torsion
[ 11005 11000 10999 10996 ] final   76.54 input  -57.11 | X-H torsion

> <Gold.Protein.ActiveResidues>
 VAL166  LYS551  ARG553  GLY616  TRP617  ASP618  TYR619  PRO620  LYS621  CYS622 
 ASP623  PHE694  ASN695  SER759  ASP760  ASP761  ALA762  ILE779  LEU786  VAL792 
 PHE793  MET794  SER795  GLU796  ALA797  LYS798  CYS799  TRP800  GLU811  SER814 

> <Gold.Protein.RotatedAtoms>
  150.8862  134.8260  159.7260 H   0  0  0  0  0  0  0  0  0  0  0  0  # atno 6907 bound_to 6896
  152.4809  134.4719  159.9648 H   0  0  0  0  0  0  0  0  0  0  0  0  # atno 6908 bound_to 6896
  151.4787  133.3512  159.2870 H   0  0  0  0  0  0  0  0  0  0  0  0  # atno 6909 bound_to 6896
  145.9128  139.3667  143.0525 H   0  0  0  0  0  0  0  0  0  0  0  0  # atno 7974 bound_to 7965
  154.8981  140.2996  155.5333 H   0  0  0  0  0  0  0  0  0  0  0  0  # atno 8008 bound_to 7997
  156.3019  140.2412  156.3940 H   0  0  0  0  0  0  0  0  0  0  0  0  # atno 8009 bound_to 7997
  154.8549  140.0408  157.1617 H   0  0  0  0  0  0  0  0  0  0  0  0  # atno 8010 bound_to 7997
  140.1639  143.4098  152.1405 H   0  0  0  0  0  0  0  0  0  0  0  0  # atno 10167 bound_to 10162
  156.0733  130.5943  150.8568 H   0  0  0  0  0  0  0  0  0  0  0  0  # atno 10718 bound_to 10713
  154.5660  135.5619  153.7050 H   0  0  0  0  0  0  0  0  0  0  0  0  # atno 10763 bound_to 10752
  153.0033  135.6285  154.2180 H   0  0  0  0  0  0  0  0  0  0  0  0  # atno 10764 bound_to 10752
  154.2119  135.2873  155.2935 H   0  0  0  0  0  0  0  0  0  0  0  0  # atno 10765 bound_to 10752
  139.9293  134.7609  156.1409 H   0  0  0  0  0  0  0  0  0  0  0  0  # atno 11005 bound_to 11000
  145.8650  140.9453  143.0680 LP  0  0  0  0  0  0  0  0  0  0  0  0  # atno 17320 bound_to 7965
  144.6745  140.0580  143.7477 LP  0  0  0  0  0  0  0  0  0  0  0  0  # atno 17321 bound_to 7965
  139.5368  144.7218  151.4865 LP  0  0  0  0  0  0  0  0  0  0  0  0  # atno 17342 bound_to 10162
  140.6626  143.8467  150.6904 LP  0  0  0  0  0  0  0  0  0  0  0  0  # atno 17343 bound_to 10162
  157.5815  131.0946  150.9264 LP  0  0  0  0  0  0  0  0  0  0  0  0  # atno 17370 bound_to 10713
  156.9458  130.5401  149.5281 LP  0  0  0  0  0  0  0  0  0  0  0  0  # atno 17371 bound_to 10713
  141.0872  133.6729  156.2462 LP  0  0  0  0  0  0  0  0  0  0  0  0  # atno 17394 bound_to 11000
  140.6246  134.5327  157.5552 LP  0  0  0  0  0  0  0  0  0  0  0  0  # atno 17395 bound_to 11000

$$$$
