AV-unprocessed.smi:3166|AV-procd|sdf|12093|dock6
  -GOLD-   2272017523D 1   1.00000     0.00000
 Structure written by MMmdl.
 41 42  0  0  0  0  0  0  0  0  2 V2000
  151.1092  139.9567  156.8083 C   0  0  0  0  0  0  0  0  0  0  0  0
  150.0459  140.9926  156.4173 C   0  0  2  0  0  0  0  0  0  0  0  0
  149.5921  140.8044  154.9485 C   0  0  0  0  0  0  0  0  0  0  0  0
  148.2773  141.3681  154.7020 N   0  0  0  0  0  0  0  0  0  0  0  0
  147.6047  141.4730  153.5026 C   0  0  0  0  0  0  0  0  0  0  0  0
  146.4018  142.0648  153.7619 C   0  0  0  0  0  0  0  0  0  0  0  0
  146.4300  142.2869  155.1669 C   0  0  0  0  0  0  0  0  0  0  0  0
  147.5541  141.8689  155.7262 N   0  0  0  0  0  0  0  0  0  0  0  0
  150.5813  142.3516  156.6558 N   0  3  0  0  0  0  0  0  0  0  0  0
  150.4674  142.8463  158.0455 C   0  0  0  0  0  0  0  0  0  0  0  0
  151.3967  144.0540  158.3163 C   0  0  0  0  0  0  0  0  0  0  0  0
  151.5429  144.7475  157.0915 O   0  0  0  0  0  0  0  0  0  0  0  0
  150.8349  145.0398  159.3705 C   0  0  0  0  0  0  0  0  0  0  0  0
  150.8502  144.4484  160.7911 C   0  0  0  0  0  0  0  0  0  0  0  0
  152.2634  143.9935  161.1874 C   0  0  0  0  0  0  0  0  0  0  0  0
  152.8456  143.0082  160.1619 C   0  0  0  0  0  0  0  0  0  0  0  0
  152.8122  143.5939  158.7380 C   0  0  0  0  0  0  0  0  0  0  0  0
  150.7287  138.9415  156.6896 H   0  0  0  0  0  0  0  0  0  0  0  0
  151.4073  140.0734  157.8508 H   0  0  0  0  0  0  0  0  0  0  0  0
  152.0043  140.0518  156.1924 H   0  0  0  0  0  0  0  0  0  0  0  0
  149.1995  140.8460  157.0909 H   0  0  0  0  0  0  0  0  0  0  0  0
  150.3023  141.2458  154.2473 H   0  0  0  0  0  0  0  0  0  0  0  0
  149.5477  139.7454  154.6904 H   0  0  0  0  0  0  0  0  0  0  0  0
  148.0325  141.1212  152.5752 H   0  0  0  0  0  0  0  0  0  0  0  0
  145.6202  142.3029  153.0554 H   0  0  0  0  0  0  0  0  0  0  0  0
  145.6727  142.7358  155.7926 H   0  0  0  0  0  0  0  0  0  0  0  0
  151.5657  142.3409  156.4294 H   0  0  0  0  0  0  0  0  0  0  0  0
  149.4333  143.1237  158.2362 H   0  0  0  0  0  0  0  0  0  0  0  0
  150.7041  142.0314  158.7312 H   0  0  0  0  0  0  0  0  0  0  0  0
  150.7106  144.7439  156.6424 H   0  0  0  0  0  0  0  0  0  0  0  0
  151.4379  145.9494  159.3721 H   0  0  0  0  0  0  0  0  0  0  0  0
  149.8243  145.3570  159.1122 H   0  0  0  0  0  0  0  0  0  0  0  0
  150.4908  145.1918  161.5030 H   0  0  0  0  0  0  0  0  0  0  0  0
  150.1592  143.6076  160.8560 H   0  0  0  0  0  0  0  0  0  0  0  0
  152.9162  144.8637  161.2656 H   0  0  0  0  0  0  0  0  0  0  0  0
  152.2434  143.5339  162.1761 H   0  0  0  0  0  0  0  0  0  0  0  0
  153.8725  142.7612  160.4327 H   0  0  0  0  0  0  0  0  0  0  0  0
  152.2911  142.0702  160.1963 H   0  0  0  0  0  0  0  0  0  0  0  0
  153.2019  142.8623  158.0289 H   0  0  0  0  0  0  0  0  0  0  0  0
  153.4976  144.4423  158.7008 H   0  0  0  0  0  0  0  0  0  0  0  0
  150.1188  143.0007  156.0358 H   0  0  0  0  0  0  0  0  0  0  0  0
  1  2  1  0  0  0  0
  1 18  1  0  0  0  0
  1 19  1  0  0  0  0
  1 20  1  0  0  0  0
  2  3  1  0  0  0  0
  2  9  1  0  0  0  0
  2 21  1  0  0  0  0
  3  4  1  0  0  0  0
  3 22  1  0  0  0  0
  3 23  1  0  0  0  0
  4  8  1  0  0  0  0
  4  5  1  0  0  0  0
  5  6  2  0  0  0  0
  5 24  1  0  0  0  0
  6  7  1  0  0  0  0
  6 25  1  0  0  0  0
  7  8  2  0  0  0  0
  7 26  1  0  0  0  0
  9 10  1  0  0  0  0
  9 27  1  0  0  0  0
  9 41  1  0  0  0  0
 10 11  1  0  0  0  0
 10 28  1  0  0  0  0
 10 29  1  0  0  0  0
 11 17  1  0  0  0  0
 11 12  1  0  0  0  0
 11 13  1  0  0  0  0
 12 30  1  0  0  0  0
 13 14  1  0  0  0  0
 13 31  1  0  0  0  0
 13 32  1  0  0  0  0
 14 15  1  0  0  0  0
 14 33  1  0  0  0  0
 14 34  1  0  0  0  0
 15 16  1  0  0  0  0
 15 35  1  0  0  0  0
 15 36  1  0  0  0  0
 16 17  1  0  0  0  0
 16 37  1  0  0  0  0
 16 38  1  0  0  0  0
 17 39  1  0  0  0  0
 17 40  1  0  0  0  0
M  CHG  1   9   1
M  END
> <s_m_source_file>
AV-unprocessed.smi

> <i_m_source_file_index>
3166

> <i_lp_mmshare_version>
43012

> <i_f3d_flags>
0

> <s_epik_input>
bjFbY0hdW2NIXVtjSF1uMVtDSDJdW0NAQEhdKFtDSDNdKVtOSF1bQ0gyXUMyKFtPSF0pW0NIMl1bQ0gyXVtDSDJdW0NIMl1bQ0gyXTI=

> <s_epik_cmdline>
J2VwaWtfcHl0aG9uJywgJy1waCcsICc3LjAnLCAnLXRuJywgJzgnLCAnLW1hJywgJzIwMCcsICctbWV0YWxfYmluZGluZycsICctaW1hZScsICc8aW5maWxlLm1hZT4nLCAnLW9tYWUnLCAnPG91dGZpbGUubWFlPic=

> <r_lp_tautomer_probability>
1

> <r_epik_Ionization_Penalty>
0.0111521

> <r_epik_Ionization_Penalty_Charging>
0.0111472

> <r_epik_Ionization_Penalty_Neutral>
4.96355e-06

> <r_epik_State_Penalty>
0.00856328

> <r_epik_Charging_Adjusted_Penalty>
0.0197104

> <i_epik_Tot_Q>
1

> <i_epik_Tot_abs_Q>
1

> <r_epik_Metal_State_Penalty>
0.00856387

> <b_epik_Metal_Only>
0

> <s_lp_Force_Field>
OPLS_2005

> <r_lp_Energy>
18.587

> <b_lp_Chiralities_Consistent>
1

> <s_lp_Variant>
AV-unprocessed.smi:3166-1

> <Gold.Version>
5.8.1

> <Gold.Id.Protein>
6NUR|6NUR_protein|mol2

> <Gold.PLP.Fitness>
49.1657

> <Gold.PLP.PLP>
-39.4192

> <Gold.PLP.part.hbond>
-2.0000

> <Gold.PLP.part.metal>
0.0000

> <Gold.PLP.part.buried>
-3.7042

> <Gold.PLP.part.nonpolar>
-35.5206

> <Gold.PLP.part.repulsive>
0.8413

> <Gold.PLP.ligand.clash>
0.0000

> <Gold.PLP.ligand.torsion>
1.1315

> <Gold.PLP.Chemscore.Hbond>
3.0000

> <Gold.PLP.Chemscore.CHOScore>
0.9925

> <Gold.PLP.Chemscore.Metal>
0.0000

> <Gold.Chemscore.Hbonds>
donor molecule, donor type, donor heavy atom, donor atom, acceptor molecule, acceptor atom, score
      L1  H     9    41       P1  8028  1.43
      L1  H    12    30       P1  8028  0.99
      L1  C     5    24       P1  7957  1.00

> <Gold.PLP.Chemscore.Internal.Correction>
0.0322

> <Gold.Rescore>
     Score         DG    S(hbond)    S(metal)    S(lipo)     H(rot)  DE(clash)    DE(int)     intcor
     17.25     -19.93       1.92        0.00     116.85       2.20       1.49       1.18       ----

> <Gold.Chemscore.Fitness>
17.2497

> <Gold.Chemscore.DG>
-19.9252

> <Gold.Chemscore.ZeroCoef>
-5.4800

> <Gold.Chemscore.Hbond>
1.9173

> <Gold.Chemscore.Metal>
0.0000

> <Gold.Chemscore.Lipo>
116.8463

> <Gold.Chemscore.Internal_Hbond>
0.0000

> <Gold.Chemscore.DEClash>
1.4938

> <Gold.Chemscore.DEInternal>
1.1816

> <Gold.Chemscore.Rot>
2.1991

> <Gold.Chemscore.Internal.Correction>
   9.000000E+99

> <Gold.Chemscore.Hbonds>
donor molecule, donor type, donor heavy atom, donor atom, acceptor molecule, acceptor atom, score
      L1  H     9    41       P1  8028  0.68
      L1  H    12    30       P1  8028  0.86

> <Gold.Chemscore.Hbond.Weighted>
-6.4039

> <Gold.Chemscore.Metal.Weighted>
-0.0000

> <Gold.Chemscore.Lipo.Weighted>
-13.6710

> <Gold.Chemscore.Internal_Hbond.Weighted>
0.0000

> <Gold.Chemscore.DEClash.Weighted>
1.4938

> <Gold.Chemscore.DEInternal.Weighted>
1.1816

> <Gold.Chemscore.Rot.Weighted>
5.6298

> <Gold.Chemscore.Internal.Correction.Weighted>
   9.000000E+99

> <Gold.Protein.RotatedTorsions>
[ 6907 6896 6895 6894 ] final  146.79 input  -60.11 | X-H torsion
[ 7974 7965 7964 7962 ] final  121.49 input  175.53 | X-H torsion
[ 8008 7997 7996 7995 ] final  -30.27 input   59.86 | X-H torsion
[ 10167 10162 10161 10158 ] final -140.13 input  -65.29 | X-H torsion
[ 10718 10713 10712 10709 ] final  115.58 input   66.30 | X-H torsion
[ 10763 10752 10751 10750 ] final -160.53 input  -60.55 | X-H torsion
[ 11005 11000 10999 10996 ] final  107.59 input  -57.11 | X-H torsion

> <Gold.Protein.ActiveResidues>
 VAL166  LYS551  ARG553  GLY616  TRP617  ASP618  TYR619  PRO620  LYS621  CYS622 
 ASP623  PHE694  ASN695  SER759  ASP760  ASP761  ALA762  ILE779  LEU786  VAL792 
 PHE793  MET794  SER795  GLU796  ALA797  LYS798  CYS799  TRP800  GLU811  SER814 

> <Gold.Protein.RotatedAtoms>
  152.1633  133.4596  159.4871 H   0  0  0  0  0  0  0  0  0  0  0  0  # atno 6907 bound_to 6896
  150.6909  134.2044  159.4344 H   0  0  0  0  0  0  0  0  0  0  0  0  # atno 6908 bound_to 6896
  151.9948  134.9960  160.0613 H   0  0  0  0  0  0  0  0  0  0  0  0  # atno 6909 bound_to 6896
  145.1187  139.3403  143.4725 H   0  0  0  0  0  0  0  0  0  0  0  0  # atno 7974 bound_to 7965
  154.4257  140.1796  156.1380 H   0  0  0  0  0  0  0  0  0  0  0  0  # atno 8008 bound_to 7997
  156.0014  140.3359  155.6824 H   0  0  0  0  0  0  0  0  0  0  0  0  # atno 8009 bound_to 7997
  155.6237  140.0662  157.2661 H   0  0  0  0  0  0  0  0  0  0  0  0  # atno 8010 bound_to 7997
  139.8311  143.7445  152.2666 H   0  0  0  0  0  0  0  0  0  0  0  0  # atno 10167 bound_to 10162
  157.6213  131.1014  150.7350 H   0  0  0  0  0  0  0  0  0  0  0  0  # atno 10718 bound_to 10713
  154.7382  135.3062  154.8775 H   0  0  0  0  0  0  0  0  0  0  0  0  # atno 10763 bound_to 10752
  153.9597  135.6754  153.4749 H   0  0  0  0  0  0  0  0  0  0  0  0  # atno 10764 bound_to 10752
  153.0983  135.4925  154.8743 H   0  0  0  0  0  0  0  0  0  0  0  0  # atno 10765 bound_to 10752
  139.8830  134.9405  156.5842 H   0  0  0  0  0  0  0  0  0  0  0  0  # atno 11005 bound_to 11000
  146.3522  140.1137  142.8603 LP  0  0  0  0  0  0  0  0  0  0  0  0  # atno 17320 bound_to 7965
  145.0765  140.9191  143.4851 LP  0  0  0  0  0  0  0  0  0  0  0  0  # atno 17321 bound_to 7965
  139.7653  144.7494  151.0303 LP  0  0  0  0  0  0  0  0  0  0  0  0  # atno 17342 bound_to 10162
  140.7806  143.4705  151.0153 LP  0  0  0  0  0  0  0  0  0  0  0  0  # atno 17343 bound_to 10162
  156.7707  130.4828  149.5419 LP  0  0  0  0  0  0  0  0  0  0  0  0  # atno 17370 bound_to 10713
  156.1360  130.6211  151.0401 LP  0  0  0  0  0  0  0  0  0  0  0  0  # atno 17371 bound_to 10713
  140.8004  133.8510  155.8722 LP  0  0  0  0  0  0  0  0  0  0  0  0  # atno 17394 bound_to 11000
  140.9598  134.1671  157.4663 LP  0  0  0  0  0  0  0  0  0  0  0  0  # atno 17395 bound_to 11000

$$$$
