AV-unprocessed.smi:2079|AV-procd|sdf|8482|dock4
  -GOLD-   2272011183D 1   1.00000     0.00000
 Structure written by MMmdl.
 41 42  0  0  0  0  0  0  0  0  3 V2000
  146.3064  136.0032  162.5147 C   0  0  0  0  0  0  0  0  0  0  0  0
  147.1884  135.9417  161.3146 C   0  0  0  0  0  0  0  0  0  0  0  0
  147.6777  134.9018  160.5761 C   0  0  0  0  0  0  0  0  0  0  0  0
  148.4553  135.5497  159.5778 C   0  0  0  0  0  0  0  0  0  0  0  0
  149.1353  134.9431  158.5925 N   0  5  0  0  0  0  0  0  0  0  0  0
  149.2365  135.5258  157.3760 C   0  0  0  0  0  0  0  0  0  0  0  0
  149.8391  136.5680  157.1090 O   0  0  0  0  0  0  0  0  0  0  0  0
  148.5996  134.8578  156.4054 N   0  0  0  0  0  0  0  0  0  0  0  0
  148.5423  135.2639  155.0081 C   0  0  0  0  0  0  0  0  0  0  0  0
  147.0859  135.5338  154.5904 C   0  0  0  0  0  0  0  0  0  0  0  0
  146.8327  135.2700  153.1440 N   0  3  1  0  0  0  0  0  0  0  0  0
  146.8892  133.8106  152.8366 C   0  0  0  0  0  0  0  0  0  0  0  0
  146.7596  133.5290  151.3334 C   0  0  0  0  0  0  0  0  0  0  0  0
  145.4585  134.1164  150.7889 C   0  0  0  0  0  0  0  0  0  0  0  0
  145.4109  135.6126  151.1053 C   0  0  0  0  0  0  0  0  0  0  0  0
  145.5736  135.8946  152.6164 C   0  0  2  0  0  0  0  0  0  0  0  0
  145.5072  137.4210  152.8357 C   0  0  0  0  0  0  0  0  0  0  0  0
  148.4277  136.8672  159.6909 N   0  0  0  0  0  0  0  0  0  0  0  0
  147.6226  137.1265  160.8066 O   0  0  0  0  0  0  0  0  0  0  0  0
  145.3909  135.4348  162.3499 H   0  0  0  0  0  0  0  0  0  0  0  0
  146.0278  137.0316  162.7463 H   0  0  0  0  0  0  0  0  0  0  0  0
  146.8124  135.5859  163.3852 H   0  0  0  0  0  0  0  0  0  0  0  0
  147.5089  133.8460  160.7263 H   0  0  0  0  0  0  0  0  0  0  0  0
  148.1179  134.0089  156.6633 H   0  0  0  0  0  0  0  0  0  0  0  0
  149.1463  136.1621  154.8704 H   0  0  0  0  0  0  0  0  0  0  0  0
  148.9922  134.4725  154.4096 H   0  0  0  0  0  0  0  0  0  0  0  0
  146.3957  134.9454  155.1969 H   0  0  0  0  0  0  0  0  0  0  0  0
  146.8933  136.5755  154.8339 H   0  0  0  0  0  0  0  0  0  0  0  0
  147.8294  133.3780  153.1724 H   0  0  0  0  0  0  0  0  0  0  0  0
  146.0961  133.2951  153.3807 H   0  0  0  0  0  0  0  0  0  0  0  0
  147.6117  133.9549  150.8020 H   0  0  0  0  0  0  0  0  0  0  0  0
  146.7862  132.4539  151.1521 H   0  0  0  0  0  0  0  0  0  0  0  0
  145.3906  133.9541  149.7127 H   0  0  0  0  0  0  0  0  0  0  0  0
  144.6024  133.6118  151.2386 H   0  0  0  0  0  0  0  0  0  0  0  0
  146.1971  136.1248  150.5482 H   0  0  0  0  0  0  0  0  0  0  0  0
  144.4659  136.0225  150.7467 H   0  0  0  0  0  0  0  0  0  0  0  0
  144.7303  135.4408  153.1400 H   0  0  0  0  0  0  0  0  0  0  0  0
  144.6710  137.8558  152.2873 H   0  0  0  0  0  0  0  0  0  0  0  0
  146.4161  137.9141  152.4896 H   0  0  0  0  0  0  0  0  0  0  0  0
  145.3466  137.6880  153.8793 H   0  0  0  0  0  0  0  0  0  0  0  0
  147.5930  135.7046  152.6408 H   0  0  0  0  0  0  0  0  0  0  0  0
  1  2  1  0  0  0  0
  1 20  1  0  0  0  0
  1 21  1  0  0  0  0
  1 22  1  0  0  0  0
  2 19  1  0  0  0  0
  2  3  2  0  0  0  0
  3  4  1  0  0  0  0
  3 23  1  0  0  0  0
  4  5  1  0  0  0  0
  4 18  2  0  0  0  0
  5  6  1  0  0  0  0
  6  7  2  0  0  0  0
  6  8  1  0  0  0  0
  8  9  1  0  0  0  0
  8 24  1  0  0  0  0
  9 10  1  0  0  0  0
  9 25  1  0  0  0  0
  9 26  1  0  0  0  0
 10 11  1  0  0  0  0
 10 27  1  0  0  0  0
 10 28  1  0  0  0  0
 11 16  1  0  0  0  0
 11 12  1  0  0  0  0
 11 41  1  0  0  0  0
 12 13  1  0  0  0  0
 12 29  1  0  0  0  0
 12 30  1  0  0  0  0
 13 14  1  0  0  0  0
 13 31  1  0  0  0  0
 13 32  1  0  0  0  0
 14 15  1  0  0  0  0
 14 33  1  0  0  0  0
 14 34  1  0  0  0  0
 15 16  1  0  0  0  0
 15 35  1  0  0  0  0
 15 36  1  0  0  0  0
 16 17  1  0  0  0  0
 16 37  1  0  0  0  0
 17 38  1  0  0  0  0
 17 39  1  0  0  0  0
 17 40  1  0  0  0  0
 18 19  1  0  0  0  0
M  CHG  1   5  -1
M  CHG  1  11   1
M  END
> <s_m_source_file>
AV-unprocessed.smi

> <i_m_source_file_index>
2079

> <i_lp_mmshare_version>
43012

> <i_f3d_flags>
0

> <s_epik_input>
W0NIM11jMVtjSF1jKG5vMSlbTkhdQyg9TylbTkhdW0NIMl1bQ0gyXU4yW0NIMl1bQ0gyXVtDSDJdW0NIMl1bQ0BIXTJbQ0gzXQ==

> <s_epik_cmdline>
J2VwaWtfcHl0aG9uJywgJy1waCcsICc3LjAnLCAnLXRuJywgJzgnLCAnLW1hJywgJzIwMCcsICctbWV0YWxfYmluZGluZycsICctaW1hZScsICc8aW5maWxlLm1hZT4nLCAnLW9tYWUnLCAnPG91dGZpbGUubWFlPic=

> <r_epik_Ionization_Penalty>
6.22371

> <r_epik_Ionization_Penalty_Charging>
6.22362

> <r_epik_Ionization_Penalty_Neutral>
9.40454e-05

> <r_epik_State_Penalty>
6.22363

> <r_epik_Charging_Adjusted_Penalty>
12.4472

> <i_epik_Tot_Q>
0

> <i_epik_Tot_abs_Q>
2

> <r_epik_Metal_State_Penalty>
2.16675

> <b_epik_Metal_Only>
1

> <s_lp_Force_Field>
OPLS_2005

> <r_lp_Energy>
8.88901

> <b_lp_Chiralities_Consistent>
1

> <s_lp_Variant>
AV-unprocessed.smi:2079-8

> <Gold.Version>
5.8.1

> <Gold.Id.Protein>
6NUR|6NUR_protein|mol2

> <Gold.PLP.Fitness>
41.4765

> <Gold.PLP.PLP>
-26.5348

> <Gold.PLP.part.hbond>
-4.0000

> <Gold.PLP.part.metal>
0.0000

> <Gold.PLP.part.buried>
-3.2264

> <Gold.PLP.part.nonpolar>
-18.8442

> <Gold.PLP.part.repulsive>
0.0198

> <Gold.PLP.ligand.clash>
0.0000

> <Gold.PLP.ligand.torsion>
1.1464

> <Gold.PLP.Chemscore.Hbond>
5.7280

> <Gold.PLP.Chemscore.CHOScore>
0.0000

> <Gold.PLP.Chemscore.Metal>
0.0000

> <Gold.Chemscore.Hbonds>
donor molecule, donor type, donor heavy atom, donor atom, acceptor molecule, acceptor atom, score
      L1  H    11    41       P1  7948  2.00
      P1  H  6896  6909       L1     5  2.00
      P1  H  6931  6943       L1    19  0.59
      P1  H  6934  6947       L1    19  0.96

> <Gold.PLP.Chemscore.Internal.Correction>
0.0505

> <Gold.Rescore>
     Score         DG    S(hbond)    S(metal)    S(lipo)     H(rot)  DE(clash)    DE(int)     intcor
     15.07     -17.33       2.74        0.00      56.79       1.54       0.02       2.24       ----

> <Gold.Chemscore.Fitness>
15.0739

> <Gold.Chemscore.DG>
-17.3340

> <Gold.Chemscore.ZeroCoef>
-5.4800

> <Gold.Chemscore.Hbond>
2.7407

> <Gold.Chemscore.Metal>
0.0000

> <Gold.Chemscore.Lipo>
56.7924

> <Gold.Chemscore.Internal_Hbond>
0.0000

> <Gold.Chemscore.DEClash>
0.0174

> <Gold.Chemscore.DEInternal>
2.2427

> <Gold.Chemscore.Rot>
1.5409

> <Gold.Chemscore.Internal.Correction>
   9.000000E+99

> <Gold.Chemscore.Hbonds>
donor molecule, donor type, donor heavy atom, donor atom, acceptor molecule, acceptor atom, score
      L1  H    11    41       P1  7948  1.00
      P1  H  6896  6909       L1     5  0.62
      P1  H  6931  6943       L1    19  0.09
      P1  H  6934  6947       L1    19  0.72

> <Gold.Chemscore.Hbond.Weighted>
-9.1539

> <Gold.Chemscore.Metal.Weighted>
-0.0000

> <Gold.Chemscore.Lipo.Weighted>
-6.6447

> <Gold.Chemscore.Internal_Hbond.Weighted>
0.0000

> <Gold.Chemscore.DEClash.Weighted>
0.0174

> <Gold.Chemscore.DEInternal.Weighted>
2.2427

> <Gold.Chemscore.Rot.Weighted>
3.9446

> <Gold.Chemscore.Internal.Correction.Weighted>
   9.000000E+99

> <Gold.Protein.RotatedTorsions>
[ 6907 6896 6895 6894 ] final   19.33 input  -60.11 | X-H torsion
[ 7974 7965 7964 7962 ] final -174.00 input  175.53 | X-H torsion
[ 8008 7997 7996 7995 ] final   84.69 input   59.86 | X-H torsion
[ 10167 10162 10161 10158 ] final  142.24 input  -65.29 | X-H torsion
[ 10718 10713 10712 10709 ] final   -1.73 input   66.30 | X-H torsion
[ 10763 10752 10751 10750 ] final -122.28 input  -60.55 | X-H torsion
[ 11005 11000 10999 10996 ] final  149.15 input  -57.11 | X-H torsion

> <Gold.Protein.ActiveResidues>
 VAL166  LYS551  ARG553  GLY616  TRP617  ASP618  TYR619  PRO620  LYS621  CYS622 
 ASP623  PHE694  ASN695  SER759  ASP760  ASP761  ALA762  ILE779  LEU786  VAL792 
 PHE793  MET794  SER795  GLU796  ALA797  LYS798  CYS799  TRP800  GLU811  SER814 

> <Gold.Protein.RotatedAtoms>
  151.8791  135.0460  160.0486 H   0  0  0  0  0  0  0  0  0  0  0  0  # atno 6907 bound_to 6896
  152.2527  133.5224  159.5343 H   0  0  0  0  0  0  0  0  0  0  0  0  # atno 6908 bound_to 6896
  150.7089  134.0855  159.3955 H   0  0  0  0  0  0  0  0  0  0  0  0  # atno 6909 bound_to 6896
  144.7134  140.1537  143.6382 H   0  0  0  0  0  0  0  0  0  0  0  0  # atno 7974 bound_to 7965
  155.9404  140.3408  155.6322 H   0  0  0  0  0  0  0  0  0  0  0  0  # atno 8008 bound_to 7997
  155.7047  140.0764  157.2414 H   0  0  0  0  0  0  0  0  0  0  0  0  # atno 8009 bound_to 7997
  154.4101  140.1633  156.2217 H   0  0  0  0  0  0  0  0  0  0  0  0  # atno 8010 bound_to 7997
  139.4999  144.6119  151.6251 H   0  0  0  0  0  0  0  0  0  0  0  0  # atno 10167 bound_to 10162
  156.8013  130.5394  149.5721 H   0  0  0  0  0  0  0  0  0  0  0  0  # atno 10718 bound_to 10713
  154.8686  135.4138  154.2755 H   0  0  0  0  0  0  0  0  0  0  0  0  # atno 10763 bound_to 10752
  153.3658  135.7005  153.6682 H   0  0  0  0  0  0  0  0  0  0  0  0  # atno 10764 bound_to 10752
  153.5564  135.3618  155.2753 H   0  0  0  0  0  0  0  0  0  0  0  0  # atno 10765 bound_to 10752
  140.1020  134.8977  157.1810 H   0  0  0  0  0  0  0  0  0  0  0  0  # atno 11005 bound_to 11000
  145.9093  139.2477  143.1447 LP  0  0  0  0  0  0  0  0  0  0  0  0  # atno 17320 bound_to 7965
  145.9732  140.8743  143.0152 LP  0  0  0  0  0  0  0  0  0  0  0  0  # atno 17321 bound_to 7965
  140.5797  143.9968  150.6261 LP  0  0  0  0  0  0  0  0  0  0  0  0  # atno 17342 bound_to 10162
  140.3113  143.3196  152.0876 LP  0  0  0  0  0  0  0  0  0  0  0  0  # atno 17343 bound_to 10162
  156.1099  130.6033  151.0031 LP  0  0  0  0  0  0  0  0  0  0  0  0  # atno 17370 bound_to 10713
  157.6552  131.0890  150.7963 LP  0  0  0  0  0  0  0  0  0  0  0  0  # atno 17371 bound_to 10713
  140.3207  134.2920  155.7247 LP  0  0  0  0  0  0  0  0  0  0  0  0  # atno 17394 bound_to 11000
  141.2108  133.7708  156.9906 LP  0  0  0  0  0  0  0  0  0  0  0  0  # atno 17395 bound_to 11000

$$$$
