AV-unprocessed.smi:3337|AV-procd|sdf|12861|dock7
  -GOLD-   2272019253D 1   1.00000     0.00000
 Structure written by MMmdl.
 46 47  0  0  0  0  0  0  0  0  2 V2000
  147.2889  133.5777  153.5043 C   0  0  0  0  0  0  0  0  0  0  0  0
  146.9627  132.5619  152.4003 C   0  0  2  0  0  0  0  0  0  0  0  0
  145.5188  132.7301  151.8944 C   0  0  0  0  0  0  0  0  0  0  0  0
  145.1618  131.6758  150.8309 C   0  0  1  0  0  0  0  0  0  0  0  0
  145.8169  131.9537  149.4666 C   0  0  0  0  0  0  0  0  0  0  0  0
  145.4727  130.2576  151.3496 C   0  0  0  0  0  0  0  0  0  0  0  0
  146.8812  130.1326  151.8079 N   0  3  2  0  0  0  0  0  0  0  0  0
  147.2253  128.7366  152.1778 C   0  0  0  0  0  0  0  0  0  0  0  0
  148.7128  128.5727  152.5473 C   0  0  0  0  0  0  0  0  0  0  0  0
  149.1881  127.2233  152.2656 N   0  0  0  0  0  0  0  0  0  0  0  0
  148.5796  126.0959  152.6668 C   0  0  0  0  0  0  0  0  0  0  0  0
  147.5364  126.0954  153.3214 O   0  0  0  0  0  0  0  0  0  0  0  0
  149.2528  124.7743  152.2670 C   0  0  2  0  0  0  0  0  0  0  0  0
  150.6710  124.6395  152.8575 C   0  0  0  0  0  0  0  0  0  0  0  0
  149.2391  124.6208  150.8175 N   0  0  0  0  0  0  0  0  0  0  0  0
  149.9336  125.2697  149.8800 C   0  0  0  0  0  0  0  0  0  0  0  0
  149.7060  124.8409  148.6466 N   0  0  0  0  0  0  0  0  0  0  0  0
  148.8059  123.8486  148.9127 C   0  0  0  0  0  0  0  0  0  0  0  0
  148.5009  123.6664  150.1973 N   0  0  0  0  0  0  0  0  0  0  0  0
  147.1953  131.1158  152.8790 C   0  0  0  0  0  0  0  0  0  0  0  0
  146.6468  133.4386  154.3746 H   0  0  0  0  0  0  0  0  0  0  0  0
  147.1520  134.5996  153.1498 H   0  0  0  0  0  0  0  0  0  0  0  0
  148.3233  133.4808  153.8353 H   0  0  0  0  0  0  0  0  0  0  0  0
  147.6440  132.7582  151.5716 H   0  0  0  0  0  0  0  0  0  0  0  0
  144.8307  132.6327  152.7356 H   0  0  0  0  0  0  0  0  0  0  0  0
  145.3692  133.7343  151.4956 H   0  0  0  0  0  0  0  0  0  0  0  0
  144.0846  131.7340  150.6686 H   0  0  0  0  0  0  0  0  0  0  0  0
  146.9037  131.8849  149.5124 H   0  0  0  0  0  0  0  0  0  0  0  0
  145.5623  132.9507  149.1061 H   0  0  0  0  0  0  0  0  0  0  0  0
  145.4746  131.2391  148.7178 H   0  0  0  0  0  0  0  0  0  0  0  0
  144.8068  130.0116  152.1785 H   0  0  0  0  0  0  0  0  0  0  0  0
  145.2691  129.5315  150.5612 H   0  0  0  0  0  0  0  0  0  0  0  0
  146.5762  128.4063  152.9901 H   0  0  0  0  0  0  0  0  0  0  0  0
  147.0172  128.0778  151.3332 H   0  0  0  0  0  0  0  0  0  0  0  0
  149.3178  129.2719  151.9694 H   0  0  0  0  0  0  0  0  0  0  0  0
  148.8948  128.8002  153.5979 H   0  0  0  0  0  0  0  0  0  0  0  0
  150.0428  127.1390  151.7343 H   0  0  0  0  0  0  0  0  0  0  0  0
  148.6559  123.9586  152.6790 H   0  0  0  0  0  0  0  0  0  0  0  0
  150.6501  124.7046  153.9458 H   0  0  0  0  0  0  0  0  0  0  0  0
  151.3450  125.4165  152.4942 H   0  0  0  0  0  0  0  0  0  0  0  0
  151.1088  123.6753  152.5972 H   0  0  0  0  0  0  0  0  0  0  0  0
  150.6226  126.0709  150.1041 H   0  0  0  0  0  0  0  0  0  0  0  0
  148.3672  123.2378  148.1373 H   0  0  0  0  0  0  0  0  0  0  0  0
  148.2336  131.0116  153.1917 H   0  0  0  0  0  0  0  0  0  0  0  0
  146.5819  130.9044  153.7567 H   0  0  0  0  0  0  0  0  0  0  0  0
  147.4566  130.3680  151.0120 H   0  0  0  0  0  0  0  0  0  0  0  0
  1  2  1  0  0  0  0
  1 21  1  0  0  0  0
  1 22  1  0  0  0  0
  1 23  1  0  0  0  0
  2 20  1  0  0  0  0
  2  3  1  0  0  0  0
  2 24  1  0  0  0  0
  3  4  1  0  0  0  0
  3 25  1  0  0  0  0
  3 26  1  0  0  0  0
  4  5  1  0  0  0  0
  4  6  1  0  0  0  0
  4 27  1  0  0  0  0
  5 28  1  0  0  0  0
  5 29  1  0  0  0  0
  5 30  1  0  0  0  0
  6  7  1  0  0  0  0
  6 31  1  0  0  0  0
  6 32  1  0  0  0  0
  7  8  1  0  0  0  0
  7 20  1  0  0  0  0
  7 46  1  0  0  0  0
  8  9  1  0  0  0  0
  8 33  1  0  0  0  0
  8 34  1  0  0  0  0
  9 10  1  0  0  0  0
  9 35  1  0  0  0  0
  9 36  1  0  0  0  0
 10 11  1  0  0  0  0
 10 37  1  0  0  0  0
 11 12  2  0  0  0  0
 11 13  1  0  0  0  0
 13 14  1  0  0  0  0
 13 15  1  0  0  0  0
 13 38  1  0  0  0  0
 14 39  1  0  0  0  0
 14 40  1  0  0  0  0
 14 41  1  0  0  0  0
 15 19  1  0  0  0  0
 15 16  1  0  0  0  0
 16 17  2  0  0  0  0
 16 42  1  0  0  0  0
 17 18  1  0  0  0  0
 18 19  2  0  0  0  0
 18 43  1  0  0  0  0
 20 44  1  0  0  0  0
 20 45  1  0  0  0  0
M  CHG  1   7   1
M  END
> <s_m_source_file>
AV-unprocessed.smi

> <i_m_source_file_index>
3337

> <i_lp_mmshare_version>
43012

> <i_f3d_flags>
0

> <s_epik_input>
W0NIM11bQ0BASF0xW0NIMl1bQ0BASF0oW0NIM10pW0NIMl1OKFtDSDJdMSlbQ0gyXVtDSDJdW05IXUMoPU8pW0NASF0oW0NIM10pbjJbY0hdbltjSF1uMg==

> <s_epik_cmdline>
J2VwaWtfcHl0aG9uJywgJy1waCcsICc3LjAnLCAnLXRuJywgJzgnLCAnLW1hJywgJzIwMCcsICctbWV0YWxfYmluZGluZycsICctaW1hZScsICc8aW5maWxlLm1hZT4nLCAnLW9tYWUnLCAnPG91dGZpbGUubWFlPic=

> <r_lp_tautomer_probability>
1

> <r_epik_Ionization_Penalty>
0.00175613

> <r_epik_Ionization_Penalty_Charging>
0.00174812

> <r_epik_Ionization_Penalty_Neutral>
8.01354e-06

> <r_epik_State_Penalty>
0.00118332

> <r_epik_Charging_Adjusted_Penalty>
0.00293143

> <i_epik_Tot_Q>
1

> <i_epik_Tot_abs_Q>
1

> <r_epik_Metal_State_Penalty>
-0

> <b_epik_Metal_Only>
0

> <s_lp_Force_Field>
OPLS_2005

> <r_lp_Energy>
24.9418

> <b_lp_Chiralities_Consistent>
1

> <s_lp_Variant>
AV-unprocessed.smi:3337-1

> <Gold.Version>
5.8.1

> <Gold.Id.Protein>
6NUR|6NUR_protein|mol2

> <Gold.PLP.Fitness>
40.0589

> <Gold.PLP.PLP>
-31.6969

> <Gold.PLP.part.hbond>
-3.0000

> <Gold.PLP.part.metal>
0.0000

> <Gold.PLP.part.buried>
-5.4721

> <Gold.PLP.part.nonpolar>
-23.9766

> <Gold.PLP.part.repulsive>
1.6536

> <Gold.PLP.ligand.clash>
0.0000

> <Gold.PLP.ligand.torsion>
0.3467

> <Gold.PLP.Chemscore.Hbond>
1.9760

> <Gold.PLP.Chemscore.CHOScore>
1.0000

> <Gold.PLP.Chemscore.Metal>
0.0000

> <Gold.Chemscore.Hbonds>
donor molecule, donor type, donor heavy atom, donor atom, acceptor molecule, acceptor atom, score
      L1  H     7    46       P1 10747  1.00
      L1  H    10    37       P1 10737  0.80
      L1  C    16    42       P1 10737  0.72

> <Gold.PLP.Chemscore.Internal.Correction>
0.1273

> <Gold.Rescore>
     Score         DG    S(hbond)    S(metal)    S(lipo)     H(rot)  DE(clash)    DE(int)     intcor
     12.14     -14.17       1.95        0.00      73.62       2.51       0.02       2.01       ----

> <Gold.Chemscore.Fitness>
12.1401

> <Gold.Chemscore.DG>
-14.1701

> <Gold.Chemscore.ZeroCoef>
-5.4800

> <Gold.Chemscore.Hbond>
1.9488

> <Gold.Chemscore.Metal>
0.0000

> <Gold.Chemscore.Lipo>
73.6239

> <Gold.Chemscore.Internal_Hbond>
0.0000

> <Gold.Chemscore.DEClash>
0.0204

> <Gold.Chemscore.DEInternal>
2.0096

> <Gold.Chemscore.Rot>
2.5129

> <Gold.Chemscore.Internal.Correction>
   9.000000E+99

> <Gold.Chemscore.Hbonds>
donor molecule, donor type, donor heavy atom, donor atom, acceptor molecule, acceptor atom, score
      L1  H     7    46       P1 10747  0.97
      L1  H    10    37       P1 10737  0.77

> <Gold.Chemscore.Hbond.Weighted>
-6.5091

> <Gold.Chemscore.Metal.Weighted>
-0.0000

> <Gold.Chemscore.Lipo.Weighted>
-8.6140

> <Gold.Chemscore.Internal_Hbond.Weighted>
0.0000

> <Gold.Chemscore.DEClash.Weighted>
0.0204

> <Gold.Chemscore.DEInternal.Weighted>
2.0096

> <Gold.Chemscore.Rot.Weighted>
6.4331

> <Gold.Chemscore.Internal.Correction.Weighted>
   9.000000E+99

> <Gold.Protein.RotatedTorsions>
[ 6907 6896 6895 6894 ] final   11.23 input  -60.11 | X-H torsion
[ 7974 7965 7964 7962 ] final    1.72 input  175.53 | X-H torsion
[ 8008 7997 7996 7995 ] final  -14.79 input   59.86 | X-H torsion
[ 10167 10162 10161 10158 ] final   26.51 input  -65.29 | X-H torsion
[ 10718 10713 10712 10709 ] final  -51.01 input   66.30 | X-H torsion
[ 10763 10752 10751 10750 ] final  -29.91 input  -60.55 | X-H torsion
[ 11005 11000 10999 10996 ] final  -52.08 input  -57.11 | X-H torsion

> <Gold.Protein.ActiveResidues>
 VAL166  LYS551  ARG553  GLY616  TRP617  ASP618  TYR619  PRO620  LYS621  CYS622 
 ASP623  PHE694  ASN695  SER759  ASP760  ASP761  ALA762  ILE779  LEU786  VAL792 
 PHE793  MET794  SER795  GLU796  ALA797  LYS798  CYS799  TRP800  GLU811  SER814 

> <Gold.Protein.RotatedAtoms>
  151.7510  135.0832  160.0330 H   0  0  0  0  0  0  0  0  0  0  0  0  # atno 6907 bound_to 6896
  152.3417  133.6070  159.5889 H   0  0  0  0  0  0  0  0  0  0  0  0  # atno 6908 bound_to 6896
  150.7483  133.9628  159.3563 H   0  0  0  0  0  0  0  0  0  0  0  0  # atno 6909 bound_to 6896
  146.2441  140.0944  142.8350 H   0  0  0  0  0  0  0  0  0  0  0  0  # atno 7974 bound_to 7965
  154.5182  140.2213  155.9026 H   0  0  0  0  0  0  0  0  0  0  0  0  # atno 8008 bound_to 7997
  156.1631  140.3138  155.8807 H   0  0  0  0  0  0  0  0  0  0  0  0  # atno 8009 bound_to 7997
  155.3710  140.0466  157.3036 H   0  0  0  0  0  0  0  0  0  0  0  0  # atno 8010 bound_to 7997
  140.5017  144.0305  150.6335 H   0  0  0  0  0  0  0  0  0  0  0  0  # atno 10167 bound_to 10162
  156.1748  130.4150  149.9593 H   0  0  0  0  0  0  0  0  0  0  0  0  # atno 10718 bound_to 10713
  153.7723  135.6911  153.4904 H   0  0  0  0  0  0  0  0  0  0  0  0  # atno 10763 bound_to 10752
  153.1866  135.4486  155.0095 H   0  0  0  0  0  0  0  0  0  0  0  0  # atno 10764 bound_to 10752
  154.8113  135.3379  154.7232 H   0  0  0  0  0  0  0  0  0  0  0  0  # atno 10765 bound_to 10752
  141.0905  133.6633  156.3971 H   0  0  0  0  0  0  0  0  0  0  0  0  # atno 11005 bound_to 11000
  145.0622  140.9096  143.4931 LP  0  0  0  0  0  0  0  0  0  0  0  0  # atno 17320 bound_to 7965
  145.1062  139.2788  143.5661 LP  0  0  0  0  0  0  0  0  0  0  0  0  # atno 17321 bound_to 7965
  140.3602  143.2912  152.0391 LP  0  0  0  0  0  0  0  0  0  0  0  0  # atno 17342 bound_to 10162
  139.4873  144.6308  151.7073 LP  0  0  0  0  0  0  0  0  0  0  0  0  # atno 17343 bound_to 10162
  156.7382  130.9069  151.3630 LP  0  0  0  0  0  0  0  0  0  0  0  0  # atno 17370 bound_to 10713
  157.6828  130.9156  150.0310 LP  0  0  0  0  0  0  0  0  0  0  0  0  # atno 17371 bound_to 10713
  140.5263  134.6256  157.5335 LP  0  0  0  0  0  0  0  0  0  0  0  0  # atno 17394 bound_to 11000
  139.9730  134.7261  156.0004 LP  0  0  0  0  0  0  0  0  0  0  0  0  # atno 17395 bound_to 11000

$$$$
