AV-unprocessed.smi:169|AV-procd|sdf|1405|dock7
  -GOLD-   2262019153D 1   1.00000     0.00000
 Structure written by MMmdl.
 56 60  0  0  0  0  0  0  0  0  2 V2000
  151.6063  142.0637  158.0898 C   0  0  0  0  0  0  0  0  0  0  0  0
  150.4276  142.8891  157.5434 C   0  0  0  0  0  0  0  0  0  0  0  0
  149.4979  142.1141  156.6802 N   0  3  1  0  0  0  0  0  0  0  0  0
  150.1942  141.2537  155.6904 C   0  0  0  0  0  0  0  0  0  0  0  0
  149.4660  141.1960  154.3327 C   0  0  0  0  0  0  0  0  0  0  0  0
  147.9433  140.9360  154.3801 C   0  0  2  0  0  0  0  0  0  0  0  0
  147.1069  142.2214  154.5523 C   0  0  0  0  0  0  0  0  0  0  0  0
  146.4985  142.1309  155.9556 C   0  0  0  0  0  0  0  0  0  0  0  0
  147.2262  140.9550  156.6150 C   0  0  2  0  0  0  0  0  0  0  0  0
  148.4482  141.3938  157.4539 C   0  0  0  0  0  0  0  0  0  0  0  0
  147.5806  140.0744  155.5054 N   0  0  0  0  0  0  0  0  0  0  0  0
  146.7536  139.0115  155.3278 C   0  0  0  0  0  0  0  0  0  0  0  0
  146.2831  138.3097  156.3928 N   0  0  0  0  0  0  0  0  0  0  0  0
  145.4782  137.2594  156.2064 C   0  0  0  0  0  0  0  0  0  0  0  0
  145.0293  136.7463  155.0596 N   0  0  0  0  0  0  0  0  0  0  0  0
  145.5001  137.4429  153.9865 C   0  0  0  0  0  0  0  0  0  0  0  0
  146.3558  138.5792  154.0323 C   0  0  0  0  0  0  0  0  0  0  0  0
  146.6146  139.0323  152.7444 N   0  0  0  0  0  0  0  0  0  0  0  0
  145.9516  138.2079  151.9800 C   0  0  0  0  0  0  0  0  0  0  0  0
  145.2645  137.2143  152.6418 N   0  0  0  0  0  0  0  0  0  0  0  0
  144.4550  136.1682  152.0352 C   0  0  0  0  0  0  0  0  0  0  0  0
  145.0636  134.7543  152.1460 C   0  0  0  0  0  0  0  0  0  0  0  0
  145.2732  134.3594  153.6187 C   0  0  0  0  0  0  0  0  0  0  0  0
  144.0484  134.3078  154.3224 O   0  0  0  0  0  0  0  0  0  0  0  0
  144.3968  133.6665  151.2915 C   0  0  0  0  0  0  0  0  0  0  0  0
  145.6624  133.2476  150.7396 O   0  0  0  0  0  0  0  0  0  0  0  0
  146.2594  134.4677  151.2275 C   0  0  0  0  0  0  0  0  0  0  0  0
  152.2639  142.6919  158.6909 H   0  0  0  0  0  0  0  0  0  0  0  0
  152.2087  141.6368  157.2880 H   0  0  0  0  0  0  0  0  0  0  0  0
  151.2683  141.2476  158.7283 H   0  0  0  0  0  0  0  0  0  0  0  0
  149.8660  143.3180  158.3742 H   0  0  0  0  0  0  0  0  0  0  0  0
  150.8091  143.7382  156.9751 H   0  0  0  0  0  0  0  0  0  0  0  0
  151.2010  141.6313  155.5057 H   0  0  0  0  0  0  0  0  0  0  0  0
  150.3264  140.2504  156.0993 H   0  0  0  0  0  0  0  0  0  0  0  0
  149.6641  142.1064  153.7655 H   0  0  0  0  0  0  0  0  0  0  0  0
  149.9301  140.3968  153.7534 H   0  0  0  0  0  0  0  0  0  0  0  0
  147.6794  140.4891  153.4213 H   0  0  0  0  0  0  0  0  0  0  0  0
  147.7122  143.1218  154.4439 H   0  0  0  0  0  0  0  0  0  0  0  0
  146.3162  142.2736  153.8028 H   0  0  0  0  0  0  0  0  0  0  0  0
  146.5872  143.0610  156.5181 H   0  0  0  0  0  0  0  0  0  0  0  0
  145.4356  141.8998  155.8727 H   0  0  0  0  0  0  0  0  0  0  0  0
  146.5275  140.4641  157.2942 H   0  0  0  0  0  0  0  0  0  0  0  0
  148.8840  140.5213  157.9422 H   0  0  0  0  0  0  0  0  0  0  0  0
  148.0916  142.0412  158.2560 H   0  0  0  0  0  0  0  0  0  0  0  0
  145.1468  136.7578  157.1038 H   0  0  0  0  0  0  0  0  0  0  0  0
  145.9519  138.2963  150.9031 H   0  0  0  0  0  0  0  0  0  0  0  0
  143.4694  136.1981  152.5016 H   0  0  0  0  0  0  0  0  0  0  0  0
  144.2887  136.4303  150.9897 H   0  0  0  0  0  0  0  0  0  0  0  0
  145.7813  133.3994  153.7107 H   0  0  0  0  0  0  0  0  0  0  0  0
  145.9134  135.0856  154.1207 H   0  0  0  0  0  0  0  0  0  0  0  0
  143.8259  133.4011  154.4708 H   0  0  0  0  0  0  0  0  0  0  0  0
  143.9069  132.8827  151.8704 H   0  0  0  0  0  0  0  0  0  0  0  0
  143.7330  134.0487  150.5151 H   0  0  0  0  0  0  0  0  0  0  0  0
  146.3918  135.2010  150.4300 H   0  0  0  0  0  0  0  0  0  0  0  0
  147.1975  134.2947  151.7560 H   0  0  0  0  0  0  0  0  0  0  0  0
  149.0106  142.8144  156.1392 H   0  0  0  0  0  0  0  0  0  0  0  0
  1  2  1  0  0  0  0
  1 28  1  0  0  0  0
  1 29  1  0  0  0  0
  1 30  1  0  0  0  0
  2  3  1  0  0  0  0
  2 31  1  0  0  0  0
  2 32  1  0  0  0  0
  3 10  1  0  0  0  0
  3  4  1  0  0  0  0
  3 56  1  0  0  0  0
  4  5  1  0  0  0  0
  4 33  1  0  0  0  0
  4 34  1  0  0  0  0
  5  6  1  0  0  0  0
  5 35  1  0  0  0  0
  5 36  1  0  0  0  0
  6 11  1  0  0  0  0
  6  7  1  0  0  0  0
  6 37  1  0  0  0  0
  7  8  1  0  0  0  0
  7 38  1  0  0  0  0
  7 39  1  0  0  0  0
  8  9  1  0  0  0  0
  8 40  1  0  0  0  0
  8 41  1  0  0  0  0
  9 10  1  0  0  0  0
  9 11  1  0  0  0  0
  9 42  1  0  0  0  0
 10 43  1  0  0  0  0
 10 44  1  0  0  0  0
 11 12  1  0  0  0  0
 12 17  1  0  0  0  0
 12 13  2  0  0  0  0
 13 14  1  0  0  0  0
 14 15  2  0  0  0  0
 14 45  1  0  0  0  0
 15 16  1  0  0  0  0
 16 20  1  0  0  0  0
 16 17  2  0  0  0  0
 17 18  1  0  0  0  0
 18 19  2  0  0  0  0
 19 20  1  0  0  0  0
 19 46  1  0  0  0  0
 20 21  1  0  0  0  0
 21 22  1  0  0  0  0
 21 47  1  0  0  0  0
 21 48  1  0  0  0  0
 22 27  1  0  0  0  0
 22 23  1  0  0  0  0
 22 25  1  0  0  0  0
 23 24  1  0  0  0  0
 23 49  1  0  0  0  0
 23 50  1  0  0  0  0
 24 51  1  0  0  0  0
 25 26  1  0  0  0  0
 25 52  1  0  0  0  0
 25 53  1  0  0  0  0
 26 27  1  0  0  0  0
 27 54  1  0  0  0  0
 27 55  1  0  0  0  0
M  CHG  1   3   1
M  END
> <s_m_source_file>
AV-unprocessed.smi

> <i_m_source_file_index>
169

> <i_lp_mmshare_version>
43012

> <i_f3d_flags>
0

> <s_epik_input>
W0NASF0xMltDSDJdW0NIMl1OKFtDSDJdW0NIM10pW0NIMl1bQ0BIXShbQ0gyXVtDSDJdMSlOMmMobltjSF1uMyljKGMzNCluW2NIXW40W0NIMl1DNShbQ0gyXVtPSF0pW0NIMl1PW0NIMl01

> <s_epik_cmdline>
J2VwaWtfcHl0aG9uJywgJy1waCcsICc3LjAnLCAnLXRuJywgJzgnLCAnLW1hJywgJzIwMCcsICctbWV0YWxfYmluZGluZycsICctaW1hZScsICc8aW5maWxlLm1hZT4nLCAnLW9tYWUnLCAnPG91dGZpbGUubWFlPic=

> <r_lp_tautomer_probability>
1

> <r_epik_Ionization_Penalty>
0.00274162

> <r_epik_Ionization_Penalty_Charging>
0.00243722

> <r_epik_Ionization_Penalty_Neutral>
0.000304399

> <r_epik_State_Penalty>
-0

> <r_epik_Charging_Adjusted_Penalty>
0.00243722

> <i_epik_Tot_Q>
1

> <i_epik_Tot_abs_Q>
1

> <r_epik_Metal_State_Penalty>
-0

> <b_epik_Metal_Only>
0

> <s_lp_Force_Field>
OPLS_2005

> <r_lp_Energy>
77.4951

> <b_lp_Chiralities_Consistent>
1

> <s_lp_Variant>
AV-unprocessed.smi:169-8

> <Gold.Version>
5.8.1

> <Gold.Id.Protein>
6NUR|6NUR_protein|mol2

> <Gold.PLP.Fitness>
41.4019

> <Gold.PLP.PLP>
-31.7869

> <Gold.PLP.part.hbond>
-2.0000

> <Gold.PLP.part.metal>
0.0000

> <Gold.PLP.part.buried>
-2.2609

> <Gold.PLP.part.nonpolar>
-28.7427

> <Gold.PLP.part.repulsive>
0.4712

> <Gold.PLP.ligand.clash>
0.0000

> <Gold.PLP.ligand.torsion>
0.8094

> <Gold.PLP.Chemscore.Hbond>
2.9520

> <Gold.PLP.Chemscore.CHOScore>
0.6181

> <Gold.PLP.Chemscore.Metal>
0.0000

> <Gold.Chemscore.Hbonds>
donor molecule, donor type, donor heavy atom, donor atom, acceptor molecule, acceptor atom, score
      L1  H     3    56       P1  8028  1.86
      L1  H    24    51       P1 10957  1.00
      L1  C    19    46       P1 10171  0.77

> <Gold.PLP.Chemscore.Internal.Correction>
0.5235

> <Gold.Rescore>
     Score         DG    S(hbond)    S(metal)    S(lipo)     H(rot)  DE(clash)    DE(int)     intcor
      9.67     -13.77       1.92        0.00      73.45       2.62       0.34       3.76       ----

> <Gold.Chemscore.Fitness>
9.6746

> <Gold.Chemscore.DG>
-13.7657

> <Gold.Chemscore.ZeroCoef>
-5.4800

> <Gold.Chemscore.Hbond>
1.9170

> <Gold.Chemscore.Metal>
0.0000

> <Gold.Chemscore.Lipo>
73.4452

> <Gold.Chemscore.Internal_Hbond>
0.0000

> <Gold.Chemscore.DEClash>
0.3358

> <Gold.Chemscore.DEInternal>
3.7554

> <Gold.Chemscore.Rot>
2.6212

> <Gold.Chemscore.Internal.Correction>
   9.000000E+99

> <Gold.Chemscore.Hbonds>
donor molecule, donor type, donor heavy atom, donor atom, acceptor molecule, acceptor atom, score
      L1  H     3    56       P1  8028  0.89
      L1  H    24    51       P1 10957  0.93

> <Gold.Chemscore.Hbond.Weighted>
-6.4028

> <Gold.Chemscore.Metal.Weighted>
-0.0000

> <Gold.Chemscore.Lipo.Weighted>
-8.5931

> <Gold.Chemscore.Internal_Hbond.Weighted>
0.0000

> <Gold.Chemscore.DEClash.Weighted>
0.3358

> <Gold.Chemscore.DEInternal.Weighted>
3.7554

> <Gold.Chemscore.Rot.Weighted>
6.7102

> <Gold.Chemscore.Internal.Correction.Weighted>
   9.000000E+99

> <Gold.Protein.RotatedTorsions>
[ 6907 6896 6895 6894 ] final  171.94 input  -60.11 | X-H torsion
[ 7974 7965 7964 7962 ] final  110.63 input  175.53 | X-H torsion
[ 8008 7997 7996 7995 ] final -175.08 input   59.86 | X-H torsion
[ 10167 10162 10161 10158 ] final  -59.08 input  -65.29 | X-H torsion
[ 10718 10713 10712 10709 ] final   64.39 input   66.30 | X-H torsion
[ 10763 10752 10751 10750 ] final   13.27 input  -60.55 | X-H torsion
[ 11005 11000 10999 10996 ] final  123.80 input  -57.11 | X-H torsion

> <Gold.Protein.ActiveResidues>
 VAL166  LYS551  ARG553  GLY616  TRP617  ASP618  TYR619  PRO620  LYS621  CYS622 
 ASP623  PHE694  ASN695  SER759  ASP760  ASP761  ALA762  ILE779  LEU786  VAL792 
 PHE793  MET794  SER795  GLU796  ALA797  LYS798  CYS799  TRP800  GLU811  SER814 

> <Gold.Protein.RotatedAtoms>
  151.7922  133.3360  159.3502 H   0  0  0  0  0  0  0  0  0  0  0  0  # atno 6907 bound_to 6896
  150.7388  134.5832  159.5958 H   0  0  0  0  0  0  0  0  0  0  0  0  # atno 6908 bound_to 6896
  152.3202  134.7391  160.0367 H   0  0  0  0  0  0  0  0  0  0  0  0  # atno 6909 bound_to 6896
  145.2525  139.2734  143.4060 H   0  0  0  0  0  0  0  0  0  0  0  0  # atno 7974 bound_to 7965
  155.9782  140.1176  157.0751 H   0  0  0  0  0  0  0  0  0  0  0  0  # atno 8008 bound_to 7997
  154.4175  140.1150  156.5466 H   0  0  0  0  0  0  0  0  0  0  0  0  # atno 8009 bound_to 7997
  155.6506  140.3473  155.4749 H   0  0  0  0  0  0  0  0  0  0  0  0  # atno 8010 bound_to 7997
  140.6157  143.2402  151.5602 H   0  0  0  0  0  0  0  0  0  0  0  0  # atno 10167 bound_to 10162
  157.6036  130.9157  149.9839 H   0  0  0  0  0  0  0  0  0  0  0  0  # atno 10718 bound_to 10713
  153.1738  135.6816  153.8571 H   0  0  0  0  0  0  0  0  0  0  0  0  # atno 10763 bound_to 10752
  153.7926  135.3167  155.3381 H   0  0  0  0  0  0  0  0  0  0  0  0  # atno 10764 bound_to 10752
  154.8015  135.4775  154.0381 H   0  0  0  0  0  0  0  0  0  0  0  0  # atno 10765 bound_to 10752
  139.9329  134.9641  156.8314 H   0  0  0  0  0  0  0  0  0  0  0  0  # atno 11005 bound_to 11000
  146.3298  140.2920  142.8616 LP  0  0  0  0  0  0  0  0  0  0  0  0  # atno 17320 bound_to 7965
  144.9490  140.8158  143.5583 LP  0  0  0  0  0  0  0  0  0  0  0  0  # atno 17321 bound_to 7965
  139.5397  144.2682  152.1325 LP  0  0  0  0  0  0  0  0  0  0  0  0  # atno 17342 bound_to 10162
  140.1891  144.4769  150.6488 LP  0  0  0  0  0  0  0  0  0  0  0  0  # atno 17343 bound_to 10162
  156.1116  130.3650  150.0039 LP  0  0  0  0  0  0  0  0  0  0  0  0  # atno 17370 bound_to 10713
  156.8137  130.9334  151.3643 LP  0  0  0  0  0  0  0  0  0  0  0  0  # atno 17371 bound_to 10713
  140.6153  134.0044  155.7594 LP  0  0  0  0  0  0  0  0  0  0  0  0  # atno 17394 bound_to 11000
  141.0928  133.9891  157.3210 LP  0  0  0  0  0  0  0  0  0  0  0  0  # atno 17395 bound_to 11000

$$$$
