AV-unprocessed.smi:1677|AV-procd|sdf|6725|dock1
  -GOLD-   22720 7473D 1   1.00000     0.00000
 Structure written by MMmdl.
 36 37  0  0  0  0  0  0  0  0  1 V2000
  149.4193  138.6203  156.4985 C   0  0  0  0  0  0  0  0  0  0  0  0
  150.5315  139.5445  155.9761 C   0  0  1  0  0  0  0  0  0  0  0  0
  150.2856  140.0369  154.5333 C   0  0  0  0  0  0  0  0  0  0  0  0
  148.9893  140.6669  154.3689 N   0  0  0  0  0  0  0  0  0  0  0  0
  147.9763  140.2787  153.5021 C   0  0  0  0  0  0  0  0  0  0  0  0
  146.9380  141.1629  153.6902 C   0  0  0  0  0  0  0  0  0  0  0  0
  147.2904  142.1012  154.6575 N   0  0  0  0  0  0  0  0  0  0  0  0
  148.5189  141.7457  155.0103 C   0  0  0  0  0  0  0  0  0  0  0  0
  150.6674  140.6839  156.8786 N   0  0  0  0  0  0  0  0  0  0  0  0
  151.6975  140.9011  157.7116 C   0  0  0  0  0  0  0  0  0  0  0  0
  152.6660  140.1456  157.7990 O   0  0  0  0  0  0  0  0  0  0  0  0
  151.6208  142.1648  158.5791 C   0  0  2  0  0  0  0  0  0  0  0  0
  151.5738  143.4427  157.7095 C   0  0  0  0  0  0  0  0  0  0  0  0
  151.7535  144.7044  158.5355 C   0  0  0  0  0  0  0  0  0  0  0  0
  152.2345  144.7041  159.7907 C   0  0  0  0  0  0  0  0  0  0  0  0
  152.6571  143.4430  160.5232 C   0  0  0  0  0  0  0  0  0  0  0  0
  152.7948  142.2356  159.5763 C   0  0  0  0  0  0  0  0  0  0  0  0
  149.3474  137.7064  155.9083 H   0  0  0  0  0  0  0  0  0  0  0  0
  148.4477  139.1143  156.4680 H   0  0  0  0  0  0  0  0  0  0  0  0
  149.6098  138.3226  157.5301 H   0  0  0  0  0  0  0  0  0  0  0  0
  151.4621  138.9735  155.9943 H   0  0  0  0  0  0  0  0  0  0  0  0
  151.0576  140.7501  154.2401 H   0  0  0  0  0  0  0  0  0  0  0  0
  150.3463  139.2053  153.8301 H   0  0  0  0  0  0  0  0  0  0  0  0
  148.0755  139.4276  152.8444 H   0  0  0  0  0  0  0  0  0  0  0  0
  145.9729  141.1965  153.2063 H   0  0  0  0  0  0  0  0  0  0  0  0
  149.0871  142.2798  155.7579 H   0  0  0  0  0  0  0  0  0  0  0  0
  149.9158  141.3580  156.8739 H   0  0  0  0  0  0  0  0  0  0  0  0
  150.6978  142.1211  159.1610 H   0  0  0  0  0  0  0  0  0  0  0  0
  152.3501  143.4317  156.9432 H   0  0  0  0  0  0  0  0  0  0  0  0
  150.6165  143.5008  157.1903 H   0  0  0  0  0  0  0  0  0  0  0  0
  151.4861  145.6385  158.0634 H   0  0  0  0  0  0  0  0  0  0  0  0
  152.3261  145.6348  160.3312 H   0  0  0  0  0  0  0  0  0  0  0  0
  153.6029  143.6232  161.0347 H   0  0  0  0  0  0  0  0  0  0  0  0
  151.9138  143.2349  161.2933 H   0  0  0  0  0  0  0  0  0  0  0  0
  152.8622  141.3179  160.1619 H   0  0  0  0  0  0  0  0  0  0  0  0
  153.7344  142.3187  159.0274 H   0  0  0  0  0  0  0  0  0  0  0  0
  1  2  1  0  0  0  0
  1 18  1  0  0  0  0
  1 19  1  0  0  0  0
  1 20  1  0  0  0  0
  2  3  1  0  0  0  0
  2  9  1  0  0  0  0
  2 21  1  0  0  0  0
  3  4  1  0  0  0  0
  3 22  1  0  0  0  0
  3 23  1  0  0  0  0
  4  8  1  0  0  0  0
  4  5  1  0  0  0  0
  5  6  2  0  0  0  0
  5 24  1  0  0  0  0
  6  7  1  0  0  0  0
  6 25  1  0  0  0  0
  7  8  2  0  0  0  0
  8 26  1  0  0  0  0
  9 10  1  0  0  0  0
  9 27  1  0  0  0  0
 10 11  2  0  0  0  0
 10 12  1  0  0  0  0
 12 17  1  0  0  0  0
 12 13  1  0  0  0  0
 12 28  1  0  0  0  0
 13 14  1  0  0  0  0
 13 29  1  0  0  0  0
 13 30  1  0  0  0  0
 14 15  2  0  0  0  0
 14 31  1  0  0  0  0
 15 16  1  0  0  0  0
 15 32  1  0  0  0  0
 16 17  1  0  0  0  0
 16 33  1  0  0  0  0
 16 34  1  0  0  0  0
 17 35  1  0  0  0  0
 17 36  1  0  0  0  0
M  END
> <s_m_source_file>
AV-unprocessed.smi

> <i_m_source_file_index>
1677

> <i_lp_mmshare_version>
43012

> <i_f3d_flags>
0

> <s_epik_input>
W2NIXTFuW2NIXVtjSF1uMVtDSDJdW0NAQEhdKFtDSDNdKVtOSF1DKD1PKVtDQEBIXTJbQ0gyXVtDSF09W0NIXVtDSDJdW0NIMl0y

> <s_epik_cmdline>
J2VwaWtfcHl0aG9uJywgJy1waCcsICc3LjAnLCAnLXRuJywgJzgnLCAnLW1hJywgJzIwMCcsICctbWV0YWxfYmluZGluZycsICctaW1hZScsICc8aW5maWxlLm1hZT4nLCAnLW9tYWUnLCAnPG91dGZpbGUubWFlPic=

> <r_lp_tautomer_probability>
1

> <r_epik_Ionization_Penalty>
0.640435

> <r_epik_Ionization_Penalty_Charging>
0.640435

> <r_epik_Ionization_Penalty_Neutral>
2.11108e-08

> <r_epik_State_Penalty>
0.658069

> <r_epik_Charging_Adjusted_Penalty>
1.2985

> <i_epik_Tot_Q>
0

> <i_epik_Tot_abs_Q>
0

> <r_epik_Metal_State_Penalty>
0.311689

> <b_epik_Metal_Only>
0

> <s_lp_Force_Field>
OPLS_2005

> <r_lp_Energy>
10.0444

> <b_lp_Chiralities_Consistent>
1

> <s_lp_Variant>
AV-unprocessed.smi:1677-6

> <Gold.Version>
5.8.1

> <Gold.Id.Protein>
6NUR|6NUR_protein|mol2

> <Gold.PLP.Fitness>
45.2309

> <Gold.PLP.PLP>
-35.6713

> <Gold.PLP.part.hbond>
-1.0000

> <Gold.PLP.part.metal>
0.0000

> <Gold.PLP.part.buried>
0.7078

> <Gold.PLP.part.nonpolar>
-35.3044

> <Gold.PLP.part.repulsive>
0.1962

> <Gold.PLP.ligand.clash>
0.0000

> <Gold.PLP.ligand.torsion>
0.1288

> <Gold.PLP.Chemscore.Hbond>
1.0000

> <Gold.PLP.Chemscore.CHOScore>
2.2544

> <Gold.PLP.Chemscore.Metal>
0.0000

> <Gold.Chemscore.Hbonds>
donor molecule, donor type, donor heavy atom, donor atom, acceptor molecule, acceptor atom, score
      P1  H  7997  8008       L1    11  0.99
      L1  C     5    24       P1  7957  0.55
      L1  C     6    25       P1 10175  1.00
      L1  C     8    26       P1  8028  0.69

> <Gold.PLP.Chemscore.Internal.Correction>
0.0541

> <Gold.Rescore>
     Score         DG    S(hbond)    S(metal)    S(lipo)     H(rot)  DE(clash)    DE(int)     intcor
     15.32     -15.58       0.93        0.00      98.10       1.75       0.08       0.18       ----

> <Gold.Chemscore.Fitness>
15.3209

> <Gold.Chemscore.DG>
-15.5769

> <Gold.Chemscore.ZeroCoef>
-5.4800

> <Gold.Chemscore.Hbond>
0.9260

> <Gold.Chemscore.Metal>
0.0000

> <Gold.Chemscore.Lipo>
98.0981

> <Gold.Chemscore.Internal_Hbond>
0.0000

> <Gold.Chemscore.DEClash>
0.0800

> <Gold.Chemscore.DEInternal>
0.1760

> <Gold.Chemscore.Rot>
1.7475

> <Gold.Chemscore.Internal.Correction>
   9.000000E+99

> <Gold.Chemscore.Hbonds>
donor molecule, donor type, donor heavy atom, donor atom, acceptor molecule, acceptor atom, score
      P1  H  7997  8008       L1    11  0.88

> <Gold.Chemscore.Hbond.Weighted>
-3.0930

> <Gold.Chemscore.Metal.Weighted>
-0.0000

> <Gold.Chemscore.Lipo.Weighted>
-11.4775

> <Gold.Chemscore.Internal_Hbond.Weighted>
0.0000

> <Gold.Chemscore.DEClash.Weighted>
0.0800

> <Gold.Chemscore.DEInternal.Weighted>
0.1760

> <Gold.Chemscore.Rot.Weighted>
4.4735

> <Gold.Chemscore.Internal.Correction.Weighted>
   9.000000E+99

> <Gold.Protein.RotatedTorsions>
[ 6907 6896 6895 6894 ] final -123.46 input  -60.11 | X-H torsion
[ 7974 7965 7964 7962 ] final  151.99 input  175.53 | X-H torsion
[ 8008 7997 7996 7995 ] final  -68.49 input   59.86 | X-H torsion
[ 10167 10162 10161 10158 ] final   83.79 input  -65.29 | X-H torsion
[ 10718 10713 10712 10709 ] final   38.94 input   66.30 | X-H torsion
[ 10763 10752 10751 10750 ] final  118.39 input  -60.55 | X-H torsion
[ 11005 11000 10999 10996 ] final   63.77 input  -57.11 | X-H torsion

> <Gold.Protein.ActiveResidues>
 VAL166  LYS551  ARG553  GLY616  TRP617  ASP618  TYR619  PRO620  LYS621  CYS622 
 ASP623  PHE694  ASN695  SER759  ASP760  ASP761  ALA762  ILE779  LEU786  VAL792 
 PHE793  MET794  SER795  GLU796  ALA797  LYS798  CYS799  TRP800  GLU811  SER814 

> <Gold.Protein.RotatedAtoms>
  150.8673  133.7556  159.2972 H   0  0  0  0  0  0  0  0  0  0  0  0  # atno 6907 bound_to 6896
  151.5180  135.1065  159.9880 H   0  0  0  0  0  0  0  0  0  0  0  0  # atno 6908 bound_to 6896
  152.4670  133.7900  159.6952 H   0  0  0  0  0  0  0  0  0  0  0  0  # atno 6909 bound_to 6896
  144.8254  139.6609  143.6082 H   0  0  0  0  0  0  0  0  0  0  0  0  # atno 7974 bound_to 7965
  154.4871  140.0872  156.7512 H   0  0  0  0  0  0  0  0  0  0  0  0  # atno 8008 bound_to 7997
  155.4322  140.3450  155.4263 H   0  0  0  0  0  0  0  0  0  0  0  0  # atno 8009 bound_to 7997
  156.1277  140.1492  156.9099 H   0  0  0  0  0  0  0  0  0  0  0  0  # atno 8010 bound_to 7997
  139.9147  144.6250  150.8501 H   0  0  0  0  0  0  0  0  0  0  0  0  # atno 10167 bound_to 10162
  157.3647  130.7669  149.7074 H   0  0  0  0  0  0  0  0  0  0  0  0  # atno 10718 bound_to 10713
  153.5670  135.3509  155.2822 H   0  0  0  0  0  0  0  0  0  0  0  0  # atno 10763 bound_to 10752
  154.8687  135.4150  154.2768 H   0  0  0  0  0  0  0  0  0  0  0  0  # atno 10764 bound_to 10752
  153.3525  135.7056  153.6846 H   0  0  0  0  0  0  0  0  0  0  0  0  # atno 10765 bound_to 10752
  140.0003  134.6453  155.9942 H   0  0  0  0  0  0  0  0  0  0  0  0  # atno 11005 bound_to 11000
  146.2559  139.6301  142.9395 LP  0  0  0  0  0  0  0  0  0  0  0  0  # atno 17320 bound_to 7965
  145.5013  141.0437  143.2539 LP  0  0  0  0  0  0  0  0  0  0  0  0  # atno 17321 bound_to 7965
  140.7677  143.3340  151.2349 LP  0  0  0  0  0  0  0  0  0  0  0  0  # atno 17342 bound_to 10162
  139.6912  143.9688  152.2860 LP  0  0  0  0  0  0  0  0  0  0  0  0  # atno 17343 bound_to 10162
  155.9744  130.4104  150.3927 LP  0  0  0  0  0  0  0  0  0  0  0  0  # atno 17370 bound_to 10713
  157.2009  131.0438  151.2651 LP  0  0  0  0  0  0  0  0  0  0  0  0  # atno 17371 bound_to 10713
  141.1636  133.6537  156.4404 LP  0  0  0  0  0  0  0  0  0  0  0  0  # atno 17394 bound_to 11000
  140.4741  134.6726  157.5142 LP  0  0  0  0  0  0  0  0  0  0  0  0  # atno 17395 bound_to 11000

$$$$
