AV-unprocessed.smi:2998|AV-procd|sdf|11416|dock5
  -GOLD-   2272016343D 1   1.00000     0.00000
 Structure written by MMmdl.
 41 43  0  0  0  0  0  0  0  0  1 V2000
  151.5944  136.6641  155.7450 O   0  0  0  0  0  0  0  0  0  0  0  0
  150.7711  137.2473  155.0383 C   0  0  0  0  0  0  0  0  0  0  0  0
  151.0942  138.6144  154.4169 C   0  0  0  0  0  0  0  0  0  0  0  0
  151.1486  139.7088  155.4039 N   0  0  0  0  0  0  0  0  0  0  0  0
  150.1361  140.6849  155.3222 C   0  0  0  0  0  0  0  0  0  0  0  0
  150.0839  141.6838  156.1445 N   0  0  0  0  0  0  0  0  0  0  0  0
  151.0556  141.8147  157.1436 C   0  0  0  0  0  0  0  0  0  0  0  0
  150.9615  143.0200  158.0692 C   0  0  0  0  0  0  0  0  0  0  0  0
  151.6427  144.3107  157.5831 C   0  0  0  0  0  0  0  0  0  0  0  0
  152.0838  144.5462  159.0320 C   0  0  0  0  0  0  0  0  0  0  0  0
  151.9465  143.0351  159.2495 C   0  0  0  0  0  0  0  0  0  0  0  0
  152.0564  140.9093  157.2537 C   0  0  0  0  0  0  0  0  0  0  0  0
  152.1377  139.7667  156.3439 C   0  0  0  0  0  0  0  0  0  0  0  0
  153.0286  138.9202  156.4196 O   0  0  0  0  0  0  0  0  0  0  0  0
  149.5629  136.7422  154.7487 N   0  0  0  0  0  0  0  0  0  0  0  0
  149.0470  135.4660  155.2361 C   0  0  0  0  0  0  0  0  0  0  0  0
  150.0493  134.3347  154.9448 C   0  0  0  0  0  0  0  0  0  0  0  0
  149.4470  133.5305  153.7930 C   0  0  0  0  0  0  0  0  0  0  0  0
  147.9416  133.6431  154.0106 C   0  0  0  0  0  0  0  0  0  0  0  0
  147.7363  135.0706  154.5224 C   0  0  0  0  0  0  0  0  0  0  0  0
  152.0326  138.5221  153.8671 H   0  0  0  0  0  0  0  0  0  0  0  0
  150.3456  138.8475  153.6571 H   0  0  0  0  0  0  0  0  0  0  0  0
  149.4082  140.5419  154.5217 H   0  0  0  0  0  0  0  0  0  0  0  0
  149.9353  143.2000  158.3945 H   0  0  0  0  0  0  0  0  0  0  0  0
  152.4898  144.1366  156.9167 H   0  0  0  0  0  0  0  0  0  0  0  0
  150.9627  145.0638  157.1839 H   0  0  0  0  0  0  0  0  0  0  0  0
  153.0962  144.9347  159.1448 H   0  0  0  0  0  0  0  0  0  0  0  0
  151.3595  145.1250  159.6076 H   0  0  0  0  0  0  0  0  0  0  0  0
  151.5151  142.7480  160.2089 H   0  0  0  0  0  0  0  0  0  0  0  0
  152.8759  142.4994  159.0476 H   0  0  0  0  0  0  0  0  0  0  0  0
  152.8072  141.0228  158.0222 H   0  0  0  0  0  0  0  0  0  0  0  0
  148.9505  137.2850  154.1570 H   0  0  0  0  0  0  0  0  0  0  0  0
  148.8883  135.5286  156.3143 H   0  0  0  0  0  0  0  0  0  0  0  0
  151.0548  134.6917  154.7172 H   0  0  0  0  0  0  0  0  0  0  0  0
  150.1300  133.6928  155.8230 H   0  0  0  0  0  0  0  0  0  0  0  0
  149.7161  133.9907  152.8414 H   0  0  0  0  0  0  0  0  0  0  0  0
  149.7940  132.4969  153.7747 H   0  0  0  0  0  0  0  0  0  0  0  0
  147.3692  133.4346  153.1061 H   0  0  0  0  0  0  0  0  0  0  0  0
  147.6284  132.9300  154.7744 H   0  0  0  0  0  0  0  0  0  0  0  0
  146.8726  135.1429  155.1841 H   0  0  0  0  0  0  0  0  0  0  0  0
  147.5443  135.7289  153.6734 H   0  0  0  0  0  0  0  0  0  0  0  0
  1  2  2  0  0  0  0
  2  3  1  0  0  0  0
  2 15  1  0  0  0  0
  3  4  1  0  0  0  0
  3 21  1  0  0  0  0
  3 22  1  0  0  0  0
  4 13  1  0  0  0  0
  4  5  1  0  0  0  0
  5  6  2  0  0  0  0
  5 23  1  0  0  0  0
  6  7  1  0  0  0  0
  7  8  1  0  0  0  0
  7 12  2  0  0  0  0
  8 11  1  0  0  0  0
  8  9  1  0  0  0  0
  8 24  1  0  0  0  0
  9 10  1  0  0  0  0
  9 25  1  0  0  0  0
  9 26  1  0  0  0  0
 10 11  1  0  0  0  0
 10 27  1  0  0  0  0
 10 28  1  0  0  0  0
 11 29  1  0  0  0  0
 11 30  1  0  0  0  0
 12 13  1  0  0  0  0
 12 31  1  0  0  0  0
 13 14  2  0  0  0  0
 15 16  1  0  0  0  0
 15 32  1  0  0  0  0
 16 20  1  0  0  0  0
 16 17  1  0  0  0  0
 16 33  1  0  0  0  0
 17 18  1  0  0  0  0
 17 34  1  0  0  0  0
 17 35  1  0  0  0  0
 18 19  1  0  0  0  0
 18 36  1  0  0  0  0
 18 37  1  0  0  0  0
 19 20  1  0  0  0  0
 19 38  1  0  0  0  0
 19 39  1  0  0  0  0
 20 40  1  0  0  0  0
 20 41  1  0  0  0  0
M  END
> <s_m_source_file>
AV-unprocessed.smi

> <i_m_source_file_index>
2998

> <i_lp_mmshare_version>
43012

> <i_f3d_flags>
0

> <s_epik_input>
W0NIMl0xW0NIMl1bQ0gyXVtDSDJdW0NIXTFbTkhdQyg9TylbQ0gyXW4yW2NIXW5jKFtjSF1jMj1PKVtDSF0zW0NIMl1bQ0gyXVtDSDJdMw==

> <s_epik_cmdline>
J2VwaWtfcHl0aG9uJywgJy1waCcsICc3LjAnLCAnLXRuJywgJzgnLCAnLW1hJywgJzIwMCcsICctbWV0YWxfYmluZGluZycsICctaW1hZScsICc8aW5maWxlLm1hZT4nLCAnLW9tYWUnLCAnPG91dGZpbGUubWFlPic=

> <r_lp_tautomer_probability>
1

> <r_epik_Ionization_Penalty>
7.51496e-06

> <r_epik_Ionization_Penalty_Charging>
8.69507e-09

> <r_epik_Ionization_Penalty_Neutral>
7.50627e-06

> <r_epik_State_Penalty>
-0

> <r_epik_Charging_Adjusted_Penalty>
8.69507e-09

> <i_epik_Tot_Q>
0

> <i_epik_Tot_abs_Q>
0

> <r_epik_Metal_State_Penalty>
-0

> <b_epik_Metal_Only>
0

> <s_lp_Force_Field>
OPLS_2005

> <r_lp_Energy>
32.6408

> <b_lp_Chiralities_Consistent>
1

> <s_lp_Variant>
AV-unprocessed.smi:2998-1

> <Gold.Version>
5.8.1

> <Gold.Id.Protein>
6NUR|6NUR_protein|mol2

> <Gold.PLP.Fitness>
46.1851

> <Gold.PLP.PLP>
-41.2456

> <Gold.PLP.part.hbond>
-3.0000

> <Gold.PLP.part.metal>
0.0000

> <Gold.PLP.part.buried>
-3.4383

> <Gold.PLP.part.nonpolar>
-34.4489

> <Gold.PLP.part.repulsive>
0.1663

> <Gold.PLP.ligand.clash>
0.0000

> <Gold.PLP.ligand.torsion>
0.6590

> <Gold.PLP.Chemscore.Hbond>
1.9600

> <Gold.PLP.Chemscore.CHOScore>
0.0000

> <Gold.PLP.Chemscore.Metal>
0.0000

> <Gold.Chemscore.Hbonds>
donor molecule, donor type, donor heavy atom, donor atom, acceptor molecule, acceptor atom, score
      P1  H  7997  8008       L1    14  0.90
      P1  H 10752 10764       L1     1  0.96

> <Gold.PLP.Chemscore.Internal.Correction>
0.3775

> <Gold.Rescore>
     Score         DG    S(hbond)    S(metal)    S(lipo)     H(rot)  DE(clash)    DE(int)     intcor
     13.77     -16.88       1.72        0.00      83.85       1.63       0.00       3.11       ----

> <Gold.Chemscore.Fitness>
13.7699

> <Gold.Chemscore.DG>
-16.8809

> <Gold.Chemscore.ZeroCoef>
-5.4800

> <Gold.Chemscore.Hbond>
1.7246

> <Gold.Chemscore.Metal>
0.0000

> <Gold.Chemscore.Lipo>
83.8543

> <Gold.Chemscore.Internal_Hbond>
0.0000

> <Gold.Chemscore.DEClash>
0.0000

> <Gold.Chemscore.DEInternal>
3.1110

> <Gold.Chemscore.Rot>
1.6290

> <Gold.Chemscore.Internal.Correction>
   9.000000E+99

> <Gold.Chemscore.Hbonds>
donor molecule, donor type, donor heavy atom, donor atom, acceptor molecule, acceptor atom, score
      P1  H  7997  8008       L1    14  0.17
      P1  H 10752 10764       L1     1  0.77

> <Gold.Chemscore.Hbond.Weighted>
-5.7602

> <Gold.Chemscore.Metal.Weighted>
-0.0000

> <Gold.Chemscore.Lipo.Weighted>
-9.8110

> <Gold.Chemscore.Internal_Hbond.Weighted>
0.0000

> <Gold.Chemscore.DEClash.Weighted>
0.0000

> <Gold.Chemscore.DEInternal.Weighted>
3.1110

> <Gold.Chemscore.Rot.Weighted>
4.1702

> <Gold.Chemscore.Internal.Correction.Weighted>
   9.000000E+99

> <Gold.Protein.RotatedTorsions>
[ 6907 6896 6895 6894 ] final -111.14 input  -60.11 | X-H torsion
[ 7974 7965 7964 7962 ] final  -76.84 input  175.53 | X-H torsion
[ 8008 7997 7996 7995 ] final  -66.92 input   59.86 | X-H torsion
[ 10167 10162 10161 10158 ] final   32.32 input  -65.29 | X-H torsion
[ 10718 10713 10712 10709 ] final  166.56 input   66.30 | X-H torsion
[ 10763 10752 10751 10750 ] final  -56.44 input  -60.55 | X-H torsion
[ 11005 11000 10999 10996 ] final  172.40 input  -57.11 | X-H torsion

> <Gold.Protein.ActiveResidues>
 VAL166  LYS551  ARG553  GLY616  TRP617  ASP618  TYR619  PRO620  LYS621  CYS622 
 ASP623  PHE694  ASN695  SER759  ASP760  ASP761  ALA762  ILE779  LEU786  VAL792 
 PHE793  MET794  SER795  GLU796  ALA797  LYS798  CYS799  TRP800  GLU811  SER814 

> <Gold.Protein.RotatedAtoms>
  150.7671  133.9278  159.3417 H   0  0  0  0  0  0  0  0  0  0  0  0  # atno 6907 bound_to 6896
  151.7174  135.0899  160.0287 H   0  0  0  0  0  0  0  0  0  0  0  0  # atno 6908 bound_to 6896
  152.3671  133.6333  159.6095 H   0  0  0  0  0  0  0  0  0  0  0  0  # atno 6909 bound_to 6896
  145.6076  140.9394  143.1207 H   0  0  0  0  0  0  0  0  0  0  0  0  # atno 7974 bound_to 7965
  154.4766  140.0903  156.7277 H   0  0  0  0  0  0  0  0  0  0  0  0  # atno 8008 bound_to 7997
  155.4580  140.3460  155.4291 H   0  0  0  0  0  0  0  0  0  0  0  0  # atno 8009 bound_to 7997
  156.1126  140.1452  156.9306 H   0  0  0  0  0  0  0  0  0  0  0  0  # atno 8010 bound_to 7997
  140.4509  144.1050  150.6191 H   0  0  0  0  0  0  0  0  0  0  0  0  # atno 10167 bound_to 10162
  157.0641  131.0348  151.2636 H   0  0  0  0  0  0  0  0  0  0  0  0  # atno 10718 bound_to 10713
  154.2067  135.6401  153.5103 H   0  0  0  0  0  0  0  0  0  0  0  0  # atno 10763 bound_to 10752
  152.9999  135.5464  154.6259 H   0  0  0  0  0  0  0  0  0  0  0  0  # atno 10764 bound_to 10752
  154.5685  135.2915  155.0824 H   0  0  0  0  0  0  0  0  0  0  0  0  # atno 10765 bound_to 10752
  140.3294  134.7370  157.4123 H   0  0  0  0  0  0  0  0  0  0  0  0  # atno 11005 bound_to 11000
  144.7283  139.7804  143.7356 LP  0  0  0  0  0  0  0  0  0  0  0  0  # atno 17320 bound_to 7965
  146.1529  139.4618  143.0037 LP  0  0  0  0  0  0  0  0  0  0  0  0  # atno 17321 bound_to 7965
  140.4208  143.2612  151.9717 LP  0  0  0  0  0  0  0  0  0  0  0  0  # atno 17342 bound_to 10162
  139.4796  144.5832  151.7897 LP  0  0  0  0  0  0  0  0  0  0  0  0  # atno 17343 bound_to 10162
  157.4931  130.7834  149.7527 LP  0  0  0  0  0  0  0  0  0  0  0  0  # atno 17370 bound_to 10713
  155.9969  130.3903  150.2759 LP  0  0  0  0  0  0  0  0  0  0  0  0  # atno 17371 bound_to 10713
  140.0874  134.5648  155.8478 LP  0  0  0  0  0  0  0  0  0  0  0  0  # atno 17394 bound_to 11000
  141.2067  133.6658  156.6260 LP  0  0  0  0  0  0  0  0  0  0  0  0  # atno 17395 bound_to 11000

$$$$
