AV-unprocessed.smi:1189|AV-procd|sdf|4978|dock2
  -GOLD-   22720 3573D 1   1.00000     0.00000
 Structure written by MMmdl.
 33 34  0  0  0  0  0  0  0  0  1 V2000
  151.7153  140.7834  157.3244 O   0  0  0  0  0  0  0  0  0  0  0  0
  151.1836  141.8833  157.1640 C   0  0  0  0  0  0  0  0  0  0  0  0
  151.4999  143.0641  158.0907 C   0  0  0  0  0  0  0  0  0  0  0  0
  152.2181  142.6695  159.2919 N   0  0  0  0  0  0  0  0  0  0  0  0
  152.1658  143.2370  160.5471 C   0  0  0  0  0  0  0  0  0  0  0  0
  153.0139  142.5282  161.3482 C   0  0  0  0  0  0  0  0  0  0  0  0
  153.5529  141.5296  160.4857 C   0  0  0  0  0  0  0  0  0  0  0  0
  154.5510  140.4507  160.8153 C   0  0  0  0  0  0  0  0  0  0  0  0
  155.6602  140.6106  160.0934 F   0  0  0  0  0  0  0  0  0  0  0  0
  154.8690  140.5051  162.1086 F   0  0  0  0  0  0  0  0  0  0  0  0
  154.0332  139.2525  160.5446 F   0  0  0  0  0  0  0  0  0  0  0  0
  153.0687  141.6212  159.2540 N   0  0  0  0  0  0  0  0  0  0  0  0
  150.2964  142.1326  156.1889 N   0  0  0  0  0  0  0  0  0  0  0  0
  149.8444  141.1642  155.1957 C   0  0  0  0  0  0  0  0  0  0  0  0
  148.7075  141.7225  154.3187 C   0  0  2  0  0  0  0  0  0  0  0  0
  147.4403  142.0795  155.0709 C   0  0  0  0  0  0  0  0  0  0  0  0
  146.4135  142.1143  153.9446 C   0  0  0  0  0  0  0  0  0  0  0  0
  146.8274  141.1124  153.0213 O   0  0  0  0  0  0  0  0  0  0  0  0
  148.1739  140.7270  153.2872 C   0  0  0  0  0  0  0  0  0  0  0  0
  152.0885  143.8077  157.5508 H   0  0  0  0  0  0  0  0  0  0  0  0
  150.5679  143.5459  158.3881 H   0  0  0  0  0  0  0  0  0  0  0  0
  151.5355  144.0872  160.7629 H   0  0  0  0  0  0  0  0  0  0  0  0
  153.2193  142.6973  162.3948 H   0  0  0  0  0  0  0  0  0  0  0  0
  149.9068  143.0624  156.1290 H   0  0  0  0  0  0  0  0  0  0  0  0
  150.6829  140.8508  154.5715 H   0  0  0  0  0  0  0  0  0  0  0  0
  149.5066  140.2729  155.7253 H   0  0  0  0  0  0  0  0  0  0  0  0
  149.0569  142.6107  153.7887 H   0  0  0  0  0  0  0  0  0  0  0  0
  147.1861  141.2961  155.7865 H   0  0  0  0  0  0  0  0  0  0  0  0
  147.5111  143.0259  155.6079 H   0  0  0  0  0  0  0  0  0  0  0  0
  145.3971  141.9385  154.2977 H   0  0  0  0  0  0  0  0  0  0  0  0
  146.4363  143.0813  153.4407 H   0  0  0  0  0  0  0  0  0  0  0  0
  148.7705  140.7168  152.3747 H   0  0  0  0  0  0  0  0  0  0  0  0
  148.1631  139.7144  153.6928 H   0  0  0  0  0  0  0  0  0  0  0  0
  1  2  2  0  0  0  0
  2  3  1  0  0  0  0
  2 13  1  0  0  0  0
  3  4  1  0  0  0  0
  3 20  1  0  0  0  0
  3 21  1  0  0  0  0
  4 12  1  0  0  0  0
  4  5  1  0  0  0  0
  5  6  2  0  0  0  0
  5 22  1  0  0  0  0
  6  7  1  0  0  0  0
  6 23  1  0  0  0  0
  7  8  1  0  0  0  0
  7 12  2  0  0  0  0
  8  9  1  0  0  0  0
  8 10  1  0  0  0  0
  8 11  1  0  0  0  0
 13 14  1  0  0  0  0
 13 24  1  0  0  0  0
 14 15  1  0  0  0  0
 14 25  1  0  0  0  0
 14 26  1  0  0  0  0
 15 19  1  0  0  0  0
 15 16  1  0  0  0  0
 15 27  1  0  0  0  0
 16 17  1  0  0  0  0
 16 28  1  0  0  0  0
 16 29  1  0  0  0  0
 17 18  1  0  0  0  0
 17 30  1  0  0  0  0
 17 31  1  0  0  0  0
 18 19  1  0  0  0  0
 19 32  1  0  0  0  0
 19 33  1  0  0  0  0
M  END
> <s_m_source_file>
AV-unprocessed.smi

> <i_m_source_file_index>
1189

> <i_lp_mmshare_version>
43012

> <i_f3d_flags>
0

> <s_epik_input>
W0NIMl0xT1tDSDJdW0NIMl1bQ0BIXTFbQ0gyXVtOSF1DKD1PKVtDSDJdbjJbY0hdW2NIXWMobjIpQyhGKShGKUY=

> <s_epik_cmdline>
J2VwaWtfcHl0aG9uJywgJy1waCcsICc3LjAnLCAnLXRuJywgJzgnLCAnLW1hJywgJzIwMCcsICctbWV0YWxfYmluZGluZycsICctaW1hZScsICc8aW5maWxlLm1hZT4nLCAnLW9tYWUnLCAnPG91dGZpbGUubWFlPic=

> <r_lp_tautomer_probability>
1

> <r_epik_Ionization_Penalty>
1.26564e-07

> <r_epik_Ionization_Penalty_Charging>
0

> <r_epik_Ionization_Penalty_Neutral>
1.26564e-07

> <r_epik_State_Penalty>
-0

> <r_epik_Charging_Adjusted_Penalty>
0

> <i_epik_Tot_Q>
0

> <i_epik_Tot_abs_Q>
0

> <r_epik_Metal_State_Penalty>
-0

> <b_epik_Metal_Only>
0

> <s_lp_Force_Field>
OPLS_2005

> <r_lp_Energy>
21.601

> <b_lp_Chiralities_Consistent>
1

> <s_lp_Variant>
AV-unprocessed.smi:1189-1

> <Gold.Version>
5.8.1

> <Gold.Id.Protein>
6NUR|6NUR_protein|mol2

> <Gold.PLP.Fitness>
43.2268

> <Gold.PLP.PLP>
-41.3007

> <Gold.PLP.part.hbond>
-1.0000

> <Gold.PLP.part.metal>
0.0000

> <Gold.PLP.part.buried>
0.5409

> <Gold.PLP.part.nonpolar>
-40.5131

> <Gold.PLP.part.repulsive>
0.3071

> <Gold.PLP.ligand.clash>
0.0000

> <Gold.PLP.ligand.torsion>
0.5593

> <Gold.PLP.Chemscore.Hbond>
1.0000

> <Gold.PLP.Chemscore.CHOScore>
0.0000

> <Gold.PLP.Chemscore.Metal>
0.0000

> <Gold.Chemscore.Hbonds>
donor molecule, donor type, donor heavy atom, donor atom, acceptor molecule, acceptor atom, score
      L1  H    13    24       P1  8028  1.00

> <Gold.PLP.Chemscore.Internal.Correction>
0.0448

> <Gold.Rescore>
     Score         DG    S(hbond)    S(metal)    S(lipo)     H(rot)  DE(clash)    DE(int)     intcor
     11.20     -13.74       0.97        0.00      84.39       1.89       0.17       2.36       ----

> <Gold.Chemscore.Fitness>
11.2039

> <Gold.Chemscore.DG>
-13.7380

> <Gold.Chemscore.ZeroCoef>
-5.4800

> <Gold.Chemscore.Hbond>
0.9670

> <Gold.Chemscore.Metal>
0.0000

> <Gold.Chemscore.Lipo>
84.3913

> <Gold.Chemscore.Internal_Hbond>
0.0000

> <Gold.Chemscore.DEClash>
0.1707

> <Gold.Chemscore.DEInternal>
2.3634

> <Gold.Chemscore.Rot>
1.8928

> <Gold.Chemscore.Internal.Correction>
   9.000000E+99

> <Gold.Chemscore.Hbonds>
donor molecule, donor type, donor heavy atom, donor atom, acceptor molecule, acceptor atom, score
      L1  H    13    24       P1  8028  0.96

> <Gold.Chemscore.Hbond.Weighted>
-3.2297

> <Gold.Chemscore.Metal.Weighted>
-0.0000

> <Gold.Chemscore.Lipo.Weighted>
-9.8738

> <Gold.Chemscore.Internal_Hbond.Weighted>
0.0000

> <Gold.Chemscore.DEClash.Weighted>
0.1707

> <Gold.Chemscore.DEInternal.Weighted>
2.3634

> <Gold.Chemscore.Rot.Weighted>
4.8455

> <Gold.Chemscore.Internal.Correction.Weighted>
   9.000000E+99

> <Gold.Protein.RotatedTorsions>
[ 6907 6896 6895 6894 ] final    6.80 input  -60.11 | X-H torsion
[ 7974 7965 7964 7962 ] final   94.42 input  175.53 | X-H torsion
[ 8008 7997 7996 7995 ] final   28.28 input   59.86 | X-H torsion
[ 10167 10162 10161 10158 ] final -104.41 input  -65.29 | X-H torsion
[ 10718 10713 10712 10709 ] final -133.83 input   66.30 | X-H torsion
[ 10763 10752 10751 10750 ] final   26.81 input  -60.55 | X-H torsion
[ 11005 11000 10999 10996 ] final  -67.43 input  -57.11 | X-H torsion

> <Gold.Protein.ActiveResidues>
 VAL166  LYS551  ARG553  GLY616  TRP617  ASP618  TYR619  PRO620  LYS621  CYS622 
 ASP623  PHE694  ASN695  SER759  ASP760  ASP761  ALA762  ILE779  LEU786  VAL792 
 PHE793  MET794  SER795  GLU796  ALA797  LYS798  CYS799  TRP800  GLU811  SER814 

> <Gold.Protein.RotatedAtoms>
  151.6795  135.0964  160.0213 H   0  0  0  0  0  0  0  0  0  0  0  0  # atno 6907 bound_to 6896
  152.3844  133.6586  159.6195 H   0  0  0  0  0  0  0  0  0  0  0  0  # atno 6908 bound_to 6896
  150.7773  133.8977  159.3373 H   0  0  0  0  0  0  0  0  0  0  0  0  # atno 6909 bound_to 6896
  145.4658  139.2284  143.2962 H   0  0  0  0  0  0  0  0  0  0  0  0  # atno 7974 bound_to 7965
  155.0562  140.3185  155.4675 H   0  0  0  0  0  0  0  0  0  0  0  0  # atno 8008 bound_to 7997
  156.2823  140.2137  156.5632 H   0  0  0  0  0  0  0  0  0  0  0  0  # atno 8009 bound_to 7997
  154.7170  140.0493  157.0591 H   0  0  0  0  0  0  0  0  0  0  0  0  # atno 8010 bound_to 7997
  140.2095  143.3757  152.1062 H   0  0  0  0  0  0  0  0  0  0  0  0  # atno 10167 bound_to 10162
  156.2491  130.7142  151.1034 H   0  0  0  0  0  0  0  0  0  0  0  0  # atno 10718 bound_to 10713
  153.0597  135.6551  154.0491 H   0  0  0  0  0  0  0  0  0  0  0  0  # atno 10763 bound_to 10752
  154.0162  135.2924  155.3388 H   0  0  0  0  0  0  0  0  0  0  0  0  # atno 10764 bound_to 10752
  154.6930  135.5275  153.8486 H   0  0  0  0  0  0  0  0  0  0  0  0  # atno 10765 bound_to 10752
  141.1508  133.6719  156.6291 H   0  0  0  0  0  0  0  0  0  0  0  0  # atno 11005 bound_to 11000
  146.2425  140.5431  142.8928 LP  0  0  0  0  0  0  0  0  0  0  0  0  # atno 17320 bound_to 7965
  144.7975  140.6151  143.6500 LP  0  0  0  0  0  0  0  0  0  0  0  0  # atno 17321 bound_to 7965
  139.5185  144.7007  151.5502 LP  0  0  0  0  0  0  0  0  0  0  0  0  # atno 17342 bound_to 10162
  140.6333  143.9033  150.6625 LP  0  0  0  0  0  0  0  0  0  0  0  0  # atno 17343 bound_to 10162
  157.7207  131.0683  150.6147 LP  0  0  0  0  0  0  0  0  0  0  0  0  # atno 17370 bound_to 10713
  156.6226  130.4410  149.5816 LP  0  0  0  0  0  0  0  0  0  0  0  0  # atno 17371 bound_to 10713
  140.3481  134.7792  157.4447 LP  0  0  0  0  0  0  0  0  0  0  0  0  # atno 17394 bound_to 11000
  140.0883  134.5636  155.8470 LP  0  0  0  0  0  0  0  0  0  0  0  0  # atno 17395 bound_to 11000

$$$$
