AV-unprocessed.smi:1007|AV-procd|sdf|4402|dock9
  -GOLD-   22720 2343D 1   1.00000     0.00000
 Structure written by MMmdl.
 57 59  0  0  0  0  0  0  0  0  3 V2000
  145.4003  132.4063  156.9553 C   0  0  0  0  0  0  0  0  0  0  0  0
  145.1879  133.7704  156.6270 O   0  0  0  0  0  0  0  0  0  0  0  0
  146.2373  134.6367  157.0343 C   0  0  0  0  0  0  0  0  0  0  0  0
  147.5797  134.2396  156.3915 C   0  0  0  0  0  0  0  0  0  0  0  0
  147.7204  134.6111  154.9803 N   0  0  0  0  0  0  0  0  0  0  0  0
  147.5214  136.0422  154.7516 C   0  0  0  0  0  0  0  0  0  0  0  0
  148.6898  136.9093  155.2642 C   0  0  0  0  0  0  0  0  0  0  0  0
  149.9619  136.4726  154.6349 N   0  3  0  0  0  0  0  0  0  0  0  0
  151.1093  137.3468  154.9826 C   0  0  0  0  0  0  0  0  0  0  0  0
  150.7099  138.8190  155.2403 C   0  0  2  0  0  0  0  0  0  0  0  0
  150.8549  139.5165  154.0218 O   0  0  0  0  0  0  0  0  0  0  0  0
  151.5661  139.5597  156.2928 C   0  0  0  0  0  0  0  0  0  0  0  0
  151.0359  140.8855  156.6460 N   0  0  0  0  0  0  0  0  0  0  0  0
  150.0967  141.6354  156.0069 C   0  0  0  0  0  0  0  0  0  0  0  0
  149.9294  142.7817  156.7218 N   0  3  0  0  0  0  0  0  0  0  0  0
  150.7805  142.7700  157.8283 C   0  0  0  0  0  0  0  0  0  0  0  0
  150.9604  143.6990  158.8457 C   0  0  0  0  0  0  0  0  0  0  0  0
  151.9086  143.3856  159.8450 C   0  0  0  0  0  0  0  0  0  0  0  0
  152.1196  144.3735  160.9795 C   0  0  0  0  0  0  0  0  0  0  0  0
  152.6482  142.1758  159.7955 C   0  0  0  0  0  0  0  0  0  0  0  0
  153.6642  141.8476  160.8762 C   0  0  0  0  0  0  0  0  0  0  0  0
  152.4554  141.2465  158.7484 C   0  0  0  0  0  0  0  0  0  0  0  0
  151.5075  141.5641  157.7778 C   0  0  0  0  0  0  0  0  0  0  0  0
  150.1973  135.0255  154.8769 C   0  0  0  0  0  0  0  0  0  0  0  0
  148.9910  134.2091  154.3707 C   0  0  0  0  0  0  0  0  0  0  0  0
  144.5824  131.8064  156.5563 H   0  0  0  0  0  0  0  0  0  0  0  0
  145.4286  132.2485  158.0332 H   0  0  0  0  0  0  0  0  0  0  0  0
  146.3289  132.0338  156.5215 H   0  0  0  0  0  0  0  0  0  0  0  0
  145.9730  135.6727  156.8194 H   0  0  0  0  0  0  0  0  0  0  0  0
  146.3222  134.5548  158.1182 H   0  0  0  0  0  0  0  0  0  0  0  0
  148.3690  134.7354  156.9580 H   0  0  0  0  0  0  0  0  0  0  0  0
  147.7483  133.1718  156.5208 H   0  0  0  0  0  0  0  0  0  0  0  0
  147.3969  136.2151  153.6820 H   0  0  0  0  0  0  0  0  0  0  0  0
  146.5880  136.3664  155.2133 H   0  0  0  0  0  0  0  0  0  0  0  0
  148.4955  137.9524  155.0132 H   0  0  0  0  0  0  0  0  0  0  0  0
  148.7726  136.8581  156.3507 H   0  0  0  0  0  0  0  0  0  0  0  0
  151.5979  136.9620  155.8792 H   0  0  0  0  0  0  0  0  0  0  0  0
  151.8486  137.2841  154.1821 H   0  0  0  0  0  0  0  0  0  0  0  0
  149.6570  138.8919  155.5105 H   0  0  0  0  0  0  0  0  0  0  0  0
  150.4212  139.0303  153.3364 H   0  0  0  0  0  0  0  0  0  0  0  0
  151.6996  138.9588  157.1918 H   0  0  0  0  0  0  0  0  0  0  0  0
  152.5681  139.7290  155.8955 H   0  0  0  0  0  0  0  0  0  0  0  0
  149.5733  141.3668  155.1003 H   0  0  0  0  0  0  0  0  0  0  0  0
  150.3955  144.6197  158.8756 H   0  0  0  0  0  0  0  0  0  0  0  0
  153.1427  144.7498  160.9735 H   0  0  0  0  0  0  0  0  0  0  0  0
  151.9295  143.8989  161.9424 H   0  0  0  0  0  0  0  0  0  0  0  0
  151.4495  145.2295  160.8935 H   0  0  0  0  0  0  0  0  0  0  0  0
  154.1721  140.9042  160.6741 H   0  0  0  0  0  0  0  0  0  0  0  0
  153.1748  141.7616  161.8466 H   0  0  0  0  0  0  0  0  0  0  0  0
  154.4241  142.6270  160.9387 H   0  0  0  0  0  0  0  0  0  0  0  0
  153.0178  140.3250  158.7204 H   0  0  0  0  0  0  0  0  0  0  0  0
  151.0889  134.6937  154.3468 H   0  0  0  0  0  0  0  0  0  0  0  0
  150.3777  134.8452  155.9372 H   0  0  0  0  0  0  0  0  0  0  0  0
  149.1693  133.1454  154.5234 H   0  0  0  0  0  0  0  0  0  0  0  0
  148.9162  134.3355  153.2898 H   0  0  0  0  0  0  0  0  0  0  0  0
  149.8251  136.5788  153.6399 H   0  0  0  0  0  0  0  0  0  0  0  0
  149.2837  143.5191  156.4680 H   0  0  0  0  0  0  0  0  0  0  0  0
  1  2  1  0  0  0  0
  1 26  1  0  0  0  0
  1 27  1  0  0  0  0
  1 28  1  0  0  0  0
  2  3  1  0  0  0  0
  3  4  1  0  0  0  0
  3 29  1  0  0  0  0
  3 30  1  0  0  0  0
  4  5  1  0  0  0  0
  4 31  1  0  0  0  0
  4 32  1  0  0  0  0
  5 25  1  0  0  0  0
  5  6  1  0  0  0  0
  6  7  1  0  0  0  0
  6 33  1  0  0  0  0
  6 34  1  0  0  0  0
  7  8  1  0  0  0  0
  7 35  1  0  0  0  0
  7 36  1  0  0  0  0
  8  9  1  0  0  0  0
  8 24  1  0  0  0  0
  8 56  1  0  0  0  0
  9 10  1  0  0  0  0
  9 37  1  0  0  0  0
  9 38  1  0  0  0  0
 10 11  1  0  0  0  0
 10 12  1  0  0  0  0
 10 39  1  0  0  0  0
 11 40  1  0  0  0  0
 12 13  1  0  0  0  0
 12 41  1  0  0  0  0
 12 42  1  0  0  0  0
 13 23  1  0  0  0  0
 13 14  1  0  0  0  0
 14 15  2  0  0  0  0
 14 43  1  0  0  0  0
 15 16  1  0  0  0  0
 15 57  1  0  0  0  0
 16 23  2  0  0  0  0
 16 17  1  0  0  0  0
 17 18  2  0  0  0  0
 17 44  1  0  0  0  0
 18 19  1  0  0  0  0
 18 20  1  0  0  0  0
 19 45  1  0  0  0  0
 19 46  1  0  0  0  0
 19 47  1  0  0  0  0
 20 21  1  0  0  0  0
 20 22  2  0  0  0  0
 21 48  1  0  0  0  0
 21 49  1  0  0  0  0
 21 50  1  0  0  0  0
 22 23  1  0  0  0  0
 22 51  1  0  0  0  0
 24 25  1  0  0  0  0
 24 52  1  0  0  0  0
 24 53  1  0  0  0  0
 25 54  1  0  0  0  0
 25 55  1  0  0  0  0
M  CHG  1   8   1
M  CHG  1  15   1
M  END
> <s_m_source_file>
AV-unprocessed.smi

> <i_m_source_file_index>
1007

> <i_lp_mmshare_version>
43012

> <i_f3d_flags>
0

> <s_epik_input>
W0NIM11PW0NIMl1bQ0gyXU4xW0NIMl1bQ0gyXU4oW0NIMl1bQ0gyXTEpW0NIMl1bQ0BIXShbT0hdKVtDSDJdbihbY0hdbjIpYyhjMjMpW2NIXWMoW0NIM10pYyhbY0hdMylbQ0gzXQ==

> <s_epik_cmdline>
J2VwaWtfcHl0aG9uJywgJy1waCcsICc3LjAnLCAnLXRuJywgJzgnLCAnLW1hJywgJzIwMCcsICctbWV0YWxfYmluZGluZycsICctaW1hZScsICc8aW5maWxlLm1hZT4nLCAnLW9tYWUnLCAnPG91dGZpbGUubWFlPic=

> <r_epik_Ionization_Penalty>
1.19231

> <r_epik_Ionization_Penalty_Charging>
1.17974

> <r_epik_Ionization_Penalty_Neutral>
0.0125676

> <r_epik_State_Penalty>
1.24499

> <r_epik_Charging_Adjusted_Penalty>
2.42472

> <i_epik_Tot_Q>
2

> <i_epik_Tot_abs_Q>
2

> <r_epik_Metal_State_Penalty>
5.24866

> <b_epik_Metal_Only>
0

> <s_lp_Force_Field>
OPLS_2005

> <r_lp_Energy>
43.594

> <b_lp_Chiralities_Consistent>
1

> <s_lp_Variant>
AV-unprocessed.smi:1007-5

> <Gold.Version>
5.8.1

> <Gold.Id.Protein>
6NUR|6NUR_protein|mol2

> <Gold.PLP.Fitness>
55.6659

> <Gold.PLP.PLP>
-42.4322

> <Gold.PLP.part.hbond>
-3.4331

> <Gold.PLP.part.metal>
0.0000

> <Gold.PLP.part.buried>
-3.7682

> <Gold.PLP.part.nonpolar>
-35.6771

> <Gold.PLP.part.repulsive>
0.2130

> <Gold.PLP.ligand.clash>
0.0000

> <Gold.PLP.ligand.torsion>
1.0011

> <Gold.PLP.Chemscore.Hbond>
5.0000

> <Gold.PLP.Chemscore.CHOScore>
0.0000

> <Gold.PLP.Chemscore.Metal>
0.0000

> <Gold.Chemscore.Hbonds>
donor molecule, donor type, donor heavy atom, donor atom, acceptor molecule, acceptor atom, score
      L1  H     8    56       P1  7948  2.00
      L1  H    15    57       P1  8028  1.85
      P1  H  7989  7998       L1    11  1.00

> <Gold.PLP.Chemscore.Internal.Correction>
0.2359

> <Gold.Rescore>
     Score         DG    S(hbond)    S(metal)    S(lipo)     H(rot)  DE(clash)    DE(int)     intcor
     19.01     -21.18       2.78        0.00     112.52       2.64       0.33       1.84       ----

> <Gold.Chemscore.Fitness>
19.0062

> <Gold.Chemscore.DG>
-21.1760

> <Gold.Chemscore.ZeroCoef>
-5.4800

> <Gold.Chemscore.Hbond>
2.7836

> <Gold.Chemscore.Metal>
0.0000

> <Gold.Chemscore.Lipo>
112.5239

> <Gold.Chemscore.Internal_Hbond>
0.0000

> <Gold.Chemscore.DEClash>
0.3294

> <Gold.Chemscore.DEInternal>
1.8405

> <Gold.Chemscore.Rot>
2.6432

> <Gold.Chemscore.Internal.Correction>
   9.000000E+99

> <Gold.Chemscore.Hbonds>
donor molecule, donor type, donor heavy atom, donor atom, acceptor molecule, acceptor atom, score
      L1  H     8    56       P1  7948  0.34
      L1  H    15    57       P1  8028  0.86
      P1  H  7989  7998       L1    11  0.85

> <Gold.Chemscore.Hbond.Weighted>
-9.2972

> <Gold.Chemscore.Metal.Weighted>
-0.0000

> <Gold.Chemscore.Lipo.Weighted>
-13.1653

> <Gold.Chemscore.Internal_Hbond.Weighted>
0.0000

> <Gold.Chemscore.DEClash.Weighted>
0.3294

> <Gold.Chemscore.DEInternal.Weighted>
1.8405

> <Gold.Chemscore.Rot.Weighted>
6.7665

> <Gold.Chemscore.Internal.Correction.Weighted>
   9.000000E+99

> <Gold.Protein.RotatedTorsions>
[ 6907 6896 6895 6894 ] final  141.14 input  -60.11 | X-H torsion
[ 7974 7965 7964 7962 ] final   25.79 input  175.53 | X-H torsion
[ 8008 7997 7996 7995 ] final  -59.69 input   59.86 | X-H torsion
[ 10167 10162 10161 10158 ] final   -3.09 input  -65.29 | X-H torsion
[ 10718 10713 10712 10709 ] final  -98.33 input   66.30 | X-H torsion
[ 10763 10752 10751 10750 ] final    4.65 input  -60.55 | X-H torsion
[ 11005 11000 10999 10996 ] final  -52.74 input  -57.11 | X-H torsion

> <Gold.Protein.ActiveResidues>
 VAL166  LYS551  ARG553  GLY616  TRP617  ASP618  TYR619  PRO620  LYS621  CYS622 
 ASP623  PHE694  ASN695  SER759  ASP760  ASP761  ALA762  ILE779  LEU786  VAL792 
 PHE793  MET794  SER795  GLU796  ALA797  LYS798  CYS799  TRP800  GLU811  SER814 

> <Gold.Protein.RotatedAtoms>
  152.2346  133.5086  159.5235 H   0  0  0  0  0  0  0  0  0  0  0  0  # atno 6907 bound_to 6896
  150.7047  134.1170  159.4030 H   0  0  0  0  0  0  0  0  0  0  0  0  # atno 6908 bound_to 6896
  151.9091  135.0346  160.0563 H   0  0  0  0  0  0  0  0  0  0  0  0  # atno 6909 bound_to 6896
  146.1870  139.7417  142.8859 H   0  0  0  0  0  0  0  0  0  0  0  0  # atno 7974 bound_to 7965
  154.4364  140.1056  156.6155 H   0  0  0  0  0  0  0  0  0  0  0  0  # atno 8008 bound_to 7997
  155.5764  140.3490  155.4510 H   0  0  0  0  0  0  0  0  0  0  0  0  # atno 8009 bound_to 7997
  156.0351  140.1269  157.0205 H   0  0  0  0  0  0  0  0  0  0  0  0  # atno 8010 bound_to 7997
  140.6877  143.6580  150.8291 H   0  0  0  0  0  0  0  0  0  0  0  0  # atno 10167 bound_to 10162
  156.0105  130.5233  150.6506 H   0  0  0  0  0  0  0  0  0  0  0  0  # atno 10718 bound_to 10713
  153.2687  135.6930  153.7503 H   0  0  0  0  0  0  0  0  0  0  0  0  # atno 10763 bound_to 10752
  153.6535  135.3373  155.3107 H   0  0  0  0  0  0  0  0  0  0  0  0  # atno 10764 bound_to 10752
  154.8456  135.4460  154.1702 H   0  0  0  0  0  0  0  0  0  0  0  0  # atno 10765 bound_to 10752
  141.0940  133.6628  156.4068 H   0  0  0  0  0  0  0  0  0  0  0  0  # atno 11005 bound_to 11000
  145.3907  141.0372  143.3125 LP  0  0  0  0  0  0  0  0  0  0  0  0  # atno 17320 bound_to 7965
  144.8416  139.5462  143.6897 LP  0  0  0  0  0  0  0  0  0  0  0  0  # atno 17321 bound_to 7965
  140.0289  143.5464  152.2768 LP  0  0  0  0  0  0  0  0  0  0  0  0  # atno 17342 bound_to 10162
  139.6250  144.7635  151.2659 LP  0  0  0  0  0  0  0  0  0  0  0  0  # atno 17343 bound_to 10162
  157.4268  131.0844  151.1077 LP  0  0  0  0  0  0  0  0  0  0  0  0  # atno 17370 bound_to 10713
  157.1662  130.6247  149.5626 LP  0  0  0  0  0  0  0  0  0  0  0  0  # atno 17371 bound_to 10713
  140.5185  134.6327  157.5310 LP  0  0  0  0  0  0  0  0  0  0  0  0  # atno 17394 bound_to 11000
  139.9772  134.7196  155.9928 LP  0  0  0  0  0  0  0  0  0  0  0  0  # atno 17395 bound_to 11000

$$$$
