AV-unprocessed.smi:227|AV-procd|sdf|1737|dock9
  -GOLD-   2262020233D 1   1.00000     0.00000
 Structure written by MMmdl.
 54 58  0  0  0  0  0  0  0  0  1 V2000
  154.5694  140.0637  159.1629 O   0  0  0  0  0  0  0  0  0  0  0  0
  153.3431  140.0084  159.8622 C   0  0  0  0  0  0  0  0  0  0  0  0
  152.2745  140.9158  159.2042 C   0  0  2  0  0  0  0  0  0  0  0  0
  152.1189  140.6540  157.6854 C   0  0  0  0  0  0  0  0  0  0  0  0
  151.4288  139.4104  157.3888 N   0  0  0  0  0  0  0  0  0  0  0  0
  151.2060  138.3698  158.2598 C   0  0  0  0  0  0  0  0  0  0  0  0
  150.5645  137.3521  157.7547 N   0  0  0  0  0  0  0  0  0  0  0  0
  150.3267  137.7151  156.4333 C   0  0  0  0  0  0  0  0  0  0  0  0
  149.6881  137.0867  155.3247 C   0  0  0  0  0  0  0  0  0  0  0  0
  149.1300  135.8467  155.3780 N   0  0  0  0  0  0  0  0  0  0  0  0
  149.7426  134.7170  154.6952 C   0  0  1  0  0  0  0  0  0  0  0  0
  150.9642  134.3618  155.5691 C   0  0  0  0  0  0  0  0  0  0  0  0
  150.4373  134.7015  156.9720 C   0  0  0  0  0  0  0  0  0  0  0  0
  148.9990  135.1571  156.6526 C   0  0  2  0  0  0  0  0  0  0  0  0
  148.1500  133.9195  156.2852 C   0  0  1  0  0  0  0  0  0  0  0  0
  146.6336  134.1850  156.3191 C   0  0  0  0  0  0  0  0  0  0  0  0
  146.2237  134.5318  157.6246 O   0  0  0  0  0  0  0  0  0  0  0  0
  148.6725  133.6262  154.8637 C   0  0  0  0  0  0  0  0  0  0  0  0
  149.6175  137.7939  154.1653 N   0  0  0  0  0  0  0  0  0  0  0  0
  150.1549  139.0135  154.0801 C   0  0  0  0  0  0  0  0  0  0  0  0
  150.7934  139.7101  155.0208 N   0  0  0  0  0  0  0  0  0  0  0  0
  150.8526  139.0173  156.1935 C   0  0  0  0  0  0  0  0  0  0  0  0
  152.5173  142.4167  159.5042 C   0  0  1  0  0  0  0  0  0  0  0  0
  151.3327  143.3247  159.2245 C   0  0  0  0  0  0  0  0  0  0  0  0
  151.6920  144.5726  160.0224 C   0  0  0  0  0  0  0  0  0  0  0  0
  152.3957  144.1029  161.1659 O   0  0  0  0  0  0  0  0  0  0  0  0
  152.7752  142.7425  160.9798 C   0  0  0  0  0  0  0  0  0  0  0  0
  155.1869  140.5622  159.6760 H   0  0  0  0  0  0  0  0  0  0  0  0
  153.0088  138.9716  159.9011 H   0  0  0  0  0  0  0  0  0  0  0  0
  153.5188  140.3033  160.8964 H   0  0  0  0  0  0  0  0  0  0  0  0
  151.3230  140.6477  159.6659 H   0  0  0  0  0  0  0  0  0  0  0  0
  151.5580  141.4602  157.2126 H   0  0  0  0  0  0  0  0  0  0  0  0
  153.0966  140.6363  157.2025 H   0  0  0  0  0  0  0  0  0  0  0  0
  151.5404  138.3885  159.2869 H   0  0  0  0  0  0  0  0  0  0  0  0
  149.9941  134.8944  153.6489 H   0  0  0  0  0  0  0  0  0  0  0  0
  151.2613  133.3174  155.4690 H   0  0  0  0  0  0  0  0  0  0  0  0
  151.8258  134.9829  155.3217 H   0  0  0  0  0  0  0  0  0  0  0  0
  150.4721  133.8537  157.6571 H   0  0  0  0  0  0  0  0  0  0  0  0
  151.0150  135.5151  157.4127 H   0  0  0  0  0  0  0  0  0  0  0  0
  148.5567  135.7367  157.4605 H   0  0  0  0  0  0  0  0  0  0  0  0
  148.3753  133.0846  156.9506 H   0  0  0  0  0  0  0  0  0  0  0  0
  146.3578  134.9847  155.6307 H   0  0  0  0  0  0  0  0  0  0  0  0
  146.0870  133.2924  156.0136 H   0  0  0  0  0  0  0  0  0  0  0  0
  145.3896  134.1215  157.7958 H   0  0  0  0  0  0  0  0  0  0  0  0
  147.8857  133.7474  154.1176 H   0  0  0  0  0  0  0  0  0  0  0  0
  149.0774  132.6190  154.7613 H   0  0  0  0  0  0  0  0  0  0  0  0
  150.0588  139.5010  153.1212 H   0  0  0  0  0  0  0  0  0  0  0  0
  153.3650  142.7743  158.9171 H   0  0  0  0  0  0  0  0  0  0  0  0
  151.1918  143.5369  158.1643 H   0  0  0  0  0  0  0  0  0  0  0  0
  150.4125  142.8843  159.6117 H   0  0  0  0  0  0  0  0  0  0  0  0
  152.3579  145.2145  159.4442 H   0  0  0  0  0  0  0  0  0  0  0  0
  150.8157  145.1575  160.3025 H   0  0  0  0  0  0  0  0  0  0  0  0
  152.1519  142.1251  161.6281 H   0  0  0  0  0  0  0  0  0  0  0  0
  153.8157  142.5850  161.2644 H   0  0  0  0  0  0  0  0  0  0  0  0
  1  2  1  0  0  0  0
  1 28  1  0  0  0  0
  2  3  1  0  0  0  0
  2 29  1  0  0  0  0
  2 30  1  0  0  0  0
  3  4  1  0  0  0  0
  3 23  1  0  0  0  0
  3 31  1  0  0  0  0
  4  5  1  0  0  0  0
  4 32  1  0  0  0  0
  4 33  1  0  0  0  0
  5 22  1  0  0  0  0
  5  6  1  0  0  0  0
  6  7  2  0  0  0  0
  6 34  1  0  0  0  0
  7  8  1  0  0  0  0
  8 22  2  0  0  0  0
  8  9  1  0  0  0  0
  9 10  1  0  0  0  0
  9 19  2  0  0  0  0
 10 14  1  0  0  0  0
 10 11  1  0  0  0  0
 11 18  1  0  0  0  0
 11 12  1  0  0  0  0
 11 35  1  0  0  0  0
 12 13  1  0  0  0  0
 12 36  1  0  0  0  0
 12 37  1  0  0  0  0
 13 14  1  0  0  0  0
 13 38  1  0  0  0  0
 13 39  1  0  0  0  0
 14 15  1  0  0  0  0
 14 40  1  0  0  0  0
 15 16  1  0  0  0  0
 15 18  1  0  0  0  0
 15 41  1  0  0  0  0
 16 17  1  0  0  0  0
 16 42  1  0  0  0  0
 16 43  1  0  0  0  0
 17 44  1  0  0  0  0
 18 45  1  0  0  0  0
 18 46  1  0  0  0  0
 19 20  1  0  0  0  0
 20 21  2  0  0  0  0
 20 47  1  0  0  0  0
 21 22  1  0  0  0  0
 23 27  1  0  0  0  0
 23 24  1  0  0  0  0
 23 48  1  0  0  0  0
 24 25  1  0  0  0  0
 24 49  1  0  0  0  0
 24 50  1  0  0  0  0
 25 26  1  0  0  0  0
 25 51  1  0  0  0  0
 25 52  1  0  0  0  0
 26 27  1  0  0  0  0
 27 53  1  0  0  0  0
 27 54  1  0  0  0  0
M  END
> <s_m_source_file>
AV-unprocessed.smi

> <i_m_source_file_index>
227

> <i_lp_mmshare_version>
43012

> <i_f3d_flags>
0

> <s_epik_input>
W0NIMl0xT1tDSDJdW0NIMl1bQ0BIXTFbQ0BIXShbQ0gyXVtPSF0pW0NIMl1uKFtjSF1uMiljKGMyMyluW2NIXW5jM04oW0NASF00NSlbQ0BASF0oW0NIMl1bQ0gyXTQpW0NASF0oW0NIMl01KVtDSDJdW09IXQ==

> <s_epik_cmdline>
J2VwaWtfcHl0aG9uJywgJy1waCcsICc3LjAnLCAnLXRuJywgJzgnLCAnLW1hJywgJzIwMCcsICctbWV0YWxfYmluZGluZycsICctaW1hZScsICc8aW5maWxlLm1hZT4nLCAnLW9tYWUnLCAnPG91dGZpbGUubWFlPic=

> <r_lp_tautomer_probability>
1

> <r_epik_Ionization_Penalty>
0.0055791

> <r_epik_Ionization_Penalty_Charging>
0

> <r_epik_Ionization_Penalty_Neutral>
0.0055791

> <r_epik_State_Penalty>
0.00401299

> <r_epik_Charging_Adjusted_Penalty>
0.00401299

> <i_epik_Tot_Q>
0

> <i_epik_Tot_abs_Q>
0

> <r_epik_Metal_State_Penalty>
-0

> <b_epik_Metal_Only>
0

> <s_lp_Force_Field>
OPLS_2005

> <r_lp_Energy>
87.9703

> <b_lp_Chiralities_Consistent>
1

> <s_lp_Variant>
AV-unprocessed.smi:227-11

> <Gold.Version>
5.8.1

> <Gold.Id.Protein>
6NUR|6NUR_protein|mol2

> <Gold.PLP.Fitness>
37.8072

> <Gold.PLP.PLP>
-32.0092

> <Gold.PLP.part.hbond>
-1.8894

> <Gold.PLP.part.metal>
0.0000

> <Gold.PLP.part.buried>
-2.4613

> <Gold.PLP.part.nonpolar>
-28.9106

> <Gold.PLP.part.repulsive>
2.2393

> <Gold.PLP.ligand.clash>
0.0000

> <Gold.PLP.ligand.torsion>
0.7565

> <Gold.PLP.Chemscore.Hbond>
1.3705

> <Gold.PLP.Chemscore.CHOScore>
1.0000

> <Gold.PLP.Chemscore.Metal>
0.0000

> <Gold.Chemscore.Hbonds>
donor molecule, donor type, donor heavy atom, donor atom, acceptor molecule, acceptor atom, score
      P1  H  7989  7998       L1    21  0.34
      P1  H  7997  8008       L1     1  0.99
      L1  C    20    47       P1  7957  1.00

> <Gold.PLP.Chemscore.Internal.Correction>
0.1995

> <Gold.Rescore>
     Score         DG    S(hbond)    S(metal)    S(lipo)     H(rot)  DE(clash)    DE(int)     intcor
      5.32      -9.64       0.84        0.00      90.45       3.61       0.08       4.24       ----

> <Gold.Chemscore.Fitness>
5.3205

> <Gold.Chemscore.DG>
-9.6421

> <Gold.Chemscore.ZeroCoef>
-5.4800

> <Gold.Chemscore.Hbond>
0.8424

> <Gold.Chemscore.Metal>
0.0000

> <Gold.Chemscore.Lipo>
90.4501

> <Gold.Chemscore.Internal_Hbond>
0.0000

> <Gold.Chemscore.DEClash>
0.0805

> <Gold.Chemscore.DEInternal>
4.2412

> <Gold.Chemscore.Rot>
3.6071

> <Gold.Chemscore.Internal.Correction>
   9.000000E+99

> <Gold.Chemscore.Hbonds>
donor molecule, donor type, donor heavy atom, donor atom, acceptor molecule, acceptor atom, score
      P1  H  7989  7998       L1    21  0.01
      P1  H  7997  8008       L1     1  0.77

> <Gold.Chemscore.Hbond.Weighted>
-2.8137

> <Gold.Chemscore.Metal.Weighted>
-0.0000

> <Gold.Chemscore.Lipo.Weighted>
-10.5827

> <Gold.Chemscore.Internal_Hbond.Weighted>
0.0000

> <Gold.Chemscore.DEClash.Weighted>
0.0805

> <Gold.Chemscore.DEInternal.Weighted>
4.2412

> <Gold.Chemscore.Rot.Weighted>
9.2342

> <Gold.Chemscore.Internal.Correction.Weighted>
   9.000000E+99

> <Gold.Protein.RotatedTorsions>
[ 6907 6896 6895 6894 ] final  -48.88 input  -60.11 | X-H torsion
[ 7974 7965 7964 7962 ] final   16.69 input  175.53 | X-H torsion
[ 8008 7997 7996 7995 ] final -114.60 input   59.86 | X-H torsion
[ 10167 10162 10161 10158 ] final  -21.71 input  -65.29 | X-H torsion
[ 10718 10713 10712 10709 ] final   40.94 input   66.30 | X-H torsion
[ 10763 10752 10751 10750 ] final   -8.77 input  -60.55 | X-H torsion
[ 11005 11000 10999 10996 ] final  102.89 input  -57.11 | X-H torsion

> <Gold.Protein.ActiveResidues>
 VAL166  LYS551  ARG553  GLY616  TRP617  ASP618  TYR619  PRO620  LYS621  CYS622 
 ASP623  PHE694  ASN695  SER759  ASP760  ASP761  ALA762  ILE779  LEU786  VAL792 
 PHE793  MET794  SER795  GLU796  ALA797  LYS798  CYS799  TRP800  GLU811  SER814 

> <Gold.Protein.RotatedAtoms>
  150.8861  134.8259  159.7259 H   0  0  0  0  0  0  0  0  0  0  0  0  # atno 6907 bound_to 6896
  152.4808  134.4721  159.9648 H   0  0  0  0  0  0  0  0  0  0  0  0  # atno 6908 bound_to 6896
  151.4789  133.3512  159.2870 H   0  0  0  0  0  0  0  0  0  0  0  0  # atno 6909 bound_to 6896
  146.2242  139.8711  142.8587 H   0  0  0  0  0  0  0  0  0  0  0  0  # atno 7974 bound_to 7965
  155.0389  140.0392  157.2502 H   0  0  0  0  0  0  0  0  0  0  0  0  # atno 8008 bound_to 7997
  154.7234  140.2716  155.6497 H   0  0  0  0  0  0  0  0  0  0  0  0  # atno 8009 bound_to 7997
  156.2822  140.2698  156.1912 H   0  0  0  0  0  0  0  0  0  0  0  0  # atno 8010 bound_to 7997
  140.7283  143.4602  151.0390 H   0  0  0  0  0  0  0  0  0  0  0  0  # atno 10167 bound_to 10162
  157.3879  130.7790  149.7245 H   0  0  0  0  0  0  0  0  0  0  0  0  # atno 10718 bound_to 10713
  153.4452  135.7014  153.6144 H   0  0  0  0  0  0  0  0  0  0  0  0  # atno 10763 bound_to 10752
  153.4502  135.3760  155.2279 H   0  0  0  0  0  0  0  0  0  0  0  0  # atno 10764 bound_to 10752
  154.8728  135.3995  154.3856 H   0  0  0  0  0  0  0  0  0  0  0  0  # atno 10765 bound_to 10752
  139.8780  134.9242  156.5127 H   0  0  0  0  0  0  0  0  0  0  0  0  # atno 11005 bound_to 11000
  145.2607  141.0076  143.3828 LP  0  0  0  0  0  0  0  0  0  0  0  0  # atno 17320 bound_to 7965
  144.9301  139.4309  143.6499 LP  0  0  0  0  0  0  0  0  0  0  0  0  # atno 17321 bound_to 7965
  139.8286  143.7722  152.3179 LP  0  0  0  0  0  0  0  0  0  0  0  0  # atno 17342 bound_to 10162
  139.7829  144.7438  151.0062 LP  0  0  0  0  0  0  0  0  0  0  0  0  # atno 17343 bound_to 10162
  155.9791  130.4044  150.3607 LP  0  0  0  0  0  0  0  0  0  0  0  0  # atno 17370 bound_to 10713
  157.1720  131.0371  151.2791 LP  0  0  0  0  0  0  0  0  0  0  0  0  # atno 17371 bound_to 10713
  140.8508  133.8133  155.9167 LP  0  0  0  0  0  0  0  0  0  0  0  0  # atno 17394 bound_to 11000
  140.9146  134.2218  157.4965 LP  0  0  0  0  0  0  0  0  0  0  0  0  # atno 17395 bound_to 11000

$$$$
