AV-unprocessed.smi:2524|AV-procd|sdf|9924|dock4
  -GOLD-   2272013563D 1   1.00000     0.00000
 Structure written by MMmdl.
 35 36  0  0  0  0  0  0  0  0  2 V2000
  148.3234  140.9553  154.3059 C   0  0  0  0  0  0  0  0  0  0  0  0
  148.1547  139.6249  154.3353 C   0  0  0  0  0  0  0  0  0  0  0  0
  149.2733  138.6233  154.5316 C   0  0  0  0  0  0  0  0  0  0  0  0
  150.6531  139.2912  154.4844 C   0  0  0  0  0  0  0  0  0  0  0  0
  151.8275  138.4731  155.6555 S   0  0  0  0  0  0  0  0  0  0  0  0
  151.8380  137.0439  155.2999 O   0  0  0  0  0  0  0  0  0  0  0  0
  153.0972  139.1972  155.4930 O   0  0  0  0  0  0  0  0  0  0  0  0
  151.1532  138.7910  157.0996 N   0  5  0  0  0  0  0  0  0  0  0  0
  151.6916  139.8274  157.9737 C   0  0  0  0  0  0  0  0  0  0  0  0
  151.0924  141.2206  157.6861 C   0  0  0  0  0  0  0  0  0  0  0  0
  151.5802  142.2307  158.6995 C   0  0  0  0  0  0  0  0  0  0  0  0
  152.5871  141.9026  159.6375 C   0  0  0  0  0  0  0  0  0  0  0  0
  152.9965  142.8750  160.5712 C   0  0  0  0  0  0  0  0  0  0  0  0
  152.4707  144.1164  160.6277 N   0  0  0  0  0  0  0  0  0  0  0  0
  151.5038  144.4295  159.7398 C   0  0  0  0  0  0  0  0  0  0  0  0
  151.0251  143.5299  158.7670 C   0  0  0  0  0  0  0  0  0  0  0  0
  150.8467  141.7114  156.2667 C   0  0  0  0  0  0  0  0  0  0  0  0
  149.6737  141.3853  157.1604 C   0  0  0  0  0  0  0  0  0  0  0  0
  149.3008  141.3995  154.4237 H   0  0  0  0  0  0  0  0  0  0  0  0
  147.4827  141.6178  154.1628 H   0  0  0  0  0  0  0  0  0  0  0  0
  147.1621  139.2162  154.2142 H   0  0  0  0  0  0  0  0  0  0  0  0
  149.1417  138.1082  155.4840 H   0  0  0  0  0  0  0  0  0  0  0  0
  149.1979  137.8660  153.7509 H   0  0  0  0  0  0  0  0  0  0  0  0
  151.0785  139.2283  153.4828 H   0  0  0  0  0  0  0  0  0  0  0  0
  150.5739  140.3455  154.7491 H   0  0  0  0  0  0  0  0  0  0  0  0
  151.5020  139.6005  159.0233 H   0  0  0  0  0  0  0  0  0  0  0  0
  152.7757  139.8961  157.8767 H   0  0  0  0  0  0  0  0  0  0  0  0
  153.0409  140.9224  159.6373 H   0  0  0  0  0  0  0  0  0  0  0  0
  153.7665  142.6480  161.2936 H   0  0  0  0  0  0  0  0  0  0  0  0
  151.0973  145.4278  159.8074 H   0  0  0  0  0  0  0  0  0  0  0  0
  150.2476  143.8324  158.0808 H   0  0  0  0  0  0  0  0  0  0  0  0
  151.0275  142.7633  156.0544 H   0  0  0  0  0  0  0  0  0  0  0  0
  151.0101  141.0433  155.4223 H   0  0  0  0  0  0  0  0  0  0  0  0
  149.0878  140.5089  156.8862 H   0  0  0  0  0  0  0  0  0  0  0  0
  149.0886  142.2245  157.5315 H   0  0  0  0  0  0  0  0  0  0  0  0
  1  2  2  0  0  0  0
  1 19  1  0  0  0  0
  1 20  1  0  0  0  0
  2  3  1  0  0  0  0
  2 21  1  0  0  0  0
  3  4  1  0  0  0  0
  3 22  1  0  0  0  0
  3 23  1  0  0  0  0
  4  5  1  0  0  0  0
  4 24  1  0  0  0  0
  4 25  1  0  0  0  0
  5  6  2  0  0  0  0
  5  7  2  0  0  0  0
  5  8  1  0  0  0  0
  8  9  1  0  0  0  0
  9 10  1  0  0  0  0
  9 26  1  0  0  0  0
  9 27  1  0  0  0  0
 10 18  1  0  0  0  0
 10 11  1  0  0  0  0
 10 17  1  0  0  0  0
 11 16  1  0  0  0  0
 11 12  2  0  0  0  0
 12 13  1  0  0  0  0
 12 28  1  0  0  0  0
 13 14  2  0  0  0  0
 13 29  1  0  0  0  0
 14 15  1  0  0  0  0
 15 16  2  0  0  0  0
 15 30  1  0  0  0  0
 16 31  1  0  0  0  0
 17 18  1  0  0  0  0
 17 32  1  0  0  0  0
 17 33  1  0  0  0  0
 18 34  1  0  0  0  0
 18 35  1  0  0  0  0
M  CHG  1   8  -1
M  END
> <s_m_source_file>
AV-unprocessed.smi

> <i_m_source_file_index>
2524

> <i_lp_mmshare_version>
43012

> <i_f3d_flags>
0

> <s_epik_input>
W0NIMl09W0NIXVtDSDJdW0NIMl1TKD1PKSg9TylbTkhdW0NIMl1DMShbQ0gyXVtDSDJdMSljMltjSF1bY0hdbltjSF1bY0hdMg==

> <s_epik_cmdline>
J2VwaWtfcHl0aG9uJywgJy1waCcsICc3LjAnLCAnLXRuJywgJzgnLCAnLW1hJywgJzIwMCcsICctbWV0YWxfYmluZGluZycsICctaW1hZScsICc8aW5maWxlLm1hZT4nLCAnLW9tYWUnLCAnPG91dGZpbGUubWFlPic=

> <r_epik_Ionization_Penalty>
6.82782

> <r_epik_Ionization_Penalty_Charging>
6.77146

> <r_epik_Ionization_Penalty_Neutral>
0.0563627

> <r_epik_State_Penalty>
6.80009

> <r_epik_Charging_Adjusted_Penalty>
13.5715

> <i_epik_Tot_Q>
-1

> <i_epik_Tot_abs_Q>
1

> <r_epik_Metal_State_Penalty>
2.75227

> <b_epik_Metal_Only>
1

> <s_lp_Force_Field>
OPLS_2005

> <r_lp_Energy>
12.2049

> <b_lp_Chiralities_Consistent>
1

> <s_lp_Variant>
AV-unprocessed.smi:2524-3

> <Gold.Version>
5.8.1

> <Gold.Id.Protein>
6NUR|6NUR_protein|mol2

> <Gold.PLP.Fitness>
42.4468

> <Gold.PLP.PLP>
-37.8776

> <Gold.PLP.part.hbond>
-2.0000

> <Gold.PLP.part.metal>
0.0000

> <Gold.PLP.part.buried>
-3.5811

> <Gold.PLP.part.nonpolar>
-31.3163

> <Gold.PLP.part.repulsive>
0.1481

> <Gold.PLP.ligand.clash>
0.0000

> <Gold.PLP.ligand.torsion>
1.9245

> <Gold.PLP.Chemscore.Hbond>
2.0000

> <Gold.PLP.Chemscore.CHOScore>
0.0000

> <Gold.PLP.Chemscore.Metal>
0.0000

> <Gold.Chemscore.Hbonds>
donor molecule, donor type, donor heavy atom, donor atom, acceptor molecule, acceptor atom, score
      P1  H  7997  8009       L1     7  1.00
      P1  H 10752 10764       L1     6  1.00

> <Gold.PLP.Chemscore.Internal.Correction>
2.4183

> <Gold.Rescore>
     Score         DG    S(hbond)    S(metal)    S(lipo)     H(rot)  DE(clash)    DE(int)     intcor
     17.90     -19.66       1.95        0.00     100.20       1.59       0.08       1.68       ----

> <Gold.Chemscore.Fitness>
17.9003

> <Gold.Chemscore.DG>
-19.6571

> <Gold.Chemscore.ZeroCoef>
-5.4800

> <Gold.Chemscore.Hbond>
1.9540

> <Gold.Chemscore.Metal>
0.0000

> <Gold.Chemscore.Lipo>
100.1969

> <Gold.Chemscore.Internal_Hbond>
0.0000

> <Gold.Chemscore.DEClash>
0.0814

> <Gold.Chemscore.DEInternal>
1.6754

> <Gold.Chemscore.Rot>
1.5908

> <Gold.Chemscore.Internal.Correction>
   9.000000E+99

> <Gold.Chemscore.Hbonds>
donor molecule, donor type, donor heavy atom, donor atom, acceptor molecule, acceptor atom, score
      P1  H  7997  8009       L1     7  0.99
      P1  H 10752 10764       L1     6  0.95

> <Gold.Chemscore.Hbond.Weighted>
-6.5265

> <Gold.Chemscore.Metal.Weighted>
-0.0000

> <Gold.Chemscore.Lipo.Weighted>
-11.7230

> <Gold.Chemscore.Internal_Hbond.Weighted>
0.0000

> <Gold.Chemscore.DEClash.Weighted>
0.0814

> <Gold.Chemscore.DEInternal.Weighted>
1.6754

> <Gold.Chemscore.Rot.Weighted>
4.0724

> <Gold.Chemscore.Internal.Correction.Weighted>
   9.000000E+99

> <Gold.Protein.RotatedTorsions>
[ 6907 6896 6895 6894 ] final   24.52 input  -60.11 | X-H torsion
[ 7974 7965 7964 7962 ] final  170.22 input  175.53 | X-H torsion
[ 8008 7997 7996 7995 ] final -135.80 input   59.86 | X-H torsion
[ 10167 10162 10161 10158 ] final  151.82 input  -65.29 | X-H torsion
[ 10718 10713 10712 10709 ] final  -84.62 input   66.30 | X-H torsion
[ 10763 10752 10751 10750 ] final  -57.24 input  -60.55 | X-H torsion
[ 11005 11000 10999 10996 ] final  171.76 input  -57.11 | X-H torsion

> <Gold.Protein.ActiveResidues>
 VAL166  LYS551  ARG553  GLY616  TRP617  ASP618  TYR619  PRO620  LYS621  CYS622 
 ASP623  PHE694  ASN695  SER759  ASP760  ASP761  ALA762  ILE779  LEU786  VAL792 
 PHE793  MET794  SER795  GLU796  ALA797  LYS798  CYS799  TRP800  GLU811  SER814 

> <Gold.Protein.RotatedAtoms>
  151.9587  135.0134  160.0546 H   0  0  0  0  0  0  0  0  0  0  0  0  # atno 6907 bound_to 6896
  152.1888  133.4754  159.5005 H   0  0  0  0  0  0  0  0  0  0  0  0  # atno 6908 bound_to 6896
  150.6931  134.1656  159.4235 H   0  0  0  0  0  0  0  0  0  0  0  0  # atno 6909 bound_to 6896
  144.7330  139.9170  143.6418 H   0  0  0  0  0  0  0  0  0  0  0  0  # atno 7974 bound_to 7965
  155.3847  140.0496  157.3042 H   0  0  0  0  0  0  0  0  0  0  0  0  # atno 8008 bound_to 7997
  154.5065  140.2176  155.9202 H   0  0  0  0  0  0  0  0  0  0  0  0  # atno 8009 bound_to 7997
  156.1532  140.3131  155.8688 H   0  0  0  0  0  0  0  0  0  0  0  0  # atno 8010 bound_to 7997
  139.4837  144.5410  151.7565 H   0  0  0  0  0  0  0  0  0  0  0  0  # atno 10167 bound_to 10162
  156.0004  130.4704  150.4438 H   0  0  0  0  0  0  0  0  0  0  0  0  # atno 10718 bound_to 10713
  154.2193  135.6380  153.5140 H   0  0  0  0  0  0  0  0  0  0  0  0  # atno 10763 bound_to 10752
  152.9972  135.5493  154.6131 H   0  0  0  0  0  0  0  0  0  0  0  0  # atno 10764 bound_to 10752
  154.5587  135.2907  155.0914 H   0  0  0  0  0  0  0  0  0  0  0  0  # atno 10765 bound_to 10752
  140.3224  134.7426  157.4074 H   0  0  0  0  0  0  0  0  0  0  0  0  # atno 11005 bound_to 11000
  146.0958  139.3950  143.0377 LP  0  0  0  0  0  0  0  0  0  0  0  0  # atno 17320 bound_to 7965
  145.7648  140.9921  143.1181 LP  0  0  0  0  0  0  0  0  0  0  0  0  # atno 17321 bound_to 7965
  140.4949  144.1255  150.5958 LP  0  0  0  0  0  0  0  0  0  0  0  0  # atno 17342 bound_to 10162
  140.4129  143.2648  151.9811 LP  0  0  0  0  0  0  0  0  0  0  0  0  # atno 17343 bound_to 10162
  157.2477  131.0539  151.2398 LP  0  0  0  0  0  0  0  0  0  0  0  0  # atno 17370 bound_to 10713
  157.3559  130.7106  149.6470 LP  0  0  0  0  0  0  0  0  0  0  0  0  # atno 17371 bound_to 10713
  140.0930  134.5575  155.8425 LP  0  0  0  0  0  0  0  0  0  0  0  0  # atno 17394 bound_to 11000
  141.2083  133.6672  156.6364 LP  0  0  0  0  0  0  0  0  0  0  0  0  # atno 17395 bound_to 11000

$$$$
