AV-unprocessed.smi:1644|AV-procd|sdf|6596|dock6
  -GOLD-   22720 7293D 1   1.00000     0.00000
 Structure written by MMmdl.
 49 51  0  0  0  0  0  0  0  0  3 V2000
  152.5169  143.6663  160.2046 C   0  0  0  0  0  0  0  0  0  0  0  0
  152.0284  142.2591  159.8461 C   0  0  0  0  0  0  0  0  0  0  0  0
  152.0633  141.9947  158.3253 C   0  0  0  0  0  0  0  0  0  0  0  0
  151.5867  140.5956  157.8638 C   0  0  2  0  0  0  0  0  0  0  0  0
  152.4494  140.0436  156.8399 N   0  5  0  0  0  0  0  0  0  0  0  0
  151.6932  139.7552  155.7546 C   0  0  0  0  0  0  0  0  0  0  0  0
  152.0875  139.2868  154.6867 O   0  0  0  0  0  0  0  0  0  0  0  0
  150.3993  140.0675  155.9666 N   0  0  0  0  0  0  0  0  0  0  0  0
  149.3269  139.9241  154.9777 C   0  0  0  0  0  0  0  0  0  0  0  0
  149.2766  138.4918  154.4062 C   0  0  2  0  0  0  0  0  0  0  0  0
  149.0694  138.5549  153.0084 O   0  0  0  0  0  0  0  0  0  0  0  0
  148.1362  137.6617  155.0266 C   0  0  0  0  0  0  0  0  0  0  0  0
  146.9121  137.7015  154.2177 N   0  0  0  0  0  0  0  0  0  0  0  0
  146.1380  138.7542  153.8397 C   0  0  0  0  0  0  0  0  0  0  0  0
  145.1162  138.2609  153.0855 N   0  3  0  0  0  0  0  0  0  0  0  0
  145.2439  136.8736  152.9776 C   0  0  0  0  0  0  0  0  0  0  0  0
  144.4642  135.9335  152.3139 C   0  0  0  0  0  0  0  0  0  0  0  0
  144.8739  134.5830  152.3944 C   0  0  0  0  0  0  0  0  0  0  0  0
  144.0495  133.5308  151.6727 C   0  0  0  0  0  0  0  0  0  0  0  0
  146.0296  134.2126  153.1305 C   0  0  0  0  0  0  0  0  0  0  0  0
  146.4624  132.7587  153.2110 C   0  0  0  0  0  0  0  0  0  0  0  0
  146.8065  135.1828  153.8017 C   0  0  0  0  0  0  0  0  0  0  0  0
  146.3922  136.5088  153.7057 C   0  0  0  0  0  0  0  0  0  0  0  0
  150.2323  140.5905  157.1846 C   0  0  0  0  0  0  0  0  0  0  0  0
  149.1917  141.0119  157.6907 O   0  0  0  0  0  0  0  0  0  0  0  0
  152.4731  143.8298  161.2815 H   0  0  0  0  0  0  0  0  0  0  0  0
  151.9026  144.4299  159.7266 H   0  0  0  0  0  0  0  0  0  0  0  0
  153.5486  143.8169  159.8862 H   0  0  0  0  0  0  0  0  0  0  0  0
  152.6458  141.5304  160.3718 H   0  0  0  0  0  0  0  0  0  0  0  0
  151.0131  142.1313  160.2225 H   0  0  0  0  0  0  0  0  0  0  0  0
  151.4606  142.7511  157.8209 H   0  0  0  0  0  0  0  0  0  0  0  0
  153.0822  142.1488  157.9675 H   0  0  0  0  0  0  0  0  0  0  0  0
  151.5303  139.9387  158.7328 H   0  0  0  0  0  0  0  0  0  0  0  0
  148.3855  140.1570  155.4781 H   0  0  0  0  0  0  0  0  0  0  0  0
  149.4130  140.6656  154.1811 H   0  0  0  0  0  0  0  0  0  0  0  0
  150.2242  137.9833  154.5865 H   0  0  0  0  0  0  0  0  0  0  0  0
  148.8543  137.6888  152.6979 H   0  0  0  0  0  0  0  0  0  0  0  0
  148.4294  136.6167  155.1361 H   0  0  0  0  0  0  0  0  0  0  0  0
  147.8927  138.0225  156.0269 H   0  0  0  0  0  0  0  0  0  0  0  0
  146.3069  139.7921  154.0877 H   0  0  0  0  0  0  0  0  0  0  0  0
  143.5854  136.2222  151.7558 H   0  0  0  0  0  0  0  0  0  0  0  0
  144.6657  132.9845  150.9580 H   0  0  0  0  0  0  0  0  0  0  0  0
  143.2217  133.9798  151.1228 H   0  0  0  0  0  0  0  0  0  0  0  0
  143.6310  132.8195  152.3851 H   0  0  0  0  0  0  0  0  0  0  0  0
  147.3395  132.6386  153.8481 H   0  0  0  0  0  0  0  0  0  0  0  0
  146.7160  132.3808  152.2203 H   0  0  0  0  0  0  0  0  0  0  0  0
  145.6643  132.1421  153.6250 H   0  0  0  0  0  0  0  0  0  0  0  0
  147.6902  134.9030  154.3575 H   0  0  0  0  0  0  0  0  0  0  0  0
  144.3897  138.8318  152.6727 H   0  0  0  0  0  0  0  0  0  0  0  0
  1  2  1  0  0  0  0
  1 26  1  0  0  0  0
  1 27  1  0  0  0  0
  1 28  1  0  0  0  0
  2  3  1  0  0  0  0
  2 29  1  0  0  0  0
  2 30  1  0  0  0  0
  3  4  1  0  0  0  0
  3 31  1  0  0  0  0
  3 32  1  0  0  0  0
  4 24  1  0  0  0  0
  4  5  1  0  0  0  0
  4 33  1  0  0  0  0
  5  6  1  0  0  0  0
  6  7  2  0  0  0  0
  6  8  1  0  0  0  0
  8  9  1  0  0  0  0
  8 24  1  0  0  0  0
  9 10  1  0  0  0  0
  9 34  1  0  0  0  0
  9 35  1  0  0  0  0
 10 11  1  0  0  0  0
 10 12  1  0  0  0  0
 10 36  1  0  0  0  0
 11 37  1  0  0  0  0
 12 13  1  0  0  0  0
 12 38  1  0  0  0  0
 12 39  1  0  0  0  0
 13 23  1  0  0  0  0
 13 14  1  0  0  0  0
 14 15  2  0  0  0  0
 14 40  1  0  0  0  0
 15 16  1  0  0  0  0
 15 49  1  0  0  0  0
 16 23  2  0  0  0  0
 16 17  1  0  0  0  0
 17 18  2  0  0  0  0
 17 41  1  0  0  0  0
 18 19  1  0  0  0  0
 18 20  1  0  0  0  0
 19 42  1  0  0  0  0
 19 43  1  0  0  0  0
 19 44  1  0  0  0  0
 20 21  1  0  0  0  0
 20 22  2  0  0  0  0
 21 45  1  0  0  0  0
 21 46  1  0  0  0  0
 21 47  1  0  0  0  0
 22 23  1  0  0  0  0
 22 48  1  0  0  0  0
 24 25  2  0  0  0  0
M  CHG  1   5  -1
M  CHG  1  15   1
M  END
> <s_m_source_file>
AV-unprocessed.smi

> <i_m_source_file_index>
1644

> <i_lp_mmshare_version>
43012

> <i_f3d_flags>
0

> <s_epik_input>
W0NIM11bQ0gyXVtDSDJdW0NAQEhdMVtOSF1DKD1PKU4oQzE9TylbQ0gyXVtDQEhdKFtPSF0pW0NIMl1uKFtjSF1uMiljKGMyMylbY0hdYyhbQ0gzXSljKFtjSF0zKVtDSDNd

> <s_epik_cmdline>
J2VwaWtfcHl0aG9uJywgJy1waCcsICc3LjAnLCAnLXRuJywgJzgnLCAnLW1hJywgJzIwMCcsICctbWV0YWxfYmluZGluZycsICctaW1hZScsICc8aW5maWxlLm1hZT4nLCAnLW9tYWUnLCAnPG91dGZpbGUubWFlPic=

> <r_lp_tautomer_probability>
1

> <r_epik_Ionization_Penalty>
6.86868

> <r_epik_Ionization_Penalty_Charging>
6.86868

> <r_epik_Ionization_Penalty_Neutral>
5.84798e-07

> <r_epik_State_Penalty>
6.92818

> <r_epik_Charging_Adjusted_Penalty>
13.7969

> <i_epik_Tot_Q>
0

> <i_epik_Tot_abs_Q>
2

> <r_epik_Metal_State_Penalty>
2.98017

> <b_epik_Metal_Only>
1

> <s_lp_Force_Field>
OPLS_2005

> <r_lp_Energy>
22.7735

> <b_lp_Chiralities_Consistent>
1

> <s_lp_Variant>
AV-unprocessed.smi:1644-13

> <Gold.Version>
5.8.1

> <Gold.Id.Protein>
6NUR|6NUR_protein|mol2

> <Gold.PLP.Fitness>
49.5187

> <Gold.PLP.PLP>
-35.2587

> <Gold.PLP.part.hbond>
-4.4579

> <Gold.PLP.part.metal>
0.0000

> <Gold.PLP.part.buried>
-5.1199

> <Gold.PLP.part.nonpolar>
-25.9025

> <Gold.PLP.part.repulsive>
0.0907

> <Gold.PLP.ligand.clash>
0.0000

> <Gold.PLP.ligand.torsion>
1.7555

> <Gold.PLP.Chemscore.Hbond>
5.8960

> <Gold.PLP.Chemscore.CHOScore>
0.0000

> <Gold.PLP.Chemscore.Metal>
0.0000

> <Gold.Chemscore.Hbonds>
donor molecule, donor type, donor heavy atom, donor atom, acceptor molecule, acceptor atom, score
      L1  H    11    37       P1  7948  1.00
      L1  H    15    49       P1 10175  1.95
      P1  H  7989  7998       L1     7  0.84
      P1  H  7997  8008       L1     5  2.00

> <Gold.PLP.Chemscore.Internal.Correction>
0.0831

> <Gold.Rescore>
     Score         DG    S(hbond)    S(metal)    S(lipo)     H(rot)  DE(clash)    DE(int)     intcor
     15.44     -18.92       3.58        0.00      72.39       2.72       0.12       3.36       ----

> <Gold.Chemscore.Fitness>
15.4383

> <Gold.Chemscore.DG>
-18.9225

> <Gold.Chemscore.ZeroCoef>
-5.4800

> <Gold.Chemscore.Hbond>
3.5772

> <Gold.Chemscore.Metal>
0.0000

> <Gold.Chemscore.Lipo>
72.3880

> <Gold.Chemscore.Internal_Hbond>
0.0000

> <Gold.Chemscore.DEClash>
0.1201

> <Gold.Chemscore.DEInternal>
3.3641

> <Gold.Chemscore.Rot>
2.7245

> <Gold.Chemscore.Internal.Correction>
   9.000000E+99

> <Gold.Chemscore.Hbonds>
donor molecule, donor type, donor heavy atom, donor atom, acceptor molecule, acceptor atom, score
      L1  H    11    37       P1  7948  0.99
      L1  H    15    49       P1 10175  0.93
      P1  H  7989  7998       L1     7  0.18
      P1  H  7997  8008       L1     5  0.91

> <Gold.Chemscore.Hbond.Weighted>
-11.9479

> <Gold.Chemscore.Metal.Weighted>
-0.0000

> <Gold.Chemscore.Lipo.Weighted>
-8.4694

> <Gold.Chemscore.Internal_Hbond.Weighted>
0.0000

> <Gold.Chemscore.DEClash.Weighted>
0.1201

> <Gold.Chemscore.DEInternal.Weighted>
3.3641

> <Gold.Chemscore.Rot.Weighted>
6.9748

> <Gold.Chemscore.Internal.Correction.Weighted>
   9.000000E+99

> <Gold.Protein.RotatedTorsions>
[ 6907 6896 6895 6894 ] final  101.47 input  -60.11 | X-H torsion
[ 7974 7965 7964 7962 ] final    1.41 input  175.53 | X-H torsion
[ 8008 7997 7996 7995 ] final  -55.38 input   59.86 | X-H torsion
[ 10167 10162 10161 10158 ] final   66.60 input  -65.29 | X-H torsion
[ 10718 10713 10712 10709 ] final  -34.79 input   66.30 | X-H torsion
[ 10763 10752 10751 10750 ] final  -10.09 input  -60.55 | X-H torsion
[ 11005 11000 10999 10996 ] final   -2.03 input  -57.11 | X-H torsion

> <Gold.Protein.ActiveResidues>
 VAL166  LYS551  ARG553  GLY616  TRP617  ASP618  TYR619  PRO620  LYS621  CYS622 
 ASP623  PHE694  ASN695  SER759  ASP760  ASP761  ALA762  ILE779  LEU786  VAL792 
 PHE793  MET794  SER795  GLU796  ALA797  LYS798  CYS799  TRP800  GLU811  SER814 

> <Gold.Protein.RotatedAtoms>
  152.5348  134.0121  159.7942 H   0  0  0  0  0  0  0  0  0  0  0  0  # atno 6907 bound_to 6896
  151.0321  133.5773  159.2667 H   0  0  0  0  0  0  0  0  0  0  0  0  # atno 6908 bound_to 6896
  151.2774  135.0710  159.9210 H   0  0  0  0  0  0  0  0  0  0  0  0  # atno 6909 bound_to 6896
  146.2440  140.0991  142.8348 H   0  0  0  0  0  0  0  0  0  0  0  0  # atno 7974 bound_to 7965
  154.4193  140.1154  156.5467 H   0  0  0  0  0  0  0  0  0  0  0  0  # atno 8008 bound_to 7997
  155.6452  140.3496  155.4709 H   0  0  0  0  0  0  0  0  0  0  0  0  # atno 8009 bound_to 7997
  155.9838  140.1165  157.0692 H   0  0  0  0  0  0  0  0  0  0  0  0  # atno 8010 bound_to 7997
  140.0986  144.4924  150.7052 H   0  0  0  0  0  0  0  0  0  0  0  0  # atno 10167 bound_to 10162
  156.3463  130.4301  149.7743 H   0  0  0  0  0  0  0  0  0  0  0  0  # atno 10718 bound_to 10713
  153.4642  135.7016  153.6032 H   0  0  0  0  0  0  0  0  0  0  0  0  # atno 10763 bound_to 10752
  153.4314  135.3802  155.2173 H   0  0  0  0  0  0  0  0  0  0  0  0  # atno 10764 bound_to 10752
  154.8727  135.3951  154.4071 H   0  0  0  0  0  0  0  0  0  0  0  0  # atno 10765 bound_to 10752
  140.6539  133.9380  155.8396 H   0  0  0  0  0  0  0  0  0  0  0  0  # atno 11005 bound_to 11000
  145.0584  140.9069  143.4954 LP  0  0  0  0  0  0  0  0  0  0  0  0  # atno 17320 bound_to 7965
  145.1102  139.2762  143.5641 LP  0  0  0  0  0  0  0  0  0  0  0  0  # atno 17321 bound_to 7965
  140.6990  143.2422  151.4919 LP  0  0  0  0  0  0  0  0  0  0  0  0  # atno 17342 bound_to 10162
  139.5684  144.1988  152.1799 LP  0  0  0  0  0  0  0  0  0  0  0  0  # atno 17343 bound_to 10162
  156.4960  130.8107  151.3114 LP  0  0  0  0  0  0  0  0  0  0  0  0  # atno 17370 bound_to 10713
  157.7454  130.9960  150.2764 LP  0  0  0  0  0  0  0  0  0  0  0  0  # atno 17371 bound_to 10713
  141.0516  134.0476  157.3776 LP  0  0  0  0  0  0  0  0  0  0  0  0  # atno 17394 bound_to 11000
  139.9036  135.0173  156.7384 LP  0  0  0  0  0  0  0  0  0  0  0  0  # atno 17395 bound_to 11000

$$$$
