AV-unprocessed.smi:2114|AV-procd|sdf|8619|dock10
  -GOLD-   2272011363D 1   1.00000     0.00000
 Structure written by MMmdl.
 47 48  0  0  0  0  0  0  0  0  1 V2000
  154.0461  133.3111  165.6089 C   0  0  0  0  0  0  0  0  0  0  0  0
  154.9272  133.8815  164.6579 O   0  0  0  0  0  0  0  0  0  0  0  0
  154.4045  135.0609  164.0678 C   0  0  0  0  0  0  0  0  0  0  0  0
  155.4323  135.6523  163.0875 C   0  0  2  0  0  0  0  0  0  0  0  0
  156.7147  136.0855  163.8111 C   0  0  0  0  0  0  0  0  0  0  0  0
  154.8668  136.8068  162.3934 N   0  0  0  0  0  0  0  0  0  0  0  0
  154.2239  136.7757  161.2141 C   0  0  0  0  0  0  0  0  0  0  0  0
  154.0611  135.7513  160.5512 O   0  0  0  0  0  0  0  0  0  0  0  0
  153.7542  138.1058  160.7000 C   0  0  0  0  0  0  0  0  0  0  0  0
  154.4617  139.2978  160.9681 C   0  0  0  0  0  0  0  0  0  0  0  0
  153.9594  140.5182  160.4776 C   0  0  0  0  0  0  0  0  0  0  0  0
  152.7554  140.5212  159.7351 C   0  0  0  0  0  0  0  0  0  0  0  0
  152.2378  141.7337  159.2322 N   0  0  0  0  0  0  0  0  0  0  0  0
  150.9595  141.6305  158.5343 C   0  0  0  0  0  0  0  0  0  0  0  0
  150.6530  142.9205  157.7483 C   0  0  2  0  0  0  0  0  0  0  0  0
  151.4785  143.0602  156.4567 C   0  0  0  0  0  0  0  0  0  0  0  0
  150.7835  144.0614  158.5998 O   0  0  0  0  0  0  0  0  0  0  0  0
  152.0533  144.1890  159.2387 C   0  0  1  0  0  0  0  0  0  0  0  0
  152.0223  145.4498  160.1088 C   0  0  0  0  0  0  0  0  0  0  0  0
  152.3420  142.9258  160.0688 C   0  0  0  0  0  0  0  0  0  0  0  0
  152.0680  139.3781  159.4942 N   0  0  0  0  0  0  0  0  0  0  0  0
  152.5534  138.2102  159.9663 C   0  0  0  0  0  0  0  0  0  0  0  0
  154.4948  132.4109  166.0290 H   0  0  0  0  0  0  0  0  0  0  0  0
  153.0975  133.0311  165.1490 H   0  0  0  0  0  0  0  0  0  0  0  0
  153.8482  134.0032  166.4282 H   0  0  0  0  0  0  0  0  0  0  0  0
  153.4667  134.8460  163.5522 H   0  0  0  0  0  0  0  0  0  0  0  0
  154.1843  135.7850  164.8539 H   0  0  0  0  0  0  0  0  0  0  0  0
  155.7097  134.8826  162.3648 H   0  0  0  0  0  0  0  0  0  0  0  0
  157.1814  135.2421  164.3209 H   0  0  0  0  0  0  0  0  0  0  0  0
  156.5107  136.8536  164.5580 H   0  0  0  0  0  0  0  0  0  0  0  0
  157.4450  136.4885  163.1086 H   0  0  0  0  0  0  0  0  0  0  0  0
  154.9695  137.7019  162.8485 H   0  0  0  0  0  0  0  0  0  0  0  0
  155.3744  139.2904  161.5460 H   0  0  0  0  0  0  0  0  0  0  0  0
  154.4899  141.4345  160.6892 H   0  0  0  0  0  0  0  0  0  0  0  0
  150.9297  140.7781  157.8568 H   0  0  0  0  0  0  0  0  0  0  0  0
  150.1797  141.4630  159.2785 H   0  0  0  0  0  0  0  0  0  0  0  0
  149.6052  142.8842  157.4493 H   0  0  0  0  0  0  0  0  0  0  0  0
  151.2579  142.2439  155.7687 H   0  0  0  0  0  0  0  0  0  0  0  0
  152.5514  143.0403  156.6465 H   0  0  0  0  0  0  0  0  0  0  0  0
  151.2454  143.9942  155.9452 H   0  0  0  0  0  0  0  0  0  0  0  0
  152.8318  144.3182  158.4865 H   0  0  0  0  0  0  0  0  0  0  0  0
  152.9766  145.6024  160.6136 H   0  0  0  0  0  0  0  0  0  0  0  0
  151.2465  145.3833  160.8721 H   0  0  0  0  0  0  0  0  0  0  0  0
  151.8206  146.3350  159.5050 H   0  0  0  0  0  0  0  0  0  0  0  0
  151.6345  142.8465  160.8955 H   0  0  0  0  0  0  0  0  0  0  0  0
  153.3415  142.9985  160.4998 H   0  0  0  0  0  0  0  0  0  0  0  0
  151.9616  137.3345  159.7428 H   0  0  0  0  0  0  0  0  0  0  0  0
  1  2  1  0  0  0  0
  1 23  1  0  0  0  0
  1 24  1  0  0  0  0
  1 25  1  0  0  0  0
  2  3  1  0  0  0  0
  3  4  1  0  0  0  0
  3 26  1  0  0  0  0
  3 27  1  0  0  0  0
  4  5  1  0  0  0  0
  4  6  1  0  0  0  0
  4 28  1  0  0  0  0
  5 29  1  0  0  0  0
  5 30  1  0  0  0  0
  5 31  1  0  0  0  0
  6  7  1  0  0  0  0
  6 32  1  0  0  0  0
  7  8  2  0  0  0  0
  7  9  1  0  0  0  0
  9 22  1  0  0  0  0
  9 10  2  0  0  0  0
 10 11  1  0  0  0  0
 10 33  1  0  0  0  0
 11 12  2  0  0  0  0
 11 34  1  0  0  0  0
 12 13  1  0  0  0  0
 12 21  1  0  0  0  0
 13 20  1  0  0  0  0
 13 14  1  0  0  0  0
 14 15  1  0  0  0  0
 14 35  1  0  0  0  0
 14 36  1  0  0  0  0
 15 16  1  0  0  0  0
 15 17  1  0  0  0  0
 15 37  1  0  0  0  0
 16 38  1  0  0  0  0
 16 39  1  0  0  0  0
 16 40  1  0  0  0  0
 17 18  1  0  0  0  0
 18 19  1  0  0  0  0
 18 20  1  0  0  0  0
 18 41  1  0  0  0  0
 19 42  1  0  0  0  0
 19 43  1  0  0  0  0
 19 44  1  0  0  0  0
 20 45  1  0  0  0  0
 20 46  1  0  0  0  0
 21 22  2  0  0  0  0
 22 47  1  0  0  0  0
M  END
> <s_m_source_file>
AV-unprocessed.smi

> <i_m_source_file_index>
2114

> <i_lp_mmshare_version>
43012

> <i_f3d_flags>
0

> <s_epik_input>
W0NIM11PW0NIMl1bQ0BIXShbQ0gzXSlbTkhdQyg9TyljMVtjSF1bY0hdYyhuW2NIXTEpTjJbQ0gyXVtDQEBIXShbQ0gzXSlPW0NAQEhdKFtDSDNdKVtDSDJdMg==

> <s_epik_cmdline>
J2VwaWtfcHl0aG9uJywgJy1waCcsICc3LjAnLCAnLXRuJywgJzgnLCAnLW1hJywgJzIwMCcsICctbWV0YWxfYmluZGluZycsICctaW1hZScsICc8aW5maWxlLm1hZT4nLCAnLW9tYWUnLCAnPG91dGZpbGUubWFlPic=

> <r_lp_tautomer_probability>
1

> <r_epik_Ionization_Penalty>
1.92915e-05

> <r_epik_Ionization_Penalty_Charging>
0

> <r_epik_Ionization_Penalty_Neutral>
1.92915e-05

> <r_epik_State_Penalty>
-0

> <r_epik_Charging_Adjusted_Penalty>
0

> <i_epik_Tot_Q>
0

> <i_epik_Tot_abs_Q>
0

> <r_epik_Metal_State_Penalty>
-0

> <b_epik_Metal_Only>
0

> <s_lp_Force_Field>
OPLS_2005

> <r_lp_Energy>
21.9464

> <b_lp_Chiralities_Consistent>
1

> <s_lp_Variant>
AV-unprocessed.smi:2114-3

> <Gold.Version>
5.8.1

> <Gold.Id.Protein>
6NUR|6NUR_protein|mol2

> <Gold.PLP.Fitness>
37.7019

> <Gold.PLP.PLP>
-36.6574

> <Gold.PLP.part.hbond>
-1.0000

> <Gold.PLP.part.metal>
0.0000

> <Gold.PLP.part.buried>
-6.1953

> <Gold.PLP.part.nonpolar>
-30.3271

> <Gold.PLP.part.repulsive>
0.2263

> <Gold.PLP.ligand.clash>
0.0000

> <Gold.PLP.ligand.torsion>
1.1532

> <Gold.PLP.Chemscore.Hbond>
1.0000

> <Gold.PLP.Chemscore.CHOScore>
0.0000

> <Gold.PLP.Chemscore.Metal>
0.0000

> <Gold.Chemscore.Hbonds>
donor molecule, donor type, donor heavy atom, donor atom, acceptor molecule, acceptor atom, score
      P1  H  6896  6907       L1     8  1.00

> <Gold.PLP.Chemscore.Internal.Correction>
0.3508

> <Gold.Rescore>
     Score         DG    S(hbond)    S(metal)    S(lipo)     H(rot)  DE(clash)    DE(int)     intcor
     15.79     -17.90       0.98        0.00     111.54       1.52       0.90       1.20       ----

> <Gold.Chemscore.Fitness>
15.7929

> <Gold.Chemscore.DG>
-17.9005

> <Gold.Chemscore.ZeroCoef>
-5.4800

> <Gold.Chemscore.Hbond>
0.9784

> <Gold.Chemscore.Metal>
0.0000

> <Gold.Chemscore.Lipo>
111.5429

> <Gold.Chemscore.Internal_Hbond>
0.0000

> <Gold.Chemscore.DEClash>
0.9049

> <Gold.Chemscore.DEInternal>
1.2027

> <Gold.Chemscore.Rot>
1.5226

> <Gold.Chemscore.Internal.Correction>
   9.000000E+99

> <Gold.Chemscore.Hbonds>
donor molecule, donor type, donor heavy atom, donor atom, acceptor molecule, acceptor atom, score
      P1  H  6896  6907       L1     8  0.95

> <Gold.Chemscore.Hbond.Weighted>
-3.2679

> <Gold.Chemscore.Metal.Weighted>
-0.0000

> <Gold.Chemscore.Lipo.Weighted>
-13.0505

> <Gold.Chemscore.Internal_Hbond.Weighted>
0.0000

> <Gold.Chemscore.DEClash.Weighted>
0.9049

> <Gold.Chemscore.DEInternal.Weighted>
1.2027

> <Gold.Chemscore.Rot.Weighted>
3.8980

> <Gold.Chemscore.Internal.Correction.Weighted>
   9.000000E+99

> <Gold.Protein.RotatedTorsions>
[ 6907 6896 6895 6894 ] final   51.05 input  -60.11 | X-H torsion
[ 7974 7965 7964 7962 ] final   49.95 input  175.53 | X-H torsion
[ 8008 7997 7996 7995 ] final -120.68 input   59.86 | X-H torsion
[ 10167 10162 10161 10158 ] final -164.21 input  -65.29 | X-H torsion
[ 10718 10713 10712 10709 ] final -152.30 input   66.30 | X-H torsion
[ 10763 10752 10751 10750 ] final   89.80 input  -60.55 | X-H torsion
[ 11005 11000 10999 10996 ] final   -5.07 input  -57.11 | X-H torsion

> <Gold.Protein.ActiveResidues>
 VAL166  LYS551  ARG553  GLY616  TRP617  ASP618  TYR619  PRO620  LYS621  CYS622 
 ASP623  PHE694  ASN695  SER759  ASP760  ASP761  ALA762  ILE779  LEU786  VAL792 
 PHE793  MET794  SER795  GLU796  ALA797  LYS798  CYS799  TRP800  GLU811  SER814 

> <Gold.Protein.RotatedAtoms>
  152.3085  134.7526  160.0341 H   0  0  0  0  0  0  0  0  0  0  0  0  # atno 6907 bound_to 6896
  151.8015  133.3365  159.3536 H   0  0  0  0  0  0  0  0  0  0  0  0  # atno 6908 bound_to 6896
  150.7308  134.5679  159.5920 H   0  0  0  0  0  0  0  0  0  0  0  0  # atno 6909 bound_to 6896
  146.0059  139.4490  142.9986 H   0  0  0  0  0  0  0  0  0  0  0  0  # atno 7974 bound_to 7965
  155.1358  140.0401  157.2786 H   0  0  0  0  0  0  0  0  0  0  0  0  # atno 8008 bound_to 7997
  154.6509  140.2569  155.7189 H   0  0  0  0  0  0  0  0  0  0  0  0  # atno 8009 bound_to 7997
  156.2576  140.2836  156.0942 H   0  0  0  0  0  0  0  0  0  0  0  0  # atno 8010 bound_to 7997
  139.6266  144.0520  152.1980 H   0  0  0  0  0  0  0  0  0  0  0  0  # atno 10167 bound_to 10162
  156.4706  130.8257  151.2486 H   0  0  0  0  0  0  0  0  0  0  0  0  # atno 10718 bound_to 10713
  153.1908  135.4457  155.0147 H   0  0  0  0  0  0  0  0  0  0  0  0  # atno 10763 bound_to 10752
  154.8089  135.3286  154.7360 H   0  0  0  0  0  0  0  0  0  0  0  0  # atno 10764 bound_to 10752
  153.7815  135.6977  153.4943 H   0  0  0  0  0  0  0  0  0  0  0  0  # atno 10765 bound_to 10752
  140.6872  133.9102  155.8594 H   0  0  0  0  0  0  0  0  0  0  0  0  # atno 11005 bound_to 11000
  145.7416  141.0006  143.1298 LP  0  0  0  0  0  0  0  0  0  0  0  0  # atno 17320 bound_to 7965
  144.6935  139.9106  143.7463 LP  0  0  0  0  0  0  0  0  0  0  0  0  # atno 17321 bound_to 7965
  140.0175  144.6178  150.7595 LP  0  0  0  0  0  0  0  0  0  0  0  0  # atno 17342 bound_to 10162
  140.7415  143.2818  151.3576 LP  0  0  0  0  0  0  0  0  0  0  0  0  # atno 17343 bound_to 10162
  157.7491  131.0077  150.3201 LP  0  0  0  0  0  0  0  0  0  0  0  0  # atno 17370 bound_to 10713
  156.3622  130.3849  149.7242 LP  0  0  0  0  0  0  0  0  0  0  0  0  # atno 17371 bound_to 10713
  141.0270  134.0809  157.4057 LP  0  0  0  0  0  0  0  0  0  0  0  0  # atno 17394 bound_to 11000
  139.8934  135.0130  156.6897 LP  0  0  0  0  0  0  0  0  0  0  0  0  # atno 17395 bound_to 11000

$$$$
