AV-unprocessed.smi:1662|AV-procd|sdf|6661|dock2
  -GOLD-   22720 7373D 1   1.00000     0.00000
 Structure written by MMmdl.
 47 48  0  0  0  0  0  0  0  0  1 V2000
  148.6784  139.9043  153.8865 C   0  0  0  0  0  0  0  0  0  0  0  0
  149.6563  139.0378  154.6340 C   0  0  0  0  0  0  0  0  0  0  0  0
  149.6143  137.7697  154.3875 N   0  0  0  0  0  0  0  0  0  0  0  0
  150.4658  136.8848  155.0203 N   0  0  0  0  0  0  0  0  0  0  0  0
  150.2619  135.4796  154.6380 C   0  0  0  0  0  0  0  0  0  0  0  0
  148.8676  134.9433  154.9952 C   0  0  0  0  0  0  0  0  0  0  0  0
  148.6151  134.5468  156.1338 O   0  0  0  0  0  0  0  0  0  0  0  0
  147.9649  134.9637  154.0023 N   0  0  0  0  0  0  0  0  0  0  0  0
  146.5725  134.5158  154.0862 C   0  0  2  0  0  0  0  0  0  0  0  0
  146.5077  132.9864  153.9213 C   0  0  0  0  0  0  0  0  0  0  0  0
  146.8406  132.5501  152.4870 C   0  0  0  0  0  0  0  0  0  0  0  0
  145.9291  133.2537  151.4729 C   0  0  0  0  0  0  0  0  0  0  0  0
  145.9952  134.7902  151.5971 C   0  0  1  0  0  0  0  0  0  0  0  0
  145.0704  135.4348  150.5489 C   0  0  0  0  0  0  0  0  0  0  0  0
  145.6693  135.2374  153.0500 C   0  0  2  0  0  0  0  0  0  0  0  0
  145.7055  136.7679  153.2359 C   0  0  0  0  0  0  0  0  0  0  0  0
  151.4179  137.2399  155.9307 C   0  0  0  0  0  0  0  0  0  0  0  0
  152.1627  136.4167  156.4654 O   0  0  0  0  0  0  0  0  0  0  0  0
  151.4605  138.6779  156.2047 C   0  0  0  0  0  0  0  0  0  0  0  0
  152.4423  139.0925  157.1543 C   0  0  0  0  0  0  0  0  0  0  0  0
  153.2420  139.4462  157.9130 N   0  0  0  0  0  0  0  0  0  0  0  0
  150.6225  139.5553  155.5976 C   0  0  0  0  0  0  0  0  0  0  0  0
  150.6253  141.0569  155.8497 C   0  0  0  0  0  0  0  0  0  0  0  0
  149.1985  140.6801  153.3243 H   0  0  0  0  0  0  0  0  0  0  0  0
  147.9876  140.3903  154.5756 H   0  0  0  0  0  0  0  0  0  0  0  0
  148.0837  139.3275  153.1765 H   0  0  0  0  0  0  0  0  0  0  0  0
  150.4045  135.3582  153.5627 H   0  0  0  0  0  0  0  0  0  0  0  0
  151.0225  134.8506  155.1050 H   0  0  0  0  0  0  0  0  0  0  0  0
  148.2666  135.3159  153.1055 H   0  0  0  0  0  0  0  0  0  0  0  0
  146.1848  134.7409  155.0813 H   0  0  0  0  0  0  0  0  0  0  0  0
  147.1828  132.5004  154.6270 H   0  0  0  0  0  0  0  0  0  0  0  0
  145.5047  132.6405  154.1753 H   0  0  0  0  0  0  0  0  0  0  0  0
  147.8838  132.7732  152.2609 H   0  0  0  0  0  0  0  0  0  0  0  0
  146.7312  131.4692  152.3949 H   0  0  0  0  0  0  0  0  0  0  0  0
  146.2107  132.9484  150.4647 H   0  0  0  0  0  0  0  0  0  0  0  0
  144.9013  132.9175  151.6186 H   0  0  0  0  0  0  0  0  0  0  0  0
  147.0149  135.0994  151.3632 H   0  0  0  0  0  0  0  0  0  0  0  0
  144.0215  135.2305  150.7658 H   0  0  0  0  0  0  0  0  0  0  0  0
  145.2828  135.0500  149.5511 H   0  0  0  0  0  0  0  0  0  0  0  0
  145.2003  136.5158  150.5042 H   0  0  0  0  0  0  0  0  0  0  0  0
  144.6447  134.9258  153.2602 H   0  0  0  0  0  0  0  0  0  0  0  0
  146.6608  137.1898  152.9226 H   0  0  0  0  0  0  0  0  0  0  0  0
  145.5502  137.0370  154.2811 H   0  0  0  0  0  0  0  0  0  0  0  0
  144.9210  137.2618  152.6635 H   0  0  0  0  0  0  0  0  0  0  0  0
  151.3183  141.3413  156.6410 H   0  0  0  0  0  0  0  0  0  0  0  0
  149.6342  141.3994  156.1495 H   0  0  0  0  0  0  0  0  0  0  0  0
  150.9170  141.5938  154.9464 H   0  0  0  0  0  0  0  0  0  0  0  0
  1  2  1  0  0  0  0
  1 24  1  0  0  0  0
  1 25  1  0  0  0  0
  1 26  1  0  0  0  0
  2 22  1  0  0  0  0
  2  3  2  0  0  0  0
  3  4  1  0  0  0  0
  4  5  1  0  0  0  0
  4 17  1  0  0  0  0
  5  6  1  0  0  0  0
  5 27  1  0  0  0  0
  5 28  1  0  0  0  0
  6  7  2  0  0  0  0
  6  8  1  0  0  0  0
  8  9  1  0  0  0  0
  8 29  1  0  0  0  0
  9 15  1  0  0  0  0
  9 10  1  0  0  0  0
  9 30  1  0  0  0  0
 10 11  1  0  0  0  0
 10 31  1  0  0  0  0
 10 32  1  0  0  0  0
 11 12  1  0  0  0  0
 11 33  1  0  0  0  0
 11 34  1  0  0  0  0
 12 13  1  0  0  0  0
 12 35  1  0  0  0  0
 12 36  1  0  0  0  0
 13 14  1  0  0  0  0
 13 15  1  0  0  0  0
 13 37  1  0  0  0  0
 14 38  1  0  0  0  0
 14 39  1  0  0  0  0
 14 40  1  0  0  0  0
 15 16  1  0  0  0  0
 15 41  1  0  0  0  0
 16 42  1  0  0  0  0
 16 43  1  0  0  0  0
 16 44  1  0  0  0  0
 17 18  2  0  0  0  0
 17 19  1  0  0  0  0
 19 20  1  0  0  0  0
 19 22  2  0  0  0  0
 20 21  3  0  0  0  0
 22 23  1  0  0  0  0
 23 45  1  0  0  0  0
 23 46  1  0  0  0  0
 23 47  1  0  0  0  0
M  END
> <s_m_source_file>
AV-unprocessed.smi

> <i_m_source_file_index>
1662

> <i_lp_mmshare_version>
43012

> <i_f3d_flags>
0

> <s_epik_input>
TiNDYyhjMVtDSDNdKWMoPU8pbihuYzFbQ0gzXSlbQ0gyXUMoPU8pW05IXVtDQEBIXTJbQ0gyXVtDSDJdW0NIMl1bQ0BASF0oW0NIM10pW0NASF0yW0NIM10=

> <s_epik_cmdline>
J2VwaWtfcHl0aG9uJywgJy1waCcsICc3LjAnLCAnLXRuJywgJzgnLCAnLW1hJywgJzIwMCcsICctbWV0YWxfYmluZGluZycsICctaW1hZScsICc8aW5maWxlLm1hZT4nLCAnLW9tYWUnLCAnPG91dGZpbGUubWFlPic=

> <r_lp_tautomer_probability>
1

> <r_epik_Ionization_Penalty>
1.90709e-08

> <r_epik_Ionization_Penalty_Charging>
2.37982e-11

> <r_epik_Ionization_Penalty_Neutral>
1.90471e-08

> <r_epik_State_Penalty>
-0

> <r_epik_Charging_Adjusted_Penalty>
2.37982e-11

> <i_epik_Tot_Q>
0

> <i_epik_Tot_abs_Q>
0

> <r_epik_Metal_State_Penalty>
-0

> <b_epik_Metal_Only>
0

> <s_lp_Force_Field>
OPLS_2005

> <r_lp_Energy>
26.4332

> <b_lp_Chiralities_Consistent>
1

> <s_lp_Variant>
AV-unprocessed.smi:1662-5

> <Gold.Version>
5.8.1

> <Gold.Id.Protein>
6NUR|6NUR_protein|mol2

> <Gold.PLP.Fitness>
37.5635

> <Gold.PLP.PLP>
-29.8750

> <Gold.PLP.part.hbond>
-3.0000

> <Gold.PLP.part.metal>
0.0000

> <Gold.PLP.part.buried>
-2.2036

> <Gold.PLP.part.nonpolar>
-26.1668

> <Gold.PLP.part.repulsive>
0.4160

> <Gold.PLP.ligand.clash>
0.0000

> <Gold.PLP.ligand.torsion>
0.6620

> <Gold.PLP.Chemscore.Hbond>
3.0000

> <Gold.PLP.Chemscore.CHOScore>
0.0000

> <Gold.PLP.Chemscore.Metal>
0.0000

> <Gold.Chemscore.Hbonds>
donor molecule, donor type, donor heavy atom, donor atom, acceptor molecule, acceptor atom, score
      L1  H     8    29       P1  7948  1.00
      P1  H  7997  8008       L1    21  1.00
      P1  H 10752 10765       L1    18  1.00

> <Gold.PLP.Chemscore.Internal.Correction>
0.0125

> <Gold.Rescore>
     Score         DG    S(hbond)    S(metal)    S(lipo)     H(rot)  DE(clash)    DE(int)     intcor
     18.69     -19.37       2.90        0.00      67.56       1.45       0.08       0.60       ----

> <Gold.Chemscore.Fitness>
18.6853

> <Gold.Chemscore.DG>
-19.3658

> <Gold.Chemscore.ZeroCoef>
-5.4800

> <Gold.Chemscore.Hbond>
2.9025

> <Gold.Chemscore.Metal>
0.0000

> <Gold.Chemscore.Lipo>
67.5582

> <Gold.Chemscore.Internal_Hbond>
0.0000

> <Gold.Chemscore.DEClash>
0.0766

> <Gold.Chemscore.DEInternal>
0.6039

> <Gold.Chemscore.Rot>
1.4504

> <Gold.Chemscore.Internal.Correction>
   9.000000E+99

> <Gold.Chemscore.Hbonds>
donor molecule, donor type, donor heavy atom, donor atom, acceptor molecule, acceptor atom, score
      L1  H     8    29       P1  7948  0.99
      P1  H  7997  8008       L1    21  0.40
      P1  H 10752 10765       L1    18  0.74

> <Gold.Chemscore.Hbond.Weighted>
-9.6944

> <Gold.Chemscore.Metal.Weighted>
-0.0000

> <Gold.Chemscore.Lipo.Weighted>
-7.9043

> <Gold.Chemscore.Internal_Hbond.Weighted>
0.0000

> <Gold.Chemscore.DEClash.Weighted>
0.0766

> <Gold.Chemscore.DEInternal.Weighted>
0.6039

> <Gold.Chemscore.Rot.Weighted>
3.7129

> <Gold.Chemscore.Internal.Correction.Weighted>
   9.000000E+99

> <Gold.Protein.RotatedTorsions>
[ 6907 6896 6895 6894 ] final  -47.45 input  -60.11 | X-H torsion
[ 7974 7965 7964 7962 ] final  -10.77 input  175.53 | X-H torsion
[ 8008 7997 7996 7995 ] final  -76.11 input   59.86 | X-H torsion
[ 10167 10162 10161 10158 ] final  -16.40 input  -65.29 | X-H torsion
[ 10718 10713 10712 10709 ] final  127.18 input   66.30 | X-H torsion
[ 10763 10752 10751 10750 ] final -146.24 input  -60.55 | X-H torsion
[ 11005 11000 10999 10996 ] final  -32.35 input  -57.11 | X-H torsion

> <Gold.Protein.ActiveResidues>
 VAL166  LYS551  ARG553  GLY616  TRP617  ASP618  TYR619  PRO620  LYS621  CYS622 
 ASP623  PHE694  ASN695  SER759  ASP760  ASP761  ALA762  ILE779  LEU786  VAL792 
 PHE793  MET794  SER795  GLU796  ALA797  LYS798  CYS799  TRP800  GLU811  SER814 

> <Gold.Protein.RotatedAtoms>
  150.9006  134.8418  159.7357 H   0  0  0  0  0  0  0  0  0  0  0  0  # atno 6907 bound_to 6896
  152.4890  134.4508  159.9583 H   0  0  0  0  0  0  0  0  0  0  0  0  # atno 6908 bound_to 6896
  151.4560  133.3566  159.2837 H   0  0  0  0  0  0  0  0  0  0  0  0  # atno 6909 bound_to 6896
  146.2210  140.2812  142.8362 H   0  0  0  0  0  0  0  0  0  0  0  0  # atno 7974 bound_to 7965
  154.5476  140.0732  156.8615 H   0  0  0  0  0  0  0  0  0  0  0  0  # atno 8008 bound_to 7997
  155.3056  140.3387  155.4227 H   0  0  0  0  0  0  0  0  0  0  0  0  # atno 8009 bound_to 7997
  156.1932  140.1694  156.8036 H   0  0  0  0  0  0  0  0  0  0  0  0  # atno 8010 bound_to 7997
  140.7233  143.5120  150.9738 H   0  0  0  0  0  0  0  0  0  0  0  0  # atno 10167 bound_to 10162
  157.5355  131.1097  150.8942 H   0  0  0  0  0  0  0  0  0  0  0  0  # atno 10718 bound_to 10713
  154.8345  135.3392  154.6630 H   0  0  0  0  0  0  0  0  0  0  0  0  # atno 10763 bound_to 10752
  153.7246  135.6956  153.5008 H   0  0  0  0  0  0  0  0  0  0  0  0  # atno 10764 bound_to 10752
  153.2356  135.4402  155.0595 H   0  0  0  0  0  0  0  0  0  0  0  0  # atno 10765 bound_to 10752
  140.9545  133.7201  156.1271 H   0  0  0  0  0  0  0  0  0  0  0  0  # atno 11005 bound_to 11000
  144.9195  140.7852  143.5757 LP  0  0  0  0  0  0  0  0  0  0  0  0  # atno 17320 bound_to 7965
  145.2748  139.1941  143.4822 LP  0  0  0  0  0  0  0  0  0  0  0  0  # atno 17321 bound_to 7965
  139.8834  143.7043  152.3154 LP  0  0  0  0  0  0  0  0  0  0  0  0  # atno 17342 bound_to 10162
  139.7334  144.7577  151.0766 LP  0  0  0  0  0  0  0  0  0  0  0  0  # atno 17343 bound_to 10162
  156.9510  130.5420  149.5282 LP  0  0  0  0  0  0  0  0  0  0  0  0  # atno 17370 bound_to 10713
  156.0455  130.5532  150.8871 LP  0  0  0  0  0  0  0  0  0  0  0  0  # atno 17371 bound_to 10713
  140.7556  134.3996  157.5534 LP  0  0  0  0  0  0  0  0  0  0  0  0  # atno 17394 bound_to 11000
  139.8858  134.8928  156.2624 LP  0  0  0  0  0  0  0  0  0  0  0  0  # atno 17395 bound_to 11000

$$$$
