AV-unprocessed.smi:2809|AV-procd|sdf|10825|dock2
  -GOLD-   2272015263D 1   1.00000     0.00000
 Structure written by MMmdl.
 44 45  0  0  0  0  0  0  0  0  1 V2000
  152.0212  145.5296  160.2225 C   0  0  0  0  0  0  0  0  0  0  0  0
  152.3669  144.9933  158.8289 C   0  0  0  0  0  0  0  0  0  0  0  0
  152.1000  143.5053  158.7035 C   0  0  0  0  0  0  0  0  0  0  0  0
  152.8228  142.5840  159.4874 C   0  0  0  0  0  0  0  0  0  0  0  0
  152.5686  141.2041  159.3699 C   0  0  0  0  0  0  0  0  0  0  0  0
  151.5918  140.7229  158.4745 C   0  0  0  0  0  0  0  0  0  0  0  0
  151.4063  139.3581  158.4267 O   0  0  0  0  0  0  0  0  0  0  0  0
  150.1433  138.8633  158.0014 C   0  0  0  0  0  0  0  0  0  0  0  0
  149.6941  137.7591  158.9705 C   0  0  2  0  0  0  0  0  0  0  0  0
  150.8104  136.9211  159.1941 O   0  0  0  0  0  0  0  0  0  0  0  0
  148.5412  136.9094  158.3891 C   0  0  0  0  0  0  0  0  0  0  0  0
  148.1248  135.8348  159.3050 N   0  0  0  0  0  0  0  0  0  0  0  0
  148.0909  134.5377  158.7682 C   0  0  0  0  0  0  0  0  0  0  0  0
  147.7358  133.5178  159.4790 N   0  0  0  0  0  0  0  0  0  0  0  0
  147.3753  133.6926  160.8182 C   0  0  0  0  0  0  0  0  0  0  0  0
  146.9721  132.4302  161.5592 C   0  0  0  0  0  0  0  0  0  0  0  0
  147.3931  134.9228  161.4004 C   0  0  0  0  0  0  0  0  0  0  0  0
  147.0161  135.1729  162.8554 C   0  0  0  0  0  0  0  0  0  0  0  0
  147.7977  136.0930  160.6045 C   0  0  0  0  0  0  0  0  0  0  0  0
  147.8449  137.2339  161.0687 O   0  0  0  0  0  0  0  0  0  0  0  0
  150.8685  141.6544  157.6878 C   0  0  0  0  0  0  0  0  0  0  0  0
  151.1230  143.0348  157.8036 C   0  0  0  0  0  0  0  0  0  0  0  0
  152.2203  146.5994  160.2869 H   0  0  0  0  0  0  0  0  0  0  0  0
  152.6118  145.0336  160.9933 H   0  0  0  0  0  0  0  0  0  0  0  0
  150.9674  145.3733  160.4548 H   0  0  0  0  0  0  0  0  0  0  0  0
  151.7863  145.5240  158.0734 H   0  0  0  0  0  0  0  0  0  0  0  0
  153.4157  145.1933  158.6060 H   0  0  0  0  0  0  0  0  0  0  0  0
  153.5733  142.9319  160.1821 H   0  0  0  0  0  0  0  0  0  0  0  0
  153.1285  140.5065  159.9759 H   0  0  0  0  0  0  0  0  0  0  0  0
  149.4014  139.6634  157.9750 H   0  0  0  0  0  0  0  0  0  0  0  0
  150.2385  138.4541  156.9939 H   0  0  0  0  0  0  0  0  0  0  0  0
  149.4097  138.2182  159.9181 H   0  0  0  0  0  0  0  0  0  0  0  0
  151.5039  137.1809  158.6072 H   0  0  0  0  0  0  0  0  0  0  0  0
  147.6746  137.5469  158.2040 H   0  0  0  0  0  0  0  0  0  0  0  0
  148.8053  136.5324  157.3986 H   0  0  0  0  0  0  0  0  0  0  0  0
  148.3857  134.4541  157.7207 H   0  0  0  0  0  0  0  0  0  0  0  0
  145.9403  132.5037  161.9040 H   0  0  0  0  0  0  0  0  0  0  0  0
  147.6179  132.2703  162.4228 H   0  0  0  0  0  0  0  0  0  0  0  0
  147.0486  131.5512  160.9181 H   0  0  0  0  0  0  0  0  0  0  0  0
  147.8680  135.5838  163.3981 H   0  0  0  0  0  0  0  0  0  0  0  0
  146.6971  134.2724  163.3776 H   0  0  0  0  0  0  0  0  0  0  0  0
  146.1982  135.8916  162.9148 H   0  0  0  0  0  0  0  0  0  0  0  0
  150.1127  141.3358  156.9865 H   0  0  0  0  0  0  0  0  0  0  0  0
  150.5628  143.7333  157.1994 H   0  0  0  0  0  0  0  0  0  0  0  0
  1  2  1  0  0  0  0
  1 23  1  0  0  0  0
  1 24  1  0  0  0  0
  1 25  1  0  0  0  0
  2  3  1  0  0  0  0
  2 26  1  0  0  0  0
  2 27  1  0  0  0  0
  3 22  1  0  0  0  0
  3  4  2  0  0  0  0
  4  5  1  0  0  0  0
  4 28  1  0  0  0  0
  5  6  2  0  0  0  0
  5 29  1  0  0  0  0
  6  7  1  0  0  0  0
  6 21  1  0  0  0  0
  7  8  1  0  0  0  0
  8  9  1  0  0  0  0
  8 30  1  0  0  0  0
  8 31  1  0  0  0  0
  9 10  1  0  0  0  0
  9 11  1  0  0  0  0
  9 32  1  0  0  0  0
 10 33  1  0  0  0  0
 11 12  1  0  0  0  0
 11 34  1  0  0  0  0
 11 35  1  0  0  0  0
 12 19  1  0  0  0  0
 12 13  1  0  0  0  0
 13 14  2  0  0  0  0
 13 36  1  0  0  0  0
 14 15  1  0  0  0  0
 15 16  1  0  0  0  0
 15 17  2  0  0  0  0
 16 37  1  0  0  0  0
 16 38  1  0  0  0  0
 16 39  1  0  0  0  0
 17 18  1  0  0  0  0
 17 19  1  0  0  0  0
 18 40  1  0  0  0  0
 18 41  1  0  0  0  0
 18 42  1  0  0  0  0
 19 20  2  0  0  0  0
 21 22  2  0  0  0  0
 21 43  1  0  0  0  0
 22 44  1  0  0  0  0
M  END
> <s_m_source_file>
AV-unprocessed.smi

> <i_m_source_file_index>
2809

> <i_lp_mmshare_version>
43012

> <i_f3d_flags>
0

> <s_epik_input>
W0NIM11bQ0gyXWMxW2NIXVtjSF1jKFtjSF1bY0hdMSlPW0NIMl1bQ0BIXShbT0hdKVtDSDJdbjJbY0hdbmMoW0NIM10pYyhbQ0gzXSljMj1P

> <s_epik_cmdline>
J2VwaWtfcHl0aG9uJywgJy1waCcsICc3LjAnLCAnLXRuJywgJzgnLCAnLW1hJywgJzIwMCcsICctbWV0YWxfYmluZGluZycsICctaW1hZScsICc8aW5maWxlLm1hZT4nLCAnLW9tYWUnLCAnPG91dGZpbGUubWFlPic=

> <r_lp_tautomer_probability>
1

> <r_epik_Ionization_Penalty>
3.74127e-05

> <r_epik_Ionization_Penalty_Charging>
8.43242e-08

> <r_epik_Ionization_Penalty_Neutral>
3.73284e-05

> <r_epik_State_Penalty>
-0

> <r_epik_Charging_Adjusted_Penalty>
8.43242e-08

> <i_epik_Tot_Q>
0

> <i_epik_Tot_abs_Q>
0

> <r_epik_Metal_State_Penalty>
-0

> <b_epik_Metal_Only>
0

> <s_lp_Force_Field>
OPLS_2005

> <r_lp_Energy>
22.1893

> <b_lp_Chiralities_Consistent>
1

> <s_lp_Variant>
AV-unprocessed.smi:2809-1

> <Gold.Version>
5.8.1

> <Gold.Id.Protein>
6NUR|6NUR_protein|mol2

> <Gold.PLP.Fitness>
55.7678

> <Gold.PLP.PLP>
-49.2051

> <Gold.PLP.part.hbond>
-3.0000

> <Gold.PLP.part.metal>
0.0000

> <Gold.PLP.part.buried>
-6.0939

> <Gold.PLP.part.nonpolar>
-40.3266

> <Gold.PLP.part.repulsive>
0.0000

> <Gold.PLP.ligand.clash>
0.0000

> <Gold.PLP.ligand.torsion>
0.8614

> <Gold.PLP.Chemscore.Hbond>
2.7120

> <Gold.PLP.Chemscore.CHOScore>
0.0000

> <Gold.PLP.Chemscore.Metal>
0.0000

> <Gold.Chemscore.Hbonds>
donor molecule, donor type, donor heavy atom, donor atom, acceptor molecule, acceptor atom, score
      P1  H  6896  6907       L1    10  1.00
      P1  H  6931  6943       L1    20  0.93
      P1  H  6934  6947       L1    20  0.80

> <Gold.PLP.Chemscore.Internal.Correction>
0.1495

> <Gold.Rescore>
     Score         DG    S(hbond)    S(metal)    S(lipo)     H(rot)  DE(clash)    DE(int)     intcor
     20.15     -22.21       2.62        0.00     122.05       2.47       0.06       2.00       ----

> <Gold.Chemscore.Fitness>
20.1466

> <Gold.Chemscore.DG>
-22.2069

> <Gold.Chemscore.ZeroCoef>
-5.4800

> <Gold.Chemscore.Hbond>
2.6225

> <Gold.Chemscore.Metal>
0.0000

> <Gold.Chemscore.Lipo>
122.0498

> <Gold.Chemscore.Internal_Hbond>
0.0000

> <Gold.Chemscore.DEClash>
0.0590

> <Gold.Chemscore.DEInternal>
2.0013

> <Gold.Chemscore.Rot>
2.4657

> <Gold.Chemscore.Internal.Correction>
   9.000000E+99

> <Gold.Chemscore.Hbonds>
donor molecule, donor type, donor heavy atom, donor atom, acceptor molecule, acceptor atom, score
      P1  H  6896  6907       L1    10  0.75
      P1  H  6931  6943       L1    20  0.90
      P1  H  6934  6947       L1    20  0.79

> <Gold.Chemscore.Hbond.Weighted>
-8.7592

> <Gold.Chemscore.Metal.Weighted>
-0.0000

> <Gold.Chemscore.Lipo.Weighted>
-14.2798

> <Gold.Chemscore.Internal_Hbond.Weighted>
0.0000

> <Gold.Chemscore.DEClash.Weighted>
0.0590

> <Gold.Chemscore.DEInternal.Weighted>
2.0013

> <Gold.Chemscore.Rot.Weighted>
6.3121

> <Gold.Chemscore.Internal.Correction.Weighted>
   9.000000E+99

> <Gold.Protein.RotatedTorsions>
[ 6907 6896 6895 6894 ] final  -32.96 input  -60.11 | X-H torsion
[ 7974 7965 7964 7962 ] final   75.72 input  175.53 | X-H torsion
[ 8008 7997 7996 7995 ] final  -99.45 input   59.86 | X-H torsion
[ 10167 10162 10161 10158 ] final -154.45 input  -65.29 | X-H torsion
[ 10718 10713 10712 10709 ] final   94.81 input   66.30 | X-H torsion
[ 10763 10752 10751 10750 ] final  -30.35 input  -60.55 | X-H torsion
[ 11005 11000 10999 10996 ] final  -47.89 input  -57.11 | X-H torsion

> <Gold.Protein.ActiveResidues>
 VAL166  LYS551  ARG553  GLY616  TRP617  ASP618  TYR619  PRO620  LYS621  CYS622 
 ASP623  PHE694  ASN695  SER759  ASP760  ASP761  ALA762  ILE779  LEU786  VAL792 
 PHE793  MET794  SER795  GLU796  ALA797  LYS798  CYS799  TRP800  GLU811  SER814 

> <Gold.Protein.RotatedAtoms>
  151.0718  134.9803  159.8312 H   0  0  0  0  0  0  0  0  0  0  0  0  # atno 6907 bound_to 6896
  152.5409  134.2289  159.8827 H   0  0  0  0  0  0  0  0  0  0  0  0  # atno 6908 bound_to 6896
  151.2315  133.4404  159.2637 H   0  0  0  0  0  0  0  0  0  0  0  0  # atno 6909 bound_to 6896
  145.7120  139.2618  143.1645 H   0  0  0  0  0  0  0  0  0  0  0  0  # atno 7974 bound_to 7965
  154.8151  140.0448  157.1370 H   0  0  0  0  0  0  0  0  0  0  0  0  # atno 8008 bound_to 7997
  154.9324  140.3041  155.5141 H   0  0  0  0  0  0  0  0  0  0  0  0  # atno 8009 bound_to 7997
  156.2975  140.2320  156.4385 H   0  0  0  0  0  0  0  0  0  0  0  0  # atno 8010 bound_to 7997
  139.7012  143.9260  152.2429 H   0  0  0  0  0  0  0  0  0  0  0  0  # atno 10167 bound_to 10162
  157.6944  131.0525  150.4244 H   0  0  0  0  0  0  0  0  0  0  0  0  # atno 10718 bound_to 10713
  153.7795  135.6906  153.4891 H   0  0  0  0  0  0  0  0  0  0  0  0  # atno 10763 bound_to 10752
  153.1821  135.4502  155.0040 H   0  0  0  0  0  0  0  0  0  0  0  0  # atno 10764 bound_to 10752
  154.8087  135.3368  154.7299 H   0  0  0  0  0  0  0  0  0  0  0  0  # atno 10765 bound_to 10752
  141.0668  133.6691  156.3362 H   0  0  0  0  0  0  0  0  0  0  0  0  # atno 11005 bound_to 11000
  146.0703  140.7876  142.9691 LP  0  0  0  0  0  0  0  0  0  0  0  0  # atno 17320 bound_to 7965
  144.6939  140.3332  143.7212 LP  0  0  0  0  0  0  0  0  0  0  0  0  # atno 17321 bound_to 7965
  139.9103  144.6860  150.8570 LP  0  0  0  0  0  0  0  0  0  0  0  0  # atno 17342 bound_to 10162
  140.7710  143.3448  151.2133 LP  0  0  0  0  0  0  0  0  0  0  0  0  # atno 17343 bound_to 10162
  156.4616  130.4033  149.6573 LP  0  0  0  0  0  0  0  0  0  0  0  0  # atno 17370 bound_to 10713
  156.3686  130.7518  151.2499 LP  0  0  0  0  0  0  0  0  0  0  0  0  # atno 17371 bound_to 10713
  140.5757  134.5796  157.5468 LP  0  0  0  0  0  0  0  0  0  0  0  0  # atno 17394 bound_to 11000
  139.9484  134.7661  156.0507 LP  0  0  0  0  0  0  0  0  0  0  0  0  # atno 17395 bound_to 11000

$$$$
