AV-unprocessed.smi:37|AV-procd|sdf|311|dock1
  -GOLD-   2262016123D 1   1.00000     0.00000
 Structure written by MMmdl.
 44 45  0  0  0  0  0  0  0  0  1 V2000
  147.0335  134.7588  162.1705 C   0  0  0  0  0  0  0  0  0  0  0  0
  147.3016  134.8391  160.6617 C   0  0  0  0  0  0  0  0  0  0  0  0
  147.6614  136.2544  160.2153 C   0  0  0  0  0  0  0  0  0  0  0  0
  147.6647  137.1962  161.0083 O   0  0  0  0  0  0  0  0  0  0  0  0
  147.9532  136.3260  158.9073 O   0  0  0  0  0  0  0  0  0  0  0  0
  148.7043  137.4227  158.4153 C   0  0  0  0  0  0  0  0  0  0  0  0
  147.9630  138.0427  157.2245 C   0  0  2  0  0  0  0  0  0  0  0  0
  147.8302  137.1091  156.1586 O   0  0  0  0  0  0  0  0  0  0  0  0
  147.7161  137.7878  154.9417 C   0  0  1  0  0  0  0  0  0  0  0  0
  146.3538  137.5295  154.3382 N   0  0  0  0  0  0  0  0  0  0  0  0
  145.4022  136.7374  154.9702 C   0  0  0  0  0  0  0  0  0  0  0  0
  144.1784  136.4981  154.4430 C   0  0  0  0  0  0  0  0  0  0  0  0
  143.3073  135.7254  155.1138 F   0  0  0  0  0  0  0  0  0  0  0  0
  143.7946  137.0739  153.1571 C   0  0  0  0  0  0  0  0  0  0  0  0
  142.7116  136.9120  152.5982 O   0  0  0  0  0  0  0  0  0  0  0  0
  144.7804  137.8671  152.5626 N   0  0  0  0  0  0  0  0  0  0  0  0
  146.0441  138.1250  153.0962 C   0  0  0  0  0  0  0  0  0  0  0  0
  146.8339  138.8506  152.4934 O   0  0  0  0  0  0  0  0  0  0  0  0
  147.9873  139.2843  155.2134 C   0  0  1  0  0  0  0  0  0  0  0  0
  146.3242  140.3809  155.3892 Br  0  0  0  0  0  0  0  0  0  0  0  0
  148.6660  139.2348  156.5694 C   0  0  2  0  0  0  0  0  0  0  0  0
  150.0553  138.9658  156.3942 O   0  0  0  0  0  0  0  0  0  0  0  0
  150.7988  139.6852  155.5339 C   0  0  0  0  0  0  0  0  0  0  0  0
  150.3967  140.6166  154.8347 O   0  0  0  0  0  0  0  0  0  0  0  0
  152.2547  139.2149  155.5119 C   0  0  0  0  0  0  0  0  0  0  0  0
  152.5397  138.1452  154.4472 C   0  0  0  0  0  0  0  0  0  0  0  0
  144.5571  138.2914  151.6740 H   0  0  0  0  0  0  0  0  0  0  0  0
  146.7364  133.7492  162.4543 H   0  0  0  0  0  0  0  0  0  0  0  0
  146.2306  135.4346  162.4668 H   0  0  0  0  0  0  0  0  0  0  0  0
  147.9215  135.0154  162.7493 H   0  0  0  0  0  0  0  0  0  0  0  0
  148.1143  134.1653  160.3899 H   0  0  0  0  0  0  0  0  0  0  0  0
  146.4199  134.5094  160.1114 H   0  0  0  0  0  0  0  0  0  0  0  0
  148.8139  138.1616  159.2102 H   0  0  0  0  0  0  0  0  0  0  0  0
  149.7048  137.1027  158.1206 H   0  0  0  0  0  0  0  0  0  0  0  0
  146.9658  138.3566  157.5373 H   0  0  0  0  0  0  0  0  0  0  0  0
  148.4418  137.3369  154.2620 H   0  0  0  0  0  0  0  0  0  0  0  0
  145.6238  136.2914  155.9283 H   0  0  0  0  0  0  0  0  0  0  0  0
  148.6008  139.7240  154.4262 H   0  0  0  0  0  0  0  0  0  0  0  0
  148.4984  140.1555  157.1296 H   0  0  0  0  0  0  0  0  0  0  0  0
  152.8943  140.0813  155.3412 H   0  0  0  0  0  0  0  0  0  0  0  0
  152.5076  138.8263  156.4986 H   0  0  0  0  0  0  0  0  0  0  0  0
  153.5874  137.8454  154.4760 H   0  0  0  0  0  0  0  0  0  0  0  0
  152.3311  138.5168  153.4434 H   0  0  0  0  0  0  0  0  0  0  0  0
  151.9370  137.2507  154.6096 H   0  0  0  0  0  0  0  0  0  0  0  0
  1  2  1  0  0  0  0
  1 28  1  0  0  0  0
  1 29  1  0  0  0  0
  1 30  1  0  0  0  0
  2  3  1  0  0  0  0
  2 31  1  0  0  0  0
  2 32  1  0  0  0  0
  3  4  2  0  0  0  0
  3  5  1  0  0  0  0
  5  6  1  0  0  0  0
  6  7  1  0  0  0  0
  6 33  1  0  0  0  0
  6 34  1  0  0  0  0
  7 21  1  0  0  0  0
  7  8  1  0  0  0  0
  7 35  1  0  0  0  0
  8  9  1  0  0  0  0
  9 10  1  0  0  0  0
  9 19  1  0  0  0  0
  9 36  1  0  0  0  0
 10 17  1  0  0  0  0
 10 11  1  0  0  0  0
 11 12  2  0  0  0  0
 11 37  1  0  0  0  0
 12 13  1  0  0  0  0
 12 14  1  0  0  0  0
 14 15  2  0  0  0  0
 14 16  1  0  0  0  0
 16 27  1  0  0  0  0
 16 17  1  0  0  0  0
 17 18  2  0  0  0  0
 19 20  1  0  0  0  0
 19 21  1  0  0  0  0
 19 38  1  0  0  0  0
 21 22  1  0  0  0  0
 21 39  1  0  0  0  0
 22 23  1  0  0  0  0
 23 24  2  0  0  0  0
 23 25  1  0  0  0  0
 25 26  1  0  0  0  0
 25 40  1  0  0  0  0
 25 41  1  0  0  0  0
 26 42  1  0  0  0  0
 26 43  1  0  0  0  0
 26 44  1  0  0  0  0
M  END
> <s_m_source_file>
AV-unprocessed.smi

> <i_m_source_file_index>
37

> <i_lp_mmshare_version>
43012

> <i_f3d_flags>
0

> <s_epik_input>
W0NIM11bQ0gyXUMoPU8pT1tDSDJdW0NAQEhdMU9bQ0BASF0objJbY0hdYyhGKWMoPU8pW25IXWMyPU8pW0NAQEhdKEJyKVtDQEhdMU9DKD1PKVtDSDJdW0NIM10=

> <s_epik_cmdline>
J2VwaWtfcHl0aG9uJywgJy1waCcsICc3LjAnLCAnLXRuJywgJzgnLCAnLW1hJywgJzIwMCcsICctbWV0YWxfYmluZGluZycsICctaW1hZScsICc8aW5maWxlLm1hZT4nLCAnLW9tYWUnLCAnPG91dGZpbGUubWFlPic=

> <r_lp_tautomer_probability>
0.999537

> <r_epik_Ionization_Penalty>
0.104106

> <r_epik_Ionization_Penalty_Charging>
0.104106

> <r_epik_Ionization_Penalty_Neutral>
3.94675e-16

> <r_epik_State_Penalty>
0.0940182

> <r_epik_Charging_Adjusted_Penalty>
0.198124

> <i_epik_Tot_Q>
0

> <i_epik_Tot_abs_Q>
0

> <r_epik_Metal_State_Penalty>
3.05314

> <b_epik_Metal_Only>
0

> <s_epik_Chemistry_Notes>
This compound has an ester and may undergo hydrolysis at high or low pH. This compound contains an acetal/aminal-like group ( X-CH(R)-Y where X, Y are N, S, or O) that may be acid/base labile, releasing an aldehyde.

> <s_lp_Force_Field>
OPLS_2005

> <r_lp_Energy>
26.7513

> <b_lp_Chiralities_Consistent>
1

> <s_lp_Variant>
AV-unprocessed.smi:37-9

> <Gold.Version>
5.8.1

> <Gold.Id.Protein>
6NUR|6NUR_protein|mol2

> <Gold.PLP.Fitness>
37.9579

> <Gold.PLP.PLP>
-28.9075

> <Gold.PLP.part.hbond>
-5.0000

> <Gold.PLP.part.metal>
0.0000

> <Gold.PLP.part.buried>
-4.8761

> <Gold.PLP.part.nonpolar>
-19.4579

> <Gold.PLP.part.repulsive>
0.6622

> <Gold.PLP.ligand.clash>
0.0000

> <Gold.PLP.ligand.torsion>
1.1273

> <Gold.PLP.Chemscore.Hbond>
3.6240

> <Gold.PLP.Chemscore.CHOScore>
0.0000

> <Gold.PLP.Chemscore.Metal>
0.0000

> <Gold.Chemscore.Hbonds>
donor molecule, donor type, donor heavy atom, donor atom, acceptor molecule, acceptor atom, score
      L1  H    16    27       P1 10171  1.00
      P1  H  6931  6943       L1     4  0.88
      P1  H  6934  6947       L1     4  0.91
      P1  H  7989  7998       L1    24  0.93

> <Gold.PLP.Chemscore.Internal.Correction>
0.4330

> <Gold.Rescore>
     Score         DG    S(hbond)    S(metal)    S(lipo)     H(rot)  DE(clash)    DE(int)     intcor
     10.57     -13.37       3.49        0.00      40.77       3.33       0.36       2.44       ----

> <Gold.Chemscore.Fitness>
10.5718

> <Gold.Chemscore.DG>
-13.3715

> <Gold.Chemscore.ZeroCoef>
-5.4800

> <Gold.Chemscore.Hbond>
3.4872

> <Gold.Chemscore.Metal>
0.0000

> <Gold.Chemscore.Lipo>
40.7671

> <Gold.Chemscore.Internal_Hbond>
0.0000

> <Gold.Chemscore.DEClash>
0.3608

> <Gold.Chemscore.DEInternal>
2.4389

> <Gold.Chemscore.Rot>
3.3303

> <Gold.Chemscore.Internal.Correction>
   9.000000E+99

> <Gold.Chemscore.Hbonds>
donor molecule, donor type, donor heavy atom, donor atom, acceptor molecule, acceptor atom, score
      L1  H    16    27       P1 10171  0.96
      P1  H  6931  6943       L1     4  0.86
      P1  H  6934  6947       L1     4  0.88
      P1  H  7989  7998       L1    24  0.58

> <Gold.Chemscore.Hbond.Weighted>
-11.6473

> <Gold.Chemscore.Metal.Weighted>
-0.0000

> <Gold.Chemscore.Lipo.Weighted>
-4.7697

> <Gold.Chemscore.Internal_Hbond.Weighted>
0.0000

> <Gold.Chemscore.DEClash.Weighted>
0.3608

> <Gold.Chemscore.DEInternal.Weighted>
2.4389

> <Gold.Chemscore.Rot.Weighted>
8.5256

> <Gold.Chemscore.Internal.Correction.Weighted>
   9.000000E+99

> <Gold.Protein.RotatedTorsions>
[ 6907 6896 6895 6894 ] final   37.18 input  -60.11 | X-H torsion
[ 7974 7965 7964 7962 ] final  101.66 input  175.53 | X-H torsion
[ 8008 7997 7996 7995 ] final  122.25 input   59.86 | X-H torsion
[ 10167 10162 10161 10158 ] final  127.84 input  -65.29 | X-H torsion
[ 10718 10713 10712 10709 ] final -152.89 input   66.30 | X-H torsion
[ 10763 10752 10751 10750 ] final -125.29 input  -60.55 | X-H torsion
[ 11005 11000 10999 10996 ] final  -60.65 input  -57.11 | X-H torsion

> <Gold.Protein.ActiveResidues>
 VAL166  LYS551  ARG553  GLY616  TRP617  ASP618  TYR619  PRO620  LYS621  CYS622 
 ASP623  PHE694  ASN695  SER759  ASP760  ASP761  ALA762  ILE779  LEU786  VAL792 
 PHE793  MET794  SER795  GLU796  ALA797  LYS798  CYS799  TRP800  GLU811  SER814 

> <Gold.Protein.RotatedAtoms>
  152.1398  134.9071  160.0554 H   0  0  0  0  0  0  0  0  0  0  0  0  # atno 6907 bound_to 6896
  152.0144  133.3869  159.4241 H   0  0  0  0  0  0  0  0  0  0  0  0  # atno 6908 bound_to 6896
  150.6864  134.3617  159.4997 H   0  0  0  0  0  0  0  0  0  0  0  0  # atno 6909 bound_to 6896
  145.3694  139.2401  143.3463 H   0  0  0  0  0  0  0  0  0  0  0  0  # atno 7974 bound_to 7965
  156.2720  140.2790  156.1438 H   0  0  0  0  0  0  0  0  0  0  0  0  # atno 8008 bound_to 7997
  155.0926  140.0389  157.2690 H   0  0  0  0  0  0  0  0  0  0  0  0  # atno 8009 bound_to 7997
  154.6878  140.2622  155.6849 H   0  0  0  0  0  0  0  0  0  0  0  0  # atno 8010 bound_to 7997
  139.5557  144.6847  151.4189 H   0  0  0  0  0  0  0  0  0  0  0  0  # atno 10167 bound_to 10162
  156.4785  130.8292  151.2519 H   0  0  0  0  0  0  0  0  0  0  0  0  # atno 10718 bound_to 10713
  154.8734  135.4034  154.3244 H   0  0  0  0  0  0  0  0  0  0  0  0  # atno 10763 bound_to 10752
  153.4067  135.7019  153.6393 H   0  0  0  0  0  0  0  0  0  0  0  0  # atno 10764 bound_to 10752
  153.5112  135.3707  155.2558 H   0  0  0  0  0  0  0  0  0  0  0  0  # atno 10765 bound_to 10752
  141.1295  133.6624  156.5255 H   0  0  0  0  0  0  0  0  0  0  0  0  # atno 11005 bound_to 11000
  146.2892  140.4342  142.8746 LP  0  0  0  0  0  0  0  0  0  0  0  0  # atno 17320 bound_to 7965
  144.8588  140.7109  143.6121 LP  0  0  0  0  0  0  0  0  0  0  0  0  # atno 17321 bound_to 7965
  140.6829  143.8039  150.7146 LP  0  0  0  0  0  0  0  0  0  0  0  0  # atno 17342 bound_to 10162
  140.1498  143.4367  152.2138 LP  0  0  0  0  0  0  0  0  0  0  0  0  # atno 17343 bound_to 10162
  157.7485  131.0053  150.3107 LP  0  0  0  0  0  0  0  0  0  0  0  0  # atno 17370 bound_to 10713
  156.3545  130.3836  149.7301 LP  0  0  0  0  0  0  0  0  0  0  0  0  # atno 17371 bound_to 10713
  140.4258  134.7146  157.4915 LP  0  0  0  0  0  0  0  0  0  0  0  0  # atno 17394 bound_to 11000
  140.0328  134.6381  155.9083 LP  0  0  0  0  0  0  0  0  0  0  0  0  # atno 17395 bound_to 11000

$$$$
