AV-unprocessed.smi:1254|AV-procd|sdf|5269|dock8
  -GOLD-   22720 4383D 1   1.00000     0.00000
 Structure written by MMmdl.
 46 47  0  0  0  0  0  0  0  0  2 V2000
  151.3275  141.1136  156.1818 C   0  0  0  0  0  0  0  0  0  0  0  0
  151.4920  139.7915  155.5134 C   0  0  0  0  0  0  0  0  0  0  0  0
  150.6328  138.7547  155.2794 C   0  0  0  0  0  0  0  0  0  0  0  0
  151.4498  137.8083  154.6053 C   0  0  0  0  0  0  0  0  0  0  0  0
  150.9239  136.5601  154.1843 N   0  0  0  0  0  0  0  0  0  0  0  0
  150.2818  135.6485  154.9344 C   0  0  0  0  0  0  0  0  0  0  0  0
  150.0592  135.7502  156.1411 O   0  0  0  0  0  0  0  0  0  0  0  0
  149.9078  134.5892  154.2025 N   0  0  0  0  0  0  0  0  0  0  0  0
  149.1795  133.4317  154.7141 C   0  0  0  0  0  0  0  0  0  0  0  0
  148.6233  132.5277  153.5959 C   0  0  2  0  0  0  0  0  0  0  0  0
  147.7412  133.2857  152.5807 C   0  0  0  0  0  0  0  0  0  0  0  0
  147.1822  132.3476  151.5760 N   0  3  2  0  0  0  0  0  0  0  0  0
  146.3609  133.0075  150.5288 C   0  0  0  0  0  0  0  0  0  0  0  0
  144.9307  133.3546  150.9980 C   0  0  0  0  0  0  0  0  0  0  0  0
  143.9397  132.2712  150.5469 C   0  0  0  0  0  0  0  0  0  0  0  0
  144.4787  134.7370  150.4974 C   0  0  0  0  0  0  0  0  0  0  0  0
  146.4563  131.2448  152.2490 C   0  0  0  0  0  0  0  0  0  0  0  0
  147.3660  130.5516  153.2758 C   0  0  0  0  0  0  0  0  0  0  0  0
  147.8421  131.5097  154.2123 O   0  0  0  0  0  0  0  0  0  0  0  0
  152.6937  138.2309  154.4384 N   0  0  0  0  0  0  0  0  0  0  0  0
  152.7276  139.5032  155.0211 O   0  0  0  0  0  0  0  0  0  0  0  0
  150.2931  141.4526  156.1232 H   0  0  0  0  0  0  0  0  0  0  0  0
  151.9575  141.8695  155.7119 H   0  0  0  0  0  0  0  0  0  0  0  0
  151.6034  141.0494  157.2345 H   0  0  0  0  0  0  0  0  0  0  0  0
  149.5897  138.6867  155.5512 H   0  0  0  0  0  0  0  0  0  0  0  0
  151.0389  136.3451  153.2051 H   0  0  0  0  0  0  0  0  0  0  0  0
  150.1264  134.5899  153.2168 H   0  0  0  0  0  0  0  0  0  0  0  0
  149.8312  132.8555  155.3731 H   0  0  0  0  0  0  0  0  0  0  0  0
  148.3613  133.7976  155.3352 H   0  0  0  0  0  0  0  0  0  0  0  0
  149.4571  132.0568  153.0723 H   0  0  0  0  0  0  0  0  0  0  0  0
  146.9278  133.7983  153.0968 H   0  0  0  0  0  0  0  0  0  0  0  0
  148.3365  134.0502  152.0842 H   0  0  0  0  0  0  0  0  0  0  0  0
  146.8520  133.9318  150.2201 H   0  0  0  0  0  0  0  0  0  0  0  0
  146.3303  132.3698  149.6439 H   0  0  0  0  0  0  0  0  0  0  0  0
  144.9027  133.3663  152.0871 H   0  0  0  0  0  0  0  0  0  0  0  0
  143.8959  132.2010  149.4594 H   0  0  0  0  0  0  0  0  0  0  0  0
  142.9325  132.4838  150.9067 H   0  0  0  0  0  0  0  0  0  0  0  0
  144.2242  131.2914  150.9322 H   0  0  0  0  0  0  0  0  0  0  0  0
  144.4911  134.7885  149.4081 H   0  0  0  0  0  0  0  0  0  0  0  0
  145.1236  135.5304  150.8761 H   0  0  0  0  0  0  0  0  0  0  0  0
  143.4640  134.9608  150.8281 H   0  0  0  0  0  0  0  0  0  0  0  0
  145.5666  131.6396  152.7423 H   0  0  0  0  0  0  0  0  0  0  0  0
  146.1180  130.5163  151.5112 H   0  0  0  0  0  0  0  0  0  0  0  0
  146.8099  129.7810  153.8101 H   0  0  0  0  0  0  0  0  0  0  0  0
  148.2041  130.0558  152.7836 H   0  0  0  0  0  0  0  0  0  0  0  0
  147.9654  131.9216  151.1011 H   0  0  0  0  0  0  0  0  0  0  0  0
  1  2  1  0  0  0  0
  1 22  1  0  0  0  0
  1 23  1  0  0  0  0
  1 24  1  0  0  0  0
  2 21  1  0  0  0  0
  2  3  2  0  0  0  0
  3  4  1  0  0  0  0
  3 25  1  0  0  0  0
  4  5  1  0  0  0  0
  4 20  2  0  0  0  0
  5  6  1  0  0  0  0
  5 26  1  0  0  0  0
  6  7  2  0  0  0  0
  6  8  1  0  0  0  0
  8  9  1  0  0  0  0
  8 27  1  0  0  0  0
  9 10  1  0  0  0  0
  9 28  1  0  0  0  0
  9 29  1  0  0  0  0
 10 19  1  0  0  0  0
 10 11  1  0  0  0  0
 10 30  1  0  0  0  0
 11 12  1  0  0  0  0
 11 31  1  0  0  0  0
 11 32  1  0  0  0  0
 12 13  1  0  0  0  0
 12 17  1  0  0  0  0
 12 46  1  0  0  0  0
 13 14  1  0  0  0  0
 13 33  1  0  0  0  0
 13 34  1  0  0  0  0
 14 15  1  0  0  0  0
 14 16  1  0  0  0  0
 14 35  1  0  0  0  0
 15 36  1  0  0  0  0
 15 37  1  0  0  0  0
 15 38  1  0  0  0  0
 16 39  1  0  0  0  0
 16 40  1  0  0  0  0
 16 41  1  0  0  0  0
 17 18  1  0  0  0  0
 17 42  1  0  0  0  0
 17 43  1  0  0  0  0
 18 19  1  0  0  0  0
 18 44  1  0  0  0  0
 18 45  1  0  0  0  0
 20 21  1  0  0  0  0
M  CHG  1  12   1
M  END
> <s_m_source_file>
AV-unprocessed.smi

> <i_m_source_file_index>
1254

> <i_lp_mmshare_version>
43012

> <i_f3d_flags>
0

> <s_epik_input>
W0NIM11jMVtjSF1jKG5vMSlbTkhdQyg9TylbTkhdW0NIMl1bQ0BASF0yW0NIMl1OKFtDSDJdW0NIMl1PMilbQ0gyXVtDSF0oW0NIM10pW0NIM10=

> <s_epik_cmdline>
J2VwaWtfcHl0aG9uJywgJy1waCcsICc3LjAnLCAnLXRuJywgJzgnLCAnLW1hJywgJzIwMCcsICctbWV0YWxfYmluZGluZycsICctaW1hZScsICc8aW5maWxlLm1hZT4nLCAnLW9tYWUnLCAnPG91dGZpbGUubWFlPic=

> <r_epik_Ionization_Penalty>
0.0986825

> <r_epik_Ionization_Penalty_Charging>
0.0986478

> <r_epik_Ionization_Penalty_Neutral>
3.46838e-05

> <r_epik_State_Penalty>
0.0887259

> <r_epik_Charging_Adjusted_Penalty>
0.187374

> <i_epik_Tot_Q>
1

> <i_epik_Tot_abs_Q>
1

> <r_epik_Metal_State_Penalty>
0.103424

> <b_epik_Metal_Only>
0

> <s_lp_Force_Field>
OPLS_2005

> <r_lp_Energy>
15.3676

> <b_lp_Chiralities_Consistent>
1

> <s_lp_Variant>
AV-unprocessed.smi:1254-1

> <Gold.Version>
5.8.1

> <Gold.Id.Protein>
6NUR|6NUR_protein|mol2

> <Gold.PLP.Fitness>
48.3624

> <Gold.PLP.PLP>
-41.8441

> <Gold.PLP.part.hbond>
-6.5847

> <Gold.PLP.part.metal>
0.0000

> <Gold.PLP.part.buried>
-4.2553

> <Gold.PLP.part.nonpolar>
-31.1038

> <Gold.PLP.part.repulsive>
0.3294

> <Gold.PLP.ligand.clash>
0.0000

> <Gold.PLP.ligand.torsion>
1.2501

> <Gold.PLP.Chemscore.Hbond>
3.0000

> <Gold.PLP.Chemscore.CHOScore>
0.0000

> <Gold.PLP.Chemscore.Metal>
0.0000

> <Gold.Chemscore.Hbonds>
donor molecule, donor type, donor heavy atom, donor atom, acceptor molecule, acceptor atom, score
      L1  H     5    26       P1  7949  1.00
      L1  H    12    46       P1 10747  1.00
      P1  H  7997  8008       L1    21  0.96

> <Gold.PLP.Chemscore.Internal.Correction>
0.0186

> <Gold.Rescore>
     Score         DG    S(hbond)    S(metal)    S(lipo)     H(rot)  DE(clash)    DE(int)     intcor
     17.60     -18.85       2.53        0.00      79.78       1.73       0.07       1.18       ----

> <Gold.Chemscore.Fitness>
17.5972

> <Gold.Chemscore.DG>
-18.8480

> <Gold.Chemscore.ZeroCoef>
-5.4800

> <Gold.Chemscore.Hbond>
2.5331

> <Gold.Chemscore.Metal>
0.0000

> <Gold.Chemscore.Lipo>
79.7790

> <Gold.Chemscore.Internal_Hbond>
0.0000

> <Gold.Chemscore.DEClash>
0.0665

> <Gold.Chemscore.DEInternal>
1.1843

> <Gold.Chemscore.Rot>
1.7291

> <Gold.Chemscore.Internal.Correction>
   9.000000E+99

> <Gold.Chemscore.Hbonds>
donor molecule, donor type, donor heavy atom, donor atom, acceptor molecule, acceptor atom, score
      L1  H     5    26       P1  7949  0.26
      L1  H    12    46       P1 10747  1.00
      P1  H  7997  8008       L1    21  0.87

> <Gold.Chemscore.Hbond.Weighted>
-8.4604

> <Gold.Chemscore.Metal.Weighted>
-0.0000

> <Gold.Chemscore.Lipo.Weighted>
-9.3341

> <Gold.Chemscore.Internal_Hbond.Weighted>
0.0000

> <Gold.Chemscore.DEClash.Weighted>
0.0665

> <Gold.Chemscore.DEInternal.Weighted>
1.1843

> <Gold.Chemscore.Rot.Weighted>
4.4265

> <Gold.Chemscore.Internal.Correction.Weighted>
   9.000000E+99

> <Gold.Protein.RotatedTorsions>
[ 6907 6896 6895 6894 ] final   26.52 input  -60.11 | X-H torsion
[ 7974 7965 7964 7962 ] final   32.52 input  175.53 | X-H torsion
[ 8008 7997 7996 7995 ] final  -17.54 input   59.86 | X-H torsion
[ 10167 10162 10161 10158 ] final  139.28 input  -65.29 | X-H torsion
[ 10718 10713 10712 10709 ] final -140.90 input   66.30 | X-H torsion
[ 10763 10752 10751 10750 ] final  -70.84 input  -60.55 | X-H torsion
[ 11005 11000 10999 10996 ] final  -34.57 input  -57.11 | X-H torsion

> <Gold.Protein.ActiveResidues>
 VAL166  LYS551  ARG553  GLY616  TRP617  ASP618  TYR619  PRO620  LYS621  CYS622 
 ASP623  PHE694  ASN695  SER759  ASP760  ASP761  ALA762  ILE779  LEU786  VAL792 
 PHE793  MET794  SER795  GLU796  ALA797  LYS798  CYS799  TRP800  GLU811  SER814 

> <Gold.Protein.RotatedAtoms>
  151.9886  134.9991  160.0560 H   0  0  0  0  0  0  0  0  0  0  0  0  # atno 6907 bound_to 6896
  152.1629  133.4589  159.4878 H   0  0  0  0  0  0  0  0  0  0  0  0  # atno 6908 bound_to 6896
  150.6890  134.1966  159.4349 H   0  0  0  0  0  0  0  0  0  0  0  0  # atno 6909 bound_to 6896
  146.1481  139.6515  142.9118 H   0  0  0  0  0  0  0  0  0  0  0  0  # atno 7974 bound_to 7965
  154.4971  140.2140  155.9425 H   0  0  0  0  0  0  0  0  0  0  0  0  # atno 8008 bound_to 7997
  156.1384  140.3184  155.8425 H   0  0  0  0  0  0  0  0  0  0  0  0  # atno 8009 bound_to 7997
  155.4166  140.0494  157.3019 H   0  0  0  0  0  0  0  0  0  0  0  0  # atno 8010 bound_to 7997
  139.5084  144.6304  151.5832 H   0  0  0  0  0  0  0  0  0  0  0  0  # atno 10167 bound_to 10162
  156.3277  130.7569  151.1680 H   0  0  0  0  0  0  0  0  0  0  0  0  # atno 10718 bound_to 10713
  154.4233  135.5981  153.6023 H   0  0  0  0  0  0  0  0  0  0  0  0  # atno 10763 bound_to 10752
  152.9795  135.5957  154.3929 H   0  0  0  0  0  0  0  0  0  0  0  0  # atno 10764 bound_to 10752
  154.3757  135.2841  155.2219 H   0  0  0  0  0  0  0  0  0  0  0  0  # atno 10765 bound_to 10752
  140.9727  133.7100  156.1550 H   0  0  0  0  0  0  0  0  0  0  0  0  # atno 11005 bound_to 11000
  145.4890  141.0438  143.2603 LP  0  0  0  0  0  0  0  0  0  0  0  0  # atno 17320 bound_to 7965
  144.7870  139.6406  143.7130 LP  0  0  0  0  0  0  0  0  0  0  0  0  # atno 17321 bound_to 7965
  140.6035  143.9567  150.6402 LP  0  0  0  0  0  0  0  0  0  0  0  0  # atno 17342 bound_to 10162
  140.2786  143.3405  152.1172 LP  0  0  0  0  0  0  0  0  0  0  0  0  # atno 17343 bound_to 10162
  157.7424  131.0490  150.5023 LP  0  0  0  0  0  0  0  0  0  0  0  0  # atno 17370 bound_to 10713
  156.5185  130.4156  149.6263 LP  0  0  0  0  0  0  0  0  0  0  0  0  # atno 17371 bound_to 10713
  140.7305  134.4259  157.5566 LP  0  0  0  0  0  0  0  0  0  0  0  0  # atno 17394 bound_to 11000
  139.8918  134.8770  156.2300 LP  0  0  0  0  0  0  0  0  0  0  0  0  # atno 17395 bound_to 11000

$$$$
