AV-unprocessed.smi:1535|AV-procd|sdf|6185|dock2
  -GOLD-   22720 6343D 1   1.00000     0.00000
 Structure written by MMmdl.
 47 48  0  0  0  0  0  0  0  0  2 V2000
  151.6243  143.3635  160.7582 C   0  0  0  0  0  0  0  0  0  0  0  0
  151.6776  142.3823  159.6003 C   0  0  0  0  0  0  0  0  0  0  0  0
  150.8354  142.5887  158.4843 C   0  0  0  0  0  0  0  0  0  0  0  0
  150.8543  141.6987  157.3881 C   0  0  0  0  0  0  0  0  0  0  0  0
  150.1288  141.7082  156.2091 N   0  0  0  0  0  0  0  0  0  0  0  0
  150.5922  140.6211  155.5995 C   0  0  0  0  0  0  0  0  0  0  0  0
  151.5365  139.9087  156.2433 N   0  0  0  0  0  0  0  0  0  0  0  0
  152.1827  138.6933  155.7802 C   0  0  0  0  0  0  0  0  0  0  0  0
  151.4586  138.0556  154.5792 C   0  0  1  0  0  0  0  0  0  0  0  0
  152.3306  137.1527  153.9258 O   0  0  0  0  0  0  0  0  0  0  0  0
  150.1999  137.2830  155.0209 C   0  0  0  0  0  0  0  0  0  0  0  0
  149.0572  137.5012  154.0978 N   0  3  1  0  0  0  0  0  0  0  0  0
  147.8722  136.7001  154.4820 C   0  0  0  0  0  0  0  0  0  0  0  0
  148.7329  138.9382  153.8990 C   0  0  0  0  0  0  0  0  0  0  0  0
  147.3064  139.1467  153.3581 C   0  0  1  0  0  0  0  0  0  0  0  0
  146.9054  140.6270  153.3841 C   0  0  0  0  0  0  0  0  0  0  0  0
  147.1676  138.5922  152.0016 C   0  0  0  0  0  0  0  0  0  0  0  0
  147.0580  138.1605  150.9345 N   0  0  0  0  0  0  0  0  0  0  0  0
  151.7451  140.5869  157.4398 C   0  0  0  0  0  0  0  0  0  0  0  0
  152.5897  140.3723  158.5433 C   0  0  0  0  0  0  0  0  0  0  0  0
  152.5589  141.2716  159.6297 C   0  0  0  0  0  0  0  0  0  0  0  0
  153.4767  141.0321  160.8154 C   0  0  0  0  0  0  0  0  0  0  0  0
  150.8804  144.1421  160.5870 H   0  0  0  0  0  0  0  0  0  0  0  0
  152.5917  143.8479  160.8924 H   0  0  0  0  0  0  0  0  0  0  0  0
  151.3624  142.8501  161.6838 H   0  0  0  0  0  0  0  0  0  0  0  0
  150.1651  143.4355  158.4605 H   0  0  0  0  0  0  0  0  0  0  0  0
  150.2250  140.3254  154.6275 H   0  0  0  0  0  0  0  0  0  0  0  0
  153.2174  138.9253  155.5241 H   0  0  0  0  0  0  0  0  0  0  0  0
  152.2203  137.9897  156.6128 H   0  0  0  0  0  0  0  0  0  0  0  0
  151.1961  138.8422  153.8716 H   0  0  0  0  0  0  0  0  0  0  0  0
  152.1381  137.1643  152.9999 H   0  0  0  0  0  0  0  0  0  0  0  0
  150.4474  136.2209  155.0670 H   0  0  0  0  0  0  0  0  0  0  0  0
  149.9052  137.5670  156.0326 H   0  0  0  0  0  0  0  0  0  0  0  0
  147.4995  136.9991  155.4625 H   0  0  0  0  0  0  0  0  0  0  0  0
  148.1221  135.6392  154.5211 H   0  0  0  0  0  0  0  0  0  0  0  0
  147.0638  136.8133  153.7606 H   0  0  0  0  0  0  0  0  0  0  0  0
  148.8736  139.4763  154.8378 H   0  0  0  0  0  0  0  0  0  0  0  0
  149.4317  139.3848  153.1912 H   0  0  0  0  0  0  0  0  0  0  0  0
  146.5971  138.6034  153.9816 H   0  0  0  0  0  0  0  0  0  0  0  0
  145.8862  140.7611  153.0204 H   0  0  0  0  0  0  0  0  0  0  0  0
  147.5638  141.2268  152.7550 H   0  0  0  0  0  0  0  0  0  0  0  0
  146.9500  141.0304  154.3961 H   0  0  0  0  0  0  0  0  0  0  0  0
  153.2571  139.5234  158.5538 H   0  0  0  0  0  0  0  0  0  0  0  0
  154.0737  140.1295  160.6811 H   0  0  0  0  0  0  0  0  0  0  0  0
  152.8972  140.9153  161.7313 H   0  0  0  0  0  0  0  0  0  0  0  0
  154.1618  141.8704  160.9428 H   0  0  0  0  0  0  0  0  0  0  0  0
  149.3647  137.1416  153.2047 H   0  0  0  0  0  0  0  0  0  0  0  0
  1  2  1  0  0  0  0
  1 23  1  0  0  0  0
  1 24  1  0  0  0  0
  1 25  1  0  0  0  0
  2 21  1  0  0  0  0
  2  3  2  0  0  0  0
  3  4  1  0  0  0  0
  3 26  1  0  0  0  0
  4 19  2  0  0  0  0
  4  5  1  0  0  0  0
  5  6  2  0  0  0  0
  6  7  1  0  0  0  0
  6 27  1  0  0  0  0
  7  8  1  0  0  0  0
  7 19  1  0  0  0  0
  8  9  1  0  0  0  0
  8 28  1  0  0  0  0
  8 29  1  0  0  0  0
  9 10  1  0  0  0  0
  9 11  1  0  0  0  0
  9 30  1  0  0  0  0
 10 31  1  0  0  0  0
 11 12  1  0  0  0  0
 11 32  1  0  0  0  0
 11 33  1  0  0  0  0
 12 13  1  0  0  0  0
 12 14  1  0  0  0  0
 12 47  1  0  0  0  0
 13 34  1  0  0  0  0
 13 35  1  0  0  0  0
 13 36  1  0  0  0  0
 14 15  1  0  0  0  0
 14 37  1  0  0  0  0
 14 38  1  0  0  0  0
 15 16  1  0  0  0  0
 15 17  1  0  0  0  0
 15 39  1  0  0  0  0
 16 40  1  0  0  0  0
 16 41  1  0  0  0  0
 16 42  1  0  0  0  0
 17 18  3  0  0  0  0
 19 20  1  0  0  0  0
 20 21  2  0  0  0  0
 20 43  1  0  0  0  0
 21 22  1  0  0  0  0
 22 44  1  0  0  0  0
 22 45  1  0  0  0  0
 22 46  1  0  0  0  0
M  CHG  1  12   1
M  END
> <s_m_source_file>
AV-unprocessed.smi

> <i_m_source_file_index>
1535

> <i_lp_mmshare_version>
43012

> <i_f3d_flags>
0

> <s_epik_input>
W0NIM11jKFtjSF0xKWMoW0NIM10pW2NIXWMoYzEyKW4oW2NIXW4yKVtDSDJdW0NASF0oW09IXSlbQ0gyXU4oW0NIM10pW0NIMl1bQ0BIXShbQ0gzXSlDI04=

> <s_epik_cmdline>
J2VwaWtfcHl0aG9uJywgJy1waCcsICc3LjAnLCAnLXRuJywgJzgnLCAnLW1hJywgJzIwMCcsICctbWV0YWxfYmluZGluZycsICctaW1hZScsICc8aW5maWxlLm1hZT4nLCAnLW9tYWUnLCAnPG91dGZpbGUubWFlPic=

> <r_epik_Ionization_Penalty>
2.21058

> <r_epik_Ionization_Penalty_Charging>
2.12381

> <r_epik_Ionization_Penalty_Neutral>
0.0867699

> <r_epik_State_Penalty>
2.36208

> <r_epik_Charging_Adjusted_Penalty>
4.48589

> <i_epik_Tot_Q>
1

> <i_epik_Tot_abs_Q>
1

> <r_epik_Metal_State_Penalty>
2.2818

> <b_epik_Metal_Only>
0

> <s_lp_Force_Field>
OPLS_2005

> <r_lp_Energy>
14.5736

> <b_lp_Chiralities_Consistent>
1

> <s_lp_Variant>
AV-unprocessed.smi:1535-16

> <Gold.Version>
5.8.1

> <Gold.Id.Protein>
6NUR|6NUR_protein|mol2

> <Gold.PLP.Fitness>
59.4738

> <Gold.PLP.PLP>
-46.5893

> <Gold.PLP.part.hbond>
-4.0000

> <Gold.PLP.part.metal>
0.0000

> <Gold.PLP.part.buried>
-3.8807

> <Gold.PLP.part.nonpolar>
-38.8851

> <Gold.PLP.part.repulsive>
0.6717

> <Gold.PLP.ligand.clash>
0.0000

> <Gold.PLP.ligand.torsion>
1.1944

> <Gold.PLP.Chemscore.Hbond>
4.9516

> <Gold.PLP.Chemscore.CHOScore>
0.0000

> <Gold.PLP.Chemscore.Metal>
0.0000

> <Gold.Chemscore.Hbonds>
donor molecule, donor type, donor heavy atom, donor atom, acceptor molecule, acceptor atom, score
      L1  H    10    31       P1  7949  0.61
      L1  H    12    47       P1  7948  1.92
      P1  H  7954  7966       L1    18  1.00
      P1  H 10752 10765       L1    10  0.90

> <Gold.PLP.Chemscore.Internal.Correction>
0.4185

> <Gold.Rescore>
     Score         DG    S(hbond)    S(metal)    S(lipo)     H(rot)  DE(clash)    DE(int)     intcor
     20.90     -21.94       3.47        0.00      98.57       2.60       0.18       0.86       ----

> <Gold.Chemscore.Fitness>
20.8985

> <Gold.Chemscore.DG>
-21.9374

> <Gold.Chemscore.ZeroCoef>
-5.4800

> <Gold.Chemscore.Hbond>
3.4696

> <Gold.Chemscore.Metal>
0.0000

> <Gold.Chemscore.Lipo>
98.5725

> <Gold.Chemscore.Internal_Hbond>
0.0000

> <Gold.Chemscore.DEClash>
0.1757

> <Gold.Chemscore.DEInternal>
0.8632

> <Gold.Chemscore.Rot>
2.6031

> <Gold.Chemscore.Internal.Correction>
   9.000000E+99

> <Gold.Chemscore.Hbonds>
donor molecule, donor type, donor heavy atom, donor atom, acceptor molecule, acceptor atom, score
      L1  H    10    31       P1  7949  0.59
      L1  H    12    47       P1  7948  0.87
      P1  H  7954  7966       L1    18  0.94
      P1  H 10752 10765       L1    10  0.30

> <Gold.Chemscore.Hbond.Weighted>
-11.5884

> <Gold.Chemscore.Metal.Weighted>
-0.0000

> <Gold.Chemscore.Lipo.Weighted>
-11.5330

> <Gold.Chemscore.Internal_Hbond.Weighted>
0.0000

> <Gold.Chemscore.DEClash.Weighted>
0.1757

> <Gold.Chemscore.DEInternal.Weighted>
0.8632

> <Gold.Chemscore.Rot.Weighted>
6.6640

> <Gold.Chemscore.Internal.Correction.Weighted>
   9.000000E+99

> <Gold.Protein.RotatedTorsions>
[ 6907 6896 6895 6894 ] final  -27.96 input  -60.11 | X-H torsion
[ 7974 7965 7964 7962 ] final   68.46 input  175.53 | X-H torsion
[ 8008 7997 7996 7995 ] final   19.05 input   59.86 | X-H torsion
[ 10167 10162 10161 10158 ] final  127.67 input  -65.29 | X-H torsion
[ 10718 10713 10712 10709 ] final   26.71 input   66.30 | X-H torsion
[ 10763 10752 10751 10750 ] final  150.13 input  -60.55 | X-H torsion
[ 11005 11000 10999 10996 ] final -156.57 input  -57.11 | X-H torsion

> <Gold.Protein.ActiveResidues>
 VAL166  LYS551  ARG553  GLY616  TRP617  ASP618  TYR619  PRO620  LYS621  CYS622 
 ASP623  PHE694  ASN695  SER759  ASP760  ASP761  ALA762  ILE779  LEU786  VAL792 
 PHE793  MET794  SER795  GLU796  ALA797  LYS798  CYS799  TRP800  GLU811  SER814 

> <Gold.Protein.RotatedAtoms>
  151.1396  135.0173  159.8619 H   0  0  0  0  0  0  0  0  0  0  0  0  # atno 6907 bound_to 6896
  152.5452  134.1514  159.8530 H   0  0  0  0  0  0  0  0  0  0  0  0  # atno 6908 bound_to 6896
  151.1589  133.4813  159.2627 H   0  0  0  0  0  0  0  0  0  0  0  0  # atno 6909 bound_to 6896
  145.8023  139.2988  143.1148 H   0  0  0  0  0  0  0  0  0  0  0  0  # atno 7974 bound_to 7965
  154.9151  140.3019  155.5246 H   0  0  0  0  0  0  0  0  0  0  0  0  # atno 8008 bound_to 7997
  156.3013  140.2382  156.4130 H   0  0  0  0  0  0  0  0  0  0  0  0  # atno 8009 bound_to 7997
  154.8387  140.0415  157.1515 H   0  0  0  0  0  0  0  0  0  0  0  0  # atno 8010 bound_to 7997
  139.5566  144.6853  151.4164 H   0  0  0  0  0  0  0  0  0  0  0  0  # atno 10167 bound_to 10162
  157.2105  130.6932  149.6226 H   0  0  0  0  0  0  0  0  0  0  0  0  # atno 10718 bound_to 10713
  154.0825  135.2858  155.3287 H   0  0  0  0  0  0  0  0  0  0  0  0  # atno 10763 bound_to 10752
  154.6674  135.5312  153.8098 H   0  0  0  0  0  0  0  0  0  0  0  0  # atno 10764 bound_to 10752
  153.0443  135.6549  154.0999 H   0  0  0  0  0  0  0  0  0  0  0  0  # atno 10765 bound_to 10752
  140.6741  134.4215  157.5230 H   0  0  0  0  0  0  0  0  0  0  0  0  # atno 11005 bound_to 11000
  145.9865  140.8639  143.0088 LP  0  0  0  0  0  0  0  0  0  0  0  0  # atno 17320 bound_to 7965
  144.6767  140.2155  143.7372 LP  0  0  0  0  0  0  0  0  0  0  0  0  # atno 17321 bound_to 7965
  140.6840  143.8016  150.7160 LP  0  0  0  0  0  0  0  0  0  0  0  0  # atno 17342 bound_to 10162
  140.1478  143.4384  152.2151 LP  0  0  0  0  0  0  0  0  0  0  0  0  # atno 17343 bound_to 10162
  155.9691  130.4553  150.5881 LP  0  0  0  0  0  0  0  0  0  0  0  0  # atno 17370 bound_to 10713
  157.3677  131.0760  151.1584 LP  0  0  0  0  0  0  0  0  0  0  0  0  # atno 17371 bound_to 10713
  139.8972  134.8642  156.2054 LP  0  0  0  0  0  0  0  0  0  0  0  0  # atno 17394 bound_to 11000
  141.0369  133.6958  156.1528 LP  0  0  0  0  0  0  0  0  0  0  0  0  # atno 17395 bound_to 11000

$$$$
