AV-unprocessed.smi:1360|AV-procd|sdf|5551|dock4
  -GOLD-   22720 5143D 1   1.00000     0.00000
 Structure written by MMmdl.
 36 37  0  0  0  0  0  0  0  0  1 V2000
  152.7143  138.1487  156.4331 C   0  0  0  0  0  0  0  0  0  0  0  0
  151.4129  138.9231  156.1743 C   0  0  2  0  0  0  0  0  0  0  0  0
  151.1356  139.0738  154.6661 C   0  0  0  0  0  0  0  0  0  0  0  0
  149.9117  139.8100  154.4016 N   0  0  0  0  0  0  0  0  0  0  0  0
  148.7587  139.3607  153.7933 C   0  0  0  0  0  0  0  0  0  0  0  0
  147.8770  140.4030  153.7740 C   0  0  0  0  0  0  0  0  0  0  0  0
  148.5914  141.4616  154.4015 C   0  0  0  0  0  0  0  0  0  0  0  0
  149.8095  141.1042  154.7752 N   0  0  0  0  0  0  0  0  0  0  0  0
  151.4845  140.2391  156.8049 N   0  0  0  0  0  0  0  0  0  0  0  0
  151.3607  140.4834  158.1184 C   0  0  0  0  0  0  0  0  0  0  0  0
  151.1880  139.5985  158.9572 O   0  0  0  0  0  0  0  0  0  0  0  0
  151.4411  141.9537  158.5493 C   0  0  2  0  0  0  0  0  0  0  0  0
  151.2687  142.9010  157.3394 C   0  0  0  0  0  0  0  0  0  0  0  0
  151.6018  144.3414  157.6865 C   0  0  0  0  0  0  0  0  0  0  0  0
  152.2799  144.6981  158.7908 C   0  0  0  0  0  0  0  0  0  0  0  0
  152.7949  143.7010  159.8140 C   0  0  0  0  0  0  0  0  0  0  0  0
  152.7617  142.2540  159.2865 C   0  0  0  0  0  0  0  0  0  0  0  0
  152.6726  137.1537  155.9893 H   0  0  0  0  0  0  0  0  0  0  0  0
  152.8937  138.0227  157.5014 H   0  0  0  0  0  0  0  0  0  0  0  0
  153.5751  138.6666  156.0089 H   0  0  0  0  0  0  0  0  0  0  0  0
  150.5889  138.3562  156.6121 H   0  0  0  0  0  0  0  0  0  0  0  0
  151.9695  139.5700  154.1664 H   0  0  0  0  0  0  0  0  0  0  0  0
  151.0381  138.0907  154.2039 H   0  0  0  0  0  0  0  0  0  0  0  0
  148.6630  138.3475  153.4316 H   0  0  0  0  0  0  0  0  0  0  0  0
  146.8740  140.4083  153.3739 H   0  0  0  0  0  0  0  0  0  0  0  0
  148.2629  142.4722  154.5948 H   0  0  0  0  0  0  0  0  0  0  0  0
  151.6164  141.0293  156.1899 H   0  0  0  0  0  0  0  0  0  0  0  0
  150.6246  142.1474  159.2479 H   0  0  0  0  0  0  0  0  0  0  0  0
  151.9042  142.6017  156.5046 H   0  0  0  0  0  0  0  0  0  0  0  0
  150.2384  142.8594  156.9840 H   0  0  0  0  0  0  0  0  0  0  0  0
  151.2767  145.0986  156.9878 H   0  0  0  0  0  0  0  0  0  0  0  0
  152.4733  145.7423  158.9880 H   0  0  0  0  0  0  0  0  0  0  0  0
  153.8127  143.9692  160.0979 H   0  0  0  0  0  0  0  0  0  0  0  0
  152.1807  143.7896  160.7105 H   0  0  0  0  0  0  0  0  0  0  0  0
  152.9104  141.5590  160.1142 H   0  0  0  0  0  0  0  0  0  0  0  0
  153.6011  142.1047  158.6052 H   0  0  0  0  0  0  0  0  0  0  0  0
  1  2  1  0  0  0  0
  1 18  1  0  0  0  0
  1 19  1  0  0  0  0
  1 20  1  0  0  0  0
  2  3  1  0  0  0  0
  2  9  1  0  0  0  0
  2 21  1  0  0  0  0
  3  4  1  0  0  0  0
  3 22  1  0  0  0  0
  3 23  1  0  0  0  0
  4  8  1  0  0  0  0
  4  5  1  0  0  0  0
  5  6  2  0  0  0  0
  5 24  1  0  0  0  0
  6  7  1  0  0  0  0
  6 25  1  0  0  0  0
  7  8  2  0  0  0  0
  7 26  1  0  0  0  0
  9 10  1  0  0  0  0
  9 27  1  0  0  0  0
 10 11  2  0  0  0  0
 10 12  1  0  0  0  0
 12 17  1  0  0  0  0
 12 13  1  0  0  0  0
 12 28  1  0  0  0  0
 13 14  1  0  0  0  0
 13 29  1  0  0  0  0
 13 30  1  0  0  0  0
 14 15  2  0  0  0  0
 14 31  1  0  0  0  0
 15 16  1  0  0  0  0
 15 32  1  0  0  0  0
 16 17  1  0  0  0  0
 16 33  1  0  0  0  0
 16 34  1  0  0  0  0
 17 35  1  0  0  0  0
 17 36  1  0  0  0  0
M  END
> <s_m_source_file>
AV-unprocessed.smi

> <i_m_source_file_index>
1360

> <i_lp_mmshare_version>
43012

> <i_f3d_flags>
0

> <s_epik_input>
bjFbY0hdW2NIXVtjSF1uMVtDSDJdW0NAQEhdKFtDSDNdKVtOSF1DKD1PKVtDQEBIXTJbQ0gyXVtDSF09W0NIXVtDSDJdW0NIMl0y

> <s_epik_cmdline>
J2VwaWtfcHl0aG9uJywgJy1waCcsICc3LjAnLCAnLXRuJywgJzgnLCAnLW1hJywgJzIwMCcsICctbWV0YWxfYmluZGluZycsICctaW1hZScsICc8aW5maWxlLm1hZT4nLCAnLW9tYWUnLCAnPG91dGZpbGUubWFlPic=

> <r_lp_tautomer_probability>
1

> <r_epik_Ionization_Penalty>
0.000315076

> <r_epik_Ionization_Penalty_Charging>
0

> <r_epik_Ionization_Penalty_Neutral>
0.000315076

> <r_epik_State_Penalty>
-0

> <r_epik_Charging_Adjusted_Penalty>
0

> <i_epik_Tot_Q>
0

> <i_epik_Tot_abs_Q>
0

> <r_epik_Metal_State_Penalty>
-0

> <b_epik_Metal_Only>
0

> <s_lp_Force_Field>
OPLS_2005

> <r_lp_Energy>
8.39031

> <b_lp_Chiralities_Consistent>
1

> <s_lp_Variant>
AV-unprocessed.smi:1360-1

> <Gold.Version>
5.8.1

> <Gold.Id.Protein>
6NUR|6NUR_protein|mol2

> <Gold.PLP.Fitness>
41.9979

> <Gold.PLP.PLP>
-38.8909

> <Gold.PLP.part.hbond>
-1.0000

> <Gold.PLP.part.metal>
0.0000

> <Gold.PLP.part.buried>
0.2875

> <Gold.PLP.part.nonpolar>
-37.6408

> <Gold.PLP.part.repulsive>
0.2295

> <Gold.PLP.ligand.clash>
0.9550

> <Gold.PLP.ligand.torsion>
0.5658

> <Gold.PLP.Chemscore.Hbond>
0.0000

> <Gold.PLP.Chemscore.CHOScore>
1.7208

> <Gold.PLP.Chemscore.Metal>
0.0000

> <Gold.Chemscore.Hbonds>
donor molecule, donor type, donor heavy atom, donor atom, acceptor molecule, acceptor atom, score
      L1  C     5    24       P1  7948  0.75
      L1  C     7    26       P1  8028  0.98

> <Gold.PLP.Chemscore.Internal.Correction>
0.0313

> <Gold.Rescore>
     Score         DG    S(hbond)    S(metal)    S(lipo)     H(rot)  DE(clash)    DE(int)     intcor
     14.03     -14.59       0.00        0.00     110.81       1.51       0.13       0.44       ----

> <Gold.Chemscore.Fitness>
14.0288

> <Gold.Chemscore.DG>
-14.5900

> <Gold.Chemscore.ZeroCoef>
-5.4800

> <Gold.Chemscore.Hbond>
0.0000

> <Gold.Chemscore.Metal>
0.0000

> <Gold.Chemscore.Lipo>
110.8085

> <Gold.Chemscore.Internal_Hbond>
0.0000

> <Gold.Chemscore.DEClash>
0.1252

> <Gold.Chemscore.DEInternal>
0.4360

> <Gold.Chemscore.Rot>
1.5057

> <Gold.Chemscore.Internal.Correction>
   9.000000E+99

> <Gold.Chemscore.Hbond.Weighted>
-0.0000

> <Gold.Chemscore.Metal.Weighted>
-0.0000

> <Gold.Chemscore.Lipo.Weighted>
-12.9646

> <Gold.Chemscore.Internal_Hbond.Weighted>
0.0000

> <Gold.Chemscore.DEClash.Weighted>
0.1252

> <Gold.Chemscore.DEInternal.Weighted>
0.4360

> <Gold.Chemscore.Rot.Weighted>
3.8546

> <Gold.Chemscore.Internal.Correction.Weighted>
   9.000000E+99

> <Gold.Protein.RotatedTorsions>
[ 6907 6896 6895 6894 ] final  124.34 input  -60.11 | X-H torsion
[ 7974 7965 7964 7962 ] final   72.32 input  175.53 | X-H torsion
[ 8008 7997 7996 7995 ] final -109.74 input   59.86 | X-H torsion
[ 10167 10162 10161 10158 ] final   82.51 input  -65.29 | X-H torsion
[ 10718 10713 10712 10709 ] final  171.81 input   66.30 | X-H torsion
[ 10763 10752 10751 10750 ] final   30.33 input  -60.55 | X-H torsion
[ 11005 11000 10999 10996 ] final   14.98 input  -57.11 | X-H torsion

> <Gold.Protein.ActiveResidues>
 VAL166  LYS551  ARG553  GLY616  TRP617  ASP618  TYR619  PRO620  LYS621  CYS622 
 ASP623  PHE694  ASN695  SER759  ASP760  ASP761  ALA762  ILE779  LEU786  VAL792 
 PHE793  MET794  SER795  GLU796  ALA797  LYS798  CYS799  TRP800  GLU811  SER814 

> <Gold.Protein.RotatedAtoms>
  152.4086  133.6928  159.6377 H   0  0  0  0  0  0  0  0  0  0  0  0  # atno 6907 bound_to 6896
  150.7969  133.8664  159.3255 H   0  0  0  0  0  0  0  0  0  0  0  0  # atno 6908 bound_to 6896
  151.6412  135.1014  160.0193 H   0  0  0  0  0  0  0  0  0  0  0  0  # atno 6909 bound_to 6896
  145.7548  139.2775  143.1410 H   0  0  0  0  0  0  0  0  0  0  0  0  # atno 7974 bound_to 7965
  154.9640  140.0398  157.2203 H   0  0  0  0  0  0  0  0  0  0  0  0  # atno 8008 bound_to 7997
  154.7863  140.2827  155.6003 H   0  0  0  0  0  0  0  0  0  0  0  0  # atno 8009 bound_to 7997
  156.2943  140.2582  156.2700 H   0  0  0  0  0  0  0  0  0  0  0  0  # atno 8010 bound_to 7997
  139.9281  144.6170  150.8373 H   0  0  0  0  0  0  0  0  0  0  0  0  # atno 10167 bound_to 10162
  156.9882  131.0139  151.2864 H   0  0  0  0  0  0  0  0  0  0  0  0  # atno 10718 bound_to 10713
  153.0378  135.6467  154.1028 H   0  0  0  0  0  0  0  0  0  0  0  0  # atno 10763 bound_to 10752
  154.0740  135.2878  155.3304 H   0  0  0  0  0  0  0  0  0  0  0  0  # atno 10764 bound_to 10752
  154.6575  135.5403  153.8041 H   0  0  0  0  0  0  0  0  0  0  0  0  # atno 10765 bound_to 10752
  140.4634  134.1104  155.7720 H   0  0  0  0  0  0  0  0  0  0  0  0  # atno 11005 bound_to 11000
  146.0322  140.8247  142.9870 LP  0  0  0  0  0  0  0  0  0  0  0  0  # atno 17320 bound_to 7965
  144.6842  140.2785  143.7295 LP  0  0  0  0  0  0  0  0  0  0  0  0  # atno 17321 bound_to 7965
  140.7645  143.3250  151.2537 LP  0  0  0  0  0  0  0  0  0  0  0  0  # atno 17342 bound_to 10162
  139.6805  143.9862  152.2806 LP  0  0  0  0  0  0  0  0  0  0  0  0  # atno 17343 bound_to 10162
  157.5478  130.8162  149.8107 LP  0  0  0  0  0  0  0  0  0  0  0  0  # atno 17370 bound_to 10713
  156.0218  130.3793  150.1941 LP  0  0  0  0  0  0  0  0  0  0  0  0  # atno 17371 bound_to 10713
  141.1610  133.8792  157.1846 LP  0  0  0  0  0  0  0  0  0  0  0  0  # atno 17394 bound_to 11000
  139.9930  135.0057  157.0019 LP  0  0  0  0  0  0  0  0  0  0  0  0  # atno 17395 bound_to 11000

$$$$
