AV-unprocessed.smi:1853|AV-procd|sdf|7527|dock2
  -GOLD-   22720 9233D 1   1.00000     0.00000
 Structure written by MMmdl.
 42 44  0  0  0  0  0  0  0  0  1 V2000
  151.3967  145.4294  160.5894 C   0  0  0  0  0  0  0  0  0  0  0  0
  152.1432  144.1174  160.7165 C   0  0  0  0  0  0  0  0  0  0  0  0
  152.2768  143.4908  161.9712 C   0  0  0  0  0  0  0  0  0  0  0  0
  152.9696  142.2698  162.0804 C   0  0  0  0  0  0  0  0  0  0  0  0
  153.5359  141.6557  160.9444 C   0  0  0  0  0  0  0  0  0  0  0  0
  154.1946  140.4611  161.1422 O   0  0  0  0  0  0  0  0  0  0  0  0
  154.5404  139.6902  160.0007 C   0  0  0  0  0  0  0  0  0  0  0  0
  153.4503  138.6366  159.7721 C   0  0  0  0  0  0  0  0  0  0  0  0
  153.8415  137.6666  158.7609 N   0  0  0  0  0  0  0  0  0  0  0  0
  153.4830  137.6145  157.4518 C   0  0  0  0  0  0  0  0  0  0  0  0
  152.5584  138.6279  156.8277 C   0  0  0  0  0  0  0  0  0  0  0  0
  152.5072  138.4390  155.3801 N   0  0  0  0  0  0  0  0  0  0  0  0
  152.8679  139.3550  154.4699 C   0  0  0  0  0  0  0  0  0  0  0  0
  153.2925  140.4769  154.7411 O   0  0  0  0  0  0  0  0  0  0  0  0
  154.0212  136.6142  156.7484 N   0  0  0  0  0  0  0  0  0  0  0  0
  154.7745  135.9443  157.6915 C   0  0  0  0  0  0  0  0  0  0  0  0
  155.5775  134.7871  157.5731 C   0  0  0  0  0  0  0  0  0  0  0  0
  156.2658  134.2784  158.6940 C   0  0  0  0  0  0  0  0  0  0  0  0
  156.1610  134.9176  159.9463 C   0  0  0  0  0  0  0  0  0  0  0  0
  155.3669  136.0721  160.0853 C   0  0  0  0  0  0  0  0  0  0  0  0
  154.6821  136.5764  158.9630 C   0  0  0  0  0  0  0  0  0  0  0  0
  153.3972  142.2914  159.6845 C   0  0  0  0  0  0  0  0  0  0  0  0
  152.7051  143.5132  159.5747 C   0  0  0  0  0  0  0  0  0  0  0  0
  151.2713  145.9084  161.5608 H   0  0  0  0  0  0  0  0  0  0  0  0
  150.4089  145.2596  160.1605 H   0  0  0  0  0  0  0  0  0  0  0  0
  151.9399  146.1170  159.9407 H   0  0  0  0  0  0  0  0  0  0  0  0
  151.8485  143.9421  162.8541 H   0  0  0  0  0  0  0  0  0  0  0  0
  153.0656  141.7979  163.0472 H   0  0  0  0  0  0  0  0  0  0  0  0
  154.6210  140.3342  159.1231 H   0  0  0  0  0  0  0  0  0  0  0  0
  155.5026  139.2021  160.1558 H   0  0  0  0  0  0  0  0  0  0  0  0
  153.2048  138.1189  160.6993 H   0  0  0  0  0  0  0  0  0  0  0  0
  152.5300  139.1225  159.4464 H   0  0  0  0  0  0  0  0  0  0  0  0
  151.5519  138.5659  157.2402 H   0  0  0  0  0  0  0  0  0  0  0  0
  152.9342  139.6278  157.0444 H   0  0  0  0  0  0  0  0  0  0  0  0
  152.1625  137.5497  155.0490 H   0  0  0  0  0  0  0  0  0  0  0  0
  152.7305  138.9678  153.4485 H   0  0  0  0  0  0  0  0  0  0  0  0
  155.6635  134.2892  156.6186 H   0  0  0  0  0  0  0  0  0  0  0  0
  156.8767  133.3932  158.5928 H   0  0  0  0  0  0  0  0  0  0  0  0
  156.6908  134.5213  160.8002 H   0  0  0  0  0  0  0  0  0  0  0  0
  155.2849  136.5627  161.0437 H   0  0  0  0  0  0  0  0  0  0  0  0
  153.8128  141.8626  158.7851 H   0  0  0  0  0  0  0  0  0  0  0  0
  152.6063  143.9858  158.6084 H   0  0  0  0  0  0  0  0  0  0  0  0
  1  2  1  0  0  0  0
  1 24  1  0  0  0  0
  1 25  1  0  0  0  0
  1 26  1  0  0  0  0
  2 23  1  0  0  0  0
  2  3  2  0  0  0  0
  3  4  1  0  0  0  0
  3 27  1  0  0  0  0
  4  5  2  0  0  0  0
  4 28  1  0  0  0  0
  5  6  1  0  0  0  0
  5 22  1  0  0  0  0
  6  7  1  0  0  0  0
  7  8  1  0  0  0  0
  7 29  1  0  0  0  0
  7 30  1  0  0  0  0
  8  9  1  0  0  0  0
  8 31  1  0  0  0  0
  8 32  1  0  0  0  0
  9 21  1  0  0  0  0
  9 10  1  0  0  0  0
 10 11  1  0  0  0  0
 10 15  2  0  0  0  0
 11 12  1  0  0  0  0
 11 33  1  0  0  0  0
 11 34  1  0  0  0  0
 12 13  1  0  0  0  0
 12 35  1  0  0  0  0
 13 14  2  0  0  0  0
 13 36  1  0  0  0  0
 15 16  1  0  0  0  0
 16 21  2  0  0  0  0
 16 17  1  0  0  0  0
 17 18  2  0  0  0  0
 17 37  1  0  0  0  0
 18 19  1  0  0  0  0
 18 38  1  0  0  0  0
 19 20  2  0  0  0  0
 19 39  1  0  0  0  0
 20 21  1  0  0  0  0
 20 40  1  0  0  0  0
 22 23  2  0  0  0  0
 22 41  1  0  0  0  0
 23 42  1  0  0  0  0
M  END
> <s_m_source_file>
AV-unprocessed.smi

> <i_m_source_file_index>
1853

> <i_lp_mmshare_version>
43012

> <i_f3d_flags>
0

> <s_epik_input>
W0NIM11jMVtjSF1bY0hdYyhbY0hdW2NIXTEpT1tDSDJdW0NIMl1uKGMobjIpW0NIMl1bTkhdW0NIXT1PKWMoYzIzKVtjSF1bY0hdW2NIXVtjSF0z

> <s_epik_cmdline>
J2VwaWtfcHl0aG9uJywgJy1waCcsICc3LjAnLCAnLXRuJywgJzgnLCAnLW1hJywgJzIwMCcsICctbWV0YWxfYmluZGluZycsICctaW1hZScsICc8aW5maWxlLm1hZT4nLCAnLW9tYWUnLCAnPG91dGZpbGUubWFlPic=

> <r_lp_tautomer_probability>
1

> <r_epik_Ionization_Penalty>
0.0586177

> <r_epik_Ionization_Penalty_Charging>
0

> <r_epik_Ionization_Penalty_Neutral>
0.0586177

> <r_epik_State_Penalty>
0.0507031

> <r_epik_Charging_Adjusted_Penalty>
0.0507031

> <i_epik_Tot_Q>
0

> <i_epik_Tot_abs_Q>
0

> <r_epik_Metal_State_Penalty>
0.0461069

> <b_epik_Metal_Only>
0

> <s_lp_Force_Field>
OPLS_2005

> <r_lp_Energy>
12.744

> <b_lp_Chiralities_Consistent>
1

> <s_lp_Variant>
AV-unprocessed.smi:1853-1

> <Gold.Version>
5.8.1

> <Gold.Id.Protein>
6NUR|6NUR_protein|mol2

> <Gold.PLP.Fitness>
51.6750

> <Gold.PLP.PLP>
-45.5857

> <Gold.PLP.part.hbond>
-3.0000

> <Gold.PLP.part.metal>
0.0000

> <Gold.PLP.part.buried>
-6.6428

> <Gold.PLP.part.nonpolar>
-36.2026

> <Gold.PLP.part.repulsive>
0.1627

> <Gold.PLP.ligand.clash>
0.0000

> <Gold.PLP.ligand.torsion>
0.7433

> <Gold.PLP.Chemscore.Hbond>
2.4640

> <Gold.PLP.Chemscore.CHOScore>
0.0000

> <Gold.PLP.Chemscore.Metal>
0.0000

> <Gold.Chemscore.Hbonds>
donor molecule, donor type, donor heavy atom, donor atom, acceptor molecule, acceptor atom, score
      P1  H  7997  8009       L1    14  0.96
      P1  H 10752 10764       L1    15  0.88

> <Gold.PLP.Chemscore.Internal.Correction>
0.1840

> <Gold.Rescore>
     Score         DG    S(hbond)    S(metal)    S(lipo)     H(rot)  DE(clash)    DE(int)     intcor
     19.42     -20.18       2.07        0.00     119.07       2.40       0.01       0.74       ----

> <Gold.Chemscore.Fitness>
19.4193

> <Gold.Chemscore.DG>
-20.1757

> <Gold.Chemscore.ZeroCoef>
-5.4800

> <Gold.Chemscore.Hbond>
2.0662

> <Gold.Chemscore.Metal>
0.0000

> <Gold.Chemscore.Lipo>
119.0656

> <Gold.Chemscore.Internal_Hbond>
0.0000

> <Gold.Chemscore.DEClash>
0.0149

> <Gold.Chemscore.DEInternal>
0.7415

> <Gold.Chemscore.Rot>
2.3969

> <Gold.Chemscore.Internal.Correction>
   9.000000E+99

> <Gold.Chemscore.Hbonds>
donor molecule, donor type, donor heavy atom, donor atom, acceptor molecule, acceptor atom, score
      P1  H  7997  8009       L1    14  0.46
      P1  H 10752 10764       L1    15  0.39

> <Gold.Chemscore.Hbond.Weighted>
-6.9011

> <Gold.Chemscore.Metal.Weighted>
-0.0000

> <Gold.Chemscore.Lipo.Weighted>
-13.9307

> <Gold.Chemscore.Internal_Hbond.Weighted>
0.0000

> <Gold.Chemscore.DEClash.Weighted>
0.0149

> <Gold.Chemscore.DEInternal.Weighted>
0.7415

> <Gold.Chemscore.Rot.Weighted>
6.1361

> <Gold.Chemscore.Internal.Correction.Weighted>
   9.000000E+99

> <Gold.Protein.RotatedTorsions>
[ 6907 6896 6895 6894 ] final   85.76 input  -60.11 | X-H torsion
[ 7974 7965 7964 7962 ] final  126.61 input  175.53 | X-H torsion
[ 8008 7997 7996 7995 ] final -138.21 input   59.86 | X-H torsion
[ 10167 10162 10161 10158 ] final  106.11 input  -65.29 | X-H torsion
[ 10718 10713 10712 10709 ] final -156.22 input   66.30 | X-H torsion
[ 10763 10752 10751 10750 ] final   12.11 input  -60.55 | X-H torsion
[ 11005 11000 10999 10996 ] final -163.52 input  -57.11 | X-H torsion

> <Gold.Protein.ActiveResidues>
 VAL166  LYS551  ARG553  GLY616  TRP617  ASP618  TYR619  PRO620  LYS621  CYS622 
 ASP623  PHE694  ASN695  SER759  ASP760  ASP761  ALA762  ILE779  LEU786  VAL792 
 PHE793  MET794  SER795  GLU796  ALA797  LYS798  CYS799  TRP800  GLU811  SER814 

> <Gold.Protein.RotatedAtoms>
  152.5381  134.2537  159.8908 H   0  0  0  0  0  0  0  0  0  0  0  0  # atno 6907 bound_to 6896
  151.2499  133.4349  159.2618 H   0  0  0  0  0  0  0  0  0  0  0  0  # atno 6908 bound_to 6896
  151.0549  134.9712  159.8286 H   0  0  0  0  0  0  0  0  0  0  0  0  # atno 6909 bound_to 6896
  145.0598  139.3815  143.5012 H   0  0  0  0  0  0  0  0  0  0  0  0  # atno 7974 bound_to 7965
  155.4246  140.0521  157.3023 H   0  0  0  0  0  0  0  0  0  0  0  0  # atno 8008 bound_to 7997
  154.4887  140.2111  155.9556 H   0  0  0  0  0  0  0  0  0  0  0  0  # atno 8009 bound_to 7997
  156.1311  140.3171  155.8356 H   0  0  0  0  0  0  0  0  0  0  0  0  # atno 8010 bound_to 7997
  139.7036  144.7090  151.1144 H   0  0  0  0  0  0  0  0  0  0  0  0  # atno 10167 bound_to 10162
  156.5236  130.8489  151.2691 H   0  0  0  0  0  0  0  0  0  0  0  0  # atno 10718 bound_to 10713
  153.1857  135.6834  153.8419 H   0  0  0  0  0  0  0  0  0  0  0  0  # atno 10763 bound_to 10752
  153.7736  135.3192  155.3356 H   0  0  0  0  0  0  0  0  0  0  0  0  # atno 10764 bound_to 10752
  154.8087  135.4732  154.0555 H   0  0  0  0  0  0  0  0  0  0  0  0  # atno 10765 bound_to 10752
  140.5972  134.4985  157.5200 H   0  0  0  0  0  0  0  0  0  0  0  0  # atno 11005 bound_to 11000
  146.3523  140.0290  142.8652 LP  0  0  0  0  0  0  0  0  0  0  0  0  # atno 17320 bound_to 7965
  145.1423  140.9578  143.4481 LP  0  0  0  0  0  0  0  0  0  0  0  0  # atno 17321 bound_to 7965
  140.7716  143.5389  150.9335 LP  0  0  0  0  0  0  0  0  0  0  0  0  # atno 17342 bound_to 10162
  139.9072  143.6764  152.3121 LP  0  0  0  0  0  0  0  0  0  0  0  0  # atno 17343 bound_to 10162
  157.7433  130.9909  150.2582 LP  0  0  0  0  0  0  0  0  0  0  0  0  # atno 17370 bound_to 10713
  156.3126  130.3774  149.7647 LP  0  0  0  0  0  0  0  0  0  0  0  0  # atno 17371 bound_to 10713
  139.9248  134.8077  156.1101 LP  0  0  0  0  0  0  0  0  0  0  0  0  # atno 17394 bound_to 11000
  141.0896  133.6719  156.2512 LP  0  0  0  0  0  0  0  0  0  0  0  0  # atno 17395 bound_to 11000

$$$$
