AV-unprocessed.smi:2209|AV-procd|sdf|8948|dock1
  -GOLD-   2272012163D 1   1.00000     0.00000
 Structure written by MMmdl.
 26 27  0  0  0  0  0  0  0  0  2 V2000
  155.3921  139.0600  160.4710 C   0  0  0  0  0  0  0  0  0  0  0  0
  154.3696  139.8965  159.7799 C   0  0  0  0  0  0  0  0  0  0  0  0
  154.0089  139.6528  158.5260 N   0  0  0  0  0  0  0  0  0  0  0  0
  153.0501  140.6425  158.2663 O   0  0  0  0  0  0  0  0  0  0  0  0
  152.9489  141.3681  159.4059 C   0  0  0  0  0  0  0  0  0  0  0  0
  151.9940  142.5198  159.4487 C   0  0  1  0  0  0  0  0  0  0  0  0
  152.6328  143.7792  160.0642 C   0  0  0  0  0  0  0  0  0  0  0  0
  151.6277  144.9413  160.0777 C   0  0  0  0  0  0  0  0  0  0  0  0
  151.0563  145.1912  158.6722 C   0  0  0  0  0  0  0  0  0  0  0  0
  150.4444  143.9584  158.1301 N   0  3  0  0  0  0  0  0  0  0  0  0
  151.3914  142.8230  158.0617 C   0  0  0  0  0  0  0  0  0  0  0  0
  153.7516  140.9494  160.3823 N   0  0  0  0  0  0  0  0  0  0  0  0
  155.7589  138.2691  159.8156 H   0  0  0  0  0  0  0  0  0  0  0  0
  154.9619  138.5982  161.3598 H   0  0  0  0  0  0  0  0  0  0  0  0
  156.2390  139.6754  160.7751 H   0  0  0  0  0  0  0  0  0  0  0  0
  151.1713  142.2223  160.1014 H   0  0  0  0  0  0  0  0  0  0  0  0
  152.9768  143.5722  161.0782 H   0  0  0  0  0  0  0  0  0  0  0  0
  153.5136  144.0686  159.4893 H   0  0  0  0  0  0  0  0  0  0  0  0
  150.8143  144.7148  160.7685 H   0  0  0  0  0  0  0  0  0  0  0  0
  152.1084  145.8457  160.4519 H   0  0  0  0  0  0  0  0  0  0  0  0
  150.3021  145.9780  158.7050 H   0  0  0  0  0  0  0  0  0  0  0  0
  151.8427  145.5309  157.9967 H   0  0  0  0  0  0  0  0  0  0  0  0
  149.6703  143.6973  158.7244 H   0  0  0  0  0  0  0  0  0  0  0  0
  152.1791  143.0617  157.3455 H   0  0  0  0  0  0  0  0  0  0  0  0
  150.8650  141.9493  157.6762 H   0  0  0  0  0  0  0  0  0  0  0  0
  150.0924  144.1480  157.2025 H   0  0  0  0  0  0  0  0  0  0  0  0
  1  2  1  0  0  0  0
  1 13  1  0  0  0  0
  1 14  1  0  0  0  0
  1 15  1  0  0  0  0
  2 12  1  0  0  0  0
  2  3  2  0  0  0  0
  3  4  1  0  0  0  0
  4  5  1  0  0  0  0
  5  6  1  0  0  0  0
  5 12  2  0  0  0  0
  6 11  1  0  0  0  0
  6  7  1  0  0  0  0
  6 16  1  0  0  0  0
  7  8  1  0  0  0  0
  7 17  1  0  0  0  0
  7 18  1  0  0  0  0
  8  9  1  0  0  0  0
  8 19  1  0  0  0  0
  8 20  1  0  0  0  0
  9 10  1  0  0  0  0
  9 21  1  0  0  0  0
  9 22  1  0  0  0  0
 10 11  1  0  0  0  0
 10 23  1  0  0  0  0
 10 26  1  0  0  0  0
 11 24  1  0  0  0  0
 11 25  1  0  0  0  0
M  CHG  1  10   1
M  END
> <s_m_source_file>
AV-unprocessed.smi

> <i_m_source_file_index>
2209

> <i_lp_mmshare_version>
43012

> <i_f3d_flags>
0

> <s_epik_input>
W0NIM11jMW5vYyhuMSlbQ0BASF0yW0NIMl1bQ0gyXVtDSDJdW05IXVtDSDJdMg==

> <s_epik_cmdline>
J2VwaWtfcHl0aG9uJywgJy1waCcsICc3LjAnLCAnLXRuJywgJzgnLCAnLW1hJywgJzIwMCcsICctbWV0YWxfYmluZGluZycsICctaW1hZScsICc8aW5maWxlLm1hZT4nLCAnLW9tYWUnLCAnPG91dGZpbGUubWFlPic=

> <r_lp_tautomer_probability>
1

> <r_epik_Ionization_Penalty>
0.000532935

> <r_epik_Ionization_Penalty_Charging>
0.000532935

> <r_epik_Ionization_Penalty_Neutral>
4.97553e-13

> <r_epik_State_Penalty>
0.000332992

> <r_epik_Charging_Adjusted_Penalty>
0.000865928

> <i_epik_Tot_Q>
1

> <i_epik_Tot_abs_Q>
1

> <r_epik_Metal_State_Penalty>
-0

> <b_epik_Metal_Only>
0

> <s_lp_Force_Field>
OPLS_2005

> <r_lp_Energy>
10.4199

> <b_lp_Chiralities_Consistent>
1

> <s_lp_Variant>
AV-unprocessed.smi:2209-2

> <Gold.Version>
5.8.1

> <Gold.Id.Protein>
6NUR|6NUR_protein|mol2

> <Gold.PLP.Fitness>
33.4390

> <Gold.PLP.PLP>
-24.8663

> <Gold.PLP.part.hbond>
-3.2306

> <Gold.PLP.part.metal>
0.0000

> <Gold.PLP.part.buried>
-2.1822

> <Gold.PLP.part.nonpolar>
-18.2099

> <Gold.PLP.part.repulsive>
0.0589

> <Gold.PLP.ligand.clash>
0.0000

> <Gold.PLP.ligand.torsion>
0.2304

> <Gold.PLP.Chemscore.Hbond>
3.0000

> <Gold.PLP.Chemscore.CHOScore>
0.0000

> <Gold.PLP.Chemscore.Metal>
0.0000

> <Gold.Chemscore.Hbonds>
donor molecule, donor type, donor heavy atom, donor atom, acceptor molecule, acceptor atom, score
      L1  H    10    26       P1  8028  2.00
      P1  H  7997  8009       L1     3  0.80

> <Gold.PLP.Chemscore.Internal.Correction>
0.0335

> <Gold.Rescore>
     Score         DG    S(hbond)    S(metal)    S(lipo)     H(rot)  DE(clash)    DE(int)     intcor
     13.11     -13.25       0.95        0.00      61.02       1.00       0.00       0.13       ----

> <Gold.Chemscore.Fitness>
13.1116

> <Gold.Chemscore.DG>
-13.2450

> <Gold.Chemscore.ZeroCoef>
-5.4800

> <Gold.Chemscore.Hbond>
0.9540

> <Gold.Chemscore.Metal>
0.0000

> <Gold.Chemscore.Lipo>
61.0151

> <Gold.Chemscore.Internal_Hbond>
0.0000

> <Gold.Chemscore.DEClash>
0.0000

> <Gold.Chemscore.DEInternal>
0.1334

> <Gold.Chemscore.Rot>
1.0000

> <Gold.Chemscore.Internal.Correction>
   9.000000E+99

> <Gold.Chemscore.Hbonds>
donor molecule, donor type, donor heavy atom, donor atom, acceptor molecule, acceptor atom, score
      L1  H    10    26       P1  8028  0.74
      P1  H  7997  8009       L1     3  0.11

> <Gold.Chemscore.Hbond.Weighted>
-3.1863

> <Gold.Chemscore.Metal.Weighted>
-0.0000

> <Gold.Chemscore.Lipo.Weighted>
-7.1388

> <Gold.Chemscore.Internal_Hbond.Weighted>
0.0000

> <Gold.Chemscore.DEClash.Weighted>
0.0000

> <Gold.Chemscore.DEInternal.Weighted>
0.1334

> <Gold.Chemscore.Rot.Weighted>
2.5600

> <Gold.Chemscore.Internal.Correction.Weighted>
   9.000000E+99

> <Gold.Protein.RotatedTorsions>
[ 6907 6896 6895 6894 ] final   -3.81 input  -60.11 | X-H torsion
[ 7974 7965 7964 7962 ] final   71.35 input  175.53 | X-H torsion
[ 8008 7997 7996 7995 ] final  126.64 input   59.86 | X-H torsion
[ 10167 10162 10161 10158 ] final   56.68 input  -65.29 | X-H torsion
[ 10718 10713 10712 10709 ] final    3.19 input   66.30 | X-H torsion
[ 10763 10752 10751 10750 ] final  -95.63 input  -60.55 | X-H torsion
[ 11005 11000 10999 10996 ] final   44.10 input  -57.11 | X-H torsion

> <Gold.Protein.ActiveResidues>
 VAL166  LYS551  ARG553  GLY616  TRP617  ASP618  TYR619  PRO620  LYS621  CYS622 
 ASP623  PHE694  ASN695  SER759  ASP760  ASP761  ALA762  ILE779  LEU786  VAL792 
 PHE793  MET794  SER795  GLU796  ALA797  LYS798  CYS799  TRP800  GLU811  SER814 

> <Gold.Protein.RotatedAtoms>
  151.5077  135.1064  159.9845 H   0  0  0  0  0  0  0  0  0  0  0  0  # atno 6907 bound_to 6896
  152.4675  133.7951  159.6933 H   0  0  0  0  0  0  0  0  0  0  0  0  # atno 6908 bound_to 6896
  150.8666  133.7503  159.3000 H   0  0  0  0  0  0  0  0  0  0  0  0  # atno 6909 bound_to 6896
  145.7669  139.2825  143.1343 H   0  0  0  0  0  0  0  0  0  0  0  0  # atno 7974 bound_to 7965
  156.2869  140.2688  156.2144 H   0  0  0  0  0  0  0  0  0  0  0  0  # atno 8008 bound_to 7997
  155.0232  140.0386  157.2463 H   0  0  0  0  0  0  0  0  0  0  0  0  # atno 8009 bound_to 7997
  154.7418  140.2726  155.6372 H   0  0  0  0  0  0  0  0  0  0  0  0  # atno 8010 bound_to 7997
  140.2062  144.3937  150.6508 H   0  0  0  0  0  0  0  0  0  0  0  0  # atno 10167 bound_to 10162
  156.8741  130.5630  149.5656 H   0  0  0  0  0  0  0  0  0  0  0  0  # atno 10718 bound_to 10713
  154.7166  135.5113  153.8747 H   0  0  0  0  0  0  0  0  0  0  0  0  # atno 10763 bound_to 10752
  153.0826  135.6636  154.0023 H   0  0  0  0  0  0  0  0  0  0  0  0  # atno 10764 bound_to 10752
  153.9855  135.3025  155.3396 H   0  0  0  0  0  0  0  0  0  0  0  0  # atno 10765 bound_to 10752
  140.1583  134.4374  155.8335 H   0  0  0  0  0  0  0  0  0  0  0  0  # atno 11005 bound_to 11000
  146.0208  140.8349  142.9924 LP  0  0  0  0  0  0  0  0  0  0  0  0  # atno 17320 bound_to 7965
  144.6820  140.2626  143.7317 LP  0  0  0  0  0  0  0  0  0  0  0  0  # atno 17321 bound_to 7965
  140.6356  143.2194  151.6402 LP  0  0  0  0  0  0  0  0  0  0  0  0  # atno 17342 bound_to 10162
  139.5198  144.3243  152.0883 LP  0  0  0  0  0  0  0  0  0  0  0  0  # atno 17343 bound_to 10162
  156.0711  130.5743  150.9385 LP  0  0  0  0  0  0  0  0  0  0  0  0  # atno 17370 bound_to 10713
  157.6178  131.0932  150.8677 LP  0  0  0  0  0  0  0  0  0  0  0  0  # atno 17371 bound_to 10713
  141.2207  133.6902  156.7547 LP  0  0  0  0  0  0  0  0  0  0  0  0  # atno 17394 bound_to 11000
  140.2521  134.8532  157.3677 LP  0  0  0  0  0  0  0  0  0  0  0  0  # atno 17395 bound_to 11000

$$$$
