AV-unprocessed.smi:2471|AV-procd|sdf|9738|dock10
  -GOLD-   2272013383D 1   1.00000     0.00000
 Structure written by MMmdl.
 40 41  0  0  0  0  0  0  0  0  1 V2000
  141.7610  133.8900  152.6052 C   0  0  0  0  0  0  0  0  0  0  0  0
  143.1369  133.8724  151.9729 C   0  0  0  0  0  0  0  0  0  0  0  0
  143.5119  132.8471  151.0829 C   0  0  0  0  0  0  0  0  0  0  0  0
  144.8031  132.8916  150.5272 C   0  0  0  0  0  0  0  0  0  0  0  0
  145.6595  133.9524  150.8809 C   0  0  0  0  0  0  0  0  0  0  0  0
  145.2043  134.9432  151.7797 C   0  0  0  0  0  0  0  0  0  0  0  0
  146.1403  135.9728  152.0664 N   0  0  0  0  0  0  0  0  0  0  0  0
  145.9029  137.1882  152.5912 C   0  0  0  0  0  0  0  0  0  0  0  0
  144.8017  137.6071  152.9499 O   0  0  0  0  0  0  0  0  0  0  0  0
  147.0304  137.9082  152.6818 N   0  0  0  0  0  0  0  0  0  0  0  0
  147.1127  139.2699  153.2022 C   0  0  0  0  0  0  0  0  0  0  0  0
  148.1990  139.4245  154.2909 C   0  0  1  0  0  0  0  0  0  0  0  0
  149.3969  138.4694  154.0860 C   0  0  0  0  0  0  0  0  0  0  0  0
  150.4373  138.6172  155.2077 C   0  0  0  0  0  0  0  0  0  0  0  0
  150.9202  140.0692  155.3377 C   0  0  0  0  0  0  0  0  0  0  0  0
  149.7393  141.0336  155.5424 C   0  0  0  0  0  0  0  0  0  0  0  0
  148.6745  140.8907  154.4373 C   0  0  1  0  0  0  0  0  0  0  0  0
  149.1989  141.3842  153.2185 O   0  0  0  0  0  0  0  0  0  0  0  0
  143.9574  134.8905  152.3110 N   0  0  0  0  0  0  0  0  0  0  0  0
  141.2581  132.9307  152.4806 H   0  0  0  0  0  0  0  0  0  0  0  0
  141.1449  134.6620  152.1439 H   0  0  0  0  0  0  0  0  0  0  0  0
  141.8317  134.0990  153.6733 H   0  0  0  0  0  0  0  0  0  0  0  0
  142.8304  132.0481  150.8304 H   0  0  0  0  0  0  0  0  0  0  0  0
  145.1316  132.1262  149.8397 H   0  0  0  0  0  0  0  0  0  0  0  0
  146.6538  134.0019  150.4613 H   0  0  0  0  0  0  0  0  0  0  0  0
  147.0987  135.7662  151.8278 H   0  0  0  0  0  0  0  0  0  0  0  0
  147.8930  137.4882  152.3674 H   0  0  0  0  0  0  0  0  0  0  0  0
  147.3230  139.9335  152.3632 H   0  0  0  0  0  0  0  0  0  0  0  0
  146.1389  139.5709  153.5926 H   0  0  0  0  0  0  0  0  0  0  0  0
  147.7378  139.1557  155.2428 H   0  0  0  0  0  0  0  0  0  0  0  0
  149.0562  137.4342  154.0545 H   0  0  0  0  0  0  0  0  0  0  0  0
  149.8677  138.6660  153.1219 H   0  0  0  0  0  0  0  0  0  0  0  0
  150.0026  138.2910  156.1533 H   0  0  0  0  0  0  0  0  0  0  0  0
  151.2861  137.9604  155.0151 H   0  0  0  0  0  0  0  0  0  0  0  0
  151.6174  140.1551  156.1714 H   0  0  0  0  0  0  0  0  0  0  0  0
  151.4761  140.3512  154.4427 H   0  0  0  0  0  0  0  0  0  0  0  0
  149.2781  140.8279  156.5092 H   0  0  0  0  0  0  0  0  0  0  0  0
  150.0994  142.0619  155.5916 H   0  0  0  0  0  0  0  0  0  0  0  0
  147.8206  141.5185  154.6944 H   0  0  0  0  0  0  0  0  0  0  0  0
  149.1777  140.6883  152.5797 H   0  0  0  0  0  0  0  0  0  0  0  0
  1  2  1  0  0  0  0
  1 20  1  0  0  0  0
  1 21  1  0  0  0  0
  1 22  1  0  0  0  0
  2 19  1  0  0  0  0
  2  3  2  0  0  0  0
  3  4  1  0  0  0  0
  3 23  1  0  0  0  0
  4  5  2  0  0  0  0
  4 24  1  0  0  0  0
  5  6  1  0  0  0  0
  5 25  1  0  0  0  0
  6  7  1  0  0  0  0
  6 19  2  0  0  0  0
  7  8  1  0  0  0  0
  7 26  1  0  0  0  0
  8  9  2  0  0  0  0
  8 10  1  0  0  0  0
 10 11  1  0  0  0  0
 10 27  1  0  0  0  0
 11 12  1  0  0  0  0
 11 28  1  0  0  0  0
 11 29  1  0  0  0  0
 12 17  1  0  0  0  0
 12 13  1  0  0  0  0
 12 30  1  0  0  0  0
 13 14  1  0  0  0  0
 13 31  1  0  0  0  0
 13 32  1  0  0  0  0
 14 15  1  0  0  0  0
 14 33  1  0  0  0  0
 14 34  1  0  0  0  0
 15 16  1  0  0  0  0
 15 35  1  0  0  0  0
 15 36  1  0  0  0  0
 16 17  1  0  0  0  0
 16 37  1  0  0  0  0
 16 38  1  0  0  0  0
 17 18  1  0  0  0  0
 17 39  1  0  0  0  0
 18 40  1  0  0  0  0
M  END
> <s_m_source_file>
AV-unprocessed.smi

> <i_m_source_file_index>
2471

> <i_lp_mmshare_version>
43012

> <i_f3d_flags>
0

> <s_epik_input>
W0NIM11jMVtjSF1bY0hdW2NIXWMobjEpW05IXUMoPU8pW05IXVtDSDJdW0NAQEhdMltDSDJdW0NIMl1bQ0gyXVtDSDJdW0NASF0yW09IXQ==

> <s_epik_cmdline>
J2VwaWtfcHl0aG9uJywgJy1waCcsICc3LjAnLCAnLXRuJywgJzgnLCAnLW1hJywgJzIwMCcsICctbWV0YWxfYmluZGluZycsICctaW1hZScsICc8aW5maWxlLm1hZT4nLCAnLW9tYWUnLCAnPG91dGZpbGUubWFlPic=

> <r_lp_tautomer_probability>
1

> <r_epik_Ionization_Penalty>
8.52237e-05

> <r_epik_Ionization_Penalty_Charging>
0

> <r_epik_Ionization_Penalty_Neutral>
8.52237e-05

> <r_epik_State_Penalty>
-0

> <r_epik_Charging_Adjusted_Penalty>
0

> <i_epik_Tot_Q>
0

> <i_epik_Tot_abs_Q>
0

> <r_epik_Metal_State_Penalty>
-0

> <b_epik_Metal_Only>
0

> <s_lp_Force_Field>
OPLS_2005

> <r_lp_Energy>
16.6086

> <b_lp_Chiralities_Consistent>
1

> <s_lp_Variant>
AV-unprocessed.smi:2471-2

> <Gold.Version>
5.8.1

> <Gold.Id.Protein>
6NUR|6NUR_protein|mol2

> <Gold.PLP.Fitness>
44.9491

> <Gold.PLP.PLP>
-34.4199

> <Gold.PLP.part.hbond>
-4.3871

> <Gold.PLP.part.metal>
0.0000

> <Gold.PLP.part.buried>
-0.8013

> <Gold.PLP.part.nonpolar>
-28.9701

> <Gold.PLP.part.repulsive>
0.6403

> <Gold.PLP.ligand.clash>
0.0000

> <Gold.PLP.ligand.torsion>
0.4039

> <Gold.PLP.Chemscore.Hbond>
3.7751

> <Gold.PLP.Chemscore.CHOScore>
0.0000

> <Gold.PLP.Chemscore.Metal>
0.0000

> <Gold.Chemscore.Hbonds>
donor molecule, donor type, donor heavy atom, donor atom, acceptor molecule, acceptor atom, score
      L1  H     7    26       P1  7948  1.00
      L1  H    10    27       P1  7948  1.00
      L1  H    18    40       P1  7957  1.00
      P1  H  8011  8017       L1    18  0.70

> <Gold.PLP.Chemscore.Internal.Correction>
0.0115

> <Gold.Rescore>
     Score         DG    S(hbond)    S(metal)    S(lipo)     H(rot)  DE(clash)    DE(int)     intcor
     19.06     -20.85       3.09        0.00      81.19       1.73       0.15       1.64       ----

> <Gold.Chemscore.Fitness>
19.0558

> <Gold.Chemscore.DG>
-20.8469

> <Gold.Chemscore.ZeroCoef>
-5.4800

> <Gold.Chemscore.Hbond>
3.0858

> <Gold.Chemscore.Metal>
0.0000

> <Gold.Chemscore.Lipo>
81.1889

> <Gold.Chemscore.Internal_Hbond>
0.0000

> <Gold.Chemscore.DEClash>
0.1531

> <Gold.Chemscore.DEInternal>
1.6379

> <Gold.Chemscore.Rot>
1.7339

> <Gold.Chemscore.Internal.Correction>
   9.000000E+99

> <Gold.Chemscore.Hbonds>
donor molecule, donor type, donor heavy atom, donor atom, acceptor molecule, acceptor atom, score
      L1  H     7    26       P1  7948  0.96
      L1  H    10    27       P1  7948  0.99
      L1  H    18    40       P1  7957  0.94
      P1  H  8011  8017       L1    18  0.10

> <Gold.Chemscore.Hbond.Weighted>
-10.3064

> <Gold.Chemscore.Metal.Weighted>
-0.0000

> <Gold.Chemscore.Lipo.Weighted>
-9.4991

> <Gold.Chemscore.Internal_Hbond.Weighted>
0.0000

> <Gold.Chemscore.DEClash.Weighted>
0.1531

> <Gold.Chemscore.DEInternal.Weighted>
1.6379

> <Gold.Chemscore.Rot.Weighted>
4.4387

> <Gold.Chemscore.Internal.Correction.Weighted>
   9.000000E+99

> <Gold.Protein.RotatedTorsions>
[ 6907 6896 6895 6894 ] final   99.63 input  -60.11 | X-H torsion
[ 7974 7965 7964 7962 ] final  -41.74 input  175.53 | X-H torsion
[ 8008 7997 7996 7995 ] final    7.01 input   59.86 | X-H torsion
[ 10167 10162 10161 10158 ] final  -20.18 input  -65.29 | X-H torsion
[ 10718 10713 10712 10709 ] final   11.12 input   66.30 | X-H torsion
[ 10763 10752 10751 10750 ] final  100.69 input  -60.55 | X-H torsion
[ 11005 11000 10999 10996 ] final   73.02 input  -57.11 | X-H torsion

> <Gold.Protein.ActiveResidues>
 VAL166  LYS551  ARG553  GLY616  TRP617  ASP618  TYR619  PRO620  LYS621  CYS622 
 ASP623  PHE694  ASN695  SER759  ASP760  ASP761  ALA762  ILE779  LEU786  VAL792 
 PHE793  MET794  SER795  GLU796  ALA797  LYS798  CYS799  TRP800  GLU811  SER814 

> <Gold.Protein.RotatedAtoms>
  152.5388  134.0400  159.8062 H   0  0  0  0  0  0  0  0  0  0  0  0  # atno 6907 bound_to 6896
  151.0557  133.5579  159.2645 H   0  0  0  0  0  0  0  0  0  0  0  0  # atno 6908 bound_to 6896
  151.2496  135.0625  159.9110 H   0  0  0  0  0  0  0  0  0  0  0  0  # atno 6909 bound_to 6896
  146.0182  140.6882  142.9191 H   0  0  0  0  0  0  0  0  0  0  0  0  # atno 7974 bound_to 7965
  154.7484  140.2762  155.6313 H   0  0  0  0  0  0  0  0  0  0  0  0  # atno 8008 bound_to 7997
  156.2890  140.2683  156.2157 H   0  0  0  0  0  0  0  0  0  0  0  0  # atno 8009 bound_to 7997
  155.0168  140.0372  157.2411 H   0  0  0  0  0  0  0  0  0  0  0  0  # atno 8010 bound_to 7997
  140.7274  143.4747  151.0199 H   0  0  0  0  0  0  0  0  0  0  0  0  # atno 10167 bound_to 10162
  156.9909  130.6042  149.5686 H   0  0  0  0  0  0  0  0  0  0  0  0  # atno 10718 bound_to 10713
  153.3172  135.4070  155.1386 H   0  0  0  0  0  0  0  0  0  0  0  0  # atno 10763 bound_to 10752
  154.8591  135.3579  154.5645 H   0  0  0  0  0  0  0  0  0  0  0  0  # atno 10764 bound_to 10752
  153.6076  135.7069  153.5418 H   0  0  0  0  0  0  0  0  0  0  0  0  # atno 10765 bound_to 10752
  139.9461  134.7311  156.0976 H   0  0  0  0  0  0  0  0  0  0  0  0  # atno 11005 bound_to 11000
  144.6979  140.3519  143.7180 LP  0  0  0  0  0  0  0  0  0  0  0  0  # atno 17320 bound_to 7965
  145.7235  139.1716  143.2471 LP  0  0  0  0  0  0  0  0  0  0  0  0  # atno 17321 bound_to 7965
  139.8441  143.7524  152.3179 LP  0  0  0  0  0  0  0  0  0  0  0  0  # atno 17342 bound_to 10162
  139.7684  144.7484  151.0261 LP  0  0  0  0  0  0  0  0  0  0  0  0  # atno 17343 bound_to 10162
  156.0207  130.5302  150.8268 LP  0  0  0  0  0  0  0  0  0  0  0  0  # atno 17370 bound_to 10713
  157.5459  131.0942  150.9763 LP  0  0  0  0  0  0  0  0  0  0  0  0  # atno 17371 bound_to 10713
  141.1111  133.6643  156.2982 LP  0  0  0  0  0  0  0  0  0  0  0  0  # atno 17394 bound_to 11000
  140.5832  134.5725  157.5484 LP  0  0  0  0  0  0  0  0  0  0  0  0  # atno 17395 bound_to 11000

$$$$
