AV-unprocessed.smi:1261|AV-procd|sdf|5308|dock5
  -GOLD-   22720 4433D 1   1.00000     0.00000
 Structure written by MMmdl.
 50 51  0  0  0  0  0  0  0  0  2 V2000
  145.4589  131.6417  150.9659 C   0  0  0  0  0  0  0  0  0  0  0  0
  145.9348  133.0395  151.3866 C   0  0  1  0  0  0  0  0  0  0  0  0
  144.7451  133.9649  151.6996 C   0  0  0  0  0  0  0  0  0  0  0  0
  145.2130  135.3490  152.1860 C   0  0  2  0  0  0  0  0  0  0  0  0
  145.7793  136.2227  151.0523 C   0  0  0  0  0  0  0  0  0  0  0  0
  146.2029  135.2020  153.3586 C   0  0  0  0  0  0  0  0  0  0  0  0
  147.3476  134.3231  153.0038 N   0  3  1  0  0  0  0  0  0  0  0  0
  148.3852  134.2939  154.0658 C   0  0  0  0  0  0  0  0  0  0  0  0
  147.7840  134.4408  155.4734 C   0  0  0  0  0  0  0  0  0  0  0  0
  148.8327  134.8575  156.5174 C   0  0  0  0  0  0  0  0  0  0  0  0
  148.2200  135.5873  157.6197 N   0  0  0  0  0  0  0  0  0  0  0  0
  148.8888  136.1850  158.6210 C   0  0  0  0  0  0  0  0  0  0  0  0
  150.1154  136.1512  158.7130 O   0  0  0  0  0  0  0  0  0  0  0  0
  148.0805  136.9517  159.6826 C   0  0  0  0  0  0  0  0  0  0  0  0
  147.4103  136.1078  160.6858 N   0  0  0  0  0  0  0  0  0  0  0  0
  147.4507  134.7509  160.4026 N   0  0  0  0  0  0  0  0  0  0  0  0
  146.9010  133.9069  161.2090 C   0  0  0  0  0  0  0  0  0  0  0  0
  146.9613  132.5728  160.8885 O   0  0  0  0  0  0  0  0  0  0  0  0
  146.2383  134.3484  162.4168 C   0  0  0  0  0  0  0  0  0  0  0  0
  146.2016  135.6725  162.6828 C   0  0  0  0  0  0  0  0  0  0  0  0
  146.8093  136.6572  161.7860 C   0  0  0  0  0  0  0  0  0  0  0  0
  146.7751  137.8698  161.9940 O   0  0  0  0  0  0  0  0  0  0  0  0
  146.8894  132.9687  152.5942 C   0  0  0  0  0  0  0  0  0  0  0  0
  146.1064  132.2255  161.0915 H   0  0  0  0  0  0  0  0  0  0  0  0
  144.8963  131.1563  151.7640 H   0  0  0  0  0  0  0  0  0  0  0  0
  146.3026  130.9983  150.7149 H   0  0  0  0  0  0  0  0  0  0  0  0
  144.8135  131.6941  150.0884 H   0  0  0  0  0  0  0  0  0  0  0  0
  146.4858  133.4589  150.5440 H   0  0  0  0  0  0  0  0  0  0  0  0
  144.1037  134.0698  150.8236 H   0  0  0  0  0  0  0  0  0  0  0  0
  144.1282  133.5069  152.4743 H   0  0  0  0  0  0  0  0  0  0  0  0
  144.3339  135.8724  152.5643 H   0  0  0  0  0  0  0  0  0  0  0  0
  146.6917  135.8031  150.6292 H   0  0  0  0  0  0  0  0  0  0  0  0
  146.0158  137.2240  151.4130 H   0  0  0  0  0  0  0  0  0  0  0  0
  145.0574  136.3307  150.2422 H   0  0  0  0  0  0  0  0  0  0  0  0
  146.5642  136.1884  153.6530 H   0  0  0  0  0  0  0  0  0  0  0  0
  145.6912  134.7854  154.2280 H   0  0  0  0  0  0  0  0  0  0  0  0
  148.9130  133.3398  154.0272 H   0  0  0  0  0  0  0  0  0  0  0  0
  149.1329  135.0662  153.8785 H   0  0  0  0  0  0  0  0  0  0  0  0
  146.9810  135.1771  155.4640 H   0  0  0  0  0  0  0  0  0  0  0  0
  147.3314  133.4951  155.7749 H   0  0  0  0  0  0  0  0  0  0  0  0
  149.3221  133.9741  156.9284 H   0  0  0  0  0  0  0  0  0  0  0  0
  149.6161  135.4613  156.0561 H   0  0  0  0  0  0  0  0  0  0  0  0
  147.2124  135.6574  157.6188 H   0  0  0  0  0  0  0  0  0  0  0  0
  148.7594  137.6476  160.1789 H   0  0  0  0  0  0  0  0  0  0  0  0
  147.3475  137.5813  159.1751 H   0  0  0  0  0  0  0  0  0  0  0  0
  145.7865  133.6299  163.0850 H   0  0  0  0  0  0  0  0  0  0  0  0
  145.7108  136.0157  163.5817 H   0  0  0  0  0  0  0  0  0  0  0  0
  146.3975  132.4816  153.4380 H   0  0  0  0  0  0  0  0  0  0  0  0
  147.7446  132.3477  152.3298 H   0  0  0  0  0  0  0  0  0  0  0  0
  147.7811  134.7448  152.1947 H   0  0  0  0  0  0  0  0  0  0  0  0
  1  2  1  0  0  0  0
  1 25  1  0  0  0  0
  1 26  1  0  0  0  0
  1 27  1  0  0  0  0
  2 23  1  0  0  0  0
  2  3  1  0  0  0  0
  2 28  1  0  0  0  0
  3  4  1  0  0  0  0
  3 29  1  0  0  0  0
  3 30  1  0  0  0  0
  4  5  1  0  0  0  0
  4  6  1  0  0  0  0
  4 31  1  0  0  0  0
  5 32  1  0  0  0  0
  5 33  1  0  0  0  0
  5 34  1  0  0  0  0
  6  7  1  0  0  0  0
  6 35  1  0  0  0  0
  6 36  1  0  0  0  0
  7  8  1  0  0  0  0
  7 23  1  0  0  0  0
  7 50  1  0  0  0  0
  8  9  1  0  0  0  0
  8 37  1  0  0  0  0
  8 38  1  0  0  0  0
  9 10  1  0  0  0  0
  9 39  1  0  0  0  0
  9 40  1  0  0  0  0
 10 11  1  0  0  0  0
 10 41  1  0  0  0  0
 10 42  1  0  0  0  0
 11 12  1  0  0  0  0
 11 43  1  0  0  0  0
 12 13  2  0  0  0  0
 12 14  1  0  0  0  0
 14 44  1  0  0  0  0
 14 45  1  0  0  0  0
 14 15  1  0  0  0  0
 15 16  1  0  0  0  0
 15 21  1  0  0  0  0
 16 17  2  0  0  0  0
 17 18  1  0  0  0  0
 17 19  1  0  0  0  0
 18 24  1  0  0  0  0
 19 46  1  0  0  0  0
 19 20  2  0  0  0  0
 20 47  1  0  0  0  0
 20 21  1  0  0  0  0
 21 22  2  0  0  0  0
 23 48  1  0  0  0  0
 23 49  1  0  0  0  0
M  CHG  1   7   1
M  END
> <s_m_source_file>
AV-unprocessed.smi

> <i_m_source_file_index>
1261

> <i_lp_mmshare_version>
43012

> <i_f3d_flags>
0

> <s_epik_input>
W0NIM11bQ0BASF0xW0NIMl1bQ0BASF0oW0NIM10pW0NIMl1OKFtDSDJdMSlbQ0gyXVtDSDJdW0NIMl1bTkhdQyg9TylbQ0gyXW4yW25IXWMoPU8pW2NIXVtjSF1jMj1P

> <s_epik_cmdline>
J2VwaWtfcHl0aG9uJywgJy1waCcsICc3LjAnLCAnLXRuJywgJzgnLCAnLW1hJywgJzIwMCcsICctbWV0YWxfYmluZGluZycsICctaW1hZScsICc8aW5maWxlLm1hZT4nLCAnLW9tYWUnLCAnPG91dGZpbGUubWFlPic=

> <r_lp_tautomer_probability>
0.9996

> <r_epik_Ionization_Penalty>
2.1425

> <r_epik_Ionization_Penalty_Charging>
0.000312112

> <r_epik_Ionization_Penalty_Neutral>
2.14218

> <r_epik_State_Penalty>
1.71978

> <r_epik_Charging_Adjusted_Penalty>
1.72009

> <i_epik_Tot_Q>
1

> <i_epik_Tot_abs_Q>
1

> <r_epik_Metal_State_Penalty>
1.71978

> <b_epik_Metal_Only>
0

> <s_lp_Force_Field>
OPLS_2005

> <r_lp_Energy>
29.1446

> <b_lp_Chiralities_Consistent>
1

> <s_lp_Variant>
AV-unprocessed.smi:1261-8

> <Gold.Version>
5.8.1

> <Gold.Id.Protein>
6NUR|6NUR_protein|mol2

> <Gold.PLP.Fitness>
48.1711

> <Gold.PLP.PLP>
-38.8768

> <Gold.PLP.part.hbond>
-4.0000

> <Gold.PLP.part.metal>
0.0000

> <Gold.PLP.part.buried>
-3.4783

> <Gold.PLP.part.nonpolar>
-31.4430

> <Gold.PLP.part.repulsive>
0.0521

> <Gold.PLP.ligand.clash>
0.0705

> <Gold.PLP.ligand.torsion>
0.9561

> <Gold.PLP.Chemscore.Hbond>
3.7440

> <Gold.PLP.Chemscore.CHOScore>
0.0000

> <Gold.PLP.Chemscore.Metal>
0.0000

> <Gold.Chemscore.Hbonds>
donor molecule, donor type, donor heavy atom, donor atom, acceptor molecule, acceptor atom, score
      L1  H     7    50       P1  7948  1.50
      P1  H  6896  6909       L1    13  1.00
      P1  H  6931  6943       L1    22  0.17
      P1  H  6934  6947       L1    22  0.66

> <Gold.PLP.Chemscore.Internal.Correction>
0.0449

> <Gold.Rescore>
     Score         DG    S(hbond)    S(metal)    S(lipo)     H(rot)  DE(clash)    DE(int)     intcor
     13.27     -14.73       2.69        0.00      70.95       3.14       0.23       1.24       ----

> <Gold.Chemscore.Fitness>
13.2688

> <Gold.Chemscore.DG>
-14.7345

> <Gold.Chemscore.ZeroCoef>
-5.4800

> <Gold.Chemscore.Hbond>
2.6884

> <Gold.Chemscore.Metal>
0.0000

> <Gold.Chemscore.Lipo>
70.9515

> <Gold.Chemscore.Internal_Hbond>
0.0000

> <Gold.Chemscore.DEClash>
0.2289

> <Gold.Chemscore.DEInternal>
1.2369

> <Gold.Chemscore.Rot>
3.1352

> <Gold.Chemscore.Internal.Correction>
   9.000000E+99

> <Gold.Chemscore.Hbonds>
donor molecule, donor type, donor heavy atom, donor atom, acceptor molecule, acceptor atom, score
      L1  H     7    50       P1  7948  0.49
      P1  H  6896  6909       L1    13  0.97
      P1  H  6931  6943       L1    22  0.04
      P1  H  6934  6947       L1    22  0.65

> <Gold.Chemscore.Hbond.Weighted>
-8.9792

> <Gold.Chemscore.Metal.Weighted>
-0.0000

> <Gold.Chemscore.Lipo.Weighted>
-8.3013

> <Gold.Chemscore.Internal_Hbond.Weighted>
0.0000

> <Gold.Chemscore.DEClash.Weighted>
0.2289

> <Gold.Chemscore.DEInternal.Weighted>
1.2369

> <Gold.Chemscore.Rot.Weighted>
8.0260

> <Gold.Chemscore.Internal.Correction.Weighted>
   9.000000E+99

> <Gold.Protein.RotatedTorsions>
[ 6907 6896 6895 6894 ] final   74.86 input  -60.11 | X-H torsion
[ 7974 7965 7964 7962 ] final   73.46 input  175.53 | X-H torsion
[ 8008 7997 7996 7995 ] final  168.18 input   59.86 | X-H torsion
[ 10167 10162 10161 10158 ] final   75.58 input  -65.29 | X-H torsion
[ 10718 10713 10712 10709 ] final  113.49 input   66.30 | X-H torsion
[ 10763 10752 10751 10750 ] final  -81.43 input  -60.55 | X-H torsion
[ 11005 11000 10999 10996 ] final  -77.18 input  -57.11 | X-H torsion

> <Gold.Protein.ActiveResidues>
 VAL166  LYS551  ARG553  GLY616  TRP617  ASP618  TYR619  PRO620  LYS621  CYS622 
 ASP623  PHE694  ASN695  SER759  ASP760  ASP761  ALA762  ILE779  LEU786  VAL792 
 PHE793  MET794  SER795  GLU796  ALA797  LYS798  CYS799  TRP800  GLU811  SER814 

> <Gold.Protein.RotatedAtoms>
  152.4997  134.4207  159.9479 H   0  0  0  0  0  0  0  0  0  0  0  0  # atno 6907 bound_to 6896
  151.4180  133.3701  159.2760 H   0  0  0  0  0  0  0  0  0  0  0  0  # atno 6908 bound_to 6896
  150.9243  134.8682  159.7569 H   0  0  0  0  0  0  0  0  0  0  0  0  # atno 6909 bound_to 6896
  145.7405  139.2719  143.1489 H   0  0  0  0  0  0  0  0  0  0  0  0  # atno 7974 bound_to 7965
  156.1570  140.1597  156.8676 H   0  0  0  0  0  0  0  0  0  0  0  0  # atno 8008 bound_to 7997
  154.5124  140.0798  156.8051 H   0  0  0  0  0  0  0  0  0  0  0  0  # atno 8009 bound_to 7997
  155.3784  140.3404  155.4248 H   0  0  0  0  0  0  0  0  0  0  0  0  # atno 8010 bound_to 7997
  140.0015  144.5683  150.7733 H   0  0  0  0  0  0  0  0  0  0  0  0  # atno 10167 bound_to 10162
  157.6335  131.0984  150.7049 H   0  0  0  0  0  0  0  0  0  0  0  0  # atno 10718 bound_to 10713
  154.5635  135.5626  153.7028 H   0  0  0  0  0  0  0  0  0  0  0  0  # atno 10763 bound_to 10752
  153.0025  135.6279  154.2213 H   0  0  0  0  0  0  0  0  0  0  0  0  # atno 10764 bound_to 10752
  154.2151  135.2872  155.2924 H   0  0  0  0  0  0  0  0  0  0  0  0  # atno 10765 bound_to 10752
  141.1659  133.7012  156.7781 H   0  0  0  0  0  0  0  0  0  0  0  0  # atno 11005 bound_to 11000
  146.0452  140.8125  142.9809 LP  0  0  0  0  0  0  0  0  0  0  0  0  # atno 17320 bound_to 7965
  144.6871  140.2969  143.7269 LP  0  0  0  0  0  0  0  0  0  0  0  0  # atno 17321 bound_to 7965
  140.7417  143.2822  151.3567 LP  0  0  0  0  0  0  0  0  0  0  0  0  # atno 17342 bound_to 10162
  139.6268  144.0797  152.2442 LP  0  0  0  0  0  0  0  0  0  0  0  0  # atno 17343 bound_to 10162
  156.7384  130.4731  149.5483 LP  0  0  0  0  0  0  0  0  0  0  0  0  # atno 17370 bound_to 10713
  156.1556  130.6339  151.0652 LP  0  0  0  0  0  0  0  0  0  0  0  0  # atno 17371 bound_to 10713
  140.2415  134.8610  157.3578 LP  0  0  0  0  0  0  0  0  0  0  0  0  # atno 17394 bound_to 11000
  140.1791  134.4512  155.7783 LP  0  0  0  0  0  0  0  0  0  0  0  0  # atno 17395 bound_to 11000

$$$$
