AV-unprocessed.smi:1914|AV-procd|sdf|7757|dock5
  -GOLD-   22720 9493D 1   1.00000     0.00000
 Structure written by MMmdl.
 44 45  0  0  0  0  0  0  0  0  2 V2000
  145.9385  135.1652  150.6217 C   0  0  0  0  0  0  0  0  0  0  0  0
  145.2313  134.3586  151.7257 C   0  0  1  0  0  0  0  0  0  0  0  0
  145.4970  132.8454  151.6224 C   0  0  0  0  0  0  0  0  0  0  0  0
  146.9220  132.4987  152.0755 C   0  0  0  0  0  0  0  0  0  0  0  0
  147.2088  133.0630  153.4757 C   0  0  0  0  0  0  0  0  0  0  0  0
  146.9763  134.5298  153.5226 N   0  3  2  0  0  0  0  0  0  0  0  0
  147.3872  135.1175  154.8223 C   0  0  0  0  0  0  0  0  0  0  0  0
  148.8712  134.8570  155.1491 C   0  0  0  0  0  0  0  0  0  0  0  0
  149.7401  135.8009  154.4572 N   0  0  0  0  0  0  0  0  0  0  0  0
  150.6644  136.5700  155.0524 C   0  0  0  0  0  0  0  0  0  0  0  0
  150.8518  136.5752  156.2698 O   0  0  0  0  0  0  0  0  0  0  0  0
  151.4897  137.4768  154.1297 C   0  0  0  0  0  0  0  0  0  0  0  0
  151.1622  138.9033  154.2890 N   0  0  0  0  0  0  0  0  0  0  0  0
  150.3382  139.4886  153.3071 C   0  0  0  0  0  0  0  0  0  0  0  0
  149.9780  140.7806  153.3611 C   0  0  0  0  0  0  0  0  0  0  0  0
  150.4590  141.5783  154.4643 C   0  0  0  0  0  0  0  0  0  0  0  0
  151.2444  141.0276  155.4111 C   0  0  0  0  0  0  0  0  0  0  0  0
  151.6374  139.6147  155.3581 C   0  0  0  0  0  0  0  0  0  0  0  0
  152.3479  139.1005  156.2230 O   0  0  0  0  0  0  0  0  0  0  0  0
  145.5794  134.8728  153.1381 C   0  0  0  0  0  0  0  0  0  0  0  0
  147.0238  135.0995  150.6993 H   0  0  0  0  0  0  0  0  0  0  0  0
  145.6688  136.2203  150.6750 H   0  0  0  0  0  0  0  0  0  0  0  0
  145.6551  134.8062  149.6318 H   0  0  0  0  0  0  0  0  0  0  0  0
  144.1611  134.5101  151.5776 H   0  0  0  0  0  0  0  0  0  0  0  0
  144.7842  132.3127  152.2535 H   0  0  0  0  0  0  0  0  0  0  0  0
  145.3255  132.4932  150.6045 H   0  0  0  0  0  0  0  0  0  0  0  0
  147.0558  131.4167  152.0779 H   0  0  0  0  0  0  0  0  0  0  0  0
  147.6471  132.8936  151.3632 H   0  0  0  0  0  0  0  0  0  0  0  0
  146.5788  132.5701  154.2181 H   0  0  0  0  0  0  0  0  0  0  0  0
  148.2433  132.8425  153.7412 H   0  0  0  0  0  0  0  0  0  0  0  0
  147.1626  136.1853  154.8235 H   0  0  0  0  0  0  0  0  0  0  0  0
  146.7878  134.6776  155.6209 H   0  0  0  0  0  0  0  0  0  0  0  0
  149.0405  134.9639  156.2210 H   0  0  0  0  0  0  0  0  0  0  0  0
  149.1713  133.8423  154.8864 H   0  0  0  0  0  0  0  0  0  0  0  0
  149.6442  135.8639  153.4535 H   0  0  0  0  0  0  0  0  0  0  0  0
  152.5548  137.3183  154.3113 H   0  0  0  0  0  0  0  0  0  0  0  0
  151.3231  137.1543  153.1012 H   0  0  0  0  0  0  0  0  0  0  0  0
  150.0150  138.8235  152.5196 H   0  0  0  0  0  0  0  0  0  0  0  0
  149.3423  141.2116  152.6018 H   0  0  0  0  0  0  0  0  0  0  0  0
  150.1864  142.6211  154.5317 H   0  0  0  0  0  0  0  0  0  0  0  0
  151.5938  141.6400  156.2293 H   0  0  0  0  0  0  0  0  0  0  0  0
  145.4207  135.9498  153.1747 H   0  0  0  0  0  0  0  0  0  0  0  0
  144.8944  134.4369  153.8674 H   0  0  0  0  0  0  0  0  0  0  0  0
  147.5825  134.9324  152.8224 H   0  0  0  0  0  0  0  0  0  0  0  0
  1  2  1  0  0  0  0
  1 21  1  0  0  0  0
  1 22  1  0  0  0  0
  1 23  1  0  0  0  0
  2 20  1  0  0  0  0
  2  3  1  0  0  0  0
  2 24  1  0  0  0  0
  3  4  1  0  0  0  0
  3 25  1  0  0  0  0
  3 26  1  0  0  0  0
  4  5  1  0  0  0  0
  4 27  1  0  0  0  0
  4 28  1  0  0  0  0
  5  6  1  0  0  0  0
  5 29  1  0  0  0  0
  5 30  1  0  0  0  0
  6  7  1  0  0  0  0
  6 20  1  0  0  0  0
  6 44  1  0  0  0  0
  7  8  1  0  0  0  0
  7 31  1  0  0  0  0
  7 32  1  0  0  0  0
  8  9  1  0  0  0  0
  8 33  1  0  0  0  0
  8 34  1  0  0  0  0
  9 10  1  0  0  0  0
  9 35  1  0  0  0  0
 10 11  2  0  0  0  0
 10 12  1  0  0  0  0
 12 13  1  0  0  0  0
 12 36  1  0  0  0  0
 12 37  1  0  0  0  0
 13 18  1  0  0  0  0
 13 14  1  0  0  0  0
 14 15  2  0  0  0  0
 14 38  1  0  0  0  0
 15 16  1  0  0  0  0
 15 39  1  0  0  0  0
 16 17  2  0  0  0  0
 16 40  1  0  0  0  0
 17 18  1  0  0  0  0
 17 41  1  0  0  0  0
 18 19  2  0  0  0  0
 20 42  1  0  0  0  0
 20 43  1  0  0  0  0
M  CHG  1   6   1
M  END
> <s_m_source_file>
AV-unprocessed.smi

> <i_m_source_file_index>
1914

> <i_lp_mmshare_version>
43012

> <i_f3d_flags>
0

> <s_epik_input>
W0NIM11bQ0BASF0xW0NIMl1bQ0gyXVtDSDJdTihbQ0gyXTEpW0NIMl1bQ0gyXVtOSF1DKD1PKVtDSDJdbjJbY0hdW2NIXVtjSF1bY0hdYzI9Tw==

> <s_epik_cmdline>
J2VwaWtfcHl0aG9uJywgJy1waCcsICc3LjAnLCAnLXRuJywgJzgnLCAnLW1hJywgJzIwMCcsICctbWV0YWxfYmluZGluZycsICctaW1hZScsICc8aW5maWxlLm1hZT4nLCAnLW9tYWUnLCAnPG91dGZpbGUubWFlPic=

> <r_lp_tautomer_probability>
1

> <r_epik_Ionization_Penalty>
0.00192477

> <r_epik_Ionization_Penalty_Charging>
0.00192469

> <r_epik_Ionization_Penalty_Neutral>
8.16761e-08

> <r_epik_State_Penalty>
0.00131115

> <r_epik_Charging_Adjusted_Penalty>
0.00323584

> <i_epik_Tot_Q>
1

> <i_epik_Tot_abs_Q>
1

> <r_epik_Metal_State_Penalty>
-0

> <b_epik_Metal_Only>
0

> <s_lp_Force_Field>
OPLS_2005

> <r_lp_Energy>
26.9479

> <b_lp_Chiralities_Consistent>
1

> <s_lp_Variant>
AV-unprocessed.smi:1914-2

> <Gold.Version>
5.8.1

> <Gold.Id.Protein>
6NUR|6NUR_protein|mol2

> <Gold.PLP.Fitness>
54.8275

> <Gold.PLP.PLP>
-37.7202

> <Gold.PLP.part.hbond>
-5.0000

> <Gold.PLP.part.metal>
0.0000

> <Gold.PLP.part.buried>
1.0386

> <Gold.PLP.part.nonpolar>
-32.7425

> <Gold.PLP.part.repulsive>
0.0982

> <Gold.PLP.ligand.clash>
0.0000

> <Gold.PLP.ligand.torsion>
0.4599

> <Gold.PLP.Chemscore.Hbond>
5.0000

> <Gold.PLP.Chemscore.CHOScore>
1.0000

> <Gold.PLP.Chemscore.Metal>
0.0000

> <Gold.Chemscore.Hbonds>
donor molecule, donor type, donor heavy atom, donor atom, acceptor molecule, acceptor atom, score
      L1  H     6    44       P1  7948  1.69
      L1  H     9    35       P1  7948  0.85
      P1  H  7997  8008       L1    19  0.49
      L1  C    14    38       P1  7948  0.28
      L1  C    14    38       P1  7957  0.24

> <Gold.PLP.Chemscore.Internal.Correction>
0.0271

> <Gold.Rescore>
     Score         DG    S(hbond)    S(metal)    S(lipo)     H(rot)  DE(clash)    DE(int)     intcor
     17.11     -19.65       3.22        0.00      69.83       1.86       0.75       1.80       ----

> <Gold.Chemscore.Fitness>
17.1054

> <Gold.Chemscore.DG>
-19.6545

> <Gold.Chemscore.ZeroCoef>
-5.4800

> <Gold.Chemscore.Hbond>
3.2224

> <Gold.Chemscore.Metal>
0.0000

> <Gold.Chemscore.Lipo>
69.8285

> <Gold.Chemscore.Internal_Hbond>
0.0000

> <Gold.Chemscore.DEClash>
0.7469

> <Gold.Chemscore.DEInternal>
1.8023

> <Gold.Chemscore.Rot>
1.8586

> <Gold.Chemscore.Internal.Correction>
   9.000000E+99

> <Gold.Chemscore.Hbonds>
donor molecule, donor type, donor heavy atom, donor atom, acceptor molecule, acceptor atom, score
      L1  H     6    44       P1  7948  0.81
      L1  H     9    35       P1  7948  0.15
      P1  H  7997  8008       L1    19  0.41

> <Gold.Chemscore.Hbond.Weighted>
-10.7627

> <Gold.Chemscore.Metal.Weighted>
-0.0000

> <Gold.Chemscore.Lipo.Weighted>
-8.1699

> <Gold.Chemscore.Internal_Hbond.Weighted>
0.0000

> <Gold.Chemscore.DEClash.Weighted>
0.7469

> <Gold.Chemscore.DEInternal.Weighted>
1.8023

> <Gold.Chemscore.Rot.Weighted>
4.7581

> <Gold.Chemscore.Internal.Correction.Weighted>
   9.000000E+99

> <Gold.Protein.RotatedTorsions>
[ 6907 6896 6895 6894 ] final  128.60 input  -60.11 | X-H torsion
[ 7974 7965 7964 7962 ] final  -16.01 input  175.53 | X-H torsion
[ 8008 7997 7996 7995 ] final  -47.53 input   59.86 | X-H torsion
[ 10167 10162 10161 10158 ] final   65.65 input  -65.29 | X-H torsion
[ 10718 10713 10712 10709 ] final -100.73 input   66.30 | X-H torsion
[ 10763 10752 10751 10750 ] final   99.15 input  -60.55 | X-H torsion
[ 11005 11000 10999 10996 ] final  148.13 input  -57.11 | X-H torsion

> <Gold.Protein.ActiveResidues>
 VAL166  LYS551  ARG553  GLY616  TRP617  ASP618  TYR619  PRO620  LYS621  CYS622 
 ASP623  PHE694  ASN695  SER759  ASP760  ASP761  ALA762  ILE779  LEU786  VAL792 
 PHE793  MET794  SER795  GLU796  ALA797  LYS798  CYS799  TRP800  GLU811  SER814 

> <Gold.Protein.RotatedAtoms>
  152.3704  133.6411  159.6082 H   0  0  0  0  0  0  0  0  0  0  0  0  # atno 6907 bound_to 6896
  150.7664  133.9279  159.3427 H   0  0  0  0  0  0  0  0  0  0  0  0  # atno 6908 bound_to 6896
  151.7103  135.0915  160.0318 H   0  0  0  0  0  0  0  0  0  0  0  0  # atno 6909 bound_to 6896
  146.2007  140.3575  142.8424 H   0  0  0  0  0  0  0  0  0  0  0  0  # atno 7974 bound_to 7965
  154.4018  140.1344  156.4191 H   0  0  0  0  0  0  0  0  0  0  0  0  # atno 8008 bound_to 7997
  155.7660  140.3485  155.5202 H   0  0  0  0  0  0  0  0  0  0  0  0  # atno 8009 bound_to 7997
  155.8813  140.0988  157.1473 H   0  0  0  0  0  0  0  0  0  0  0  0  # atno 8010 bound_to 7997
  140.1090  144.4836  150.6990 H   0  0  0  0  0  0  0  0  0  0  0  0  # atno 10167 bound_to 10162
  156.0172  130.5341  150.6860 H   0  0  0  0  0  0  0  0  0  0  0  0  # atno 10718 bound_to 10713
  153.2978  135.4123  155.1226 H   0  0  0  0  0  0  0  0  0  0  0  0  # atno 10763 bound_to 10752
  154.8540  135.3534  154.5892 H   0  0  0  0  0  0  0  0  0  0  0  0  # atno 10764 bound_to 10752
  153.6317  135.7060  153.5331 H   0  0  0  0  0  0  0  0  0  0  0  0  # atno 10765 bound_to 10752
  140.0934  134.9027  157.1685 H   0  0  0  0  0  0  0  0  0  0  0  0  # atno 11005 bound_to 11000
  144.8676  140.7228  143.6067 LP  0  0  0  0  0  0  0  0  0  0  0  0  # atno 17320 bound_to 7965
  145.3494  139.1710  143.4442 LP  0  0  0  0  0  0  0  0  0  0  0  0  # atno 17321 bound_to 7965
  140.6936  143.2390  151.5062 LP  0  0  0  0  0  0  0  0  0  0  0  0  # atno 17342 bound_to 10162
  139.5630  144.2111  152.1721 LP  0  0  0  0  0  0  0  0  0  0  0  0  # atno 17343 bound_to 10162
  157.4552  131.0877  151.0804 LP  0  0  0  0  0  0  0  0  0  0  0  0  # atno 17370 bound_to 10713
  157.1308  130.6101  149.5529 LP  0  0  0  0  0  0  0  0  0  0  0  0  # atno 17371 bound_to 10713
  140.3320  134.2799  155.7226 LP  0  0  0  0  0  0  0  0  0  0  0  0  # atno 17394 bound_to 11000
  141.2085  133.7777  157.0057 LP  0  0  0  0  0  0  0  0  0  0  0  0  # atno 17395 bound_to 11000

$$$$
