AV-unprocessed.smi:1692|AV-procd|sdf|6782|dock5
  -GOLD-   22720 7543D 1   1.00000     0.00000
 Structure written by MMmdl.
 45 46  0  0  0  0  0  0  0  0  1 V2000
  152.6531  138.0105  154.7473 C   0  0  0  0  0  0  0  0  0  0  0  0
  151.6363  138.9571  155.3942 C   0  0  2  0  0  0  0  0  0  0  0  0
  150.3548  139.0937  154.5528 C   0  0  0  0  0  0  0  0  0  0  0  0
  149.4218  140.0539  155.1286 N   0  0  0  0  0  0  0  0  0  0  0  0
  148.1986  140.1327  154.3312 C   0  0  0  0  0  0  0  0  0  0  0  0
  147.2911  138.8925  154.3996 C   0  0  0  0  0  0  0  0  0  0  0  0
  146.4358  138.7355  153.1322 C   0  0  0  0  0  0  0  0  0  0  0  0
  146.5489  137.3953  152.5681 N   0  0  0  0  0  0  0  0  0  0  0  0
  145.5143  136.6033  152.2509 C   0  0  0  0  0  0  0  0  0  0  0  0
  144.3372  136.9334  152.3982 O   0  0  0  0  0  0  0  0  0  0  0  0
  145.9371  135.4248  151.7600 N   0  0  0  0  0  0  0  0  0  0  0  0
  145.1542  134.3200  151.3304 C   0  0  0  0  0  0  0  0  0  0  0  0
  145.8928  133.2108  150.8595 C   0  0  0  0  0  0  0  0  0  0  0  0
  145.2102  132.0630  150.4122 C   0  0  0  0  0  0  0  0  0  0  0  0
  143.8045  132.0537  150.4475 C   0  0  0  0  0  0  0  0  0  0  0  0
  143.1457  133.1993  150.9308 C   0  0  0  0  0  0  0  0  0  0  0  0
  143.7980  134.3005  151.3598 N   0  0  0  0  0  0  0  0  0  0  0  0
  150.0912  141.3464  155.2589 C   0  0  0  0  0  0  0  0  0  0  0  0
  151.4048  141.2613  156.0627 C   0  0  1  0  0  0  0  0  0  0  0  0
  151.1837  141.0898  157.5751 C   0  0  0  0  0  0  0  0  0  0  0  0
  152.2485  140.2380  155.5321 O   0  0  0  0  0  0  0  0  0  0  0  0
  152.2360  137.0107  154.6250 H   0  0  0  0  0  0  0  0  0  0  0  0
  153.5496  137.9232  155.3616 H   0  0  0  0  0  0  0  0  0  0  0  0
  152.9570  138.3697  153.7637 H   0  0  0  0  0  0  0  0  0  0  0  0
  151.3847  138.5666  156.3808 H   0  0  0  0  0  0  0  0  0  0  0  0
  150.6157  139.3967  153.5374 H   0  0  0  0  0  0  0  0  0  0  0  0
  149.8749  138.1177  154.4720 H   0  0  0  0  0  0  0  0  0  0  0  0
  147.6285  141.0183  154.6162 H   0  0  0  0  0  0  0  0  0  0  0  0
  148.4745  140.2787  153.2860 H   0  0  0  0  0  0  0  0  0  0  0  0
  147.9068  138.0029  154.5392 H   0  0  0  0  0  0  0  0  0  0  0  0
  146.6307  138.9538  155.2645 H   0  0  0  0  0  0  0  0  0  0  0  0
  145.3867  138.9131  153.3696 H   0  0  0  0  0  0  0  0  0  0  0  0
  146.7147  139.4820  152.3866 H   0  0  0  0  0  0  0  0  0  0  0  0
  147.4828  137.0447  152.4141 H   0  0  0  0  0  0  0  0  0  0  0  0
  146.9363  135.3002  151.6926 H   0  0  0  0  0  0  0  0  0  0  0  0
  146.9729  133.2344  150.8396 H   0  0  0  0  0  0  0  0  0  0  0  0
  145.7565  131.2051  150.0488 H   0  0  0  0  0  0  0  0  0  0  0  0
  143.2454  131.1923  150.1132 H   0  0  0  0  0  0  0  0  0  0  0  0
  142.0672  133.2334  150.9741 H   0  0  0  0  0  0  0  0  0  0  0  0
  150.3124  141.7395  154.2655 H   0  0  0  0  0  0  0  0  0  0  0  0
  149.4337  142.0715  155.7372 H   0  0  0  0  0  0  0  0  0  0  0  0
  151.9412  142.2006  155.9257 H   0  0  0  0  0  0  0  0  0  0  0  0
  150.6364  141.9386  157.9851 H   0  0  0  0  0  0  0  0  0  0  0  0
  152.1360  141.0250  158.1020 H   0  0  0  0  0  0  0  0  0  0  0  0
  150.6115  140.1918  157.8066 H   0  0  0  0  0  0  0  0  0  0  0  0
  1  2  1  0  0  0  0
  1 22  1  0  0  0  0
  1 23  1  0  0  0  0
  1 24  1  0  0  0  0
  2 21  1  0  0  0  0
  2  3  1  0  0  0  0
  2 25  1  0  0  0  0
  3  4  1  0  0  0  0
  3 26  1  0  0  0  0
  3 27  1  0  0  0  0
  4  5  1  0  0  0  0
  4 18  1  0  0  0  0
  5  6  1  0  0  0  0
  5 28  1  0  0  0  0
  5 29  1  0  0  0  0
  6  7  1  0  0  0  0
  6 30  1  0  0  0  0
  6 31  1  0  0  0  0
  7  8  1  0  0  0  0
  7 32  1  0  0  0  0
  7 33  1  0  0  0  0
  8  9  1  0  0  0  0
  8 34  1  0  0  0  0
  9 10  2  0  0  0  0
  9 11  1  0  0  0  0
 11 12  1  0  0  0  0
 11 35  1  0  0  0  0
 12 17  1  0  0  0  0
 12 13  2  0  0  0  0
 13 14  1  0  0  0  0
 13 36  1  0  0  0  0
 14 15  2  0  0  0  0
 14 37  1  0  0  0  0
 15 16  1  0  0  0  0
 15 38  1  0  0  0  0
 16 17  2  0  0  0  0
 16 39  1  0  0  0  0
 18 19  1  0  0  0  0
 18 40  1  0  0  0  0
 18 41  1  0  0  0  0
 19 20  1  0  0  0  0
 19 21  1  0  0  0  0
 19 42  1  0  0  0  0
 20 43  1  0  0  0  0
 20 44  1  0  0  0  0
 20 45  1  0  0  0  0
M  END
> <s_m_source_file>
AV-unprocessed.smi

> <i_m_source_file_index>
1692

> <i_lp_mmshare_version>
43012

> <i_f3d_flags>
0

> <s_epik_input>
W0NIM11bQ0BASF0xW0NIMl1OKFtDSDJdW0NASF0oTzEpW0NIM10pW0NIMl1bQ0gyXVtDSDJdW05IXUMoPU8pW05IXWMyW2NIXVtjSF1bY0hdW2NIXW4y

> <s_epik_cmdline>
J2VwaWtfcHl0aG9uJywgJy1waCcsICc3LjAnLCAnLXRuJywgJzgnLCAnLW1hJywgJzIwMCcsICctbWV0YWxfYmluZGluZycsICctaW1hZScsICc8aW5maWxlLm1hZT4nLCAnLW9tYWUnLCAnPG91dGZpbGUubWFlPic=

> <r_epik_Ionization_Penalty>
0.594711

> <r_epik_Ionization_Penalty_Charging>
0

> <r_epik_Ionization_Penalty_Neutral>
0.594711

> <r_epik_State_Penalty>
0.608529

> <r_epik_Charging_Adjusted_Penalty>
0.608529

> <i_epik_Tot_Q>
0

> <i_epik_Tot_abs_Q>
0

> <r_epik_Metal_State_Penalty>
0.608528

> <b_epik_Metal_Only>
0

> <s_lp_Force_Field>
OPLS_2005

> <r_lp_Energy>
25.8915

> <b_lp_Chiralities_Consistent>
1

> <s_lp_Variant>
AV-unprocessed.smi:1692-5

> <Gold.Version>
5.8.1

> <Gold.Id.Protein>
6NUR|6NUR_protein|mol2

> <Gold.PLP.Fitness>
48.1021

> <Gold.PLP.PLP>
-38.5156

> <Gold.PLP.part.hbond>
-3.5910

> <Gold.PLP.part.metal>
0.0000

> <Gold.PLP.part.buried>
-2.4689

> <Gold.PLP.part.nonpolar>
-32.1877

> <Gold.PLP.part.repulsive>
0.5446

> <Gold.PLP.ligand.clash>
0.0000

> <Gold.PLP.ligand.torsion>
0.6076

> <Gold.PLP.Chemscore.Hbond>
2.5984

> <Gold.PLP.Chemscore.CHOScore>
0.9809

> <Gold.PLP.Chemscore.Metal>
0.0000

> <Gold.Chemscore.Hbonds>
donor molecule, donor type, donor heavy atom, donor atom, acceptor molecule, acceptor atom, score
      L1  H     8    34       P1  7948  1.00
      L1  H    11    35       P1  7948  0.58
      P1  H  7989  7998       L1    21  0.12
      P1  H  7997  8008       L1    21  0.60
      L1  C    16    39       P1 10186  0.80

> <Gold.PLP.Chemscore.Internal.Correction>
0.0639

> <Gold.Rescore>
     Score         DG    S(hbond)    S(metal)    S(lipo)     H(rot)  DE(clash)    DE(int)     intcor
     16.62     -19.93       2.53        0.00      88.97       1.73       1.51       1.80       ----

> <Gold.Chemscore.Fitness>
16.6187

> <Gold.Chemscore.DG>
-19.9263

> <Gold.Chemscore.ZeroCoef>
-5.4800

> <Gold.Chemscore.Hbond>
2.5320

> <Gold.Chemscore.Metal>
0.0000

> <Gold.Chemscore.Lipo>
88.9705

> <Gold.Chemscore.Internal_Hbond>
0.0000

> <Gold.Chemscore.DEClash>
1.5096

> <Gold.Chemscore.DEInternal>
1.7981

> <Gold.Chemscore.Rot>
1.7266

> <Gold.Chemscore.Internal.Correction>
   9.000000E+99

> <Gold.Chemscore.Hbonds>
donor molecule, donor type, donor heavy atom, donor atom, acceptor molecule, acceptor atom, score
      L1  H     8    34       P1  7948  1.00
      L1  H    11    35       P1  7948  0.55
      P1  H  7997  8008       L1    21  0.49

> <Gold.Chemscore.Hbond.Weighted>
-8.4568

> <Gold.Chemscore.Metal.Weighted>
-0.0000

> <Gold.Chemscore.Lipo.Weighted>
-10.4095

> <Gold.Chemscore.Internal_Hbond.Weighted>
0.0000

> <Gold.Chemscore.DEClash.Weighted>
1.5096

> <Gold.Chemscore.DEInternal.Weighted>
1.7981

> <Gold.Chemscore.Rot.Weighted>
4.4200

> <Gold.Chemscore.Internal.Correction.Weighted>
   9.000000E+99

> <Gold.Protein.RotatedTorsions>
[ 6907 6896 6895 6894 ] final  -44.24 input  -60.11 | X-H torsion
[ 7974 7965 7964 7962 ] final -121.94 input  175.53 | X-H torsion
[ 8008 7997 7996 7995 ] final  -32.09 input   59.86 | X-H torsion
[ 10167 10162 10161 10158 ] final  -86.75 input  -65.29 | X-H torsion
[ 10718 10713 10712 10709 ] final -161.88 input   66.30 | X-H torsion
[ 10763 10752 10751 10750 ] final  -96.28 input  -60.55 | X-H torsion
[ 11005 11000 10999 10996 ] final -102.23 input  -57.11 | X-H torsion

> <Gold.Protein.ActiveResidues>
 VAL166  LYS551  ARG553  GLY616  TRP617  ASP618  TYR619  PRO620  LYS621  CYS622 
 ASP623  PHE694  ASN695  SER759  ASP760  ASP761  ALA762  ILE779  LEU786  VAL792 
 PHE793  MET794  SER795  GLU796  ALA797  LYS798  CYS799  TRP800  GLU811  SER814 

> <Gold.Protein.RotatedAtoms>
  150.9350  134.8763  159.7575 H   0  0  0  0  0  0  0  0  0  0  0  0  # atno 6907 bound_to 6896
  152.5055  134.4024  159.9431 H   0  0  0  0  0  0  0  0  0  0  0  0  # atno 6908 bound_to 6896
  151.4048  133.3706  159.2771 H   0  0  0  0  0  0  0  0  0  0  0  0  # atno 6909 bound_to 6896
  145.0349  140.8098  143.4301 H   0  0  0  0  0  0  0  0  0  0  0  0  # atno 7974 bound_to 7965
  154.4191  140.1747  156.1672 H   0  0  0  0  0  0  0  0  0  0  0  0  # atno 8008 bound_to 7997
  155.9790  140.3379  155.6621 H   0  0  0  0  0  0  0  0  0  0  0  0  # atno 8009 bound_to 7997
  155.6525  140.0692  157.2573 H   0  0  0  0  0  0  0  0  0  0  0  0  # atno 8010 bound_to 7997
  140.3912  143.2704  151.9262 H   0  0  0  0  0  0  0  0  0  0  0  0  # atno 10167 bound_to 10162
  156.6025  130.8816  151.2917 H   0  0  0  0  0  0  0  0  0  0  0  0  # atno 10718 bound_to 10713
  154.7225  135.5089  153.8834 H   0  0  0  0  0  0  0  0  0  0  0  0  # atno 10763 bound_to 10752
  153.0875  135.6649  153.9928 H   0  0  0  0  0  0  0  0  0  0  0  0  # atno 10764 bound_to 10752
  153.9748  135.3035  155.3404 H   0  0  0  0  0  0  0  0  0  0  0  0  # atno 10765 bound_to 10752
  141.1198  133.8541  157.1333 H   0  0  0  0  0  0  0  0  0  0  0  0  # atno 11005 bound_to 11000
  145.1722  139.2398  143.5336 LP  0  0  0  0  0  0  0  0  0  0  0  0  # atno 17320 bound_to 7965
  146.3503  140.1476  142.8593 LP  0  0  0  0  0  0  0  0  0  0  0  0  # atno 17321 bound_to 7965
  139.4789  144.5726  151.8064 LP  0  0  0  0  0  0  0  0  0  0  0  0  # atno 17342 bound_to 10162
  140.4838  144.1411  150.5937 LP  0  0  0  0  0  0  0  0  0  0  0  0  # atno 17343 bound_to 10162
  157.7276  130.9645  150.1704 LP  0  0  0  0  0  0  0  0  0  0  0  0  # atno 17370 bound_to 10713
  156.2457  130.3695  149.8288 LP  0  0  0  0  0  0  0  0  0  0  0  0  # atno 17371 bound_to 10713
  140.0147  134.9973  157.0468 LP  0  0  0  0  0  0  0  0  0  0  0  0  # atno 17394 bound_to 11000
  140.4541  134.1552  155.7184 LP  0  0  0  0  0  0  0  0  0  0  0  0  # atno 17395 bound_to 11000

$$$$
