AV-unprocessed.smi:2880|AV-procd|sdf|11054|dock2
  -GOLD-   2272015523D 1   1.00000     0.00000
 Structure written by MMmdl.
 47 48  0  0  0  0  0  0  0  0  1 V2000
  148.6531  141.6926  154.4593 C   0  0  0  0  0  0  0  0  0  0  0  0
  147.2394  141.6418  155.0716 C   0  0  0  0  0  0  0  0  0  0  0  0
  147.3552  141.9064  156.5917 C   0  0  0  0  0  0  0  0  0  0  0  0
  146.3620  142.7450  154.4488 C   0  0  0  0  0  0  0  0  0  0  0  0
  146.6390  140.3333  154.7790 N   0  0  0  0  0  0  0  0  0  0  0  0
  145.4577  139.8100  155.2779 C   0  0  0  0  0  0  0  0  0  0  0  0
  145.2855  138.5652  154.7435 C   0  0  0  0  0  0  0  0  0  0  0  0
  146.4298  138.4056  153.9176 C   0  0  0  0  0  0  0  0  0  0  0  0
  146.6230  137.2171  153.1686 N   0  0  0  0  0  0  0  0  0  0  0  0
  145.7235  136.2507  152.9171 C   0  0  0  0  0  0  0  0  0  0  0  0
  144.5481  136.2637  153.2844 O   0  0  0  0  0  0  0  0  0  0  0  0
  146.2745  135.2510  152.2123 N   0  0  0  0  0  0  0  0  0  0  0  0
  145.6026  134.0203  151.7967 C   0  0  1  0  0  0  0  0  0  0  0  0
  144.7983  134.3098  150.5136 C   0  0  0  0  0  0  0  0  0  0  0  0
  144.0877  133.0530  149.9930 C   0  0  0  0  0  0  0  0  0  0  0  0
  145.0913  131.9167  149.7617 C   0  0  0  0  0  0  0  0  0  0  0  0
  145.8859  131.6162  151.0414 C   0  0  0  0  0  0  0  0  0  0  0  0
  146.6192  132.8636  151.5810 C   0  0  2  0  0  0  0  0  0  0  0  0
  147.4143  132.4936  152.8548 C   0  0  0  0  0  0  0  0  0  0  0  0
  148.2966  131.4127  152.6314 O   0  0  0  0  0  0  0  0  0  0  0  0
  147.2380  139.4547  153.9391 N   0  0  0  0  0  0  0  0  0  0  0  0
  149.1384  142.6475  154.6630 H   0  0  0  0  0  0  0  0  0  0  0  0
  148.6315  141.5654  153.3766 H   0  0  0  0  0  0  0  0  0  0  0  0
  149.2888  140.9072  154.8700 H   0  0  0  0  0  0  0  0  0  0  0  0
  147.9754  141.1569  157.0849 H   0  0  0  0  0  0  0  0  0  0  0  0
  146.3785  141.9031  157.0776 H   0  0  0  0  0  0  0  0  0  0  0  0
  147.8084  142.8786  156.7886 H   0  0  0  0  0  0  0  0  0  0  0  0
  146.7683  143.7364  154.6520 H   0  0  0  0  0  0  0  0  0  0  0  0
  145.3484  142.7170  154.8507 H   0  0  0  0  0  0  0  0  0  0  0  0
  146.2883  142.6412  153.3659 H   0  0  0  0  0  0  0  0  0  0  0  0
  144.8390  140.3636  155.9684 H   0  0  0  0  0  0  0  0  0  0  0  0
  144.4694  137.8800  154.9173 H   0  0  0  0  0  0  0  0  0  0  0  0
  147.5525  137.0770  152.8011 H   0  0  0  0  0  0  0  0  0  0  0  0
  147.2492  135.3340  151.9637 H   0  0  0  0  0  0  0  0  0  0  0  0
  144.8944  133.7043  152.5650 H   0  0  0  0  0  0  0  0  0  0  0  0
  144.0620  135.0922  150.7026 H   0  0  0  0  0  0  0  0  0  0  0  0
  145.4642  134.6938  149.7391 H   0  0  0  0  0  0  0  0  0  0  0  0
  143.3305  132.7348  150.7107 H   0  0  0  0  0  0  0  0  0  0  0  0
  143.5604  133.2793  149.0660 H   0  0  0  0  0  0  0  0  0  0  0  0
  144.5679  131.0199  149.4290 H   0  0  0  0  0  0  0  0  0  0  0  0
  145.7780  132.1899  148.9595 H   0  0  0  0  0  0  0  0  0  0  0  0
  145.2096  131.2292  151.8050 H   0  0  0  0  0  0  0  0  0  0  0  0
  146.6037  130.8213  150.8361 H   0  0  0  0  0  0  0  0  0  0  0  0
  147.3335  133.1683  150.8139 H   0  0  0  0  0  0  0  0  0  0  0  0
  147.9735  133.3526  153.2270 H   0  0  0  0  0  0  0  0  0  0  0  0
  146.7361  132.1883  153.6522 H   0  0  0  0  0  0  0  0  0  0  0  0
  148.5572  131.4213  151.7229 H   0  0  0  0  0  0  0  0  0  0  0  0
  1  2  1  0  0  0  0
  1 22  1  0  0  0  0
  1 23  1  0  0  0  0
  1 24  1  0  0  0  0
  2  3  1  0  0  0  0
  2  4  1  0  0  0  0
  2  5  1  0  0  0  0
  3 25  1  0  0  0  0
  3 26  1  0  0  0  0
  3 27  1  0  0  0  0
  4 28  1  0  0  0  0
  4 29  1  0  0  0  0
  4 30  1  0  0  0  0
  5 21  1  0  0  0  0
  5  6  1  0  0  0  0
  6  7  2  0  0  0  0
  6 31  1  0  0  0  0
  7  8  1  0  0  0  0
  7 32  1  0  0  0  0
  8  9  1  0  0  0  0
  8 21  2  0  0  0  0
  9 10  1  0  0  0  0
  9 33  1  0  0  0  0
 10 11  2  0  0  0  0
 10 12  1  0  0  0  0
 12 13  1  0  0  0  0
 12 34  1  0  0  0  0
 13 18  1  0  0  0  0
 13 14  1  0  0  0  0
 13 35  1  0  0  0  0
 14 15  1  0  0  0  0
 14 36  1  0  0  0  0
 14 37  1  0  0  0  0
 15 16  1  0  0  0  0
 15 38  1  0  0  0  0
 15 39  1  0  0  0  0
 16 17  1  0  0  0  0
 16 40  1  0  0  0  0
 16 41  1  0  0  0  0
 17 18  1  0  0  0  0
 17 42  1  0  0  0  0
 17 43  1  0  0  0  0
 18 19  1  0  0  0  0
 18 44  1  0  0  0  0
 19 20  1  0  0  0  0
 19 45  1  0  0  0  0
 19 46  1  0  0  0  0
 20 47  1  0  0  0  0
M  END
> <s_m_source_file>
AV-unprocessed.smi

> <i_m_source_file_index>
2880

> <i_lp_mmshare_version>
43012

> <i_f3d_flags>
0

> <s_epik_input>
W0NIM11DKFtDSDNdKShbQ0gzXSluMVtjSF1bY0hdYyhuMSlbTkhdQyg9TylbTkhdW0NAQEhdMltDSDJdW0NIMl1bQ0gyXVtDSDJdW0NASF0yW0NIMl1bT0hd

> <s_epik_cmdline>
J2VwaWtfcHl0aG9uJywgJy1waCcsICc3LjAnLCAnLXRuJywgJzgnLCAnLW1hJywgJzIwMCcsICctbWV0YWxfYmluZGluZycsICctaW1hZScsICc8aW5maWxlLm1hZT4nLCAnLW9tYWUnLCAnPG91dGZpbGUubWFlPic=

> <r_lp_tautomer_probability>
1

> <r_epik_Ionization_Penalty>
3.89283e-05

> <r_epik_Ionization_Penalty_Charging>
0

> <r_epik_Ionization_Penalty_Neutral>
3.89283e-05

> <r_epik_State_Penalty>
-0

> <r_epik_Charging_Adjusted_Penalty>
0

> <i_epik_Tot_Q>
0

> <i_epik_Tot_abs_Q>
0

> <r_epik_Metal_State_Penalty>
-0

> <b_epik_Metal_Only>
0

> <s_lp_Force_Field>
OPLS_2005

> <r_lp_Energy>
21.9333

> <b_lp_Chiralities_Consistent>
1

> <s_lp_Variant>
AV-unprocessed.smi:2880-4

> <Gold.Version>
5.8.1

> <Gold.Id.Protein>
6NUR|6NUR_protein|mol2

> <Gold.PLP.Fitness>
41.4221

> <Gold.PLP.PLP>
-33.5974

> <Gold.PLP.part.hbond>
-2.9795

> <Gold.PLP.part.metal>
0.0000

> <Gold.PLP.part.buried>
-3.8506

> <Gold.PLP.part.nonpolar>
-27.5980

> <Gold.PLP.part.repulsive>
0.2911

> <Gold.PLP.ligand.clash>
0.0000

> <Gold.PLP.ligand.torsion>
0.5943

> <Gold.PLP.Chemscore.Hbond>
3.0000

> <Gold.PLP.Chemscore.CHOScore>
0.0000

> <Gold.PLP.Chemscore.Metal>
0.0000

> <Gold.Chemscore.Hbonds>
donor molecule, donor type, donor heavy atom, donor atom, acceptor molecule, acceptor atom, score
      L1  H     9    33       P1  7948  1.00
      L1  H    12    34       P1  7948  1.00
      L1  H    20    47       P1 10747  1.00

> <Gold.PLP.Chemscore.Internal.Correction>
0.0133

> <Gold.Rescore>
     Score         DG    S(hbond)    S(metal)    S(lipo)     H(rot)  DE(clash)    DE(int)     intcor
     17.61     -19.42       2.96        0.00      77.60       1.97       0.05       1.75       ----

> <Gold.Chemscore.Fitness>
17.6127

> <Gold.Chemscore.DG>
-19.4154

> <Gold.Chemscore.ZeroCoef>
-5.4800

> <Gold.Chemscore.Hbond>
2.9618

> <Gold.Chemscore.Metal>
0.0000

> <Gold.Chemscore.Lipo>
77.5980

> <Gold.Chemscore.Internal_Hbond>
0.0000

> <Gold.Chemscore.DEClash>
0.0485

> <Gold.Chemscore.DEInternal>
1.7542

> <Gold.Chemscore.Rot>
1.9672

> <Gold.Chemscore.Internal.Correction>
   9.000000E+99

> <Gold.Chemscore.Hbonds>
donor molecule, donor type, donor heavy atom, donor atom, acceptor molecule, acceptor atom, score
      L1  H     9    33       P1  7948  0.99
      L1  H    12    34       P1  7948  0.98
      L1  H    20    47       P1 10747  0.97

> <Gold.Chemscore.Hbond.Weighted>
-9.8925

> <Gold.Chemscore.Metal.Weighted>
-0.0000

> <Gold.Chemscore.Lipo.Weighted>
-9.0790

> <Gold.Chemscore.Internal_Hbond.Weighted>
0.0000

> <Gold.Chemscore.DEClash.Weighted>
0.0485

> <Gold.Chemscore.DEInternal.Weighted>
1.7542

> <Gold.Chemscore.Rot.Weighted>
5.0360

> <Gold.Chemscore.Internal.Correction.Weighted>
   9.000000E+99

> <Gold.Protein.RotatedTorsions>
[ 6907 6896 6895 6894 ] final  121.07 input  -60.11 | X-H torsion
[ 7974 7965 7964 7962 ] final   43.86 input  175.53 | X-H torsion
[ 8008 7997 7996 7995 ] final    4.32 input   59.86 | X-H torsion
[ 10167 10162 10161 10158 ] final  -59.39 input  -65.29 | X-H torsion
[ 10718 10713 10712 10709 ] final -120.01 input   66.30 | X-H torsion
[ 10763 10752 10751 10750 ] final   30.56 input  -60.55 | X-H torsion
[ 11005 11000 10999 10996 ] final  167.97 input  -57.11 | X-H torsion

> <Gold.Protein.ActiveResidues>
 VAL166  LYS551  ARG553  GLY616  TRP617  ASP618  TYR619  PRO620  LYS621  CYS622 
 ASP623  PHE694  ASN695  SER759  ASP760  ASP761  ALA762  ILE779  LEU786  VAL792 
 PHE793  MET794  SER795  GLU796  ALA797  LYS798  CYS799  TRP800  GLU811  SER814 

> <Gold.Protein.RotatedAtoms>
  152.4350  133.7344  159.6605 H   0  0  0  0  0  0  0  0  0  0  0  0  # atno 6907 bound_to 6896
  150.8232  133.8206  159.3136 H   0  0  0  0  0  0  0  0  0  0  0  0  # atno 6908 bound_to 6896
  151.5882  135.1057  160.0084 H   0  0  0  0  0  0  0  0  0  0  0  0  # atno 6909 bound_to 6896
  146.0618  139.5139  142.9653 H   0  0  0  0  0  0  0  0  0  0  0  0  # atno 7974 bound_to 7965
  154.7145  140.2699  155.6598 H   0  0  0  0  0  0  0  0  0  0  0  0  # atno 8008 bound_to 7997
  156.2805  140.2746  156.1721 H   0  0  0  0  0  0  0  0  0  0  0  0  # atno 8009 bound_to 7997
  155.0590  140.0371  157.2560 H   0  0  0  0  0  0  0  0  0  0  0  0  # atno 8010 bound_to 7997
  140.6138  143.2395  151.5646 H   0  0  0  0  0  0  0  0  0  0  0  0  # atno 10167 bound_to 10162
  156.1225  130.6334  150.9488 H   0  0  0  0  0  0  0  0  0  0  0  0  # atno 10718 bound_to 10713
  153.0365  135.6461  154.1063 H   0  0  0  0  0  0  0  0  0  0  0  0  # atno 10763 bound_to 10752
  154.0777  135.2875  155.3298 H   0  0  0  0  0  0  0  0  0  0  0  0  # atno 10764 bound_to 10752
  154.6551  135.5412  153.8013 H   0  0  0  0  0  0  0  0  0  0  0  0  # atno 10765 bound_to 10752
  140.2824  134.7740  157.3769 H   0  0  0  0  0  0  0  0  0  0  0  0  # atno 11005 bound_to 11000
  145.6546  141.0255  143.1742 LP  0  0  0  0  0  0  0  0  0  0  0  0  # atno 17320 bound_to 7965
  144.7179  139.8130  143.7392 LP  0  0  0  0  0  0  0  0  0  0  0  0  # atno 17321 bound_to 7965
  139.5382  144.2721  152.1296 LP  0  0  0  0  0  0  0  0  0  0  0  0  # atno 17342 bound_to 10162
  140.1926  144.4737  150.6471 LP  0  0  0  0  0  0  0  0  0  0  0  0  # atno 17343 bound_to 10162
  157.6408  131.0910  150.8255 LP  0  0  0  0  0  0  0  0  0  0  0  0  # atno 17370 bound_to 10713
  156.8349  130.5028  149.5327 LP  0  0  0  0  0  0  0  0  0  0  0  0  # atno 17371 bound_to 10713
  140.1271  134.5143  155.8135 LP  0  0  0  0  0  0  0  0  0  0  0  0  # atno 17394 bound_to 11000
  141.2160  133.6776  156.6972 LP  0  0  0  0  0  0  0  0  0  0  0  0  # atno 17395 bound_to 11000

$$$$
