AV-unprocessed.smi:657|AV-procd|sdf|3221|dock4
  -GOLD-   22720 0163D 1   1.00000     0.00000
 Structure written by MMmdl.
 47 48  0  0  0  0  0  0  0  0  2 V2000
  147.4671  139.1437  153.0626 C   0  0  0  0  0  0  0  0  0  0  0  0
  147.8755  139.7373  154.4283 C   0  0  0  0  0  0  0  0  0  0  0  0
  147.2178  141.1264  154.5652 C   0  0  0  0  0  0  0  0  0  0  0  0
  149.3660  139.7942  154.6197 N   0  3  1  0  0  0  0  0  0  0  0  0
  149.7919  140.5048  155.8667 C   0  0  0  0  0  0  0  0  0  0  0  0
  151.3154  140.7018  155.9372 C   0  0  0  0  0  0  0  0  0  0  0  0
  152.0585  139.3735  155.7924 C   0  0  0  0  0  0  0  0  0  0  0  0
  151.6326  138.7062  154.4812 C   0  0  0  0  0  0  0  0  0  0  0  0
  150.1021  138.4987  154.3999 C   0  0  1  0  0  0  0  0  0  0  0  0
  149.6546  137.3165  155.2884 C   0  0  0  0  0  0  0  0  0  0  0  0
  149.5854  137.4213  156.5125 O   0  0  0  0  0  0  0  0  0  0  0  0
  149.3811  136.1738  154.6406 N   0  0  0  0  0  0  0  0  0  0  0  0
  149.0340  134.9022  155.2700 C   0  0  0  0  0  0  0  0  0  0  0  0
  148.9605  133.7289  154.2690 C   0  0  0  0  0  0  0  0  0  0  0  0
  147.6945  133.7288  153.4516 C   0  0  0  0  0  0  0  0  0  0  0  0
  146.5962  134.6323  153.5274 C   0  0  0  0  0  0  0  0  0  0  0  0
  145.6575  134.3762  152.6309 N   0  0  0  0  0  0  0  0  0  0  0  0
  146.1154  133.2972  151.9635 N   0  0  0  0  0  0  0  0  0  0  0  0
  145.3305  132.7380  150.8843 C   0  0  0  0  0  0  0  0  0  0  0  0
  147.3373  132.8796  152.4428 C   0  0  0  0  0  0  0  0  0  0  0  0
  146.3882  139.2055  152.9153 H   0  0  0  0  0  0  0  0  0  0  0  0
  147.7212  138.0875  152.9765 H   0  0  0  0  0  0  0  0  0  0  0  0
  147.9408  139.6777  152.2382 H   0  0  0  0  0  0  0  0  0  0  0  0
  147.4501  139.1002  155.2042 H   0  0  0  0  0  0  0  0  0  0  0  0
  146.1630  141.0899  154.2903 H   0  0  0  0  0  0  0  0  0  0  0  0
  147.6990  141.8608  153.9183 H   0  0  0  0  0  0  0  0  0  0  0  0
  147.2449  141.5010  155.5879 H   0  0  0  0  0  0  0  0  0  0  0  0
  149.3496  141.4974  155.9131 H   0  0  0  0  0  0  0  0  0  0  0  0
  149.4388  139.9749  156.7509 H   0  0  0  0  0  0  0  0  0  0  0  0
  151.6318  141.3855  155.1482 H   0  0  0  0  0  0  0  0  0  0  0  0
  151.5846  141.1766  156.8814 H   0  0  0  0  0  0  0  0  0  0  0  0
  153.1360  139.5400  155.7978 H   0  0  0  0  0  0  0  0  0  0  0  0
  151.8380  138.7263  156.6417 H   0  0  0  0  0  0  0  0  0  0  0  0
  151.9548  139.3265  153.6436 H   0  0  0  0  0  0  0  0  0  0  0  0
  152.1593  137.7574  154.3644 H   0  0  0  0  0  0  0  0  0  0  0  0
  149.9184  138.1953  153.3693 H   0  0  0  0  0  0  0  0  0  0  0  0
  149.4649  136.1689  153.6343 H   0  0  0  0  0  0  0  0  0  0  0  0
  149.7262  134.6746  156.0819 H   0  0  0  0  0  0  0  0  0  0  0  0
  148.0549  135.0386  155.7301 H   0  0  0  0  0  0  0  0  0  0  0  0
  149.8285  133.7779  153.6107 H   0  0  0  0  0  0  0  0  0  0  0  0
  149.0674  132.7905  154.8131 H   0  0  0  0  0  0  0  0  0  0  0  0
  146.4632  135.4730  154.1923 H   0  0  0  0  0  0  0  0  0  0  0  0
  145.7726  131.7997  150.5484 H   0  0  0  0  0  0  0  0  0  0  0  0
  145.3048  133.4375  150.0483 H   0  0  0  0  0  0  0  0  0  0  0  0
  144.3124  132.5473  151.2255 H   0  0  0  0  0  0  0  0  0  0  0  0
  147.8553  132.0311  152.0205 H   0  0  0  0  0  0  0  0  0  0  0  0
  149.6914  140.3884  153.8709 H   0  0  0  0  0  0  0  0  0  0  0  0
  1  2  1  0  0  0  0
  1 21  1  0  0  0  0
  1 22  1  0  0  0  0
  1 23  1  0  0  0  0
  2  3  1  0  0  0  0
  2  4  1  0  0  0  0
  2 24  1  0  0  0  0
  3 25  1  0  0  0  0
  3 26  1  0  0  0  0
  3 27  1  0  0  0  0
  4  9  1  0  0  0  0
  4  5  1  0  0  0  0
  4 47  1  0  0  0  0
  5  6  1  0  0  0  0
  5 28  1  0  0  0  0
  5 29  1  0  0  0  0
  6  7  1  0  0  0  0
  6 30  1  0  0  0  0
  6 31  1  0  0  0  0
  7  8  1  0  0  0  0
  7 32  1  0  0  0  0
  7 33  1  0  0  0  0
  8  9  1  0  0  0  0
  8 34  1  0  0  0  0
  8 35  1  0  0  0  0
  9 10  1  0  0  0  0
  9 36  1  0  0  0  0
 10 11  2  0  0  0  0
 10 12  1  0  0  0  0
 12 13  1  0  0  0  0
 12 37  1  0  0  0  0
 13 14  1  0  0  0  0
 13 38  1  0  0  0  0
 13 39  1  0  0  0  0
 14 15  1  0  0  0  0
 14 40  1  0  0  0  0
 14 41  1  0  0  0  0
 15 20  2  0  0  0  0
 15 16  1  0  0  0  0
 16 17  2  0  0  0  0
 16 42  1  0  0  0  0
 17 18  1  0  0  0  0
 18 19  1  0  0  0  0
 18 20  1  0  0  0  0
 19 43  1  0  0  0  0
 19 44  1  0  0  0  0
 19 45  1  0  0  0  0
 20 46  1  0  0  0  0
M  CHG  1   4   1
M  END
> <s_m_source_file>
AV-unprocessed.smi

> <i_m_source_file_index>
657

> <i_lp_mmshare_version>
43012

> <i_f3d_flags>
0

> <s_epik_input>
W0NIM11bQ0hdKFtDSDNdKU4xW0NIMl1bQ0gyXVtDSDJdW0NIMl1bQ0BIXTFDKD1PKVtOSF1bQ0gyXVtDSDJdYzJbY0hdbm4oW0NIM10pW2NIXTI=

> <s_epik_cmdline>
J2VwaWtfcHl0aG9uJywgJy1waCcsICc3LjAnLCAnLXRuJywgJzgnLCAnLW1hJywgJzIwMCcsICctbWV0YWxfYmluZGluZycsICctaW1hZScsICc8aW5maWxlLm1hZT4nLCAnLW9tYWUnLCAnPG91dGZpbGUubWFlPic=

> <r_lp_tautomer_probability>
1

> <r_epik_Ionization_Penalty>
0.0244317

> <r_epik_Ionization_Penalty_Charging>
0.0240236

> <r_epik_Ionization_Penalty_Neutral>
0.00040815

> <r_epik_State_Penalty>
0.0194773

> <r_epik_Charging_Adjusted_Penalty>
0.0435009

> <i_epik_Tot_Q>
1

> <i_epik_Tot_abs_Q>
1

> <r_epik_Metal_State_Penalty>
0.0361957

> <b_epik_Metal_Only>
0

> <s_lp_Force_Field>
OPLS_2005

> <r_lp_Energy>
18.2294

> <b_lp_Chiralities_Consistent>
1

> <s_lp_Variant>
AV-unprocessed.smi:657-2

> <Gold.Version>
5.8.1

> <Gold.Id.Protein>
6NUR|6NUR_protein|mol2

> <Gold.PLP.Fitness>
38.1488

> <Gold.PLP.PLP>
-32.8384

> <Gold.PLP.part.hbond>
-1.0000

> <Gold.PLP.part.metal>
0.0000

> <Gold.PLP.part.buried>
-1.3041

> <Gold.PLP.part.nonpolar>
-29.2386

> <Gold.PLP.part.repulsive>
0.2209

> <Gold.PLP.ligand.clash>
0.0000

> <Gold.PLP.ligand.torsion>
0.4424

> <Gold.PLP.Chemscore.Hbond>
1.0000

> <Gold.PLP.Chemscore.CHOScore>
1.0000

> <Gold.PLP.Chemscore.Metal>
0.0000

> <Gold.Chemscore.Hbonds>
donor molecule, donor type, donor heavy atom, donor atom, acceptor molecule, acceptor atom, score
      L1  H    12    37       P1  7948  1.00
      L1  C    20    46       P1 10747  1.00

> <Gold.PLP.Chemscore.Internal.Correction>
0.1953

> <Gold.Rescore>
     Score         DG    S(hbond)    S(metal)    S(lipo)     H(rot)  DE(clash)    DE(int)     intcor
     13.82     -14.08       0.93        0.00      82.51       1.63       0.06       0.20       ----

> <Gold.Chemscore.Fitness>
13.8187

> <Gold.Chemscore.DG>
-14.0780

> <Gold.Chemscore.ZeroCoef>
-5.4800

> <Gold.Chemscore.Hbond>
0.9317

> <Gold.Chemscore.Metal>
0.0000

> <Gold.Chemscore.Lipo>
82.5091

> <Gold.Chemscore.Internal_Hbond>
0.0000

> <Gold.Chemscore.DEClash>
0.0596

> <Gold.Chemscore.DEInternal>
0.1996

> <Gold.Chemscore.Rot>
1.6279

> <Gold.Chemscore.Internal.Correction>
   9.000000E+99

> <Gold.Chemscore.Hbonds>
donor molecule, donor type, donor heavy atom, donor atom, acceptor molecule, acceptor atom, score
      L1  H    12    37       P1  7948  0.60

> <Gold.Chemscore.Hbond.Weighted>
-3.1117

> <Gold.Chemscore.Metal.Weighted>
-0.0000

> <Gold.Chemscore.Lipo.Weighted>
-9.6536

> <Gold.Chemscore.Internal_Hbond.Weighted>
0.0000

> <Gold.Chemscore.DEClash.Weighted>
0.0596

> <Gold.Chemscore.DEInternal.Weighted>
0.1996

> <Gold.Chemscore.Rot.Weighted>
4.1673

> <Gold.Chemscore.Internal.Correction.Weighted>
   9.000000E+99

> <Gold.Protein.RotatedTorsions>
[ 6907 6896 6895 6894 ] final  -57.26 input  -60.11 | X-H torsion
[ 7974 7965 7964 7962 ] final  -50.87 input  175.53 | X-H torsion
[ 8008 7997 7996 7995 ] final -111.54 input   59.86 | X-H torsion
[ 10167 10162 10161 10158 ] final -142.64 input  -65.29 | X-H torsion
[ 10718 10713 10712 10709 ] final  143.41 input   66.30 | X-H torsion
[ 10763 10752 10751 10750 ] final  -12.31 input  -60.55 | X-H torsion
[ 11005 11000 10999 10996 ] final -123.99 input  -57.11 | X-H torsion

> <Gold.Protein.ActiveResidues>
 VAL166  LYS551  ARG553  GLY616  TRP617  ASP618  TYR619  PRO620  LYS621  CYS622 
 ASP623  PHE694  ASN695  SER759  ASP760  ASP761  ALA762  ILE779  LEU786  VAL792 
 PHE793  MET794  SER795  GLU796  ALA797  LYS798  CYS799  TRP800  GLU811  SER814 

> <Gold.Protein.RotatedAtoms>
  150.8100  134.7249  159.6678 H   0  0  0  0  0  0  0  0  0  0  0  0  # atno 6907 bound_to 6896
  152.4220  134.5934  159.9990 H   0  0  0  0  0  0  0  0  0  0  0  0  # atno 6908 bound_to 6896
  151.6147  133.3307  159.3111 H   0  0  0  0  0  0  0  0  0  0  0  0  # atno 6909 bound_to 6896
  145.9252  140.7798  142.9627 H   0  0  0  0  0  0  0  0  0  0  0  0  # atno 7974 bound_to 7965
  154.9915  140.0395  157.2321 H   0  0  0  0  0  0  0  0  0  0  0  0  # atno 8008 bound_to 7997
  154.7624  140.2787  155.6180 H   0  0  0  0  0  0  0  0  0  0  0  0  # atno 8009 bound_to 7997
  156.2906  140.2626  156.2406 H   0  0  0  0  0  0  0  0  0  0  0  0  # atno 8010 bound_to 7997
  139.8069  143.7756  152.2661 H   0  0  0  0  0  0  0  0  0  0  0  0  # atno 10167 bound_to 10162
  157.3693  131.0976  151.0843 H   0  0  0  0  0  0  0  0  0  0  0  0  # atno 10718 bound_to 10713
  153.4966  135.7017  153.5855 H   0  0  0  0  0  0  0  0  0  0  0  0  # atno 10763 bound_to 10752
  153.4004  135.3873  155.1984 H   0  0  0  0  0  0  0  0  0  0  0  0  # atno 10764 bound_to 10752
  154.8713  135.3880  154.4432 H   0  0  0  0  0  0  0  0  0  0  0  0  # atno 10765 bound_to 10752
  140.9876  134.0585  157.3693 H   0  0  0  0  0  0  0  0  0  0  0  0  # atno 11005 bound_to 11000
  144.6757  140.2039  143.7384 LP  0  0  0  0  0  0  0  0  0  0  0  0  # atno 17320 bound_to 7965
  145.8498  139.2170  143.1778 LP  0  0  0  0  0  0  0  0  0  0  0  0  # atno 17321 bound_to 7965
  139.7893  144.7416  150.9977 LP  0  0  0  0  0  0  0  0  0  0  0  0  # atno 17342 bound_to 10162
  140.7819  143.4458  151.0484 LP  0  0  0  0  0  0  0  0  0  0  0  0  # atno 17343 bound_to 10162
  157.1954  130.6370  149.5719 LP  0  0  0  0  0  0  0  0  0  0  0  0  # atno 17370 bound_to 10713
  155.9752  130.4708  150.6444 LP  0  0  0  0  0  0  0  0  0  0  0  0  # atno 17371 bound_to 10713
  139.8977  135.0151  156.7115 LP  0  0  0  0  0  0  0  0  0  0  0  0  # atno 17394 bound_to 11000
  140.7090  133.9239  155.8072 LP  0  0  0  0  0  0  0  0  0  0  0  0  # atno 17395 bound_to 11000

$$$$
