AV-unprocessed.smi:3335|AV-procd|sdf|12842|dock3
  -GOLD-   2272019223D 1   1.00000     0.00000
 Structure written by MMmdl.
 47 48  0  0  0  0  0  0  0  0  2 V2000
  143.7197  134.2805  151.3709 C   0  0  0  0  0  0  0  0  0  0  0  0
  144.3573  135.6020  151.6902 C   0  0  0  0  0  0  0  0  0  0  0  0
  143.7806  136.7077  152.3766 C   0  0  0  0  0  0  0  0  0  0  0  0
  144.6116  137.7305  152.4905 N   0  0  0  0  0  0  0  0  0  0  0  0
  145.7502  137.3138  151.8931 N   0  0  0  0  0  0  0  0  0  0  0  0
  146.9085  138.1971  151.8115 C   0  0  1  0  0  0  0  0  0  0  0  0
  146.5488  139.4355  150.9693 C   0  0  0  0  0  0  0  0  0  0  0  0
  147.4639  138.5527  153.2179 C   0  0  2  0  0  0  0  0  0  0  0  0
  146.8491  139.8487  153.7798 C   0  0  0  0  0  0  0  0  0  0  0  0
  148.9401  138.6884  153.1574 N   0  3  0  0  0  0  0  0  0  0  0  0
  149.6408  138.8545  154.4531 C   0  0  1  0  0  0  0  0  0  0  0  0
  150.9942  138.1187  154.4350 C   0  0  0  0  0  0  0  0  0  0  0  0
  149.8632  140.3504  154.7484 C   0  0  0  0  0  0  0  0  0  0  0  0
  149.5179  141.1794  153.9042 O   0  0  0  0  0  0  0  0  0  0  0  0
  150.4481  140.7219  155.9090 N   0  0  0  0  0  0  0  0  0  0  0  0
  150.8416  139.7655  156.9433 C   0  0  0  0  0  0  0  0  0  0  0  0
  151.1493  140.5988  158.1867 C   0  0  0  0  0  0  0  0  0  0  0  0
  151.5594  141.9539  157.6303 C   0  0  0  0  0  0  0  0  0  0  0  0
  150.7599  142.0884  156.3333 C   0  0  0  0  0  0  0  0  0  0  0  0
  145.6180  136.0354  151.3920 C   0  0  0  0  0  0  0  0  0  0  0  0
  142.6372  134.3666  151.2747 H   0  0  0  0  0  0  0  0  0  0  0  0
  143.9162  133.5420  152.1482 H   0  0  0  0  0  0  0  0  0  0  0  0
  144.0921  133.8680  150.4329 H   0  0  0  0  0  0  0  0  0  0  0  0
  142.7873  136.7977  152.7911 H   0  0  0  0  0  0  0  0  0  0  0  0
  147.6830  137.6483  151.2730 H   0  0  0  0  0  0  0  0  0  0  0  0
  147.4274  140.0365  150.7371 H   0  0  0  0  0  0  0  0  0  0  0  0
  145.8320  140.0750  151.4856 H   0  0  0  0  0  0  0  0  0  0  0  0
  146.1045  139.1437  150.0171 H   0  0  0  0  0  0  0  0  0  0  0  0
  147.2117  137.7373  153.8960 H   0  0  0  0  0  0  0  0  0  0  0  0
  145.7739  139.7527  153.9273 H   0  0  0  0  0  0  0  0  0  0  0  0
  147.0199  140.6914  153.1094 H   0  0  0  0  0  0  0  0  0  0  0  0
  147.2732  140.1087  154.7494 H   0  0  0  0  0  0  0  0  0  0  0  0
  149.3186  137.8600  152.7204 H   0  0  0  0  0  0  0  0  0  0  0  0
  149.0077  138.4248  155.2265 H   0  0  0  0  0  0  0  0  0  0  0  0
  151.5418  138.2630  155.3665 H   0  0  0  0  0  0  0  0  0  0  0  0
  151.6290  138.4737  153.6218 H   0  0  0  0  0  0  0  0  0  0  0  0
  150.8680  137.0439  154.3058 H   0  0  0  0  0  0  0  0  0  0  0  0
  150.0622  139.0292  157.1462 H   0  0  0  0  0  0  0  0  0  0  0  0
  151.7332  139.2320  156.6101 H   0  0  0  0  0  0  0  0  0  0  0  0
  150.2450  140.7092  158.7870 H   0  0  0  0  0  0  0  0  0  0  0  0
  151.9167  140.1497  158.8179 H   0  0  0  0  0  0  0  0  0  0  0  0
  151.3746  142.7714  158.3281 H   0  0  0  0  0  0  0  0  0  0  0  0
  152.6264  141.9447  157.4028 H   0  0  0  0  0  0  0  0  0  0  0  0
  151.3409  142.6337  155.5891 H   0  0  0  0  0  0  0  0  0  0  0  0
  149.8330  142.6336  156.5142 H   0  0  0  0  0  0  0  0  0  0  0  0
  146.4250  135.5423  150.8700 H   0  0  0  0  0  0  0  0  0  0  0  0
  149.1565  139.4804  152.5693 H   0  0  0  0  0  0  0  0  0  0  0  0
  1  2  1  0  0  0  0
  1 21  1  0  0  0  0
  1 22  1  0  0  0  0
  1 23  1  0  0  0  0
  2 20  2  0  0  0  0
  2  3  1  0  0  0  0
  3  4  2  0  0  0  0
  3 24  1  0  0  0  0
  4  5  1  0  0  0  0
  5  6  1  0  0  0  0
  5 20  1  0  0  0  0
  6  7  1  0  0  0  0
  6  8  1  0  0  0  0
  6 25  1  0  0  0  0
  7 26  1  0  0  0  0
  7 27  1  0  0  0  0
  7 28  1  0  0  0  0
  8  9  1  0  0  0  0
  8 10  1  0  0  0  0
  8 29  1  0  0  0  0
  9 30  1  0  0  0  0
  9 31  1  0  0  0  0
  9 32  1  0  0  0  0
 10 11  1  0  0  0  0
 10 33  1  0  0  0  0
 10 47  1  0  0  0  0
 11 12  1  0  0  0  0
 11 13  1  0  0  0  0
 11 34  1  0  0  0  0
 12 35  1  0  0  0  0
 12 36  1  0  0  0  0
 12 37  1  0  0  0  0
 13 14  2  0  0  0  0
 13 15  1  0  0  0  0
 15 19  1  0  0  0  0
 15 16  1  0  0  0  0
 16 17  1  0  0  0  0
 16 38  1  0  0  0  0
 16 39  1  0  0  0  0
 17 18  1  0  0  0  0
 17 40  1  0  0  0  0
 17 41  1  0  0  0  0
 18 19  1  0  0  0  0
 18 42  1  0  0  0  0
 18 43  1  0  0  0  0
 19 44  1  0  0  0  0
 19 45  1  0  0  0  0
 20 46  1  0  0  0  0
M  CHG  1  10   1
M  END
> <s_m_source_file>
AV-unprocessed.smi

> <i_m_source_file_index>
3335

> <i_lp_mmshare_version>
43012

> <i_f3d_flags>
0

> <s_epik_input>
W0NIM11jMVtjSF1ubihbY0hdMSlbQ0BIXShbQ0gzXSlbQ0BIXShbQ0gzXSlbTkhdW0NASF0oW0NIM10pQyg9TylOMltDSDJdW0NIMl1bQ0gyXVtDSDJdMg==

> <s_epik_cmdline>
J2VwaWtfcHl0aG9uJywgJy1waCcsICc3LjAnLCAnLXRuJywgJzgnLCAnLW1hJywgJzIwMCcsICctbWV0YWxfYmluZGluZycsICctaW1hZScsICc8aW5maWxlLm1hZT4nLCAnLW9tYWUnLCAnPG91dGZpbGUubWFlPic=

> <r_lp_tautomer_probability>
1

> <r_epik_Ionization_Penalty>
0.14175

> <r_epik_Ionization_Penalty_Charging>
0.141731

> <r_epik_Ionization_Penalty_Neutral>
1.91261e-05

> <r_epik_State_Penalty>
0.131043

> <r_epik_Charging_Adjusted_Penalty>
0.272773

> <i_epik_Tot_Q>
1

> <i_epik_Tot_abs_Q>
1

> <r_epik_Metal_State_Penalty>
0.131408

> <b_epik_Metal_Only>
0

> <s_lp_Force_Field>
OPLS_2005

> <r_lp_Energy>
36.2431

> <b_lp_Chiralities_Consistent>
1

> <s_lp_Variant>
AV-unprocessed.smi:3335-6

> <Gold.Version>
5.8.1

> <Gold.Id.Protein>
6NUR|6NUR_protein|mol2

> <Gold.PLP.Fitness>
45.4683

> <Gold.PLP.PLP>
-35.4780

> <Gold.PLP.part.hbond>
-4.0000

> <Gold.PLP.part.metal>
0.0000

> <Gold.PLP.part.buried>
3.8063

> <Gold.PLP.part.nonpolar>
-36.8927

> <Gold.PLP.part.repulsive>
2.5022

> <Gold.PLP.ligand.clash>
0.0000

> <Gold.PLP.ligand.torsion>
1.3263

> <Gold.PLP.Chemscore.Hbond>
3.7364

> <Gold.PLP.Chemscore.CHOScore>
0.3735

> <Gold.PLP.Chemscore.Metal>
0.0000

> <Gold.Chemscore.Hbonds>
donor molecule, donor type, donor heavy atom, donor atom, acceptor molecule, acceptor atom, score
      L1  H    10    33       P1  7948  1.92
      L1  H    10    47       P1  7957  0.96
      P1  H  8011  8017       L1    14  0.85
      L1  C    20    46       P1  7948  0.31

> <Gold.PLP.Chemscore.Internal.Correction>
0.3131

> <Gold.Rescore>
     Score         DG    S(hbond)    S(metal)    S(lipo)     H(rot)  DE(clash)    DE(int)     intcor
     14.90     -19.80       2.23        0.00      95.40       1.68       3.14       1.76       ----

> <Gold.Chemscore.Fitness>
14.9042

> <Gold.Chemscore.DG>
-19.7978

> <Gold.Chemscore.ZeroCoef>
-5.4800

> <Gold.Chemscore.Hbond>
2.2310

> <Gold.Chemscore.Metal>
0.0000

> <Gold.Chemscore.Lipo>
95.3978

> <Gold.Chemscore.Internal_Hbond>
0.0000

> <Gold.Chemscore.DEClash>
3.1363

> <Gold.Chemscore.DEInternal>
1.7573

> <Gold.Chemscore.Rot>
1.6778

> <Gold.Chemscore.Internal.Correction>
   9.000000E+99

> <Gold.Chemscore.Hbonds>
donor molecule, donor type, donor heavy atom, donor atom, acceptor molecule, acceptor atom, score
      L1  H    10    33       P1  7948  0.85
      L1  H    10    47       P1  7957  0.90
      P1  H  8011  8017       L1    14  0.79

> <Gold.Chemscore.Hbond.Weighted>
-7.4515

> <Gold.Chemscore.Metal.Weighted>
-0.0000

> <Gold.Chemscore.Lipo.Weighted>
-11.1615

> <Gold.Chemscore.Internal_Hbond.Weighted>
0.0000

> <Gold.Chemscore.DEClash.Weighted>
3.1363

> <Gold.Chemscore.DEInternal.Weighted>
1.7573

> <Gold.Chemscore.Rot.Weighted>
4.2952

> <Gold.Chemscore.Internal.Correction.Weighted>
   9.000000E+99

> <Gold.Protein.RotatedTorsions>
[ 6907 6896 6895 6894 ] final -121.44 input  -60.11 | X-H torsion
[ 7974 7965 7964 7962 ] final   -7.40 input  175.53 | X-H torsion
[ 8008 7997 7996 7995 ] final   99.56 input   59.86 | X-H torsion
[ 10167 10162 10161 10158 ] final  158.23 input  -65.29 | X-H torsion
[ 10718 10713 10712 10709 ] final   65.11 input   66.30 | X-H torsion
[ 10763 10752 10751 10750 ] final -151.58 input  -60.55 | X-H torsion
[ 11005 11000 10999 10996 ] final -105.58 input  -57.11 | X-H torsion

> <Gold.Protein.ActiveResidues>
 VAL166  LYS551  ARG553  GLY616  TRP617  ASP618  TYR619  PRO620  LYS621  CYS622 
 ASP623  PHE694  ASN695  SER759  ASP760  ASP761  ALA762  ILE779  LEU786  VAL792 
 PHE793  MET794  SER795  GLU796  ALA797  LYS798  CYS799  TRP800  GLU811  SER814 

> <Gold.Protein.RotatedAtoms>
  150.8483  133.7826  159.3034 H   0  0  0  0  0  0  0  0  0  0  0  0  # atno 6907 bound_to 6896
  151.5506  135.1066  159.9958 H   0  0  0  0  0  0  0  0  0  0  0  0  # atno 6908 bound_to 6896
  152.4532  133.7627  159.6812 H   0  0  0  0  0  0  0  0  0  0  0  0  # atno 6909 bound_to 6896
  146.2308  140.2313  142.8340 H   0  0  0  0  0  0  0  0  0  0  0  0  # atno 7974 bound_to 7965
  156.1117  140.3227  155.8082 H   0  0  0  0  0  0  0  0  0  0  0  0  # atno 8008 bound_to 7997
  155.4661  140.0543  157.3002 H   0  0  0  0  0  0  0  0  0  0  0  0  # atno 8009 bound_to 7997
  154.4765  140.2034  155.9881 H   0  0  0  0  0  0  0  0  0  0  0  0  # atno 8010 bound_to 7997
  139.4826  144.4844  151.8399 H   0  0  0  0  0  0  0  0  0  0  0  0  # atno 10167 bound_to 10162
  157.6084  130.9196  149.9933 H   0  0  0  0  0  0  0  0  0  0  0  0  # atno 10718 bound_to 10713
  154.8048  135.3256  154.7458 H   0  0  0  0  0  0  0  0  0  0  0  0  # atno 10763 bound_to 10752
  153.8119  135.6895  153.4844 H   0  0  0  0  0  0  0  0  0  0  0  0  # atno 10764 bound_to 10752
  153.1787  135.4595  154.9944 H   0  0  0  0  0  0  0  0  0  0  0  0  # atno 10765 bound_to 10752
  141.1047  133.8820  157.1751 H   0  0  0  0  0  0  0  0  0  0  0  0  # atno 11005 bound_to 11000
  144.9555  140.8222  143.5545 LP  0  0  0  0  0  0  0  0  0  0  0  0  # atno 17320 bound_to 7965
  145.2278  139.2129  143.5058 LP  0  0  0  0  0  0  0  0  0  0  0  0  # atno 17321 bound_to 7965
  140.4322  144.2100  150.5888 LP  0  0  0  0  0  0  0  0  0  0  0  0  # atno 17342 bound_to 10162
  140.4767  143.2393  151.9012 LP  0  0  0  0  0  0  0  0  0  0  0  0  # atno 17343 bound_to 10162
  156.1178  130.3647  149.9938 LP  0  0  0  0  0  0  0  0  0  0  0  0  # atno 17370 bound_to 10713
  156.8024  130.9295  151.3645 LP  0  0  0  0  0  0  0  0  0  0  0  0  # atno 17371 bound_to 10713
  139.9912  135.0064  156.9978 LP  0  0  0  0  0  0  0  0  0  0  0  0  # atno 17394 bound_to 11000
  140.4934  134.1170  155.7237 LP  0  0  0  0  0  0  0  0  0  0  0  0  # atno 17395 bound_to 11000

$$$$
