AV-unprocessed.smi:1586|AV-procd|sdf|6385|dock2
  -GOLD-   22720 7 23D 1   1.00000     0.00000
 Structure written by MMmdl.
 45 46  0  0  0  0  0  0  0  0  2 V2000
  152.3918  144.5545  158.2726 C   0  0  0  0  0  0  0  0  0  0  0  0
  152.5546  143.5417  159.4151 C   0  0  0  0  0  0  0  0  0  0  0  0
  152.6407  142.1446  158.9934 N   0  0  0  0  0  0  0  0  0  0  0  0
  152.9504  141.2776  160.1280 C   0  0  0  0  0  0  0  0  0  0  0  0
  153.0602  139.8011  159.7063 C   0  0  0  0  0  0  0  0  0  0  0  0
  151.8194  139.3060  159.0945 N   0  0  0  0  0  0  0  0  0  0  0  0
  151.9101  137.8839  158.6981 C   0  0  2  0  0  0  0  0  0  0  0  0
  152.8974  137.6305  157.5363 C   0  0  0  0  0  0  0  0  0  0  0  0
  150.5489  137.2480  158.3191 C   0  0  0  0  0  0  0  0  0  0  0  0
  149.5203  137.5453  159.3105 N   0  0  0  0  0  0  0  0  0  0  0  0
  148.6793  136.6513  159.8460 C   0  0  0  0  0  0  0  0  0  0  0  0
  148.7441  135.4679  159.5046 O   0  0  0  0  0  0  0  0  0  0  0  0
  147.8151  137.1836  160.7407 N   0  5  0  0  0  0  0  0  0  0  0  0
  146.8204  136.4382  161.2462 C   0  0  0  0  0  0  0  0  0  0  0  0
  145.5635  136.9197  161.7046 C   0  0  0  0  0  0  0  0  0  0  0  0
  144.9296  135.7856  162.1262 C   0  0  0  0  0  0  0  0  0  0  0  0
  143.5830  135.5384  162.7162 C   0  0  0  0  0  0  0  0  0  0  0  0
  145.7342  134.7028  161.9522 O   0  0  0  0  0  0  0  0  0  0  0  0
  146.9448  135.1297  161.3936 N   0  0  0  0  0  0  0  0  0  0  0  0
  151.5024  140.1889  157.9641 C   0  0  0  0  0  0  0  0  0  0  0  0
  151.3974  141.6654  158.3891 C   0  0  0  0  0  0  0  0  0  0  0  0
  152.4414  145.5737  158.6561 H   0  0  0  0  0  0  0  0  0  0  0  0
  151.4333  144.4472  157.7656 H   0  0  0  0  0  0  0  0  0  0  0  0
  153.1828  144.4410  157.5306 H   0  0  0  0  0  0  0  0  0  0  0  0
  153.4665  143.8020  159.9542 H   0  0  0  0  0  0  0  0  0  0  0  0
  151.7391  143.6645  160.1293 H   0  0  0  0  0  0  0  0  0  0  0  0
  153.8921  141.5881  160.5820 H   0  0  0  0  0  0  0  0  0  0  0  0
  152.1848  141.3802  160.8990 H   0  0  0  0  0  0  0  0  0  0  0  0
  153.8956  139.6747  159.0160 H   0  0  0  0  0  0  0  0  0  0  0  0
  153.3003  139.2278  160.6001 H   0  0  0  0  0  0  0  0  0  0  0  0
  152.2856  137.3208  159.5538 H   0  0  0  0  0  0  0  0  0  0  0  0
  152.8555  136.5938  157.2012 H   0  0  0  0  0  0  0  0  0  0  0  0
  153.9311  137.8124  157.8282 H   0  0  0  0  0  0  0  0  0  0  0  0
  152.6729  138.2623  156.6763 H   0  0  0  0  0  0  0  0  0  0  0  0
  150.2192  137.6273  157.3507 H   0  0  0  0  0  0  0  0  0  0  0  0
  150.6381  136.1695  158.1884 H   0  0  0  0  0  0  0  0  0  0  0  0
  149.4453  138.5039  159.6183 H   0  0  0  0  0  0  0  0  0  0  0  0
  145.1880  137.9318  161.7163 H   0  0  0  0  0  0  0  0  0  0  0  0
  142.7995  135.9172  162.0599 H   0  0  0  0  0  0  0  0  0  0  0  0
  143.4879  136.0372  163.6807 H   0  0  0  0  0  0  0  0  0  0  0  0
  143.4091  134.4729  162.8686 H   0  0  0  0  0  0  0  0  0  0  0  0
  152.2558  140.0821  157.1822 H   0  0  0  0  0  0  0  0  0  0  0  0
  150.5470  139.9116  157.5214 H   0  0  0  0  0  0  0  0  0  0  0  0
  150.5689  141.7868  159.0889 H   0  0  0  0  0  0  0  0  0  0  0  0
  151.1534  142.2601  157.5092 H   0  0  0  0  0  0  0  0  0  0  0  0
  1  2  1  0  0  0  0
  1 22  1  0  0  0  0
  1 23  1  0  0  0  0
  1 24  1  0  0  0  0
  2  3  1  0  0  0  0
  2 25  1  0  0  0  0
  2 26  1  0  0  0  0
  3 21  1  0  0  0  0
  3  4  1  0  0  0  0
  4  5  1  0  0  0  0
  4 27  1  0  0  0  0
  4 28  1  0  0  0  0
  5  6  1  0  0  0  0
  5 29  1  0  0  0  0
  5 30  1  0  0  0  0
  6  7  1  0  0  0  0
  6 20  1  0  0  0  0
  7  8  1  0  0  0  0
  7  9  1  0  0  0  0
  7 31  1  0  0  0  0
  8 32  1  0  0  0  0
  8 33  1  0  0  0  0
  8 34  1  0  0  0  0
  9 10  1  0  0  0  0
  9 35  1  0  0  0  0
  9 36  1  0  0  0  0
 10 11  1  0  0  0  0
 10 37  1  0  0  0  0
 11 12  2  0  0  0  0
 11 13  1  0  0  0  0
 13 14  1  0  0  0  0
 14 19  2  0  0  0  0
 14 15  1  0  0  0  0
 15 16  2  0  0  0  0
 15 38  1  0  0  0  0
 16 17  1  0  0  0  0
 16 18  1  0  0  0  0
 17 39  1  0  0  0  0
 17 40  1  0  0  0  0
 17 41  1  0  0  0  0
 18 19  1  0  0  0  0
 20 21  1  0  0  0  0
 20 42  1  0  0  0  0
 20 43  1  0  0  0  0
 21 44  1  0  0  0  0
 21 45  1  0  0  0  0
M  CHG  1  13  -1
M  END
> <s_m_source_file>
AV-unprocessed.smi

> <i_m_source_file_index>
1586

> <i_lp_mmshare_version>
43012

> <i_f3d_flags>
0

> <s_epik_input>
W0NIM11bQ0gyXU4xW0NIMl1bQ0gyXU4oW0NIMl1bQ0gyXTEpW0NASF0oW0NIM10pW0NIMl1bTkhdQyg9TylbTkhdYzJbY0hdYyhbQ0gzXSlvbjI=

> <s_epik_cmdline>
J2VwaWtfcHl0aG9uJywgJy1waCcsICc3LjAnLCAnLXRuJywgJzgnLCAnLW1hJywgJzIwMCcsICctbWV0YWxfYmluZGluZycsICctaW1hZScsICc8aW5maWxlLm1hZT4nLCAnLW9tYWUnLCAnPG91dGZpbGUubWFlPic=

> <r_epik_Ionization_Penalty>
9.09031

> <r_epik_Ionization_Penalty_Charging>
6.65437

> <r_epik_Ionization_Penalty_Neutral>
2.43594

> <r_epik_State_Penalty>
8.41762

> <r_epik_Charging_Adjusted_Penalty>
15.072

> <i_epik_Tot_Q>
-1

> <i_epik_Tot_abs_Q>
1

> <r_epik_Metal_State_Penalty>
4.3436

> <b_epik_Metal_Only>
1

> <s_lp_Force_Field>
OPLS_2005

> <r_lp_Energy>
37.6489

> <b_lp_Chiralities_Consistent>
1

> <s_lp_Variant>
AV-unprocessed.smi:1586-13

> <Gold.Version>
5.8.1

> <Gold.Id.Protein>
6NUR|6NUR_protein|mol2

> <Gold.PLP.Fitness>
48.9831

> <Gold.PLP.PLP>
-36.4175

> <Gold.PLP.part.hbond>
-3.0000

> <Gold.PLP.part.metal>
0.0000

> <Gold.PLP.part.buried>
-7.1803

> <Gold.PLP.part.nonpolar>
-27.8129

> <Gold.PLP.part.repulsive>
0.4795

> <Gold.PLP.ligand.clash>
0.0000

> <Gold.PLP.ligand.torsion>
0.4068

> <Gold.PLP.Chemscore.Hbond>
4.4240

> <Gold.PLP.Chemscore.CHOScore>
0.0000

> <Gold.PLP.Chemscore.Metal>
0.0000

> <Gold.Chemscore.Hbonds>
donor molecule, donor type, donor heavy atom, donor atom, acceptor molecule, acceptor atom, score
      P1  H  6896  6907       L1    12  0.76
      P1  H  6931  6943       L1    13  1.66
      P1  H  6934  6947       L1    13  1.70

> <Gold.PLP.Chemscore.Internal.Correction>
0.1073

> <Gold.Rescore>
     Score         DG    S(hbond)    S(metal)    S(lipo)     H(rot)  DE(clash)    DE(int)     intcor
     15.92     -17.95       1.97        0.00      87.15       1.68       0.02       2.01       ----

> <Gold.Chemscore.Fitness>
15.9236

> <Gold.Chemscore.DG>
-17.9497

> <Gold.Chemscore.ZeroCoef>
-5.4800

> <Gold.Chemscore.Hbond>
1.9674

> <Gold.Chemscore.Metal>
0.0000

> <Gold.Chemscore.Lipo>
87.1504

> <Gold.Chemscore.Internal_Hbond>
0.0000

> <Gold.Chemscore.DEClash>
0.0161

> <Gold.Chemscore.DEInternal>
2.0100

> <Gold.Chemscore.Rot>
1.6788

> <Gold.Chemscore.Internal.Correction>
   9.000000E+99

> <Gold.Chemscore.Hbonds>
donor molecule, donor type, donor heavy atom, donor atom, acceptor molecule, acceptor atom, score
      P1  H  6896  6907       L1    12  0.71
      P1  H  6931  6943       L1    13  0.28
      P1  H  6934  6947       L1    13  0.42

> <Gold.Chemscore.Hbond.Weighted>
-6.5710

> <Gold.Chemscore.Metal.Weighted>
-0.0000

> <Gold.Chemscore.Lipo.Weighted>
-10.1966

> <Gold.Chemscore.Internal_Hbond.Weighted>
0.0000

> <Gold.Chemscore.DEClash.Weighted>
0.0161

> <Gold.Chemscore.DEInternal.Weighted>
2.0100

> <Gold.Chemscore.Rot.Weighted>
4.2978

> <Gold.Chemscore.Internal.Correction.Weighted>
   9.000000E+99

> <Gold.Protein.RotatedTorsions>
[ 6907 6896 6895 6894 ] final  -73.91 input  -60.11 | X-H torsion
[ 7974 7965 7964 7962 ] final  -52.13 input  175.53 | X-H torsion
[ 8008 7997 7996 7995 ] final   26.33 input   59.86 | X-H torsion
[ 10167 10162 10161 10158 ] final   94.76 input  -65.29 | X-H torsion
[ 10718 10713 10712 10709 ] final -143.29 input   66.30 | X-H torsion
[ 10763 10752 10751 10750 ] final   90.18 input  -60.55 | X-H torsion
[ 11005 11000 10999 10996 ] final  114.69 input  -57.11 | X-H torsion

> <Gold.Protein.ActiveResidues>
 VAL166  LYS551  ARG553  GLY616  TRP617  ASP618  TYR619  PRO620  LYS621  CYS622 
 ASP623  PHE694  ASN695  SER759  ASP760  ASP761  ALA762  ILE779  LEU786  VAL792 
 PHE793  MET794  SER795  GLU796  ALA797  LYS798  CYS799  TRP800  GLU811  SER814 

> <Gold.Protein.RotatedAtoms>
  150.7112  134.4947  159.5532 H   0  0  0  0  0  0  0  0  0  0  0  0  # atno 6907 bound_to 6896
  152.2557  134.8084  160.0448 H   0  0  0  0  0  0  0  0  0  0  0  0  # atno 6908 bound_to 6896
  151.8815  133.3461  159.3805 H   0  0  0  0  0  0  0  0  0  0  0  0  # atno 6909 bound_to 6896
  145.9114  140.7912  142.9693 H   0  0  0  0  0  0  0  0  0  0  0  0  # atno 7974 bound_to 7965
  155.0256  140.3152  155.4777 H   0  0  0  0  0  0  0  0  0  0  0  0  # atno 8008 bound_to 7997
  156.2884  140.2189  156.5318 H   0  0  0  0  0  0  0  0  0  0  0  0  # atno 8009 bound_to 7997
  154.7414  140.0473  157.0802 H   0  0  0  0  0  0  0  0  0  0  0  0  # atno 8010 bound_to 7997
  139.8052  144.6797  150.9712 H   0  0  0  0  0  0  0  0  0  0  0  0  # atno 10167 bound_to 10162
  156.3562  130.7714  151.1874 H   0  0  0  0  0  0  0  0  0  0  0  0  # atno 10718 bound_to 10713
  153.1949  135.4443  155.0195 H   0  0  0  0  0  0  0  0  0  0  0  0  # atno 10763 bound_to 10752
  154.8113  135.3295  154.7301 H   0  0  0  0  0  0  0  0  0  0  0  0  # atno 10764 bound_to 10752
  153.7751  135.6981  153.4954 H   0  0  0  0  0  0  0  0  0  0  0  0  # atno 10765 bound_to 10752
  139.8988  134.9572  156.6930 H   0  0  0  0  0  0  0  0  0  0  0  0  # atno 11005 bound_to 11000
  144.6743  140.1831  143.7404 LP  0  0  0  0  0  0  0  0  0  0  0  0  # atno 17320 bound_to 7965
  145.8667  139.2250  143.1685 LP  0  0  0  0  0  0  0  0  0  0  0  0  # atno 17321 bound_to 7965
  140.7819  143.4240  151.0796 LP  0  0  0  0  0  0  0  0  0  0  0  0  # atno 17342 bound_to 10162
  139.7910  143.8219  152.3151 LP  0  0  0  0  0  0  0  0  0  0  0  0  # atno 17343 bound_to 10162
  157.7467  131.0413  150.4641 LP  0  0  0  0  0  0  0  0  0  0  0  0  # atno 17370 bound_to 10713
  156.4844  130.4081  149.6443 LP  0  0  0  0  0  0  0  0  0  0  0  0  # atno 17371 bound_to 10713
  140.7210  133.9141  155.8147 LP  0  0  0  0  0  0  0  0  0  0  0  0  # atno 17394 bound_to 11000
  141.0227  134.0866  157.4102 LP  0  0  0  0  0  0  0  0  0  0  0  0  # atno 17395 bound_to 11000

$$$$
