AV-unprocessed.smi:1321|AV-procd|sdf|5462|dock6
  -GOLD-   22720 5 33D 1   1.00000     0.00000
 Structure written by MMmdl.
 43 44  0  0  0  0  0  0  0  0  1 V2000
  152.9649  143.0551  159.8337 C   0  0  0  0  0  0  0  0  0  0  0  0
  151.9962  144.0320  159.1258 C   0  0  0  0  0  0  0  0  0  0  0  0
  151.5167  145.0812  160.1511 C   0  0  0  0  0  0  0  0  0  0  0  0
  152.7429  144.7487  157.9830 C   0  0  0  0  0  0  0  0  0  0  0  0
  150.7649  143.3119  158.5253 C   0  0  0  0  0  0  0  0  0  0  0  0
  149.6348  143.6259  158.9013 O   0  0  0  0  0  0  0  0  0  0  0  0
  150.9767  142.3700  157.5903 N   0  0  0  0  0  0  0  0  0  0  0  0
  149.9488  141.6599  156.8371 C   0  0  0  0  0  0  0  0  0  0  0  0
  150.5458  140.5795  155.9445 C   0  0  0  0  0  0  0  0  0  0  0  0
  151.8994  140.2173  156.1128 C   0  0  0  0  0  0  0  0  0  0  0  0
  152.4618  139.2434  155.2681 C   0  0  0  0  0  0  0  0  0  0  0  0
  151.6440  138.6670  154.2796 C   0  0  0  0  0  0  0  0  0  0  0  0
  150.3492  139.0025  154.1049 N   0  0  0  0  0  0  0  0  0  0  0  0
  149.8025  139.9411  154.9160 C   0  0  0  0  0  0  0  0  0  0  0  0
  148.4465  140.2532  154.7175 N   0  0  0  0  0  0  0  0  0  0  0  0
  147.5229  139.7898  155.7472 C   0  0  0  0  0  0  0  0  0  0  0  0
  146.0730  140.0506  155.3049 C   0  0  0  0  0  0  0  0  0  0  0  0
  145.9063  141.4348  155.0099 O   0  0  0  0  0  0  0  0  0  0  0  0
  146.7594  141.8639  153.9522 C   0  0  0  0  0  0  0  0  0  0  0  0
  148.2298  141.6463  154.3503 C   0  0  0  0  0  0  0  0  0  0  0  0
  153.8040  143.5899  160.2796 H   0  0  0  0  0  0  0  0  0  0  0  0
  153.3861  142.3250  159.1409 H   0  0  0  0  0  0  0  0  0  0  0  0
  152.4696  142.5084  160.6377 H   0  0  0  0  0  0  0  0  0  0  0  0
  150.9428  144.6197  160.9557 H   0  0  0  0  0  0  0  0  0  0  0  0
  150.8858  145.8428  159.6904 H   0  0  0  0  0  0  0  0  0  0  0  0
  152.3600  145.5995  160.6084 H   0  0  0  0  0  0  0  0  0  0  0  0
  153.6166  145.2833  158.3573 H   0  0  0  0  0  0  0  0  0  0  0  0
  152.1085  145.4793  157.4791 H   0  0  0  0  0  0  0  0  0  0  0  0
  153.0914  144.0411  157.2291 H   0  0  0  0  0  0  0  0  0  0  0  0
  151.9345  142.1655  157.3456 H   0  0  0  0  0  0  0  0  0  0  0  0
  149.2678  141.2010  157.5542 H   0  0  0  0  0  0  0  0  0  0  0  0
  149.3342  142.3379  156.2442 H   0  0  0  0  0  0  0  0  0  0  0  0
  152.5047  140.6839  156.8760 H   0  0  0  0  0  0  0  0  0  0  0  0
  153.4949  138.9478  155.3731 H   0  0  0  0  0  0  0  0  0  0  0  0
  152.0395  137.9167  153.6110 H   0  0  0  0  0  0  0  0  0  0  0  0
  147.6754  138.7251  155.9278 H   0  0  0  0  0  0  0  0  0  0  0  0
  147.7187  140.3117  156.6849 H   0  0  0  0  0  0  0  0  0  0  0  0
  145.8163  139.4486  154.4323 H   0  0  0  0  0  0  0  0  0  0  0  0
  145.3815  139.7704  156.0996 H   0  0  0  0  0  0  0  0  0  0  0  0
  146.5192  141.3236  153.0353 H   0  0  0  0  0  0  0  0  0  0  0  0
  146.5762  142.9201  153.7542 H   0  0  0  0  0  0  0  0  0  0  0  0
  148.4856  142.2857  155.1964 H   0  0  0  0  0  0  0  0  0  0  0  0
  148.8856  141.9285  153.5262 H   0  0  0  0  0  0  0  0  0  0  0  0
  1  2  1  0  0  0  0
  1 21  1  0  0  0  0
  1 22  1  0  0  0  0
  1 23  1  0  0  0  0
  2  3  1  0  0  0  0
  2  4  1  0  0  0  0
  2  5  1  0  0  0  0
  3 24  1  0  0  0  0
  3 25  1  0  0  0  0
  3 26  1  0  0  0  0
  4 27  1  0  0  0  0
  4 28  1  0  0  0  0
  4 29  1  0  0  0  0
  5  6  2  0  0  0  0
  5  7  1  0  0  0  0
  7  8  1  0  0  0  0
  7 30  1  0  0  0  0
  8  9  1  0  0  0  0
  8 31  1  0  0  0  0
  8 32  1  0  0  0  0
  9 14  1  0  0  0  0
  9 10  2  0  0  0  0
 10 11  1  0  0  0  0
 10 33  1  0  0  0  0
 11 12  2  0  0  0  0
 11 34  1  0  0  0  0
 12 13  1  0  0  0  0
 12 35  1  0  0  0  0
 13 14  2  0  0  0  0
 14 15  1  0  0  0  0
 15 20  1  0  0  0  0
 15 16  1  0  0  0  0
 16 17  1  0  0  0  0
 16 36  1  0  0  0  0
 16 37  1  0  0  0  0
 17 18  1  0  0  0  0
 17 38  1  0  0  0  0
 17 39  1  0  0  0  0
 18 19  1  0  0  0  0
 19 20  1  0  0  0  0
 19 40  1  0  0  0  0
 19 41  1  0  0  0  0
 20 42  1  0  0  0  0
 20 43  1  0  0  0  0
M  END
> <s_m_source_file>
AV-unprocessed.smi

> <i_m_source_file_index>
1321

> <i_lp_mmshare_version>
43012

> <i_f3d_flags>
0

> <s_epik_input>
W0NIM11DKFtDSDNdKShbQ0gzXSlDKD1PKVtOSF1bQ0gyXWMxW2NIXVtjSF1bY0hdbmMxTjJbQ0gyXVtDSDJdT1tDSDJdW0NIMl0y

> <s_epik_cmdline>
J2VwaWtfcHl0aG9uJywgJy1waCcsICc3LjAnLCAnLXRuJywgJzgnLCAnLW1hJywgJzIwMCcsICctbWV0YWxfYmluZGluZycsICctaW1hZScsICc8aW5maWxlLm1hZT4nLCAnLW9tYWUnLCAnPG91dGZpbGUubWFlPic=

> <r_lp_tautomer_probability>
1

> <r_epik_Ionization_Penalty>
0.0052234

> <r_epik_Ionization_Penalty_Charging>
0

> <r_epik_Ionization_Penalty_Neutral>
0.0052234

> <r_epik_State_Penalty>
0.0038086

> <r_epik_Charging_Adjusted_Penalty>
0.0038086

> <i_epik_Tot_Q>
0

> <i_epik_Tot_abs_Q>
0

> <r_epik_Metal_State_Penalty>
-0

> <b_epik_Metal_Only>
0

> <s_lp_Force_Field>
OPLS_2005

> <r_lp_Energy>
23.2048

> <b_lp_Chiralities_Consistent>
1

> <s_lp_Variant>
AV-unprocessed.smi:1321-1

> <Gold.Version>
5.8.1

> <Gold.Id.Protein>
6NUR|6NUR_protein|mol2

> <Gold.PLP.Fitness>
42.9546

> <Gold.PLP.PLP>
-43.3033

> <Gold.PLP.part.hbond>
-0.0783

> <Gold.PLP.part.metal>
0.0000

> <Gold.PLP.part.buried>
-6.6782

> <Gold.PLP.part.nonpolar>
-36.9669

> <Gold.PLP.part.repulsive>
0.6523

> <Gold.PLP.ligand.clash>
0.0000

> <Gold.PLP.ligand.torsion>
0.2645

> <Gold.PLP.Chemscore.Hbond>
0.0000

> <Gold.PLP.Chemscore.CHOScore>
0.0000

> <Gold.PLP.Chemscore.Metal>
0.0000

> <Gold.PLP.Chemscore.Internal.Correction>
0.1804

> <Gold.Rescore>
     Score         DG    S(hbond)    S(metal)    S(lipo)     H(rot)  DE(clash)    DE(int)     intcor
     14.06     -14.40       0.00        0.00     109.41       1.52       0.11       0.23       ----

> <Gold.Chemscore.Fitness>
14.0588

> <Gold.Chemscore.DG>
-14.3971

> <Gold.Chemscore.ZeroCoef>
-5.4800

> <Gold.Chemscore.Hbond>
0.0000

> <Gold.Chemscore.Metal>
0.0000

> <Gold.Chemscore.Lipo>
109.4139

> <Gold.Chemscore.Internal_Hbond>
0.0000

> <Gold.Chemscore.DEClash>
0.1087

> <Gold.Chemscore.DEInternal>
0.2297

> <Gold.Chemscore.Rot>
1.5173

> <Gold.Chemscore.Internal.Correction>
   9.000000E+99

> <Gold.Chemscore.Hbond.Weighted>
-0.0000

> <Gold.Chemscore.Metal.Weighted>
-0.0000

> <Gold.Chemscore.Lipo.Weighted>
-12.8014

> <Gold.Chemscore.Internal_Hbond.Weighted>
0.0000

> <Gold.Chemscore.DEClash.Weighted>
0.1087

> <Gold.Chemscore.DEInternal.Weighted>
0.2297

> <Gold.Chemscore.Rot.Weighted>
3.8843

> <Gold.Chemscore.Internal.Correction.Weighted>
   9.000000E+99

> <Gold.Protein.RotatedTorsions>
[ 6907 6896 6895 6894 ] final -103.38 input  -60.11 | X-H torsion
[ 7974 7965 7964 7962 ] final  116.83 input  175.53 | X-H torsion
[ 8008 7997 7996 7995 ] final -134.91 input   59.86 | X-H torsion
[ 10167 10162 10161 10158 ] final    0.41 input  -65.29 | X-H torsion
[ 10718 10713 10712 10709 ] final   43.47 input   66.30 | X-H torsion
[ 10763 10752 10751 10750 ] final -126.58 input  -60.55 | X-H torsion
[ 11005 11000 10999 10996 ] final  144.20 input  -57.11 | X-H torsion

> <Gold.Protein.ActiveResidues>
 VAL166  LYS551  ARG553  GLY616  TRP617  ASP618  TYR619  PRO620  LYS621  CYS622 
 ASP623  PHE694  ASN695  SER759  ASP760  ASP761  ALA762  ILE779  LEU786  VAL792 
 PHE793  MET794  SER795  GLU796  ALA797  LYS798  CYS799  TRP800  GLU811  SER814 

> <Gold.Protein.RotatedAtoms>
  150.7238  134.0438  159.3774 H   0  0  0  0  0  0  0  0  0  0  0  0  # atno 6907 bound_to 6896
  151.8412  135.0587  160.0457 H   0  0  0  0  0  0  0  0  0  0  0  0  # atno 6908 bound_to 6896
  152.2861  133.5480  159.5564 H   0  0  0  0  0  0  0  0  0  0  0  0  # atno 6909 bound_to 6896
  145.1748  139.3082  143.4449 H   0  0  0  0  0  0  0  0  0  0  0  0  # atno 7974 bound_to 7965
  155.3699  140.0487  157.3045 H   0  0  0  0  0  0  0  0  0  0  0  0  # atno 8008 bound_to 7997
  154.5135  140.2200  155.9073 H   0  0  0  0  0  0  0  0  0  0  0  0  # atno 8009 bound_to 7997
  156.1610  140.3116  155.8813 H   0  0  0  0  0  0  0  0  0  0  0  0  # atno 8010 bound_to 7997
  140.6730  143.6996  150.7962 H   0  0  0  0  0  0  0  0  0  0  0  0  # atno 10167 bound_to 10162
  157.4162  130.7943  149.7474 H   0  0  0  0  0  0  0  0  0  0  0  0  # atno 10718 bound_to 10713
  154.8746  135.3991  154.3454 H   0  0  0  0  0  0  0  0  0  0  0  0  # atno 10763 bound_to 10752
  153.4247  135.7024  153.6276 H   0  0  0  0  0  0  0  0  0  0  0  0  # atno 10764 bound_to 10752
  153.4923  135.3745  155.2468 H   0  0  0  0  0  0  0  0  0  0  0  0  # atno 10765 bound_to 10752
  140.0614  134.9202  157.1190 H   0  0  0  0  0  0  0  0  0  0  0  0  # atno 11005 bound_to 11000
  146.3463  140.1906  142.8589 LP  0  0  0  0  0  0  0  0  0  0  0  0  # atno 17320 bound_to 7965
  145.0196  140.8782  143.5175 LP  0  0  0  0  0  0  0  0  0  0  0  0  # atno 17321 bound_to 7965
  140.0685  143.5085  152.2592 LP  0  0  0  0  0  0  0  0  0  0  0  0  # atno 17342 bound_to 10162
  139.6007  144.7581  151.3178 LP  0  0  0  0  0  0  0  0  0  0  0  0  # atno 17343 bound_to 10162
  155.9866  130.3973  150.3205 LP  0  0  0  0  0  0  0  0  0  0  0  0  # atno 17370 bound_to 10713
  157.1348  131.0281  151.2953 LP  0  0  0  0  0  0  0  0  0  0  0  0  # atno 17371 bound_to 10713
  140.3765  134.2333  155.7174 LP  0  0  0  0  0  0  0  0  0  0  0  0  # atno 17394 bound_to 11000
  141.1974  133.8059  157.0627 LP  0  0  0  0  0  0  0  0  0  0  0  0  # atno 17395 bound_to 11000

$$$$
