AV-unprocessed.smi:699|AV-procd|sdf|3402|dock2
  -GOLD-   22720 0383D 1   1.00000     0.00000
 Structure written by MMmdl.
 34 35  0  0  0  0  0  0  0  0  1 V2000
  151.7536  140.5373  158.7514 N   0  0  0  0  0  0  0  0  0  0  0  0
  152.2001  141.5287  159.5265 C   0  0  0  0  0  0  0  0  0  0  0  0
  152.9977  141.3328  160.4417 O   0  0  0  0  0  0  0  0  0  0  0  0
  151.6727  142.9402  159.2274 C   0  0  1  0  0  0  0  0  0  0  0  0
  152.2070  144.0026  160.1984 C   0  0  0  0  0  0  0  0  0  0  0  0
  152.0878  145.3113  159.4232 C   0  0  0  0  0  0  0  0  0  0  0  0
  152.4413  144.9372  157.9838 C   0  0  0  0  0  0  0  0  0  0  0  0
  152.0632  143.4509  157.8186 C   0  0  2  0  0  0  0  0  0  0  0  0
  150.9624  143.2648  156.8748 N   0  0  0  0  0  0  0  0  0  0  0  0
  150.7508  142.1614  156.1429 C   0  0  0  0  0  0  0  0  0  0  0  0
  151.4857  141.1750  156.1792 O   0  0  0  0  0  0  0  0  0  0  0  0
  149.6576  142.2956  155.3713 N   0  0  0  0  0  0  0  0  0  0  0  0
  149.0845  141.3697  154.4563 C   0  0  0  0  0  0  0  0  0  0  0  0
  147.9394  141.7825  153.7437 C   0  0  0  0  0  0  0  0  0  0  0  0
  147.3400  140.8841  152.8387 C   0  0  0  0  0  0  0  0  0  0  0  0
  147.8009  139.6350  152.6191 N   0  0  0  0  0  0  0  0  0  0  0  0
  148.8895  139.2363  153.3102 C   0  0  0  0  0  0  0  0  0  0  0  0
  149.5640  140.0551  154.2381 C   0  0  0  0  0  0  0  0  0  0  0  0
  152.0705  139.5930  158.9167 H   0  0  0  0  0  0  0  0  0  0  0  0
  151.0987  140.7314  158.0080 H   0  0  0  0  0  0  0  0  0  0  0  0
  150.5842  142.9412  159.3186 H   0  0  0  0  0  0  0  0  0  0  0  0
  151.6444  144.0305  161.1320 H   0  0  0  0  0  0  0  0  0  0  0  0
  153.2538  143.8207  160.4472 H   0  0  0  0  0  0  0  0  0  0  0  0
  151.0582  145.6694  159.4660 H   0  0  0  0  0  0  0  0  0  0  0  0
  152.7299  146.0969  159.8224 H   0  0  0  0  0  0  0  0  0  0  0  0
  151.9484  145.5936  157.2655 H   0  0  0  0  0  0  0  0  0  0  0  0
  153.5158  145.0516  157.8337 H   0  0  0  0  0  0  0  0  0  0  0  0
  152.9363  142.9121  157.4437 H   0  0  0  0  0  0  0  0  0  0  0  0
  150.3136  144.0320  156.7770 H   0  0  0  0  0  0  0  0  0  0  0  0
  149.1996  143.1941  155.4124 H   0  0  0  0  0  0  0  0  0  0  0  0
  147.5260  142.7711  153.8812 H   0  0  0  0  0  0  0  0  0  0  0  0
  146.4651  141.1772  152.2775 H   0  0  0  0  0  0  0  0  0  0  0  0
  149.2318  138.2293  153.1224 H   0  0  0  0  0  0  0  0  0  0  0  0
  150.4174  139.6544  154.7619 H   0  0  0  0  0  0  0  0  0  0  0  0
  1  2  1  0  0  0  0
  1 19  1  0  0  0  0
  1 20  1  0  0  0  0
  2  3  2  0  0  0  0
  2  4  1  0  0  0  0
  4  8  1  0  0  0  0
  4  5  1  0  0  0  0
  4 21  1  0  0  0  0
  5  6  1  0  0  0  0
  5 22  1  0  0  0  0
  5 23  1  0  0  0  0
  6  7  1  0  0  0  0
  6 24  1  0  0  0  0
  6 25  1  0  0  0  0
  7  8  1  0  0  0  0
  7 26  1  0  0  0  0
  7 27  1  0  0  0  0
  8  9  1  0  0  0  0
  8 28  1  0  0  0  0
  9 10  1  0  0  0  0
  9 29  1  0  0  0  0
 10 11  2  0  0  0  0
 10 12  1  0  0  0  0
 12 13  1  0  0  0  0
 12 30  1  0  0  0  0
 13 18  1  0  0  0  0
 13 14  2  0  0  0  0
 14 15  1  0  0  0  0
 14 31  1  0  0  0  0
 15 16  2  0  0  0  0
 15 32  1  0  0  0  0
 16 17  1  0  0  0  0
 17 18  2  0  0  0  0
 17 33  1  0  0  0  0
 18 34  1  0  0  0  0
M  END
> <s_m_source_file>
AV-unprocessed.smi

> <i_m_source_file_index>
699

> <i_lp_mmshare_version>
43012

> <i_f3d_flags>
0

> <s_epik_input>
W05IMl1DKD1PKVtDQEBIXTFbQ0gyXVtDSDJdW0NIMl1bQ0BIXTFbTkhdQyg9TylbTkhdYzJbY0hdW2NIXW5bY0hdW2NIXTI=

> <s_epik_cmdline>
J2VwaWtfcHl0aG9uJywgJy1waCcsICc3LjAnLCAnLXRuJywgJzgnLCAnLW1hJywgJzIwMCcsICctbWV0YWxfYmluZGluZycsICctaW1hZScsICc8aW5maWxlLm1hZT4nLCAnLW9tYWUnLCAnPG91dGZpbGUubWFlPic=

> <r_epik_Ionization_Penalty>
0.113907

> <r_epik_Ionization_Penalty_Charging>
0

> <r_epik_Ionization_Penalty_Neutral>
0.113907

> <r_epik_State_Penalty>
0.103543

> <r_epik_Charging_Adjusted_Penalty>
0.103543

> <i_epik_Tot_Q>
0

> <i_epik_Tot_abs_Q>
0

> <r_epik_Metal_State_Penalty>
0.0867106

> <b_epik_Metal_Only>
0

> <s_lp_Force_Field>
OPLS_2005

> <r_lp_Energy>
21.0397

> <b_lp_Chiralities_Consistent>
1

> <s_lp_Variant>
AV-unprocessed.smi:699-4

> <Gold.Version>
5.8.1

> <Gold.Id.Protein>
6NUR|6NUR_protein|mol2

> <Gold.PLP.Fitness>
49.3514

> <Gold.PLP.PLP>
-38.4130

> <Gold.PLP.part.hbond>
-2.0000

> <Gold.PLP.part.metal>
0.0000

> <Gold.PLP.part.buried>
-6.7803

> <Gold.PLP.part.nonpolar>
-31.6118

> <Gold.PLP.part.repulsive>
1.5385

> <Gold.PLP.ligand.clash>
0.0000

> <Gold.PLP.ligand.torsion>
0.3813

> <Gold.PLP.Chemscore.Hbond>
1.9120

> <Gold.PLP.Chemscore.CHOScore>
1.9874

> <Gold.PLP.Chemscore.Metal>
0.0000

> <Gold.Chemscore.Hbonds>
donor molecule, donor type, donor heavy atom, donor atom, acceptor molecule, acceptor atom, score
      L1  H     9    29       P1  8028  0.88
      L1  H    12    30       P1  8028  1.00
      L1  C    15    32       P1 10175  0.11
      L1  C    17    33       P1  7948  1.00

> <Gold.PLP.Chemscore.Internal.Correction>
0.0028

> <Gold.Rescore>
     Score         DG    S(hbond)    S(metal)    S(lipo)     H(rot)  DE(clash)    DE(int)     intcor
     16.90     -18.87       1.85        0.00      94.18       1.49       0.21       1.76       ----

> <Gold.Chemscore.Fitness>
16.8999

> <Gold.Chemscore.DG>
-18.8740

> <Gold.Chemscore.ZeroCoef>
-5.4800

> <Gold.Chemscore.Hbond>
1.8525

> <Gold.Chemscore.Metal>
0.0000

> <Gold.Chemscore.Lipo>
94.1792

> <Gold.Chemscore.Internal_Hbond>
0.0000

> <Gold.Chemscore.DEClash>
0.2124

> <Gold.Chemscore.DEInternal>
1.7617

> <Gold.Chemscore.Rot>
1.4892

> <Gold.Chemscore.Internal.Correction>
   9.000000E+99

> <Gold.Chemscore.Hbonds>
donor molecule, donor type, donor heavy atom, donor atom, acceptor molecule, acceptor atom, score
      L1  H     9    29       P1  8028  0.86
      L1  H    12    30       P1  8028  0.97

> <Gold.Chemscore.Hbond.Weighted>
-6.1873

> <Gold.Chemscore.Metal.Weighted>
-0.0000

> <Gold.Chemscore.Lipo.Weighted>
-11.0190

> <Gold.Chemscore.Internal_Hbond.Weighted>
0.0000

> <Gold.Chemscore.DEClash.Weighted>
0.2124

> <Gold.Chemscore.DEInternal.Weighted>
1.7617

> <Gold.Chemscore.Rot.Weighted>
3.8123

> <Gold.Chemscore.Internal.Correction.Weighted>
   9.000000E+99

> <Gold.Protein.RotatedTorsions>
[ 6907 6896 6895 6894 ] final   52.58 input  -60.11 | X-H torsion
[ 7974 7965 7964 7962 ] final  169.66 input  175.53 | X-H torsion
[ 8008 7997 7996 7995 ] final -119.30 input   59.86 | X-H torsion
[ 10167 10162 10161 10158 ] final -124.31 input  -65.29 | X-H torsion
[ 10718 10713 10712 10709 ] final   24.63 input   66.30 | X-H torsion
[ 10763 10752 10751 10750 ] final  -65.88 input  -60.55 | X-H torsion
[ 11005 11000 10999 10996 ] final  -78.72 input  -57.11 | X-H torsion

> <Gold.Protein.ActiveResidues>
 VAL166  LYS551  ARG553  GLY616  TRP617  ASP618  TYR619  PRO620  LYS621  CYS622 
 ASP623  PHE694  ASN695  SER759  ASP760  ASP761  ALA762  ILE779  LEU786  VAL792 
 PHE793  MET794  SER795  GLU796  ALA797  LYS798  CYS799  TRP800  GLU811  SER814 

> <Gold.Protein.RotatedAtoms>
  152.3248  134.7335  160.0304 H   0  0  0  0  0  0  0  0  0  0  0  0  # atno 6907 bound_to 6896
  151.7771  133.3341  159.3469 H   0  0  0  0  0  0  0  0  0  0  0  0  # atno 6908 bound_to 6896
  150.7389  134.5896  159.6025 H   0  0  0  0  0  0  0  0  0  0  0  0  # atno 6909 bound_to 6896
  144.7348  139.9087  143.6414 H   0  0  0  0  0  0  0  0  0  0  0  0  # atno 7974 bound_to 7965
  155.1136  140.0397  157.2731 H   0  0  0  0  0  0  0  0  0  0  0  0  # atno 8008 bound_to 7997
  154.6667  140.2603  155.7025 H   0  0  0  0  0  0  0  0  0  0  0  0  # atno 8009 bound_to 7997
  156.2641  140.2806  156.1160 H   0  0  0  0  0  0  0  0  0  0  0  0  # atno 8010 bound_to 7997
  139.9942  143.5609  152.2330 H   0  0  0  0  0  0  0  0  0  0  0  0  # atno 10167 bound_to 10162
  157.1824  130.6808  149.6118 H   0  0  0  0  0  0  0  0  0  0  0  0  # atno 10718 bound_to 10713
  154.3516  135.6135  153.5645 H   0  0  0  0  0  0  0  0  0  0  0  0  # atno 10763 bound_to 10752
  152.9798  135.5793  154.4737 H   0  0  0  0  0  0  0  0  0  0  0  0  # atno 10764 bound_to 10752
  154.4459  135.2851  155.1792 H   0  0  0  0  0  0  0  0  0  0  0  0  # atno 10765 bound_to 10752
  141.1665  133.7075  156.8014 H   0  0  0  0  0  0  0  0  0  0  0  0  # atno 11005 bound_to 11000
  146.1017  139.4013  143.0342 LP  0  0  0  0  0  0  0  0  0  0  0  0  # atno 17320 bound_to 7965
  145.7569  140.9951  143.1221 LP  0  0  0  0  0  0  0  0  0  0  0  0  # atno 17321 bound_to 7965
  139.6318  144.7645  151.2520 LP  0  0  0  0  0  0  0  0  0  0  0  0  # atno 17342 bound_to 10162
  140.7443  143.6466  150.8286 LP  0  0  0  0  0  0  0  0  0  0  0  0  # atno 17343 bound_to 10162
  155.9722  130.4642  150.6210 LP  0  0  0  0  0  0  0  0  0  0  0  0  # atno 17370 bound_to 10713
  157.3940  131.0800  151.1368 LP  0  0  0  0  0  0  0  0  0  0  0  0  # atno 17371 bound_to 10713
  140.2253  134.8726  157.3420 LP  0  0  0  0  0  0  0  0  0  0  0  0  # atno 17394 bound_to 11000
  140.1946  134.4330  155.7696 LP  0  0  0  0  0  0  0  0  0  0  0  0  # atno 17395 bound_to 11000

$$$$
