AV-unprocessed.smi:1661|AV-procd|sdf|6656|dock3
  -GOLD-   22720 7363D 1   1.00000     0.00000
 Structure written by MMmdl.
 37 38  0  0  0  0  0  0  0  0  3 V2000
  151.9119  145.3298  158.7749 C   0  0  0  0  0  0  0  0  0  0  0  0
  151.3376  144.3645  159.8266 C   0  0  2  0  0  0  0  0  0  0  0  0
  152.3963  143.4011  160.3927 C   0  0  0  0  0  0  0  0  0  0  0  0
  152.7784  142.2990  159.3884 C   0  0  0  0  0  0  0  0  0  0  0  0
  151.5818  141.5469  158.9301 N   0  3  2  0  0  0  0  0  0  0  0  0
  151.9423  140.3974  158.0632 C   0  0  0  0  0  0  0  0  0  0  0  0
  152.9244  139.4303  158.7506 C   0  0  0  0  0  0  0  0  0  0  0  0
  152.2217  138.3101  159.3646 N   0  0  0  0  0  0  0  0  0  0  0  0
  151.3426  137.5067  158.7492 C   0  0  0  0  0  0  0  0  0  0  0  0
  151.0760  137.6856  157.5585 O   0  0  0  0  0  0  0  0  0  0  0  0
  150.8240  136.5516  159.5529 N   0  5  0  0  0  0  0  0  0  0  0  0
  149.5425  136.6302  159.9482 C   0  0  0  0  0  0  0  0  0  0  0  0
  148.7395  137.6429  159.5841 N   0  0  0  0  0  0  0  0  0  0  0  0
  147.4536  137.5312  160.0955 N   0  0  0  0  0  0  0  0  0  0  0  0
  147.3170  136.4271  160.8295 C   0  0  0  0  0  0  0  0  0  0  0  0
  148.7454  135.4227  160.9604 S   0  0  0  0  0  0  0  0  0  0  0  0
  150.5700  142.4484  158.3177 C   0  0  0  0  0  0  0  0  0  0  0  0
  150.1402  143.5539  159.2990 C   0  0  0  0  0  0  0  0  0  0  0  0
  152.3001  144.8054  157.9023 H   0  0  0  0  0  0  0  0  0  0  0  0
  152.7267  145.9217  159.1926 H   0  0  0  0  0  0  0  0  0  0  0  0
  151.1485  146.0265  158.4275 H   0  0  0  0  0  0  0  0  0  0  0  0
  150.9801  144.9836  160.6504 H   0  0  0  0  0  0  0  0  0  0  0  0
  153.2852  143.9536  160.6992 H   0  0  0  0  0  0  0  0  0  0  0  0
  152.0056  142.9332  161.2973 H   0  0  0  0  0  0  0  0  0  0  0  0
  153.2958  142.7252  158.5278 H   0  0  0  0  0  0  0  0  0  0  0  0
  153.4795  141.6148  159.8677 H   0  0  0  0  0  0  0  0  0  0  0  0
  151.0395  139.8736  157.7450 H   0  0  0  0  0  0  0  0  0  0  0  0
  152.4127  140.7749  157.1542 H   0  0  0  0  0  0  0  0  0  0  0  0
  153.6644  139.0617  158.0382 H   0  0  0  0  0  0  0  0  0  0  0  0
  153.4788  139.9334  159.5413 H   0  0  0  0  0  0  0  0  0  0  0  0
  152.4154  138.1246  160.3380 H   0  0  0  0  0  0  0  0  0  0  0  0
  146.3690  136.2008  161.2938 H   0  0  0  0  0  0  0  0  0  0  0  0
  150.9742  142.8857  157.4038 H   0  0  0  0  0  0  0  0  0  0  0  0
  149.6869  141.8816  158.0256 H   0  0  0  0  0  0  0  0  0  0  0  0
  149.6201  143.0953  160.1412 H   0  0  0  0  0  0  0  0  0  0  0  0
  149.4165  144.2162  158.8225 H   0  0  0  0  0  0  0  0  0  0  0  0
  151.1639  141.1536  159.7612 H   0  0  0  0  0  0  0  0  0  0  0  0
  1  2  1  0  0  0  0
  1 19  1  0  0  0  0
  1 20  1  0  0  0  0
  1 21  1  0  0  0  0
  2 18  1  0  0  0  0
  2  3  1  0  0  0  0
  2 22  1  0  0  0  0
  3  4  1  0  0  0  0
  3 23  1  0  0  0  0
  3 24  1  0  0  0  0
  4  5  1  0  0  0  0
  4 25  1  0  0  0  0
  4 26  1  0  0  0  0
  5  6  1  0  0  0  0
  5 17  1  0  0  0  0
  5 37  1  0  0  0  0
  6  7  1  0  0  0  0
  6 27  1  0  0  0  0
  6 28  1  0  0  0  0
  7  8  1  0  0  0  0
  7 29  1  0  0  0  0
  7 30  1  0  0  0  0
  8  9  1  0  0  0  0
  8 31  1  0  0  0  0
  9 10  2  0  0  0  0
  9 11  1  0  0  0  0
 11 12  1  0  0  0  0
 12 16  1  0  0  0  0
 12 13  2  0  0  0  0
 13 14  1  0  0  0  0
 14 15  2  0  0  0  0
 15 16  1  0  0  0  0
 15 32  1  0  0  0  0
 17 18  1  0  0  0  0
 17 33  1  0  0  0  0
 17 34  1  0  0  0  0
 18 35  1  0  0  0  0
 18 36  1  0  0  0  0
M  CHG  1   5   1
M  CHG  1  11  -1
M  END
> <s_m_source_file>
AV-unprocessed.smi

> <i_m_source_file_index>
1661

> <i_lp_mmshare_version>
43012

> <i_f3d_flags>
0

> <s_epik_input>
W0NIM11bQ0hdMVtDSDJdW0NIMl1OKFtDSDJdW0NIMl0xKVtDSDJdW0NIMl1bTkhdQyg9TylbTkhdYzJubltjSF1zMg==

> <s_epik_cmdline>
J2VwaWtfcHl0aG9uJywgJy1waCcsICc3LjAnLCAnLXRuJywgJzgnLCAnLW1hJywgJzIwMCcsICctbWV0YWxfYmluZGluZycsICctaW1hZScsICc8aW5maWxlLm1hZT4nLCAnLW9tYWUnLCAnPG91dGZpbGUubWFlPic=

> <r_lp_tautomer_probability>
1

> <r_epik_Ionization_Penalty>
3.04466

> <r_epik_Ionization_Penalty_Charging>
3.01305

> <r_epik_Ionization_Penalty_Neutral>
0.0316037

> <r_epik_State_Penalty>
3.00821

> <r_epik_Charging_Adjusted_Penalty>
6.02127

> <i_epik_Tot_Q>
0

> <i_epik_Tot_abs_Q>
2

> <r_epik_Metal_State_Penalty>
0.454395

> <b_epik_Metal_Only>
1

> <s_lp_Force_Field>
OPLS_2005

> <r_lp_Energy>
9.834

> <b_lp_Chiralities_Consistent>
1

> <s_lp_Variant>
AV-unprocessed.smi:1661-4

> <Gold.Version>
5.8.1

> <Gold.Id.Protein>
6NUR|6NUR_protein|mol2

> <Gold.PLP.Fitness>
39.3819

> <Gold.PLP.PLP>
-32.8339

> <Gold.PLP.part.hbond>
-3.2740

> <Gold.PLP.part.metal>
0.0000

> <Gold.PLP.part.buried>
-5.5988

> <Gold.PLP.part.nonpolar>
-25.0709

> <Gold.PLP.part.repulsive>
0.2340

> <Gold.PLP.ligand.clash>
0.0000

> <Gold.PLP.ligand.torsion>
0.9532

> <Gold.PLP.Chemscore.Hbond>
2.7840

> <Gold.PLP.Chemscore.CHOScore>
0.0000

> <Gold.PLP.Chemscore.Metal>
0.0000

> <Gold.Chemscore.Hbonds>
donor molecule, donor type, donor heavy atom, donor atom, acceptor molecule, acceptor atom, score
      P1  H  6896  6907       L1    11  1.16
      P1  H  6934  6947       L1    14  0.93

> <Gold.PLP.Chemscore.Internal.Correction>
0.1024

> <Gold.Rescore>
     Score         DG    S(hbond)    S(metal)    S(lipo)     H(rot)  DE(clash)    DE(int)     intcor
     12.95     -13.97       0.94        0.00      82.50       1.68       0.00       1.01       ----

> <Gold.Chemscore.Fitness>
12.9547

> <Gold.Chemscore.DG>
-13.9702

> <Gold.Chemscore.ZeroCoef>
-5.4800

> <Gold.Chemscore.Hbond>
0.9381

> <Gold.Chemscore.Metal>
0.0000

> <Gold.Chemscore.Lipo>
82.4958

> <Gold.Chemscore.Internal_Hbond>
0.0000

> <Gold.Chemscore.DEClash>
0.0038

> <Gold.Chemscore.DEInternal>
1.0117

> <Gold.Chemscore.Rot>
1.6777

> <Gold.Chemscore.Internal.Correction>
   9.000000E+99

> <Gold.Chemscore.Hbonds>
donor molecule, donor type, donor heavy atom, donor atom, acceptor molecule, acceptor atom, score
      P1  H  6896  6907       L1    11  0.06
      P1  H  6934  6947       L1    14  0.38

> <Gold.Chemscore.Hbond.Weighted>
-3.1331

> <Gold.Chemscore.Metal.Weighted>
-0.0000

> <Gold.Chemscore.Lipo.Weighted>
-9.6520

> <Gold.Chemscore.Internal_Hbond.Weighted>
0.0000

> <Gold.Chemscore.DEClash.Weighted>
0.0038

> <Gold.Chemscore.DEInternal.Weighted>
1.0117

> <Gold.Chemscore.Rot.Weighted>
4.2950

> <Gold.Chemscore.Internal.Correction.Weighted>
   9.000000E+99

> <Gold.Protein.RotatedTorsions>
[ 6907 6896 6895 6894 ] final  -47.34 input  -60.11 | X-H torsion
[ 7974 7965 7964 7962 ] final -103.16 input  175.53 | X-H torsion
[ 8008 7997 7996 7995 ] final  -54.35 input   59.86 | X-H torsion
[ 10167 10162 10161 10158 ] final -111.35 input  -65.29 | X-H torsion
[ 10718 10713 10712 10709 ] final  -51.07 input   66.30 | X-H torsion
[ 10763 10752 10751 10750 ] final  115.44 input  -60.55 | X-H torsion
[ 11005 11000 10999 10996 ] final -167.14 input  -57.11 | X-H torsion

> <Gold.Protein.ActiveResidues>
 VAL166  LYS551  ARG553  GLY616  TRP617  ASP618  TYR619  PRO620  LYS621  CYS622 
 ASP623  PHE694  ASN695  SER759  ASP760  ASP761  ALA762  ILE779  LEU786  VAL792 
 PHE793  MET794  SER795  GLU796  ALA797  LYS798  CYS799  TRP800  GLU811  SER814 

> <Gold.Protein.RotatedAtoms>
  150.9018  134.8431  159.7365 H   0  0  0  0  0  0  0  0  0  0  0  0  # atno 6907 bound_to 6896
  152.4897  134.4491  159.9578 H   0  0  0  0  0  0  0  0  0  0  0  0  # atno 6908 bound_to 6896
  151.4542  133.3570  159.2835 H   0  0  0  0  0  0  0  0  0  0  0  0  # atno 6909 bound_to 6896
  145.2595  140.9264  143.3049 H   0  0  0  0  0  0  0  0  0  0  0  0  # atno 7974 bound_to 7965
  154.4160  140.1178  156.5301 H   0  0  0  0  0  0  0  0  0  0  0  0  # atno 8008 bound_to 7997
  155.6614  140.3496  155.4765 H   0  0  0  0  0  0  0  0  0  0  0  0  # atno 8009 bound_to 7997
  155.9710  140.1141  157.0802 H   0  0  0  0  0  0  0  0  0  0  0  0  # atno 8010 bound_to 7997
  140.1345  143.4332  152.1604 H   0  0  0  0  0  0  0  0  0  0  0  0  # atno 10167 bound_to 10162
  156.1743  130.4149  149.9601 H   0  0  0  0  0  0  0  0  0  0  0  0  # atno 10718 bound_to 10713
  153.5222  135.3595  155.2637 H   0  0  0  0  0  0  0  0  0  0  0  0  # atno 10763 bound_to 10752
  154.8734  135.4048  154.3247 H   0  0  0  0  0  0  0  0  0  0  0  0  # atno 10764 bound_to 10752
  153.3919  135.7072  153.6555 H   0  0  0  0  0  0  0  0  0  0  0  0  # atno 10765 bound_to 10752
  140.5565  134.5376  157.5134 H   0  0  0  0  0  0  0  0  0  0  0  0  # atno 11005 bound_to 11000
  144.9431  139.4166  143.6439 LP  0  0  0  0  0  0  0  0  0  0  0  0  # atno 17320 bound_to 7965
  146.3279  139.8401  142.8892 LP  0  0  0  0  0  0  0  0  0  0  0  0  # atno 17321 bound_to 7965
  139.5503  144.7332  151.4457 LP  0  0  0  0  0  0  0  0  0  0  0  0  # atno 17342 bound_to 10162
  140.6797  143.8109  150.7105 LP  0  0  0  0  0  0  0  0  0  0  0  0  # atno 17343 bound_to 10162
  156.7391  130.9072  151.3631 LP  0  0  0  0  0  0  0  0  0  0  0  0  # atno 17370 bound_to 10713
  157.6824  130.9153  150.0302 LP  0  0  0  0  0  0  0  0  0  0  0  0  # atno 17371 bound_to 10713
  139.9429  134.7755  156.0634 LP  0  0  0  0  0  0  0  0  0  0  0  0  # atno 17394 bound_to 11000
  141.1140  133.6634  156.3048 LP  0  0  0  0  0  0  0  0  0  0  0  0  # atno 17395 bound_to 11000

$$$$
