AV-unprocessed.smi:2822|AV-procd|sdf|10880|dock4
  -GOLD-   2272015323D 1   1.00000     0.00000
 Structure written by MMmdl.
 39 41  0  0  0  0  0  0  0  0  1 V2000
  147.4081  142.4932  154.1060 Cl  0  0  0  0  0  0  0  0  0  0  0  0
  147.7966  140.8110  154.0074 C   0  0  0  0  0  0  0  0  0  0  0  0
  146.8815  139.9166  153.4152 C   0  0  0  0  0  0  0  0  0  0  0  0
  147.1058  138.5909  153.2981 N   0  0  0  0  0  0  0  0  0  0  0  0
  148.2707  138.1072  153.7770 C   0  0  0  0  0  0  0  0  0  0  0  0
  149.2532  138.9120  154.3874 C   0  0  0  0  0  0  0  0  0  0  0  0
  149.0168  140.3020  154.5092 C   0  0  0  0  0  0  0  0  0  0  0  0
  149.9420  141.1762  155.1000 N   0  0  0  0  0  0  0  0  0  0  0  0
  151.1764  140.6755  155.6853 C   0  0  0  0  0  0  0  0  0  0  0  0
  151.2276  140.9270  157.1983 C   0  0  2  0  0  0  0  0  0  0  0  0
  151.0878  142.4248  157.5284 C   0  0  0  0  0  0  0  0  0  0  0  0
  151.2188  142.6842  158.9568 N   0  0  0  0  0  0  0  0  0  0  0  0
  151.0956  144.1109  159.2512 C   0  0  0  0  0  0  0  0  0  0  0  0
  151.1953  144.4097  160.7557 C   0  0  0  0  0  0  0  0  0  0  0  0
  152.5131  143.8620  161.3215 C   0  0  0  0  0  0  0  0  0  0  0  0
  152.6640  142.3756  160.9626 C   0  0  0  0  0  0  0  0  0  0  0  0
  152.4953  142.1540  159.4451 C   0  0  1  0  0  0  0  0  0  0  0  0
  152.6398  140.6597  159.0926 C   0  0  0  0  0  0  0  0  0  0  0  0
  152.4881  140.4763  157.6886 O   0  0  0  0  0  0  0  0  0  0  0  0
  145.9410  140.2757  153.0238 H   0  0  0  0  0  0  0  0  0  0  0  0
  148.4263  137.0438  153.6700 H   0  0  0  0  0  0  0  0  0  0  0  0
  150.1623  138.4533  154.7459 H   0  0  0  0  0  0  0  0  0  0  0  0
  149.6610  142.1237  155.3090 H   0  0  0  0  0  0  0  0  0  0  0  0
  151.2805  139.6098  155.4778 H   0  0  0  0  0  0  0  0  0  0  0  0
  152.0144  141.1840  155.2072 H   0  0  0  0  0  0  0  0  0  0  0  0
  150.4245  140.3725  157.6881 H   0  0  0  0  0  0  0  0  0  0  0  0
  151.8450  142.9882  156.9805 H   0  0  0  0  0  0  0  0  0  0  0  0
  150.1191  142.7842  157.1787 H   0  0  0  0  0  0  0  0  0  0  0  0
  151.8699  144.6668  158.7200 H   0  0  0  0  0  0  0  0  0  0  0  0
  150.1399  144.4806  158.8778 H   0  0  0  0  0  0  0  0  0  0  0  0
  151.1276  145.4835  160.9318 H   0  0  0  0  0  0  0  0  0  0  0  0
  150.3525  143.9534  161.2765 H   0  0  0  0  0  0  0  0  0  0  0  0
  153.3508  144.4252  160.9083 H   0  0  0  0  0  0  0  0  0  0  0  0
  152.5477  143.9971  162.4029 H   0  0  0  0  0  0  0  0  0  0  0  0
  153.6393  142.0149  161.2913 H   0  0  0  0  0  0  0  0  0  0  0  0
  151.9181  141.7932  161.5054 H   0  0  0  0  0  0  0  0  0  0  0  0
  153.3043  142.6862  158.9419 H   0  0  0  0  0  0  0  0  0  0  0  0
  153.6221  140.2915  159.3891 H   0  0  0  0  0  0  0  0  0  0  0  0
  151.8997  140.0589  159.6241 H   0  0  0  0  0  0  0  0  0  0  0  0
  1  2  1  0  0  0  0
  2  7  1  0  0  0  0
  2  3  2  0  0  0  0
  3  4  1  0  0  0  0
  3 20  1  0  0  0  0
  4  5  2  0  0  0  0
  5  6  1  0  0  0  0
  5 21  1  0  0  0  0
  6  7  2  0  0  0  0
  6 22  1  0  0  0  0
  7  8  1  0  0  0  0
  8  9  1  0  0  0  0
  8 23  1  0  0  0  0
  9 10  1  0  0  0  0
  9 24  1  0  0  0  0
  9 25  1  0  0  0  0
 10 19  1  0  0  0  0
 10 11  1  0  0  0  0
 10 26  1  0  0  0  0
 11 12  1  0  0  0  0
 11 27  1  0  0  0  0
 11 28  1  0  0  0  0
 12 17  1  0  0  0  0
 12 13  1  0  0  0  0
 13 14  1  0  0  0  0
 13 29  1  0  0  0  0
 13 30  1  0  0  0  0
 14 15  1  0  0  0  0
 14 31  1  0  0  0  0
 14 32  1  0  0  0  0
 15 16  1  0  0  0  0
 15 33  1  0  0  0  0
 15 34  1  0  0  0  0
 16 17  1  0  0  0  0
 16 35  1  0  0  0  0
 16 36  1  0  0  0  0
 17 18  1  0  0  0  0
 17 37  1  0  0  0  0
 18 19  1  0  0  0  0
 18 38  1  0  0  0  0
 18 39  1  0  0  0  0
M  END
> <s_m_source_file>
AV-unprocessed.smi

> <i_m_source_file_index>
2822

> <i_lp_mmshare_version>
43012

> <i_f3d_flags>
0

> <s_epik_input>
Q2xjMVtjSF1uW2NIXVtjSF1jMVtOSF1bQ0gyXVtDQEhdKFtDSDJdMilPW0NIMl1bQ0BASF0oTjIzKVtDSDJdW0NIMl1bQ0gyXVtDSDJdMw==

> <s_epik_cmdline>
J2VwaWtfcHl0aG9uJywgJy1waCcsICc3LjAnLCAnLXRuJywgJzgnLCAnLW1hJywgJzIwMCcsICctbWV0YWxfYmluZGluZycsICctaW1hZScsICc8aW5maWxlLm1hZT4nLCAnLW9tYWUnLCAnPG91dGZpbGUubWFlPic=

> <r_lp_tautomer_probability>
0.999999

> <r_epik_Ionization_Penalty>
2.10064

> <r_epik_Ionization_Penalty_Charging>
0

> <r_epik_Ionization_Penalty_Neutral>
2.10064

> <r_epik_State_Penalty>
2.1757

> <r_epik_Charging_Adjusted_Penalty>
2.1757

> <i_epik_Tot_Q>
0

> <i_epik_Tot_abs_Q>
0

> <r_epik_Metal_State_Penalty>
1.25425

> <b_epik_Metal_Only>
0

> <s_lp_Force_Field>
OPLS_2005

> <r_lp_Energy>
37.6936

> <b_lp_Chiralities_Consistent>
1

> <s_lp_Variant>
AV-unprocessed.smi:2822-21

> <Gold.Version>
5.8.1

> <Gold.Id.Protein>
6NUR|6NUR_protein|mol2

> <Gold.PLP.Fitness>
42.7650

> <Gold.PLP.PLP>
-35.5787

> <Gold.PLP.part.hbond>
-0.9673

> <Gold.PLP.part.metal>
0.0000

> <Gold.PLP.part.buried>
-0.0446

> <Gold.PLP.part.nonpolar>
-34.7734

> <Gold.PLP.part.repulsive>
0.7289

> <Gold.PLP.ligand.clash>
0.0000

> <Gold.PLP.ligand.torsion>
0.0140

> <Gold.PLP.Chemscore.Hbond>
0.5863

> <Gold.PLP.Chemscore.CHOScore>
1.8183

> <Gold.PLP.Chemscore.Metal>
0.0000

> <Gold.Chemscore.Hbonds>
donor molecule, donor type, donor heavy atom, donor atom, acceptor molecule, acceptor atom, score
      P1  H  7997  8009       L1    19  0.57
      L1  C     3    20       P1 10175  1.00
      L1  C     5    21       P1  7948  0.82

> <Gold.PLP.Chemscore.Internal.Correction>
0.0004

> <Gold.Rescore>
     Score         DG    S(hbond)    S(metal)    S(lipo)     H(rot)  DE(clash)    DE(int)     intcor
     16.99     -18.68       0.56        0.00     121.92       1.15       1.67       0.01       ----

> <Gold.Chemscore.Fitness>
16.9941

> <Gold.Chemscore.DG>
-18.6754

> <Gold.Chemscore.ZeroCoef>
-5.4800

> <Gold.Chemscore.Hbond>
0.5626

> <Gold.Chemscore.Metal>
0.0000

> <Gold.Chemscore.Lipo>
121.9249

> <Gold.Chemscore.Internal_Hbond>
0.0000

> <Gold.Chemscore.DEClash>
1.6724

> <Gold.Chemscore.DEInternal>
0.0089

> <Gold.Chemscore.Rot>
1.1519

> <Gold.Chemscore.Internal.Correction>
   9.000000E+99

> <Gold.Chemscore.Hbonds>
donor molecule, donor type, donor heavy atom, donor atom, acceptor molecule, acceptor atom, score
      P1  H  7997  8009       L1    19  0.44

> <Gold.Chemscore.Hbond.Weighted>
-1.8790

> <Gold.Chemscore.Metal.Weighted>
-0.0000

> <Gold.Chemscore.Lipo.Weighted>
-14.2652

> <Gold.Chemscore.Internal_Hbond.Weighted>
0.0000

> <Gold.Chemscore.DEClash.Weighted>
1.6724

> <Gold.Chemscore.DEInternal.Weighted>
0.0089

> <Gold.Chemscore.Rot.Weighted>
2.9487

> <Gold.Chemscore.Internal.Correction.Weighted>
   9.000000E+99

> <Gold.Protein.RotatedTorsions>
[ 6907 6896 6895 6894 ] final    4.38 input  -60.11 | X-H torsion
[ 7974 7965 7964 7962 ] final  152.86 input  175.53 | X-H torsion
[ 8008 7997 7996 7995 ] final  173.89 input   59.86 | X-H torsion
[ 10167 10162 10161 10158 ] final  116.00 input  -65.29 | X-H torsion
[ 10718 10713 10712 10709 ] final -170.02 input   66.30 | X-H torsion
[ 10763 10752 10751 10750 ] final -137.19 input  -60.55 | X-H torsion
[ 11005 11000 10999 10996 ] final -163.05 input  -57.11 | X-H torsion

> <Gold.Protein.ActiveResidues>
 VAL166  LYS551  ARG553  GLY616  TRP617  ASP618  TYR619  PRO620  LYS621  CYS622 
 ASP623  PHE694  ASN695  SER759  ASP760  ASP761  ALA762  ILE779  LEU786  VAL792 
 PHE793  MET794  SER795  GLU796  ALA797  LYS798  CYS799  TRP800  GLU811  SER814 

> <Gold.Protein.RotatedAtoms>
  151.6403  135.1013  160.0139 H   0  0  0  0  0  0  0  0  0  0  0  0  # atno 6907 bound_to 6896
  152.4058  133.6882  159.6363 H   0  0  0  0  0  0  0  0  0  0  0  0  # atno 6908 bound_to 6896
  150.7952  133.8629  159.3278 H   0  0  0  0  0  0  0  0  0  0  0  0  # atno 6909 bound_to 6896
  144.8194  139.6724  143.6107 H   0  0  0  0  0  0  0  0  0  0  0  0  # atno 7974 bound_to 7965
  156.1030  140.1448  156.9442 H   0  0  0  0  0  0  0  0  0  0  0  0  # atno 8008 bound_to 7997
  154.4715  140.0908  156.7200 H   0  0  0  0  0  0  0  0  0  0  0  0  # atno 8009 bound_to 7997
  155.4728  140.3442  155.4330 H   0  0  0  0  0  0  0  0  0  0  0  0  # atno 8010 bound_to 7997
  139.6278  144.7111  151.2496 H   0  0  0  0  0  0  0  0  0  0  0  0  # atno 10167 bound_to 10162
  156.7200  130.9266  151.3096 H   0  0  0  0  0  0  0  0  0  0  0  0  # atno 10718 bound_to 10713
  154.8667  135.3649  154.5183 H   0  0  0  0  0  0  0  0  0  0  0  0  # atno 10763 bound_to 10752
  153.5815  135.7018  153.5466 H   0  0  0  0  0  0  0  0  0  0  0  0  # atno 10764 bound_to 10752
  153.3453  135.4087  155.1566 H   0  0  0  0  0  0  0  0  0  0  0  0  # atno 10765 bound_to 10752
  140.6024  134.4933  157.5206 H   0  0  0  0  0  0  0  0  0  0  0  0  # atno 11005 bound_to 11000
  146.2498  139.6176  142.9434 LP  0  0  0  0  0  0  0  0  0  0  0  0  # atno 17320 bound_to 7965
  145.5140  141.0434  143.2472 LP  0  0  0  0  0  0  0  0  0  0  0  0  # atno 17321 bound_to 7965
  140.7421  143.6536  150.8226 LP  0  0  0  0  0  0  0  0  0  0  0  0  # atno 17342 bound_to 10162
  140.0156  143.5596  152.2821 LP  0  0  0  0  0  0  0  0  0  0  0  0  # atno 17343 bound_to 10162
  157.6902  130.9225  150.0492 LP  0  0  0  0  0  0  0  0  0  0  0  0  # atno 17370 bound_to 10713
  156.1601  130.3644  149.9312 LP  0  0  0  0  0  0  0  0  0  0  0  0  # atno 17371 bound_to 10713
  139.9227  134.8117  156.1163 LP  0  0  0  0  0  0  0  0  0  0  0  0  # atno 17394 bound_to 11000
  141.0863  133.6733  156.2444 LP  0  0  0  0  0  0  0  0  0  0  0  0  # atno 17395 bound_to 11000

$$$$
