AV-unprocessed.smi:2430|AV-procd|sdf|9583|dock5
  -GOLD-   2272013213D 1   1.00000     0.00000
 Structure written by MMmdl.
 46 47  0  0  0  0  0  0  0  0  1 V2000
  153.9637  141.1241  159.6644 C   0  0  0  0  0  0  0  0  0  0  0  0
  152.4940  141.5230  159.8872 C   0  0  2  0  0  0  0  0  0  0  0  0
  151.5179  140.8430  158.9063 C   0  0  0  0  0  0  0  0  0  0  0  0
  151.5879  141.4572  157.5834 N   0  0  0  0  0  0  0  0  0  0  0  0
  150.9493  140.7393  156.5500 C   0  0  0  0  0  0  0  0  0  0  0  0
  151.7069  139.9083  155.6918 C   0  0  0  0  0  0  0  0  0  0  0  0
  151.0542  139.1999  154.6650 C   0  0  0  0  0  0  0  0  0  0  0  0
  149.6559  139.3456  154.5156 C   0  0  0  0  0  0  0  0  0  0  0  0
  148.8840  138.6715  153.5321 N   0  0  0  0  0  0  0  0  0  0  0  0
  147.5863  138.8480  153.2311 C   0  0  0  0  0  0  0  0  0  0  0  0
  146.8318  139.6507  153.7803 O   0  0  0  0  0  0  0  0  0  0  0  0
  147.1958  138.0112  152.2594 N   0  0  0  0  0  0  0  0  0  0  0  0
  145.8374  137.9105  151.7385 C   0  0  0  0  0  0  0  0  0  0  0  0
  145.2475  136.5117  151.9799 C   0  0  0  0  0  0  0  0  0  0  0  0
  145.5053  135.5564  150.8076 C   0  0  0  0  0  0  0  0  0  0  0  0
  145.1207  136.1707  149.5971 O   0  0  0  0  0  0  0  0  0  0  0  0
  148.9850  140.1850  155.4264 C   0  0  0  0  0  0  0  0  0  0  0  0
  149.6073  140.8689  156.4092 N   0  0  0  0  0  0  0  0  0  0  0  0
  151.4226  142.9076  157.6140 C   0  0  0  0  0  0  0  0  0  0  0  0
  152.4380  143.5419  158.5805 C   0  0  1  0  0  0  0  0  0  0  0  0
  152.2145  145.0497  158.7366 C   0  0  0  0  0  0  0  0  0  0  0  0
  152.3106  142.9405  159.8683 O   0  0  0  0  0  0  0  0  0  0  0  0
  154.1001  140.0537  159.8194 H   0  0  0  0  0  0  0  0  0  0  0  0
  154.6185  141.6444  160.3638 H   0  0  0  0  0  0  0  0  0  0  0  0
  154.3050  141.3495  158.6544 H   0  0  0  0  0  0  0  0  0  0  0  0
  152.2297  141.1975  160.8937 H   0  0  0  0  0  0  0  0  0  0  0  0
  151.7247  139.7740  158.8719 H   0  0  0  0  0  0  0  0  0  0  0  0
  150.4969  140.9506  159.2749 H   0  0  0  0  0  0  0  0  0  0  0  0
  152.7770  139.8148  155.8034 H   0  0  0  0  0  0  0  0  0  0  0  0
  151.6343  138.5542  154.0241 H   0  0  0  0  0  0  0  0  0  0  0  0
  149.3524  137.9143  153.0566 H   0  0  0  0  0  0  0  0  0  0  0  0
  147.8820  137.3847  151.8649 H   0  0  0  0  0  0  0  0  0  0  0  0
  145.2030  138.6771  152.1866 H   0  0  0  0  0  0  0  0  0  0  0  0
  145.8690  138.1210  150.6691 H   0  0  0  0  0  0  0  0  0  0  0  0
  145.6735  136.0912  152.8923 H   0  0  0  0  0  0  0  0  0  0  0  0
  144.1725  136.5909  152.1489 H   0  0  0  0  0  0  0  0  0  0  0  0
  146.5616  135.2918  150.7527 H   0  0  0  0  0  0  0  0  0  0  0  0
  144.9414  134.6314  150.9315 H   0  0  0  0  0  0  0  0  0  0  0  0
  144.5688  136.9112  149.7975 H   0  0  0  0  0  0  0  0  0  0  0  0
  147.9149  140.3197  155.3630 H   0  0  0  0  0  0  0  0  0  0  0  0
  151.5647  143.3235  156.6155 H   0  0  0  0  0  0  0  0  0  0  0  0
  150.4046  143.1461  157.9257 H   0  0  0  0  0  0  0  0  0  0  0  0
  153.4486  143.3891  158.2013 H   0  0  0  0  0  0  0  0  0  0  0  0
  152.3087  145.5618  157.7787 H   0  0  0  0  0  0  0  0  0  0  0  0
  152.9465  145.4832  159.4184 H   0  0  0  0  0  0  0  0  0  0  0  0
  151.2215  145.2624  159.1338 H   0  0  0  0  0  0  0  0  0  0  0  0
  1  2  1  0  0  0  0
  1 23  1  0  0  0  0
  1 24  1  0  0  0  0
  1 25  1  0  0  0  0
  2 22  1  0  0  0  0
  2  3  1  0  0  0  0
  2 26  1  0  0  0  0
  3  4  1  0  0  0  0
  3 27  1  0  0  0  0
  3 28  1  0  0  0  0
  4  5  1  0  0  0  0
  4 19  1  0  0  0  0
  5 18  1  0  0  0  0
  5  6  2  0  0  0  0
  6  7  1  0  0  0  0
  6 29  1  0  0  0  0
  7  8  2  0  0  0  0
  7 30  1  0  0  0  0
  8  9  1  0  0  0  0
  8 17  1  0  0  0  0
  9 10  1  0  0  0  0
  9 31  1  0  0  0  0
 10 11  2  0  0  0  0
 10 12  1  0  0  0  0
 12 13  1  0  0  0  0
 12 32  1  0  0  0  0
 13 14  1  0  0  0  0
 13 33  1  0  0  0  0
 13 34  1  0  0  0  0
 14 15  1  0  0  0  0
 14 35  1  0  0  0  0
 14 36  1  0  0  0  0
 15 16  1  0  0  0  0
 15 37  1  0  0  0  0
 15 38  1  0  0  0  0
 16 39  1  0  0  0  0
 17 18  2  0  0  0  0
 17 40  1  0  0  0  0
 19 20  1  0  0  0  0
 19 41  1  0  0  0  0
 19 42  1  0  0  0  0
 20 21  1  0  0  0  0
 20 22  1  0  0  0  0
 20 43  1  0  0  0  0
 21 44  1  0  0  0  0
 21 45  1  0  0  0  0
 21 46  1  0  0  0  0
M  END
> <s_m_source_file>
AV-unprocessed.smi

> <i_m_source_file_index>
2430

> <i_lp_mmshare_version>
43012

> <i_f3d_flags>
0

> <s_epik_input>
W0NIM11bQ0BASF0xW0NIMl1OKFtDSDJdW0NASF0oTzEpW0NIM10pYzJbY0hdW2NIXWMoW2NIXW4yKVtOSF1DKD1PKVtOSF1bQ0gyXVtDSDJdW0NIMl1bT0hd

> <s_epik_cmdline>
J2VwaWtfcHl0aG9uJywgJy1waCcsICc3LjAnLCAnLXRuJywgJzgnLCAnLW1hJywgJzIwMCcsICctbWV0YWxfYmluZGluZycsICctaW1hZScsICc8aW5maWxlLm1hZT4nLCAnLW9tYWUnLCAnPG91dGZpbGUubWFlPic=

> <r_lp_tautomer_probability>
1

> <r_epik_Ionization_Penalty>
0.00269907

> <r_epik_Ionization_Penalty_Charging>
0

> <r_epik_Ionization_Penalty_Neutral>
0.00269907

> <r_epik_State_Penalty>
0.00185337

> <r_epik_Charging_Adjusted_Penalty>
0.00185337

> <i_epik_Tot_Q>
0

> <i_epik_Tot_abs_Q>
0

> <r_epik_Metal_State_Penalty>
-0

> <b_epik_Metal_Only>
0

> <s_lp_Force_Field>
OPLS_2005

> <r_lp_Energy>
20.8666

> <b_lp_Chiralities_Consistent>
1

> <s_lp_Variant>
AV-unprocessed.smi:2430-1

> <Gold.Version>
5.8.1

> <Gold.Id.Protein>
6NUR|6NUR_protein|mol2

> <Gold.PLP.Fitness>
52.8485

> <Gold.PLP.PLP>
-45.2842

> <Gold.PLP.part.hbond>
-5.0477

> <Gold.PLP.part.metal>
0.0000

> <Gold.PLP.part.buried>
-3.2252

> <Gold.PLP.part.nonpolar>
-38.4708

> <Gold.PLP.part.repulsive>
0.3703

> <Gold.PLP.ligand.clash>
0.0000

> <Gold.PLP.ligand.torsion>
0.5641

> <Gold.PLP.Chemscore.Hbond>
2.7862

> <Gold.PLP.Chemscore.CHOScore>
0.0000

> <Gold.PLP.Chemscore.Metal>
0.0000

> <Gold.Chemscore.Hbonds>
donor molecule, donor type, donor heavy atom, donor atom, acceptor molecule, acceptor atom, score
      L1  H     9    31       P1  7948  0.77
      L1  H    12    32       P1  7948  1.00
      L1  H    16    39       P1 10171  1.00

> <Gold.PLP.Chemscore.Internal.Correction>
0.3339

> <Gold.Rescore>
     Score         DG    S(hbond)    S(metal)    S(lipo)     H(rot)  DE(clash)    DE(int)     intcor
     18.88     -21.41       2.77        0.00     108.27       2.33       0.57       1.96       ----

> <Gold.Chemscore.Fitness>
18.8794

> <Gold.Chemscore.DG>
-21.4125

> <Gold.Chemscore.ZeroCoef>
-5.4800

> <Gold.Chemscore.Hbond>
2.7670

> <Gold.Chemscore.Metal>
0.0000

> <Gold.Chemscore.Lipo>
108.2666

> <Gold.Chemscore.Internal_Hbond>
0.0000

> <Gold.Chemscore.DEClash>
0.5749

> <Gold.Chemscore.DEInternal>
1.9582

> <Gold.Chemscore.Rot>
2.3346

> <Gold.Chemscore.Internal.Correction>
   9.000000E+99

> <Gold.Chemscore.Hbonds>
donor molecule, donor type, donor heavy atom, donor atom, acceptor molecule, acceptor atom, score
      L1  H     9    31       P1  7948  0.71
      L1  H    12    32       P1  7948  0.94
      L1  H    16    39       P1 10171  1.00

> <Gold.Chemscore.Hbond.Weighted>
-9.2418

> <Gold.Chemscore.Metal.Weighted>
-0.0000

> <Gold.Chemscore.Lipo.Weighted>
-12.6672

> <Gold.Chemscore.Internal_Hbond.Weighted>
0.0000

> <Gold.Chemscore.DEClash.Weighted>
0.5749

> <Gold.Chemscore.DEInternal.Weighted>
1.9582

> <Gold.Chemscore.Rot.Weighted>
5.9766

> <Gold.Chemscore.Internal.Correction.Weighted>
   9.000000E+99

> <Gold.Protein.RotatedTorsions>
[ 6907 6896 6895 6894 ] final -153.83 input  -60.11 | X-H torsion
[ 7974 7965 7964 7962 ] final   41.34 input  175.53 | X-H torsion
[ 8008 7997 7996 7995 ] final -115.33 input   59.86 | X-H torsion
[ 10167 10162 10161 10158 ] final  120.14 input  -65.29 | X-H torsion
[ 10718 10713 10712 10709 ] final -163.89 input   66.30 | X-H torsion
[ 10763 10752 10751 10750 ] final  147.39 input  -60.55 | X-H torsion
[ 11005 11000 10999 10996 ] final  139.50 input  -57.11 | X-H torsion

> <Gold.Protein.ActiveResidues>
 VAL166  LYS551  ARG553  GLY616  TRP617  ASP618  TYR619  PRO620  LYS621  CYS622 
 ASP623  PHE694  ASN695  SER759  ASP760  ASP761  ALA762  ILE779  LEU786  VAL792 
 PHE793  MET794  SER795  GLU796  ALA797  LYS798  CYS799  TRP800  GLU811  SER814 

> <Gold.Protein.RotatedAtoms>
  151.2484  133.4363  159.2610 H   0  0  0  0  0  0  0  0  0  0  0  0  # atno 6907 bound_to 6896
  151.0640  134.9755  159.8285 H   0  0  0  0  0  0  0  0  0  0  0  0  # atno 6908 bound_to 6896
  152.5402  134.2433  159.8923 H   0  0  0  0  0  0  0  0  0  0  0  0  # atno 6909 bound_to 6896
  146.0832  139.5428  142.9524 H   0  0  0  0  0  0  0  0  0  0  0  0  # atno 7974 bound_to 7965
  155.0503  140.0393  157.2541 H   0  0  0  0  0  0  0  0  0  0  0  0  # atno 8008 bound_to 7997
  154.7143  140.2699  155.6576 H   0  0  0  0  0  0  0  0  0  0  0  0  # atno 8009 bound_to 7997
  156.2798  140.2715  156.1794 H   0  0  0  0  0  0  0  0  0  0  0  0  # atno 8010 bound_to 7997
  139.6001  144.7054  151.3083 H   0  0  0  0  0  0  0  0  0  0  0  0  # atno 10167 bound_to 10162
  156.6311  130.8930  151.2977 H   0  0  0  0  0  0  0  0  0  0  0  0  # atno 10718 bound_to 10713
  154.0376  135.2892  155.3359 H   0  0  0  0  0  0  0  0  0  0  0  0  # atno 10763 bound_to 10752
  154.6949  135.5212  153.8447 H   0  0  0  0  0  0  0  0  0  0  0  0  # atno 10764 bound_to 10752
  153.0613  135.6615  154.0583 H   0  0  0  0  0  0  0  0  0  0  0  0  # atno 10765 bound_to 10752
  140.0259  134.9375  157.0568 H   0  0  0  0  0  0  0  0  0  0  0  0  # atno 11005 bound_to 11000
  145.6179  141.0328  143.1931 LP  0  0  0  0  0  0  0  0  0  0  0  0  # atno 17320 bound_to 7965
  144.7307  139.7734  143.7348 LP  0  0  0  0  0  0  0  0  0  0  0  0  # atno 17321 bound_to 7965
  140.7243  143.7049  150.7816 LP  0  0  0  0  0  0  0  0  0  0  0  0  # atno 17342 bound_to 10162
  140.0623  143.5142  152.2621 LP  0  0  0  0  0  0  0  0  0  0  0  0  # atno 17343 bound_to 10162
  157.7199  130.9545  150.1399 LP  0  0  0  0  0  0  0  0  0  0  0  0  # atno 17370 bound_to 10713
  156.2234  130.3676  149.8529 LP  0  0  0  0  0  0  0  0  0  0  0  0  # atno 17371 bound_to 10713
  140.4307  134.1784  155.7168 LP  0  0  0  0  0  0  0  0  0  0  0  0  # atno 17394 bound_to 11000
  141.1802  133.8429  157.1282 LP  0  0  0  0  0  0  0  0  0  0  0  0  # atno 17395 bound_to 11000

$$$$
