AV-unprocessed.smi:3219|AV-procd|sdf|12296|dock1
  -GOLD-   2272018133D 1   1.00000     0.00000
 Structure written by MMmdl.
 41 42  0  0  0  0  0  0  0  0  2 V2000
  150.1462  138.7488  154.3465 C   0  0  0  0  0  0  0  0  0  0  0  0
  149.2344  139.9281  154.4619 C   0  0  0  0  0  0  0  0  0  0  0  0
  149.3879  141.1203  155.1189 C   0  0  0  0  0  0  0  0  0  0  0  0
  150.5531  141.6171  155.9353 C   0  0  0  0  0  0  0  0  0  0  0  0
  150.1708  141.8347  157.4072 C   0  0  0  0  0  0  0  0  0  0  0  0
  150.2875  143.2565  157.7872 N   0  3  0  0  0  0  0  0  0  0  0  0
  151.6613  143.7917  157.7341 C   0  0  0  0  0  0  0  0  0  0  0  0
  152.3599  143.6717  159.1005 C   0  0  1  0  0  0  0  0  0  0  0  0
  151.6316  144.4884  160.1949 C   0  0  0  0  0  0  0  0  0  0  0  0
  152.1231  144.1622  161.5940 C   0  0  0  0  0  0  0  0  0  0  0  0
  152.8645  143.0802  161.8845 C   0  0  0  0  0  0  0  0  0  0  0  0
  153.2883  142.0579  160.8466 C   0  0  0  0  0  0  0  0  0  0  0  0
  152.4970  142.1992  159.5330 C   0  0  0  0  0  0  0  0  0  0  0  0
  148.1750  141.8138  154.8453 C   0  0  0  0  0  0  0  0  0  0  0  0
  147.3485  141.1210  154.0834 N   0  0  0  0  0  0  0  0  0  0  0  0
  147.9961  139.9615  153.8489 N   0  0  0  0  0  0  0  0  0  0  0  0
  147.3629  138.9463  153.0295 C   0  0  0  0  0  0  0  0  0  0  0  0
  151.1296  138.9643  154.7632 H   0  0  0  0  0  0  0  0  0  0  0  0
  150.2838  138.4631  153.3034 H   0  0  0  0  0  0  0  0  0  0  0  0
  149.7369  137.8915  154.8810 H   0  0  0  0  0  0  0  0  0  0  0  0
  151.3757  140.9026  155.8904 H   0  0  0  0  0  0  0  0  0  0  0  0
  150.9538  142.5439  155.5233 H   0  0  0  0  0  0  0  0  0  0  0  0
  149.1479  141.4950  157.5774 H   0  0  0  0  0  0  0  0  0  0  0  0
  150.8180  141.2392  158.0522 H   0  0  0  0  0  0  0  0  0  0  0  0
  149.7006  143.8061  157.1762 H   0  0  0  0  0  0  0  0  0  0  0  0
  152.2324  143.2614  156.9704 H   0  0  0  0  0  0  0  0  0  0  0  0
  151.6131  144.8378  157.4287 H   0  0  0  0  0  0  0  0  0  0  0  0
  153.3710  144.0697  158.9971 H   0  0  0  0  0  0  0  0  0  0  0  0
  151.7663  145.5563  160.0191 H   0  0  0  0  0  0  0  0  0  0  0  0
  150.5583  144.2960  160.1674 H   0  0  0  0  0  0  0  0  0  0  0  0
  151.8389  144.8444  162.3819 H   0  0  0  0  0  0  0  0  0  0  0  0
  153.1948  142.9110  162.8989 H   0  0  0  0  0  0  0  0  0  0  0  0
  154.3552  142.1867  160.6614 H   0  0  0  0  0  0  0  0  0  0  0  0
  153.1557  141.0551  161.2539 H   0  0  0  0  0  0  0  0  0  0  0  0
  151.5026  141.7693  159.6629 H   0  0  0  0  0  0  0  0  0  0  0  0
  152.9842  141.6133  158.7527 H   0  0  0  0  0  0  0  0  0  0  0  0
  147.8762  142.7990  155.1721 H   0  0  0  0  0  0  0  0  0  0  0  0
  147.2954  138.0129  153.5887 H   0  0  0  0  0  0  0  0  0  0  0  0
  147.9550  138.7808  152.1290 H   0  0  0  0  0  0  0  0  0  0  0  0
  146.3580  139.2563  152.7386 H   0  0  0  0  0  0  0  0  0  0  0  0
  149.9487  143.3551  158.7339 H   0  0  0  0  0  0  0  0  0  0  0  0
  1  2  1  0  0  0  0
  1 18  1  0  0  0  0
  1 19  1  0  0  0  0
  1 20  1  0  0  0  0
  2 16  1  0  0  0  0
  2  3  2  0  0  0  0
  3  4  1  0  0  0  0
  3 14  1  0  0  0  0
  4  5  1  0  0  0  0
  4 21  1  0  0  0  0
  4 22  1  0  0  0  0
  5  6  1  0  0  0  0
  5 23  1  0  0  0  0
  5 24  1  0  0  0  0
  6  7  1  0  0  0  0
  6 25  1  0  0  0  0
  6 41  1  0  0  0  0
  7  8  1  0  0  0  0
  7 26  1  0  0  0  0
  7 27  1  0  0  0  0
  8 13  1  0  0  0  0
  8  9  1  0  0  0  0
  8 28  1  0  0  0  0
  9 10  1  0  0  0  0
  9 29  1  0  0  0  0
  9 30  1  0  0  0  0
 10 11  2  0  0  0  0
 10 31  1  0  0  0  0
 11 12  1  0  0  0  0
 11 32  1  0  0  0  0
 12 13  1  0  0  0  0
 12 33  1  0  0  0  0
 12 34  1  0  0  0  0
 13 35  1  0  0  0  0
 13 36  1  0  0  0  0
 14 15  2  0  0  0  0
 14 37  1  0  0  0  0
 15 16  1  0  0  0  0
 16 17  1  0  0  0  0
 17 38  1  0  0  0  0
 17 39  1  0  0  0  0
 17 40  1  0  0  0  0
M  CHG  1   6   1
M  END
> <s_m_source_file>
AV-unprocessed.smi

> <i_m_source_file_index>
3219

> <i_lp_mmshare_version>
43012

> <i_f3d_flags>
0

> <s_epik_input>
W0NIM11uMW5bY0hdYyhjMVtDSDNdKVtDSDJdW0NIMl1bTkhdW0NIMl1bQ0BASF0yW0NIMl1bQ0hdPVtDSF1bQ0gyXVtDSDJdMg==

> <s_epik_cmdline>
J2VwaWtfcHl0aG9uJywgJy1waCcsICc3LjAnLCAnLXRuJywgJzgnLCAnLW1hJywgJzIwMCcsICctbWV0YWxfYmluZGluZycsICctaW1hZScsICc8aW5maWxlLm1hZT4nLCAnLW9tYWUnLCAnPG91dGZpbGUubWFlPic=

> <r_lp_tautomer_probability>
1

> <r_epik_Ionization_Penalty>
0.000661401

> <r_epik_Ionization_Penalty_Charging>
0.00057791

> <r_epik_Ionization_Penalty_Neutral>
8.34914e-05

> <r_epik_State_Penalty>
-0

> <r_epik_Charging_Adjusted_Penalty>
0.00057791

> <i_epik_Tot_Q>
1

> <i_epik_Tot_abs_Q>
1

> <r_epik_Metal_State_Penalty>
-0

> <b_epik_Metal_Only>
0

> <s_lp_Force_Field>
OPLS_2005

> <r_lp_Energy>
9.67125

> <b_lp_Chiralities_Consistent>
1

> <s_lp_Variant>
AV-unprocessed.smi:3219-2

> <Gold.Version>
5.8.1

> <Gold.Id.Protein>
6NUR|6NUR_protein|mol2

> <Gold.PLP.Fitness>
54.5044

> <Gold.PLP.PLP>
-46.5862

> <Gold.PLP.part.hbond>
-1.0000

> <Gold.PLP.part.metal>
0.0000

> <Gold.PLP.part.buried>
-2.1924

> <Gold.PLP.part.nonpolar>
-43.0584

> <Gold.PLP.part.repulsive>
0.1795

> <Gold.PLP.ligand.clash>
0.0000

> <Gold.PLP.ligand.torsion>
0.6091

> <Gold.PLP.Chemscore.Hbond>
2.0000

> <Gold.PLP.Chemscore.CHOScore>
1.0000

> <Gold.PLP.Chemscore.Metal>
0.0000

> <Gold.Chemscore.Hbonds>
donor molecule, donor type, donor heavy atom, donor atom, acceptor molecule, acceptor atom, score
      L1  H     6    25       P1  8028  2.00
      L1  C    14    37       P1  8028  1.00

> <Gold.PLP.Chemscore.Internal.Correction>
0.1364

> <Gold.Rescore>
     Score         DG    S(hbond)    S(metal)    S(lipo)     H(rot)  DE(clash)    DE(int)     intcor
     19.57     -20.22       0.96        0.00     130.57       1.46       0.03       0.62       ----

> <Gold.Chemscore.Fitness>
19.5712

> <Gold.Chemscore.DG>
-20.2186

> <Gold.Chemscore.ZeroCoef>
-5.4800

> <Gold.Chemscore.Hbond>
0.9576

> <Gold.Chemscore.Metal>
0.0000

> <Gold.Chemscore.Lipo>
130.5714

> <Gold.Chemscore.Internal_Hbond>
0.0000

> <Gold.Chemscore.DEClash>
0.0251

> <Gold.Chemscore.DEInternal>
0.6224

> <Gold.Chemscore.Rot>
1.4597

> <Gold.Chemscore.Internal.Correction>
   9.000000E+99

> <Gold.Chemscore.Hbonds>
donor molecule, donor type, donor heavy atom, donor atom, acceptor molecule, acceptor atom, score
      L1  H     6    25       P1  8028  0.82

> <Gold.Chemscore.Hbond.Weighted>
-3.1985

> <Gold.Chemscore.Metal.Weighted>
-0.0000

> <Gold.Chemscore.Lipo.Weighted>
-15.2768

> <Gold.Chemscore.Internal_Hbond.Weighted>
0.0000

> <Gold.Chemscore.DEClash.Weighted>
0.0251

> <Gold.Chemscore.DEInternal.Weighted>
0.6224

> <Gold.Chemscore.Rot.Weighted>
3.7368

> <Gold.Chemscore.Internal.Correction.Weighted>
   9.000000E+99

> <Gold.Protein.RotatedTorsions>
[ 6907 6896 6895 6894 ] final  131.93 input  -60.11 | X-H torsion
[ 7974 7965 7964 7962 ] final -119.31 input  175.53 | X-H torsion
[ 8008 7997 7996 7995 ] final  122.11 input   59.86 | X-H torsion
[ 10167 10162 10161 10158 ] final  -95.55 input  -65.29 | X-H torsion
[ 10718 10713 10712 10709 ] final  -89.84 input   66.30 | X-H torsion
[ 10763 10752 10751 10750 ] final   16.84 input  -60.55 | X-H torsion
[ 11005 11000 10999 10996 ] final  -17.04 input  -57.11 | X-H torsion

> <Gold.Protein.ActiveResidues>
 VAL166  LYS551  ARG553  GLY616  TRP617  ASP618  TYR619  PRO620  LYS621  CYS622 
 ASP623  PHE694  ASN695  SER759  ASP760  ASP761  ALA762  ILE779  LEU786  VAL792 
 PHE793  MET794  SER795  GLU796  ALA797  LYS798  CYS799  TRP800  GLU811  SER814 

> <Gold.Protein.RotatedAtoms>
  152.3376  133.6029  159.5853 H   0  0  0  0  0  0  0  0  0  0  0  0  # atno 6907 bound_to 6896
  150.7459  133.9772  159.3573 H   0  0  0  0  0  0  0  0  0  0  0  0  # atno 6908 bound_to 6896
  151.7640  135.0804  160.0401 H   0  0  0  0  0  0  0  0  0  0  0  0  # atno 6909 bound_to 6896
  145.0640  140.8311  143.4135 H   0  0  0  0  0  0  0  0  0  0  0  0  # atno 7974 bound_to 7965
  156.2714  140.2793  156.1415 H   0  0  0  0  0  0  0  0  0  0  0  0  # atno 8008 bound_to 7997
  155.0948  140.0389  157.2697 H   0  0  0  0  0  0  0  0  0  0  0  0  # atno 8009 bound_to 7997
  154.6861  140.2619  155.6865 H   0  0  0  0  0  0  0  0  0  0  0  0  # atno 8010 bound_to 7997
  140.3030  143.3151  152.0228 H   0  0  0  0  0  0  0  0  0  0  0  0  # atno 10167 bound_to 10162
  155.9985  130.4887  150.5232 H   0  0  0  0  0  0  0  0  0  0  0  0  # atno 10718 bound_to 10713
  153.1393  135.6756  153.9052 H   0  0  0  0  0  0  0  0  0  0  0  0  # atno 10763 bound_to 10752
  153.8514  135.3093  155.3434 H   0  0  0  0  0  0  0  0  0  0  0  0  # atno 10764 bound_to 10752
  154.7774  135.4907  153.9856 H   0  0  0  0  0  0  0  0  0  0  0  0  # atno 10765 bound_to 10752
  140.8128  133.8128  155.9580 H   0  0  0  0  0  0  0  0  0  0  0  0  # atno 11005 bound_to 11000
  145.1374  139.2594  143.5508 LP  0  0  0  0  0  0  0  0  0  0  0  0  # atno 17320 bound_to 7965
  146.3526  140.1041  142.8606 LP  0  0  0  0  0  0  0  0  0  0  0  0  # atno 17321 bound_to 7965
  139.4910  144.6442  151.6814 LP  0  0  0  0  0  0  0  0  0  0  0  0  # atno 17342 bound_to 10162
  140.5634  144.0230  150.6181 LP  0  0  0  0  0  0  0  0  0  0  0  0  # atno 17343 bound_to 10162
  157.3191  131.0678  151.1945 LP  0  0  0  0  0  0  0  0  0  0  0  0  # atno 17370 bound_to 10713
  157.2865  130.6775  149.6092 LP  0  0  0  0  0  0  0  0  0  0  0  0  # atno 17371 bound_to 10713
  140.9180  134.2177  157.4944 LP  0  0  0  0  0  0  0  0  0  0  0  0  # atno 17394 bound_to 11000
  139.8713  134.9780  156.4979 LP  0  0  0  0  0  0  0  0  0  0  0  0  # atno 17395 bound_to 11000

$$$$
