AV-unprocessed.smi:1892|AV-procd|sdf|7670|dock2
  -GOLD-   22720 9403D 1   1.00000     0.00000
 Structure written by MMmdl.
 43 44  0  0  0  0  0  0  0  0  2 V2000
  150.8493  141.5255  157.5798 C   0  0  0  0  0  0  0  0  0  0  0  0
  151.0386  140.2793  156.7122 C   0  0  0  0  0  0  0  0  0  0  0  0
  151.6570  139.3293  157.1914 O   0  0  0  0  0  0  0  0  0  0  0  0
  150.5286  140.2610  155.4574 N   0  0  0  0  0  0  0  0  0  0  0  0
  149.7387  141.3638  154.9037 C   0  0  0  0  0  0  0  0  0  0  0  0
  148.2876  140.8905  154.7016 C   0  0  0  0  0  0  0  0  0  0  0  0
  148.2210  139.6682  153.8552 N   0  3  0  0  0  0  0  0  0  0  0  0
  146.8235  139.2094  153.6533 C   0  0  0  0  0  0  0  0  0  0  0  0
  146.5161  138.8645  152.1829 C   0  0  0  0  0  0  0  0  0  0  0  0
  146.7619  137.4547  151.9015 N   0  0  0  0  0  0  0  0  0  0  0  0
  145.8051  136.5360  151.7043 C   0  0  0  0  0  0  0  0  0  0  0  0
  144.6022  136.7955  151.7511 O   0  0  0  0  0  0  0  0  0  0  0  0
  146.3328  135.3233  151.4610 N   0  0  0  0  0  0  0  0  0  0  0  0
  145.6493  134.1064  151.1970 C   0  0  0  0  0  0  0  0  0  0  0  0
  146.4391  132.9398  151.3087 C   0  0  0  0  0  0  0  0  0  0  0  0
  145.8550  131.6818  151.0643 C   0  0  0  0  0  0  0  0  0  0  0  0
  144.4944  131.6228  150.7138 C   0  0  0  0  0  0  0  0  0  0  0  0
  143.7798  132.8314  150.6245 C   0  0  0  0  0  0  0  0  0  0  0  0
  144.3373  134.0382  150.8587 N   0  0  0  0  0  0  0  0  0  0  0  0
  149.1379  138.5925  154.3265 C   0  0  0  0  0  0  0  0  0  0  0  0
  150.5689  139.1208  154.5373 C   0  0  0  0  0  0  0  0  0  0  0  0
  151.2981  142.3993  157.1068 H   0  0  0  0  0  0  0  0  0  0  0  0
  151.3264  141.3928  158.5515 H   0  0  0  0  0  0  0  0  0  0  0  0
  149.7905  141.7191  157.7536 H   0  0  0  0  0  0  0  0  0  0  0  0
  149.7506  142.2536  155.5345 H   0  0  0  0  0  0  0  0  0  0  0  0
  150.1707  141.6706  153.9499 H   0  0  0  0  0  0  0  0  0  0  0  0
  147.8293  140.6834  155.6701 H   0  0  0  0  0  0  0  0  0  0  0  0
  147.7062  141.6893  154.2396 H   0  0  0  0  0  0  0  0  0  0  0  0
  146.6177  138.3561  154.3013 H   0  0  0  0  0  0  0  0  0  0  0  0
  146.1479  140.0057  153.9694 H   0  0  0  0  0  0  0  0  0  0  0  0
  145.4838  139.1193  151.9367 H   0  0  0  0  0  0  0  0  0  0  0  0
  147.1482  139.4401  151.5078 H   0  0  0  0  0  0  0  0  0  0  0  0
  147.7260  137.1598  151.8444 H   0  0  0  0  0  0  0  0  0  0  0  0
  147.3401  135.2624  151.4618 H   0  0  0  0  0  0  0  0  0  0  0  0
  147.4833  133.0030  151.5787 H   0  0  0  0  0  0  0  0  0  0  0  0
  146.4417  130.7786  151.1440 H   0  0  0  0  0  0  0  0  0  0  0  0
  144.0112  130.6772  150.5180 H   0  0  0  0  0  0  0  0  0  0  0  0
  142.7336  132.8301  150.3573 H   0  0  0  0  0  0  0  0  0  0  0  0
  148.7580  138.1765  155.2611 H   0  0  0  0  0  0  0  0  0  0  0  0
  149.1672  137.7771  153.6051 H   0  0  0  0  0  0  0  0  0  0  0  0
  150.9870  139.4503  153.5851 H   0  0  0  0  0  0  0  0  0  0  0  0
  151.2142  138.3099  154.8718 H   0  0  0  0  0  0  0  0  0  0  0  0
  148.5596  139.9518  152.9468 H   0  0  0  0  0  0  0  0  0  0  0  0
  1  2  1  0  0  0  0
  1 22  1  0  0  0  0
  1 23  1  0  0  0  0
  1 24  1  0  0  0  0
  2  3  2  0  0  0  0
  2  4  1  0  0  0  0
  4 21  1  0  0  0  0
  4  5  1  0  0  0  0
  5  6  1  0  0  0  0
  5 25  1  0  0  0  0
  5 26  1  0  0  0  0
  6  7  1  0  0  0  0
  6 27  1  0  0  0  0
  6 28  1  0  0  0  0
  7  8  1  0  0  0  0
  7 20  1  0  0  0  0
  7 43  1  0  0  0  0
  8  9  1  0  0  0  0
  8 29  1  0  0  0  0
  8 30  1  0  0  0  0
  9 10  1  0  0  0  0
  9 31  1  0  0  0  0
  9 32  1  0  0  0  0
 10 11  1  0  0  0  0
 10 33  1  0  0  0  0
 11 12  2  0  0  0  0
 11 13  1  0  0  0  0
 13 14  1  0  0  0  0
 13 34  1  0  0  0  0
 14 19  1  0  0  0  0
 14 15  2  0  0  0  0
 15 16  1  0  0  0  0
 15 35  1  0  0  0  0
 16 17  2  0  0  0  0
 16 36  1  0  0  0  0
 17 18  1  0  0  0  0
 17 37  1  0  0  0  0
 18 19  2  0  0  0  0
 18 38  1  0  0  0  0
 20 21  1  0  0  0  0
 20 39  1  0  0  0  0
 20 40  1  0  0  0  0
 21 41  1  0  0  0  0
 21 42  1  0  0  0  0
M  CHG  1   7   1
M  END
> <s_m_source_file>
AV-unprocessed.smi

> <i_m_source_file_index>
1892

> <i_lp_mmshare_version>
43012

> <i_f3d_flags>
0

> <s_epik_input>
W0NIM11DKD1PKU4xW0NIMl1bQ0gyXU4oW0NIMl1bQ0gyXTEpW0NIMl1bQ0gyXVtOSF1DKD1PKVtOSF1jMltjSF1bY0hdW2NIXVtjSF1uMg==

> <s_epik_cmdline>
J2VwaWtfcHl0aG9uJywgJy1waCcsICc3LjAnLCAnLXRuJywgJzgnLCAnLW1hJywgJzIwMCcsICctbWV0YWxfYmluZGluZycsICctaW1hZScsICc8aW5maWxlLm1hZT4nLCAnLW9tYWUnLCAnPG91dGZpbGUubWFlPic=

> <r_epik_Ionization_Penalty>
0.630068

> <r_epik_Ionization_Penalty_Charging>
0.630034

> <r_epik_Ionization_Penalty_Neutral>
3.4348e-05

> <r_epik_State_Penalty>
0.646805

> <r_epik_Charging_Adjusted_Penalty>
1.27684

> <i_epik_Tot_Q>
1

> <i_epik_Tot_abs_Q>
1

> <r_epik_Metal_State_Penalty>
0.646808

> <b_epik_Metal_Only>
0

> <s_lp_Force_Field>
OPLS_2005

> <r_lp_Energy>
41.8075

> <b_lp_Chiralities_Consistent>
1

> <s_lp_Variant>
AV-unprocessed.smi:1892-2

> <Gold.Version>
5.8.1

> <Gold.Id.Protein>
6NUR|6NUR_protein|mol2

> <Gold.PLP.Fitness>
47.9968

> <Gold.PLP.PLP>
-38.0505

> <Gold.PLP.part.hbond>
-2.9174

> <Gold.PLP.part.metal>
0.0000

> <Gold.PLP.part.buried>
-3.1981

> <Gold.PLP.part.nonpolar>
-34.1643

> <Gold.PLP.part.repulsive>
2.6055

> <Gold.PLP.ligand.clash>
0.0000

> <Gold.PLP.ligand.torsion>
0.9174

> <Gold.PLP.Chemscore.Hbond>
2.9120

> <Gold.PLP.Chemscore.CHOScore>
1.0000

> <Gold.PLP.Chemscore.Metal>
0.0000

> <Gold.Chemscore.Hbonds>
donor molecule, donor type, donor heavy atom, donor atom, acceptor molecule, acceptor atom, score
      L1  H     7    43       P1  7957  0.89
      L1  H    10    33       P1  7948  0.96
      L1  H    13    34       P1  7948  0.91
      L1  C    18    38       P1 10186  1.00

> <Gold.PLP.Chemscore.Internal.Correction>
0.0450

> <Gold.Rescore>
     Score         DG    S(hbond)    S(metal)    S(lipo)     H(rot)  DE(clash)    DE(int)     intcor
     16.12     -19.72       2.56        0.00      84.43       1.64       1.47       2.13       ----

> <Gold.Chemscore.Fitness>
16.1233

> <Gold.Chemscore.DG>
-19.7181

> <Gold.Chemscore.ZeroCoef>
-5.4800

> <Gold.Chemscore.Hbond>
2.5614

> <Gold.Chemscore.Metal>
0.0000

> <Gold.Chemscore.Lipo>
84.4284

> <Gold.Chemscore.Internal_Hbond>
0.0000

> <Gold.Chemscore.DEClash>
1.4674

> <Gold.Chemscore.DEInternal>
2.1274

> <Gold.Chemscore.Rot>
1.6388

> <Gold.Chemscore.Internal.Correction>
   9.000000E+99

> <Gold.Chemscore.Hbonds>
donor molecule, donor type, donor heavy atom, donor atom, acceptor molecule, acceptor atom, score
      L1  H     7    43       P1  7957  0.87
      L1  H    10    33       P1  7948  0.91
      L1  H    13    34       P1  7948  0.75

> <Gold.Chemscore.Hbond.Weighted>
-8.5552

> <Gold.Chemscore.Metal.Weighted>
-0.0000

> <Gold.Chemscore.Lipo.Weighted>
-9.8781

> <Gold.Chemscore.Internal_Hbond.Weighted>
0.0000

> <Gold.Chemscore.DEClash.Weighted>
1.4674

> <Gold.Chemscore.DEInternal.Weighted>
2.1274

> <Gold.Chemscore.Rot.Weighted>
4.1952

> <Gold.Chemscore.Internal.Correction.Weighted>
   9.000000E+99

> <Gold.Protein.RotatedTorsions>
[ 6907 6896 6895 6894 ] final  153.56 input  -60.11 | X-H torsion
[ 7974 7965 7964 7962 ] final -150.34 input  175.53 | X-H torsion
[ 8008 7997 7996 7995 ] final  136.14 input   59.86 | X-H torsion
[ 10167 10162 10161 10158 ] final -130.90 input  -65.29 | X-H torsion
[ 10718 10713 10712 10709 ] final  -76.71 input   66.30 | X-H torsion
[ 10763 10752 10751 10750 ] final   70.97 input  -60.55 | X-H torsion
[ 11005 11000 10999 10996 ] final  132.35 input  -57.11 | X-H torsion

> <Gold.Protein.ActiveResidues>
 VAL166  LYS551  ARG553  GLY616  TRP617  ASP618  TYR619  PRO620  LYS621  CYS622 
 ASP623  PHE694  ASN695  SER759  ASP760  ASP761  ALA762  ILE779  LEU786  VAL792 
 PHE793  MET794  SER795  GLU796  ALA797  LYS798  CYS799  TRP800  GLU811  SER814 

> <Gold.Protein.RotatedAtoms>
  152.0709  133.4106  159.4458 H   0  0  0  0  0  0  0  0  0  0  0  0  # atno 6907 bound_to 6896
  150.6863  134.3093  159.4748 H   0  0  0  0  0  0  0  0  0  0  0  0  # atno 6908 bound_to 6896
  152.0924  134.9397  160.0622 H   0  0  0  0  0  0  0  0  0  0  0  0  # atno 6909 bound_to 6896
  144.7913  140.4945  143.5770 H   0  0  0  0  0  0  0  0  0  0  0  0  # atno 7974 bound_to 7965
  156.3004  140.2453  156.3696 H   0  0  0  0  0  0  0  0  0  0  0  0  # atno 8008 bound_to 7997
  154.8801  140.0413  157.1797 H   0  0  0  0  0  0  0  0  0  0  0  0  # atno 8009 bound_to 7997
  154.8705  140.2934  155.5488 H   0  0  0  0  0  0  0  0  0  0  0  0  # atno 8010 bound_to 7997
  139.9245  143.6344  152.2545 H   0  0  0  0  0  0  0  0  0  0  0  0  # atno 10167 bound_to 10162
  156.0167  130.4472  150.3234 H   0  0  0  0  0  0  0  0  0  0  0  0  # atno 10718 bound_to 10713
  153.0372  135.5154  154.7523 H   0  0  0  0  0  0  0  0  0  0  0  0  # atno 10763 bound_to 10752
  154.6490  135.2922  155.0013 H   0  0  0  0  0  0  0  0  0  0  0  0  # atno 10764 bound_to 10752
  154.0904  135.6651  153.4904 H   0  0  0  0  0  0  0  0  0  0  0  0  # atno 10765 bound_to 10752
  139.9785  134.9556  156.9569 H   0  0  0  0  0  0  0  0  0  0  0  0  # atno 11005 bound_to 11000
  145.5786  139.1487  143.3248 LP  0  0  0  0  0  0  0  0  0  0  0  0  # atno 17320 bound_to 7965
  146.2166  140.5917  142.9035 LP  0  0  0  0  0  0  0  0  0  0  0  0  # atno 17321 bound_to 7965
  139.6834  144.7653  151.1568 LP  0  0  0  0  0  0  0  0  0  0  0  0  # atno 17342 bound_to 10162
  140.7653  143.5692  150.9014 LP  0  0  0  0  0  0  0  0  0  0  0  0  # atno 17343 bound_to 10162
  157.1334  131.0277  151.2959 LP  0  0  0  0  0  0  0  0  0  0  0  0  # atno 17370 bound_to 10713
  157.4532  130.7610  149.7169 LP  0  0  0  0  0  0  0  0  0  0  0  0  # atno 17371 bound_to 10713
  140.5145  134.0968  155.7278 LP  0  0  0  0  0  0  0  0  0  0  0  0  # atno 17394 bound_to 11000
  141.1459  133.9055  157.2215 LP  0  0  0  0  0  0  0  0  0  0  0  0  # atno 17395 bound_to 11000

$$$$
