AV-unprocessed.smi:3350|AV-procd|sdf|12945|dock10
  -GOLD-   2272019383D 1   1.00000     0.00000
 Structure written by MMmdl.
 41 42  0  0  0  0  0  0  0  0  1 V2000
  150.3582  132.8321  155.5289 C   0  0  0  0  0  0  0  0  0  0  0  0
  149.1959  133.3414  154.6660 C   0  0  2  0  0  0  0  0  0  0  0  0
  148.9207  132.3927  153.4789 C   0  0  0  0  0  0  0  0  0  0  0  0
  147.5896  132.5556  152.9210 N   0  0  0  0  0  0  0  0  0  0  0  0
  147.0041  133.6993  152.4205 C   0  0  0  0  0  0  0  0  0  0  0  0
  145.7403  133.3689  152.0236 C   0  0  0  0  0  0  0  0  0  0  0  0
  145.6466  131.9801  152.3183 C   0  0  0  0  0  0  0  0  0  0  0  0
  146.7569  131.4949  152.8498 N   0  0  0  0  0  0  0  0  0  0  0  0
  149.5115  134.6894  154.1939 N   0  0  0  0  0  0  0  0  0  0  0  0
  150.0663  135.6640  154.9290 C   0  0  0  0  0  0  0  0  0  0  0  0
  150.4003  135.5369  156.1069 O   0  0  0  0  0  0  0  0  0  0  0  0
  150.1913  136.8010  154.2294 N   0  0  0  0  0  0  0  0  0  0  0  0
  150.7224  138.0638  154.7406 C   0  0  1  0  0  0  0  0  0  0  0  0
  152.2270  138.1252  154.4390 C   0  0  0  0  0  0  0  0  0  0  0  0
  149.9645  139.2605  154.1269 C   0  0  1  0  0  0  0  0  0  0  0  0
  148.4846  139.3578  154.5080 C   0  0  0  0  0  0  0  0  0  0  0  0
  148.2162  140.8347  154.3416 C   0  0  0  0  0  0  0  0  0  0  0  0
  149.5129  141.4390  154.8679 C   0  0  0  0  0  0  0  0  0  0  0  0
  150.5346  140.4924  154.5669 O   0  0  0  0  0  0  0  0  0  0  0  0
  150.1454  131.8388  155.9256 H   0  0  0  0  0  0  0  0  0  0  0  0
  150.5362  133.4926  156.3781 H   0  0  0  0  0  0  0  0  0  0  0  0
  151.2831  132.7696  154.9544 H   0  0  0  0  0  0  0  0  0  0  0  0
  148.3119  133.3709  155.3059 H   0  0  0  0  0  0  0  0  0  0  0  0
  149.6538  132.5490  152.6863 H   0  0  0  0  0  0  0  0  0  0  0  0
  149.0254  131.3542  153.7967 H   0  0  0  0  0  0  0  0  0  0  0  0
  147.5262  134.6445  152.3978 H   0  0  0  0  0  0  0  0  0  0  0  0
  144.9957  134.0203  151.5910 H   0  0  0  0  0  0  0  0  0  0  0  0
  144.8108  131.3143  152.1620 H   0  0  0  0  0  0  0  0  0  0  0  0
  149.2755  134.8985  153.2351 H   0  0  0  0  0  0  0  0  0  0  0  0
  149.8845  136.7987  153.2677 H   0  0  0  0  0  0  0  0  0  0  0  0
  150.6042  138.1009  155.8251 H   0  0  0  0  0  0  0  0  0  0  0  0
  152.6724  139.0363  154.8390 H   0  0  0  0  0  0  0  0  0  0  0  0
  152.4193  138.1054  153.3657 H   0  0  0  0  0  0  0  0  0  0  0  0
  152.7517  137.2813  154.8879 H   0  0  0  0  0  0  0  0  0  0  0  0
  150.0436  139.2344  153.0388 H   0  0  0  0  0  0  0  0  0  0  0  0
  147.8438  138.7359  153.8832 H   0  0  0  0  0  0  0  0  0  0  0  0
  148.3324  139.0698  155.5492 H   0  0  0  0  0  0  0  0  0  0  0  0
  148.0865  141.0763  153.2858 H   0  0  0  0  0  0  0  0  0  0  0  0
  147.3343  141.1756  154.8844 H   0  0  0  0  0  0  0  0  0  0  0  0
  149.7282  142.4127  154.4277 H   0  0  0  0  0  0  0  0  0  0  0  0
  149.4635  141.5593  155.9505 H   0  0  0  0  0  0  0  0  0  0  0  0
  1  2  1  0  0  0  0
  1 20  1  0  0  0  0
  1 21  1  0  0  0  0
  1 22  1  0  0  0  0
  2  3  1  0  0  0  0
  2  9  1  0  0  0  0
  2 23  1  0  0  0  0
  3  4  1  0  0  0  0
  3 24  1  0  0  0  0
  3 25  1  0  0  0  0
  4  8  1  0  0  0  0
  4  5  1  0  0  0  0
  5  6  2  0  0  0  0
  5 26  1  0  0  0  0
  6  7  1  0  0  0  0
  6 27  1  0  0  0  0
  7  8  2  0  0  0  0
  7 28  1  0  0  0  0
  9 10  1  0  0  0  0
  9 29  1  0  0  0  0
 10 11  2  0  0  0  0
 10 12  1  0  0  0  0
 12 13  1  0  0  0  0
 12 30  1  0  0  0  0
 13 14  1  0  0  0  0
 13 15  1  0  0  0  0
 13 31  1  0  0  0  0
 14 32  1  0  0  0  0
 14 33  1  0  0  0  0
 14 34  1  0  0  0  0
 15 19  1  0  0  0  0
 15 16  1  0  0  0  0
 15 35  1  0  0  0  0
 16 17  1  0  0  0  0
 16 36  1  0  0  0  0
 16 37  1  0  0  0  0
 17 18  1  0  0  0  0
 17 38  1  0  0  0  0
 17 39  1  0  0  0  0
 18 19  1  0  0  0  0
 18 40  1  0  0  0  0
 18 41  1  0  0  0  0
M  END
> <s_m_source_file>
AV-unprocessed.smi

> <i_m_source_file_index>
3350

> <i_lp_mmshare_version>
43012

> <i_f3d_flags>
0

> <s_epik_input>
bjFbY0hdW2NIXVtjSF1uMVtDSDJdW0NAQEhdKFtDSDNdKVtOSF1DKD1PKVtOSF1bQ0BIXShbQ0gzXSlbQ0BASF0yW0NIMl1bQ0gyXVtDSDJdTzI=

> <s_epik_cmdline>
J2VwaWtfcHl0aG9uJywgJy1waCcsICc3LjAnLCAnLXRuJywgJzgnLCAnLW1hJywgJzIwMCcsICctbWV0YWxfYmluZGluZycsICctaW1hZScsICc8aW5maWxlLm1hZT4nLCAnLW9tYWUnLCAnPG91dGZpbGUubWFlPic=

> <r_lp_tautomer_probability>
1

> <r_epik_Ionization_Penalty>
6.42349e-05

> <r_epik_Ionization_Penalty_Charging>
0

> <r_epik_Ionization_Penalty_Neutral>
6.42349e-05

> <r_epik_State_Penalty>
-0

> <r_epik_Charging_Adjusted_Penalty>
0

> <i_epik_Tot_Q>
0

> <i_epik_Tot_abs_Q>
0

> <r_epik_Metal_State_Penalty>
-0

> <b_epik_Metal_Only>
0

> <s_lp_Force_Field>
OPLS_2005

> <r_lp_Energy>
14.6241

> <b_lp_Chiralities_Consistent>
1

> <s_lp_Variant>
AV-unprocessed.smi:3350-7

> <Gold.Version>
5.8.1

> <Gold.Id.Protein>
6NUR|6NUR_protein|mol2

> <Gold.PLP.Fitness>
44.5960

> <Gold.PLP.PLP>
-35.7254

> <Gold.PLP.part.hbond>
-3.7812

> <Gold.PLP.part.metal>
0.0000

> <Gold.PLP.part.buried>
-2.3359

> <Gold.PLP.part.nonpolar>
-30.3672

> <Gold.PLP.part.repulsive>
0.3396

> <Gold.PLP.ligand.clash>
0.0000

> <Gold.PLP.ligand.torsion>
0.7812

> <Gold.PLP.Chemscore.Hbond>
2.4692

> <Gold.PLP.Chemscore.CHOScore>
1.0000

> <Gold.PLP.Chemscore.Metal>
0.0000

> <Gold.Chemscore.Hbonds>
donor molecule, donor type, donor heavy atom, donor atom, acceptor molecule, acceptor atom, score
      L1  H     9    29       P1  7948  0.55
      L1  H    12    30       P1  7948  0.95
      P1  H  7989  7998       L1    19  1.00
      L1  C     5    26       P1  7948  1.00

> <Gold.PLP.Chemscore.Internal.Correction>
0.0253

> <Gold.Rescore>
     Score         DG    S(hbond)    S(metal)    S(lipo)     H(rot)  DE(clash)    DE(int)     intcor
     14.65     -16.87       2.48        0.00      66.28       1.82       0.02       2.20       ----

> <Gold.Chemscore.Fitness>
14.6511

> <Gold.Chemscore.DG>
-16.8709

> <Gold.Chemscore.ZeroCoef>
-5.4800

> <Gold.Chemscore.Hbond>
2.4835

> <Gold.Chemscore.Metal>
0.0000

> <Gold.Chemscore.Lipo>
66.2759

> <Gold.Chemscore.Internal_Hbond>
0.0000

> <Gold.Chemscore.DEClash>
0.0174

> <Gold.Chemscore.DEInternal>
2.2024

> <Gold.Chemscore.Rot>
1.8197

> <Gold.Chemscore.Internal.Correction>
   9.000000E+99

> <Gold.Chemscore.Hbonds>
donor molecule, donor type, donor heavy atom, donor atom, acceptor molecule, acceptor atom, score
      L1  H     9    29       P1  7948  0.03
      L1  H    12    30       P1  7948  0.21
      P1  H  7989  7998       L1    19  0.49

> <Gold.Chemscore.Hbond.Weighted>
-8.2950

> <Gold.Chemscore.Metal.Weighted>
-0.0000

> <Gold.Chemscore.Lipo.Weighted>
-7.7543

> <Gold.Chemscore.Internal_Hbond.Weighted>
0.0000

> <Gold.Chemscore.DEClash.Weighted>
0.0174

> <Gold.Chemscore.DEInternal.Weighted>
2.2024

> <Gold.Chemscore.Rot.Weighted>
4.6583

> <Gold.Chemscore.Internal.Correction.Weighted>
   9.000000E+99

> <Gold.Protein.RotatedTorsions>
[ 6907 6896 6895 6894 ] final   79.37 input  -60.11 | X-H torsion
[ 7974 7965 7964 7962 ] final  -89.34 input  175.53 | X-H torsion
[ 8008 7997 7996 7995 ] final -175.13 input   59.86 | X-H torsion
[ 10167 10162 10161 10158 ] final   39.48 input  -65.29 | X-H torsion
[ 10718 10713 10712 10709 ] final   -2.85 input   66.30 | X-H torsion
[ 10763 10752 10751 10750 ] final -108.05 input  -60.55 | X-H torsion
[ 11005 11000 10999 10996 ] final   63.32 input  -57.11 | X-H torsion

> <Gold.Protein.ActiveResidues>
 VAL166  LYS551  ARG553  GLY616  TRP617  ASP618  TYR619  PRO620  LYS621  CYS622 
 ASP623  PHE694  ASN695  SER759  ASP760  ASP761  ALA762  ILE779  LEU786  VAL792 
 PHE793  MET794  SER795  GLU796  ALA797  LYS798  CYS799  TRP800  GLU811  SER814 

> <Gold.Protein.RotatedAtoms>
  152.5196  134.3522  159.9254 H   0  0  0  0  0  0  0  0  0  0  0  0  # atno 6907 bound_to 6896
  151.3473  133.3933  159.2684 H   0  0  0  0  0  0  0  0  0  0  0  0  # atno 6908 bound_to 6896
  150.9755  134.9139  159.7871 H   0  0  0  0  0  0  0  0  0  0  0  0  # atno 6909 bound_to 6896
  145.4411  140.9559  143.2074 H   0  0  0  0  0  0  0  0  0  0  0  0  # atno 7974 bound_to 7965
  155.9787  140.1177  157.0746 H   0  0  0  0  0  0  0  0  0  0  0  0  # atno 8008 bound_to 7997
  154.4177  140.1149  156.5474 H   0  0  0  0  0  0  0  0  0  0  0  0  # atno 8009 bound_to 7997
  155.6499  140.3473  155.4747 H   0  0  0  0  0  0  0  0  0  0  0  0  # atno 8010 bound_to 7997
  140.3836  144.1947  150.6130 H   0  0  0  0  0  0  0  0  0  0  0  0  # atno 10167 bound_to 10162
  156.7847  130.5342  149.5745 H   0  0  0  0  0  0  0  0  0  0  0  0  # atno 10718 bound_to 10713
  154.8112  135.4652  154.0522 H   0  0  0  0  0  0  0  0  0  0  0  0  # atno 10763 bound_to 10752
  153.1951  135.6861  153.8309 H   0  0  0  0  0  0  0  0  0  0  0  0  # atno 10764 bound_to 10752
  153.7813  135.3256  155.3343 H   0  0  0  0  0  0  0  0  0  0  0  0  # atno 10765 bound_to 10752
  140.0033  134.6409  155.9896 H   0  0  0  0  0  0  0  0  0  0  0  0  # atno 11005 bound_to 11000
  144.8121  139.5944  143.7025 LP  0  0  0  0  0  0  0  0  0  0  0  0  # atno 17320 bound_to 7965
  146.2556  139.6294  142.9397 LP  0  0  0  0  0  0  0  0  0  0  0  0  # atno 17321 bound_to 7965
  140.4912  143.2347  151.8815 LP  0  0  0  0  0  0  0  0  0  0  0  0  # atno 17342 bound_to 10162
  139.4793  144.5163  151.8863 LP  0  0  0  0  0  0  0  0  0  0  0  0  # atno 17343 bound_to 10162
  156.1196  130.6100  151.0173 LP  0  0  0  0  0  0  0  0  0  0  0  0  # atno 17370 bound_to 10713
  157.6629  131.0877  150.7795 LP  0  0  0  0  0  0  0  0  0  0  0  0  # atno 17371 bound_to 10713
  141.1658  133.6537  156.4475 LP  0  0  0  0  0  0  0  0  0  0  0  0  # atno 17394 bound_to 11000
  140.4688  134.6773  157.5119 LP  0  0  0  0  0  0  0  0  0  0  0  0  # atno 17395 bound_to 11000

$$$$
