AV-unprocessed.smi:3278|AV-procd|sdf|12541|dock1
  -GOLD-   2272018453D 1   1.00000     0.00000
 Structure written by MMmdl.
 39 40  0  0  0  0  0  0  0  0  2 V2000
  153.3356  138.4639  155.0118 C   0  0  0  0  0  0  0  0  0  0  0  0
  152.0473  139.1217  154.9661 N   0  0  0  0  0  0  0  0  0  0  0  0
  151.5392  140.0803  155.8153 C   0  0  0  0  0  0  0  0  0  0  0  0
  150.2831  140.4003  155.3768 C   0  0  0  0  0  0  0  0  0  0  0  0
  149.3081  141.4042  155.9552 C   0  0  2  0  0  0  0  0  0  0  0  0
  147.9702  140.7175  156.2806 C   0  0  0  0  0  0  0  0  0  0  0  0
  148.9998  142.4324  155.0321 O   0  0  0  0  0  0  0  0  0  0  0  0
  149.8900  142.0800  157.2156 C   0  0  0  0  0  0  0  0  0  0  0  0
  150.8831  143.1229  156.8706 N   0  3  0  0  0  0  0  0  0  0  0  0
  151.5781  143.7472  158.0175 C   0  0  2  0  0  0  0  0  0  0  0  0
  151.9063  142.7002  159.1051 C   0  0  0  0  0  0  0  0  0  0  0  0
  152.6727  143.2971  160.2972 C   0  0  0  0  0  0  0  0  0  0  0  0
  151.8800  144.3983  161.0134 C   0  0  0  0  0  0  0  0  0  0  0  0
  151.5511  145.7905  159.9007 S   0  0  0  0  0  0  0  0  0  0  0  0
  150.7027  144.8816  158.5805 C   0  0  0  0  0  0  0  0  0  0  0  0
  150.1177  139.5620  154.2344 C   0  0  0  0  0  0  0  0  0  0  0  0
  151.1739  138.8049  153.9899 N   0  0  0  0  0  0  0  0  0  0  0  0
  153.9239  138.8502  155.8446 H   0  0  0  0  0  0  0  0  0  0  0  0
  153.8761  138.6444  154.0822 H   0  0  0  0  0  0  0  0  0  0  0  0
  153.1971  137.3901  155.1433 H   0  0  0  0  0  0  0  0  0  0  0  0
  152.1076  140.4533  156.6547 H   0  0  0  0  0  0  0  0  0  0  0  0
  148.0977  139.9239  157.0177 H   0  0  0  0  0  0  0  0  0  0  0  0
  147.5277  140.2691  155.3900 H   0  0  0  0  0  0  0  0  0  0  0  0
  147.2460  141.4242  156.6875 H   0  0  0  0  0  0  0  0  0  0  0  0
  149.0823  143.2671  155.4680 H   0  0  0  0  0  0  0  0  0  0  0  0
  149.0861  142.5111  157.8126 H   0  0  0  0  0  0  0  0  0  0  0  0
  150.3781  141.3311  157.8411 H   0  0  0  0  0  0  0  0  0  0  0  0
  151.5826  142.6814  156.2907 H   0  0  0  0  0  0  0  0  0  0  0  0
  152.5058  144.1894  157.6500 H   0  0  0  0  0  0  0  0  0  0  0  0
  150.9857  142.2351  159.4611 H   0  0  0  0  0  0  0  0  0  0  0  0
  152.5091  141.8957  158.6850 H   0  0  0  0  0  0  0  0  0  0  0  0
  152.9050  142.5034  161.0081 H   0  0  0  0  0  0  0  0  0  0  0  0
  153.6314  143.6932  159.9599 H   0  0  0  0  0  0  0  0  0  0  0  0
  150.9321  144.0068  161.3849 H   0  0  0  0  0  0  0  0  0  0  0  0
  152.4359  144.7635  161.8772 H   0  0  0  0  0  0  0  0  0  0  0  0
  150.4466  145.5913  157.7931 H   0  0  0  0  0  0  0  0  0  0  0  0
  149.7640  144.4866  158.9708 H   0  0  0  0  0  0  0  0  0  0  0  0
  149.2660  139.4861  153.5743 H   0  0  0  0  0  0  0  0  0  0  0  0
  150.4310  143.8434  156.3258 H   0  0  0  0  0  0  0  0  0  0  0  0
  1  2  1  0  0  0  0
  1 18  1  0  0  0  0
  1 19  1  0  0  0  0
  1 20  1  0  0  0  0
  2 17  1  0  0  0  0
  2  3  1  0  0  0  0
  3  4  2  0  0  0  0
  3 21  1  0  0  0  0
  4  5  1  0  0  0  0
  4 16  1  0  0  0  0
  5  6  1  0  0  0  0
  5  7  1  0  0  0  0
  5  8  1  0  0  0  0
  6 22  1  0  0  0  0
  6 23  1  0  0  0  0
  6 24  1  0  0  0  0
  7 25  1  0  0  0  0
  8  9  1  0  0  0  0
  8 26  1  0  0  0  0
  8 27  1  0  0  0  0
  9 10  1  0  0  0  0
  9 28  1  0  0  0  0
  9 39  1  0  0  0  0
 10 15  1  0  0  0  0
 10 11  1  0  0  0  0
 10 29  1  0  0  0  0
 11 12  1  0  0  0  0
 11 30  1  0  0  0  0
 11 31  1  0  0  0  0
 12 13  1  0  0  0  0
 12 32  1  0  0  0  0
 12 33  1  0  0  0  0
 13 14  1  0  0  0  0
 13 34  1  0  0  0  0
 13 35  1  0  0  0  0
 14 15  1  0  0  0  0
 15 36  1  0  0  0  0
 15 37  1  0  0  0  0
 16 17  2  0  0  0  0
 16 38  1  0  0  0  0
M  CHG  1   9   1
M  END
> <s_m_source_file>
AV-unprocessed.smi

> <i_m_source_file_index>
3278

> <i_lp_mmshare_version>
43012

> <i_f3d_flags>
0

> <s_epik_input>
W0NIM11uMVtjSF1jKFtjSF1uMSlbQ0BAXShbQ0gzXSkoW09IXSlbQ0gyXVtOSF1bQ0BASF0yW0NIMl1bQ0gyXVtDSDJdU1tDSDJdMg==

> <s_epik_cmdline>
J2VwaWtfcHl0aG9uJywgJy1waCcsICc3LjAnLCAnLXRuJywgJzgnLCAnLW1hJywgJzIwMCcsICctbWV0YWxfYmluZGluZycsICctaW1hZScsICc8aW5maWxlLm1hZT4nLCAnLW9tYWUnLCAnPG91dGZpbGUubWFlPic=

> <r_lp_tautomer_probability>
1

> <r_epik_Ionization_Penalty>
0.0185703

> <r_epik_Ionization_Penalty_Charging>
0.0185619

> <r_epik_Ionization_Penalty_Neutral>
8.47286e-06

> <r_epik_State_Penalty>
0.0147768

> <r_epik_Charging_Adjusted_Penalty>
0.0333386

> <i_epik_Tot_Q>
1

> <i_epik_Tot_abs_Q>
1

> <r_epik_Metal_State_Penalty>
0.0147782

> <b_epik_Metal_Only>
0

> <s_lp_Force_Field>
OPLS_2005

> <r_lp_Energy>
8.69531

> <b_lp_Chiralities_Consistent>
1

> <s_lp_Variant>
AV-unprocessed.smi:3278-2

> <Gold.Version>
5.8.1

> <Gold.Id.Protein>
6NUR|6NUR_protein|mol2

> <Gold.PLP.Fitness>
50.1965

> <Gold.PLP.PLP>
-40.1897

> <Gold.PLP.part.hbond>
-2.2363

> <Gold.PLP.part.metal>
0.0000

> <Gold.PLP.part.buried>
-0.4233

> <Gold.PLP.part.nonpolar>
-37.7707

> <Gold.PLP.part.repulsive>
0.2681

> <Gold.PLP.ligand.clash>
0.0000

> <Gold.PLP.ligand.torsion>
0.4788

> <Gold.PLP.Chemscore.Hbond>
2.9920

> <Gold.PLP.Chemscore.CHOScore>
0.6504

> <Gold.PLP.Chemscore.Metal>
0.0000

> <Gold.Chemscore.Hbonds>
donor molecule, donor type, donor heavy atom, donor atom, acceptor molecule, acceptor atom, score
      L1  H     7    25       P1  8028  0.86
      L1  H     9    39       P1  8028  2.00
      L1  C    16    38       P1  7957  0.76

> <Gold.PLP.Chemscore.Internal.Correction>
0.0372

> <Gold.Rescore>
     Score         DG    S(hbond)    S(metal)    S(lipo)     H(rot)  DE(clash)    DE(int)     intcor
     18.23     -19.84       1.98        0.00     109.97       2.00       0.89       0.72       ----

> <Gold.Chemscore.Fitness>
18.2326

> <Gold.Chemscore.DG>
-19.8426

> <Gold.Chemscore.ZeroCoef>
-5.4800

> <Gold.Chemscore.Hbond>
1.9837

> <Gold.Chemscore.Metal>
0.0000

> <Gold.Chemscore.Lipo>
109.9708

> <Gold.Chemscore.Internal_Hbond>
0.0000

> <Gold.Chemscore.DEClash>
0.8915

> <Gold.Chemscore.DEInternal>
0.7185

> <Gold.Chemscore.Rot>
2.0038

> <Gold.Chemscore.Internal.Correction>
   9.000000E+99

> <Gold.Chemscore.Hbonds>
donor molecule, donor type, donor heavy atom, donor atom, acceptor molecule, acceptor atom, score
      L1  H     7    25       P1  8028  0.82
      L1  H     9    39       P1  8028  0.97

> <Gold.Chemscore.Hbond.Weighted>
-6.6257

> <Gold.Chemscore.Metal.Weighted>
-0.0000

> <Gold.Chemscore.Lipo.Weighted>
-12.8666

> <Gold.Chemscore.Internal_Hbond.Weighted>
0.0000

> <Gold.Chemscore.DEClash.Weighted>
0.8915

> <Gold.Chemscore.DEInternal.Weighted>
0.7185

> <Gold.Chemscore.Rot.Weighted>
5.1296

> <Gold.Chemscore.Internal.Correction.Weighted>
   9.000000E+99

> <Gold.Protein.RotatedTorsions>
[ 6907 6896 6895 6894 ] final -102.85 input  -60.11 | X-H torsion
[ 7974 7965 7964 7962 ] final   12.05 input  175.53 | X-H torsion
[ 8008 7997 7996 7995 ] final  173.01 input   59.86 | X-H torsion
[ 10167 10162 10161 10158 ] final   85.24 input  -65.29 | X-H torsion
[ 10718 10713 10712 10709 ] final -172.73 input   66.30 | X-H torsion
[ 10763 10752 10751 10750 ] final  -68.87 input  -60.55 | X-H torsion
[ 11005 11000 10999 10996 ] final   72.14 input  -57.11 | X-H torsion

> <Gold.Protein.ActiveResidues>
 VAL166  LYS551  ARG553  GLY616  TRP617  ASP618  TYR619  PRO620  LYS621  CYS622 
 ASP623  PHE694  ASN695  SER759  ASP760  ASP761  ALA762  ILE779  LEU786  VAL792 
 PHE793  MET794  SER795  GLU796  ALA797  LYS798  CYS799  TRP800  GLU811  SER814 

> <Gold.Protein.RotatedAtoms>
  150.7214  134.0519  159.3800 H   0  0  0  0  0  0  0  0  0  0  0  0  # atno 6907 bound_to 6896
  151.8496  135.0560  160.0466 H   0  0  0  0  0  0  0  0  0  0  0  0  # atno 6908 bound_to 6896
  152.2801  133.5426  159.5528 H   0  0  0  0  0  0  0  0  0  0  0  0  # atno 6909 bound_to 6896
  146.2359  139.9394  142.8485 H   0  0  0  0  0  0  0  0  0  0  0  0  # atno 7974 bound_to 7965
  156.1118  140.1471  156.9328 H   0  0  0  0  0  0  0  0  0  0  0  0  # atno 8008 bound_to 7997
  154.4772  140.0890  156.7334 H   0  0  0  0  0  0  0  0  0  0  0  0  # atno 8009 bound_to 7997
  155.4583  140.3437  155.4311 H   0  0  0  0  0  0  0  0  0  0  0  0  # atno 8010 bound_to 7997
  139.8998  144.6336  150.8649 H   0  0  0  0  0  0  0  0  0  0  0  0  # atno 10167 bound_to 10162
  156.7599  130.9409  151.3117 H   0  0  0  0  0  0  0  0  0  0  0  0  # atno 10718 bound_to 10713
  154.3953  135.6043  153.5866 H   0  0  0  0  0  0  0  0  0  0  0  0  # atno 10763 bound_to 10752
  152.9787  135.5893  154.4249 H   0  0  0  0  0  0  0  0  0  0  0  0  # atno 10764 bound_to 10752
  154.4040  135.2843  155.2057 H   0  0  0  0  0  0  0  0  0  0  0  0  # atno 10765 bound_to 10752
  139.9507  134.7233  156.0871 H   0  0  0  0  0  0  0  0  0  0  0  0  # atno 11005 bound_to 11000
  145.1967  140.9836  143.4179 LP  0  0  0  0  0  0  0  0  0  0  0  0  # atno 17320 bound_to 7965
  144.9809  139.3784  143.6262 LP  0  0  0  0  0  0  0  0  0  0  0  0  # atno 17321 bound_to 7965
  140.7709  143.3446  151.2138 LP  0  0  0  0  0  0  0  0  0  0  0  0  # atno 17342 bound_to 10162
  139.7036  143.9493  152.2916 LP  0  0  0  0  0  0  0  0  0  0  0  0  # atno 17343 bound_to 10162
  157.6739  130.9076  150.0105 LP  0  0  0  0  0  0  0  0  0  0  0  0  # atno 17370 bound_to 10713
  156.1346  130.3643  149.9678 LP  0  0  0  0  0  0  0  0  0  0  0  0  # atno 17371 bound_to 10713
  141.1168  133.6625  156.3115 LP  0  0  0  0  0  0  0  0  0  0  0  0  # atno 17394 bound_to 11000
  140.5727  134.5824  157.5461 LP  0  0  0  0  0  0  0  0  0  0  0  0  # atno 17395 bound_to 11000

$$$$
