AV-unprocessed.smi:1196|AV-procd|sdf|5007|dock1
  -GOLD-   22720 4 23D 1   1.00000     0.00000
 Structure written by MMmdl.
 36 37  0  0  0  0  0  0  0  0  2 V2000
  149.9768  141.7346  156.5612 C   0  0  0  0  0  0  0  0  0  0  0  0
  151.3186  141.3924  157.2282 C   0  0  1  0  0  0  0  0  0  0  0  0
  151.2868  141.6905  158.7400 C   0  0  0  0  0  0  0  0  0  0  0  0
  151.3993  143.1097  159.0280 N   0  0  0  0  0  0  0  0  0  0  0  0
  150.6076  144.1407  158.5681 C   0  0  0  0  0  0  0  0  0  0  0  0
  151.0991  145.2986  159.0993 C   0  0  0  0  0  0  0  0  0  0  0  0
  152.2078  144.8681  159.8804 C   0  0  0  0  0  0  0  0  0  0  0  0
  152.3841  143.5574  159.8374 N   0  0  0  0  0  0  0  0  0  0  0  0
  151.6437  139.9864  156.9991 N   0  0  0  0  0  0  0  0  0  0  0  0
  151.7505  139.3951  155.7995 C   0  0  0  0  0  0  0  0  0  0  0  0
  151.5718  139.9872  154.7350 O   0  0  0  0  0  0  0  0  0  0  0  0
  152.1239  137.9113  155.8043 C   0  0  0  0  0  0  0  0  0  0  0  0
  151.2762  137.0917  154.8137 C   0  0  0  0  0  0  0  0  0  0  0  0
  149.9824  136.5380  155.4424 C   0  0  1  0  0  0  0  0  0  0  0  0
  149.2600  135.7036  154.5063 N   0  0  0  0  0  0  0  0  0  0  0  0
  149.0872  134.4732  154.9848 C   0  0  0  0  0  0  0  0  0  0  0  0
  148.4799  133.6125  154.3517 O   0  0  0  0  0  0  0  0  0  0  0  0
  149.6639  134.3614  156.1969 N   0  5  0  0  0  0  0  0  0  0  0  0
  150.2332  135.5300  156.5639 C   0  0  0  0  0  0  0  0  0  0  0  0
  150.8487  135.8281  157.5860 O   0  0  0  0  0  0  0  0  0  0  0  0
  149.7242  142.7852  156.7059 H   0  0  0  0  0  0  0  0  0  0  0  0
  149.1644  141.1362  156.9748 H   0  0  0  0  0  0  0  0  0  0  0  0
  150.0109  141.5522  155.4866 H   0  0  0  0  0  0  0  0  0  0  0  0
  152.0912  142.0182  156.7769 H   0  0  0  0  0  0  0  0  0  0  0  0
  150.3480  141.3381  159.1694 H   0  0  0  0  0  0  0  0  0  0  0  0
  152.0842  141.1550  159.2584 H   0  0  0  0  0  0  0  0  0  0  0  0
  149.7710  143.9662  157.9079 H   0  0  0  0  0  0  0  0  0  0  0  0
  150.7246  146.3005  158.9514 H   0  0  0  0  0  0  0  0  0  0  0  0
  152.8846  145.4647  160.4740 H   0  0  0  0  0  0  0  0  0  0  0  0
  151.8175  139.4223  157.8187 H   0  0  0  0  0  0  0  0  0  0  0  0
  153.1806  137.8231  155.5503 H   0  0  0  0  0  0  0  0  0  0  0  0
  152.0121  137.5096  156.8127 H   0  0  0  0  0  0  0  0  0  0  0  0
  151.0343  137.7007  153.9406 H   0  0  0  0  0  0  0  0  0  0  0  0
  151.8711  136.2551  154.4435 H   0  0  0  0  0  0  0  0  0  0  0  0
  149.3402  137.3409  155.8062 H   0  0  0  0  0  0  0  0  0  0  0  0
  148.9157  136.0314  153.6163 H   0  0  0  0  0  0  0  0  0  0  0  0
  1  2  1  0  0  0  0
  1 21  1  0  0  0  0
  1 22  1  0  0  0  0
  1 23  1  0  0  0  0
  2  3  1  0  0  0  0
  2  9  1  0  0  0  0
  2 24  1  0  0  0  0
  3  4  1  0  0  0  0
  3 25  1  0  0  0  0
  3 26  1  0  0  0  0
  4  8  1  0  0  0  0
  4  5  1  0  0  0  0
  5  6  2  0  0  0  0
  5 27  1  0  0  0  0
  6  7  1  0  0  0  0
  6 28  1  0  0  0  0
  7  8  2  0  0  0  0
  7 29  1  0  0  0  0
  9 10  1  0  0  0  0
  9 30  1  0  0  0  0
 10 11  2  0  0  0  0
 10 12  1  0  0  0  0
 12 13  1  0  0  0  0
 12 31  1  0  0  0  0
 12 32  1  0  0  0  0
 13 14  1  0  0  0  0
 13 33  1  0  0  0  0
 13 34  1  0  0  0  0
 14 19  1  0  0  0  0
 14 15  1  0  0  0  0
 14 35  1  0  0  0  0
 15 16  1  0  0  0  0
 15 36  1  0  0  0  0
 16 17  2  0  0  0  0
 16 18  1  0  0  0  0
 18 19  1  0  0  0  0
 19 20  2  0  0  0  0
M  CHG  1  18  -1
M  END
> <s_m_source_file>
AV-unprocessed.smi

> <i_m_source_file_index>
1196

> <i_lp_mmshare_version>
43012

> <i_f3d_flags>
0

> <s_epik_input>
bjFbY0hdW2NIXVtjSF1uMVtDSDJdW0NAQEhdKFtDSDNdKVtOSF1DKD1PKVtDSDJdW0NIMl1bQ0BASF0yW05IXUMoPU8pW05IXUMyPU8=

> <s_epik_cmdline>
J2VwaWtfcHl0aG9uJywgJy1waCcsICc3LjAnLCAnLXRuJywgJzgnLCAnLW1hJywgJzIwMCcsICctbWV0YWxfYmluZGluZycsICctaW1hZScsICc8aW5maWxlLm1hZT4nLCAnLW9tYWUnLCAnPG91dGZpbGUubWFlPic=

> <r_lp_tautomer_probability>
1

> <r_epik_Ionization_Penalty>
2.57056

> <r_epik_Ionization_Penalty_Charging>
2.57023

> <r_epik_Ionization_Penalty_Neutral>
0.000331301

> <r_epik_State_Penalty>
2.56828

> <r_epik_Charging_Adjusted_Penalty>
5.13851

> <i_epik_Tot_Q>
-1

> <i_epik_Tot_abs_Q>
1

> <r_epik_Metal_State_Penalty>
0.444883

> <b_epik_Metal_Only>
1

> <s_lp_Force_Field>
OPLS_2005

> <r_lp_Energy>
6.594

> <b_lp_Chiralities_Consistent>
1

> <s_lp_Variant>
AV-unprocessed.smi:1196-12

> <Gold.Version>
5.8.1

> <Gold.Id.Protein>
6NUR|6NUR_protein|mol2

> <Gold.PLP.Fitness>
42.3522

> <Gold.PLP.PLP>
-33.4986

> <Gold.PLP.part.hbond>
-2.8763

> <Gold.PLP.part.metal>
0.0000

> <Gold.PLP.part.buried>
-6.7970

> <Gold.PLP.part.nonpolar>
-24.9491

> <Gold.PLP.part.repulsive>
0.2772

> <Gold.PLP.ligand.clash>
0.0000

> <Gold.PLP.ligand.torsion>
0.5676

> <Gold.PLP.Chemscore.Hbond>
2.1733

> <Gold.PLP.Chemscore.CHOScore>
1.0995

> <Gold.PLP.Chemscore.Metal>
0.0000

> <Gold.Chemscore.Hbonds>
donor molecule, donor type, donor heavy atom, donor atom, acceptor molecule, acceptor atom, score
      L1  H    15    36       P1  7948  1.00
      P1  H  6896  6907       L1    20  0.16
      P1  H  7989  7998       L1    11  0.96
      L1  C     5    27       P1  8028  1.00
      L1  C     5    27       P1  8029  0.11

> <Gold.PLP.Chemscore.Internal.Correction>
0.1706

> <Gold.Rescore>
     Score         DG    S(hbond)    S(metal)    S(lipo)     H(rot)  DE(clash)    DE(int)     intcor
     12.49     -15.02       2.65        0.00      69.17       2.89       0.03       2.50       ----

> <Gold.Chemscore.Fitness>
12.4885

> <Gold.Chemscore.DG>
-15.0171

> <Gold.Chemscore.ZeroCoef>
-5.4800

> <Gold.Chemscore.Hbond>
2.6511

> <Gold.Chemscore.Metal>
0.0000

> <Gold.Chemscore.Lipo>
69.1678

> <Gold.Chemscore.Internal_Hbond>
0.0000

> <Gold.Chemscore.DEClash>
0.0272

> <Gold.Chemscore.DEInternal>
2.5014

> <Gold.Chemscore.Rot>
2.8946

> <Gold.Chemscore.Internal.Correction>
   9.000000E+99

> <Gold.Chemscore.Hbonds>
donor molecule, donor type, donor heavy atom, donor atom, acceptor molecule, acceptor atom, score
      L1  H    15    36       P1  7948  0.95
      P1  H  6896  6907       L1    20  0.15
      P1  H  7989  7998       L1    11  0.90

> <Gold.Chemscore.Hbond.Weighted>
-8.8546

> <Gold.Chemscore.Metal.Weighted>
-0.0000

> <Gold.Chemscore.Lipo.Weighted>
-8.0926

> <Gold.Chemscore.Internal_Hbond.Weighted>
0.0000

> <Gold.Chemscore.DEClash.Weighted>
0.0272

> <Gold.Chemscore.DEInternal.Weighted>
2.5014

> <Gold.Chemscore.Rot.Weighted>
7.4101

> <Gold.Chemscore.Internal.Correction.Weighted>
   9.000000E+99

> <Gold.Protein.RotatedTorsions>
[ 6907 6896 6895 6894 ] final  -52.59 input  -60.11 | X-H torsion
[ 7974 7965 7964 7962 ] final  109.73 input  175.53 | X-H torsion
[ 8008 7997 7996 7995 ] final -102.16 input   59.86 | X-H torsion
[ 10167 10162 10161 10158 ] final  -11.24 input  -65.29 | X-H torsion
[ 10718 10713 10712 10709 ] final  134.26 input   66.30 | X-H torsion
[ 10763 10752 10751 10750 ] final -128.66 input  -60.55 | X-H torsion
[ 11005 11000 10999 10996 ] final -161.15 input  -57.11 | X-H torsion

> <Gold.Protein.ActiveResidues>
 VAL166  LYS551  ARG553  GLY616  TRP617  ASP618  TYR619  PRO620  LYS621  CYS622 
 ASP623  PHE694  ASN695  SER759  ASP760  ASP761  ALA762  ILE779  LEU786  VAL792 
 PHE793  MET794  SER795  GLU796  ALA797  LYS798  CYS799  TRP800  GLU811  SER814 

> <Gold.Protein.RotatedAtoms>
  150.8504  134.7827  159.7003 H   0  0  0  0  0  0  0  0  0  0  0  0  # atno 6907 bound_to 6896
  152.4570  134.5266  159.9808 H   0  0  0  0  0  0  0  0  0  0  0  0  # atno 6908 bound_to 6896
  151.5388  133.3398  159.2967 H   0  0  0  0  0  0  0  0  0  0  0  0  # atno 6909 bound_to 6896
  145.2640  139.2691  143.4002 H   0  0  0  0  0  0  0  0  0  0  0  0  # atno 7974 bound_to 7965
  154.8528  140.0430  157.1615 H   0  0  0  0  0  0  0  0  0  0  0  0  # atno 8008 bound_to 7997
  154.8924  140.2988  155.5342 H   0  0  0  0  0  0  0  0  0  0  0  0  # atno 8009 bound_to 7997
  156.2996  140.2391  156.3942 H   0  0  0  0  0  0  0  0  0  0  0  0  # atno 8010 bound_to 7997
  140.7134  143.5660  150.9143 H   0  0  0  0  0  0  0  0  0  0  0  0  # atno 10167 bound_to 10162
  157.4690  131.1079  150.9826 H   0  0  0  0  0  0  0  0  0  0  0  0  # atno 10718 bound_to 10713
  154.8756  135.3921  154.3793 H   0  0  0  0  0  0  0  0  0  0  0  0  # atno 10763 bound_to 10752
  153.4543  135.7028  153.6095 H   0  0  0  0  0  0  0  0  0  0  0  0  # atno 10764 bound_to 10752
  153.4621  135.3809  155.2313 H   0  0  0  0  0  0  0  0  0  0  0  0  # atno 10765 bound_to 10752
  140.6236  134.4724  157.5225 H   0  0  0  0  0  0  0  0  0  0  0  0  # atno 11005 bound_to 11000
  146.3266  140.3065  142.8624 LP  0  0  0  0  0  0  0  0  0  0  0  0  # atno 17320 bound_to 7965
  144.9393  140.8061  143.5640 LP  0  0  0  0  0  0  0  0  0  0  0  0  # atno 17321 bound_to 7965
  139.9386  143.6408  152.3059 LP  0  0  0  0  0  0  0  0  0  0  0  0  # atno 17342 bound_to 10162
  139.6885  144.7649  151.1481 LP  0  0  0  0  0  0  0  0  0  0  0  0  # atno 17343 bound_to 10162
  157.0597  130.5820  149.5384 LP  0  0  0  0  0  0  0  0  0  0  0  0  # atno 17370 bound_to 10713
  156.0064  130.5151  150.7845 LP  0  0  0  0  0  0  0  0  0  0  0  0  # atno 17371 bound_to 10713
  139.9143  134.8278  156.1418 LP  0  0  0  0  0  0  0  0  0  0  0  0  # atno 17394 bound_to 11000
  141.0725  133.6790  156.2169 LP  0  0  0  0  0  0  0  0  0  0  0  0  # atno 17395 bound_to 11000

$$$$
