AV-unprocessed.smi:246|AV-procd|sdf|1884|dock2
  -GOLD-   2262020533D 1   1.00000     0.00000
 Structure written by MMmdl.
 57 60  0  0  0  0  0  0  0  0  1 V2000
  145.7309  133.6576  162.5390 C   0  0  0  0  0  0  0  0  0  0  0  0
  147.0040  134.4790  162.2923 C   0  0  0  0  0  0  0  0  0  0  0  0
  147.0453  135.0046  160.9732 O   0  0  0  0  0  0  0  0  0  0  0  0
  147.8478  134.2567  160.0713 C   0  0  0  0  0  0  0  0  0  0  0  0
  147.2121  134.3122  158.6794 C   0  0  0  0  0  0  0  0  0  0  0  0
  148.0101  133.5536  157.7838 O   0  0  0  0  0  0  0  0  0  0  0  0
  149.3582  133.9916  157.7022 C   0  0  1  0  0  0  0  0  0  0  0  0
  150.1299  133.3744  156.5324 C   0  0  0  0  0  0  0  0  0  0  0  0
  151.2071  134.4152  156.2158 C   0  0  0  0  0  0  0  0  0  0  0  0
  150.6790  135.6859  156.7009 N   0  0  0  0  0  0  0  0  0  0  0  0
  151.0329  136.8738  156.1427 C   0  0  0  0  0  0  0  0  0  0  0  0
  151.6451  136.8560  154.9287 N   0  0  0  0  0  0  0  0  0  0  0  0
  152.0094  137.9936  154.3312 C   0  0  0  0  0  0  0  0  0  0  0  0
  151.8628  139.2459  154.7641 N   0  0  0  0  0  0  0  0  0  0  0  0
  151.2592  139.2765  155.9858 C   0  0  0  0  0  0  0  0  0  0  0  0
  150.8192  138.1517  156.7431 C   0  0  0  0  0  0  0  0  0  0  0  0
  150.2605  138.5910  157.9397 N   0  0  0  0  0  0  0  0  0  0  0  0
  150.3552  139.8909  157.8874 C   0  0  0  0  0  0  0  0  0  0  0  0
  150.9346  140.3871  156.7432 N   0  0  0  0  0  0  0  0  0  0  0  0
  151.1497  141.7835  156.4111 C   0  0  0  0  0  0  0  0  0  0  0  0
  150.9598  142.7274  157.6178 C   0  0  2  0  0  0  0  0  0  0  0  0
  150.8133  144.0373  157.1069 O   0  0  0  0  0  0  0  0  0  0  0  0
  152.1248  142.7087  158.6333 C   0  0  1  0  0  0  0  0  0  0  0  0
  151.8937  143.5647  159.8817 C   0  0  0  0  0  0  0  0  0  0  0  0
  152.7717  142.9156  160.9409 C   0  0  0  0  0  0  0  0  0  0  0  0
  153.1424  141.5606  160.3355 C   0  0  0  0  0  0  0  0  0  0  0  0
  152.2873  141.4219  159.2115 O   0  0  0  0  0  0  0  0  0  0  0  0
  149.4120  135.4865  157.3869 C   0  0  0  0  0  0  0  0  0  0  0  0
  149.8872  133.8065  158.6391 H   0  0  0  0  0  0  0  0  0  0  0  0
  145.7610  133.1870  163.5218 H   0  0  0  0  0  0  0  0  0  0  0  0
  145.6261  132.8670  161.7957 H   0  0  0  0  0  0  0  0  0  0  0  0
  144.8345  134.2752  162.5017 H   0  0  0  0  0  0  0  0  0  0  0  0
  147.1104  135.2724  163.0332 H   0  0  0  0  0  0  0  0  0  0  0  0
  147.8696  133.8271  162.4116 H   0  0  0  0  0  0  0  0  0  0  0  0
  148.8697  134.6335  160.0301 H   0  0  0  0  0  0  0  0  0  0  0  0
  147.8938  133.2201  160.4080 H   0  0  0  0  0  0  0  0  0  0  0  0
  146.2102  133.8823  158.7203 H   0  0  0  0  0  0  0  0  0  0  0  0
  147.1127  135.3468  158.3490 H   0  0  0  0  0  0  0  0  0  0  0  0
  150.5459  132.3929  156.7612 H   0  0  0  0  0  0  0  0  0  0  0  0
  149.4671  133.2668  155.6725 H   0  0  0  0  0  0  0  0  0  0  0  0
  152.1298  134.1919  156.7523 H   0  0  0  0  0  0  0  0  0  0  0  0
  151.4275  134.4288  155.1475 H   0  0  0  0  0  0  0  0  0  0  0  0
  152.4861  137.8847  153.3683 H   0  0  0  0  0  0  0  0  0  0  0  0
  149.9915  140.5265  158.6814 H   0  0  0  0  0  0  0  0  0  0  0  0
  152.1564  141.8889  156.0040 H   0  0  0  0  0  0  0  0  0  0  0  0
  150.4599  142.0506  155.6095 H   0  0  0  0  0  0  0  0  0  0  0  0
  150.0331  142.4735  158.1338 H   0  0  0  0  0  0  0  0  0  0  0  0
  149.9897  144.0895  156.6466 H   0  0  0  0  0  0  0  0  0  0  0  0
  153.0581  143.0036  158.1492 H   0  0  0  0  0  0  0  0  0  0  0  0
  152.1348  144.6158  159.7203 H   0  0  0  0  0  0  0  0  0  0  0  0
  150.8491  143.5045  160.1906 H   0  0  0  0  0  0  0  0  0  0  0  0
  153.6660  143.5067  161.1409 H   0  0  0  0  0  0  0  0  0  0  0  0
  152.2265  142.8019  161.8785 H   0  0  0  0  0  0  0  0  0  0  0  0
  154.1800  141.5604  159.9985 H   0  0  0  0  0  0  0  0  0  0  0  0
  153.0107  140.7353  161.0356 H   0  0  0  0  0  0  0  0  0  0  0  0
  148.5963  135.7675  156.7190 H   0  0  0  0  0  0  0  0  0  0  0  0
  149.3406  136.0848  158.2956 H   0  0  0  0  0  0  0  0  0  0  0  0
  1  2  1  0  0  0  0
  1 30  1  0  0  0  0
  1 31  1  0  0  0  0
  1 32  1  0  0  0  0
  2  3  1  0  0  0  0
  2 33  1  0  0  0  0
  2 34  1  0  0  0  0
  3  4  1  0  0  0  0
  4  5  1  0  0  0  0
  4 35  1  0  0  0  0
  4 36  1  0  0  0  0
  5  6  1  0  0  0  0
  5 37  1  0  0  0  0
  5 38  1  0  0  0  0
  6  7  1  0  0  0  0
  7 29  1  0  0  0  0
  7 28  1  0  0  0  0
  7  8  1  0  0  0  0
  8  9  1  0  0  0  0
  8 39  1  0  0  0  0
  8 40  1  0  0  0  0
  9 10  1  0  0  0  0
  9 41  1  0  0  0  0
  9 42  1  0  0  0  0
 10 11  1  0  0  0  0
 10 28  1  0  0  0  0
 11 16  1  0  0  0  0
 11 12  2  0  0  0  0
 12 13  1  0  0  0  0
 13 14  2  0  0  0  0
 13 43  1  0  0  0  0
 14 15  1  0  0  0  0
 15 19  1  0  0  0  0
 15 16  2  0  0  0  0
 16 17  1  0  0  0  0
 17 18  2  0  0  0  0
 18 19  1  0  0  0  0
 18 44  1  0  0  0  0
 19 20  1  0  0  0  0
 20 21  1  0  0  0  0
 20 45  1  0  0  0  0
 20 46  1  0  0  0  0
 21 22  1  0  0  0  0
 21 23  1  0  0  0  0
 21 47  1  0  0  0  0
 22 48  1  0  0  0  0
 23 27  1  0  0  0  0
 23 24  1  0  0  0  0
 23 49  1  0  0  0  0
 24 25  1  0  0  0  0
 24 50  1  0  0  0  0
 24 51  1  0  0  0  0
 25 26  1  0  0  0  0
 25 52  1  0  0  0  0
 25 53  1  0  0  0  0
 26 27  1  0  0  0  0
 26 54  1  0  0  0  0
 26 55  1  0  0  0  0
 28 56  1  0  0  0  0
 28 57  1  0  0  0  0
M  END
> <s_m_source_file>
AV-unprocessed.smi

> <i_m_source_file_index>
246

> <i_lp_mmshare_version>
43012

> <i_f3d_flags>
0

> <s_epik_input>
W0NIM11bQ0gyXU9bQ0gyXVtDSDJdT1tDQEhdMVtDSDJdW0NIMl1OKFtDSDJdMSljKG5bY0hdbjIpYyhjMjMpbltjSF1uM1tDSDJdW0NASF0oW09IXSlbQ0BASF00W0NIMl1bQ0gyXVtDSDJdTzQ=

> <s_epik_cmdline>
J2VwaWtfcHl0aG9uJywgJy1waCcsICc3LjAnLCAnLXRuJywgJzgnLCAnLW1hJywgJzIwMCcsICctbWV0YWxfYmluZGluZycsICctaW1hZScsICc8aW5maWxlLm1hZT4nLCAnLW9tYWUnLCAnPG91dGZpbGUubWFlPic=

> <r_lp_tautomer_probability>
1

> <r_epik_Ionization_Penalty>
0.0024631

> <r_epik_Ionization_Penalty_Charging>
0

> <r_epik_Ionization_Penalty_Neutral>
0.0024631

> <r_epik_State_Penalty>
0.00162428

> <r_epik_Charging_Adjusted_Penalty>
0.00162428

> <i_epik_Tot_Q>
0

> <i_epik_Tot_abs_Q>
0

> <r_epik_Metal_State_Penalty>
-0

> <b_epik_Metal_Only>
0

> <s_lp_Force_Field>
OPLS_2005

> <r_lp_Energy>
49.6926

> <b_lp_Chiralities_Consistent>
1

> <s_lp_Variant>
AV-unprocessed.smi:246-5

> <Gold.Version>
5.8.1

> <Gold.Id.Protein>
6NUR|6NUR_protein|mol2

> <Gold.PLP.Fitness>
53.8429

> <Gold.PLP.PLP>
-44.7015

> <Gold.PLP.part.hbond>
-3.0000

> <Gold.PLP.part.metal>
0.0000

> <Gold.PLP.part.buried>
-8.0481

> <Gold.PLP.part.nonpolar>
-34.9090

> <Gold.PLP.part.repulsive>
0.2443

> <Gold.PLP.ligand.clash>
0.0000

> <Gold.PLP.ligand.torsion>
1.2251

> <Gold.PLP.Chemscore.Hbond>
3.0000

> <Gold.PLP.Chemscore.CHOScore>
0.5224

> <Gold.PLP.Chemscore.Metal>
0.0000

> <Gold.Chemscore.Hbonds>
donor molecule, donor type, donor heavy atom, donor atom, acceptor molecule, acceptor atom, score
      L1  H    22    48       P1  8028  1.00
      P1  H  7989  7998       L1    14  0.93
      P1  H 10752 10764       L1    12  1.00

> <Gold.PLP.Chemscore.Internal.Correction>
1.0241

> <Gold.Rescore>
     Score         DG    S(hbond)    S(metal)    S(lipo)     H(rot)  DE(clash)    DE(int)     intcor
     15.47     -17.22       2.34        0.00     101.50       3.10       0.38       1.37       ----

> <Gold.Chemscore.Fitness>
15.4652

> <Gold.Chemscore.DG>
-17.2183

> <Gold.Chemscore.ZeroCoef>
-5.4800

> <Gold.Chemscore.Hbond>
2.3370

> <Gold.Chemscore.Metal>
0.0000

> <Gold.Chemscore.Lipo>
101.4988

> <Gold.Chemscore.Internal_Hbond>
0.0000

> <Gold.Chemscore.DEClash>
0.3829

> <Gold.Chemscore.DEInternal>
1.3701

> <Gold.Chemscore.Rot>
3.1026

> <Gold.Chemscore.Internal.Correction>
   9.000000E+99

> <Gold.Chemscore.Hbonds>
donor molecule, donor type, donor heavy atom, donor atom, acceptor molecule, acceptor atom, score
      L1  H    22    48       P1  8028  0.96
      P1  H  7989  7998       L1    14  0.81
      P1  H 10752 10764       L1    12  0.59

> <Gold.Chemscore.Hbond.Weighted>
-7.8055

> <Gold.Chemscore.Metal.Weighted>
-0.0000

> <Gold.Chemscore.Lipo.Weighted>
-11.8754

> <Gold.Chemscore.Internal_Hbond.Weighted>
0.0000

> <Gold.Chemscore.DEClash.Weighted>
0.3829

> <Gold.Chemscore.DEInternal.Weighted>
1.3701

> <Gold.Chemscore.Rot.Weighted>
7.9426

> <Gold.Chemscore.Internal.Correction.Weighted>
   9.000000E+99

> <Gold.Protein.RotatedTorsions>
[ 6907 6896 6895 6894 ] final  -52.53 input  -60.11 | X-H torsion
[ 7974 7965 7964 7962 ] final  120.87 input  175.53 | X-H torsion
[ 8008 7997 7996 7995 ] final  -50.60 input   59.86 | X-H torsion
[ 10167 10162 10161 10158 ] final -118.17 input  -65.29 | X-H torsion
[ 10718 10713 10712 10709 ] final -161.93 input   66.30 | X-H torsion
[ 10763 10752 10751 10750 ] final  -61.63 input  -60.55 | X-H torsion
[ 11005 11000 10999 10996 ] final   60.04 input  -57.11 | X-H torsion

> <Gold.Protein.ActiveResidues>
 VAL166  LYS551  ARG553  GLY616  TRP617  ASP618  TYR619  PRO620  LYS621  CYS622 
 ASP623  PHE694  ASN695  SER759  ASP760  ASP761  ALA762  ILE779  LEU786  VAL792 
 PHE793  MET794  SER795  GLU796  ALA797  LYS798  CYS799  TRP800  GLU811  SER814 

> <Gold.Protein.RotatedAtoms>
  150.8509  134.7834  159.7007 H   0  0  0  0  0  0  0  0  0  0  0  0  # atno 6907 bound_to 6896
  152.4574  134.5257  159.9806 H   0  0  0  0  0  0  0  0  0  0  0  0  # atno 6908 bound_to 6896
  151.5379  133.3400  159.2965 H   0  0  0  0  0  0  0  0  0  0  0  0  # atno 6909 bound_to 6896
  145.1261  139.3358  143.4689 H   0  0  0  0  0  0  0  0  0  0  0  0  # atno 7974 bound_to 7965
  154.4065  140.1268  156.4693 H   0  0  0  0  0  0  0  0  0  0  0  0  # atno 8008 bound_to 7997
  155.7195  140.3493  155.4990 H   0  0  0  0  0  0  0  0  0  0  0  0  # atno 8009 bound_to 7997
  155.9227  140.1055  157.1184 H   0  0  0  0  0  0  0  0  0  0  0  0  # atno 8010 bound_to 7997
  140.0604  143.4973  152.2035 H   0  0  0  0  0  0  0  0  0  0  0  0  # atno 10167 bound_to 10162
  156.6033  130.8819  151.2919 H   0  0  0  0  0  0  0  0  0  0  0  0  # atno 10718 bound_to 10713
  154.2876  135.6260  153.5372 H   0  0  0  0  0  0  0  0  0  0  0  0  # atno 10763 bound_to 10752
  152.9857  135.5648  154.5426 H   0  0  0  0  0  0  0  0  0  0  0  0  # atno 10764 bound_to 10752
  154.5030  135.2873  155.1381 H   0  0  0  0  0  0  0  0  0  0  0  0  # atno 10765 bound_to 10752
  140.0261  134.6081  155.9572 H   0  0  0  0  0  0  0  0  0  0  0  0  # atno 11005 bound_to 11000
  146.3517  140.1240  142.8599 LP  0  0  0  0  0  0  0  0  0  0  0  0  # atno 17320 bound_to 7965
  145.0687  140.9140  143.4895 LP  0  0  0  0  0  0  0  0  0  0  0  0  # atno 17321 bound_to 7965
  139.5897  144.7545  151.3431 LP  0  0  0  0  0  0  0  0  0  0  0  0  # atno 17342 bound_to 10162
  140.7174  143.7228  150.7683 LP  0  0  0  0  0  0  0  0  0  0  0  0  # atno 17343 bound_to 10162
  157.7274  130.9642  150.1696 LP  0  0  0  0  0  0  0  0  0  0  0  0  # atno 17370 bound_to 10713
  156.2451  130.3695  149.8294 LP  0  0  0  0  0  0  0  0  0  0  0  0  # atno 17371 bound_to 10713
  141.1803  133.6545  156.4993 LP  0  0  0  0  0  0  0  0  0  0  0  0  # atno 17394 bound_to 11000
  140.4305  134.7106  157.4939 LP  0  0  0  0  0  0  0  0  0  0  0  0  # atno 17395 bound_to 11000

$$$$
