AV-unprocessed.smi:232|AV-procd|sdf|1776|dock1
  -GOLD-   2262020323D 1   1.00000     0.00000
 Structure written by MMmdl.
 52 55  0  0  0  0  0  0  0  0  1 V2000
  152.2276  142.6355  162.0902 C   0  0  0  0  0  0  0  0  0  0  0  0
  152.8109  142.2288  160.7315 C   0  0  0  0  0  0  0  0  0  0  0  0
  151.8370  142.4632  159.5567 C   0  0  1  0  0  0  0  0  0  0  0  0
  151.9070  143.8798  158.9649 C   0  0  0  0  0  0  0  0  0  0  0  0
  151.6249  143.6996  157.4684 C   0  0  0  0  0  0  0  0  0  0  0  0
  151.3745  142.1974  157.3014 C   0  0  1  0  0  0  0  0  0  0  0  0
  151.8196  141.6489  155.9361 C   0  0  0  0  0  0  0  0  0  0  0  0
  152.0782  141.5809  158.4203 N   0  0  0  0  0  0  0  0  0  0  0  0
  151.8166  140.2724  158.6523 C   0  0  0  0  0  0  0  0  0  0  0  0
  152.5594  139.5646  159.5444 N   0  0  0  0  0  0  0  0  0  0  0  0
  152.3006  138.2692  159.7493 C   0  0  0  0  0  0  0  0  0  0  0  0
  151.3706  137.5018  159.1752 N   0  0  0  0  0  0  0  0  0  0  0  0
  150.6282  138.2118  158.2775 C   0  0  0  0  0  0  0  0  0  0  0  0
  150.7818  139.5899  157.9615 C   0  0  0  0  0  0  0  0  0  0  0  0
  149.8495  139.9693  157.0042 N   0  0  0  0  0  0  0  0  0  0  0  0
  149.1817  138.8738  156.7644 C   0  0  0  0  0  0  0  0  0  0  0  0
  149.5853  137.7708  157.4826 N   0  0  0  0  0  0  0  0  0  0  0  0
  149.0233  136.4346  157.4038 C   0  0  0  0  0  0  0  0  0  0  0  0
  149.1301  135.6717  158.7388 C   0  0  2  0  0  0  0  0  0  0  0  0
  149.5945  134.3589  158.4880 O   0  0  0  0  0  0  0  0  0  0  0  0
  147.7797  135.5924  159.4742 C   0  0  1  0  0  0  0  0  0  0  0  0
  147.7052  134.5010  160.5436 C   0  0  0  0  0  0  0  0  0  0  0  0
  146.6055  135.0251  161.4378 C   0  0  0  0  0  0  0  0  0  0  0  0
  146.8876  136.5245  161.4316 C   0  0  0  0  0  0  0  0  0  0  0  0
  147.5295  136.8009  160.1890 O   0  0  0  0  0  0  0  0  0  0  0  0
  152.9324  142.4198  162.8934 H   0  0  0  0  0  0  0  0  0  0  0  0
  151.3076  142.0897  162.3009 H   0  0  0  0  0  0  0  0  0  0  0  0
  152.0031  143.7015  162.1264 H   0  0  0  0  0  0  0  0  0  0  0  0
  153.7417  142.7695  160.5557 H   0  0  0  0  0  0  0  0  0  0  0  0
  153.0791  141.1735  160.7855 H   0  0  0  0  0  0  0  0  0  0  0  0
  150.8176  142.2871  159.9058 H   0  0  0  0  0  0  0  0  0  0  0  0
  151.1889  144.5464  159.4431 H   0  0  0  0  0  0  0  0  0  0  0  0
  152.8993  144.3128  159.0983 H   0  0  0  0  0  0  0  0  0  0  0  0
  150.7722  144.2895  157.1306 H   0  0  0  0  0  0  0  0  0  0  0  0
  152.4958  144.0156  156.8925 H   0  0  0  0  0  0  0  0  0  0  0  0
  150.3032  142.0242  157.4167 H   0  0  0  0  0  0  0  0  0  0  0  0
  151.3044  142.1630  155.1246 H   0  0  0  0  0  0  0  0  0  0  0  0
  151.5982  140.5852  155.8436 H   0  0  0  0  0  0  0  0  0  0  0  0
  152.8921  141.7792  155.7880 H   0  0  0  0  0  0  0  0  0  0  0  0
  152.9315  137.7760  160.4740 H   0  0  0  0  0  0  0  0  0  0  0  0
  148.3712  138.8388  156.0509 H   0  0  0  0  0  0  0  0  0  0  0  0
  147.9794  136.5278  157.1030 H   0  0  0  0  0  0  0  0  0  0  0  0
  149.5270  135.8861  156.6069 H   0  0  0  0  0  0  0  0  0  0  0  0
  149.8589  136.1691  159.3800 H   0  0  0  0  0  0  0  0  0  0  0  0
  148.9313  133.8943  158.0005 H   0  0  0  0  0  0  0  0  0  0  0  0
  146.9655  135.4532  158.7609 H   0  0  0  0  0  0  0  0  0  0  0  0
  147.4874  133.5147  160.1326 H   0  0  0  0  0  0  0  0  0  0  0  0
  148.6417  134.4413  161.1002 H   0  0  0  0  0  0  0  0  0  0  0  0
  145.6317  134.8232  160.9894 H   0  0  0  0  0  0  0  0  0  0  0  0
  146.6193  134.5919  162.4382 H   0  0  0  0  0  0  0  0  0  0  0  0
  145.9795  137.1158  161.5503 H   0  0  0  0  0  0  0  0  0  0  0  0
  147.5709  136.7889  162.2393 H   0  0  0  0  0  0  0  0  0  0  0  0
  1  2  1  0  0  0  0
  1 26  1  0  0  0  0
  1 27  1  0  0  0  0
  1 28  1  0  0  0  0
  2  3  1  0  0  0  0
  2 29  1  0  0  0  0
  2 30  1  0  0  0  0
  3  8  1  0  0  0  0
  3  4  1  0  0  0  0
  3 31  1  0  0  0  0
  4  5  1  0  0  0  0
  4 32  1  0  0  0  0
  4 33  1  0  0  0  0
  5  6  1  0  0  0  0
  5 34  1  0  0  0  0
  5 35  1  0  0  0  0
  6  7  1  0  0  0  0
  6  8  1  0  0  0  0
  6 36  1  0  0  0  0
  7 37  1  0  0  0  0
  7 38  1  0  0  0  0
  7 39  1  0  0  0  0
  8  9  1  0  0  0  0
  9 14  1  0  0  0  0
  9 10  2  0  0  0  0
 10 11  1  0  0  0  0
 11 12  2  0  0  0  0
 11 40  1  0  0  0  0
 12 13  1  0  0  0  0
 13 17  1  0  0  0  0
 13 14  2  0  0  0  0
 14 15  1  0  0  0  0
 15 16  2  0  0  0  0
 16 17  1  0  0  0  0
 16 41  1  0  0  0  0
 17 18  1  0  0  0  0
 18 19  1  0  0  0  0
 18 42  1  0  0  0  0
 18 43  1  0  0  0  0
 19 20  1  0  0  0  0
 19 21  1  0  0  0  0
 19 44  1  0  0  0  0
 20 45  1  0  0  0  0
 21 25  1  0  0  0  0
 21 22  1  0  0  0  0
 21 46  1  0  0  0  0
 22 23  1  0  0  0  0
 22 47  1  0  0  0  0
 22 48  1  0  0  0  0
 23 24  1  0  0  0  0
 23 49  1  0  0  0  0
 23 50  1  0  0  0  0
 24 25  1  0  0  0  0
 24 51  1  0  0  0  0
 24 52  1  0  0  0  0
M  END
> <s_m_source_file>
AV-unprocessed.smi

> <i_m_source_file_index>
232

> <i_lp_mmshare_version>
43012

> <i_f3d_flags>
0

> <s_epik_input>
W0NIM11bQ0gyXVtDQEBIXTFbQ0gyXVtDSDJdW0NAQEhdKFtDSDNdKU4xYyhuW2NIXW4yKWMoYzIzKW5bY0hdbjNbQ0gyXVtDQEhdKFtPSF0pW0NAQEhdNFtDSDJdW0NIMl1bQ0gyXU80

> <s_epik_cmdline>
J2VwaWtfcHl0aG9uJywgJy1waCcsICc3LjAnLCAnLXRuJywgJzgnLCAnLW1hJywgJzIwMCcsICctbWV0YWxfYmluZGluZycsICctaW1hZScsICc8aW5maWxlLm1hZT4nLCAnLW9tYWUnLCAnPG91dGZpbGUubWFlPic=

> <r_lp_tautomer_probability>
1

> <r_epik_Ionization_Penalty>
0.00258048

> <r_epik_Ionization_Penalty_Charging>
0

> <r_epik_Ionization_Penalty_Neutral>
0.00258048

> <r_epik_State_Penalty>
0.00168551

> <r_epik_Charging_Adjusted_Penalty>
0.00168551

> <i_epik_Tot_Q>
0

> <i_epik_Tot_abs_Q>
0

> <r_epik_Metal_State_Penalty>
-0

> <b_epik_Metal_Only>
0

> <s_lp_Force_Field>
OPLS_2005

> <r_lp_Energy>
51.3027

> <b_lp_Chiralities_Consistent>
1

> <s_lp_Variant>
AV-unprocessed.smi:232-10

> <Gold.Version>
5.8.1

> <Gold.Id.Protein>
6NUR|6NUR_protein|mol2

> <Gold.PLP.Fitness>
53.4024

> <Gold.PLP.PLP>
-51.0859

> <Gold.PLP.part.hbond>
-3.0000

> <Gold.PLP.part.metal>
0.0000

> <Gold.PLP.part.buried>
-7.2975

> <Gold.PLP.part.nonpolar>
-40.3430

> <Gold.PLP.part.repulsive>
0.0000

> <Gold.PLP.ligand.clash>
1.2168

> <Gold.PLP.ligand.torsion>
1.8222

> <Gold.PLP.Chemscore.Hbond>
2.3480

> <Gold.PLP.Chemscore.CHOScore>
0.0000

> <Gold.PLP.Chemscore.Metal>
0.0000

> <Gold.Chemscore.Hbonds>
donor molecule, donor type, donor heavy atom, donor atom, acceptor molecule, acceptor atom, score
      P1  H  6896  6908       L1    20  0.65
      P1  H  6934  6947       L1    25  0.01

> <Gold.PLP.Chemscore.Internal.Correction>
0.1337

> <Gold.Rescore>
     Score         DG    S(hbond)    S(metal)    S(lipo)     H(rot)  DE(clash)    DE(int)     intcor
     11.03     -15.34       0.98        0.00     109.40       2.43       0.18       4.13       ----

> <Gold.Chemscore.Fitness>
11.0275

> <Gold.Chemscore.DG>
-15.3355

> <Gold.Chemscore.ZeroCoef>
-5.4800

> <Gold.Chemscore.Hbond>
0.9779

> <Gold.Chemscore.Metal>
0.0000

> <Gold.Chemscore.Lipo>
109.4025

> <Gold.Chemscore.Internal_Hbond>
0.0000

> <Gold.Chemscore.DEClash>
0.1822

> <Gold.Chemscore.DEInternal>
4.1259

> <Gold.Chemscore.Rot>
2.4260

> <Gold.Chemscore.Internal.Correction>
   9.000000E+99

> <Gold.Chemscore.Hbonds>
donor molecule, donor type, donor heavy atom, donor atom, acceptor molecule, acceptor atom, score
      P1  H  6896  6908       L1    20  0.36

> <Gold.Chemscore.Hbond.Weighted>
-3.2661

> <Gold.Chemscore.Metal.Weighted>
-0.0000

> <Gold.Chemscore.Lipo.Weighted>
-12.8001

> <Gold.Chemscore.Internal_Hbond.Weighted>
0.0000

> <Gold.Chemscore.DEClash.Weighted>
0.1822

> <Gold.Chemscore.DEInternal.Weighted>
4.1259

> <Gold.Chemscore.Rot.Weighted>
6.2107

> <Gold.Chemscore.Internal.Correction.Weighted>
   9.000000E+99

> <Gold.Protein.RotatedTorsions>
[ 6907 6896 6895 6894 ] final  142.64 input  -60.11 | X-H torsion
[ 7974 7965 7964 7962 ] final  123.63 input  175.53 | X-H torsion
[ 8008 7997 7996 7995 ] final  -51.33 input   59.86 | X-H torsion
[ 10167 10162 10161 10158 ] final  -90.70 input  -65.29 | X-H torsion
[ 10718 10713 10712 10709 ] final  -46.78 input   66.30 | X-H torsion
[ 10763 10752 10751 10750 ] final   73.48 input  -60.55 | X-H torsion
[ 11005 11000 10999 10996 ] final -179.15 input  -57.11 | X-H torsion

> <Gold.Protein.ActiveResidues>
 VAL166  LYS551  ARG553  GLY616  TRP617  ASP618  TYR619  PRO620  LYS621  CYS622 
 ASP623  PHE694  ASN695  SER759  ASP760  ASP761  ALA762  ILE779  LEU786  VAL792 
 PHE793  MET794  SER795  GLU796  ALA797  LYS798  CYS799  TRP800  GLU811  SER814 

> <Gold.Protein.RotatedAtoms>
  152.2162  133.4948  159.5136 H   0  0  0  0  0  0  0  0  0  0  0  0  # atno 6907 bound_to 6896
  150.7002  134.1402  159.4111 H   0  0  0  0  0  0  0  0  0  0  0  0  # atno 6908 bound_to 6896
  151.9322  135.0251  160.0580 H   0  0  0  0  0  0  0  0  0  0  0  0  # atno 6909 bound_to 6896
  145.0937  139.3568  143.4848 H   0  0  0  0  0  0  0  0  0  0  0  0  # atno 7974 bound_to 7965
  154.4080  140.1250  156.4811 H   0  0  0  0  0  0  0  0  0  0  0  0  # atno 8008 bound_to 7997
  155.7083  140.3494  155.4943 H   0  0  0  0  0  0  0  0  0  0  0  0  # atno 8009 bound_to 7997
  155.9323  140.1072  157.1112 H   0  0  0  0  0  0  0  0  0  0  0  0  # atno 8010 bound_to 7997
  140.3522  143.2885  151.9712 H   0  0  0  0  0  0  0  0  0  0  0  0  # atno 10167 bound_to 10162
  156.2149  130.4163  149.9067 H   0  0  0  0  0  0  0  0  0  0  0  0  # atno 10718 bound_to 10713
  153.0524  135.5061  154.7900 H   0  0  0  0  0  0  0  0  0  0  0  0  # atno 10763 bound_to 10752
  154.6752  135.2959  154.9691 H   0  0  0  0  0  0  0  0  0  0  0  0  # atno 10764 bound_to 10752
  154.0496  135.6706  153.4851 H   0  0  0  0  0  0  0  0  0  0  0  0  # atno 10765 bound_to 10752
  140.4218  134.6598  157.4668 H   0  0  0  0  0  0  0  0  0  0  0  0  # atno 11005 bound_to 11000
  146.3531  140.0782  142.8619 LP  0  0  0  0  0  0  0  0  0  0  0  0  # atno 17320 bound_to 7965
  145.1036  140.9361  143.4698 LP  0  0  0  0  0  0  0  0  0  0  0  0  # atno 17321 bound_to 7965
  139.4825  144.6066  151.7511 LP  0  0  0  0  0  0  0  0  0  0  0  0  # atno 17342 bound_to 10162
  140.5207  144.0883  150.6022 LP  0  0  0  0  0  0  0  0  0  0  0  0  # atno 17343 bound_to 10162
  156.6733  130.8829  151.3565 LP  0  0  0  0  0  0  0  0  0  0  0  0  # atno 17370 bound_to 10713
  157.7058  130.9383  150.0926 LP  0  0  0  0  0  0  0  0  0  0  0  0  # atno 17371 bound_to 10713
  140.0194  134.6569  155.9261 LP  0  0  0  0  0  0  0  0  0  0  0  0  # atno 17394 bound_to 11000
  141.1781  133.6542  156.4908 LP  0  0  0  0  0  0  0  0  0  0  0  0  # atno 17395 bound_to 11000

$$$$
