AV-unprocessed.smi:2024|AV-procd|sdf|8195|dock3
  -GOLD-   2272010453D 1   1.00000     0.00000
 Structure written by MMmdl.
 43 44  0  0  0  0  0  0  0  0  3 V2000
  145.2155  132.1599  151.7565 C   0  0  0  0  0  0  0  0  0  0  0  0
  145.8438  133.4479  151.4834 N   0  0  0  0  0  0  0  0  0  0  0  0
  145.5618  134.4548  152.5062 C   0  0  0  0  0  0  0  0  0  0  0  0
  146.2987  134.1675  153.8312 C   0  0  0  0  0  0  0  0  0  0  0  0
  147.7710  134.0862  153.6095 N   0  3  0  0  0  0  0  0  0  0  0  0
  148.6208  134.0292  154.8530 C   0  0  0  0  0  0  0  0  0  0  0  0
  147.9515  134.8462  155.9869 C   0  0  0  0  0  0  0  0  0  0  0  0
  148.6856  132.5673  155.3632 C   0  0  0  0  0  0  0  0  0  0  0  0
  150.0529  134.5821  154.5836 C   0  0  0  0  0  0  0  0  0  0  0  0
  150.0775  136.0184  154.3108 N   0  0  0  0  0  0  0  0  0  0  0  0
  150.9357  136.9125  154.8223 C   0  0  0  0  0  0  0  0  0  0  0  0
  151.8190  136.5451  155.6005 O   0  0  0  0  0  0  0  0  0  0  0  0
  150.7080  138.1784  154.4075 N   0  5  0  0  0  0  0  0  0  0  0  0
  150.6889  139.1832  155.2981 C   0  0  0  0  0  0  0  0  0  0  0  0
  150.1836  140.3914  155.0250 N   0  0  0  0  0  0  0  0  0  0  0  0
  150.2650  141.2820  156.0970 C   0  0  0  0  0  0  0  0  0  0  0  0
  150.8371  140.7361  157.2153 C   0  0  0  0  0  0  0  0  0  0  0  0
  151.2918  139.0765  156.9547 S   0  0  0  0  0  0  0  0  0  0  0  0
  148.0515  133.0458  152.5794 C   0  0  0  0  0  0  0  0  0  0  0  0
  147.2879  133.3516  151.2738 C   0  0  0  0  0  0  0  0  0  0  0  0
  144.1347  132.2781  151.8401 H   0  0  0  0  0  0  0  0  0  0  0  0
  145.5761  131.7031  152.6773 H   0  0  0  0  0  0  0  0  0  0  0  0
  145.4083  131.4655  150.9381 H   0  0  0  0  0  0  0  0  0  0  0  0
  145.8657  135.4308  152.1253 H   0  0  0  0  0  0  0  0  0  0  0  0
  144.4857  134.5120  152.6746 H   0  0  0  0  0  0  0  0  0  0  0  0
  146.0482  134.9741  154.5169 H   0  0  0  0  0  0  0  0  0  0  0  0
  145.9231  133.2499  154.2830 H   0  0  0  0  0  0  0  0  0  0  0  0
  148.4275  134.6630  156.9511 H   0  0  0  0  0  0  0  0  0  0  0  0
  146.8980  134.5862  156.0967 H   0  0  0  0  0  0  0  0  0  0  0  0
  148.0190  135.9210  155.8199 H   0  0  0  0  0  0  0  0  0  0  0  0
  149.1035  132.5074  156.3686 H   0  0  0  0  0  0  0  0  0  0  0  0
  149.3165  131.9365  154.7374 H   0  0  0  0  0  0  0  0  0  0  0  0
  147.6936  132.1159  155.4057 H   0  0  0  0  0  0  0  0  0  0  0  0
  150.7263  134.3544  155.4098 H   0  0  0  0  0  0  0  0  0  0  0  0
  150.4875  134.1014  153.7079 H   0  0  0  0  0  0  0  0  0  0  0  0
  149.3763  136.3717  153.6761 H   0  0  0  0  0  0  0  0  0  0  0  0
  149.8901  142.2875  155.9760 H   0  0  0  0  0  0  0  0  0  0  0  0
  151.0164  141.2047  158.1711 H   0  0  0  0  0  0  0  0  0  0  0  0
  149.1094  133.0164  152.3280 H   0  0  0  0  0  0  0  0  0  0  0  0
  147.7928  132.0546  152.9509 H   0  0  0  0  0  0  0  0  0  0  0  0
  147.4977  132.5884  150.5236 H   0  0  0  0  0  0  0  0  0  0  0  0
  147.6412  134.2964  150.8586 H   0  0  0  0  0  0  0  0  0  0  0  0
  148.0196  134.9621  153.1730 H   0  0  0  0  0  0  0  0  0  0  0  0
  1  2  1  0  0  0  0
  1 21  1  0  0  0  0
  1 22  1  0  0  0  0
  1 23  1  0  0  0  0
  2 20  1  0  0  0  0
  2  3  1  0  0  0  0
  3  4  1  0  0  0  0
  3 24  1  0  0  0  0
  3 25  1  0  0  0  0
  4  5  1  0  0  0  0
  4 26  1  0  0  0  0
  4 27  1  0  0  0  0
  5  6  1  0  0  0  0
  5 19  1  0  0  0  0
  5 43  1  0  0  0  0
  6  7  1  0  0  0  0
  6  8  1  0  0  0  0
  6  9  1  0  0  0  0
  7 28  1  0  0  0  0
  7 29  1  0  0  0  0
  7 30  1  0  0  0  0
  8 31  1  0  0  0  0
  8 32  1  0  0  0  0
  8 33  1  0  0  0  0
  9 10  1  0  0  0  0
  9 34  1  0  0  0  0
  9 35  1  0  0  0  0
 10 11  1  0  0  0  0
 10 36  1  0  0  0  0
 11 12  2  0  0  0  0
 11 13  1  0  0  0  0
 13 14  1  0  0  0  0
 14 18  1  0  0  0  0
 14 15  2  0  0  0  0
 15 16  1  0  0  0  0
 16 17  2  0  0  0  0
 16 37  1  0  0  0  0
 17 18  1  0  0  0  0
 17 38  1  0  0  0  0
 19 20  1  0  0  0  0
 19 39  1  0  0  0  0
 19 40  1  0  0  0  0
 20 41  1  0  0  0  0
 20 42  1  0  0  0  0
M  CHG  1   5   1
M  CHG  1  13  -1
M  END
> <s_m_source_file>
AV-unprocessed.smi

> <i_m_source_file_index>
2024

> <i_lp_mmshare_version>
43012

> <i_f3d_flags>
0

> <s_epik_input>
W0NIM11OMVtDSDJdW0NIMl1OKFtDSDJdW0NIMl0xKUMoW0NIM10pKFtDSDNdKVtDSDJdW05IXUMoPU8pW05IXWMybltjSF1bY0hdczI=

> <s_epik_cmdline>
J2VwaWtfcHl0aG9uJywgJy1waCcsICc3LjAnLCAnLXRuJywgJzgnLCAnLW1hJywgJzIwMCcsICctbWV0YWxfYmluZGluZycsICctaW1hZScsICc8aW5maWxlLm1hZT4nLCAnLW9tYWUnLCAnPG91dGZpbGUubWFlPic=

> <r_epik_Ionization_Penalty>
6.29536

> <r_epik_Ionization_Penalty_Charging>
5.46232

> <r_epik_Ionization_Penalty_Neutral>
0.833035

> <r_epik_State_Penalty>
6.42136

> <r_epik_Charging_Adjusted_Penalty>
11.8837

> <i_epik_Tot_Q>
0

> <i_epik_Tot_abs_Q>
2

> <r_epik_Metal_State_Penalty>
2.42657

> <b_epik_Metal_Only>
1

> <s_lp_Force_Field>
OPLS_2005

> <r_lp_Energy>
16.4996

> <b_lp_Chiralities_Consistent>
1

> <s_lp_Variant>
AV-unprocessed.smi:2024-5

> <Gold.Version>
5.8.1

> <Gold.Id.Protein>
6NUR|6NUR_protein|mol2

> <Gold.PLP.Fitness>
42.3347

> <Gold.PLP.PLP>
-27.3425

> <Gold.PLP.part.hbond>
-4.9838

> <Gold.PLP.part.metal>
0.0000

> <Gold.PLP.part.buried>
-2.9515

> <Gold.PLP.part.nonpolar>
-19.8938

> <Gold.PLP.part.repulsive>
0.5645

> <Gold.PLP.ligand.clash>
0.0000

> <Gold.PLP.ligand.torsion>
1.1979

> <Gold.PLP.Chemscore.Hbond>
4.7760

> <Gold.PLP.Chemscore.CHOScore>
0.9815

> <Gold.PLP.Chemscore.Metal>
0.0000

> <Gold.Chemscore.Hbonds>
donor molecule, donor type, donor heavy atom, donor atom, acceptor molecule, acceptor atom, score
      L1  H     5    43       P1  7948  2.00
      L1  H    10    36       P1  7948  0.72
      P1  H  7989  7998       L1    15  0.56
      P1  H 10752 10764       L1    12  1.00
      L1  C    16    37       P1  8028  0.70

> <Gold.PLP.Chemscore.Internal.Correction>
0.1154

> <Gold.Rescore>
     Score         DG    S(hbond)    S(metal)    S(lipo)     H(rot)  DE(clash)    DE(int)     intcor
     17.95     -19.21       3.39        0.00      54.77       1.57       0.06       1.20       ----

> <Gold.Chemscore.Fitness>
17.9497

> <Gold.Chemscore.DG>
-19.2108

> <Gold.Chemscore.ZeroCoef>
-5.4800

> <Gold.Chemscore.Hbond>
3.3942

> <Gold.Chemscore.Metal>
0.0000

> <Gold.Chemscore.Lipo>
54.7678

> <Gold.Chemscore.Internal_Hbond>
0.0000

> <Gold.Chemscore.DEClash>
0.0570

> <Gold.Chemscore.DEInternal>
1.2041

> <Gold.Chemscore.Rot>
1.5678

> <Gold.Chemscore.Internal.Correction>
   9.000000E+99

> <Gold.Chemscore.Hbonds>
donor molecule, donor type, donor heavy atom, donor atom, acceptor molecule, acceptor atom, score
      L1  H     5    43       P1  7948  0.89
      L1  H    10    36       P1  7948  0.59
      P1  H  7989  7998       L1    15  0.06
      P1  H 10752 10764       L1    12  0.70

> <Gold.Chemscore.Hbond.Weighted>
-11.3366

> <Gold.Chemscore.Metal.Weighted>
-0.0000

> <Gold.Chemscore.Lipo.Weighted>
-6.4078

> <Gold.Chemscore.Internal_Hbond.Weighted>
0.0000

> <Gold.Chemscore.DEClash.Weighted>
0.0570

> <Gold.Chemscore.DEInternal.Weighted>
1.2041

> <Gold.Chemscore.Rot.Weighted>
4.0136

> <Gold.Chemscore.Internal.Correction.Weighted>
   9.000000E+99

> <Gold.Protein.RotatedTorsions>
[ 6907 6896 6895 6894 ] final  146.34 input  -60.11 | X-H torsion
[ 7974 7965 7964 7962 ] final  161.50 input  175.53 | X-H torsion
[ 8008 7997 7996 7995 ] final  -17.63 input   59.86 | X-H torsion
[ 10167 10162 10161 10158 ] final   97.40 input  -65.29 | X-H torsion
[ 10718 10713 10712 10709 ] final -114.17 input   66.30 | X-H torsion
[ 10763 10752 10751 10750 ] final  -51.18 input  -60.55 | X-H torsion
[ 11005 11000 10999 10996 ] final -143.11 input  -57.11 | X-H torsion

> <Gold.Protein.ActiveResidues>
 VAL166  LYS551  ARG553  GLY616  TRP617  ASP618  TYR619  PRO620  LYS621  CYS622 
 ASP623  PHE694  ASN695  SER759  ASP760  ASP761  ALA762  ILE779  LEU786  VAL792 
 PHE793  MET794  SER795  GLU796  ALA797  LYS798  CYS799  TRP800  GLU811  SER814 

> <Gold.Protein.RotatedAtoms>
  152.1692  133.4632  159.4900 H   0  0  0  0  0  0  0  0  0  0  0  0  # atno 6907 bound_to 6896
  150.6917  134.1974  159.4318 H   0  0  0  0  0  0  0  0  0  0  0  0  # atno 6908 bound_to 6896
  151.9880  134.9993  160.0611 H   0  0  0  0  0  0  0  0  0  0  0  0  # atno 6909 bound_to 6896
  144.7683  139.7906  143.6307 H   0  0  0  0  0  0  0  0  0  0  0  0  # atno 7974 bound_to 7965
  154.4964  140.2137  155.9438 H   0  0  0  0  0  0  0  0  0  0  0  0  # atno 8008 bound_to 7997
  156.1376  140.3185  155.8412 H   0  0  0  0  0  0  0  0  0  0  0  0  # atno 8009 bound_to 7997
  155.4181  140.0495  157.3018 H   0  0  0  0  0  0  0  0  0  0  0  0  # atno 8010 bound_to 7997
  139.7804  144.6890  151.0030 H   0  0  0  0  0  0  0  0  0  0  0  0  # atno 10167 bound_to 10162
  156.0813  130.6012  150.8739 H   0  0  0  0  0  0  0  0  0  0  0  0  # atno 10718 bound_to 10713
  154.1224  135.6532  153.4905 H   0  0  0  0  0  0  0  0  0  0  0  0  # atno 10763 bound_to 10752
  153.0221  135.5273  154.7084 H   0  0  0  0  0  0  0  0  0  0  0  0  # atno 10764 bound_to 10752
  154.6295  135.2974  155.0203 H   0  0  0  0  0  0  0  0  0  0  0  0  # atno 10765 bound_to 10752
  140.8158  134.2690  157.4921 H   0  0  0  0  0  0  0  0  0  0  0  0  # atno 11005 bound_to 11000
  146.1809  139.5000  142.9867 LP  0  0  0  0  0  0  0  0  0  0  0  0  # atno 17320 bound_to 7965
  145.6402  141.0286  143.1816 LP  0  0  0  0  0  0  0  0  0  0  0  0  # atno 17321 bound_to 7965
  140.7818  143.4489  151.0442 LP  0  0  0  0  0  0  0  0  0  0  0  0  # atno 17342 bound_to 10162
  139.8170  143.7873  152.3175 LP  0  0  0  0  0  0  0  0  0  0  0  0  # atno 17343 bound_to 10162
  157.5930  131.0944  150.9087 LP  0  0  0  0  0  0  0  0  0  0  0  0  # atno 17370 bound_to 10713
  156.9259  130.5332  149.5279 LP  0  0  0  0  0  0  0  0  0  0  0  0  # atno 17371 bound_to 10713
  139.8711  134.9508  156.4067 LP  0  0  0  0  0  0  0  0  0  0  0  0  # atno 17394 bound_to 11000
  140.9150  133.7685  155.9837 LP  0  0  0  0  0  0  0  0  0  0  0  0  # atno 17395 bound_to 11000

$$$$
