AV-unprocessed.smi:1889|AV-procd|sdf|7660|dock1
  -GOLD-   22720 9393D 1   1.00000     0.00000
 Structure written by MMmdl.
 36 37  0  0  0  0  0  0  0  0  1 V2000
  152.1720  143.1020  158.6206 C   0  0  0  0  0  0  0  0  0  0  0  0
  151.5483  141.9126  157.8827 C   0  0  0  0  0  0  0  0  0  0  0  0
  150.8279  142.3288  156.5926 C   0  0  0  0  0  0  0  0  0  0  0  0
  150.4755  141.1603  155.7336 C   0  0  0  0  0  0  0  0  0  0  0  0
  151.3945  140.3206  155.2409 N   0  0  0  0  0  0  0  0  0  0  0  0
  150.8328  139.3360  154.4403 N   0  0  0  0  0  0  0  0  0  0  0  0
  149.5034  139.4716  154.3405 C   0  0  0  0  0  0  0  0  0  0  0  0
  148.6764  138.6052  153.5778 N   0  0  0  0  0  0  0  0  0  0  0  0
  147.3378  138.6265  153.4523 C   0  0  0  0  0  0  0  0  0  0  0  0
  146.5830  139.4307  153.9995 O   0  0  0  0  0  0  0  0  0  0  0  0
  146.9112  137.6443  152.6455 N   0  0  0  0  0  0  0  0  0  0  0  0
  145.5161  137.3862  152.3050 C   0  0  0  0  0  0  0  0  0  0  0  0
  145.3521  136.1057  151.4647 C   0  0  1  0  0  0  0  0  0  0  0  0
  146.0300  134.8896  152.0601 C   0  0  0  0  0  0  0  0  0  0  0  0
  145.3346  133.7540  151.3173 C   0  0  0  0  0  0  0  0  0  0  0  0
  144.0014  134.2028  151.0947 O   0  0  0  0  0  0  0  0  0  0  0  0
  143.9120  135.6064  151.3267 C   0  0  0  0  0  0  0  0  0  0  0  0
  148.8234  140.8228  155.2307 S   0  0  0  0  0  0  0  0  0  0  0  0
  152.6765  142.7730  159.5292 H   0  0  0  0  0  0  0  0  0  0  0  0
  151.4126  143.8301  158.9071 H   0  0  0  0  0  0  0  0  0  0  0  0
  152.9080  143.6107  157.9974 H   0  0  0  0  0  0  0  0  0  0  0  0
  152.3287  141.1878  157.6480 H   0  0  0  0  0  0  0  0  0  0  0  0
  150.8460  141.4068  158.5462 H   0  0  0  0  0  0  0  0  0  0  0  0
  149.9160  142.8778  156.8313 H   0  0  0  0  0  0  0  0  0  0  0  0
  151.4572  143.0061  156.0145 H   0  0  0  0  0  0  0  0  0  0  0  0
  149.1619  137.8793  153.0719 H   0  0  0  0  0  0  0  0  0  0  0  0
  147.5999  137.0290  152.2377 H   0  0  0  0  0  0  0  0  0  0  0  0
  144.9177  137.3193  153.2153 H   0  0  0  0  0  0  0  0  0  0  0  0
  145.1397  138.2478  151.7528 H   0  0  0  0  0  0  0  0  0  0  0  0
  145.7618  136.2679  150.4662 H   0  0  0  0  0  0  0  0  0  0  0  0
  147.1113  134.8890  151.9207 H   0  0  0  0  0  0  0  0  0  0  0  0
  145.8221  134.8194  153.1288 H   0  0  0  0  0  0  0  0  0  0  0  0
  145.8107  133.5856  150.3506 H   0  0  0  0  0  0  0  0  0  0  0  0
  145.3542  132.8160  151.8726 H   0  0  0  0  0  0  0  0  0  0  0  0
  143.3564  135.7643  152.2518 H   0  0  0  0  0  0  0  0  0  0  0  0
  143.3746  136.1077  150.5214 H   0  0  0  0  0  0  0  0  0  0  0  0
  1  2  1  0  0  0  0
  1 19  1  0  0  0  0
  1 20  1  0  0  0  0
  1 21  1  0  0  0  0
  2  3  1  0  0  0  0
  2 22  1  0  0  0  0
  2 23  1  0  0  0  0
  3  4  1  0  0  0  0
  3 24  1  0  0  0  0
  3 25  1  0  0  0  0
  4 18  1  0  0  0  0
  4  5  2  0  0  0  0
  5  6  1  0  0  0  0
  6  7  2  0  0  0  0
  7  8  1  0  0  0  0
  7 18  1  0  0  0  0
  8  9  1  0  0  0  0
  8 26  1  0  0  0  0
  9 10  2  0  0  0  0
  9 11  1  0  0  0  0
 11 12  1  0  0  0  0
 11 27  1  0  0  0  0
 12 13  1  0  0  0  0
 12 28  1  0  0  0  0
 12 29  1  0  0  0  0
 13 17  1  0  0  0  0
 13 14  1  0  0  0  0
 13 30  1  0  0  0  0
 14 15  1  0  0  0  0
 14 31  1  0  0  0  0
 14 32  1  0  0  0  0
 15 16  1  0  0  0  0
 15 33  1  0  0  0  0
 15 34  1  0  0  0  0
 16 17  1  0  0  0  0
 17 35  1  0  0  0  0
 17 36  1  0  0  0  0
M  END
> <s_m_source_file>
AV-unprocessed.smi

> <i_m_source_file_index>
1889

> <i_lp_mmshare_version>
43012

> <i_f3d_flags>
0

> <s_epik_input>
W0NIM11bQ0gyXVtDSDJdYzFubmMoczEpW05IXUMoPU8pW05IXVtDSDJdW0NAQEhdMltDSDJdW0NIMl1PW0NIMl0y

> <s_epik_cmdline>
J2VwaWtfcHl0aG9uJywgJy1waCcsICc3LjAnLCAnLXRuJywgJzgnLCAnLW1hJywgJzIwMCcsICctbWV0YWxfYmluZGluZycsICctaW1hZScsICc8aW5maWxlLm1hZT4nLCAnLW9tYWUnLCAnPG91dGZpbGUubWFlPic=

> <r_lp_tautomer_probability>
1

> <r_epik_Ionization_Penalty>
0.000450509

> <r_epik_Ionization_Penalty_Charging>
0

> <r_epik_Ionization_Penalty_Neutral>
0.000450509

> <r_epik_State_Penalty>
-0

> <r_epik_Charging_Adjusted_Penalty>
0

> <i_epik_Tot_Q>
0

> <i_epik_Tot_abs_Q>
0

> <r_epik_Metal_State_Penalty>
0.207747

> <b_epik_Metal_Only>
0

> <s_lp_Force_Field>
OPLS_2005

> <r_lp_Energy>
13.8877

> <b_lp_Chiralities_Consistent>
1

> <s_lp_Variant>
AV-unprocessed.smi:1889-2

> <Gold.Version>
5.8.1

> <Gold.Id.Protein>
6NUR|6NUR_protein|mol2

> <Gold.PLP.Fitness>
37.0008

> <Gold.PLP.PLP>
-31.3632

> <Gold.PLP.part.hbond>
-5.0000

> <Gold.PLP.part.metal>
0.0000

> <Gold.PLP.part.buried>
-3.6960

> <Gold.PLP.part.nonpolar>
-23.6713

> <Gold.PLP.part.repulsive>
0.5947

> <Gold.PLP.ligand.clash>
0.0000

> <Gold.PLP.ligand.torsion>
0.1170

> <Gold.PLP.Chemscore.Hbond>
1.9440

> <Gold.PLP.Chemscore.CHOScore>
0.0000

> <Gold.PLP.Chemscore.Metal>
0.0000

> <Gold.Chemscore.Hbonds>
donor molecule, donor type, donor heavy atom, donor atom, acceptor molecule, acceptor atom, score
      L1  H     8    26       P1  7948  0.93
      L1  H    11    27       P1  7948  1.00

> <Gold.PLP.Chemscore.Internal.Correction>
0.0397

> <Gold.Rescore>
     Score         DG    S(hbond)    S(metal)    S(lipo)     H(rot)  DE(clash)    DE(int)     intcor
     14.14     -15.75       1.95        0.00      67.75       1.63       0.30       1.31       ----

> <Gold.Chemscore.Fitness>
14.1428

> <Gold.Chemscore.DG>
-15.7538

> <Gold.Chemscore.ZeroCoef>
-5.4800

> <Gold.Chemscore.Hbond>
1.9528

> <Gold.Chemscore.Metal>
0.0000

> <Gold.Chemscore.Lipo>
67.7541

> <Gold.Chemscore.Internal_Hbond>
0.0000

> <Gold.Chemscore.DEClash>
0.2975

> <Gold.Chemscore.DEInternal>
1.3135

> <Gold.Chemscore.Rot>
1.6311

> <Gold.Chemscore.Internal.Correction>
   9.000000E+99

> <Gold.Chemscore.Hbonds>
donor molecule, donor type, donor heavy atom, donor atom, acceptor molecule, acceptor atom, score
      L1  H     8    26       P1  7948  0.84
      L1  H    11    27       P1  7948  0.99

> <Gold.Chemscore.Hbond.Weighted>
-6.5222

> <Gold.Chemscore.Metal.Weighted>
-0.0000

> <Gold.Chemscore.Lipo.Weighted>
-7.9272

> <Gold.Chemscore.Internal_Hbond.Weighted>
0.0000

> <Gold.Chemscore.DEClash.Weighted>
0.2975

> <Gold.Chemscore.DEInternal.Weighted>
1.3135

> <Gold.Chemscore.Rot.Weighted>
4.1757

> <Gold.Chemscore.Internal.Correction.Weighted>
   9.000000E+99

> <Gold.Protein.RotatedTorsions>
[ 6907 6896 6895 6894 ] final -165.64 input  -60.11 | X-H torsion
[ 7974 7965 7964 7962 ] final  103.76 input  175.53 | X-H torsion
[ 8008 7997 7996 7995 ] final   93.82 input   59.86 | X-H torsion
[ 10167 10162 10161 10158 ] final  115.71 input  -65.29 | X-H torsion
[ 10718 10713 10712 10709 ] final  -62.30 input   66.30 | X-H torsion
[ 10763 10752 10751 10750 ] final    1.07 input  -60.55 | X-H torsion
[ 11005 11000 10999 10996 ] final  155.58 input  -57.11 | X-H torsion

> <Gold.Protein.ActiveResidues>
 VAL166  LYS551  ARG553  GLY616  TRP617  ASP618  TYR619  PRO620  LYS621  CYS622 
 ASP623  PHE694  ASN695  SER759  ASP760  ASP761  ALA762  ILE779  LEU786  VAL792 
 PHE793  MET794  SER795  GLU796  ALA797  LYS798  CYS799  TRP800  GLU811  SER814 

> <Gold.Protein.RotatedAtoms>
  151.4309  133.3670  159.2768 H   0  0  0  0  0  0  0  0  0  0  0  0  # atno 6907 bound_to 6896
  150.9225  134.8644  159.7509 H   0  0  0  0  0  0  0  0  0  0  0  0  # atno 6908 bound_to 6896
  152.4989  134.4248  159.9544 H   0  0  0  0  0  0  0  0  0  0  0  0  # atno 6909 bound_to 6896
  145.3417  139.2460  143.3606 H   0  0  0  0  0  0  0  0  0  0  0  0  # atno 7974 bound_to 7965
  156.0511  140.3308  155.7352 H   0  0  0  0  0  0  0  0  0  0  0  0  # atno 8008 bound_to 7997
  155.5600  140.0618  157.2848 H   0  0  0  0  0  0  0  0  0  0  0  0  # atno 8009 bound_to 7997
  154.4436  140.1879  156.0761 H   0  0  0  0  0  0  0  0  0  0  0  0  # atno 8010 bound_to 7997
  139.6298  144.7113  151.2456 H   0  0  0  0  0  0  0  0  0  0  0  0  # atno 10167 bound_to 10162
  156.0864  130.4207  150.1115 H   0  0  0  0  0  0  0  0  0  0  0  0  # atno 10718 bound_to 10713
  153.3126  135.6964  153.7101 H   0  0  0  0  0  0  0  0  0  0  0  0  # atno 10763 bound_to 10752
  153.5973  135.3468  155.2933 H   0  0  0  0  0  0  0  0  0  0  0  0  # atno 10764 bound_to 10752
  154.8579  135.4332  154.2269 H   0  0  0  0  0  0  0  0  0  0  0  0  # atno 10765 bound_to 10752
  140.1595  134.8619  157.2556 H   0  0  0  0  0  0  0  0  0  0  0  0  # atno 11005 bound_to 11000
  146.3005  140.4015  142.8706 LP  0  0  0  0  0  0  0  0  0  0  0  0  # atno 17320 bound_to 7965
  144.8785  140.7369  143.6001 LP  0  0  0  0  0  0  0  0  0  0  0  0  # atno 17321 bound_to 7965
  140.7432  143.6501  150.8256 LP  0  0  0  0  0  0  0  0  0  0  0  0  # atno 17342 bound_to 10162
  140.0124  143.5628  152.2833 LP  0  0  0  0  0  0  0  0  0  0  0  0  # atno 17343 bound_to 10162
  156.9135  130.9659  151.3559 LP  0  0  0  0  0  0  0  0  0  0  0  0  # atno 17370 bound_to 10713
  157.6000  130.8506  149.8788 LP  0  0  0  0  0  0  0  0  0  0  0  0  # atno 17371 bound_to 10713
  140.2507  134.3686  155.7443 LP  0  0  0  0  0  0  0  0  0  0  0  0  # atno 17394 bound_to 11000
  141.2208  133.7315  156.8931 LP  0  0  0  0  0  0  0  0  0  0  0  0  # atno 17395 bound_to 11000

$$$$
