AV-unprocessed.smi:232|AV-procd|sdf|1769|dock9
  -GOLD-   2262020303D 1   1.00000     0.00000
 Structure written by MMmdl.
 52 55  0  0  0  0  0  0  0  0  1 V2000
  145.9214  137.2355  162.0076 C   0  0  0  0  0  0  0  0  0  0  0  0
  147.0447  136.3032  161.5375 C   0  0  0  0  0  0  0  0  0  0  0  0
  146.6459  135.4425  160.3213 C   0  0  2  0  0  0  0  0  0  0  0  0
  146.3597  133.9746  160.6634 C   0  0  0  0  0  0  0  0  0  0  0  0
  146.7469  133.1986  159.3994 C   0  0  0  0  0  0  0  0  0  0  0  0
  147.3115  134.2594  158.4452 C   0  0  2  0  0  0  0  0  0  0  0  0
  148.4624  133.7369  157.5685 C   0  0  0  0  0  0  0  0  0  0  0  0
  147.6903  135.3759  159.3036 N   0  0  0  0  0  0  0  0  0  0  0  0
  147.9724  136.5215  158.6374 C   0  0  0  0  0  0  0  0  0  0  0  0
  147.0607  137.0723  157.7920 N   0  0  0  0  0  0  0  0  0  0  0  0
  147.3566  138.1936  157.1276 C   0  0  0  0  0  0  0  0  0  0  0  0
  148.4835  138.9091  157.1565 N   0  0  0  0  0  0  0  0  0  0  0  0
  149.3994  138.3545  158.0018 C   0  0  0  0  0  0  0  0  0  0  0  0
  149.2258  137.1737  158.7753 C   0  0  0  0  0  0  0  0  0  0  0  0
  150.3719  136.9150  159.5165 N   0  0  0  0  0  0  0  0  0  0  0  0
  151.1818  137.8873  159.1945 C   0  0  0  0  0  0  0  0  0  0  0  0
  150.6787  138.7940  158.2887 N   0  0  0  0  0  0  0  0  0  0  0  0
  151.3581  139.9591  157.7509 C   0  0  0  0  0  0  0  0  0  0  0  0
  150.4874  141.2281  157.8272 C   0  0  2  0  0  0  0  0  0  0  0  0
  149.5360  141.2429  156.7793 O   0  0  0  0  0  0  0  0  0  0  0  0
  151.3202  142.5260  157.8278 C   0  0  2  0  0  0  0  0  0  0  0  0
  152.2679  142.7288  159.0133 C   0  0  0  0  0  0  0  0  0  0  0  0
  152.4371  144.2315  158.9992 C   0  0  0  0  0  0  0  0  0  0  0  0
  151.0321  144.6987  158.6261 C   0  0  0  0  0  0  0  0  0  0  0  0
  150.5005  143.6912  157.7697 O   0  0  0  0  0  0  0  0  0  0  0  0
  146.2517  137.8471  162.8474 H   0  0  0  0  0  0  0  0  0  0  0  0
  145.0459  136.6735  162.3336 H   0  0  0  0  0  0  0  0  0  0  0  0
  145.6104  137.9086  161.2084 H   0  0  0  0  0  0  0  0  0  0  0  0
  147.9119  136.9151  161.2875 H   0  0  0  0  0  0  0  0  0  0  0  0
  147.3552  135.6602  162.3619 H   0  0  0  0  0  0  0  0  0  0  0  0
  145.7448  135.8621  159.8707 H   0  0  0  0  0  0  0  0  0  0  0  0
  146.9810  133.6430  161.4964 H   0  0  0  0  0  0  0  0  0  0  0  0
  145.3176  133.8194  160.9443 H   0  0  0  0  0  0  0  0  0  0  0  0
  147.4985  132.4472  159.6459 H   0  0  0  0  0  0  0  0  0  0  0  0
  145.8953  132.6819  158.9559 H   0  0  0  0  0  0  0  0  0  0  0  0
  146.5029  134.5944  157.7927 H   0  0  0  0  0  0  0  0  0  0  0  0
  148.1451  132.8691  156.9900 H   0  0  0  0  0  0  0  0  0  0  0  0
  149.3183  133.4389  158.1747 H   0  0  0  0  0  0  0  0  0  0  0  0
  148.8022  134.4928  156.8604 H   0  0  0  0  0  0  0  0  0  0  0  0
  146.5810  138.5688  156.4765 H   0  0  0  0  0  0  0  0  0  0  0  0
  152.1772  137.9679  159.6069 H   0  0  0  0  0  0  0  0  0  0  0  0
  152.2843  140.1007  158.3092 H   0  0  0  0  0  0  0  0  0  0  0  0
  151.6438  139.7507  156.7190 H   0  0  0  0  0  0  0  0  0  0  0  0
  149.9192  141.2004  158.7578 H   0  0  0  0  0  0  0  0  0  0  0  0
  149.8422  141.8301  156.1053 H   0  0  0  0  0  0  0  0  0  0  0  0
  151.9225  142.5430  156.9180 H   0  0  0  0  0  0  0  0  0  0  0  0
  151.8100  142.4233  159.9546 H   0  0  0  0  0  0  0  0  0  0  0  0
  153.2096  142.1907  158.9017 H   0  0  0  0  0  0  0  0  0  0  0  0
  152.7827  144.6354  159.9512 H   0  0  0  0  0  0  0  0  0  0  0  0
  153.1486  144.5217  158.2248 H   0  0  0  0  0  0  0  0  0  0  0  0
  150.4049  144.7603  159.5163 H   0  0  0  0  0  0  0  0  0  0  0  0
  151.0312  145.6759  158.1430 H   0  0  0  0  0  0  0  0  0  0  0  0
  1  2  1  0  0  0  0
  1 26  1  0  0  0  0
  1 27  1  0  0  0  0
  1 28  1  0  0  0  0
  2  3  1  0  0  0  0
  2 29  1  0  0  0  0
  2 30  1  0  0  0  0
  3  8  1  0  0  0  0
  3  4  1  0  0  0  0
  3 31  1  0  0  0  0
  4  5  1  0  0  0  0
  4 32  1  0  0  0  0
  4 33  1  0  0  0  0
  5  6  1  0  0  0  0
  5 34  1  0  0  0  0
  5 35  1  0  0  0  0
  6  7  1  0  0  0  0
  6  8  1  0  0  0  0
  6 36  1  0  0  0  0
  7 37  1  0  0  0  0
  7 38  1  0  0  0  0
  7 39  1  0  0  0  0
  8  9  1  0  0  0  0
  9 14  1  0  0  0  0
  9 10  2  0  0  0  0
 10 11  1  0  0  0  0
 11 12  2  0  0  0  0
 11 40  1  0  0  0  0
 12 13  1  0  0  0  0
 13 17  1  0  0  0  0
 13 14  2  0  0  0  0
 14 15  1  0  0  0  0
 15 16  2  0  0  0  0
 16 17  1  0  0  0  0
 16 41  1  0  0  0  0
 17 18  1  0  0  0  0
 18 19  1  0  0  0  0
 18 42  1  0  0  0  0
 18 43  1  0  0  0  0
 19 20  1  0  0  0  0
 19 21  1  0  0  0  0
 19 44  1  0  0  0  0
 20 45  1  0  0  0  0
 21 25  1  0  0  0  0
 21 22  1  0  0  0  0
 21 46  1  0  0  0  0
 22 23  1  0  0  0  0
 22 47  1  0  0  0  0
 22 48  1  0  0  0  0
 23 24  1  0  0  0  0
 23 49  1  0  0  0  0
 23 50  1  0  0  0  0
 24 25  1  0  0  0  0
 24 51  1  0  0  0  0
 24 52  1  0  0  0  0
M  END
> <s_m_source_file>
AV-unprocessed.smi

> <i_m_source_file_index>
232

> <i_lp_mmshare_version>
43012

> <i_f3d_flags>
0

> <s_epik_input>
W0NIM11bQ0gyXVtDQEBIXTFbQ0gyXVtDSDJdW0NAQEhdKFtDSDNdKU4xYyhuW2NIXW4yKWMoYzIzKW5bY0hdbjNbQ0gyXVtDQEhdKFtPSF0pW0NAQEhdNFtDSDJdW0NIMl1bQ0gyXU80

> <s_epik_cmdline>
J2VwaWtfcHl0aG9uJywgJy1waCcsICc3LjAnLCAnLXRuJywgJzgnLCAnLW1hJywgJzIwMCcsICctbWV0YWxfYmluZGluZycsICctaW1hZScsICc8aW5maWxlLm1hZT4nLCAnLW9tYWUnLCAnPG91dGZpbGUubWFlPic=

> <r_lp_tautomer_probability>
1

> <r_epik_Ionization_Penalty>
0.00258048

> <r_epik_Ionization_Penalty_Charging>
0

> <r_epik_Ionization_Penalty_Neutral>
0.00258048

> <r_epik_State_Penalty>
0.00168551

> <r_epik_Charging_Adjusted_Penalty>
0.00168551

> <i_epik_Tot_Q>
0

> <i_epik_Tot_abs_Q>
0

> <r_epik_Metal_State_Penalty>
-0

> <b_epik_Metal_Only>
0

> <s_lp_Force_Field>
OPLS_2005

> <r_lp_Energy>
54.2743

> <b_lp_Chiralities_Consistent>
1

> <s_lp_Variant>
AV-unprocessed.smi:232-3

> <Gold.Version>
5.8.1

> <Gold.Id.Protein>
6NUR|6NUR_protein|mol2

> <Gold.PLP.Fitness>
43.0434

> <Gold.PLP.PLP>
-42.0791

> <Gold.PLP.part.hbond>
-1.0000

> <Gold.PLP.part.metal>
0.0000

> <Gold.PLP.part.buried>
-6.2549

> <Gold.PLP.part.nonpolar>
-35.4078

> <Gold.PLP.part.repulsive>
0.3307

> <Gold.PLP.ligand.clash>
0.0000

> <Gold.PLP.ligand.torsion>
1.0699

> <Gold.PLP.Chemscore.Hbond>
1.0000

> <Gold.PLP.Chemscore.CHOScore>
0.0000

> <Gold.PLP.Chemscore.Metal>
0.0000

> <Gold.Chemscore.Hbonds>
donor molecule, donor type, donor heavy atom, donor atom, acceptor molecule, acceptor atom, score
      P1  H  6896  6908       L1    15  1.00

> <Gold.PLP.Chemscore.Internal.Correction>
0.1041

> <Gold.Rescore>
     Score         DG    S(hbond)    S(metal)    S(lipo)     H(rot)  DE(clash)    DE(int)     intcor
     14.06     -15.12       0.97        0.00     107.70       2.43       0.08       0.98       ----

> <Gold.Chemscore.Fitness>
14.0609

> <Gold.Chemscore.DG>
-15.1198

> <Gold.Chemscore.ZeroCoef>
-5.4800

> <Gold.Chemscore.Hbond>
0.9729

> <Gold.Chemscore.Metal>
0.0000

> <Gold.Chemscore.Lipo>
107.6995

> <Gold.Chemscore.Internal_Hbond>
0.0000

> <Gold.Chemscore.DEClash>
0.0833

> <Gold.Chemscore.DEInternal>
0.9756

> <Gold.Chemscore.Rot>
2.4260

> <Gold.Chemscore.Internal.Correction>
   9.000000E+99

> <Gold.Chemscore.Hbonds>
donor molecule, donor type, donor heavy atom, donor atom, acceptor molecule, acceptor atom, score
      P1  H  6896  6908       L1    15  0.91

> <Gold.Chemscore.Hbond.Weighted>
-3.2496

> <Gold.Chemscore.Metal.Weighted>
-0.0000

> <Gold.Chemscore.Lipo.Weighted>
-12.6008

> <Gold.Chemscore.Internal_Hbond.Weighted>
0.0000

> <Gold.Chemscore.DEClash.Weighted>
0.0833

> <Gold.Chemscore.DEInternal.Weighted>
0.9756

> <Gold.Chemscore.Rot.Weighted>
6.2107

> <Gold.Chemscore.Internal.Correction.Weighted>
   9.000000E+99

> <Gold.Protein.RotatedTorsions>
[ 6907 6896 6895 6894 ] final -145.35 input  -60.11 | X-H torsion
[ 7974 7965 7964 7962 ] final   49.15 input  175.53 | X-H torsion
[ 8008 7997 7996 7995 ] final   30.99 input   59.86 | X-H torsion
[ 10167 10162 10161 10158 ] final -151.93 input  -65.29 | X-H torsion
[ 10718 10713 10712 10709 ] final   46.13 input   66.30 | X-H torsion
[ 10763 10752 10751 10750 ] final -119.87 input  -60.55 | X-H torsion
[ 11005 11000 10999 10996 ] final  -65.68 input  -57.11 | X-H torsion

> <Gold.Protein.ActiveResidues>
 VAL166  LYS551  ARG553  GLY616  TRP617  ASP618  TYR619  PRO620  LYS621  CYS622 
 ASP623  PHE694  ASN695  SER759  ASP760  ASP761  ALA762  ILE779  LEU786  VAL792 
 PHE793  MET794  SER795  GLU796  ALA797  LYS798  CYS799  TRP800  GLU811  SER814 

> <Gold.Protein.RotatedAtoms>
  151.1266  133.5066  159.2600 H   0  0  0  0  0  0  0  0  0  0  0  0  # atno 6907 bound_to 6896
  151.1803  135.0357  159.8799 H   0  0  0  0  0  0  0  0  0  0  0  0  # atno 6908 bound_to 6896
  152.5458  134.1119  159.8415 H   0  0  0  0  0  0  0  0  0  0  0  0  # atno 6909 bound_to 6896
  146.0136  139.4571  142.9940 H   0  0  0  0  0  0  0  0  0  0  0  0  # atno 7974 bound_to 7965
  155.0992  140.3228  155.4552 H   0  0  0  0  0  0  0  0  0  0  0  0  # atno 8008 bound_to 7997
  156.2722  140.2064  156.6065 H   0  0  0  0  0  0  0  0  0  0  0  0  # atno 8009 bound_to 7997
  154.6842  140.0523  157.0285 H   0  0  0  0  0  0  0  0  0  0  0  0  # atno 8010 bound_to 7997
  139.7225  143.8934  152.2508 H   0  0  0  0  0  0  0  0  0  0  0  0  # atno 10167 bound_to 10162
  157.4449  130.8103  149.7730 H   0  0  0  0  0  0  0  0  0  0  0  0  # atno 10718 bound_to 10713
  154.8629  135.4223  154.2369 H   0  0  0  0  0  0  0  0  0  0  0  0  # atno 10763 bound_to 10752
  153.3342  135.6990  153.6927 H   0  0  0  0  0  0  0  0  0  0  0  0  # atno 10764 bound_to 10752
  153.5931  135.3551  155.2891 H   0  0  0  0  0  0  0  0  0  0  0  0  # atno 10765 bound_to 10752
  141.1461  133.6686  156.6023 H   0  0  0  0  0  0  0  0  0  0  0  0  # atno 11005 bound_to 11000
  145.7303  141.0044  143.1355 LP  0  0  0  0  0  0  0  0  0  0  0  0  # atno 17320 bound_to 7965
  144.6962  139.8976  143.7457 LP  0  0  0  0  0  0  0  0  0  0  0  0  # atno 17321 bound_to 7965
  139.8835  144.7005  150.8851 LP  0  0  0  0  0  0  0  0  0  0  0  0  # atno 17342 bound_to 10162
  140.7756  143.3643  151.1769 LP  0  0  0  0  0  0  0  0  0  0  0  0  # atno 17343 bound_to 10162
  155.9963  130.3906  150.2784 LP  0  0  0  0  0  0  0  0  0  0  0  0  # atno 17370 bound_to 10713
  157.0951  131.0180  151.3107 LP  0  0  0  0  0  0  0  0  0  0  0  0  # atno 17371 bound_to 10713
  140.3679  134.7631  157.4579 LP  0  0  0  0  0  0  0  0  0  0  0  0  # atno 17394 bound_to 11000
  140.0733  134.5832  155.8618 LP  0  0  0  0  0  0  0  0  0  0  0  0  # atno 17395 bound_to 11000

$$$$
