AV-unprocessed.smi:1894|AV-procd|sdf|7679|dock5
  -GOLD-   22720 9423D 1   1.00000     0.00000
 Structure written by MMmdl.
 32 34  0  0  0  0  0  0  0  0  1 V2000
  153.0508  139.8438  157.7468 O   0  0  0  0  0  0  0  0  0  0  0  0
  152.0339  140.5369  157.7484 C   0  0  0  0  0  0  0  0  0  0  0  0
  150.8363  140.1354  156.8876 C   0  0  0  0  0  0  0  0  0  0  0  0
  151.2027  139.0952  155.9447 N   0  0  0  0  0  0  0  0  0  0  0  0
  151.6952  137.8724  156.1505 C   0  0  0  0  0  0  0  0  0  0  0  0
  151.9201  137.1913  155.0354 N   0  0  0  0  0  0  0  0  0  0  0  0
  151.5155  138.1180  154.1165 C   0  0  0  0  0  0  0  0  0  0  0  0
  151.0768  139.2768  154.6085 N   0  0  0  0  0  0  0  0  0  0  0  0
  151.8989  141.6604  158.4701 N   0  0  0  0  0  0  0  0  0  0  0  0
  152.9141  142.2419  159.3416 C   0  0  0  0  0  0  0  0  0  0  0  0
  152.6775  141.9237  160.8093 C   0  0  0  0  0  0  0  0  0  0  0  0
  152.5444  143.0206  161.8399 C   0  0  0  0  0  0  0  0  0  0  0  0
  153.7598  142.1229  161.8450 C   0  0  0  0  0  0  0  0  0  0  0  0
  153.0233  143.7423  159.1389 C   0  0  0  0  0  0  0  0  0  0  0  0
  151.8464  144.6517  159.3993 C   0  0  0  0  0  0  0  0  0  0  0  0
  152.3384  144.4369  157.9857 C   0  0  0  0  0  0  0  0  0  0  0  0
  150.0296  139.7654  157.5217 H   0  0  0  0  0  0  0  0  0  0  0  0
  150.4501  141.0009  156.3466 H   0  0  0  0  0  0  0  0  0  0  0  0
  151.8951  137.4749  157.1349 H   0  0  0  0  0  0  0  0  0  0  0  0
  151.5453  137.9330  153.0527 H   0  0  0  0  0  0  0  0  0  0  0  0
  151.0252  142.1617  158.3979 H   0  0  0  0  0  0  0  0  0  0  0  0
  153.8802  141.8147  159.0640 H   0  0  0  0  0  0  0  0  0  0  0  0
  152.0317  141.0610  160.9634 H   0  0  0  0  0  0  0  0  0  0  0  0
  152.6882  144.0488  161.5149 H   0  0  0  0  0  0  0  0  0  0  0  0
  151.8108  142.8798  162.6309 H   0  0  0  0  0  0  0  0  0  0  0  0
  153.8371  141.3822  162.6379 H   0  0  0  0  0  0  0  0  0  0  0  0
  154.7023  142.5598  161.5220 H   0  0  0  0  0  0  0  0  0  0  0  0
  153.9968  144.1447  159.4146 H   0  0  0  0  0  0  0  0  0  0  0  0
  150.9004  144.1904  159.6764 H   0  0  0  0  0  0  0  0  0  0  0  0
  152.0493  145.6148  159.8631 H   0  0  0  0  0  0  0  0  0  0  0  0
  152.8705  145.2564  157.5069 H   0  0  0  0  0  0  0  0  0  0  0  0
  151.7118  143.8396  157.3265 H   0  0  0  0  0  0  0  0  0  0  0  0
  1  2  2  0  0  0  0
  2  3  1  0  0  0  0
  2  9  1  0  0  0  0
  3  4  1  0  0  0  0
  3 17  1  0  0  0  0
  3 18  1  0  0  0  0
  4  8  1  0  0  0  0
  4  5  1  0  0  0  0
  5  6  2  0  0  0  0
  5 19  1  0  0  0  0
  6  7  1  0  0  0  0
  7  8  2  0  0  0  0
  7 20  1  0  0  0  0
  9 10  1  0  0  0  0
  9 21  1  0  0  0  0
 10 11  1  0  0  0  0
 10 14  1  0  0  0  0
 10 22  1  0  0  0  0
 11 13  1  0  0  0  0
 11 12  1  0  0  0  0
 11 23  1  0  0  0  0
 12 13  1  0  0  0  0
 12 24  1  0  0  0  0
 12 25  1  0  0  0  0
 13 26  1  0  0  0  0
 13 27  1  0  0  0  0
 14 16  1  0  0  0  0
 14 15  1  0  0  0  0
 14 28  1  0  0  0  0
 15 16  1  0  0  0  0
 15 29  1  0  0  0  0
 15 30  1  0  0  0  0
 16 31  1  0  0  0  0
 16 32  1  0  0  0  0
M  END
> <s_m_source_file>
AV-unprocessed.smi

> <i_m_source_file_index>
1894

> <i_lp_mmshare_version>
43012

> <i_f3d_flags>
0

> <s_epik_input>
W0NIMl0xW0NIMl1bQ0hdMVtDSF0oW0NIXTJbQ0gyXVtDSDJdMilbTkhdQyg9TylbQ0gyXW4zW2NIXW5bY0hdbjM=

> <s_epik_cmdline>
J2VwaWtfcHl0aG9uJywgJy1waCcsICc3LjAnLCAnLXRuJywgJzgnLCAnLW1hJywgJzIwMCcsICctbWV0YWxfYmluZGluZycsICctaW1hZScsICc8aW5maWxlLm1hZT4nLCAnLW9tYWUnLCAnPG91dGZpbGUubWFlPic=

> <r_lp_tautomer_probability>
1

> <r_epik_Ionization_Penalty>
9.18136e-06

> <r_epik_Ionization_Penalty_Charging>
0

> <r_epik_Ionization_Penalty_Neutral>
9.18136e-06

> <r_epik_State_Penalty>
-0

> <r_epik_Charging_Adjusted_Penalty>
0

> <i_epik_Tot_Q>
0

> <i_epik_Tot_abs_Q>
0

> <r_epik_Metal_State_Penalty>
-0

> <b_epik_Metal_Only>
0

> <s_lp_Force_Field>
OPLS_2005

> <r_lp_Energy>
25.0863

> <b_lp_Chiralities_Consistent>
1

> <s_lp_Variant>
AV-unprocessed.smi:1894-1

> <Gold.Version>
5.8.1

> <Gold.Id.Protein>
6NUR|6NUR_protein|mol2

> <Gold.PLP.Fitness>
51.1660

> <Gold.PLP.PLP>
-40.7800

> <Gold.PLP.part.hbond>
-3.0000

> <Gold.PLP.part.metal>
0.0000

> <Gold.PLP.part.buried>
-4.9108

> <Gold.PLP.part.nonpolar>
-32.4561

> <Gold.PLP.part.repulsive>
0.2827

> <Gold.PLP.ligand.clash>
0.0000

> <Gold.PLP.ligand.torsion>
1.8633

> <Gold.PLP.Chemscore.Hbond>
2.9920

> <Gold.PLP.Chemscore.CHOScore>
1.0000

> <Gold.PLP.Chemscore.Metal>
0.0000

> <Gold.Chemscore.Hbonds>
donor molecule, donor type, donor heavy atom, donor atom, acceptor molecule, acceptor atom, score
      P1  H  7989  7998       L1     8  1.00
      P1  H  7997  8010       L1     1  1.00
      P1  H 10752 10763       L1     6  0.94
      L1  C     7    20       P1  7949  1.00

> <Gold.PLP.Chemscore.Internal.Correction>
2.1367

> <Gold.Rescore>
     Score         DG    S(hbond)    S(metal)    S(lipo)     H(rot)  DE(clash)    DE(int)     intcor
     16.87     -19.21       2.86        0.00      90.33       2.50       0.23       2.11       ----

> <Gold.Chemscore.Fitness>
16.8676

> <Gold.Chemscore.DG>
-19.2074

> <Gold.Chemscore.ZeroCoef>
-5.4800

> <Gold.Chemscore.Hbond>
2.8603

> <Gold.Chemscore.Metal>
0.0000

> <Gold.Chemscore.Lipo>
90.3268

> <Gold.Chemscore.Internal_Hbond>
0.0000

> <Gold.Chemscore.DEClash>
0.2324

> <Gold.Chemscore.DEInternal>
2.1074

> <Gold.Chemscore.Rot>
2.4977

> <Gold.Chemscore.Internal.Correction>
   9.000000E+99

> <Gold.Chemscore.Hbonds>
donor molecule, donor type, donor heavy atom, donor atom, acceptor molecule, acceptor atom, score
      P1  H  7989  7998       L1     8  0.78
      P1  H  7997  8010       L1     1  0.99
      P1  H 10752 10763       L1     6  0.91

> <Gold.Chemscore.Hbond.Weighted>
-9.5532

> <Gold.Chemscore.Metal.Weighted>
-0.0000

> <Gold.Chemscore.Lipo.Weighted>
-10.5682

> <Gold.Chemscore.Internal_Hbond.Weighted>
0.0000

> <Gold.Chemscore.DEClash.Weighted>
0.2324

> <Gold.Chemscore.DEInternal.Weighted>
2.1074

> <Gold.Chemscore.Rot.Weighted>
6.3941

> <Gold.Chemscore.Internal.Correction.Weighted>
   9.000000E+99

> <Gold.Protein.RotatedTorsions>
[ 6907 6896 6895 6894 ] final  129.85 input  -60.11 | X-H torsion
[ 7974 7965 7964 7962 ] final  -34.66 input  175.53 | X-H torsion
[ 8008 7997 7996 7995 ] final   37.81 input   59.86 | X-H torsion
[ 10167 10162 10161 10158 ] final  -57.47 input  -65.29 | X-H torsion
[ 10718 10713 10712 10709 ] final  -27.17 input   66.30 | X-H torsion
[ 10763 10752 10751 10750 ] final   60.16 input  -60.55 | X-H torsion
[ 11005 11000 10999 10996 ] final  161.87 input  -57.11 | X-H torsion

> <Gold.Protein.ActiveResidues>
 VAL166  LYS551  ARG553  GLY616  TRP617  ASP618  TYR619  PRO620  LYS621  CYS622 
 ASP623  PHE694  ASN695  SER759  ASP760  ASP761  ALA762  ILE779  LEU786  VAL792 
 PHE793  MET794  SER795  GLU796  ALA797  LYS798  CYS799  TRP800  GLU811  SER814 

> <Gold.Protein.RotatedAtoms>
  152.3583  133.6265  159.5995 H   0  0  0  0  0  0  0  0  0  0  0  0  # atno 6907 bound_to 6896
  150.7584  133.9464  159.3481 H   0  0  0  0  0  0  0  0  0  0  0  0  # atno 6908 bound_to 6896
  151.7306  135.0876  160.0350 H   0  0  0  0  0  0  0  0  0  0  0  0  # atno 6909 bound_to 6896
  146.0811  140.6065  142.8908 H   0  0  0  0  0  0  0  0  0  0  0  0  # atno 7974 bound_to 7965
  155.2099  140.3322  155.4330 H   0  0  0  0  0  0  0  0  0  0  0  0  # atno 8008 bound_to 7997
  156.2374  140.1879  156.7130 H   0  0  0  0  0  0  0  0  0  0  0  0  # atno 8009 bound_to 7997
  154.6085  140.0612  156.9448 H   0  0  0  0  0  0  0  0  0  0  0  0  # atno 8010 bound_to 7997
  140.6256  143.2437  151.5372 H   0  0  0  0  0  0  0  0  0  0  0  0  # atno 10167 bound_to 10162
  156.4416  130.4465  149.7049 H   0  0  0  0  0  0  0  0  0  0  0  0  # atno 10718 bound_to 10713
  152.9913  135.5546  154.5829 H   0  0  0  0  0  0  0  0  0  0  0  0  # atno 10763 bound_to 10752
  154.5206  135.2807  155.1267 H   0  0  0  0  0  0  0  0  0  0  0  0  # atno 10764 bound_to 10752
  154.2622  135.6379  153.5331 H   0  0  0  0  0  0  0  0  0  0  0  0  # atno 10765 bound_to 10752
  140.2201  134.8203  157.3211 H   0  0  0  0  0  0  0  0  0  0  0  0  # atno 11005 bound_to 11000
  144.7294  140.4625  143.6949 LP  0  0  0  0  0  0  0  0  0  0  0  0  # atno 17320 bound_to 7965
  145.6215  139.1525  143.3019 LP  0  0  0  0  0  0  0  0  0  0  0  0  # atno 17321 bound_to 7965
  139.5477  144.2478  152.1472 LP  0  0  0  0  0  0  0  0  0  0  0  0  # atno 17342 bound_to 10162
  140.1709  144.4937  150.6580 LP  0  0  0  0  0  0  0  0  0  0  0  0  # atno 17343 bound_to 10162
  156.3911  130.7628  151.2629 LP  0  0  0  0  0  0  0  0  0  0  0  0  # atno 17370 bound_to 10713
  157.7506  131.0267  150.3975 LP  0  0  0  0  0  0  0  0  0  0  0  0  # atno 17371 bound_to 10713
  140.1859  134.4432  155.7744 LP  0  0  0  0  0  0  0  0  0  0  0  0  # atno 17394 bound_to 11000
  141.2223  133.7005  156.7946 LP  0  0  0  0  0  0  0  0  0  0  0  0  # atno 17395 bound_to 11000

$$$$
