AV-unprocessed.smi:720|AV-procd|sdf|3501|dock1
  -GOLD-   22720 0493D 1   1.00000     0.00000
 Structure written by MMmdl.
 46 48  0  0  0  0  0  0  0  0  1 V2000
  144.9947  137.1738  151.9950 C   0  0  0  0  0  0  0  0  0  0  0  0
  144.3116  137.3218  153.2747 N   0  0  0  0  0  0  0  0  0  0  0  0
  142.8963  137.5451  153.0104 C   0  0  0  0  0  0  0  0  0  0  0  0
  144.8340  138.4487  154.0492 C   0  0  0  0  0  0  0  0  0  0  0  0
  146.3750  138.5435  154.0419 C   0  0  0  0  0  0  0  0  0  0  0  0
  146.8715  139.9042  154.1580 N   0  0  0  0  0  0  0  0  0  0  0  0
  146.5661  140.9990  153.3730 C   0  0  0  0  0  0  0  0  0  0  0  0
  147.2478  142.0705  153.8759 C   0  0  0  0  0  0  0  0  0  0  0  0
  147.9414  141.5224  154.9895 C   0  0  0  0  0  0  0  0  0  0  0  0
  148.7768  142.3387  155.7932 N   0  0  0  0  0  0  0  0  0  0  0  0
  149.1701  142.1188  157.0632 C   0  0  0  0  0  0  0  0  0  0  0  0
  148.8712  141.1266  157.7253 O   0  0  0  0  0  0  0  0  0  0  0  0
  149.9545  143.0855  157.5724 N   0  0  0  0  0  0  0  0  0  0  0  0
  150.5471  143.1539  158.9101 C   0  0  2  0  0  0  0  0  0  0  0  0
  150.2798  144.4995  159.6250 C   0  0  0  0  0  0  0  0  0  0  0  0
  151.6989  145.0174  159.9227 C   0  0  1  0  0  0  0  0  0  0  0  0
  152.3577  144.1305  160.9976 C   0  0  0  0  0  0  0  0  0  0  0  0
  152.6510  142.8248  160.2321 C   0  0  0  0  0  0  0  0  0  0  0  0
  152.0890  143.1253  158.8302 C   0  0  2  0  0  0  0  0  0  0  0  0
  152.4491  144.5991  158.6658 C   0  0  0  0  0  0  0  0  0  0  0  0
  147.7071  140.2301  155.1683 N   0  0  0  0  0  0  0  0  0  0  0  0
  146.0366  136.8926  152.1349 H   0  0  0  0  0  0  0  0  0  0  0  0
  144.9595  138.0967  151.4142 H   0  0  0  0  0  0  0  0  0  0  0  0
  144.5319  136.3823  151.4044 H   0  0  0  0  0  0  0  0  0  0  0  0
  142.3368  137.6243  153.9433 H   0  0  0  0  0  0  0  0  0  0  0  0
  142.4745  136.7123  152.4466 H   0  0  0  0  0  0  0  0  0  0  0  0
  142.7377  138.4604  152.4379 H   0  0  0  0  0  0  0  0  0  0  0  0
  144.3732  139.3864  153.7345 H   0  0  0  0  0  0  0  0  0  0  0  0
  144.5328  138.2984  155.0868 H   0  0  0  0  0  0  0  0  0  0  0  0
  146.7680  137.9906  154.8957 H   0  0  0  0  0  0  0  0  0  0  0  0
  146.7919  138.0672  153.1526 H   0  0  0  0  0  0  0  0  0  0  0  0
  145.8963  140.9242  152.5291 H   0  0  0  0  0  0  0  0  0  0  0  0
  147.2473  143.0851  153.5060 H   0  0  0  0  0  0  0  0  0  0  0  0
  149.1155  143.1835  155.3571 H   0  0  0  0  0  0  0  0  0  0  0  0
  150.1870  143.8473  156.9515 H   0  0  0  0  0  0  0  0  0  0  0  0
  150.1890  142.3107  159.5035 H   0  0  0  0  0  0  0  0  0  0  0  0
  149.7497  145.2004  158.9780 H   0  0  0  0  0  0  0  0  0  0  0  0
  149.6867  144.3750  160.5317 H   0  0  0  0  0  0  0  0  0  0  0  0
  151.7372  146.0832  160.1492 H   0  0  0  0  0  0  0  0  0  0  0  0
  153.2839  144.5791  161.3588 H   0  0  0  0  0  0  0  0  0  0  0  0
  151.7050  143.9716  161.8567 H   0  0  0  0  0  0  0  0  0  0  0  0
  153.7251  142.6406  160.1870 H   0  0  0  0  0  0  0  0  0  0  0  0
  152.1830  141.9547  160.6940 H   0  0  0  0  0  0  0  0  0  0  0  0
  152.4831  142.4642  158.0575 H   0  0  0  0  0  0  0  0  0  0  0  0
  152.0485  145.0459  157.7541 H   0  0  0  0  0  0  0  0  0  0  0  0
  153.5224  144.7918  158.7166 H   0  0  0  0  0  0  0  0  0  0  0  0
  1  2  1  0  0  0  0
  1 22  1  0  0  0  0
  1 23  1  0  0  0  0
  1 24  1  0  0  0  0
  2  3  1  0  0  0  0
  2  4  1  0  0  0  0
  3 25  1  0  0  0  0
  3 26  1  0  0  0  0
  3 27  1  0  0  0  0
  4  5  1  0  0  0  0
  4 28  1  0  0  0  0
  4 29  1  0  0  0  0
  5  6  1  0  0  0  0
  5 30  1  0  0  0  0
  5 31  1  0  0  0  0
  6 21  1  0  0  0  0
  6  7  1  0  0  0  0
  7  8  2  0  0  0  0
  7 32  1  0  0  0  0
  8  9  1  0  0  0  0
  8 33  1  0  0  0  0
  9 10  1  0  0  0  0
  9 21  2  0  0  0  0
 10 11  1  0  0  0  0
 10 34  1  0  0  0  0
 11 12  2  0  0  0  0
 11 13  1  0  0  0  0
 13 14  1  0  0  0  0
 13 35  1  0  0  0  0
 14 19  1  0  0  0  0
 14 15  1  0  0  0  0
 14 36  1  0  0  0  0
 15 16  1  0  0  0  0
 15 37  1  0  0  0  0
 15 38  1  0  0  0  0
 16 20  1  0  0  0  0
 16 17  1  0  0  0  0
 16 39  1  0  0  0  0
 17 18  1  0  0  0  0
 17 40  1  0  0  0  0
 17 41  1  0  0  0  0
 18 19  1  0  0  0  0
 18 42  1  0  0  0  0
 18 43  1  0  0  0  0
 19 20  1  0  0  0  0
 19 44  1  0  0  0  0
 20 45  1  0  0  0  0
 20 46  1  0  0  0  0
M  END
> <s_m_source_file>
AV-unprocessed.smi

> <i_m_source_file_index>
720

> <i_lp_mmshare_version>
43012

> <i_f3d_flags>
0

> <s_epik_input>
W0NIM11OKFtDSDNdKVtDSDJdW0NIMl1uMVtjSF1bY0hdYyhuMSlbTkhdQyg9TylbTkhdW0NASF0oW0NIMl1bQ0BIXTIzKVtDQEhdKFtDSDJdMylbQ0gyXVtDSDJdMg==

> <s_epik_cmdline>
J2VwaWtfcHl0aG9uJywgJy1waCcsICc3LjAnLCAnLXRuJywgJzgnLCAnLW1hJywgJzIwMCcsICctbWV0YWxfYmluZGluZycsICctaW1hZScsICc8aW5maWxlLm1hZT4nLCAnLW9tYWUnLCAnPG91dGZpbGUubWFlPic=

> <r_lp_tautomer_probability>
1

> <r_epik_Ionization_Penalty>
1.83819

> <r_epik_Ionization_Penalty_Charging>
0

> <r_epik_Ionization_Penalty_Neutral>
1.83819

> <r_epik_State_Penalty>
1.95467

> <r_epik_Charging_Adjusted_Penalty>
1.95467

> <i_epik_Tot_Q>
0

> <i_epik_Tot_abs_Q>
0

> <r_epik_Metal_State_Penalty>
1.95467

> <b_epik_Metal_Only>
0

> <s_lp_Force_Field>
OPLS_2005

> <r_lp_Energy>
62.6494

> <b_lp_Chiralities_Consistent>
1

> <s_lp_Variant>
AV-unprocessed.smi:720-7

> <Gold.Version>
5.8.1

> <Gold.Id.Protein>
6NUR|6NUR_protein|mol2

> <Gold.PLP.Fitness>
47.3912

> <Gold.PLP.PLP>
-40.9125

> <Gold.PLP.part.hbond>
-1.6656

> <Gold.PLP.part.metal>
0.0000

> <Gold.PLP.part.buried>
-4.4573

> <Gold.PLP.part.nonpolar>
-36.2020

> <Gold.PLP.part.repulsive>
0.4140

> <Gold.PLP.ligand.clash>
0.0000

> <Gold.PLP.ligand.torsion>
0.4912

> <Gold.PLP.Chemscore.Hbond>
1.5040

> <Gold.PLP.Chemscore.CHOScore>
0.9523

> <Gold.PLP.Chemscore.Metal>
0.0000

> <Gold.Chemscore.Hbonds>
donor molecule, donor type, donor heavy atom, donor atom, acceptor molecule, acceptor atom, score
      L1  H    10    34       P1  8028  0.67
      L1  H    13    35       P1  8028  0.51
      L1  C     7    32       P1 10175  0.83

> <Gold.PLP.Chemscore.Internal.Correction>
0.0922

> <Gold.Rescore>
     Score         DG    S(hbond)    S(metal)    S(lipo)     H(rot)  DE(clash)    DE(int)     intcor
     17.11     -19.23       1.58        0.00     105.96       1.53       0.22       1.90       ----

> <Gold.Chemscore.Fitness>
17.1103

> <Gold.Chemscore.DG>
-19.2258

> <Gold.Chemscore.ZeroCoef>
-5.4800

> <Gold.Chemscore.Hbond>
1.5772

> <Gold.Chemscore.Metal>
0.0000

> <Gold.Chemscore.Lipo>
105.9632

> <Gold.Chemscore.Internal_Hbond>
0.0000

> <Gold.Chemscore.DEClash>
0.2180

> <Gold.Chemscore.DEInternal>
1.8974

> <Gold.Chemscore.Rot>
1.5312

> <Gold.Chemscore.Internal.Correction>
   9.000000E+99

> <Gold.Chemscore.Hbonds>
donor molecule, donor type, donor heavy atom, donor atom, acceptor molecule, acceptor atom, score
      L1  H    10    34       P1  8028  0.64
      L1  H    13    35       P1  8028  0.47

> <Gold.Chemscore.Hbond.Weighted>
-5.2679

> <Gold.Chemscore.Metal.Weighted>
-0.0000

> <Gold.Chemscore.Lipo.Weighted>
-12.3977

> <Gold.Chemscore.Internal_Hbond.Weighted>
0.0000

> <Gold.Chemscore.DEClash.Weighted>
0.2180

> <Gold.Chemscore.DEInternal.Weighted>
1.8974

> <Gold.Chemscore.Rot.Weighted>
3.9199

> <Gold.Chemscore.Internal.Correction.Weighted>
   9.000000E+99

> <Gold.Protein.RotatedTorsions>
[ 6907 6896 6895 6894 ] final   19.36 input  -60.11 | X-H torsion
[ 7974 7965 7964 7962 ] final -114.69 input  175.53 | X-H torsion
[ 8008 7997 7996 7995 ] final -100.04 input   59.86 | X-H torsion
[ 10167 10162 10161 10158 ] final -129.55 input  -65.29 | X-H torsion
[ 10718 10713 10712 10709 ] final -164.18 input   66.30 | X-H torsion
[ 10763 10752 10751 10750 ] final  -81.69 input  -60.55 | X-H torsion
[ 11005 11000 10999 10996 ] final   81.88 input  -57.11 | X-H torsion

> <Gold.Protein.ActiveResidues>
 VAL166  LYS551  ARG553  GLY616  TRP617  ASP618  TYR619  PRO620  LYS621  CYS622 
 ASP623  PHE694  ASN695  SER759  ASP760  ASP761  ALA762  ILE779  LEU786  VAL792 
 PHE793  MET794  SER795  GLU796  ALA797  LYS798  CYS799  TRP800  GLU811  SER814 

> <Gold.Protein.RotatedAtoms>
  151.8796  135.0458  160.0487 H   0  0  0  0  0  0  0  0  0  0  0  0  # atno 6907 bound_to 6896
  152.2523  133.5221  159.5341 H   0  0  0  0  0  0  0  0  0  0  0  0  # atno 6908 bound_to 6896
  150.7088  134.0859  159.3957 H   0  0  0  0  0  0  0  0  0  0  0  0  # atno 6909 bound_to 6896
  145.1172  140.8647  143.3835 H   0  0  0  0  0  0  0  0  0  0  0  0  # atno 7974 bound_to 7965
  154.8232  140.0443  157.1425 H   0  0  0  0  0  0  0  0  0  0  0  0  # atno 8008 bound_to 7997
  154.9236  140.3030  155.5183 H   0  0  0  0  0  0  0  0  0  0  0  0  # atno 8009 bound_to 7997
  156.2982  140.2336  156.4289 H   0  0  0  0  0  0  0  0  0  0  0  0  # atno 8010 bound_to 7997
  139.9386  143.6189  152.2510 H   0  0  0  0  0  0  0  0  0  0  0  0  # atno 10167 bound_to 10162
  156.6353  130.8946  151.2985 H   0  0  0  0  0  0  0  0  0  0  0  0  # atno 10718 bound_to 10713
  154.5667  135.5617  153.7057 H   0  0  0  0  0  0  0  0  0  0  0  0  # atno 10763 bound_to 10752
  153.0035  135.6287  154.2171 H   0  0  0  0  0  0  0  0  0  0  0  0  # atno 10764 bound_to 10752
  154.2109  135.2873  155.2938 H   0  0  0  0  0  0  0  0  0  0  0  0  # atno 10765 bound_to 10752
  139.9082  134.8030  156.2101 H   0  0  0  0  0  0  0  0  0  0  0  0  # atno 11005 bound_to 11000
  145.0781  139.2980  143.5797 LP  0  0  0  0  0  0  0  0  0  0  0  0  # atno 17320 bound_to 7965
  146.3523  140.0278  142.8653 LP  0  0  0  0  0  0  0  0  0  0  0  0  # atno 17321 bound_to 7965
  139.6723  144.7660  151.1761 LP  0  0  0  0  0  0  0  0  0  0  0  0  # atno 17342 bound_to 10162
  140.7617  143.5847  150.8858 LP  0  0  0  0  0  0  0  0  0  0  0  0  # atno 17343 bound_to 10162
  157.7187  130.9531  150.1356 LP  0  0  0  0  0  0  0  0  0  0  0  0  # atno 17370 bound_to 10713
  156.2202  130.3673  149.8565 LP  0  0  0  0  0  0  0  0  0  0  0  0  # atno 17371 bound_to 10713
  141.0471  133.6908  156.1703 LP  0  0  0  0  0  0  0  0  0  0  0  0  # atno 17394 bound_to 11000
  140.6867  134.4709  157.5589 LP  0  0  0  0  0  0  0  0  0  0  0  0  # atno 17395 bound_to 11000

$$$$
