AV-unprocessed.smi:4|AV-procd|sdf|36|dock4
  -GOLD-   2262015153D 1   1.00000     0.00000
 Structure written by MMmdl.
 42 43  0  0  0  0  0  0  0  0  2 V2000
  149.2924  135.8318  157.7030 C   0  0  0  0  0  0  0  0  0  0  0  0
  149.8964  135.6368  156.2858 C   0  0  0  0  0  0  0  0  0  0  0  0
  149.1634  136.6568  155.3791 C   0  0  0  0  0  0  0  0  0  0  0  0
  151.3945  136.0116  156.4244 C   0  0  0  0  0  0  0  0  0  0  0  0
  149.7467  134.2395  155.7335 N   0  0  0  0  0  0  0  0  0  0  0  0
  148.9424  134.0130  154.5861 C   0  0  0  0  0  0  0  0  0  0  0  0
  148.7478  132.7957  154.0296 C   0  0  0  0  0  0  0  0  0  0  0  0
  147.8894  132.5387  152.7906 C   0  0  0  0  0  0  0  0  0  0  0  0
  147.1013  133.6982  152.3731 N   0  0  0  0  0  0  0  0  0  0  0  0
  146.2944  133.4546  151.1811 C   0  0  0  0  0  0  0  0  0  0  0  0
  145.0853  134.3935  151.1276 C   0  0  0  0  0  0  0  0  0  0  0  0
  144.4822  134.1568  149.8702 O   0  0  0  0  0  0  0  0  0  0  0  0
  144.0960  134.3291  152.3058 C   0  0  0  0  0  0  0  0  0  0  0  0
  143.9795  135.8535  152.2673 C   0  0  0  0  0  0  0  0  0  0  0  0
  145.2914  135.8790  151.4823 C   0  0  0  0  0  0  0  0  0  0  0  0
  149.4129  131.6613  154.6661 C   0  0  0  0  0  0  0  0  0  0  0  0
  149.2606  130.5274  154.2121 O   0  0  0  0  0  0  0  0  0  0  0  0
  150.1873  131.9077  155.7564 N   0  5  0  0  0  0  0  0  0  0  0  0
  150.3729  133.1490  156.2965 C   0  0  0  0  0  0  0  0  0  0  0  0
  151.0957  133.2928  157.2813 O   0  0  0  0  0  0  0  0  0  0  0  0
  149.4392  136.8526  158.0581 H   0  0  0  0  0  0  0  0  0  0  0  0
  149.7618  135.1800  158.4413 H   0  0  0  0  0  0  0  0  0  0  0  0
  148.2156  135.6575  157.7176 H   0  0  0  0  0  0  0  0  0  0  0  0
  148.1189  136.3767  155.2391 H   0  0  0  0  0  0  0  0  0  0  0  0
  149.6110  136.7563  154.3918 H   0  0  0  0  0  0  0  0  0  0  0  0
  149.1756  137.6550  155.8182 H   0  0  0  0  0  0  0  0  0  0  0  0
  151.5177  136.9664  156.9365 H   0  0  0  0  0  0  0  0  0  0  0  0
  151.9041  136.1189  155.4685 H   0  0  0  0  0  0  0  0  0  0  0  0
  151.9348  135.2614  157.0030 H   0  0  0  0  0  0  0  0  0  0  0  0
  148.4696  134.8736  154.1533 H   0  0  0  0  0  0  0  0  0  0  0  0
  148.5395  132.2283  151.9712 H   0  0  0  0  0  0  0  0  0  0  0  0
  147.2309  131.6963  153.0064 H   0  0  0  0  0  0  0  0  0  0  0  0
  147.7253  134.4778  152.1902 H   0  0  0  0  0  0  0  0  0  0  0  0
  146.9046  133.5636  150.2831 H   0  0  0  0  0  0  0  0  0  0  0  0
  145.9581  132.4172  151.1885 H   0  0  0  0  0  0  0  0  0  0  0  0
  145.1818  134.0656  149.2416 H   0  0  0  0  0  0  0  0  0  0  0  0
  143.1635  133.8039  152.0958 H   0  0  0  0  0  0  0  0  0  0  0  0
  144.5533  133.9688  153.2287 H   0  0  0  0  0  0  0  0  0  0  0  0
  143.1281  136.1967  151.6779 H   0  0  0  0  0  0  0  0  0  0  0  0
  144.0223  136.3392  153.2425 H   0  0  0  0  0  0  0  0  0  0  0  0
  146.1597  136.0465  152.1221 H   0  0  0  0  0  0  0  0  0  0  0  0
  145.2910  136.5579  150.6288 H   0  0  0  0  0  0  0  0  0  0  0  0
  1  2  1  0  0  0  0
  1 21  1  0  0  0  0
  1 22  1  0  0  0  0
  1 23  1  0  0  0  0
  2  3  1  0  0  0  0
  2  4  1  0  0  0  0
  2  5  1  0  0  0  0
  3 24  1  0  0  0  0
  3 25  1  0  0  0  0
  3 26  1  0  0  0  0
  4 27  1  0  0  0  0
  4 28  1  0  0  0  0
  4 29  1  0  0  0  0
  5 19  1  0  0  0  0
  5  6  1  0  0  0  0
  6  7  2  0  0  0  0
  6 30  1  0  0  0  0
  7  8  1  0  0  0  0
  7 16  1  0  0  0  0
  8  9  1  0  0  0  0
  8 31  1  0  0  0  0
  8 32  1  0  0  0  0
  9 10  1  0  0  0  0
  9 33  1  0  0  0  0
 10 11  1  0  0  0  0
 10 34  1  0  0  0  0
 10 35  1  0  0  0  0
 11 15  1  0  0  0  0
 11 12  1  0  0  0  0
 11 13  1  0  0  0  0
 12 36  1  0  0  0  0
 13 14  1  0  0  0  0
 13 37  1  0  0  0  0
 13 38  1  0  0  0  0
 14 15  1  0  0  0  0
 14 39  1  0  0  0  0
 14 40  1  0  0  0  0
 15 41  1  0  0  0  0
 15 42  1  0  0  0  0
 16 17  2  0  0  0  0
 16 18  1  0  0  0  0
 18 19  1  0  0  0  0
 19 20  2  0  0  0  0
M  CHG  1  18  -1
M  END
> <s_m_source_file>
AV-unprocessed.smi

> <i_m_source_file_index>
4

> <i_lp_mmshare_version>
43012

> <i_f3d_flags>
0

> <s_epik_input>
W0NIM11DKFtDSDNdKShbQ0gzXSluMVtjSF1jKGMoPU8pW25IXWMxPU8pW0NIMl1bTkhdW0NIMl1DMihbT0hdKVtDSDJdW0NIMl1bQ0gyXTI=

> <s_epik_cmdline>
J2VwaWtfcHl0aG9uJywgJy1waCcsICc3LjAnLCAnLXRuJywgJzgnLCAnLW1hJywgJzIwMCcsICctbWV0YWxfYmluZGluZycsICctaW1hZScsICc8aW5maWxlLm1hZT4nLCAnLW9tYWUnLCAnPG91dGZpbGUubWFlPic=

> <r_lp_tautomer_probability>
0.999537

> <r_epik_Ionization_Penalty>
6.25758

> <r_epik_Ionization_Penalty_Charging>
1.60838e-06

> <r_epik_Ionization_Penalty_Neutral>
6.25758

> <r_epik_State_Penalty>
6.1746

> <r_epik_Charging_Adjusted_Penalty>
6.1746

> <i_epik_Tot_Q>
-1

> <i_epik_Tot_abs_Q>
1

> <r_epik_Metal_State_Penalty>
2.58365

> <b_epik_Metal_Only>
1

> <s_lp_Force_Field>
OPLS_2005

> <r_lp_Energy>
44.4869

> <b_lp_Chiralities_Consistent>
1

> <s_lp_Variant>
AV-unprocessed.smi:4-4

> <Gold.Version>
5.8.1

> <Gold.Id.Protein>
6NUR|6NUR_protein|mol2

> <Gold.PLP.Fitness>
43.7121

> <Gold.PLP.PLP>
-32.7851

> <Gold.PLP.part.hbond>
-2.7532

> <Gold.PLP.part.metal>
0.0000

> <Gold.PLP.part.buried>
-4.3165

> <Gold.PLP.part.nonpolar>
-25.3222

> <Gold.PLP.part.repulsive>
0.0908

> <Gold.PLP.ligand.clash>
0.0000

> <Gold.PLP.ligand.torsion>
0.3913

> <Gold.PLP.Chemscore.Hbond>
2.8640

> <Gold.PLP.Chemscore.CHOScore>
1.0000

> <Gold.PLP.Chemscore.Metal>
0.0000

> <Gold.Chemscore.Hbonds>
donor molecule, donor type, donor heavy atom, donor atom, acceptor molecule, acceptor atom, score
      L1  H     9    33       P1  7948  0.78
      L1  H    12    36       P1  7921  0.96
      P1  H  6896  6908       L1    20  0.80
      L1  C     6    30       P1  7948  0.62

> <Gold.PLP.Chemscore.Internal.Correction>
0.1176

> <Gold.Rescore>
     Score         DG    S(hbond)    S(metal)    S(lipo)     H(rot)  DE(clash)    DE(int)     intcor
     13.52     -15.46       2.92        0.00      54.42       2.40       0.03       1.91       ----

> <Gold.Chemscore.Fitness>
13.5190

> <Gold.Chemscore.DG>
-15.4571

> <Gold.Chemscore.ZeroCoef>
-5.4800

> <Gold.Chemscore.Hbond>
2.9189

> <Gold.Chemscore.Metal>
0.0000

> <Gold.Chemscore.Lipo>
54.4234

> <Gold.Chemscore.Internal_Hbond>
0.0000

> <Gold.Chemscore.DEClash>
0.0318

> <Gold.Chemscore.DEInternal>
1.9062

> <Gold.Chemscore.Rot>
2.3983

> <Gold.Chemscore.Internal.Correction>
   9.000000E+99

> <Gold.Chemscore.Hbonds>
donor molecule, donor type, donor heavy atom, donor atom, acceptor molecule, acceptor atom, score
      L1  H     9    33       P1  7948  0.38
      L1  H    12    36       P1  7921  0.84
      P1  H  6896  6908       L1    20  0.79

> <Gold.Chemscore.Hbond.Weighted>
-9.7491

> <Gold.Chemscore.Metal.Weighted>
-0.0000

> <Gold.Chemscore.Lipo.Weighted>
-6.3675

> <Gold.Chemscore.Internal_Hbond.Weighted>
0.0000

> <Gold.Chemscore.DEClash.Weighted>
0.0318

> <Gold.Chemscore.DEInternal.Weighted>
1.9062

> <Gold.Chemscore.Rot.Weighted>
6.1395

> <Gold.Chemscore.Internal.Correction.Weighted>
   9.000000E+99

> <Gold.Protein.RotatedTorsions>
[ 6907 6896 6895 6894 ] final   87.56 input  -60.11 | X-H torsion
[ 7974 7965 7964 7962 ] final  -33.05 input  175.53 | X-H torsion
[ 8008 7997 7996 7995 ] final   53.00 input   59.86 | X-H torsion
[ 10167 10162 10161 10158 ] final  167.15 input  -65.29 | X-H torsion
[ 10718 10713 10712 10709 ] final   93.08 input   66.30 | X-H torsion
[ 10763 10752 10751 10750 ] final   53.24 input  -60.55 | X-H torsion
[ 11005 11000 10999 10996 ] final   29.03 input  -57.11 | X-H torsion

> <Gold.Protein.ActiveResidues>
 VAL166  LYS551  ARG553  GLY616  TRP617  ASP618  TYR619  PRO620  LYS621  CYS622 
 ASP623  PHE694  ASN695  SER759  ASP760  ASP761  ALA762  ILE779  LEU786  VAL792 
 PHE793  MET794  SER795  GLU796  ALA797  LYS798  CYS799  TRP800  GLU811  SER814 

> <Gold.Protein.RotatedAtoms>
  152.5413  134.2257  159.8804 H   0  0  0  0  0  0  0  0  0  0  0  0  # atno 6907 bound_to 6896
  151.2231  133.4484  159.2609 H   0  0  0  0  0  0  0  0  0  0  0  0  # atno 6908 bound_to 6896
  151.0786  134.9857  159.8400 H   0  0  0  0  0  0  0  0  0  0  0  0  # atno 6909 bound_to 6896
  146.0941  140.5868  142.8851 H   0  0  0  0  0  0  0  0  0  0  0  0  # atno 7974 bound_to 7965
  155.4610  140.3462  155.4313 H   0  0  0  0  0  0  0  0  0  0  0  0  # atno 8008 bound_to 7997
  156.1161  140.1474  156.9300 H   0  0  0  0  0  0  0  0  0  0  0  0  # atno 8009 bound_to 7997
  154.4790  140.0876  156.7310 H   0  0  0  0  0  0  0  0  0  0  0  0  # atno 8010 bound_to 7997
  139.4939  144.3952  151.9472 H   0  0  0  0  0  0  0  0  0  0  0  0  # atno 10167 bound_to 10162
  157.6956  131.0466  150.3980 H   0  0  0  0  0  0  0  0  0  0  0  0  # atno 10718 bound_to 10713
  152.9794  135.5785  154.4708 H   0  0  0  0  0  0  0  0  0  0  0  0  # atno 10763 bound_to 10752
  154.4271  135.2773  155.1939 H   0  0  0  0  0  0  0  0  0  0  0  0  # atno 10764 bound_to 10752
  154.3663  135.6177  153.5770 H   0  0  0  0  0  0  0  0  0  0  0  0  # atno 10765 bound_to 10752
  140.3093  134.2668  155.7737 H   0  0  0  0  0  0  0  0  0  0  0  0  # atno 11005 bound_to 11000
  144.7382  140.4869  143.6888 LP  0  0  0  0  0  0  0  0  0  0  0  0  # atno 17320 bound_to 7965
  145.5982  139.1501  143.3144 LP  0  0  0  0  0  0  0  0  0  0  0  0  # atno 17321 bound_to 7965
  140.3390  144.3225  150.5971 LP  0  0  0  0  0  0  0  0  0  0  0  0  # atno 17342 bound_to 10162
  140.5581  143.2196  151.7812 LP  0  0  0  0  0  0  0  0  0  0  0  0  # atno 17343 bound_to 10162
  156.4376  130.3985  149.6718 LP  0  0  0  0  0  0  0  0  0  0  0  0  # atno 17370 bound_to 10713
  156.3913  130.7629  151.2630 LP  0  0  0  0  0  0  0  0  0  0  0  0  # atno 17371 bound_to 10713
  141.2111  133.7697  156.9883 LP  0  0  0  0  0  0  0  0  0  0  0  0  # atno 17394 bound_to 11000
  140.1039  134.9518  157.1965 LP  0  0  0  0  0  0  0  0  0  0  0  0  # atno 17395 bound_to 11000

$$$$
