AV-unprocessed.smi:2640|AV-procd|sdf|10270|dock6
  -GOLD-   2272014283D 1   1.00000     0.00000
 Structure written by MMmdl.
 41 42  0  0  0  0  0  0  0  0  1 V2000
  152.2140  139.7508  155.1417 O   0  0  0  0  0  0  0  0  0  0  0  0
  151.2709  139.1310  155.6323 C   0  0  0  0  0  0  0  0  0  0  0  0
  150.6515  137.9578  154.8767 C   0  0  0  0  0  0  0  0  0  0  0  0
  150.7999  136.7041  155.6202 N   0  0  0  0  0  0  0  0  0  0  0  0
  150.1660  135.6045  154.9072 C   0  0  0  0  0  0  0  0  0  0  0  0
  150.2449  134.3114  155.7361 C   0  0  0  0  0  0  0  0  0  0  0  0
  149.7564  133.1562  155.0038 N   0  0  0  0  0  0  0  0  0  0  0  0
  149.8600  131.8230  155.3411 C   0  0  0  0  0  0  0  0  0  0  0  0
  149.2618  131.1044  154.3461 C   0  0  0  0  0  0  0  0  0  0  0  0
  148.8141  132.0997  153.4329 C   0  0  0  0  0  0  0  0  0  0  0  0
  149.1114  133.3265  153.8294 N   0  0  0  0  0  0  0  0  0  0  0  0
  150.7314  139.4246  156.8268 N   0  0  0  0  0  0  0  0  0  0  0  0
  151.1497  140.5217  157.7020 C   0  0  2  0  0  0  0  0  0  0  0  0
  151.2248  141.8030  156.8404 C   0  0  0  0  0  0  0  0  0  0  0  0
  151.1194  143.1040  157.6548 C   0  0  0  0  0  0  0  0  0  0  0  0
  152.2844  143.3585  158.6233 C   0  0  0  0  0  0  0  0  0  0  0  0
  152.4154  142.2950  159.7267 C   0  0  0  0  0  0  0  0  0  0  0  0
  153.0332  141.0696  159.2372 N   0  0  0  0  0  0  0  0  0  0  0  0
  152.5433  140.2339  158.3088 C   0  0  0  0  0  0  0  0  0  0  0  0
  153.1984  139.2567  157.9461 O   0  0  0  0  0  0  0  0  0  0  0  0
  149.5937  138.1605  154.7009 H   0  0  0  0  0  0  0  0  0  0  0  0
  151.1323  137.8720  153.9009 H   0  0  0  0  0  0  0  0  0  0  0  0
  150.3961  136.7749  156.5440 H   0  0  0  0  0  0  0  0  0  0  0  0
  149.1242  135.8451  154.6890 H   0  0  0  0  0  0  0  0  0  0  0  0
  150.6706  135.4572  153.9516 H   0  0  0  0  0  0  0  0  0  0  0  0
  151.2812  134.1169  156.0145 H   0  0  0  0  0  0  0  0  0  0  0  0
  149.6875  134.4138  156.6688 H   0  0  0  0  0  0  0  0  0  0  0  0
  150.3482  131.5012  156.2493 H   0  0  0  0  0  0  0  0  0  0  0  0
  149.1599  130.0315  154.2800 H   0  0  0  0  0  0  0  0  0  0  0  0
  148.2857  131.9684  152.5002 H   0  0  0  0  0  0  0  0  0  0  0  0
  149.9497  138.8672  157.1389 H   0  0  0  0  0  0  0  0  0  0  0  0
  150.4129  140.6466  158.4975 H   0  0  0  0  0  0  0  0  0  0  0  0
  152.1289  141.8119  156.2288 H   0  0  0  0  0  0  0  0  0  0  0  0
  150.3945  141.8035  156.1320 H   0  0  0  0  0  0  0  0  0  0  0  0
  151.0575  143.9432  156.9614 H   0  0  0  0  0  0  0  0  0  0  0  0
  150.1797  143.1087  158.2088 H   0  0  0  0  0  0  0  0  0  0  0  0
  153.2212  143.4460  158.0711 H   0  0  0  0  0  0  0  0  0  0  0  0
  152.1253  144.3283  159.0957 H   0  0  0  0  0  0  0  0  0  0  0  0
  153.0551  142.6805  160.5208 H   0  0  0  0  0  0  0  0  0  0  0  0
  151.4501  142.0805  160.1878 H   0  0  0  0  0  0  0  0  0  0  0  0
  153.9403  140.8454  159.6203 H   0  0  0  0  0  0  0  0  0  0  0  0
  1  2  2  0  0  0  0
  2  3  1  0  0  0  0
  2 12  1  0  0  0  0
  3  4  1  0  0  0  0
  3 21  1  0  0  0  0
  3 22  1  0  0  0  0
  4  5  1  0  0  0  0
  4 23  1  0  0  0  0
  5  6  1  0  0  0  0
  5 24  1  0  0  0  0
  5 25  1  0  0  0  0
  6  7  1  0  0  0  0
  6 26  1  0  0  0  0
  6 27  1  0  0  0  0
  7 11  1  0  0  0  0
  7  8  1  0  0  0  0
  8  9  2  0  0  0  0
  8 28  1  0  0  0  0
  9 10  1  0  0  0  0
  9 29  1  0  0  0  0
 10 11  2  0  0  0  0
 10 30  1  0  0  0  0
 12 13  1  0  0  0  0
 12 31  1  0  0  0  0
 13 19  1  0  0  0  0
 13 14  1  0  0  0  0
 13 32  1  0  0  0  0
 14 15  1  0  0  0  0
 14 33  1  0  0  0  0
 14 34  1  0  0  0  0
 15 16  1  0  0  0  0
 15 35  1  0  0  0  0
 15 36  1  0  0  0  0
 16 17  1  0  0  0  0
 16 37  1  0  0  0  0
 16 38  1  0  0  0  0
 17 18  1  0  0  0  0
 17 39  1  0  0  0  0
 17 40  1  0  0  0  0
 18 19  1  0  0  0  0
 18 41  1  0  0  0  0
 19 20  2  0  0  0  0
M  END
> <s_m_source_file>
AV-unprocessed.smi

> <i_m_source_file_index>
2640

> <i_lp_mmshare_version>
43012

> <i_f3d_flags>
0

> <s_epik_input>
Tz1DMVtOSF1bQ0gyXVtDSDJdW0NIMl1bQ0gyXVtDQEhdMVtOSF1DKD1PKVtDSDJdW05IXVtDSDJdW0NIMl1uMltjSF1bY0hdW2NIXW4y

> <s_epik_cmdline>
J2VwaWtfcHl0aG9uJywgJy1waCcsICc3LjAnLCAnLXRuJywgJzgnLCAnLW1hJywgJzIwMCcsICctbWV0YWxfYmluZGluZycsICctaW1hZScsICc8aW5maWxlLm1hZT4nLCAnLW9tYWUnLCAnPG91dGZpbGUubWFlPic=

> <r_lp_tautomer_probability>
1

> <r_epik_Ionization_Penalty>
0.641667

> <r_epik_Ionization_Penalty_Charging>
0

> <r_epik_Ionization_Penalty_Neutral>
0.641667

> <r_epik_State_Penalty>
0.657743

> <r_epik_Charging_Adjusted_Penalty>
0.657743

> <i_epik_Tot_Q>
0

> <i_epik_Tot_abs_Q>
0

> <r_epik_Metal_State_Penalty>
0.656014

> <b_epik_Metal_Only>
0

> <s_lp_Force_Field>
OPLS_2005

> <r_lp_Energy>
11.9791

> <b_lp_Chiralities_Consistent>
1

> <s_lp_Variant>
AV-unprocessed.smi:2640-3

> <Gold.Version>
5.8.1

> <Gold.Id.Protein>
6NUR|6NUR_protein|mol2

> <Gold.PLP.Fitness>
44.2036

> <Gold.PLP.PLP>
-36.1719

> <Gold.PLP.part.hbond>
-2.0000

> <Gold.PLP.part.metal>
0.0000

> <Gold.PLP.part.buried>
-5.9194

> <Gold.PLP.part.nonpolar>
-29.9929

> <Gold.PLP.part.repulsive>
0.3122

> <Gold.PLP.ligand.clash>
0.0000

> <Gold.PLP.ligand.torsion>
0.2296

> <Gold.PLP.Chemscore.Hbond>
1.8160

> <Gold.PLP.Chemscore.CHOScore>
1.0000

> <Gold.PLP.Chemscore.Metal>
0.0000

> <Gold.Chemscore.Hbonds>
donor molecule, donor type, donor heavy atom, donor atom, acceptor molecule, acceptor atom, score
      P1  H  7989  7998       L1     1  0.74
      P1  H  7997  8009       L1    20  1.00
      L1  C    10    30       P1 10747  0.91

> <Gold.PLP.Chemscore.Internal.Correction>
0.0429

> <Gold.Rescore>
     Score         DG    S(hbond)    S(metal)    S(lipo)     H(rot)  DE(clash)    DE(int)     intcor
     12.80     -14.65       1.94        0.00      74.79       2.37       0.09       1.76       ----

> <Gold.Chemscore.Fitness>
12.8014

> <Gold.Chemscore.DG>
-14.6490

> <Gold.Chemscore.ZeroCoef>
-5.4800

> <Gold.Chemscore.Hbond>
1.9443

> <Gold.Chemscore.Metal>
0.0000

> <Gold.Chemscore.Lipo>
74.7890

> <Gold.Chemscore.Internal_Hbond>
0.0000

> <Gold.Chemscore.DEClash>
0.0922

> <Gold.Chemscore.DEInternal>
1.7554

> <Gold.Chemscore.Rot>
2.3732

> <Gold.Chemscore.Internal.Correction>
   9.000000E+99

> <Gold.Chemscore.Hbonds>
donor molecule, donor type, donor heavy atom, donor atom, acceptor molecule, acceptor atom, score
      P1  H  7989  7998       L1     1  0.60
      P1  H  7997  8009       L1    20  0.35

> <Gold.Chemscore.Hbond.Weighted>
-6.4940

> <Gold.Chemscore.Metal.Weighted>
-0.0000

> <Gold.Chemscore.Lipo.Weighted>
-8.7503

> <Gold.Chemscore.Internal_Hbond.Weighted>
0.0000

> <Gold.Chemscore.DEClash.Weighted>
0.0922

> <Gold.Chemscore.DEInternal.Weighted>
1.7554

> <Gold.Chemscore.Rot.Weighted>
6.0753

> <Gold.Chemscore.Internal.Correction.Weighted>
   9.000000E+99

> <Gold.Protein.RotatedTorsions>
[ 6907 6896 6895 6894 ] final  145.96 input  -60.11 | X-H torsion
[ 7974 7965 7964 7962 ] final  -79.05 input  175.53 | X-H torsion
[ 8008 7997 7996 7995 ] final  162.72 input   59.86 | X-H torsion
[ 10167 10162 10161 10158 ] final   82.10 input  -65.29 | X-H torsion
[ 10718 10713 10712 10709 ] final  114.18 input   66.30 | X-H torsion
[ 10763 10752 10751 10750 ] final -112.72 input  -60.55 | X-H torsion
[ 11005 11000 10999 10996 ] final  112.91 input  -57.11 | X-H torsion

> <Gold.Protein.ActiveResidues>
 VAL166  LYS551  ARG553  GLY616  TRP617  ASP618  TYR619  PRO620  LYS621  CYS622 
 ASP623  PHE694  ASN695  SER759  ASP760  ASP761  ALA762  ILE779  LEU786  VAL792 
 PHE793  MET794  SER795  GLU796  ALA797  LYS798  CYS799  TRP800  GLU811  SER814 

> <Gold.Protein.RotatedAtoms>
  152.1741  133.4663  159.4924 H   0  0  0  0  0  0  0  0  0  0  0  0  # atno 6907 bound_to 6896
  150.6924  134.1915  159.4296 H   0  0  0  0  0  0  0  0  0  0  0  0  # atno 6908 bound_to 6896
  151.9824  135.0021  160.0608 H   0  0  0  0  0  0  0  0  0  0  0  0  # atno 6909 bound_to 6896
  145.5783  140.9453  143.1358 H   0  0  0  0  0  0  0  0  0  0  0  0  # atno 7974 bound_to 7965
  156.2011  140.1743  156.7898 H   0  0  0  0  0  0  0  0  0  0  0  0  # atno 8008 bound_to 7997
  154.5593  140.0702  156.8824 H   0  0  0  0  0  0  0  0  0  0  0  0  # atno 8009 bound_to 7997
  155.2879  140.3353  155.4256 H   0  0  0  0  0  0  0  0  0  0  0  0  # atno 8010 bound_to 7997
  139.9323  144.6144  150.8333 H   0  0  0  0  0  0  0  0  0  0  0  0  # atno 10167 bound_to 10162
  157.6296  131.0995  150.7149 H   0  0  0  0  0  0  0  0  0  0  0  0  # atno 10718 bound_to 10713
  154.8363  135.4480  154.1238 H   0  0  0  0  0  0  0  0  0  0  0  0  # atno 10763 bound_to 10752
  153.2467  135.6922  153.7730 H   0  0  0  0  0  0  0  0  0  0  0  0  # atno 10764 bound_to 10752
  153.7058  135.3364  155.3211 H   0  0  0  0  0  0  0  0  0  0  0  0  # atno 10765 bound_to 10752
  139.8939  134.9539  156.6657 H   0  0  0  0  0  0  0  0  0  0  0  0  # atno 11005 bound_to 11000
  144.7405  139.7461  143.7312 LP  0  0  0  0  0  0  0  0  0  0  0  0  # atno 17320 bound_to 7965
  146.1734  139.4895  142.9912 LP  0  0  0  0  0  0  0  0  0  0  0  0  # atno 17321 bound_to 7965
  140.7634  143.3222  151.2597 LP  0  0  0  0  0  0  0  0  0  0  0  0  # atno 17342 bound_to 10162
  139.6772  143.9917  152.2788 LP  0  0  0  0  0  0  0  0  0  0  0  0  # atno 17343 bound_to 10162
  156.7491  130.4763  149.5460 LP  0  0  0  0  0  0  0  0  0  0  0  0  # atno 17370 bound_to 10713
  156.1490  130.6297  151.0570 LP  0  0  0  0  0  0  0  0  0  0  0  0  # atno 17371 bound_to 10713
  140.7412  133.8976  155.8279 LP  0  0  0  0  0  0  0  0  0  0  0  0  # atno 17394 bound_to 11000
  141.0076  134.1065  157.4254 LP  0  0  0  0  0  0  0  0  0  0  0  0  # atno 17395 bound_to 11000

$$$$
