AV-unprocessed.smi:862|AV-procd|sdf|3980|dock5
  -GOLD-   22720 1453D 1   1.00000     0.00000
 Structure written by MMmdl.
 45 47  0  0  0  0  0  0  0  0  3 V2000
  147.8525  142.3203  154.7538 N   0  0  0  0  0  0  0  0  0  0  0  0
  147.9248  141.0270  155.0835 C   0  0  0  0  0  0  0  0  0  0  0  0
  147.8170  140.6647  156.2537 O   0  0  0  0  0  0  0  0  0  0  0  0
  148.0753  140.1712  154.0412 N   0  0  0  0  0  0  0  0  0  0  0  0
  148.3409  138.7262  154.1368 C   0  0  0  0  0  0  0  0  0  0  0  0
  147.0445  137.9624  153.8090 C   0  0  0  0  0  0  0  0  0  0  0  0
  146.5042  138.3450  152.4147 C   0  0  0  0  0  0  0  0  0  0  0  0
  145.1910  137.6988  152.1909 N   0  3  0  0  0  0  0  0  0  0  0  0
  145.1586  136.2225  152.3168 C   0  0  2  0  0  0  0  0  0  0  0  0
  145.8846  135.4949  151.1812 C   0  0  0  0  0  0  0  0  0  0  0  0
  145.2823  134.0851  151.1603 C   0  0  0  0  0  0  0  0  0  0  0  0
  143.8984  134.1918  151.8194 C   0  0  0  0  0  0  0  0  0  0  0  0
  143.7296  135.6686  152.2153 C   0  0  1  0  0  0  0  0  0  0  0  0
  142.9179  135.8694  153.4272 N   0  0  0  0  0  0  0  0  0  0  0  0
  142.4848  137.0689  153.9338 C   0  0  0  0  0  0  0  0  0  0  0  0
  141.7649  136.7824  155.0649 C   0  0  0  0  0  0  0  0  0  0  0  0
  141.7890  135.4214  155.2051 N   0  3  0  0  0  0  0  0  0  0  0  0
  142.4907  134.8678  154.2109 C   0  0  0  0  0  0  0  0  0  0  0  0
  146.4081  139.8810  152.2707 C   0  0  0  0  0  0  0  0  0  0  0  0
  147.7323  140.5583  152.6675 C   0  0  0  0  0  0  0  0  0  0  0  0
  147.7279  143.0131  155.4779 H   0  0  0  0  0  0  0  0  0  0  0  0
  147.9098  142.6005  153.7859 H   0  0  0  0  0  0  0  0  0  0  0  0
  149.1229  138.4582  153.4249 H   0  0  0  0  0  0  0  0  0  0  0  0
  148.7163  138.4108  155.1101 H   0  0  0  0  0  0  0  0  0  0  0  0
  147.2273  136.8881  153.8562 H   0  0  0  0  0  0  0  0  0  0  0  0
  146.2964  138.1828  154.5724 H   0  0  0  0  0  0  0  0  0  0  0  0
  147.2165  137.9702  151.6778 H   0  0  0  0  0  0  0  0  0  0  0  0
  144.5666  138.0622  152.8966 H   0  0  0  0  0  0  0  0  0  0  0  0
  145.5988  135.9259  153.2704 H   0  0  0  0  0  0  0  0  0  0  0  0
  145.6804  135.9871  150.2288 H   0  0  0  0  0  0  0  0  0  0  0  0
  146.9660  135.4739  151.3196 H   0  0  0  0  0  0  0  0  0  0  0  0
  145.2212  133.6932  150.1444 H   0  0  0  0  0  0  0  0  0  0  0  0
  145.9097  133.4016  151.7340 H   0  0  0  0  0  0  0  0  0  0  0  0
  143.1040  133.8747  151.1429 H   0  0  0  0  0  0  0  0  0  0  0  0
  143.8618  133.5305  152.6856 H   0  0  0  0  0  0  0  0  0  0  0  0
  143.2180  136.1760  151.3949 H   0  0  0  0  0  0  0  0  0  0  0  0
  142.7103  138.0154  153.4633 H   0  0  0  0  0  0  0  0  0  0  0  0
  141.2494  137.4277  155.7615 H   0  0  0  0  0  0  0  0  0  0  0  0
  142.6693  133.8165  154.0690 H   0  0  0  0  0  0  0  0  0  0  0  0
  146.1546  140.1602  151.2490 H   0  0  0  0  0  0  0  0  0  0  0  0
  145.6052  140.2641  152.9027 H   0  0  0  0  0  0  0  0  0  0  0  0
  147.6512  141.6395  152.5457 H   0  0  0  0  0  0  0  0  0  0  0  0
  148.5313  140.2465  151.9934 H   0  0  0  0  0  0  0  0  0  0  0  0
  144.8367  137.9732  151.2855 H   0  0  0  0  0  0  0  0  0  0  0  0
  141.3368  134.9059  155.9503 H   0  0  0  0  0  0  0  0  0  0  0  0
  1  2  1  0  0  0  0
  1 21  1  0  0  0  0
  1 22  1  0  0  0  0
  2  3  2  0  0  0  0
  2  4  1  0  0  0  0
  4 20  1  0  0  0  0
  4  5  1  0  0  0  0
  5  6  1  0  0  0  0
  5 23  1  0  0  0  0
  5 24  1  0  0  0  0
  6  7  1  0  0  0  0
  6 25  1  0  0  0  0
  6 26  1  0  0  0  0
  7  8  1  0  0  0  0
  7 19  1  0  0  0  0
  7 27  1  0  0  0  0
  8  9  1  0  0  0  0
  8 28  1  0  0  0  0
  8 44  1  0  0  0  0
  9 13  1  0  0  0  0
  9 10  1  0  0  0  0
  9 29  1  0  0  0  0
 10 11  1  0  0  0  0
 10 30  1  0  0  0  0
 10 31  1  0  0  0  0
 11 12  1  0  0  0  0
 11 32  1  0  0  0  0
 11 33  1  0  0  0  0
 12 13  1  0  0  0  0
 12 34  1  0  0  0  0
 12 35  1  0  0  0  0
 13 14  1  0  0  0  0
 13 36  1  0  0  0  0
 14 18  1  0  0  0  0
 14 15  1  0  0  0  0
 15 16  2  0  0  0  0
 15 37  1  0  0  0  0
 16 17  1  0  0  0  0
 16 38  1  0  0  0  0
 17 18  2  0  0  0  0
 17 45  1  0  0  0  0
 18 39  1  0  0  0  0
 19 20  1  0  0  0  0
 19 40  1  0  0  0  0
 19 41  1  0  0  0  0
 20 42  1  0  0  0  0
 20 43  1  0  0  0  0
M  CHG  1   8   1
M  CHG  1  17   1
M  END
> <s_m_source_file>
AV-unprocessed.smi

> <i_m_source_file_index>
862

> <i_lp_mmshare_version>
43012

> <i_f3d_flags>
0

> <s_epik_input>
W05IMl1DKD1PKU4xW0NIMl1bQ0gyXVtDSF0oW0NIMl1bQ0gyXTEpW05IXVtDQEBIXTJbQ0gyXVtDSDJdW0NIMl1bQ0BIXTJuM1tjSF1bY0hdbltjSF0z

> <s_epik_cmdline>
J2VwaWtfcHl0aG9uJywgJy1waCcsICc3LjAnLCAnLXRuJywgJzgnLCAnLW1hJywgJzIwMCcsICctbWV0YWxfYmluZGluZycsICctaW1hZScsICc8aW5maWxlLm1hZT4nLCAnLW9tYWUnLCAnPG91dGZpbGUubWFlPic=

> <r_lp_tautomer_probability>
1

> <r_epik_Ionization_Penalty>
1.30217

> <r_epik_Ionization_Penalty_Charging>
0.00439521

> <r_epik_Ionization_Penalty_Neutral>
1.29777

> <r_epik_State_Penalty>
0.977606

> <r_epik_Charging_Adjusted_Penalty>
0.982001

> <i_epik_Tot_Q>
2

> <i_epik_Tot_abs_Q>
2

> <r_epik_Metal_State_Penalty>
1.03289

> <b_epik_Metal_Only>
0

> <s_lp_Force_Field>
OPLS_2005

> <r_lp_Energy>
65.3299

> <b_lp_Chiralities_Consistent>
1

> <s_lp_Variant>
AV-unprocessed.smi:862-5

> <Gold.Version>
5.8.1

> <Gold.Id.Protein>
6NUR|6NUR_protein|mol2

> <Gold.PLP.Fitness>
43.1779

> <Gold.PLP.PLP>
-30.6746

> <Gold.PLP.part.hbond>
-3.8279

> <Gold.PLP.part.metal>
0.0000

> <Gold.PLP.part.buried>
2.0774

> <Gold.PLP.part.nonpolar>
-29.3771

> <Gold.PLP.part.repulsive>
0.3246

> <Gold.PLP.ligand.clash>
0.6012

> <Gold.PLP.ligand.torsion>
0.2485

> <Gold.PLP.Chemscore.Hbond>
2.8724

> <Gold.PLP.Chemscore.CHOScore>
1.6443

> <Gold.PLP.Chemscore.Metal>
0.0000

> <Gold.Chemscore.Hbonds>
donor molecule, donor type, donor heavy atom, donor atom, acceptor molecule, acceptor atom, score
      L1  H     1    21       P1  8028  0.48
      L1  H     8    44       P1 10171  1.00
      L1  C    15    37       P1 10175  0.40
      L1  C    18    39       P1 10957  1.00

> <Gold.PLP.Chemscore.Internal.Correction>
0.0515

> <Gold.Rescore>
     Score         DG    S(hbond)    S(metal)    S(lipo)     H(rot)  DE(clash)    DE(int)     intcor
     13.27     -16.75       2.17        0.00      71.28       1.68       3.16       0.32       ----

> <Gold.Chemscore.Fitness>
13.2702

> <Gold.Chemscore.DG>
-16.7473

> <Gold.Chemscore.ZeroCoef>
-5.4800

> <Gold.Chemscore.Hbond>
2.1651

> <Gold.Chemscore.Metal>
0.0000

> <Gold.Chemscore.Lipo>
71.2832

> <Gold.Chemscore.Internal_Hbond>
0.0000

> <Gold.Chemscore.DEClash>
3.1621

> <Gold.Chemscore.DEInternal>
0.3150

> <Gold.Chemscore.Rot>
1.6814

> <Gold.Chemscore.Internal.Correction>
   9.000000E+99

> <Gold.Chemscore.Hbonds>
donor molecule, donor type, donor heavy atom, donor atom, acceptor molecule, acceptor atom, score
      L1  H     1    21       P1  8028  0.22
      L1  H     8    44       P1 10171  1.00

> <Gold.Chemscore.Hbond.Weighted>
-7.2315

> <Gold.Chemscore.Metal.Weighted>
-0.0000

> <Gold.Chemscore.Lipo.Weighted>
-8.3401

> <Gold.Chemscore.Internal_Hbond.Weighted>
0.0000

> <Gold.Chemscore.DEClash.Weighted>
3.1621

> <Gold.Chemscore.DEInternal.Weighted>
0.3150

> <Gold.Chemscore.Rot.Weighted>
4.3043

> <Gold.Chemscore.Internal.Correction.Weighted>
   9.000000E+99

> <Gold.Protein.RotatedTorsions>
[ 6907 6896 6895 6894 ] final  138.32 input  -60.11 | X-H torsion
[ 7974 7965 7964 7962 ] final  -64.06 input  175.53 | X-H torsion
[ 8008 7997 7996 7995 ] final  -29.78 input   59.86 | X-H torsion
[ 10167 10162 10161 10158 ] final  143.26 input  -65.29 | X-H torsion
[ 10718 10713 10712 10709 ] final  -64.45 input   66.30 | X-H torsion
[ 10763 10752 10751 10750 ] final   68.36 input  -60.55 | X-H torsion
[ 11005 11000 10999 10996 ] final -108.24 input  -57.11 | X-H torsion

> <Gold.Protein.ActiveResidues>
 VAL166  LYS551  ARG553  GLY616  TRP617  ASP618  TYR619  PRO620  LYS621  CYS622 
 ASP623  PHE694  ASN695  SER759  ASP760  ASP761  ALA762  ILE779  LEU786  VAL792 
 PHE793  MET794  SER795  GLU796  ALA797  LYS798  CYS799  TRP800  GLU811  SER814 

> <Gold.Protein.RotatedAtoms>
  152.2680  133.5356  159.5421 H   0  0  0  0  0  0  0  0  0  0  0  0  # atno 6907 bound_to 6896
  150.7149  134.0737  159.3882 H   0  0  0  0  0  0  0  0  0  0  0  0  # atno 6908 bound_to 6896
  151.8653  135.0509  160.0524 H   0  0  0  0  0  0  0  0  0  0  0  0  # atno 6909 bound_to 6896
  145.7713  140.8811  143.0378 H   0  0  0  0  0  0  0  0  0  0  0  0  # atno 7974 bound_to 7965
  154.4276  140.1809  156.1302 H   0  0  0  0  0  0  0  0  0  0  0  0  # atno 8008 bound_to 7997
  156.0073  140.3354  155.6880 H   0  0  0  0  0  0  0  0  0  0  0  0  # atno 8009 bound_to 7997
  155.6159  140.0655  157.2683 H   0  0  0  0  0  0  0  0  0  0  0  0  # atno 8010 bound_to 7997
  139.4974  144.6052  151.6393 H   0  0  0  0  0  0  0  0  0  0  0  0  # atno 10167 bound_to 10162
  156.0728  130.4233  150.1422 H   0  0  0  0  0  0  0  0  0  0  0  0  # atno 10718 bound_to 10713
  153.0231  135.5250  154.7122 H   0  0  0  0  0  0  0  0  0  0  0  0  # atno 10763 bound_to 10752
  154.6201  135.2888  155.0338 H   0  0  0  0  0  0  0  0  0  0  0  0  # atno 10764 bound_to 10752
  154.1327  135.6590  153.4978 H   0  0  0  0  0  0  0  0  0  0  0  0  # atno 10765 bound_to 10752
  141.0912  133.9052  157.2071 H   0  0  0  0  0  0  0  0  0  0  0  0  # atno 11005 bound_to 11000
  144.6812  139.9859  143.7484 LP  0  0  0  0  0  0  0  0  0  0  0  0  # atno 17320 bound_to 7965
  146.0167  139.3215  143.0838 LP  0  0  0  0  0  0  0  0  0  0  0  0  # atno 17321 bound_to 7965
  140.5712  144.0105  150.6218 LP  0  0  0  0  0  0  0  0  0  0  0  0  # atno 17342 bound_to 10162
  140.3223  143.3129  152.0771 LP  0  0  0  0  0  0  0  0  0  0  0  0  # atno 17343 bound_to 10162
  156.9469  130.9762  151.3505 LP  0  0  0  0  0  0  0  0  0  0  0  0  # atno 17370 bound_to 10713
  157.5809  130.8375  149.8521 LP  0  0  0  0  0  0  0  0  0  0  0  0  # atno 17371 bound_to 10713
  139.9738  135.0120  156.9580 LP  0  0  0  0  0  0  0  0  0  0  0  0  # atno 17394 bound_to 11000
  140.5248  134.0872  155.7301 LP  0  0  0  0  0  0  0  0  0  0  0  0  # atno 17395 bound_to 11000

$$$$
