AV-unprocessed.smi:1143|AV-procd|sdf|4875|dock3
  -GOLD-   22720 3443D 1   1.00000     0.00000
 Structure written by MMmdl.
 35 36  0  0  0  0  0  0  0  0  1 V2000
  146.2034  131.3657  148.8717 C   0  0  0  0  0  0  0  0  0  0  0  0
  145.6177  132.3506  149.7850 N   0  0  0  0  0  0  0  0  0  0  0  0
  146.4823  133.0168  150.6753 C   0  0  0  0  0  0  0  0  0  0  0  0
  146.0385  133.9414  151.5549 C   0  0  0  0  0  0  0  0  0  0  0  0
  146.8394  134.6566  152.4563 N   0  0  0  0  0  0  0  0  0  0  0  0
  146.7007  134.8151  153.7895 C   0  0  0  0  0  0  0  0  0  0  0  0
  145.7653  134.3857  154.4614 O   0  0  0  0  0  0  0  0  0  0  0  0
  147.6850  135.5357  154.3581 N   0  0  0  0  0  0  0  0  0  0  0  0
  147.8480  135.8972  155.7684 C   0  0  0  0  0  0  0  0  0  0  0  0
  149.1466  136.6962  155.9514 C   0  0  0  0  0  0  0  0  0  0  0  0
  149.4118  136.9694  157.4411 C   0  0  0  0  0  0  0  0  0  0  0  0
  149.4555  135.7422  158.1617 O   0  0  0  0  0  0  0  0  0  0  0  0
  148.2264  135.0259  158.1137 C   0  0  0  0  0  0  0  0  0  0  0  0
  147.8958  134.6442  156.6617 C   0  0  0  0  0  0  0  0  0  0  0  0
  144.6210  134.2335  151.5390 C   0  0  0  0  0  0  0  0  0  0  0  0
  143.7875  133.6013  150.6904 C   0  0  0  0  0  0  0  0  0  0  0  0
  144.2756  132.5941  149.7456 C   0  0  0  0  0  0  0  0  0  0  0  0
  143.5253  132.0065  148.9660 O   0  0  0  0  0  0  0  0  0  0  0  0
  147.2848  131.2768  148.9798 H   0  0  0  0  0  0  0  0  0  0  0  0
  146.0041  131.6392  147.8344 H   0  0  0  0  0  0  0  0  0  0  0  0
  145.7762  130.3779  149.0505 H   0  0  0  0  0  0  0  0  0  0  0  0
  147.5154  132.7259  150.5722 H   0  0  0  0  0  0  0  0  0  0  0  0
  147.6318  135.1215  152.0381 H   0  0  0  0  0  0  0  0  0  0  0  0
  148.3775  135.9168  153.7294 H   0  0  0  0  0  0  0  0  0  0  0  0
  147.0190  136.5336  156.0841 H   0  0  0  0  0  0  0  0  0  0  0  0
  149.9877  136.1397  155.5353 H   0  0  0  0  0  0  0  0  0  0  0  0
  149.0924  137.6377  155.4037 H   0  0  0  0  0  0  0  0  0  0  0  0
  150.3656  137.4828  157.5628 H   0  0  0  0  0  0  0  0  0  0  0  0
  148.6442  137.6220  157.8600 H   0  0  0  0  0  0  0  0  0  0  0  0
  148.3179  134.1277  158.7245 H   0  0  0  0  0  0  0  0  0  0  0  0
  147.4259  135.6256  158.5495 H   0  0  0  0  0  0  0  0  0  0  0  0
  146.9462  134.1094  156.6282 H   0  0  0  0  0  0  0  0  0  0  0  0
  148.6550  133.9538  156.2912 H   0  0  0  0  0  0  0  0  0  0  0  0
  144.2190  134.9695  152.2201 H   0  0  0  0  0  0  0  0  0  0  0  0
  142.7348  133.8419  150.7057 H   0  0  0  0  0  0  0  0  0  0  0  0
  1  2  1  0  0  0  0
  1 19  1  0  0  0  0
  1 20  1  0  0  0  0
  1 21  1  0  0  0  0
  2 17  1  0  0  0  0
  2  3  1  0  0  0  0
  3  4  2  0  0  0  0
  3 22  1  0  0  0  0
  4  5  1  0  0  0  0
  4 15  1  0  0  0  0
  5  6  1  0  0  0  0
  5 23  1  0  0  0  0
  6  7  2  0  0  0  0
  6  8  1  0  0  0  0
  8  9  1  0  0  0  0
  8 24  1  0  0  0  0
  9 14  1  0  0  0  0
  9 10  1  0  0  0  0
  9 25  1  0  0  0  0
 10 11  1  0  0  0  0
 10 26  1  0  0  0  0
 10 27  1  0  0  0  0
 11 12  1  0  0  0  0
 11 28  1  0  0  0  0
 11 29  1  0  0  0  0
 12 13  1  0  0  0  0
 13 14  1  0  0  0  0
 13 30  1  0  0  0  0
 13 31  1  0  0  0  0
 14 32  1  0  0  0  0
 14 33  1  0  0  0  0
 15 16  2  0  0  0  0
 15 34  1  0  0  0  0
 16 17  1  0  0  0  0
 16 35  1  0  0  0  0
 17 18  2  0  0  0  0
M  END
> <s_m_source_file>
AV-unprocessed.smi

> <i_m_source_file_index>
1143

> <i_lp_mmshare_version>
43012

> <i_f3d_flags>
0

> <s_epik_input>
Tz1jMVtjSF1bY0hdYyhbY0hdbjFbQ0gzXSlbTkhdQyg9TylbTkhdW0NIXTJbQ0gyXVtDSDJdT1tDSDJdW0NIMl0y

> <s_epik_cmdline>
J2VwaWtfcHl0aG9uJywgJy1waCcsICc3LjAnLCAnLXRuJywgJzgnLCAnLW1hJywgJzIwMCcsICctbWV0YWxfYmluZGluZycsICctaW1hZScsICc8aW5maWxlLm1hZT4nLCAnLW9tYWUnLCAnPG91dGZpbGUubWFlPic=

> <r_lp_tautomer_probability>
1

> <r_epik_Ionization_Penalty>
2.54991e-05

> <r_epik_Ionization_Penalty_Charging>
5.93057e-06

> <r_epik_Ionization_Penalty_Neutral>
1.95685e-05

> <r_epik_State_Penalty>
-0

> <r_epik_Charging_Adjusted_Penalty>
5.93057e-06

> <i_epik_Tot_Q>
0

> <i_epik_Tot_abs_Q>
0

> <r_epik_Metal_State_Penalty>
-0

> <b_epik_Metal_Only>
0

> <s_lp_Force_Field>
OPLS_2005

> <r_lp_Energy>
32.4408

> <b_lp_Chiralities_Consistent>
1

> <s_lp_Variant>
AV-unprocessed.smi:1143-1

> <Gold.Version>
5.8.1

> <Gold.Id.Protein>
6NUR|6NUR_protein|mol2

> <Gold.PLP.Fitness>
38.8615

> <Gold.PLP.PLP>
-25.2968

> <Gold.PLP.part.hbond>
-4.0000

> <Gold.PLP.part.metal>
0.0000

> <Gold.PLP.part.buried>
-1.9751

> <Gold.PLP.part.nonpolar>
-18.5622

> <Gold.PLP.part.repulsive>
0.3581

> <Gold.PLP.ligand.clash>
0.0000

> <Gold.PLP.ligand.torsion>
0.4782

> <Gold.PLP.Chemscore.Hbond>
3.8400

> <Gold.PLP.Chemscore.CHOScore>
1.0000

> <Gold.PLP.Chemscore.Metal>
0.0000

> <Gold.Chemscore.Hbonds>
donor molecule, donor type, donor heavy atom, donor atom, acceptor molecule, acceptor atom, score
      L1  H     5    23       P1  7948  1.00
      L1  H     8    24       P1  7948  0.96
      P1  H  6896  6909       L1    12  0.62
      P1  H 10785 10796       L1    18  0.86
      L1  C     3    22       P1 10747  1.00

> <Gold.PLP.Chemscore.Internal.Correction>
0.0011

> <Gold.Rescore>
     Score         DG    S(hbond)    S(metal)    S(lipo)     H(rot)  DE(clash)    DE(int)     intcor
     19.17     -19.74       3.33        0.00      48.76       1.00       0.07       0.49       ----

> <Gold.Chemscore.Fitness>
19.1745

> <Gold.Chemscore.DG>
-19.7388

> <Gold.Chemscore.ZeroCoef>
-5.4800

> <Gold.Chemscore.Hbond>
3.3274

> <Gold.Chemscore.Metal>
0.0000

> <Gold.Chemscore.Lipo>
48.7634

> <Gold.Chemscore.Internal_Hbond>
0.0000

> <Gold.Chemscore.DEClash>
0.0727

> <Gold.Chemscore.DEInternal>
0.4916

> <Gold.Chemscore.Rot>
1.0000

> <Gold.Chemscore.Internal.Correction>
   9.000000E+99

> <Gold.Chemscore.Hbonds>
donor molecule, donor type, donor heavy atom, donor atom, acceptor molecule, acceptor atom, score
      L1  H     5    23       P1  7948  0.92
      L1  H     8    24       P1  7948  0.91
      P1  H  6896  6909       L1    12  0.24
      P1  H 10785 10796       L1    18  0.86

> <Gold.Chemscore.Hbond.Weighted>
-11.1135

> <Gold.Chemscore.Metal.Weighted>
-0.0000

> <Gold.Chemscore.Lipo.Weighted>
-5.7053

> <Gold.Chemscore.Internal_Hbond.Weighted>
0.0000

> <Gold.Chemscore.DEClash.Weighted>
0.0727

> <Gold.Chemscore.DEInternal.Weighted>
0.4916

> <Gold.Chemscore.Rot.Weighted>
2.5600

> <Gold.Chemscore.Internal.Correction.Weighted>
   9.000000E+99

> <Gold.Protein.RotatedTorsions>
[ 6907 6896 6895 6894 ] final   45.44 input  -60.11 | X-H torsion
[ 7974 7965 7964 7962 ] final   89.07 input  175.53 | X-H torsion
[ 8008 7997 7996 7995 ] final  -30.44 input   59.86 | X-H torsion
[ 10167 10162 10161 10158 ] final  179.50 input  -65.29 | X-H torsion
[ 10718 10713 10712 10709 ] final  -78.51 input   66.30 | X-H torsion
[ 10763 10752 10751 10750 ] final -172.48 input  -60.55 | X-H torsion
[ 11005 11000 10999 10996 ] final -143.03 input  -57.11 | X-H torsion

> <Gold.Protein.ActiveResidues>
 VAL166  LYS551  ARG553  GLY616  TRP617  ASP618  TYR619  PRO620  LYS621  CYS622 
 ASP623  PHE694  ASN695  SER759  ASP760  ASP761  ALA762  ILE779  LEU786  VAL792 
 PHE793  MET794  SER795  GLU796  ALA797  LYS798  CYS799  TRP800  GLU811  SER814 

> <Gold.Protein.RotatedAtoms>
  152.2445  134.8195  160.0455 H   0  0  0  0  0  0  0  0  0  0  0  0  # atno 6907 bound_to 6896
  151.8897  133.3508  159.3802 H   0  0  0  0  0  0  0  0  0  0  0  0  # atno 6908 bound_to 6896
  150.7064  134.4862  159.5538 H   0  0  0  0  0  0  0  0  0  0  0  0  # atno 6909 bound_to 6896
  145.5373  139.2286  143.2585 H   0  0  0  0  0  0  0  0  0  0  0  0  # atno 7974 bound_to 7965
  154.4250  140.1791  156.1407 H   0  0  0  0  0  0  0  0  0  0  0  0  # atno 8008 bound_to 7997
  155.9994  140.3361  155.6805 H   0  0  0  0  0  0  0  0  0  0  0  0  # atno 8009 bound_to 7997
  155.6264  140.0665  157.2653 H   0  0  0  0  0  0  0  0  0  0  0  0  # atno 8010 bound_to 7997
  139.5339  144.2554  152.0751 H   0  0  0  0  0  0  0  0  0  0  0  0  # atno 10167 bound_to 10162
  156.0116  130.4520  150.3507 H   0  0  0  0  0  0  0  0  0  0  0  0  # atno 10718 bound_to 10713
  154.6188  135.2873  155.0350 H   0  0  0  0  0  0  0  0  0  0  0  0  # atno 10763 bound_to 10752
  154.1552  135.6497  153.4977 H   0  0  0  0  0  0  0  0  0  0  0  0  # atno 10764 bound_to 10752
  153.0226  135.5365  154.6969 H   0  0  0  0  0  0  0  0  0  0  0  0  # atno 10765 bound_to 10752
  140.8166  134.2681  157.4918 H   0  0  0  0  0  0  0  0  0  0  0  0  # atno 11005 bound_to 11000
  146.2005  140.6191  142.9105 LP  0  0  0  0  0  0  0  0  0  0  0  0  # atno 17320 bound_to 7965
  144.7595  140.5388  143.6745 LP  0  0  0  0  0  0  0  0  0  0  0  0  # atno 17321 bound_to 7965
  140.2021  144.4647  150.6426 LP  0  0  0  0  0  0  0  0  0  0  0  0  # atno 17342 bound_to 10162
  140.6534  143.2231  151.6025 LP  0  0  0  0  0  0  0  0  0  0  0  0  # atno 17343 bound_to 10162
  157.1599  131.0342  151.2845 LP  0  0  0  0  0  0  0  0  0  0  0  0  # atno 17370 bound_to 10713
  157.4320  130.7496  149.6998 LP  0  0  0  0  0  0  0  0  0  0  0  0  # atno 17371 bound_to 10713
  139.8711  134.9512  156.4079 LP  0  0  0  0  0  0  0  0  0  0  0  0  # atno 17394 bound_to 11000
  140.9142  133.7690  155.9829 LP  0  0  0  0  0  0  0  0  0  0  0  0  # atno 17395 bound_to 11000

$$$$
