AV-unprocessed.smi:2354|AV-procd|sdf|9384|dock10
  -GOLD-   2272013 13D 1   1.00000     0.00000
 Structure written by MMmdl.
 44 45  0  0  0  0  0  0  0  0  2 V2000
  144.4460  143.4372  154.2078 C   0  0  0  0  0  0  0  0  0  0  0  0
  145.1062  142.1522  154.5277 N   0  3  0  0  0  0  0  0  0  0  0  0
  144.5783  141.5661  155.7807 C   0  0  0  0  0  0  0  0  0  0  0  0
  146.5909  142.2468  154.4992 C   0  0  0  0  0  0  0  0  0  0  0  0
  147.2787  140.9391  154.0202 C   0  0  0  0  0  0  0  0  0  0  0  0
  148.8319  141.0496  154.0790 C   0  0  0  0  0  0  0  0  0  0  0  0
  149.3138  142.0159  155.0649 N   0  0  0  0  0  0  0  0  0  0  0  0
  150.2217  141.7673  156.0201 C   0  0  0  0  0  0  0  0  0  0  0  0
  150.7454  140.6664  156.1900 O   0  0  0  0  0  0  0  0  0  0  0  0
  150.4581  142.8628  156.7622 N   0  0  0  0  0  0  0  0  0  0  0  0
  151.2993  142.9896  157.8988 C   0  0  0  0  0  0  0  0  0  0  0  0
  151.9523  141.8606  158.4528 C   0  0  0  0  0  0  0  0  0  0  0  0
  152.7916  142.0579  159.5624 C   0  0  0  0  0  0  0  0  0  0  0  0
  152.9321  143.3720  160.0394 C   0  0  0  0  0  0  0  0  0  0  0  0
  152.3028  144.4208  159.4675 N   0  0  0  0  0  0  0  0  0  0  0  0
  151.5069  144.2272  158.4105 N   0  0  0  0  0  0  0  0  0  0  0  0
  146.7663  139.7389  154.8427 C   0  0  0  0  0  0  0  0  0  0  0  0
  146.9920  138.4977  153.9739 C   0  0  0  0  0  0  0  0  0  0  0  0
  147.0048  139.0011  152.5255 C   0  0  0  0  0  0  0  0  0  0  0  0
  146.8331  140.5235  152.6051 C   0  0  0  0  0  0  0  0  0  0  0  0
  144.6813  144.1948  154.9564 H   0  0  0  0  0  0  0  0  0  0  0  0
  143.3629  143.3161  154.1713 H   0  0  0  0  0  0  0  0  0  0  0  0
  144.7685  143.8044  153.2331 H   0  0  0  0  0  0  0  0  0  0  0  0
  144.8050  142.2044  156.6358 H   0  0  0  0  0  0  0  0  0  0  0  0
  145.0017  140.5807  155.9697 H   0  0  0  0  0  0  0  0  0  0  0  0
  143.4955  141.4496  155.7230 H   0  0  0  0  0  0  0  0  0  0  0  0
  146.8946  143.0562  153.8333 H   0  0  0  0  0  0  0  0  0  0  0  0
  146.9617  142.5432  155.4821 H   0  0  0  0  0  0  0  0  0  0  0  0
  149.2850  140.0730  154.2551 H   0  0  0  0  0  0  0  0  0  0  0  0
  149.2176  141.3648  153.1093 H   0  0  0  0  0  0  0  0  0  0  0  0
  148.9390  142.9513  155.0059 H   0  0  0  0  0  0  0  0  0  0  0  0
  149.8860  143.6694  156.5607 H   0  0  0  0  0  0  0  0  0  0  0  0
  151.8364  140.8680  158.0449 H   0  0  0  0  0  0  0  0  0  0  0  0
  153.3117  141.2334  160.0273 H   0  0  0  0  0  0  0  0  0  0  0  0
  153.5641  143.5880  160.8878 H   0  0  0  0  0  0  0  0  0  0  0  0
  147.2276  139.6477  155.8253 H   0  0  0  0  0  0  0  0  0  0  0  0
  145.6940  139.8442  155.0157 H   0  0  0  0  0  0  0  0  0  0  0  0
  147.9521  138.0397  154.2159 H   0  0  0  0  0  0  0  0  0  0  0  0
  146.2205  137.7452  154.1413 H   0  0  0  0  0  0  0  0  0  0  0  0
  147.9554  138.7488  152.0538 H   0  0  0  0  0  0  0  0  0  0  0  0
  146.2147  138.5440  151.9286 H   0  0  0  0  0  0  0  0  0  0  0  0
  145.7757  140.7541  152.4680 H   0  0  0  0  0  0  0  0  0  0  0  0
  147.3805  141.0411  151.8163 H   0  0  0  0  0  0  0  0  0  0  0  0
  144.8508  141.5200  153.7825 H   0  0  0  0  0  0  0  0  0  0  0  0
  1  2  1  0  0  0  0
  1 21  1  0  0  0  0
  1 22  1  0  0  0  0
  1 23  1  0  0  0  0
  2  3  1  0  0  0  0
  2  4  1  0  0  0  0
  2 44  1  0  0  0  0
  3 24  1  0  0  0  0
  3 25  1  0  0  0  0
  3 26  1  0  0  0  0
  4  5  1  0  0  0  0
  4 27  1  0  0  0  0
  4 28  1  0  0  0  0
  5 20  1  0  0  0  0
  5  6  1  0  0  0  0
  5 17  1  0  0  0  0
  6  7  1  0  0  0  0
  6 29  1  0  0  0  0
  6 30  1  0  0  0  0
  7  8  1  0  0  0  0
  7 31  1  0  0  0  0
  8  9  2  0  0  0  0
  8 10  1  0  0  0  0
 10 11  1  0  0  0  0
 10 32  1  0  0  0  0
 11 16  1  0  0  0  0
 11 12  2  0  0  0  0
 12 13  1  0  0  0  0
 12 33  1  0  0  0  0
 13 14  2  0  0  0  0
 13 34  1  0  0  0  0
 14 15  1  0  0  0  0
 14 35  1  0  0  0  0
 15 16  2  0  0  0  0
 17 18  1  0  0  0  0
 17 36  1  0  0  0  0
 17 37  1  0  0  0  0
 18 19  1  0  0  0  0
 18 38  1  0  0  0  0
 18 39  1  0  0  0  0
 19 20  1  0  0  0  0
 19 40  1  0  0  0  0
 19 41  1  0  0  0  0
 20 42  1  0  0  0  0
 20 43  1  0  0  0  0
M  CHG  1   2   1
M  END
> <s_m_source_file>
AV-unprocessed.smi

> <i_m_source_file_index>
2354

> <i_lp_mmshare_version>
43012

> <i_f3d_flags>
0

> <s_epik_input>
W0NIMl0xW0NIMl1bQ0gyXVtDSDJdQzEoW0NIMl1OKFtDSDNdKVtDSDNdKVtDSDJdW05IXUMoPU8pW05IXWMyW2NIXVtjSF1bY0hdbm4y

> <s_epik_cmdline>
J2VwaWtfcHl0aG9uJywgJy1waCcsICc3LjAnLCAnLXRuJywgJzgnLCAnLW1hJywgJzIwMCcsICctbWV0YWxfYmluZGluZycsICctaW1hZScsICc8aW5maWxlLm1hZT4nLCAnLW9tYWUnLCAnPG91dGZpbGUubWFlPic=

> <r_lp_tautomer_probability>
1

> <r_epik_Ionization_Penalty>
0.0045793

> <r_epik_Ionization_Penalty_Charging>
0.000516438

> <r_epik_Ionization_Penalty_Neutral>
0.00406287

> <r_epik_State_Penalty>
-0

> <r_epik_Charging_Adjusted_Penalty>
0.000516438

> <i_epik_Tot_Q>
1

> <i_epik_Tot_abs_Q>
1

> <r_epik_Metal_State_Penalty>
-0

> <b_epik_Metal_Only>
0

> <s_lp_Force_Field>
OPLS_2005

> <r_lp_Energy>
45.7912

> <b_lp_Chiralities_Consistent>
1

> <s_lp_Variant>
AV-unprocessed.smi:2354-1

> <Gold.Version>
5.8.1

> <Gold.Id.Protein>
6NUR|6NUR_protein|mol2

> <Gold.PLP.Fitness>
43.6879

> <Gold.PLP.PLP>
-33.5865

> <Gold.PLP.part.hbond>
-3.0000

> <Gold.PLP.part.metal>
0.0000

> <Gold.PLP.part.buried>
-2.5004

> <Gold.PLP.part.nonpolar>
-29.5323

> <Gold.PLP.part.repulsive>
0.3700

> <Gold.PLP.ligand.clash>
0.0000

> <Gold.PLP.ligand.torsion>
1.0827

> <Gold.PLP.Chemscore.Hbond>
3.9500

> <Gold.PLP.Chemscore.CHOScore>
0.0000

> <Gold.PLP.Chemscore.Metal>
0.0000

> <Gold.Chemscore.Hbonds>
donor molecule, donor type, donor heavy atom, donor atom, acceptor molecule, acceptor atom, score
      L1  H     2    44       P1 10175  1.80
      L1  H     7    31       P1  8028  1.00
      L1  H    10    32       P1  8028  1.00

> <Gold.PLP.Chemscore.Internal.Correction>
0.4168

> <Gold.Rescore>
     Score         DG    S(hbond)    S(metal)    S(lipo)     H(rot)  DE(clash)    DE(int)     intcor
     13.73     -17.33       2.06        0.00      82.19       1.81       0.16       3.44       ----

> <Gold.Chemscore.Fitness>
13.7334

> <Gold.Chemscore.DG>
-17.3330

> <Gold.Chemscore.ZeroCoef>
-5.4800

> <Gold.Chemscore.Hbond>
2.0555

> <Gold.Chemscore.Metal>
0.0000

> <Gold.Chemscore.Lipo>
82.1909

> <Gold.Chemscore.Internal_Hbond>
0.0000

> <Gold.Chemscore.DEClash>
0.1626

> <Gold.Chemscore.DEInternal>
3.4370

> <Gold.Chemscore.Rot>
1.8080

> <Gold.Chemscore.Internal.Correction>
   9.000000E+99

> <Gold.Chemscore.Hbonds>
donor molecule, donor type, donor heavy atom, donor atom, acceptor molecule, acceptor atom, score
      L1  H     2    44       P1 10175  0.17
      L1  H     7    31       P1  8028  0.94
      L1  H    10    32       P1  8028  0.99

> <Gold.Chemscore.Hbond.Weighted>
-6.8652

> <Gold.Chemscore.Metal.Weighted>
-0.0000

> <Gold.Chemscore.Lipo.Weighted>
-9.6163

> <Gold.Chemscore.Internal_Hbond.Weighted>
0.0000

> <Gold.Chemscore.DEClash.Weighted>
0.1626

> <Gold.Chemscore.DEInternal.Weighted>
3.4370

> <Gold.Chemscore.Rot.Weighted>
4.6286

> <Gold.Chemscore.Internal.Correction.Weighted>
   9.000000E+99

> <Gold.Protein.RotatedTorsions>
[ 6907 6896 6895 6894 ] final -127.19 input  -60.11 | X-H torsion
[ 7974 7965 7964 7962 ] final -116.54 input  175.53 | X-H torsion
[ 8008 7997 7996 7995 ] final  109.87 input   59.86 | X-H torsion
[ 10167 10162 10161 10158 ] final   86.74 input  -65.29 | X-H torsion
[ 10718 10713 10712 10709 ] final  -81.62 input   66.30 | X-H torsion
[ 10763 10752 10751 10750 ] final  119.38 input  -60.55 | X-H torsion
[ 11005 11000 10999 10996 ] final  -80.59 input  -57.11 | X-H torsion

> <Gold.Protein.ActiveResidues>
 VAL166  LYS551  ARG553  GLY616  TRP617  ASP618  TYR619  PRO620  LYS621  CYS622 
 ASP623  PHE694  ASN695  SER759  ASP760  ASP761  ALA762  ILE779  LEU786  VAL792 
 PHE793  MET794  SER795  GLU796  ALA797  LYS798  CYS799  TRP800  GLU811  SER814 

> <Gold.Protein.RotatedAtoms>
  150.9047  133.7073  159.2869 H   0  0  0  0  0  0  0  0  0  0  0  0  # atno 6907 bound_to 6896
  151.4580  135.1034  159.9726 H   0  0  0  0  0  0  0  0  0  0  0  0  # atno 6908 bound_to 6896
  152.4897  133.8417  159.7211 H   0  0  0  0  0  0  0  0  0  0  0  0  # atno 6909 bound_to 6896
  145.0955  140.8518  143.3957 H   0  0  0  0  0  0  0  0  0  0  0  0  # atno 7974 bound_to 7965
  156.2011  140.3049  155.9529 H   0  0  0  0  0  0  0  0  0  0  0  0  # atno 8008 bound_to 7997
  155.2951  140.0444  157.3043 H   0  0  0  0  0  0  0  0  0  0  0  0  # atno 8009 bound_to 7997
  154.5572  140.2309  155.8400 H   0  0  0  0  0  0  0  0  0  0  0  0  # atno 8010 bound_to 7997
  139.8845  144.6421  150.8807 H   0  0  0  0  0  0  0  0  0  0  0  0  # atno 10167 bound_to 10162
  156.0047  130.4609  150.3981 H   0  0  0  0  0  0  0  0  0  0  0  0  # atno 10718 bound_to 10713
  153.5821  135.3482  155.2879 H   0  0  0  0  0  0  0  0  0  0  0  0  # atno 10763 bound_to 10752
  154.8666  135.4184  154.2609 H   0  0  0  0  0  0  0  0  0  0  0  0  # atno 10764 bound_to 10752
  153.3397  135.7049  153.6948 H   0  0  0  0  0  0  0  0  0  0  0  0  # atno 10765 bound_to 10752
  141.1668  133.7157  156.8296 H   0  0  0  0  0  0  0  0  0  0  0  0  # atno 11005 bound_to 11000
  145.1015  139.2819  143.5683 LP  0  0  0  0  0  0  0  0  0  0  0  0  # atno 17320 bound_to 7965
  146.3531  140.0584  142.8631 LP  0  0  0  0  0  0  0  0  0  0  0  0  # atno 17321 bound_to 7965
  140.7738  143.3559  151.1922 LP  0  0  0  0  0  0  0  0  0  0  0  0  # atno 17342 bound_to 10162
  139.7166  143.9291  152.2969 LP  0  0  0  0  0  0  0  0  0  0  0  0  # atno 17343 bound_to 10162
  157.2051  131.0447  151.2629 LP  0  0  0  0  0  0  0  0  0  0  0  0  # atno 17370 bound_to 10713
  157.3940  130.7297  149.6718 LP  0  0  0  0  0  0  0  0  0  0  0  0  # atno 17371 bound_to 10713
  140.2061  134.8862  157.3223 LP  0  0  0  0  0  0  0  0  0  0  0  0  # atno 17394 bound_to 11000
  140.2136  134.4109  155.7600 LP  0  0  0  0  0  0  0  0  0  0  0  0  # atno 17395 bound_to 11000

$$$$
