AV-unprocessed.smi:646|AV-procd|sdf|3168|dock4
  -GOLD-   22720 0 93D 1   1.00000     0.00000
 Structure written by MMmdl.
 44 45  0  0  0  0  0  0  0  0  1 V2000
  145.5054  137.2087  161.5513 C   0  0  0  0  0  0  0  0  0  0  0  0
  146.8138  137.2258  160.9954 O   0  0  0  0  0  0  0  0  0  0  0  0
  147.4620  135.9602  160.8607 C   0  0  2  0  0  0  0  0  0  0  0  0
  147.4976  135.2410  162.2183 C   0  0  0  0  0  0  0  0  0  0  0  0
  148.7752  136.0588  160.0627 C   0  0  0  0  0  0  0  0  0  0  0  0
  148.3259  134.7925  159.3369 C   0  0  2  0  0  0  0  0  0  0  0  0
  148.6899  134.7955  157.9255 N   0  0  0  0  0  0  0  0  0  0  0  0
  149.3534  133.8055  157.3104 C   0  0  0  0  0  0  0  0  0  0  0  0
  149.7966  132.8185  157.8967 O   0  0  0  0  0  0  0  0  0  0  0  0
  149.5193  133.9374  155.7968 C   0  0  0  0  0  0  0  0  0  0  0  0
  149.4753  132.5685  155.1656 C   0  0  0  0  0  0  0  0  0  0  0  0
  148.5824  132.0946  154.1618 C   0  0  0  0  0  0  0  0  0  0  0  0
  147.4640  132.8327  153.4839 C   0  0  0  0  0  0  0  0  0  0  0  0
  148.8396  130.8424  153.8230 N   0  0  0  0  0  0  0  0  0  0  0  0
  149.9262  130.4482  154.6096 O   0  0  0  0  0  0  0  0  0  0  0  0
  150.2869  131.4924  155.3979 C   0  0  0  0  0  0  0  0  0  0  0  0
  151.4439  131.2716  156.3122 C   0  0  0  0  0  0  0  0  0  0  0  0
  146.8615  135.2134  159.6254 C   0  0  0  0  0  0  0  0  0  0  0  0
  145.8828  134.0716  159.9171 C   0  0  0  0  0  0  0  0  0  0  0  0
  146.1708  136.0980  158.5661 C   0  0  0  0  0  0  0  0  0  0  0  0
  145.1651  138.2346  161.6905 H   0  0  0  0  0  0  0  0  0  0  0  0
  145.4808  136.7191  162.5249 H   0  0  0  0  0  0  0  0  0  0  0  0
  144.7895  136.7181  160.8927 H   0  0  0  0  0  0  0  0  0  0  0  0
  147.8617  134.2179  162.1264 H   0  0  0  0  0  0  0  0  0  0  0  0
  146.5057  135.1950  162.6682 H   0  0  0  0  0  0  0  0  0  0  0  0
  148.1601  135.7390  162.9254 H   0  0  0  0  0  0  0  0  0  0  0  0
  148.8325  136.9378  159.4179 H   0  0  0  0  0  0  0  0  0  0  0  0
  149.6814  135.9412  160.6575 H   0  0  0  0  0  0  0  0  0  0  0  0
  148.6268  133.8882  159.8710 H   0  0  0  0  0  0  0  0  0  0  0  0
  148.3608  135.5695  157.3670 H   0  0  0  0  0  0  0  0  0  0  0  0
  148.7322  134.5855  155.4105 H   0  0  0  0  0  0  0  0  0  0  0  0
  150.4617  134.4418  155.5803 H   0  0  0  0  0  0  0  0  0  0  0  0
  146.8933  133.4218  154.2018 H   0  0  0  0  0  0  0  0  0  0  0  0
  146.7702  132.1503  152.9917 H   0  0  0  0  0  0  0  0  0  0  0  0
  147.8526  133.5164  152.7288 H   0  0  0  0  0  0  0  0  0  0  0  0
  152.0027  132.1953  156.4628 H   0  0  0  0  0  0  0  0  0  0  0  0
  152.1288  130.5282  155.9035 H   0  0  0  0  0  0  0  0  0  0  0  0
  151.1024  130.9195  157.2857 H   0  0  0  0  0  0  0  0  0  0  0  0
  145.5786  133.5605  159.0030 H   0  0  0  0  0  0  0  0  0  0  0  0
  144.9797  134.4374  160.4067 H   0  0  0  0  0  0  0  0  0  0  0  0
  146.3206  133.3140  160.5664 H   0  0  0  0  0  0  0  0  0  0  0  0
  145.9447  135.5385  157.6579 H   0  0  0  0  0  0  0  0  0  0  0  0
  146.7854  136.9481  158.2701 H   0  0  0  0  0  0  0  0  0  0  0  0
  145.2279  136.5006  158.9373 H   0  0  0  0  0  0  0  0  0  0  0  0
  1  2  1  0  0  0  0
  1 21  1  0  0  0  0
  1 22  1  0  0  0  0
  1 23  1  0  0  0  0
  2  3  1  0  0  0  0
  3 18  1  0  0  0  0
  3  4  1  0  0  0  0
  3  5  1  0  0  0  0
  4 24  1  0  0  0  0
  4 25  1  0  0  0  0
  4 26  1  0  0  0  0
  5  6  1  0  0  0  0
  5 27  1  0  0  0  0
  5 28  1  0  0  0  0
  6  7  1  0  0  0  0
  6 18  1  0  0  0  0
  6 29  1  0  0  0  0
  7  8  1  0  0  0  0
  7 30  1  0  0  0  0
  8  9  2  0  0  0  0
  8 10  1  0  0  0  0
 10 11  1  0  0  0  0
 10 31  1  0  0  0  0
 10 32  1  0  0  0  0
 11 16  2  0  0  0  0
 11 12  1  0  0  0  0
 12 13  1  0  0  0  0
 12 14  2  0  0  0  0
 13 33  1  0  0  0  0
 13 34  1  0  0  0  0
 13 35  1  0  0  0  0
 14 15  1  0  0  0  0
 15 16  1  0  0  0  0
 16 17  1  0  0  0  0
 17 36  1  0  0  0  0
 17 37  1  0  0  0  0
 17 38  1  0  0  0  0
 18 19  1  0  0  0  0
 18 20  1  0  0  0  0
 19 39  1  0  0  0  0
 19 40  1  0  0  0  0
 19 41  1  0  0  0  0
 20 42  1  0  0  0  0
 20 43  1  0  0  0  0
 20 44  1  0  0  0  0
M  END
> <s_m_source_file>
AV-unprocessed.smi

> <i_m_source_file_index>
646

> <i_lp_mmshare_version>
43012

> <i_f3d_flags>
0

> <s_epik_input>
W0NIM11PW0NAQF0xKFtDSDNdKVtDSDJdW0NASF0oQzEoW0NIM10pW0NIM10pW05IXUMoPU8pW0NIMl1jMmMoW0NIM10pbm9jMltDSDNd

> <s_epik_cmdline>
J2VwaWtfcHl0aG9uJywgJy1waCcsICc3LjAnLCAnLXRuJywgJzgnLCAnLW1hJywgJzIwMCcsICctbWV0YWxfYmluZGluZycsICctaW1hZScsICc8aW5maWxlLm1hZT4nLCAnLW9tYWUnLCAnPG91dGZpbGUubWFlPic=

> <r_lp_tautomer_probability>
1

> <r_epik_Ionization_Penalty>
2.13169e-08

> <r_epik_Ionization_Penalty_Charging>
0

> <r_epik_Ionization_Penalty_Neutral>
2.13169e-08

> <r_epik_State_Penalty>
-0

> <r_epik_Charging_Adjusted_Penalty>
0

> <i_epik_Tot_Q>
0

> <i_epik_Tot_abs_Q>
0

> <r_epik_Metal_State_Penalty>
-0

> <b_epik_Metal_Only>
0

> <s_lp_Force_Field>
OPLS_2005

> <r_lp_Energy>
15.4726

> <b_lp_Chiralities_Consistent>
1

> <s_lp_Variant>
AV-unprocessed.smi:646-4

> <Gold.Version>
5.8.1

> <Gold.Id.Protein>
6NUR|6NUR_protein|mol2

> <Gold.PLP.Fitness>
32.5737

> <Gold.PLP.PLP>
-27.3298

> <Gold.PLP.part.hbond>
-2.0000

> <Gold.PLP.part.metal>
0.0000

> <Gold.PLP.part.buried>
-3.9866

> <Gold.PLP.part.nonpolar>
-21.7840

> <Gold.PLP.part.repulsive>
0.2129

> <Gold.PLP.ligand.clash>
0.0000

> <Gold.PLP.ligand.torsion>
0.5689

> <Gold.PLP.Chemscore.Hbond>
2.0000

> <Gold.PLP.Chemscore.CHOScore>
0.0000

> <Gold.PLP.Chemscore.Metal>
0.0000

> <Gold.Chemscore.Hbonds>
donor molecule, donor type, donor heavy atom, donor atom, acceptor molecule, acceptor atom, score
      P1  H  6896  6909       L1     9  1.00
      P1  H  6934  6947       L1     2  1.00

> <Gold.PLP.Chemscore.Internal.Correction>
0.3816

> <Gold.Rescore>
     Score         DG    S(hbond)    S(metal)    S(lipo)     H(rot)  DE(clash)    DE(int)     intcor
     14.98     -15.40       1.93        0.00      62.22       1.49       0.00       0.42       ----

> <Gold.Chemscore.Fitness>
14.9763

> <Gold.Chemscore.DG>
-15.3984

> <Gold.Chemscore.ZeroCoef>
-5.4800

> <Gold.Chemscore.Hbond>
1.9343

> <Gold.Chemscore.Metal>
0.0000

> <Gold.Chemscore.Lipo>
62.2174

> <Gold.Chemscore.Internal_Hbond>
0.0000

> <Gold.Chemscore.DEClash>
0.0015

> <Gold.Chemscore.DEInternal>
0.4207

> <Gold.Chemscore.Rot>
1.4928

> <Gold.Chemscore.Internal.Correction>
   9.000000E+99

> <Gold.Chemscore.Hbonds>
donor molecule, donor type, donor heavy atom, donor atom, acceptor molecule, acceptor atom, score
      P1  H  6896  6909       L1     9  0.40
      P1  H  6934  6947       L1     2  0.35

> <Gold.Chemscore.Hbond.Weighted>
-6.4606

> <Gold.Chemscore.Metal.Weighted>
-0.0000

> <Gold.Chemscore.Lipo.Weighted>
-7.2794

> <Gold.Chemscore.Internal_Hbond.Weighted>
0.0000

> <Gold.Chemscore.DEClash.Weighted>
0.0015

> <Gold.Chemscore.DEInternal.Weighted>
0.4207

> <Gold.Chemscore.Rot.Weighted>
3.8217

> <Gold.Chemscore.Internal.Correction.Weighted>
   9.000000E+99

> <Gold.Protein.RotatedTorsions>
[ 6907 6896 6895 6894 ] final  -13.93 input  -60.11 | X-H torsion
[ 7974 7965 7964 7962 ] final  -96.56 input  175.53 | X-H torsion
[ 8008 7997 7996 7995 ] final  -86.37 input   59.86 | X-H torsion
[ 10167 10162 10161 10158 ] final   51.76 input  -65.29 | X-H torsion
[ 10718 10713 10712 10709 ] final -149.12 input   66.30 | X-H torsion
[ 10763 10752 10751 10750 ] final  -70.28 input  -60.55 | X-H torsion
[ 11005 11000 10999 10996 ] final  -51.66 input  -57.11 | X-H torsion

> <Gold.Protein.ActiveResidues>
 VAL166  LYS551  ARG553  GLY616  TRP617  ASP618  TYR619  PRO620  LYS621  CYS622 
 ASP623  PHE694  ASN695  SER759  ASP760  ASP761  ALA762  ILE779  LEU786  VAL792 
 PHE793  MET794  SER795  GLU796  ALA797  LYS798  CYS799  TRP800  GLU811  SER814 

> <Gold.Protein.RotatedAtoms>
  151.3473  135.0877  159.9391 H   0  0  0  0  0  0  0  0  0  0  0  0  # atno 6907 bound_to 6896
  152.5196  133.9387  159.7626 H   0  0  0  0  0  0  0  0  0  0  0  0  # atno 6908 bound_to 6896
  150.9756  133.6245  159.2760 H   0  0  0  0  0  0  0  0  0  0  0  0  # atno 6909 bound_to 6896
  145.3452  140.9467  143.2585 H   0  0  0  0  0  0  0  0  0  0  0  0  # atno 7974 bound_to 7965
  154.6512  140.0579  156.9957 H   0  0  0  0  0  0  0  0  0  0  0  0  # atno 8008 bound_to 7997
  155.1369  140.3262  155.4442 H   0  0  0  0  0  0  0  0  0  0  0  0  # atno 8009 bound_to 7997
  156.2577  140.1971  156.6486 H   0  0  0  0  0  0  0  0  0  0  0  0  # atno 8010 bound_to 7997
  140.2585  144.3399  150.6325 H   0  0  0  0  0  0  0  0  0  0  0  0  # atno 10167 bound_to 10162
  156.4290  130.8066  151.2292 H   0  0  0  0  0  0  0  0  0  0  0  0  # atno 10718 bound_to 10713
  154.4154  135.5999  153.5978 H   0  0  0  0  0  0  0  0  0  0  0  0  # atno 10763 bound_to 10752
  152.9792  135.5939  154.4019 H   0  0  0  0  0  0  0  0  0  0  0  0  # atno 10764 bound_to 10752
  154.3837  135.2841  155.2174 H   0  0  0  0  0  0  0  0  0  0  0  0  # atno 10765 bound_to 10752
  141.0883  133.6638  156.3910 H   0  0  0  0  0  0  0  0  0  0  0  0  # atno 11005 bound_to 11000
  144.8760  139.4971  143.6745 LP  0  0  0  0  0  0  0  0  0  0  0  0  # atno 17320 bound_to 7965
  146.2991  139.7369  142.9105 LP  0  0  0  0  0  0  0  0  0  0  0  0  # atno 17321 bound_to 7965
  140.5984  143.2167  151.7119 LP  0  0  0  0  0  0  0  0  0  0  0  0  # atno 17342 bound_to 10162
  139.5024  144.3831  152.0356 LP  0  0  0  0  0  0  0  0  0  0  0  0  # atno 17343 bound_to 10162
  157.7508  131.0204  150.3707 LP  0  0  0  0  0  0  0  0  0  0  0  0  # atno 17370 bound_to 10713
  156.4041  130.3921  149.6939 LP  0  0  0  0  0  0  0  0  0  0  0  0  # atno 17371 bound_to 10713
  140.5311  134.6211  157.5350 LP  0  0  0  0  0  0  0  0  0  0  0  0  # atno 17394 bound_to 11000
  139.9705  134.7301  156.0052 LP  0  0  0  0  0  0  0  0  0  0  0  0  # atno 17395 bound_to 11000

$$$$
