AV-unprocessed.smi:381|AV-procd|sdf|2462|dock4
  -GOLD-   2262022403D 1   1.00000     0.00000
 Structure written by MMmdl.
 46 47  0  0  0  0  0  0  0  0  2 V2000
  150.7576  140.7859  155.3077 O   0  0  0  0  0  0  0  0  0  0  0  0
  150.0188  141.7527  155.4845 C   0  0  0  0  0  0  0  0  0  0  0  0
  148.8381  141.9002  154.8622 N   0  0  0  0  0  0  0  0  0  0  0  0
  148.2796  140.9381  153.9230 C   0  0  0  0  0  0  0  0  0  0  0  0
  147.2365  140.0480  154.6114 C   0  0  0  0  0  0  0  0  0  0  0  0
  146.6440  139.0264  153.6601 C   0  0  0  0  0  0  0  0  0  0  0  0
  145.6636  138.1134  154.1083 C   0  0  0  0  0  0  0  0  0  0  0  0
  145.1207  137.1801  153.2007 C   0  0  0  0  0  0  0  0  0  0  0  0
  145.5721  137.1792  151.8651 C   0  0  0  0  0  0  0  0  0  0  0  0
  146.5124  138.0669  151.4726 N   0  3  0  0  0  0  0  0  0  0  0  0
  147.0555  138.9774  152.3105 C   0  0  0  0  0  0  0  0  0  0  0  0
  150.3418  142.7468  156.3315 N   0  0  0  0  0  0  0  0  0  0  0  0
  151.5421  142.8964  157.1601 C   0  0  0  0  0  0  0  0  0  0  0  0
  151.5319  141.7779  158.2283 C   0  0  0  0  0  0  0  0  0  0  0  0
  152.6393  141.8393  159.2968 C   0  0  0  0  0  0  0  0  0  0  0  0
  152.2508  142.5545  160.6111 C   0  0  0  0  0  0  0  0  0  0  0  0
  152.5133  144.0716  160.6434 C   0  0  0  0  0  0  0  0  0  0  0  0
  151.3456  144.9812  160.2055 C   0  0  0  0  0  0  0  0  0  0  0  0
  150.6663  144.6492  158.8647 C   0  0  0  0  0  0  0  0  0  0  0  0
  151.6408  144.3371  157.7121 C   0  0  0  0  0  0  0  0  0  0  0  0
  148.2905  142.7241  155.0639 H   0  0  0  0  0  0  0  0  0  0  0  0
  147.8229  141.4664  153.0843 H   0  0  0  0  0  0  0  0  0  0  0  0
  149.0883  140.3278  153.5184 H   0  0  0  0  0  0  0  0  0  0  0  0
  147.6866  139.5312  155.4602 H   0  0  0  0  0  0  0  0  0  0  0  0
  146.4297  140.6607  155.0163 H   0  0  0  0  0  0  0  0  0  0  0  0
  145.3272  138.1302  155.1350 H   0  0  0  0  0  0  0  0  0  0  0  0
  144.3677  136.4764  153.5246 H   0  0  0  0  0  0  0  0  0  0  0  0
  145.2114  136.5024  151.1046 H   0  0  0  0  0  0  0  0  0  0  0  0
  147.7950  139.6350  151.8773 H   0  0  0  0  0  0  0  0  0  0  0  0
  149.6698  143.4968  156.4088 H   0  0  0  0  0  0  0  0  0  0  0  0
  152.4215  142.7239  156.5375 H   0  0  0  0  0  0  0  0  0  0  0  0
  150.5586  141.7051  158.7144 H   0  0  0  0  0  0  0  0  0  0  0  0
  151.6403  140.8315  157.6964 H   0  0  0  0  0  0  0  0  0  0  0  0
  152.8725  140.8075  159.5630 H   0  0  0  0  0  0  0  0  0  0  0  0
  153.5648  142.2404  158.8826 H   0  0  0  0  0  0  0  0  0  0  0  0
  151.2228  142.3301  160.8973 H   0  0  0  0  0  0  0  0  0  0  0  0
  152.8659  142.1151  161.3975 H   0  0  0  0  0  0  0  0  0  0  0  0
  152.7546  144.3468  161.6709 H   0  0  0  0  0  0  0  0  0  0  0  0
  153.4180  144.3043  160.0820 H   0  0  0  0  0  0  0  0  0  0  0  0
  150.5819  144.9793  160.9842 H   0  0  0  0  0  0  0  0  0  0  0  0
  151.7164  146.0060  160.1643 H   0  0  0  0  0  0  0  0  0  0  0  0
  149.9584  143.8347  159.0101 H   0  0  0  0  0  0  0  0  0  0  0  0
  150.0444  145.4981  158.5789 H   0  0  0  0  0  0  0  0  0  0  0  0
  152.6690  144.5374  158.0073 H   0  0  0  0  0  0  0  0  0  0  0  0
  151.4623  145.0466  156.9034 H   0  0  0  0  0  0  0  0  0  0  0  0
  146.8243  138.0501  150.5013 H   0  0  0  0  0  0  0  0  0  0  0  0
  1  2  2  0  0  0  0
  2  3  1  0  0  0  0
  2 12  1  0  0  0  0
  3  4  1  0  0  0  0
  3 21  1  0  0  0  0
  4  5  1  0  0  0  0
  4 22  1  0  0  0  0
  4 23  1  0  0  0  0
  5  6  1  0  0  0  0
  5 24  1  0  0  0  0
  5 25  1  0  0  0  0
  6 11  1  0  0  0  0
  6  7  2  0  0  0  0
  7  8  1  0  0  0  0
  7 26  1  0  0  0  0
  8  9  2  0  0  0  0
  8 27  1  0  0  0  0
  9 10  1  0  0  0  0
  9 28  1  0  0  0  0
 10 11  2  0  0  0  0
 10 46  1  0  0  0  0
 11 29  1  0  0  0  0
 12 13  1  0  0  0  0
 12 30  1  0  0  0  0
 13 20  1  0  0  0  0
 13 14  1  0  0  0  0
 13 31  1  0  0  0  0
 14 15  1  0  0  0  0
 14 32  1  0  0  0  0
 14 33  1  0  0  0  0
 15 16  1  0  0  0  0
 15 34  1  0  0  0  0
 15 35  1  0  0  0  0
 16 17  1  0  0  0  0
 16 36  1  0  0  0  0
 16 37  1  0  0  0  0
 17 18  1  0  0  0  0
 17 38  1  0  0  0  0
 17 39  1  0  0  0  0
 18 19  1  0  0  0  0
 18 40  1  0  0  0  0
 18 41  1  0  0  0  0
 19 20  1  0  0  0  0
 19 42  1  0  0  0  0
 19 43  1  0  0  0  0
 20 44  1  0  0  0  0
 20 45  1  0  0  0  0
M  CHG  1  10   1
M  END
> <s_m_source_file>
AV-unprocessed.smi

> <i_m_source_file_index>
381

> <i_lp_mmshare_version>
43012

> <i_f3d_flags>
0

> <s_epik_input>
W0NIMl0xW0NIMl1bQ0gyXVtDSDJdW0NIMl1bQ0gyXVtDSDJdW0NIXTFbTkhdQyg9TylbTkhdW0NIMl1bQ0gyXWMyW2NIXVtjSF1bY0hdbltjSF0y

> <s_epik_cmdline>
J2VwaWtfcHl0aG9uJywgJy1waCcsICc3LjAnLCAnLXRuJywgJzgnLCAnLW1hJywgJzIwMCcsICctbWV0YWxfYmluZGluZycsICctaW1hZScsICc8aW5maWxlLm1hZT4nLCAnLW9tYWUnLCAnPG91dGZpbGUubWFlPic=

> <r_epik_Ionization_Penalty>
2.21063

> <r_epik_Ionization_Penalty_Charging>
2.21057

> <r_epik_Ionization_Penalty_Neutral>
5.85974e-05

> <r_epik_State_Penalty>
2.35476

> <r_epik_Charging_Adjusted_Penalty>
4.56533

> <i_epik_Tot_Q>
1

> <i_epik_Tot_abs_Q>
1

> <r_epik_Metal_State_Penalty>
2.36886

> <b_epik_Metal_Only>
0

> <s_lp_Force_Field>
OPLS_2005

> <r_lp_Energy>
36.9097

> <b_lp_Chiralities_Consistent>
1

> <s_lp_Variant>
AV-unprocessed.smi:381-2

> <Gold.Version>
5.8.1

> <Gold.Id.Protein>
6NUR|6NUR_protein|mol2

> <Gold.PLP.Fitness>
48.1605

> <Gold.PLP.PLP>
-41.2695

> <Gold.PLP.part.hbond>
-4.4182

> <Gold.PLP.part.metal>
0.0000

> <Gold.PLP.part.buried>
-2.5526

> <Gold.PLP.part.nonpolar>
-33.4331

> <Gold.PLP.part.repulsive>
0.4663

> <Gold.PLP.ligand.clash>
0.0000

> <Gold.PLP.ligand.torsion>
0.2446

> <Gold.PLP.Chemscore.Hbond>
2.4498

> <Gold.PLP.Chemscore.CHOScore>
0.0000

> <Gold.PLP.Chemscore.Metal>
0.0000

> <Gold.Chemscore.Hbonds>
donor molecule, donor type, donor heavy atom, donor atom, acceptor molecule, acceptor atom, score
      L1  H     3    21       P1  8028  0.46
      L1  H    12    30       P1  8028  0.94
      P1  H  7989  7998       L1     1  0.83

> <Gold.PLP.Chemscore.Internal.Correction>
0.0309

> <Gold.Rescore>
     Score         DG    S(hbond)    S(metal)    S(lipo)     H(rot)  DE(clash)    DE(int)     intcor
     20.20     -21.16       1.71        0.00     118.27       1.51       0.87       0.09       ----

> <Gold.Chemscore.Fitness>
20.1995

> <Gold.Chemscore.DG>
-21.1617

> <Gold.Chemscore.ZeroCoef>
-5.4800

> <Gold.Chemscore.Hbond>
1.7082

> <Gold.Chemscore.Metal>
0.0000

> <Gold.Chemscore.Lipo>
118.2734

> <Gold.Chemscore.Internal_Hbond>
0.0000

> <Gold.Chemscore.DEClash>
0.8712

> <Gold.Chemscore.DEInternal>
0.0910

> <Gold.Chemscore.Rot>
1.5085

> <Gold.Chemscore.Internal.Correction>
   9.000000E+99

> <Gold.Chemscore.Hbonds>
donor molecule, donor type, donor heavy atom, donor atom, acceptor molecule, acceptor atom, score
      L1  H     3    21       P1  8028  0.45
      L1  H    12    30       P1  8028  0.91
      P1  H  7989  7998       L1     1  0.59

> <Gold.Chemscore.Hbond.Weighted>
-5.7055

> <Gold.Chemscore.Metal.Weighted>
-0.0000

> <Gold.Chemscore.Lipo.Weighted>
-13.8380

> <Gold.Chemscore.Internal_Hbond.Weighted>
0.0000

> <Gold.Chemscore.DEClash.Weighted>
0.8712

> <Gold.Chemscore.DEInternal.Weighted>
0.0910

> <Gold.Chemscore.Rot.Weighted>
3.8617

> <Gold.Chemscore.Internal.Correction.Weighted>
   9.000000E+99

> <Gold.Protein.RotatedTorsions>
[ 6907 6896 6895 6894 ] final  130.51 input  -60.11 | X-H torsion
[ 7974 7965 7964 7962 ] final  138.87 input  175.53 | X-H torsion
[ 8008 7997 7996 7995 ] final   70.21 input   59.86 | X-H torsion
[ 10167 10162 10161 10158 ] final  -96.91 input  -65.29 | X-H torsion
[ 10718 10713 10712 10709 ] final -121.16 input   66.30 | X-H torsion
[ 10763 10752 10751 10750 ] final   -7.82 input  -60.55 | X-H torsion
[ 11005 11000 10999 10996 ] final -152.12 input  -57.11 | X-H torsion

> <Gold.Protein.ActiveResidues>
 VAL166  LYS551  ARG553  GLY616  TRP617  ASP618  TYR619  PRO620  LYS621  CYS622 
 ASP623  PHE694  ASN695  SER759  ASP760  ASP761  ALA762  ILE779  LEU786  VAL792 
 PHE793  MET794  SER795  GLU796  ALA797  LYS798  CYS799  TRP800  GLU811  SER814 

> <Gold.Protein.RotatedAtoms>
  152.3518  133.6189  159.5950 H   0  0  0  0  0  0  0  0  0  0  0  0  # atno 6907 bound_to 6896
  150.7543  133.9561  159.3510 H   0  0  0  0  0  0  0  0  0  0  0  0  # atno 6908 bound_to 6896
  151.7412  135.0854  160.0367 H   0  0  0  0  0  0  0  0  0  0  0  0  # atno 6909 bound_to 6896
  144.9332  139.5021  143.5608 H   0  0  0  0  0  0  0  0  0  0  0  0  # atno 7974 bound_to 7965
  155.7353  140.3491  155.5078 H   0  0  0  0  0  0  0  0  0  0  0  0  # atno 8008 bound_to 7997
  155.9145  140.1056  157.1276 H   0  0  0  0  0  0  0  0  0  0  0  0  # atno 8009 bound_to 7997
  154.4060  140.1261  156.4586 H   0  0  0  0  0  0  0  0  0  0  0  0  # atno 8010 bound_to 7997
  140.2888  143.3234  152.0366 H   0  0  0  0  0  0  0  0  0  0  0  0  # atno 10167 bound_to 10162
  156.1315  130.6399  150.9629 H   0  0  0  0  0  0  0  0  0  0  0  0  # atno 10718 bound_to 10713
  153.4317  135.7012  153.6226 H   0  0  0  0  0  0  0  0  0  0  0  0  # atno 10763 bound_to 10752
  153.4638  135.3730  155.2353 H   0  0  0  0  0  0  0  0  0  0  0  0  # atno 10764 bound_to 10752
  154.8725  135.4026  154.3702 H   0  0  0  0  0  0  0  0  0  0  0  0  # atno 10765 bound_to 10752
  140.7223  134.3713  157.5181 H   0  0  0  0  0  0  0  0  0  0  0  0  # atno 11005 bound_to 11000
  146.3255  139.8297  142.8910 LP  0  0  0  0  0  0  0  0  0  0  0  0  # atno 17320 bound_to 7965
  145.3109  141.0219  143.3555 LP  0  0  0  0  0  0  0  0  0  0  0  0  # atno 17321 bound_to 7965
  139.4943  144.6539  151.6615 LP  0  0  0  0  0  0  0  0  0  0  0  0  # atno 17342 bound_to 10162
  140.5749  144.0045  150.6236 LP  0  0  0  0  0  0  0  0  0  0  0  0  # atno 17343 bound_to 10162
  157.6493  131.0899  150.8086 LP  0  0  0  0  0  0  0  0  0  0  0  0  # atno 17370 bound_to 10713
  156.8170  130.4971  149.5348 LP  0  0  0  0  0  0  0  0  0  0  0  0  # atno 17371 bound_to 10713
  139.8845  134.8963  156.2698 LP  0  0  0  0  0  0  0  0  0  0  0  0  # atno 17394 bound_to 11000
  140.9993  133.7161  156.0935 LP  0  0  0  0  0  0  0  0  0  0  0  0  # atno 17395 bound_to 11000

$$$$
