AV-unprocessed.smi:2513|AV-procd|sdf|9892|dock3
  -GOLD-   2272013533D 1   1.00000     0.00000
 Structure written by MMmdl.
 35 36  0  0  0  0  0  0  0  0  1 V2000
  145.3505  137.6855  162.1098 C   0  0  0  0  0  0  0  0  0  0  0  0
  146.5734  137.3722  161.4594 O   0  0  0  0  0  0  0  0  0  0  0  0
  146.9849  136.0537  161.4406 C   0  0  0  0  0  0  0  0  0  0  0  0
  146.4955  135.0668  162.3342 C   0  0  0  0  0  0  0  0  0  0  0  0
  146.9737  133.7488  162.2362 C   0  0  0  0  0  0  0  0  0  0  0  0
  147.9280  133.4609  161.2470 C   0  0  0  0  0  0  0  0  0  0  0  0
  148.4023  134.3885  160.3926 N   0  0  0  0  0  0  0  0  0  0  0  0
  147.9493  135.6646  160.4746 C   0  0  0  0  0  0  0  0  0  0  0  0
  148.3989  136.7006  159.6096 N   0  0  0  0  0  0  0  0  0  0  0  0
  149.3933  136.6633  158.7054 C   0  0  0  0  0  0  0  0  0  0  0  0
  150.1059  135.6875  158.4682 O   0  0  0  0  0  0  0  0  0  0  0  0
  149.5219  137.8418  158.0789 N   0  0  0  0  0  0  0  0  0  0  0  0
  150.5041  138.1402  157.0411 C   0  0  1  0  0  0  0  0  0  0  0  0
  149.7848  138.5184  155.7378 C   0  0  0  0  0  0  0  0  0  0  0  0
  150.8061  138.9662  154.6863 C   0  0  0  0  0  0  0  0  0  0  0  0
  151.7133  140.0688  155.2544 C   0  0  0  0  0  0  0  0  0  0  0  0
  152.3533  139.6058  156.4387 O   0  0  0  0  0  0  0  0  0  0  0  0
  151.4367  139.2883  157.4814 C   0  0  0  0  0  0  0  0  0  0  0  0
  145.1704  138.7582  162.0387 H   0  0  0  0  0  0  0  0  0  0  0  0
  145.3844  137.4270  163.1689 H   0  0  0  0  0  0  0  0  0  0  0  0
  144.5070  137.1778  161.6397 H   0  0  0  0  0  0  0  0  0  0  0  0
  145.7621  135.2931  163.0929 H   0  0  0  0  0  0  0  0  0  0  0  0
  146.6171  132.9776  162.9029 H   0  0  0  0  0  0  0  0  0  0  0  0
  148.3208  132.4608  161.1376 H   0  0  0  0  0  0  0  0  0  0  0  0
  147.9005  137.5743  159.6927 H   0  0  0  0  0  0  0  0  0  0  0  0
  148.8940  138.5888  158.3373 H   0  0  0  0  0  0  0  0  0  0  0  0
  151.1072  137.2500  156.8519 H   0  0  0  0  0  0  0  0  0  0  0  0
  149.2029  137.6754  155.3629 H   0  0  0  0  0  0  0  0  0  0  0  0
  149.0790  139.3296  155.9237 H   0  0  0  0  0  0  0  0  0  0  0  0
  151.4159  138.1146  154.3818 H   0  0  0  0  0  0  0  0  0  0  0  0
  150.2947  139.3214  153.7913 H   0  0  0  0  0  0  0  0  0  0  0  0
  152.4762  140.3396  154.5243 H   0  0  0  0  0  0  0  0  0  0  0  0
  151.1409  140.9731  155.4670 H   0  0  0  0  0  0  0  0  0  0  0  0
  150.8639  140.1764  157.7535 H   0  0  0  0  0  0  0  0  0  0  0  0
  152.0081  138.9979  158.3635 H   0  0  0  0  0  0  0  0  0  0  0  0
  1  2  1  0  0  0  0
  1 19  1  0  0  0  0
  1 20  1  0  0  0  0
  1 21  1  0  0  0  0
  2  3  1  0  0  0  0
  3  8  1  0  0  0  0
  3  4  2  0  0  0  0
  4  5  1  0  0  0  0
  4 22  1  0  0  0  0
  5  6  2  0  0  0  0
  5 23  1  0  0  0  0
  6  7  1  0  0  0  0
  6 24  1  0  0  0  0
  7  8  2  0  0  0  0
  8  9  1  0  0  0  0
  9 10  1  0  0  0  0
  9 25  1  0  0  0  0
 10 11  2  0  0  0  0
 10 12  1  0  0  0  0
 12 13  1  0  0  0  0
 12 26  1  0  0  0  0
 13 18  1  0  0  0  0
 13 14  1  0  0  0  0
 13 27  1  0  0  0  0
 14 15  1  0  0  0  0
 14 28  1  0  0  0  0
 14 29  1  0  0  0  0
 15 16  1  0  0  0  0
 15 30  1  0  0  0  0
 15 31  1  0  0  0  0
 16 17  1  0  0  0  0
 16 32  1  0  0  0  0
 16 33  1  0  0  0  0
 17 18  1  0  0  0  0
 18 34  1  0  0  0  0
 18 35  1  0  0  0  0
M  END
> <s_m_source_file>
AV-unprocessed.smi

> <i_m_source_file_index>
2513

> <i_lp_mmshare_version>
43012

> <i_f3d_flags>
0

> <s_epik_input>
W0NIM11PYzFbY0hdW2NIXVtjSF1uYzFbTkhdQyg9TylbTkhdW0NAQEhdMltDSDJdW0NIMl1bQ0gyXU9bQ0gyXTI=

> <s_epik_cmdline>
J2VwaWtfcHl0aG9uJywgJy1waCcsICc3LjAnLCAnLXRuJywgJzgnLCAnLW1hJywgJzIwMCcsICctbWV0YWxfYmluZGluZycsICctaW1hZScsICc8aW5maWxlLm1hZT4nLCAnLW9tYWUnLCAnPG91dGZpbGUubWFlPic=

> <r_lp_tautomer_probability>
1

> <r_epik_Ionization_Penalty>
3.98976e-05

> <r_epik_Ionization_Penalty_Charging>
0

> <r_epik_Ionization_Penalty_Neutral>
3.98976e-05

> <r_epik_State_Penalty>
-0

> <r_epik_Charging_Adjusted_Penalty>
0

> <i_epik_Tot_Q>
0

> <i_epik_Tot_abs_Q>
0

> <r_epik_Metal_State_Penalty>
-0

> <b_epik_Metal_Only>
0

> <s_lp_Force_Field>
OPLS_2005

> <r_lp_Energy>
12.9865

> <b_lp_Chiralities_Consistent>
1

> <s_lp_Variant>
AV-unprocessed.smi:2513-2

> <Gold.Version>
5.8.1

> <Gold.Id.Protein>
6NUR|6NUR_protein|mol2

> <Gold.PLP.Fitness>
37.4958

> <Gold.PLP.PLP>
-28.8828

> <Gold.PLP.part.hbond>
-3.9592

> <Gold.PLP.part.metal>
0.0000

> <Gold.PLP.part.buried>
-1.4928

> <Gold.PLP.part.nonpolar>
-23.8148

> <Gold.PLP.part.repulsive>
0.3445

> <Gold.PLP.ligand.clash>
0.0000

> <Gold.PLP.ligand.torsion>
0.2773

> <Gold.PLP.Chemscore.Hbond>
3.0547

> <Gold.PLP.Chemscore.CHOScore>
0.0000

> <Gold.PLP.Chemscore.Metal>
0.0000

> <Gold.Chemscore.Hbonds>
donor molecule, donor type, donor heavy atom, donor atom, acceptor molecule, acceptor atom, score
      P1  H  6896  6908       L1    11  0.98
      P1  H  6934  6947       L1     2  1.00
      P1  H  7997  8010       L1    17  0.94

> <Gold.PLP.Chemscore.Internal.Correction>
0.0035

> <Gold.Rescore>
     Score         DG    S(hbond)    S(metal)    S(lipo)     H(rot)  DE(clash)    DE(int)     intcor
     15.45     -17.25       2.39        0.00      59.91       1.25       0.46       1.35       ----

> <Gold.Chemscore.Fitness>
15.4459

> <Gold.Chemscore.DG>
-17.2536

> <Gold.Chemscore.ZeroCoef>
-5.4800

> <Gold.Chemscore.Hbond>
2.3877

> <Gold.Chemscore.Metal>
0.0000

> <Gold.Chemscore.Lipo>
59.9086

> <Gold.Chemscore.Internal_Hbond>
0.0000

> <Gold.Chemscore.DEClash>
0.4614

> <Gold.Chemscore.DEInternal>
1.3463

> <Gold.Chemscore.Rot>
1.2542

> <Gold.Chemscore.Internal.Correction>
   9.000000E+99

> <Gold.Chemscore.Hbonds>
donor molecule, donor type, donor heavy atom, donor atom, acceptor molecule, acceptor atom, score
      P1  H  6896  6908       L1    11  0.93
      P1  H  6934  6947       L1     2  0.34
      P1  H  7997  8010       L1    17  0.54

> <Gold.Chemscore.Hbond.Weighted>
-7.9750

> <Gold.Chemscore.Metal.Weighted>
-0.0000

> <Gold.Chemscore.Lipo.Weighted>
-7.0093

> <Gold.Chemscore.Internal_Hbond.Weighted>
0.0000

> <Gold.Chemscore.DEClash.Weighted>
0.4614

> <Gold.Chemscore.DEInternal.Weighted>
1.3463

> <Gold.Chemscore.Rot.Weighted>
3.2107

> <Gold.Chemscore.Internal.Correction.Weighted>
   9.000000E+99

> <Gold.Protein.RotatedTorsions>
[ 6907 6896 6895 6894 ] final  173.17 input  -60.11 | X-H torsion
[ 7974 7965 7964 7962 ] final   64.83 input  175.53 | X-H torsion
[ 8008 7997 7996 7995 ] final   79.56 input   59.86 | X-H torsion
[ 10167 10162 10161 10158 ] final  -84.56 input  -65.29 | X-H torsion
[ 10718 10713 10712 10709 ] final  -97.71 input   66.30 | X-H torsion
[ 10763 10752 10751 10750 ] final  173.14 input  -60.55 | X-H torsion
[ 11005 11000 10999 10996 ] final  -37.09 input  -57.11 | X-H torsion

> <Gold.Protein.ActiveResidues>
 VAL166  LYS551  ARG553  GLY616  TRP617  ASP618  TYR619  PRO620  LYS621  CYS622 
 ASP623  PHE694  ASN695  SER759  ASP760  ASP761  ALA762  ILE779  LEU786  VAL792 
 PHE793  MET794  SER795  GLU796  ALA797  LYS798  CYS799  TRP800  GLU811  SER814 

> <Gold.Protein.RotatedAtoms>
  151.7726  133.3342  159.3448 H   0  0  0  0  0  0  0  0  0  0  0  0  # atno 6907 bound_to 6896
  150.7456  134.6004  159.6043 H   0  0  0  0  0  0  0  0  0  0  0  0  # atno 6908 bound_to 6896
  152.3330  134.7236  160.0336 H   0  0  0  0  0  0  0  0  0  0  0  0  # atno 6909 bound_to 6896
  145.8456  139.3222  143.0906 H   0  0  0  0  0  0  0  0  0  0  0  0  # atno 7974 bound_to 7965
  155.8713  140.3449  155.5823 H   0  0  0  0  0  0  0  0  0  0  0  0  # atno 8008 bound_to 7997
  155.7824  140.0860  157.2071 H   0  0  0  0  0  0  0  0  0  0  0  0  # atno 8009 bound_to 7997
  154.4017  140.1498  156.3055 H   0  0  0  0  0  0  0  0  0  0  0  0  # atno 8010 bound_to 7997
  140.4121  143.2618  151.9004 H   0  0  0  0  0  0  0  0  0  0  0  0  # atno 10167 bound_to 10162
  156.0090  130.5206  150.6415 H   0  0  0  0  0  0  0  0  0  0  0  0  # atno 10718 bound_to 10713
  154.4360  135.2761  155.1880 H   0  0  0  0  0  0  0  0  0  0  0  0  # atno 10763 bound_to 10752
  154.3767  135.6097  153.5772 H   0  0  0  0  0  0  0  0  0  0  0  0  # atno 10764 bound_to 10752
  152.9838  135.5870  154.4679 H   0  0  0  0  0  0  0  0  0  0  0  0  # atno 10765 bound_to 10752
  140.9925  133.6997  156.1875 H   0  0  0  0  0  0  0  0  0  0  0  0  # atno 11005 bound_to 11000
  145.9416  140.8975  143.0305 LP  0  0  0  0  0  0  0  0  0  0  0  0  # atno 17320 bound_to 7965
  144.6731  140.1556  143.7426 LP  0  0  0  0  0  0  0  0  0  0  0  0  # atno 17321 bound_to 7965
  139.4782  144.5526  151.8362 LP  0  0  0  0  0  0  0  0  0  0  0  0  # atno 17342 bound_to 10162
  140.4627  144.1700  150.5908 LP  0  0  0  0  0  0  0  0  0  0  0  0  # atno 17343 bound_to 10162
  157.4194  131.0834  151.1145 LP  0  0  0  0  0  0  0  0  0  0  0  0  # atno 17370 bound_to 10713
  157.1752  130.6285  149.5653 LP  0  0  0  0  0  0  0  0  0  0  0  0  # atno 17371 bound_to 10713
  140.7018  134.4556  157.5586 LP  0  0  0  0  0  0  0  0  0  0  0  0  # atno 17394 bound_to 11000
  139.8999  134.8581  156.1942 LP  0  0  0  0  0  0  0  0  0  0  0  0  # atno 17395 bound_to 11000

$$$$
