AV-unprocessed.smi:1066|AV-procd|sdf|4670|dock3
  -GOLD-   22720 3183D 1   1.00000     0.00000
 Structure written by MMmdl.
 38 40  0  0  0  0  0  0  0  0  2 V2000
  150.8324  142.9995  158.8067 C   0  0  0  0  0  0  0  0  0  0  0  0
  151.3147  141.7146  158.1967 C   0  0  0  0  0  0  0  0  0  0  0  0
  152.5440  141.2926  158.4621 N   0  0  0  0  0  0  0  0  0  0  0  0
  152.7094  140.0921  157.7620 O   0  0  0  0  0  0  0  0  0  0  0  0
  151.5510  139.8540  157.1062 C   0  0  0  0  0  0  0  0  0  0  0  0
  151.3294  138.4773  156.1003 Cl  0  0  0  0  0  0  0  0  0  0  0  0
  150.6184  140.8271  157.3244 C   0  0  0  0  0  0  0  0  0  0  0  0
  149.2153  140.9502  156.7842 C   0  0  0  0  0  0  0  0  0  0  0  0
  149.1597  140.4109  155.3545 C   0  0  0  0  0  0  0  0  0  0  0  0
  149.9894  140.7783  154.5236 O   0  0  0  0  0  0  0  0  0  0  0  0
  148.1792  139.5364  155.0818 N   0  0  0  0  0  0  0  0  0  0  0  0
  147.9809  138.8773  153.7971 C   0  0  2  0  0  0  0  0  0  0  0  0
  147.3334  139.7616  152.7291 C   0  0  0  0  0  0  0  0  0  0  0  0
  146.5370  138.7819  151.8488 C   0  0  0  0  0  0  0  0  0  0  0  0
  146.5945  137.4606  152.5171 N   0  3  2  0  0  0  0  0  0  0  0  0
  145.3627  136.6546  152.3859 C   0  0  0  0  0  0  0  0  0  0  0  0
  145.6168  135.1663  152.3614 C   0  0  0  0  0  0  0  0  0  0  0  0
  145.2721  135.8984  151.0823 C   0  0  0  0  0  0  0  0  0  0  0  0
  147.0037  137.7123  153.9092 C   0  0  0  0  0  0  0  0  0  0  0  0
  149.9879  143.4099  158.2528 H   0  0  0  0  0  0  0  0  0  0  0  0
  151.6179  143.7557  158.8124 H   0  0  0  0  0  0  0  0  0  0  0  0
  150.5103  142.8452  159.8365 H   0  0  0  0  0  0  0  0  0  0  0  0
  148.4991  140.4010  157.3963 H   0  0  0  0  0  0  0  0  0  0  0  0
  148.8809  141.9882  156.7891 H   0  0  0  0  0  0  0  0  0  0  0  0
  147.5391  139.2975  155.8258 H   0  0  0  0  0  0  0  0  0  0  0  0
  148.9322  138.4947  153.4209 H   0  0  0  0  0  0  0  0  0  0  0  0
  146.6500  140.4781  153.1879 H   0  0  0  0  0  0  0  0  0  0  0  0
  148.0727  140.3273  152.1608 H   0  0  0  0  0  0  0  0  0  0  0  0
  145.5070  139.1267  151.7431 H   0  0  0  0  0  0  0  0  0  0  0  0
  146.9635  138.7005  150.8486 H   0  0  0  0  0  0  0  0  0  0  0  0
  144.4666  137.0547  152.8574 H   0  0  0  0  0  0  0  0  0  0  0  0
  146.6408  134.8159  152.4798 H   0  0  0  0  0  0  0  0  0  0  0  0
  144.8522  134.5190  152.7861 H   0  0  0  0  0  0  0  0  0  0  0  0
  144.2807  135.7318  150.6655 H   0  0  0  0  0  0  0  0  0  0  0  0
  146.0666  136.0352  150.3511 H   0  0  0  0  0  0  0  0  0  0  0  0
  147.4550  136.8286  154.3617 H   0  0  0  0  0  0  0  0  0  0  0  0
  146.1335  137.9956  154.5050 H   0  0  0  0  0  0  0  0  0  0  0  0
  147.3495  136.9488  152.0828 H   0  0  0  0  0  0  0  0  0  0  0  0
  1  2  1  0  0  0  0
  1 20  1  0  0  0  0
  1 21  1  0  0  0  0
  1 22  1  0  0  0  0
  2  7  1  0  0  0  0
  2  3  2  0  0  0  0
  3  4  1  0  0  0  0
  4  5  1  0  0  0  0
  5  6  1  0  0  0  0
  5  7  2  0  0  0  0
  7  8  1  0  0  0  0
  8  9  1  0  0  0  0
  8 23  1  0  0  0  0
  8 24  1  0  0  0  0
  9 10  2  0  0  0  0
  9 11  1  0  0  0  0
 11 12  1  0  0  0  0
 11 25  1  0  0  0  0
 12 19  1  0  0  0  0
 12 13  1  0  0  0  0
 12 26  1  0  0  0  0
 13 14  1  0  0  0  0
 13 27  1  0  0  0  0
 13 28  1  0  0  0  0
 14 15  1  0  0  0  0
 14 29  1  0  0  0  0
 14 30  1  0  0  0  0
 15 16  1  0  0  0  0
 15 19  1  0  0  0  0
 15 38  1  0  0  0  0
 16 18  1  0  0  0  0
 16 17  1  0  0  0  0
 16 31  1  0  0  0  0
 17 18  1  0  0  0  0
 17 32  1  0  0  0  0
 17 33  1  0  0  0  0
 18 34  1  0  0  0  0
 18 35  1  0  0  0  0
 19 36  1  0  0  0  0
 19 37  1  0  0  0  0
M  CHG  1  15   1
M  END
> <s_m_source_file>
AV-unprocessed.smi

> <i_m_source_file_index>
1066

> <i_lp_mmshare_version>
43012

> <i_f3d_flags>
0

> <s_epik_input>
W0NIM11jMW5vYyhDbCljMVtDSDJdQyg9TylbTkhdW0NAQEhdMltDSDJdW0NIMl1OKFtDSDJdMilbQ0hdM1tDSDJdW0NIMl0z

> <s_epik_cmdline>
J2VwaWtfcHl0aG9uJywgJy1waCcsICc3LjAnLCAnLXRuJywgJzgnLCAnLW1hJywgJzIwMCcsICctbWV0YWxfYmluZGluZycsICctaW1hZScsICc8aW5maWxlLm1hZT4nLCAnLW9tYWUnLCAnPG91dGZpbGUubWFlPic=

> <r_epik_Ionization_Penalty>
0.00108138

> <r_epik_Ionization_Penalty_Charging>
0.00108128

> <r_epik_Ionization_Penalty_Neutral>
9.66632e-08

> <r_epik_State_Penalty>
0.000708577

> <r_epik_Charging_Adjusted_Penalty>
0.00178986

> <i_epik_Tot_Q>
1

> <i_epik_Tot_abs_Q>
1

> <r_epik_Metal_State_Penalty>
-0

> <b_epik_Metal_Only>
0

> <s_lp_Force_Field>
OPLS_2005

> <r_lp_Energy>
30.9378

> <b_lp_Chiralities_Consistent>
1

> <s_lp_Variant>
AV-unprocessed.smi:1066-3

> <Gold.Version>
5.8.1

> <Gold.Id.Protein>
6NUR|6NUR_protein|mol2

> <Gold.PLP.Fitness>
35.5990

> <Gold.PLP.PLP>
-25.6823

> <Gold.PLP.part.hbond>
-3.0000

> <Gold.PLP.part.metal>
0.0000

> <Gold.PLP.part.buried>
-0.7370

> <Gold.PLP.part.nonpolar>
-23.2876

> <Gold.PLP.part.repulsive>
0.1738

> <Gold.PLP.ligand.clash>
0.0000

> <Gold.PLP.ligand.torsion>
1.2789

> <Gold.PLP.Chemscore.Hbond>
3.7360

> <Gold.PLP.Chemscore.CHOScore>
0.0000

> <Gold.PLP.Chemscore.Metal>
0.0000

> <Gold.Chemscore.Hbonds>
donor molecule, donor type, donor heavy atom, donor atom, acceptor molecule, acceptor atom, score
      L1  H    15    38       P1  7948  2.00
      P1  H  7989  7998       L1    10  0.74
      P1  H  7997  8009       L1     4  1.00

> <Gold.PLP.Chemscore.Internal.Correction>
1.2665

> <Gold.Rescore>
     Score         DG    S(hbond)    S(metal)    S(lipo)     H(rot)  DE(clash)    DE(int)     intcor
     15.47     -18.78       2.58        0.00      74.49       1.57       1.38       1.92       ----

> <Gold.Chemscore.Fitness>
15.4749

> <Gold.Chemscore.DG>
-18.7803

> <Gold.Chemscore.ZeroCoef>
-5.4800

> <Gold.Chemscore.Hbond>
2.5769

> <Gold.Chemscore.Metal>
0.0000

> <Gold.Chemscore.Lipo>
74.4922

> <Gold.Chemscore.Internal_Hbond>
0.0000

> <Gold.Chemscore.DEClash>
1.3839

> <Gold.Chemscore.DEInternal>
1.9216

> <Gold.Chemscore.Rot>
1.5711

> <Gold.Chemscore.Internal.Correction>
   9.000000E+99

> <Gold.Chemscore.Hbonds>
donor molecule, donor type, donor heavy atom, donor atom, acceptor molecule, acceptor atom, score
      L1  H    15    38       P1  7948  1.00
      P1  H  7989  7998       L1    10  0.72
      P1  H  7997  8009       L1     4  0.72

> <Gold.Chemscore.Hbond.Weighted>
-8.6068

> <Gold.Chemscore.Metal.Weighted>
-0.0000

> <Gold.Chemscore.Lipo.Weighted>
-8.7156

> <Gold.Chemscore.Internal_Hbond.Weighted>
0.0000

> <Gold.Chemscore.DEClash.Weighted>
1.3839

> <Gold.Chemscore.DEInternal.Weighted>
1.9216

> <Gold.Chemscore.Rot.Weighted>
4.0221

> <Gold.Chemscore.Internal.Correction.Weighted>
   9.000000E+99

> <Gold.Protein.RotatedTorsions>
[ 6907 6896 6895 6894 ] final -170.15 input  -60.11 | X-H torsion
[ 7974 7965 7964 7962 ] final   94.88 input  175.53 | X-H torsion
[ 8008 7997 7996 7995 ] final  173.93 input   59.86 | X-H torsion
[ 10167 10162 10161 10158 ] final  -15.14 input  -65.29 | X-H torsion
[ 10718 10713 10712 10709 ] final  106.99 input   66.30 | X-H torsion
[ 10763 10752 10751 10750 ] final  -25.39 input  -60.55 | X-H torsion
[ 11005 11000 10999 10996 ] final   55.75 input  -57.11 | X-H torsion

> <Gold.Protein.ActiveResidues>
 VAL166  LYS551  ARG553  GLY616  TRP617  ASP618  TYR619  PRO620  LYS621  CYS622 
 ASP623  PHE694  ASN695  SER759  ASP760  ASP761  ALA762  ILE779  LEU786  VAL792 
 PHE793  MET794  SER795  GLU796  ALA797  LYS798  CYS799  TRP800  GLU811  SER814 

> <Gold.Protein.RotatedAtoms>
  151.5031  133.3500  159.2872 H   0  0  0  0  0  0  0  0  0  0  0  0  # atno 6907 bound_to 6896
  150.8760  134.8145  159.7201 H   0  0  0  0  0  0  0  0  0  0  0  0  # atno 6908 bound_to 6896
  152.4731  134.4922  159.9750 H   0  0  0  0  0  0  0  0  0  0  0  0  # atno 6909 bound_to 6896
  145.4597  139.2287  143.2994 H   0  0  0  0  0  0  0  0  0  0  0  0  # atno 7974 bound_to 7965
  156.1026  140.1447  156.9447 H   0  0  0  0  0  0  0  0  0  0  0  0  # atno 8008 bound_to 7997
  154.4712  140.0909  156.7194 H   0  0  0  0  0  0  0  0  0  0  0  0  # atno 8009 bound_to 7997
  155.4734  140.3442  155.4331 H   0  0  0  0  0  0  0  0  0  0  0  0  # atno 8010 bound_to 7997
  140.7213  143.5248  150.9590 H   0  0  0  0  0  0  0  0  0  0  0  0  # atno 10167 bound_to 10162
  157.6646  131.0863  150.6089 H   0  0  0  0  0  0  0  0  0  0  0  0  # atno 10718 bound_to 10713
  153.6991  135.6957  153.5068 H   0  0  0  0  0  0  0  0  0  0  0  0  # atno 10763 bound_to 10752
  153.2356  135.4323  155.0641 H   0  0  0  0  0  0  0  0  0  0  0  0  # atno 10764 bound_to 10752
  154.8350  135.3495  154.6531 H   0  0  0  0  0  0  0  0  0  0  0  0  # atno 10765 bound_to 10752
  140.0583  134.5639  155.9182 H   0  0  0  0  0  0  0  0  0  0  0  0  # atno 11005 bound_to 11000
  146.2458  140.5365  142.8914 LP  0  0  0  0  0  0  0  0  0  0  0  0  # atno 17320 bound_to 7965
  144.8010  140.6213  143.6478 LP  0  0  0  0  0  0  0  0  0  0  0  0  # atno 17321 bound_to 7965
  139.8967  143.6886  152.3137 LP  0  0  0  0  0  0  0  0  0  0  0  0  # atno 17342 bound_to 10162
  139.7221  144.7600  151.0938 LP  0  0  0  0  0  0  0  0  0  0  0  0  # atno 17343 bound_to 10162
  156.6391  130.4453  149.5759 LP  0  0  0  0  0  0  0  0  0  0  0  0  # atno 17370 bound_to 10713
  156.2223  130.6745  151.1381 LP  0  0  0  0  0  0  0  0  0  0  0  0  # atno 17371 bound_to 10713
  141.1962  133.6590  156.5678 LP  0  0  0  0  0  0  0  0  0  0  0  0  # atno 17394 bound_to 11000
  140.3810  134.7523  157.4661 LP  0  0  0  0  0  0  0  0  0  0  0  0  # atno 17395 bound_to 11000

$$$$
