AV-unprocessed.smi:2146|AV-procd|sdf|8738|dock10
  -GOLD-   2272011513D 1   1.00000     0.00000
 Structure written by MMmdl.
 44 45  0  0  0  0  0  0  0  0  1 V2000
  148.7628  136.5225  154.9595 C   0  0  0  0  0  0  0  0  0  0  0  0
  149.8715  137.5454  155.3157 C   0  0  2  0  0  0  0  0  0  0  0  0
  150.3880  137.2469  156.7538 C   0  0  0  0  0  0  0  0  0  0  0  0
  149.3661  137.4004  157.7857 N   0  0  0  0  0  0  0  0  0  0  0  0
  148.9680  136.4353  158.6282 C   0  0  0  0  0  0  0  0  0  0  0  0
  149.4294  135.2932  158.6106 O   0  0  0  0  0  0  0  0  0  0  0  0
  147.8667  136.8279  159.6234 C   0  0  0  0  0  0  0  0  0  0  0  0
  147.6001  135.7959  160.6395 N   0  0  0  0  0  0  0  0  0  0  0  0
  147.3021  134.4997  160.1748 C   0  0  0  0  0  0  0  0  0  0  0  0
  147.0557  133.4641  160.9995 C   0  0  0  0  0  0  0  0  0  0  0  0
  146.6898  132.0887  160.4637 C   0  0  0  0  0  0  0  0  0  0  0  0
  145.5486  132.1579  159.7801 F   0  0  0  0  0  0  0  0  0  0  0  0
  147.6356  131.6205  159.6491 F   0  0  0  0  0  0  0  0  0  0  0  0
  146.5246  131.2163  161.4586 F   0  0  0  0  0  0  0  0  0  0  0  0
  147.0775  133.7510  162.4204 C   0  0  0  0  0  0  0  0  0  0  0  0
  147.3556  134.9861  162.8813 C   0  0  0  0  0  0  0  0  0  0  0  0
  147.6457  136.0970  161.9718 C   0  0  0  0  0  0  0  0  0  0  0  0
  147.9115  137.2271  162.3818 O   0  0  0  0  0  0  0  0  0  0  0  0
  149.4364  138.9497  155.1300 N   0  0  0  0  0  0  0  0  0  0  0  0
  150.5538  139.9004  155.1695 C   0  0  0  0  0  0  0  0  0  0  0  0
  150.1092  141.3560  154.9453 C   0  0  0  0  0  0  0  0  0  0  0  0
  149.4217  141.4628  153.7065 O   0  0  0  0  0  0  0  0  0  0  0  0
  148.2835  140.6143  153.6542 C   0  0  0  0  0  0  0  0  0  0  0  0
  148.7163  139.1535  153.8675 C   0  0  0  0  0  0  0  0  0  0  0  0
  149.0713  135.4939  155.1413 H   0  0  0  0  0  0  0  0  0  0  0  0
  148.4948  136.5534  153.9044 H   0  0  0  0  0  0  0  0  0  0  0  0
  147.8593  136.7015  155.5434 H   0  0  0  0  0  0  0  0  0  0  0  0
  150.7014  137.3625  154.6314 H   0  0  0  0  0  0  0  0  0  0  0  0
  150.7752  136.2334  156.8478 H   0  0  0  0  0  0  0  0  0  0  0  0
  151.2150  137.9152  156.9959 H   0  0  0  0  0  0  0  0  0  0  0  0
  148.9312  138.3084  157.8642 H   0  0  0  0  0  0  0  0  0  0  0  0
  148.1369  137.7689  160.1061 H   0  0  0  0  0  0  0  0  0  0  0  0
  146.9615  137.0495  159.0568 H   0  0  0  0  0  0  0  0  0  0  0  0
  147.2914  134.3987  159.0992 H   0  0  0  0  0  0  0  0  0  0  0  0
  146.8724  132.9621  163.1289 H   0  0  0  0  0  0  0  0  0  0  0  0
  147.3664  135.1630  163.9468 H   0  0  0  0  0  0  0  0  0  0  0  0
  151.0527  139.8709  156.1355 H   0  0  0  0  0  0  0  0  0  0  0  0
  151.2971  139.6285  154.4185 H   0  0  0  0  0  0  0  0  0  0  0  0
  149.4646  141.6928  155.7589 H   0  0  0  0  0  0  0  0  0  0  0  0
  150.9751  142.0177  154.9293 H   0  0  0  0  0  0  0  0  0  0  0  0
  147.5574  140.9174  154.4102 H   0  0  0  0  0  0  0  0  0  0  0  0
  147.8006  140.7273  152.6836 H   0  0  0  0  0  0  0  0  0  0  0  0
  149.3399  138.8355  153.0304 H   0  0  0  0  0  0  0  0  0  0  0  0
  147.8130  138.5472  153.8375 H   0  0  0  0  0  0  0  0  0  0  0  0
  1  2  1  0  0  0  0
  1 25  1  0  0  0  0
  1 26  1  0  0  0  0
  1 27  1  0  0  0  0
  2  3  1  0  0  0  0
  2 19  1  0  0  0  0
  2 28  1  0  0  0  0
  3  4  1  0  0  0  0
  3 29  1  0  0  0  0
  3 30  1  0  0  0  0
  4  5  1  0  0  0  0
  4 31  1  0  0  0  0
  5  6  2  0  0  0  0
  5  7  1  0  0  0  0
  7  8  1  0  0  0  0
  7 32  1  0  0  0  0
  7 33  1  0  0  0  0
  8 17  1  0  0  0  0
  8  9  1  0  0  0  0
  9 10  2  0  0  0  0
  9 34  1  0  0  0  0
 10 11  1  0  0  0  0
 10 15  1  0  0  0  0
 11 12  1  0  0  0  0
 11 13  1  0  0  0  0
 11 14  1  0  0  0  0
 15 16  2  0  0  0  0
 15 35  1  0  0  0  0
 16 17  1  0  0  0  0
 16 36  1  0  0  0  0
 17 18  2  0  0  0  0
 19 24  1  0  0  0  0
 19 20  1  0  0  0  0
 20 21  1  0  0  0  0
 20 37  1  0  0  0  0
 20 38  1  0  0  0  0
 21 22  1  0  0  0  0
 21 39  1  0  0  0  0
 21 40  1  0  0  0  0
 22 23  1  0  0  0  0
 23 24  1  0  0  0  0
 23 41  1  0  0  0  0
 23 42  1  0  0  0  0
 24 43  1  0  0  0  0
 24 44  1  0  0  0  0
M  END
> <s_m_source_file>
AV-unprocessed.smi

> <i_m_source_file_index>
2146

> <i_lp_mmshare_version>
43012

> <i_f3d_flags>
0

> <s_epik_input>
W0NIMl0xW0NIMl1PW0NIMl1bQ0gyXU4xW0NASF0oW0NIM10pW0NIMl1bTkhdQyg9TylbQ0gyXW4yW2NIXWMoQyhGKShGKUYpW2NIXVtjSF1jMj1P

> <s_epik_cmdline>
J2VwaWtfcHl0aG9uJywgJy1waCcsICc3LjAnLCAnLXRuJywgJzgnLCAnLW1hJywgJzIwMCcsICctbWV0YWxfYmluZGluZycsICctaW1hZScsICc8aW5maWxlLm1hZT4nLCAnLW9tYWUnLCAnPG91dGZpbGUubWFlPic=

> <r_lp_tautomer_probability>
1

> <r_epik_Ionization_Penalty>
0.237382

> <r_epik_Ionization_Penalty_Charging>
1.80451e-08

> <r_epik_Ionization_Penalty_Neutral>
0.237382

> <r_epik_State_Penalty>
0.228245

> <r_epik_Charging_Adjusted_Penalty>
0.228245

> <i_epik_Tot_Q>
0

> <i_epik_Tot_abs_Q>
0

> <r_epik_Metal_State_Penalty>
0.22822

> <b_epik_Metal_Only>
0

> <s_lp_Force_Field>
OPLS_2005

> <r_lp_Energy>
40.571

> <b_lp_Chiralities_Consistent>
1

> <s_lp_Variant>
AV-unprocessed.smi:2146-1

> <Gold.Version>
5.8.1

> <Gold.Id.Protein>
6NUR|6NUR_protein|mol2

> <Gold.PLP.Fitness>
46.1795

> <Gold.PLP.PLP>
-38.6774

> <Gold.PLP.part.hbond>
-4.9585

> <Gold.PLP.part.metal>
0.0000

> <Gold.PLP.part.buried>
1.3427

> <Gold.PLP.part.nonpolar>
-34.3154

> <Gold.PLP.part.repulsive>
0.4676

> <Gold.PLP.ligand.clash>
0.0000

> <Gold.PLP.ligand.torsion>
0.3109

> <Gold.PLP.Chemscore.Hbond>
2.6737

> <Gold.PLP.Chemscore.CHOScore>
0.0000

> <Gold.PLP.Chemscore.Metal>
0.0000

> <Gold.Chemscore.Hbonds>
donor molecule, donor type, donor heavy atom, donor atom, acceptor molecule, acceptor atom, score
      P1  H  6896  6908       L1     6  0.88
      P1  H  6931  6943       L1    18  0.94
      P1  H  6934  6947       L1    18  0.03
      P1  H  8011  8017       L1    22  0.80

> <Gold.PLP.Chemscore.Internal.Correction>
0.1026

> <Gold.Rescore>
     Score         DG    S(hbond)    S(metal)    S(lipo)     H(rot)  DE(clash)    DE(int)     intcor
     15.07     -17.12       2.46        0.00      75.37       2.10       0.49       1.56       ----

> <Gold.Chemscore.Fitness>
15.0726

> <Gold.Chemscore.DG>
-17.1223

> <Gold.Chemscore.ZeroCoef>
-5.4800

> <Gold.Chemscore.Hbond>
2.4580

> <Gold.Chemscore.Metal>
0.0000

> <Gold.Chemscore.Lipo>
75.3710

> <Gold.Chemscore.Internal_Hbond>
0.0000

> <Gold.Chemscore.DEClash>
0.4927

> <Gold.Chemscore.DEInternal>
1.5569

> <Gold.Chemscore.Rot>
2.1039

> <Gold.Chemscore.Internal.Correction>
   9.000000E+99

> <Gold.Chemscore.Hbonds>
donor molecule, donor type, donor heavy atom, donor atom, acceptor molecule, acceptor atom, score
      P1  H  6896  6908       L1     6  0.85
      P1  H  6931  6943       L1    18  0.89
      P1  H  6934  6947       L1    18  0.05
      P1  H  8011  8017       L1    22  0.77

> <Gold.Chemscore.Hbond.Weighted>
-8.2098

> <Gold.Chemscore.Metal.Weighted>
-0.0000

> <Gold.Chemscore.Lipo.Weighted>
-8.8184

> <Gold.Chemscore.Internal_Hbond.Weighted>
0.0000

> <Gold.Chemscore.DEClash.Weighted>
0.4927

> <Gold.Chemscore.DEInternal.Weighted>
1.5569

> <Gold.Chemscore.Rot.Weighted>
5.3860

> <Gold.Chemscore.Internal.Correction.Weighted>
   9.000000E+99

> <Gold.Protein.RotatedTorsions>
[ 6907 6896 6895 6894 ] final -168.47 input  -60.11 | X-H torsion
[ 7974 7965 7964 7962 ] final   17.69 input  175.53 | X-H torsion
[ 8008 7997 7996 7995 ] final    7.76 input   59.86 | X-H torsion
[ 10167 10162 10161 10158 ] final -107.46 input  -65.29 | X-H torsion
[ 10718 10713 10712 10709 ] final   38.70 input   66.30 | X-H torsion
[ 10763 10752 10751 10750 ] final   25.07 input  -60.55 | X-H torsion
[ 11005 11000 10999 10996 ] final   91.88 input  -57.11 | X-H torsion

> <Gold.Protein.ActiveResidues>
 VAL166  LYS551  ARG553  GLY616  TRP617  ASP618  TYR619  PRO620  LYS621  CYS622 
 ASP623  PHE694  ASN695  SER759  ASP760  ASP761  ALA762  ILE779  LEU786  VAL792 
 PHE793  MET794  SER795  GLU796  ALA797  LYS798  CYS799  TRP800  GLU811  SER814 

> <Gold.Protein.RotatedAtoms>
  151.4762  133.3557  159.2830 H   0  0  0  0  0  0  0  0  0  0  0  0  # atno 6907 bound_to 6896
  150.8928  134.8335  159.7316 H   0  0  0  0  0  0  0  0  0  0  0  0  # atno 6908 bound_to 6896
  152.4833  134.4673  159.9676 H   0  0  0  0  0  0  0  0  0  0  0  0  # atno 6909 bound_to 6896
  146.2210  139.8565  142.8612 H   0  0  0  0  0  0  0  0  0  0  0  0  # atno 7974 bound_to 7965
  154.7580  140.2779  155.6238 H   0  0  0  0  0  0  0  0  0  0  0  0  # atno 8008 bound_to 7997
  156.2909  140.2665  156.2277 H   0  0  0  0  0  0  0  0  0  0  0  0  # atno 8009 bound_to 7997
  155.0054  140.0372  157.2367 H   0  0  0  0  0  0  0  0  0  0  0  0  # atno 8010 bound_to 7997
  140.1767  143.3999  152.1313 H   0  0  0  0  0  0  0  0  0  0  0  0  # atno 10167 bound_to 10162
  157.3619  130.7654  149.7054 H   0  0  0  0  0  0  0  0  0  0  0  0  # atno 10718 bound_to 10713
  153.0718  135.6591  154.0232 H   0  0  0  0  0  0  0  0  0  0  0  0  # atno 10763 bound_to 10752
  153.9875  135.2949  155.3416 H   0  0  0  0  0  0  0  0  0  0  0  0  # atno 10764 bound_to 10752
  154.7094  135.5211  153.8714 H   0  0  0  0  0  0  0  0  0  0  0  0  # atno 10765 bound_to 10752
  139.8832  134.8700  156.3492 H   0  0  0  0  0  0  0  0  0  0  0  0  # atno 11005 bound_to 11000
  145.2748  141.0120  143.3751 LP  0  0  0  0  0  0  0  0  0  0  0  0  # atno 17320 bound_to 7965
  144.9195  139.4429  143.6548 LP  0  0  0  0  0  0  0  0  0  0  0  0  # atno 17321 bound_to 7965
  139.5314  144.7163  151.5043 LP  0  0  0  0  0  0  0  0  0  0  0  0  # atno 17342 bound_to 10162
  140.6547  143.8624  150.6822 LP  0  0  0  0  0  0  0  0  0  0  0  0  # atno 17343 bound_to 10162
  155.9739  130.4111  150.3965 LP  0  0  0  0  0  0  0  0  0  0  0  0  # atno 17370 bound_to 10713
  157.2044  131.0445  151.2633 LP  0  0  0  0  0  0  0  0  0  0  0  0  # atno 17371 bound_to 10713
  140.9606  133.7391  156.0396 LP  0  0  0  0  0  0  0  0  0  0  0  0  # atno 17394 bound_to 11000
  140.7994  134.3526  157.5443 LP  0  0  0  0  0  0  0  0  0  0  0  0  # atno 17395 bound_to 11000

$$$$
