AV-unprocessed.smi:1042|AV-procd|sdf|4538|dock3
  -GOLD-   22720 2563D 1   1.00000     0.00000
 Structure written by MMmdl.
 40 42  0  0  0  0  0  0  0  0  2 V2000
  150.9188  140.7724  156.3198 O   0  0  0  0  0  0  0  0  0  0  0  0
  150.3830  141.8648  156.1317 C   0  0  0  0  0  0  0  0  0  0  0  0
  149.5426  142.1078  155.1153 N   0  0  0  0  0  0  0  0  0  0  0  0
  149.1568  141.1380  154.0948 C   0  0  0  0  0  0  0  0  0  0  0  0
  148.6318  139.8217  154.7013 C   0  0  2  0  0  0  0  0  0  0  0  0
  149.7040  138.7530  154.8898 C   0  0  0  0  0  0  0  0  0  0  0  0
  148.8756  137.4787  155.0298 C   0  0  0  0  0  0  0  0  0  0  0  0
  147.7279  137.6522  154.1138 N   0  3  1  0  0  0  0  0  0  0  0  0
  146.4947  136.9718  154.5634 C   0  0  0  0  0  0  0  0  0  0  0  0
  146.5474  135.4692  154.4237 C   0  0  0  0  0  0  0  0  0  0  0  0
  145.7387  136.2943  153.4457 C   0  0  0  0  0  0  0  0  0  0  0  0
  147.5626  139.1036  153.8638 C   0  0  0  0  0  0  0  0  0  0  0  0
  150.5519  142.9579  156.8963 N   0  0  0  0  0  0  0  0  0  0  0  0
  151.3313  143.0912  158.0763 C   0  0  0  0  0  0  0  0  0  0  0  0
  151.5564  144.4211  158.4979 C   0  0  0  0  0  0  0  0  0  0  0  0
  152.3162  144.6605  159.6594 C   0  0  0  0  0  0  0  0  0  0  0  0
  152.8293  143.5622  160.3719 C   0  0  0  0  0  0  0  0  0  0  0  0
  152.5573  142.2704  159.8850 C   0  0  0  0  0  0  0  0  0  0  0  0
  151.8302  142.0388  158.7715 N   0  0  0  0  0  0  0  0  0  0  0  0
  149.1545  143.0361  155.0314 H   0  0  0  0  0  0  0  0  0  0  0  0
  148.3879  141.5957  153.4716 H   0  0  0  0  0  0  0  0  0  0  0  0
  150.0063  140.9389  153.4394 H   0  0  0  0  0  0  0  0  0  0  0  0
  148.2047  140.0270  155.6845 H   0  0  0  0  0  0  0  0  0  0  0  0
  150.3403  138.6892  154.0057 H   0  0  0  0  0  0  0  0  0  0  0  0
  150.3419  138.9395  155.7543 H   0  0  0  0  0  0  0  0  0  0  0  0
  149.4439  136.5789  154.7931 H   0  0  0  0  0  0  0  0  0  0  0  0
  148.5195  137.3900  156.0577 H   0  0  0  0  0  0  0  0  0  0  0  0
  145.9607  137.4321  155.3933 H   0  0  0  0  0  0  0  0  0  0  0  0
  147.4683  135.0173  154.0594 H   0  0  0  0  0  0  0  0  0  0  0  0
  145.9961  134.8776  155.1518 H   0  0  0  0  0  0  0  0  0  0  0  0
  144.6551  136.2450  153.5296 H   0  0  0  0  0  0  0  0  0  0  0  0
  146.1222  136.3910  152.4315 H   0  0  0  0  0  0  0  0  0  0  0  0
  146.5613  139.4599  154.1120 H   0  0  0  0  0  0  0  0  0  0  0  0
  147.7175  139.2798  152.7986 H   0  0  0  0  0  0  0  0  0  0  0  0
  150.0627  143.7910  156.6048 H   0  0  0  0  0  0  0  0  0  0  0  0
  151.1545  145.2539  157.9391 H   0  0  0  0  0  0  0  0  0  0  0  0
  152.5012  145.6695  159.9973 H   0  0  0  0  0  0  0  0  0  0  0  0
  153.4159  143.7054  161.2673 H   0  0  0  0  0  0  0  0  0  0  0  0
  152.9332  141.4003  160.4024 H   0  0  0  0  0  0  0  0  0  0  0  0
  147.9946  137.2420  153.2302 H   0  0  0  0  0  0  0  0  0  0  0  0
  1  2  2  0  0  0  0
  2  3  1  0  0  0  0
  2 13  1  0  0  0  0
  3  4  1  0  0  0  0
  3 20  1  0  0  0  0
  4  5  1  0  0  0  0
  4 21  1  0  0  0  0
  4 22  1  0  0  0  0
  5 12  1  0  0  0  0
  5  6  1  0  0  0  0
  5 23  1  0  0  0  0
  6  7  1  0  0  0  0
  6 24  1  0  0  0  0
  6 25  1  0  0  0  0
  7  8  1  0  0  0  0
  7 26  1  0  0  0  0
  7 27  1  0  0  0  0
  8  9  1  0  0  0  0
  8 12  1  0  0  0  0
  8 40  1  0  0  0  0
  9 11  1  0  0  0  0
  9 10  1  0  0  0  0
  9 28  1  0  0  0  0
 10 11  1  0  0  0  0
 10 29  1  0  0  0  0
 10 30  1  0  0  0  0
 11 31  1  0  0  0  0
 11 32  1  0  0  0  0
 12 33  1  0  0  0  0
 12 34  1  0  0  0  0
 13 14  1  0  0  0  0
 13 35  1  0  0  0  0
 14 19  1  0  0  0  0
 14 15  2  0  0  0  0
 15 16  1  0  0  0  0
 15 36  1  0  0  0  0
 16 17  2  0  0  0  0
 16 37  1  0  0  0  0
 17 18  1  0  0  0  0
 17 38  1  0  0  0  0
 18 19  2  0  0  0  0
 18 39  1  0  0  0  0
M  CHG  1   8   1
M  END
> <s_m_source_file>
AV-unprocessed.smi

> <i_m_source_file_index>
1042

> <i_lp_mmshare_version>
43012

> <i_f3d_flags>
0

> <s_epik_input>
bjFbY0hdW2NIXVtjSF1bY0hdYzFbTkhdQyg9TylbTkhdW0NIMl1bQ0BASF0yW0NIMl1bQ0gyXU4oW0NIMl0yKVtDSF0zW0NIMl1bQ0gyXTM=

> <s_epik_cmdline>
J2VwaWtfcHl0aG9uJywgJy1waCcsICc3LjAnLCAnLXRuJywgJzgnLCAnLW1hJywgJzIwMCcsICctbWV0YWxfYmluZGluZycsICctaW1hZScsICc8aW5maWxlLm1hZT4nLCAnLW9tYWUnLCAnPG91dGZpbGUubWFlPic=

> <r_lp_tautomer_probability>
1

> <r_epik_Ionization_Penalty>
0.000244736

> <r_epik_Ionization_Penalty_Charging>
0.000203384

> <r_epik_Ionization_Penalty_Neutral>
4.13519e-05

> <r_epik_State_Penalty>
-0

> <r_epik_Charging_Adjusted_Penalty>
0.000203384

> <i_epik_Tot_Q>
1

> <i_epik_Tot_abs_Q>
1

> <r_epik_Metal_State_Penalty>
-0

> <b_epik_Metal_Only>
0

> <s_lp_Force_Field>
OPLS_2005

> <r_lp_Energy>
38.555

> <b_lp_Chiralities_Consistent>
1

> <s_lp_Variant>
AV-unprocessed.smi:1042-3

> <Gold.Version>
5.8.1

> <Gold.Id.Protein>
6NUR|6NUR_protein|mol2

> <Gold.PLP.Fitness>
45.2158

> <Gold.PLP.PLP>
-34.2232

> <Gold.PLP.part.hbond>
-3.0000

> <Gold.PLP.part.metal>
0.0000

> <Gold.PLP.part.buried>
-3.5765

> <Gold.PLP.part.nonpolar>
-27.8277

> <Gold.PLP.part.repulsive>
0.2393

> <Gold.PLP.ligand.clash>
0.0000

> <Gold.PLP.ligand.torsion>
1.1335

> <Gold.PLP.Chemscore.Hbond>
4.0000

> <Gold.PLP.Chemscore.CHOScore>
0.0000

> <Gold.PLP.Chemscore.Metal>
0.0000

> <Gold.Chemscore.Hbonds>
donor molecule, donor type, donor heavy atom, donor atom, acceptor molecule, acceptor atom, score
      L1  H     3    20       P1  8028  1.00
      L1  H     8    40       P1  7948  2.00
      L1  H    13    35       P1  8028  1.00

> <Gold.PLP.Chemscore.Internal.Correction>
1.2596

> <Gold.Rescore>
     Score         DG    S(hbond)    S(metal)    S(lipo)     H(rot)  DE(clash)    DE(int)     intcor
     17.32     -21.04       2.89        0.00      82.52       1.47       0.18       3.53       ----

> <Gold.Chemscore.Fitness>
17.3236

> <Gold.Chemscore.DG>
-21.0363

> <Gold.Chemscore.ZeroCoef>
-5.4800

> <Gold.Chemscore.Hbond>
2.8943

> <Gold.Chemscore.Metal>
0.0000

> <Gold.Chemscore.Lipo>
82.5152

> <Gold.Chemscore.Internal_Hbond>
0.0000

> <Gold.Chemscore.DEClash>
0.1790

> <Gold.Chemscore.DEInternal>
3.5338

> <Gold.Chemscore.Rot>
1.4707

> <Gold.Chemscore.Internal.Correction>
   9.000000E+99

> <Gold.Chemscore.Hbonds>
donor molecule, donor type, donor heavy atom, donor atom, acceptor molecule, acceptor atom, score
      L1  H     3    20       P1  8028  0.97
      L1  H     8    40       P1  7948  0.99
      L1  H    13    35       P1  8028  0.99

> <Gold.Chemscore.Hbond.Weighted>
-9.6671

> <Gold.Chemscore.Metal.Weighted>
-0.0000

> <Gold.Chemscore.Lipo.Weighted>
-9.6543

> <Gold.Chemscore.Internal_Hbond.Weighted>
0.0000

> <Gold.Chemscore.DEClash.Weighted>
0.1790

> <Gold.Chemscore.DEInternal.Weighted>
3.5338

> <Gold.Chemscore.Rot.Weighted>
3.7650

> <Gold.Chemscore.Internal.Correction.Weighted>
   9.000000E+99

> <Gold.Protein.RotatedTorsions>
[ 6907 6896 6895 6894 ] final  142.48 input  -60.11 | X-H torsion
[ 7974 7965 7964 7962 ] final   45.85 input  175.53 | X-H torsion
[ 8008 7997 7996 7995 ] final  161.14 input   59.86 | X-H torsion
[ 10167 10162 10161 10158 ] final  -96.33 input  -65.29 | X-H torsion
[ 10718 10713 10712 10709 ] final   82.65 input   66.30 | X-H torsion
[ 10763 10752 10751 10750 ] final  143.66 input  -60.55 | X-H torsion
[ 11005 11000 10999 10996 ] final  -69.91 input  -57.11 | X-H torsion

> <Gold.Protein.ActiveResidues>
 VAL166  LYS551  ARG553  GLY616  TRP617  ASP618  TYR619  PRO620  LYS621  CYS622 
 ASP623  PHE694  ASN695  SER759  ASP760  ASP761  ALA762  ILE779  LEU786  VAL792 
 PHE793  MET794  SER795  GLU796  ALA797  LYS798  CYS799  TRP800  GLU811  SER814 

> <Gold.Protein.RotatedAtoms>
  152.2182  133.4963  159.5147 H   0  0  0  0  0  0  0  0  0  0  0  0  # atno 6907 bound_to 6896
  150.7006  134.1378  159.4102 H   0  0  0  0  0  0  0  0  0  0  0  0  # atno 6908 bound_to 6896
  151.9298  135.0261  160.0579 H   0  0  0  0  0  0  0  0  0  0  0  0  # atno 6909 bound_to 6896
  146.0443  139.4919  142.9758 H   0  0  0  0  0  0  0  0  0  0  0  0  # atno 7974 bound_to 7965
  156.2124  140.1785  156.7665 H   0  0  0  0  0  0  0  0  0  0  0  0  # atno 8008 bound_to 7997
  154.5742  140.0677  156.9038 H   0  0  0  0  0  0  0  0  0  0  0  0  # atno 8009 bound_to 7997
  155.2619  140.3336  155.4275 H   0  0  0  0  0  0  0  0  0  0  0  0  # atno 8010 bound_to 7997
  140.2949  143.3198  152.0307 H   0  0  0  0  0  0  0  0  0  0  0  0  # atno 10167 bound_to 10162
  157.6862  131.0057  150.2406 H   0  0  0  0  0  0  0  0  0  0  0  0  # atno 10718 bound_to 10713
  153.9761  135.2946  155.3424 H   0  0  0  0  0  0  0  0  0  0  0  0  # atno 10763 bound_to 10752
  154.7295  135.5074  153.8944 H   0  0  0  0  0  0  0  0  0  0  0  0  # atno 10764 bound_to 10752
  153.0877  135.6698  154.0030 H   0  0  0  0  0  0  0  0  0  0  0  0  # atno 10765 bound_to 10752
  141.1563  133.6776  156.6672 H   0  0  0  0  0  0  0  0  0  0  0  0  # atno 11005 bound_to 11000
  145.6832  141.0185  143.1595 LP  0  0  0  0  0  0  0  0  0  0  0  0  # atno 17320 bound_to 7965
  144.7090  139.8446  143.7421 LP  0  0  0  0  0  0  0  0  0  0  0  0  # atno 17321 bound_to 7965
  139.4929  144.6498  151.6701 LP  0  0  0  0  0  0  0  0  0  0  0  0  # atno 17342 bound_to 10162
  140.5700  144.0124  150.6212 LP  0  0  0  0  0  0  0  0  0  0  0  0  # atno 17343 bound_to 10162
  156.3021  130.3760  149.7740 LP  0  0  0  0  0  0  0  0  0  0  0  0  # atno 17370 bound_to 10713
  156.5367  130.8282  151.3255 LP  0  0  0  0  0  0  0  0  0  0  0  0  # atno 17371 bound_to 10713
  140.3202  134.8014  157.4247 LP  0  0  0  0  0  0  0  0  0  0  0  0  # atno 17394 bound_to 11000
  140.1103  134.5354  155.8272 LP  0  0  0  0  0  0  0  0  0  0  0  0  # atno 17395 bound_to 11000

$$$$
