AV-unprocessed.smi:2416|AV-procd|sdf|9544|dock3
  -GOLD-   2272013173D 1   1.00000     0.00000
 Structure written by MMmdl.
 40 41  0  0  0  0  0  0  0  0  1 V2000
  148.7677  140.5756  153.9795 C   0  0  0  0  0  0  0  0  0  0  0  0
  150.0323  140.1004  154.4246 O   0  0  0  0  0  0  0  0  0  0  0  0
  150.3928  140.3588  155.7883 C   0  0  1  0  0  0  0  0  0  0  0  0
  150.5076  141.8696  156.0308 C   0  0  0  0  0  0  0  0  0  0  0  0
  149.5286  139.5057  156.7365 C   0  0  0  0  0  0  0  0  0  0  0  0
  150.5566  138.3788  156.6137 C   0  0  1  0  0  0  0  0  0  0  0  0
  150.1763  137.4251  155.5711 N   0  0  0  0  0  0  0  0  0  0  0  0
  150.1381  136.0955  155.7317 C   0  0  0  0  0  0  0  0  0  0  0  0
  150.4025  135.5339  156.7953 O   0  0  0  0  0  0  0  0  0  0  0  0
  149.7871  135.4776  154.5903 N   0  0  0  0  0  0  0  0  0  0  0  0
  149.6823  134.0829  154.3435 C   0  0  0  0  0  0  0  0  0  0  0  0
  150.3908  133.2601  155.2486 C   0  0  0  0  0  0  0  0  0  0  0  0
  150.3460  131.8606  155.0946 C   0  0  0  0  0  0  0  0  0  0  0  0
  149.5921  131.3213  154.0374 C   0  0  0  0  0  0  0  0  0  0  0  0
  149.5174  129.9822  153.8506 F   0  0  0  0  0  0  0  0  0  0  0  0
  148.9174  132.2091  153.1793 C   0  0  0  0  0  0  0  0  0  0  0  0
  148.9596  133.5504  153.3260 N   0  0  0  0  0  0  0  0  0  0  0  0
  151.5996  139.4383  156.1639 C   0  0  0  0  0  0  0  0  0  0  0  0
  152.5766  139.0751  155.0330 C   0  0  0  0  0  0  0  0  0  0  0  0
  152.4857  139.9358  157.3156 C   0  0  0  0  0  0  0  0  0  0  0  0
  148.5679  140.1734  152.9866 H   0  0  0  0  0  0  0  0  0  0  0  0
  148.7532  141.6620  153.8939 H   0  0  0  0  0  0  0  0  0  0  0  0
  147.9521  140.2644  154.6313 H   0  0  0  0  0  0  0  0  0  0  0  0
  150.8786  142.0943  157.0301 H   0  0  0  0  0  0  0  0  0  0  0  0
  149.5434  142.3706  155.9492 H   0  0  0  0  0  0  0  0  0  0  0  0
  151.1886  142.3342  155.3172 H   0  0  0  0  0  0  0  0  0  0  0  0
  149.4867  139.9175  157.7459 H   0  0  0  0  0  0  0  0  0  0  0  0
  148.5284  139.2541  156.3840 H   0  0  0  0  0  0  0  0  0  0  0  0
  150.7842  137.9144  157.5749 H   0  0  0  0  0  0  0  0  0  0  0  0
  149.9547  137.8074  154.6634 H   0  0  0  0  0  0  0  0  0  0  0  0
  149.5910  136.0742  153.8003 H   0  0  0  0  0  0  0  0  0  0  0  0
  150.9637  133.6924  156.0563 H   0  0  0  0  0  0  0  0  0  0  0  0
  150.8795  131.2146  155.7761 H   0  0  0  0  0  0  0  0  0  0  0  0
  148.3276  131.8349  152.3554 H   0  0  0  0  0  0  0  0  0  0  0  0
  153.2820  138.3055  155.3481 H   0  0  0  0  0  0  0  0  0  0  0  0
  153.1567  139.9417  154.7151 H   0  0  0  0  0  0  0  0  0  0  0  0
  152.0720  138.6932  154.1459 H   0  0  0  0  0  0  0  0  0  0  0  0
  153.1805  139.1624  157.6452 H   0  0  0  0  0  0  0  0  0  0  0  0
  151.8985  140.2232  158.1880 H   0  0  0  0  0  0  0  0  0  0  0  0
  153.0783  140.8036  157.0242 H   0  0  0  0  0  0  0  0  0  0  0  0
  1  2  1  0  0  0  0
  1 21  1  0  0  0  0
  1 22  1  0  0  0  0
  1 23  1  0  0  0  0
  2  3  1  0  0  0  0
  3 18  1  0  0  0  0
  3  4  1  0  0  0  0
  3  5  1  0  0  0  0
  4 24  1  0  0  0  0
  4 25  1  0  0  0  0
  4 26  1  0  0  0  0
  5  6  1  0  0  0  0
  5 27  1  0  0  0  0
  5 28  1  0  0  0  0
  6  7  1  0  0  0  0
  6 18  1  0  0  0  0
  6 29  1  0  0  0  0
  7  8  1  0  0  0  0
  7 30  1  0  0  0  0
  8  9  2  0  0  0  0
  8 10  1  0  0  0  0
 10 11  1  0  0  0  0
 10 31  1  0  0  0  0
 11 17  1  0  0  0  0
 11 12  2  0  0  0  0
 12 13  1  0  0  0  0
 12 32  1  0  0  0  0
 13 14  2  0  0  0  0
 13 33  1  0  0  0  0
 14 15  1  0  0  0  0
 14 16  1  0  0  0  0
 16 17  2  0  0  0  0
 16 34  1  0  0  0  0
 18 19  1  0  0  0  0
 18 20  1  0  0  0  0
 19 35  1  0  0  0  0
 19 36  1  0  0  0  0
 19 37  1  0  0  0  0
 20 38  1  0  0  0  0
 20 39  1  0  0  0  0
 20 40  1  0  0  0  0
M  END
> <s_m_source_file>
AV-unprocessed.smi

> <i_m_source_file_index>
2416

> <i_lp_mmshare_version>
43012

> <i_f3d_flags>
0

> <s_epik_input>
W0NIM11PW0NAQF0xKFtDSDNdKVtDSDJdW0NASF0oQzEoW0NIM10pW0NIM10pW05IXUMoPU8pW05IXWMyW2NIXVtjSF1jKEYpW2NIXW4y

> <s_epik_cmdline>
J2VwaWtfcHl0aG9uJywgJy1waCcsICc3LjAnLCAnLXRuJywgJzgnLCAnLW1hJywgJzIwMCcsICctbWV0YWxfYmluZGluZycsICctaW1hZScsICc8aW5maWxlLm1hZT4nLCAnLW9tYWUnLCAnPG91dGZpbGUubWFlPic=

> <r_lp_tautomer_probability>
1

> <r_epik_Ionization_Penalty>
3.67756e-05

> <r_epik_Ionization_Penalty_Charging>
0

> <r_epik_Ionization_Penalty_Neutral>
3.67756e-05

> <r_epik_State_Penalty>
-0

> <r_epik_Charging_Adjusted_Penalty>
0

> <i_epik_Tot_Q>
0

> <i_epik_Tot_abs_Q>
0

> <r_epik_Metal_State_Penalty>
-0

> <b_epik_Metal_Only>
0

> <s_lp_Force_Field>
OPLS_2005

> <r_lp_Energy>
27.553

> <b_lp_Chiralities_Consistent>
1

> <s_lp_Variant>
AV-unprocessed.smi:2416-1

> <Gold.Version>
5.8.1

> <Gold.Id.Protein>
6NUR|6NUR_protein|mol2

> <Gold.PLP.Fitness>
39.2206

> <Gold.PLP.PLP>
-30.8345

> <Gold.PLP.part.hbond>
-2.0000

> <Gold.PLP.part.metal>
0.0000

> <Gold.PLP.part.buried>
-1.0271

> <Gold.PLP.part.nonpolar>
-28.3230

> <Gold.PLP.part.repulsive>
1.0456

> <Gold.PLP.ligand.clash>
0.0000

> <Gold.PLP.ligand.torsion>
0.2865

> <Gold.PLP.Chemscore.Hbond>
1.9600

> <Gold.PLP.Chemscore.CHOScore>
0.8975

> <Gold.PLP.Chemscore.Metal>
0.0000

> <Gold.Chemscore.Hbonds>
donor molecule, donor type, donor heavy atom, donor atom, acceptor molecule, acceptor atom, score
      L1  H    10    31       P1  7948  0.94
      P1  H  7989  7998       L1     2  1.00
      L1  C    16    34       P1 10747  1.00

> <Gold.PLP.Chemscore.Internal.Correction>
0.3868

> <Gold.Rescore>
     Score         DG    S(hbond)    S(metal)    S(lipo)     H(rot)  DE(clash)    DE(int)     intcor
     10.74     -12.88       0.76        0.00      69.35       1.27       0.39       1.74       ----

> <Gold.Chemscore.Fitness>
10.7415

> <Gold.Chemscore.DG>
-12.8770

> <Gold.Chemscore.ZeroCoef>
-5.4800

> <Gold.Chemscore.Hbond>
0.7550

> <Gold.Chemscore.Metal>
0.0000

> <Gold.Chemscore.Lipo>
69.3549

> <Gold.Chemscore.Internal_Hbond>
0.0000

> <Gold.Chemscore.DEClash>
0.3931

> <Gold.Chemscore.DEInternal>
1.7424

> <Gold.Chemscore.Rot>
1.2653

> <Gold.Chemscore.Internal.Correction>
   9.000000E+99

> <Gold.Chemscore.Hbonds>
donor molecule, donor type, donor heavy atom, donor atom, acceptor molecule, acceptor atom, score
      L1  H    10    31       P1  7948  0.39
      P1  H  7989  7998       L1     2  0.21

> <Gold.Chemscore.Hbond.Weighted>
-2.5217

> <Gold.Chemscore.Metal.Weighted>
-0.0000

> <Gold.Chemscore.Lipo.Weighted>
-8.1145

> <Gold.Chemscore.Internal_Hbond.Weighted>
0.0000

> <Gold.Chemscore.DEClash.Weighted>
0.3931

> <Gold.Chemscore.DEInternal.Weighted>
1.7424

> <Gold.Chemscore.Rot.Weighted>
3.2392

> <Gold.Chemscore.Internal.Correction.Weighted>
   9.000000E+99

> <Gold.Protein.RotatedTorsions>
[ 6907 6896 6895 6894 ] final   -4.84 input  -60.11 | X-H torsion
[ 7974 7965 7964 7962 ] final  -60.55 input  175.53 | X-H torsion
[ 8008 7997 7996 7995 ] final  -45.40 input   59.86 | X-H torsion
[ 10167 10162 10161 10158 ] final   52.94 input  -65.29 | X-H torsion
[ 10718 10713 10712 10709 ] final  147.05 input   66.30 | X-H torsion
[ 10763 10752 10751 10750 ] final  -83.30 input  -60.55 | X-H torsion
[ 11005 11000 10999 10996 ] final   51.67 input  -57.11 | X-H torsion

> <Gold.Protein.ActiveResidues>
 VAL166  LYS551  ARG553  GLY616  TRP617  ASP618  TYR619  PRO620  LYS621  CYS622 
 ASP623  PHE694  ASN695  SER759  ASP760  ASP761  ALA762  ILE779  LEU786  VAL792 
 PHE793  MET794  SER795  GLU796  ALA797  LYS798  CYS799  TRP800  GLU811  SER814 

> <Gold.Protein.RotatedAtoms>
  151.4912  135.1057  159.9803 H   0  0  0  0  0  0  0  0  0  0  0  0  # atno 6907 bound_to 6896
  152.4740  133.8091  159.7004 H   0  0  0  0  0  0  0  0  0  0  0  0  # atno 6908 bound_to 6896
  150.8766  133.7368  159.2971 H   0  0  0  0  0  0  0  0  0  0  0  0  # atno 6909 bound_to 6896
  145.8141  140.8580  143.0166 H   0  0  0  0  0  0  0  0  0  0  0  0  # atno 7974 bound_to 7965
  154.4001  140.1397  156.3842 H   0  0  0  0  0  0  0  0  0  0  0  0  # atno 8008 bound_to 7997
  155.7975  140.3477  155.5363 H   0  0  0  0  0  0  0  0  0  0  0  0  # atno 8009 bound_to 7997
  155.8517  140.0942  157.1661 H   0  0  0  0  0  0  0  0  0  0  0  0  # atno 8010 bound_to 7997
  140.2461  144.3531  150.6364 H   0  0  0  0  0  0  0  0  0  0  0  0  # atno 10167 bound_to 10162
  157.3257  131.0912  151.1204 H   0  0  0  0  0  0  0  0  0  0  0  0  # atno 10718 bound_to 10713
  154.5861  135.5561  153.7232 H   0  0  0  0  0  0  0  0  0  0  0  0  # atno 10763 bound_to 10752
  153.0099  135.6332  154.1915 H   0  0  0  0  0  0  0  0  0  0  0  0  # atno 10764 bound_to 10752
  154.1856  135.2885  155.3018 H   0  0  0  0  0  0  0  0  0  0  0  0  # atno 10765 bound_to 10752
  140.0913  134.5205  155.8849 H   0  0  0  0  0  0  0  0  0  0  0  0  # atno 11005 bound_to 11000
  144.6754  140.0438  143.7480 LP  0  0  0  0  0  0  0  0  0  0  0  0  # atno 17320 bound_to 7965
  145.9745  139.2895  143.1078 LP  0  0  0  0  0  0  0  0  0  0  0  0  # atno 17321 bound_to 7965
  140.6077  143.2168  151.6949 LP  0  0  0  0  0  0  0  0  0  0  0  0  # atno 17342 bound_to 10162
  139.5061  144.3692  152.0486 LP  0  0  0  0  0  0  0  0  0  0  0  0  # atno 17343 bound_to 10162
  157.2472  130.6597  149.5915 LP  0  0  0  0  0  0  0  0  0  0  0  0  # atno 17370 bound_to 10713
  155.9690  130.4550  150.5870 LP  0  0  0  0  0  0  0  0  0  0  0  0  # atno 17371 bound_to 10713
  141.2079  133.6668  156.6333 LP  0  0  0  0  0  0  0  0  0  0  0  0  # atno 17394 bound_to 11000
  140.3348  134.7898  157.4353 LP  0  0  0  0  0  0  0  0  0  0  0  0  # atno 17395 bound_to 11000

$$$$
