AV-unprocessed.smi:1839|AV-procd|sdf|7486|dock10
  -GOLD-   22720 9183D 1   1.00000     0.00000
 Structure written by MMmdl.
 47 48  0  0  0  0  0  0  0  0  2 V2000
  147.2152  134.8350  161.9017 C   0  0  0  0  0  0  0  0  0  0  0  0
  147.6139  135.0939  160.5181 N   0  0  0  0  0  0  0  0  0  0  0  0
  147.9775  133.8886  159.7634 C   0  0  0  0  0  0  0  0  0  0  0  0
  147.9203  136.3534  160.1206 C   0  0  0  0  0  0  0  0  0  0  0  0
  148.1515  137.2548  160.9298 O   0  0  0  0  0  0  0  0  0  0  0  0
  147.9936  136.5576  158.7832 N   0  0  0  0  0  0  0  0  0  0  0  0
  147.0215  136.0063  157.8271 C   0  0  0  0  0  0  0  0  0  0  0  0
  147.7586  135.4953  156.5762 C   0  0  0  0  0  0  0  0  0  0  0  0
  148.6209  136.6071  155.9524 C   0  0  0  0  0  0  0  0  0  0  0  0
  149.5406  137.2593  157.0078 C   0  0  1  0  0  0  0  0  0  0  0  0
  150.3260  138.4432  156.4301 C   0  0  0  0  0  0  0  0  0  0  0  0
  150.2155  138.7462  155.2421 O   0  0  0  0  0  0  0  0  0  0  0  0
  151.0891  139.1286  157.2948 N   0  0  0  0  0  0  0  0  0  0  0  0
  151.8420  140.3391  156.9801 C   0  0  0  0  0  0  0  0  0  0  0  0
  150.9891  141.6254  157.0317 C   0  0  0  0  0  0  0  0  0  0  0  0
  151.5390  142.6950  157.9615 C   0  0  0  0  0  0  0  0  0  0  0  0
  152.5326  142.4131  158.9236 C   0  0  0  0  0  0  0  0  0  0  0  0
  152.9823  143.4465  159.7722 C   0  0  0  0  0  0  0  0  0  0  0  0
  152.4281  144.7373  159.6435 C   0  0  0  0  0  0  0  0  0  0  0  0
  151.4379  144.9635  158.6660 C   0  0  0  0  0  0  0  0  0  0  0  0
  151.0361  143.9482  157.8705 N   0  3  0  0  0  0  0  0  0  0  0  0
  148.7111  137.7105  158.2292 C   0  0  0  0  0  0  0  0  0  0  0  0
  146.5381  135.6059  162.2734 H   0  0  0  0  0  0  0  0  0  0  0  0
  148.0904  134.8058  162.5517 H   0  0  0  0  0  0  0  0  0  0  0  0
  146.6940  133.8810  161.9899 H   0  0  0  0  0  0  0  0  0  0  0  0
  148.7912  134.0691  159.0595 H   0  0  0  0  0  0  0  0  0  0  0  0
  147.1194  133.5096  159.2083 H   0  0  0  0  0  0  0  0  0  0  0  0
  148.3147  133.0942  160.4306 H   0  0  0  0  0  0  0  0  0  0  0  0
  146.4144  135.2091  158.2563 H   0  0  0  0  0  0  0  0  0  0  0  0
  146.3178  136.7916  157.5464 H   0  0  0  0  0  0  0  0  0  0  0  0
  148.3914  134.6483  156.8425 H   0  0  0  0  0  0  0  0  0  0  0  0
  147.0408  135.1256  155.8436 H   0  0  0  0  0  0  0  0  0  0  0  0
  149.2127  136.1994  155.1319 H   0  0  0  0  0  0  0  0  0  0  0  0
  147.9617  137.3584  155.5144 H   0  0  0  0  0  0  0  0  0  0  0  0
  150.2548  136.5046  157.3432 H   0  0  0  0  0  0  0  0  0  0  0  0
  151.1276  138.8040  158.2506 H   0  0  0  0  0  0  0  0  0  0  0  0
  152.6445  140.4140  157.7144 H   0  0  0  0  0  0  0  0  0  0  0  0
  152.3248  140.2406  156.0067 H   0  0  0  0  0  0  0  0  0  0  0  0
  150.8949  142.0419  156.0284 H   0  0  0  0  0  0  0  0  0  0  0  0
  149.9741  141.3793  157.3473 H   0  0  0  0  0  0  0  0  0  0  0  0
  152.9420  141.4173  159.0149 H   0  0  0  0  0  0  0  0  0  0  0  0
  153.7408  143.2502  160.5159 H   0  0  0  0  0  0  0  0  0  0  0  0
  152.7566  145.5414  160.2858 H   0  0  0  0  0  0  0  0  0  0  0  0
  150.9561  145.9164  158.4997 H   0  0  0  0  0  0  0  0  0  0  0  0
  147.9944  138.4865  157.9542 H   0  0  0  0  0  0  0  0  0  0  0  0
  149.3796  138.1519  158.9701 H   0  0  0  0  0  0  0  0  0  0  0  0
  150.3151  144.1331  157.1722 H   0  0  0  0  0  0  0  0  0  0  0  0
  1  2  1  0  0  0  0
  1 23  1  0  0  0  0
  1 24  1  0  0  0  0
  1 25  1  0  0  0  0
  2  3  1  0  0  0  0
  2  4  1  0  0  0  0
  3 26  1  0  0  0  0
  3 27  1  0  0  0  0
  3 28  1  0  0  0  0
  4  5  2  0  0  0  0
  4  6  1  0  0  0  0
  6 22  1  0  0  0  0
  6  7  1  0  0  0  0
  7  8  1  0  0  0  0
  7 29  1  0  0  0  0
  7 30  1  0  0  0  0
  8  9  1  0  0  0  0
  8 31  1  0  0  0  0
  8 32  1  0  0  0  0
  9 10  1  0  0  0  0
  9 33  1  0  0  0  0
  9 34  1  0  0  0  0
 10 11  1  0  0  0  0
 10 22  1  0  0  0  0
 10 35  1  0  0  0  0
 11 12  2  0  0  0  0
 11 13  1  0  0  0  0
 13 14  1  0  0  0  0
 13 36  1  0  0  0  0
 14 15  1  0  0  0  0
 14 37  1  0  0  0  0
 14 38  1  0  0  0  0
 15 16  1  0  0  0  0
 15 39  1  0  0  0  0
 15 40  1  0  0  0  0
 16 21  1  0  0  0  0
 16 17  2  0  0  0  0
 17 18  1  0  0  0  0
 17 41  1  0  0  0  0
 18 19  2  0  0  0  0
 18 42  1  0  0  0  0
 19 20  1  0  0  0  0
 19 43  1  0  0  0  0
 20 21  2  0  0  0  0
 20 44  1  0  0  0  0
 21 47  1  0  0  0  0
 22 45  1  0  0  0  0
 22 46  1  0  0  0  0
M  CHG  1  21   1
M  END
> <s_m_source_file>
AV-unprocessed.smi

> <i_m_source_file_index>
1839

> <i_lp_mmshare_version>
43012

> <i_f3d_flags>
0

> <s_epik_input>
W0NIM11OKFtDSDNdKUMoPU8pTjFbQ0gyXVtDSDJdW0NIMl1bQ0BIXShbQ0gyXTEpQyg9TylbTkhdW0NIMl1bQ0gyXWMyW2NIXVtjSF1bY0hdW2NIXW4y

> <s_epik_cmdline>
J2VwaWtfcHl0aG9uJywgJy1waCcsICc3LjAnLCAnLXRuJywgJzgnLCAnLW1hJywgJzIwMCcsICctbWV0YWxfYmluZGluZycsICctaW1hZScsICc8aW5maWxlLm1hZT4nLCAnLW9tYWUnLCAnPG91dGZpbGUubWFlPic=

> <r_epik_Ionization_Penalty>
1.8476

> <r_epik_Ionization_Penalty_Charging>
1.84754

> <r_epik_Ionization_Penalty_Neutral>
5.83857e-05

> <r_epik_State_Penalty>
1.96477

> <r_epik_Charging_Adjusted_Penalty>
3.81231

> <i_epik_Tot_Q>
1

> <i_epik_Tot_abs_Q>
1

> <r_epik_Metal_State_Penalty>
1.99061

> <b_epik_Metal_Only>
0

> <s_lp_Force_Field>
OPLS_2005

> <r_lp_Energy>
54.126

> <b_lp_Chiralities_Consistent>
1

> <s_lp_Variant>
AV-unprocessed.smi:1839-3

> <Gold.Version>
5.8.1

> <Gold.Id.Protein>
6NUR|6NUR_protein|mol2

> <Gold.PLP.Fitness>
44.8595

> <Gold.PLP.PLP>
-35.5905

> <Gold.PLP.part.hbond>
-3.0000

> <Gold.PLP.part.metal>
0.0000

> <Gold.PLP.part.buried>
-4.6829

> <Gold.PLP.part.nonpolar>
-28.0656

> <Gold.PLP.part.repulsive>
0.1216

> <Gold.PLP.ligand.clash>
0.0000

> <Gold.PLP.ligand.torsion>
1.4200

> <Gold.PLP.Chemscore.Hbond>
3.6000

> <Gold.PLP.Chemscore.CHOScore>
0.0000

> <Gold.PLP.Chemscore.Metal>
0.0000

> <Gold.Chemscore.Hbonds>
donor molecule, donor type, donor heavy atom, donor atom, acceptor molecule, acceptor atom, score
      L1  H    21    47       P1  8028  1.46
      P1  H  6931  6943       L1     5  0.90
      P1  H  6934  6947       L1     5  0.66

> <Gold.PLP.Chemscore.Internal.Correction>
1.3090

> <Gold.Rescore>
     Score         DG    S(hbond)    S(metal)    S(lipo)     H(rot)  DE(clash)    DE(int)     intcor
     18.96     -20.52       2.62        0.00      88.96       1.60       0.00       1.56       ----

> <Gold.Chemscore.Fitness>
18.9582

> <Gold.Chemscore.DG>
-20.5193

> <Gold.Chemscore.ZeroCoef>
-5.4800

> <Gold.Chemscore.Hbond>
2.6167

> <Gold.Chemscore.Metal>
0.0000

> <Gold.Chemscore.Lipo>
88.9587

> <Gold.Chemscore.Internal_Hbond>
0.0000

> <Gold.Chemscore.DEClash>
0.0000

> <Gold.Chemscore.DEInternal>
1.5612

> <Gold.Chemscore.Rot>
1.6049

> <Gold.Chemscore.Internal.Correction>
   9.000000E+99

> <Gold.Chemscore.Hbonds>
donor molecule, donor type, donor heavy atom, donor atom, acceptor molecule, acceptor atom, score
      L1  H    21    47       P1  8028  0.64
      P1  H  6931  6943       L1     5  0.88
      P1  H  6934  6947       L1     5  0.63

> <Gold.Chemscore.Hbond.Weighted>
-8.7398

> <Gold.Chemscore.Metal.Weighted>
-0.0000

> <Gold.Chemscore.Lipo.Weighted>
-10.4082

> <Gold.Chemscore.Internal_Hbond.Weighted>
0.0000

> <Gold.Chemscore.DEClash.Weighted>
0.0000

> <Gold.Chemscore.DEInternal.Weighted>
1.5612

> <Gold.Chemscore.Rot.Weighted>
4.1087

> <Gold.Chemscore.Internal.Correction.Weighted>
   9.000000E+99

> <Gold.Protein.RotatedTorsions>
[ 6907 6896 6895 6894 ] final -101.07 input  -60.11 | X-H torsion
[ 7974 7965 7964 7962 ] final -167.23 input  175.53 | X-H torsion
[ 8008 7997 7996 7995 ] final   18.50 input   59.86 | X-H torsion
[ 10167 10162 10161 10158 ] final   14.01 input  -65.29 | X-H torsion
[ 10718 10713 10712 10709 ] final -166.90 input   66.30 | X-H torsion
[ 10763 10752 10751 10750 ] final    0.80 input  -60.55 | X-H torsion
[ 11005 11000 10999 10996 ] final -164.18 input  -57.11 | X-H torsion

> <Gold.Protein.ActiveResidues>
 VAL166  LYS551  ARG553  GLY616  TRP617  ASP618  TYR619  PRO620  LYS621  CYS622 
 ASP623  PHE694  ASN695  SER759  ASP760  ASP761  ALA762  ILE779  LEU786  VAL792 
 PHE793  MET794  SER795  GLU796  ALA797  LYS798  CYS799  TRP800  GLU811  SER814 

> <Gold.Protein.RotatedAtoms>
  150.7140  134.0791  159.3891 H   0  0  0  0  0  0  0  0  0  0  0  0  # atno 6907 bound_to 6896
  151.8774  135.0464  160.0495 H   0  0  0  0  0  0  0  0  0  0  0  0  # atno 6908 bound_to 6896
  152.2595  133.5249  159.5409 H   0  0  0  0  0  0  0  0  0  0  0  0  # atno 6909 bound_to 6896
  144.7228  140.2550  143.6273 H   0  0  0  0  0  0  0  0  0  0  0  0  # atno 7974 bound_to 7965
  154.9069  140.3008  155.5287 H   0  0  0  0  0  0  0  0  0  0  0  0  # atno 8008 bound_to 7997
  156.3016  140.2396  156.4039 H   0  0  0  0  0  0  0  0  0  0  0  0  # atno 8009 bound_to 7997
  154.8464  140.0411  157.1564 H   0  0  0  0  0  0  0  0  0  0  0  0  # atno 8010 bound_to 7997
  140.5964  143.8693  150.6922 H   0  0  0  0  0  0  0  0  0  0  0  0  # atno 10167 bound_to 10162
  156.6746  130.9098  151.3048 H   0  0  0  0  0  0  0  0  0  0  0  0  # atno 10718 bound_to 10713
  153.3161  135.6966  153.7072 H   0  0  0  0  0  0  0  0  0  0  0  0  # atno 10763 bound_to 10752
  153.5930  135.3476  155.2918 H   0  0  0  0  0  0  0  0  0  0  0  0  # atno 10764 bound_to 10752
  154.8587  135.4322  154.2313 H   0  0  0  0  0  0  0  0  0  0  0  0  # atno 10765 bound_to 10752
  140.5897  134.5057  157.5191 H   0  0  0  0  0  0  0  0  0  0  0  0  # atno 11005 bound_to 11000
  145.8191  139.2036  143.1948 LP  0  0  0  0  0  0  0  0  0  0  0  0  # atno 17320 bound_to 7965
  146.0529  140.8050  142.9772 LP  0  0  0  0  0  0  0  0  0  0  0  0  # atno 17321 bound_to 7965
  140.2228  143.3795  152.1629 LP  0  0  0  0  0  0  0  0  0  0  0  0  # atno 17342 bound_to 10162
  139.5261  144.7104  151.5225 LP  0  0  0  0  0  0  0  0  0  0  0  0  # atno 17343 bound_to 10162
  157.7065  130.9391  150.0948 LP  0  0  0  0  0  0  0  0  0  0  0  0  # atno 17370 bound_to 10713
  156.1913  130.3655  149.8907 LP  0  0  0  0  0  0  0  0  0  0  0  0  # atno 17371 bound_to 10713
  139.9279  134.8019  156.1014 LP  0  0  0  0  0  0  0  0  0  0  0  0  # atno 17394 bound_to 11000
  141.0943  133.6702  156.2609 LP  0  0  0  0  0  0  0  0  0  0  0  0  # atno 17395 bound_to 11000

$$$$
