AV-unprocessed.smi:2451|AV-procd|sdf|9684|dock6
  -GOLD-   2272013323D 1   1.00000     0.00000
 Structure written by MMmdl.
 37 38  0  0  0  0  0  0  0  0  2 V2000
  152.4827  143.8202  159.3050 C   0  0  0  0  0  0  0  0  0  0  0  0
  152.8075  142.3436  159.0130 C   0  0  1  0  0  0  0  0  0  0  0  0
  153.4111  141.6964  160.2852 C   0  0  0  0  0  0  0  0  0  0  0  0
  153.7353  140.2106  160.0384 C   0  0  0  0  0  0  0  0  0  0  0  0
  152.5149  139.4149  159.5144 C   0  0  0  0  0  0  0  0  0  0  0  0
  151.8699  140.0227  158.2459 C   0  0  2  0  0  0  0  0  0  0  0  0
  152.7629  139.8364  157.1072 N   0  5  0  0  0  0  0  0  0  0  0  0
  152.3056  138.8908  155.8730 S   0  0  0  0  0  0  0  0  0  0  0  0
  151.8223  139.6637  154.7171 O   0  0  0  0  0  0  0  0  0  0  0  0
  153.2694  137.8122  155.5982 O   0  0  0  0  0  0  0  0  0  0  0  0
  150.8220  138.0776  156.6050 C   0  0  0  0  0  0  0  0  0  0  0  0
  150.9862  136.5841  156.5824 C   0  0  0  0  0  0  0  0  0  0  0  0
  150.3622  135.6395  155.7208 C   0  0  0  0  0  0  0  0  0  0  0  0
  150.8737  134.4437  156.1345 C   0  0  0  0  0  0  0  0  0  0  0  0
  151.7460  134.6279  157.1572 O   0  0  0  0  0  0  0  0  0  0  0  0
  151.8145  135.9982  157.4335 N   0  0  0  0  0  0  0  0  0  0  0  0
  151.5702  141.5404  158.4789 C   0  0  2  0  0  0  0  0  0  0  0  0
  150.8895  142.2054  157.2556 C   0  0  0  0  0  0  0  0  0  0  0  0
  151.6506  143.9127  160.0035 H   0  0  0  0  0  0  0  0  0  0  0  0
  152.2252  144.3650  158.3972 H   0  0  0  0  0  0  0  0  0  0  0  0
  153.3411  144.3303  159.7431 H   0  0  0  0  0  0  0  0  0  0  0  0
  153.5832  142.3442  158.2440 H   0  0  0  0  0  0  0  0  0  0  0  0
  154.3148  142.2248  160.5906 H   0  0  0  0  0  0  0  0  0  0  0  0
  152.7051  141.7803  161.1126 H   0  0  0  0  0  0  0  0  0  0  0  0
  154.5682  140.1324  159.3369 H   0  0  0  0  0  0  0  0  0  0  0  0
  154.0890  139.7596  160.9657 H   0  0  0  0  0  0  0  0  0  0  0  0
  152.7991  138.3777  159.3312 H   0  0  0  0  0  0  0  0  0  0  0  0
  151.7627  139.3798  160.3034 H   0  0  0  0  0  0  0  0  0  0  0  0
  150.9182  139.5141  158.0860 H   0  0  0  0  0  0  0  0  0  0  0  0
  150.7056  138.4393  157.6263 H   0  0  0  0  0  0  0  0  0  0  0  0
  149.9454  138.3932  156.0388 H   0  0  0  0  0  0  0  0  0  0  0  0
  149.6477  135.8141  154.9303 H   0  0  0  0  0  0  0  0  0  0  0  0
  150.7247  133.4226  155.8156 H   0  0  0  0  0  0  0  0  0  0  0  0
  150.8258  141.5708  159.2761 H   0  0  0  0  0  0  0  0  0  0  0  0
  151.5839  142.3394  156.4244 H   0  0  0  0  0  0  0  0  0  0  0  0
  150.4951  143.1887  157.5084 H   0  0  0  0  0  0  0  0  0  0  0  0
  150.0378  141.6297  156.8870 H   0  0  0  0  0  0  0  0  0  0  0  0
  1  2  1  0  0  0  0
  1 19  1  0  0  0  0
  1 20  1  0  0  0  0
  1 21  1  0  0  0  0
  2 17  1  0  0  0  0
  2  3  1  0  0  0  0
  2 22  1  0  0  0  0
  3  4  1  0  0  0  0
  3 23  1  0  0  0  0
  3 24  1  0  0  0  0
  4  5  1  0  0  0  0
  4 25  1  0  0  0  0
  4 26  1  0  0  0  0
  5  6  1  0  0  0  0
  5 27  1  0  0  0  0
  5 28  1  0  0  0  0
  6  7  1  0  0  0  0
  6 17  1  0  0  0  0
  6 29  1  0  0  0  0
  7  8  1  0  0  0  0
  8  9  2  0  0  0  0
  8 10  2  0  0  0  0
  8 11  1  0  0  0  0
 11 12  1  0  0  0  0
 11 30  1  0  0  0  0
 11 31  1  0  0  0  0
 12 16  2  0  0  0  0
 12 13  1  0  0  0  0
 13 14  2  0  0  0  0
 13 32  1  0  0  0  0
 14 15  1  0  0  0  0
 14 33  1  0  0  0  0
 15 16  1  0  0  0  0
 17 18  1  0  0  0  0
 17 34  1  0  0  0  0
 18 35  1  0  0  0  0
 18 36  1  0  0  0  0
 18 37  1  0  0  0  0
M  CHG  1   7  -1
M  END
> <s_m_source_file>
AV-unprocessed.smi

> <i_m_source_file_index>
2451

> <i_lp_mmshare_version>
43012

> <i_f3d_flags>
0

> <s_epik_input>
W0NIM11bQ0BASF0xW0NIMl1bQ0gyXVtDSDJdW0NASF0oW0NASF0xW0NIM10pW05IXVMoPU8pKD1PKVtDSDJdYzJbY0hdW2NIXW9uMg==

> <s_epik_cmdline>
J2VwaWtfcHl0aG9uJywgJy1waCcsICc3LjAnLCAnLXRuJywgJzgnLCAnLW1hJywgJzIwMCcsICctbWV0YWxfYmluZGluZycsICctaW1hZScsICc8aW5maWxlLm1hZT4nLCAnLW9tYWUnLCAnPG91dGZpbGUubWFlPic=

> <r_lp_tautomer_probability>
1

> <r_epik_Ionization_Penalty>
5.22693

> <r_epik_Ionization_Penalty_Charging>
5.22693

> <r_epik_Ionization_Penalty_Neutral>
2.67702e-10

> <r_epik_State_Penalty>
5.22685

> <r_epik_Charging_Adjusted_Penalty>
10.4538

> <i_epik_Tot_Q>
-1

> <i_epik_Tot_abs_Q>
1

> <r_epik_Metal_State_Penalty>
1.28716

> <b_epik_Metal_Only>
1

> <s_lp_Force_Field>
OPLS_2005

> <r_lp_Energy>
15.3657

> <b_lp_Chiralities_Consistent>
1

> <s_lp_Variant>
AV-unprocessed.smi:2451-16

> <Gold.Version>
5.8.1

> <Gold.Id.Protein>
6NUR|6NUR_protein|mol2

> <Gold.PLP.Fitness>
43.0570

> <Gold.PLP.PLP>
-34.7245

> <Gold.PLP.part.hbond>
-4.6157

> <Gold.PLP.part.metal>
0.0000

> <Gold.PLP.part.buried>
-5.0114

> <Gold.PLP.part.nonpolar>
-24.8483

> <Gold.PLP.part.repulsive>
0.0632

> <Gold.PLP.ligand.clash>
0.0000

> <Gold.PLP.ligand.torsion>
0.8447

> <Gold.PLP.Chemscore.Hbond>
3.0117

> <Gold.PLP.Chemscore.CHOScore>
0.0000

> <Gold.PLP.Chemscore.Metal>
0.0000

> <Gold.Chemscore.Hbonds>
donor molecule, donor type, donor heavy atom, donor atom, acceptor molecule, acceptor atom, score
      P1  H  7989  7998       L1     9  1.00
      P1  H  7997  8009       L1     7  1.90
      P1  H 10752 10764       L1    10  0.01

> <Gold.PLP.Chemscore.Internal.Correction>
0.9868

> <Gold.Rescore>
     Score         DG    S(hbond)    S(metal)    S(lipo)     H(rot)  DE(clash)    DE(int)     intcor
     19.55     -20.98       3.16        0.00      72.93       1.40       0.24       1.19       ----

> <Gold.Chemscore.Fitness>
19.5541

> <Gold.Chemscore.DG>
-20.9834

> <Gold.Chemscore.ZeroCoef>
-5.4800

> <Gold.Chemscore.Hbond>
3.1589

> <Gold.Chemscore.Metal>
0.0000

> <Gold.Chemscore.Lipo>
72.9327

> <Gold.Chemscore.Internal_Hbond>
0.0000

> <Gold.Chemscore.DEClash>
0.2424

> <Gold.Chemscore.DEInternal>
1.1869

> <Gold.Chemscore.Rot>
1.3986

> <Gold.Chemscore.Internal.Correction>
   9.000000E+99

> <Gold.Chemscore.Hbonds>
donor molecule, donor type, donor heavy atom, donor atom, acceptor molecule, acceptor atom, score
      P1  H  7989  7998       L1     9  0.95
      P1  H  7997  8009       L1     7  0.22
      P1  H 10752 10764       L1    10  0.03

> <Gold.Chemscore.Hbond.Weighted>
-10.5506

> <Gold.Chemscore.Metal.Weighted>
-0.0000

> <Gold.Chemscore.Lipo.Weighted>
-8.5331

> <Gold.Chemscore.Internal_Hbond.Weighted>
0.0000

> <Gold.Chemscore.DEClash.Weighted>
0.2424

> <Gold.Chemscore.DEInternal.Weighted>
1.1869

> <Gold.Chemscore.Rot.Weighted>
3.5804

> <Gold.Chemscore.Internal.Correction.Weighted>
   9.000000E+99

> <Gold.Protein.RotatedTorsions>
[ 6907 6896 6895 6894 ] final -121.19 input  -60.11 | X-H torsion
[ 7974 7965 7964 7962 ] final   74.70 input  175.53 | X-H torsion
[ 8008 7997 7996 7995 ] final  178.42 input   59.86 | X-H torsion
[ 10167 10162 10161 10158 ] final   82.73 input  -65.29 | X-H torsion
[ 10718 10713 10712 10709 ] final   31.88 input   66.30 | X-H torsion
[ 10763 10752 10751 10750 ] final  -54.39 input  -60.55 | X-H torsion
[ 11005 11000 10999 10996 ] final   -6.21 input  -57.11 | X-H torsion

> <Gold.Protein.ActiveResidues>
 VAL166  LYS551  ARG553  GLY616  TRP617  ASP618  TYR619  PRO620  LYS621  CYS622 
 ASP623  PHE694  ASN695  SER759  ASP760  ASP761  ALA762  ILE779  LEU786  VAL792 
 PHE793  MET794  SER795  GLU796  ALA797  LYS798  CYS799  TRP800  GLU811  SER814 

> <Gold.Protein.RotatedAtoms>
  150.8461  133.7859  159.3042 H   0  0  0  0  0  0  0  0  0  0  0  0  # atno 6907 bound_to 6896
  151.5546  135.1065  159.9967 H   0  0  0  0  0  0  0  0  0  0  0  0  # atno 6908 bound_to 6896
  152.4514  133.7595  159.6795 H   0  0  0  0  0  0  0  0  0  0  0  0  # atno 6909 bound_to 6896
  145.7250  139.2662  143.1574 H   0  0  0  0  0  0  0  0  0  0  0  0  # atno 7974 bound_to 7965
  156.0548  140.1334  157.0009 H   0  0  0  0  0  0  0  0  0  0  0  0  # atno 8008 bound_to 7997
  154.4452  140.1003  156.6500 H   0  0  0  0  0  0  0  0  0  0  0  0  # atno 8009 bound_to 7997
  155.5468  140.3462  155.4461 H   0  0  0  0  0  0  0  0  0  0  0  0  # atno 8010 bound_to 7997
  139.9258  144.6184  150.8394 H   0  0  0  0  0  0  0  0  0  0  0  0  # atno 10167 bound_to 10162
  157.2782  130.7241  149.6541 H   0  0  0  0  0  0  0  0  0  0  0  0  # atno 10718 bound_to 10713
  154.1741  135.6454  153.5017 H   0  0  0  0  0  0  0  0  0  0  0  0  # atno 10763 bound_to 10752
  153.0076  135.5390  154.6582 H   0  0  0  0  0  0  0  0  0  0  0  0  # atno 10764 bound_to 10752
  154.5929  135.2936  155.0589 H   0  0  0  0  0  0  0  0  0  0  0  0  # atno 10765 bound_to 10752
  140.6995  133.9002  155.8673 H   0  0  0  0  0  0  0  0  0  0  0  0  # atno 11005 bound_to 11000
  146.0591  140.7990  142.9744 LP  0  0  0  0  0  0  0  0  0  0  0  0  # atno 17320 bound_to 7965
  144.6907  140.3169  143.7239 LP  0  0  0  0  0  0  0  0  0  0  0  0  # atno 17321 bound_to 7965
  140.7650  143.3265  151.2505 LP  0  0  0  0  0  0  0  0  0  0  0  0  # atno 17342 bound_to 10162
  139.6823  143.9833  152.2815 LP  0  0  0  0  0  0  0  0  0  0  0  0  # atno 17343 bound_to 10162
  155.9664  130.4346  150.5058 LP  0  0  0  0  0  0  0  0  0  0  0  0  # atno 17370 bound_to 10713
  157.2996  131.0642  151.2077 LP  0  0  0  0  0  0  0  0  0  0  0  0  # atno 17371 bound_to 10713
  141.0175  134.0934  157.4156 LP  0  0  0  0  0  0  0  0  0  0  0  0  # atno 17394 bound_to 11000
  139.8901  135.0109  156.6715 LP  0  0  0  0  0  0  0  0  0  0  0  0  # atno 17395 bound_to 11000

$$$$
