AV-unprocessed.smi:2928|AV-procd|sdf|11235|dock2
  -GOLD-   2272016123D 1   1.00000     0.00000
 Structure written by MMmdl.
 56 59  0  0  0  0  0  0  0  0  3 V2000
  149.7465  140.9297  157.0123 C   0  0  0  0  0  0  0  0  0  0  0  0
  150.2713  139.6276  156.5360 N   0  3  2  0  0  0  0  0  0  0  0  0
  150.3409  139.4857  155.0619 C   0  0  2  0  0  0  0  0  0  0  0  0
  148.9266  139.3810  154.4357 C   0  0  0  0  0  0  0  0  0  0  0  0
  148.0182  138.3234  155.0904 C   0  0  0  0  0  0  0  0  0  0  0  0
  148.1607  138.2803  156.6225 C   0  0  0  0  0  0  0  0  0  0  0  0
  149.6159  138.4383  157.1303 C   0  0  1  0  0  0  0  0  0  0  0  0
  150.5236  137.2035  156.9233 C   0  0  0  0  0  0  0  0  0  0  0  0
  151.0781  137.0056  155.4851 C   0  0  1  0  0  0  0  0  0  0  0  0
  150.3000  136.0559  154.6943 N   0  0  0  0  0  0  0  0  0  0  0  0
  150.2236  134.7336  154.9016 C   0  0  0  0  0  0  0  0  0  0  0  0
  150.8366  134.1450  155.7914 O   0  0  0  0  0  0  0  0  0  0  0  0
  149.3765  134.1594  154.0327 N   0  0  0  0  0  0  0  0  0  0  0  0
  148.9446  132.8044  153.9954 C   0  0  0  0  0  0  0  0  0  0  0  0
  149.6718  131.7525  154.6081 C   0  0  0  0  0  0  0  0  0  0  0  0
  149.1944  130.4299  154.5160 C   0  0  0  0  0  0  0  0  0  0  0  0
  148.0046  130.1784  153.8077 C   0  0  0  0  0  0  0  0  0  0  0  0
  147.3448  131.1999  153.2226 N   0  3  0  0  0  0  0  0  0  0  0  0
  147.7619  132.4885  153.2801 C   0  0  0  0  0  0  0  0  0  0  0  0
  147.0022  133.4812  152.6375 N   0  0  0  0  0  0  0  0  0  0  0  0
  146.8550  133.3242  151.2004 C   0  0  0  0  0  0  0  0  0  0  0  0
  145.7139  134.2646  150.8037 C   0  0  0  0  0  0  0  0  0  0  0  0
  144.9276  134.5007  152.0994 C   0  0  0  0  0  0  0  0  0  0  0  0
  145.6604  133.6757  153.1602 C   0  0  0  0  0  0  0  0  0  0  0  0
  151.3076  138.3293  154.7123 C   0  0  0  0  0  0  0  0  0  0  0  0
  148.7086  141.0898  156.7223 H   0  0  0  0  0  0  0  0  0  0  0  0
  150.3403  141.7494  156.6073 H   0  0  0  0  0  0  0  0  0  0  0  0
  149.8054  140.9875  158.0995 H   0  0  0  0  0  0  0  0  0  0  0  0
  150.7973  140.3928  154.6629 H   0  0  0  0  0  0  0  0  0  0  0  0
  148.4360  140.3511  154.5215 H   0  0  0  0  0  0  0  0  0  0  0  0
  149.0018  139.1914  153.3646 H   0  0  0  0  0  0  0  0  0  0  0  0
  146.9793  138.5281  154.8302 H   0  0  0  0  0  0  0  0  0  0  0  0
  148.2093  137.3438  154.6665 H   0  0  0  0  0  0  0  0  0  0  0  0
  147.5548  139.0822  157.0452 H   0  0  0  0  0  0  0  0  0  0  0  0
  147.7261  137.3575  157.0080 H   0  0  0  0  0  0  0  0  0  0  0  0
  149.5596  138.5958  158.2085 H   0  0  0  0  0  0  0  0  0  0  0  0
  151.3854  137.3317  157.5799 H   0  0  0  0  0  0  0  0  0  0  0  0
  150.0273  136.3040  157.2889 H   0  0  0  0  0  0  0  0  0  0  0  0
  152.0607  136.5400  155.5847 H   0  0  0  0  0  0  0  0  0  0  0  0
  149.7602  136.4425  153.9339 H   0  0  0  0  0  0  0  0  0  0  0  0
  148.8895  134.7862  153.4089 H   0  0  0  0  0  0  0  0  0  0  0  0
  150.5950  131.9363  155.1362 H   0  0  0  0  0  0  0  0  0  0  0  0
  149.7371  129.6191  154.9796 H   0  0  0  0  0  0  0  0  0  0  0  0
  147.5668  129.1980  153.6871 H   0  0  0  0  0  0  0  0  0  0  0  0
  147.7803  133.5753  150.6809 H   0  0  0  0  0  0  0  0  0  0  0  0
  146.5968  132.2940  150.9511 H   0  0  0  0  0  0  0  0  0  0  0  0
  146.1120  135.2104  150.4339 H   0  0  0  0  0  0  0  0  0  0  0  0
  145.0956  133.8342  150.0152 H   0  0  0  0  0  0  0  0  0  0  0  0
  144.9513  135.5597  152.3598 H   0  0  0  0  0  0  0  0  0  0  0  0
  143.8820  134.2039  152.0117 H   0  0  0  0  0  0  0  0  0  0  0  0
  145.1605  132.7161  153.3000 H   0  0  0  0  0  0  0  0  0  0  0  0
  145.6832  134.1879  154.1226 H   0  0  0  0  0  0  0  0  0  0  0  0
  151.3239  138.1553  153.6355 H   0  0  0  0  0  0  0  0  0  0  0  0
  152.3140  138.6726  154.9569 H   0  0  0  0  0  0  0  0  0  0  0  0
  151.2280  139.6043  156.8597 H   0  0  0  0  0  0  0  0  0  0  0  0
  146.4870  130.9908  152.7115 H   0  0  0  0  0  0  0  0  0  0  0  0
  1  2  1  0  0  0  0
  1 26  1  0  0  0  0
  1 27  1  0  0  0  0
  1 28  1  0  0  0  0
  2  7  1  0  0  0  0
  2  3  1  0  0  0  0
  2 55  1  0  0  0  0
  3 25  1  0  0  0  0
  3  4  1  0  0  0  0
  3 29  1  0  0  0  0
  4  5  1  0  0  0  0
  4 30  1  0  0  0  0
  4 31  1  0  0  0  0
  5  6  1  0  0  0  0
  5 32  1  0  0  0  0
  5 33  1  0  0  0  0
  6  7  1  0  0  0  0
  6 34  1  0  0  0  0
  6 35  1  0  0  0  0
  7  8  1  0  0  0  0
  7 36  1  0  0  0  0
  8  9  1  0  0  0  0
  8 37  1  0  0  0  0
  8 38  1  0  0  0  0
  9 10  1  0  0  0  0
  9 25  1  0  0  0  0
  9 39  1  0  0  0  0
 10 11  1  0  0  0  0
 10 40  1  0  0  0  0
 11 12  2  0  0  0  0
 11 13  1  0  0  0  0
 13 14  1  0  0  0  0
 13 41  1  0  0  0  0
 14 19  1  0  0  0  0
 14 15  2  0  0  0  0
 15 16  1  0  0  0  0
 15 42  1  0  0  0  0
 16 17  2  0  0  0  0
 16 43  1  0  0  0  0
 17 18  1  0  0  0  0
 17 44  1  0  0  0  0
 18 19  2  0  0  0  0
 18 56  1  0  0  0  0
 19 20  1  0  0  0  0
 20 24  1  0  0  0  0
 20 21  1  0  0  0  0
 21 22  1  0  0  0  0
 21 45  1  0  0  0  0
 21 46  1  0  0  0  0
 22 23  1  0  0  0  0
 22 47  1  0  0  0  0
 22 48  1  0  0  0  0
 23 24  1  0  0  0  0
 23 49  1  0  0  0  0
 23 50  1  0  0  0  0
 24 51  1  0  0  0  0
 24 52  1  0  0  0  0
 25 53  1  0  0  0  0
 25 54  1  0  0  0  0
M  CHG  1   2   1
M  CHG  1  18   1
M  END
> <s_m_source_file>
AV-unprocessed.smi

> <i_m_source_file_index>
2928

> <i_lp_mmshare_version>
43012

> <i_f3d_flags>
0

> <s_epik_input>
W0NIMl0xW0NIMl1bQ0gyXVtDQEhdKE4oW0NIM10pW0NIXTEyKVtDSDJdW0NASF0oW0NIMl0yKVtOSF1DKD1PKVtOSF1jM1tjSF1bY0hdW2NIXW5jM040W0NIMl1bQ0gyXVtDSDJdW0NIMl00

> <s_epik_cmdline>
J2VwaWtfcHl0aG9uJywgJy1waCcsICc3LjAnLCAnLXRuJywgJzgnLCAnLW1hJywgJzIwMCcsICctbWV0YWxfYmluZGluZycsICctaW1hZScsICc8aW5maWxlLm1hZT4nLCAnLW9tYWUnLCAnPG91dGZpbGUubWFlPic=

> <r_lp_tautomer_probability>
0.999994

> <r_epik_Ionization_Penalty>
1.2404

> <r_epik_Ionization_Penalty_Charging>
1.24038

> <r_epik_Ionization_Penalty_Neutral>
1.86539e-05

> <r_epik_State_Penalty>
1.30821

> <r_epik_Charging_Adjusted_Penalty>
2.54859

> <i_epik_Tot_Q>
2

> <i_epik_Tot_abs_Q>
2

> <r_epik_Metal_State_Penalty>
1.3782

> <b_epik_Metal_Only>
0

> <s_lp_Force_Field>
OPLS_2005

> <r_lp_Energy>
75.6224

> <b_lp_Chiralities_Consistent>
1

> <s_lp_Variant>
AV-unprocessed.smi:2928-5

> <Gold.Version>
5.8.1

> <Gold.Id.Protein>
6NUR|6NUR_protein|mol2

> <Gold.PLP.Fitness>
40.1520

> <Gold.PLP.PLP>
-34.9070

> <Gold.PLP.part.hbond>
-3.0060

> <Gold.PLP.part.metal>
0.0000

> <Gold.PLP.part.buried>
-2.1856

> <Gold.PLP.part.nonpolar>
-29.2336

> <Gold.PLP.part.repulsive>
0.3221

> <Gold.PLP.ligand.clash>
0.0000

> <Gold.PLP.ligand.torsion>
0.2699

> <Gold.PLP.Chemscore.Hbond>
1.9040

> <Gold.PLP.Chemscore.CHOScore>
0.0000

> <Gold.PLP.Chemscore.Metal>
0.0000

> <Gold.Chemscore.Hbonds>
donor molecule, donor type, donor heavy atom, donor atom, acceptor molecule, acceptor atom, score
      L1  H    10    40       P1  7948  0.55
      L1  H    13    41       P1  7948  0.84

> <Gold.PLP.Chemscore.Internal.Correction>
0.0729

> <Gold.Rescore>
     Score         DG    S(hbond)    S(metal)    S(lipo)     H(rot)  DE(clash)    DE(int)     intcor
     14.04     -15.57       1.22        0.00      77.34       1.19       0.03       1.50       ----

> <Gold.Chemscore.Fitness>
14.0380

> <Gold.Chemscore.DG>
-15.5679

> <Gold.Chemscore.ZeroCoef>
-5.4800

> <Gold.Chemscore.Hbond>
1.2217

> <Gold.Chemscore.Metal>
0.0000

> <Gold.Chemscore.Lipo>
77.3386

> <Gold.Chemscore.Internal_Hbond>
0.0000

> <Gold.Chemscore.DEClash>
0.0316

> <Gold.Chemscore.DEInternal>
1.4983

> <Gold.Chemscore.Rot>
1.1879

> <Gold.Chemscore.Internal.Correction>
   9.000000E+99

> <Gold.Chemscore.Hbonds>
donor molecule, donor type, donor heavy atom, donor atom, acceptor molecule, acceptor atom, score
      L1  H    10    40       P1  7948  0.27
      L1  H    13    41       P1  7948  0.20

> <Gold.Chemscore.Hbond.Weighted>
-4.0803

> <Gold.Chemscore.Metal.Weighted>
-0.0000

> <Gold.Chemscore.Lipo.Weighted>
-9.0486

> <Gold.Chemscore.Internal_Hbond.Weighted>
0.0000

> <Gold.Chemscore.DEClash.Weighted>
0.0316

> <Gold.Chemscore.DEInternal.Weighted>
1.4983

> <Gold.Chemscore.Rot.Weighted>
3.0410

> <Gold.Chemscore.Internal.Correction.Weighted>
   9.000000E+99

> <Gold.Protein.RotatedTorsions>
[ 6907 6896 6895 6894 ] final  146.00 input  -60.11 | X-H torsion
[ 7974 7965 7964 7962 ] final -135.29 input  175.53 | X-H torsion
[ 8008 7997 7996 7995 ] final   31.80 input   59.86 | X-H torsion
[ 10167 10162 10161 10158 ] final  118.88 input  -65.29 | X-H torsion
[ 10718 10713 10712 10709 ] final  119.03 input   66.30 | X-H torsion
[ 10763 10752 10751 10750 ] final -177.96 input  -60.55 | X-H torsion
[ 11005 11000 10999 10996 ] final -168.95 input  -57.11 | X-H torsion

> <Gold.Protein.ActiveResidues>
 VAL166  LYS551  ARG553  GLY616  TRP617  ASP618  TYR619  PRO620  LYS621  CYS622 
 ASP623  PHE694  ASN695  SER759  ASP760  ASP761  ALA762  ILE779  LEU786  VAL792 
 PHE793  MET794  SER795  GLU796  ALA797  LYS798  CYS799  TRP800  GLU811  SER814 

> <Gold.Protein.RotatedAtoms>
  152.1736  133.4660  159.4921 H   0  0  0  0  0  0  0  0  0  0  0  0  # atno 6907 bound_to 6896
  150.6923  134.1922  159.4298 H   0  0  0  0  0  0  0  0  0  0  0  0  # atno 6908 bound_to 6896
  151.9830  135.0018  160.0609 H   0  0  0  0  0  0  0  0  0  0  0  0  # atno 6909 bound_to 6896
  144.9027  140.6793  143.5074 H   0  0  0  0  0  0  0  0  0  0  0  0  # atno 7974 bound_to 7965
  155.1122  140.3240  155.4519 H   0  0  0  0  0  0  0  0  0  0  0  0  # atno 8008 bound_to 7997
  156.2687  140.2042  156.6193 H   0  0  0  0  0  0  0  0  0  0  0  0  # atno 8009 bound_to 7997
  154.6747  140.0532  157.0190 H   0  0  0  0  0  0  0  0  0  0  0  0  # atno 8010 bound_to 7997
  139.6083  144.7075  151.2903 H   0  0  0  0  0  0  0  0  0  0  0  0  # atno 10167 bound_to 10162
  157.5990  131.1054  150.7839 H   0  0  0  0  0  0  0  0  0  0  0  0  # atno 10718 bound_to 10713
  154.5536  135.2815  155.0985 H   0  0  0  0  0  0  0  0  0  0  0  0  # atno 10763 bound_to 10752
  154.2421  135.6355  153.5214 H   0  0  0  0  0  0  0  0  0  0  0  0  # atno 10764 bound_to 10752
  153.0009  135.5562  154.6110 H   0  0  0  0  0  0  0  0  0  0  0  0  # atno 10765 bound_to 10752
  140.5362  134.5567  157.5088 H   0  0  0  0  0  0  0  0  0  0  0  0  # atno 11005 bound_to 11000
  145.3588  139.1687  143.4394 LP  0  0  0  0  0  0  0  0  0  0  0  0  # atno 17320 bound_to 7965
  146.3117  140.3648  142.8668 LP  0  0  0  0  0  0  0  0  0  0  0  0  # atno 17321 bound_to 7965
  140.7300  143.6891  150.7937 LP  0  0  0  0  0  0  0  0  0  0  0  0  # atno 17342 bound_to 10162
  140.0480  143.5278  152.2687 LP  0  0  0  0  0  0  0  0  0  0  0  0  # atno 17343 bound_to 10162
  156.8242  130.4994  149.5339 LP  0  0  0  0  0  0  0  0  0  0  0  0  # atno 17370 bound_to 10713
  156.1059  130.6004  150.9969 LP  0  0  0  0  0  0  0  0  0  0  0  0  # atno 17371 bound_to 10713
  139.9528  134.7588  156.0410 LP  0  0  0  0  0  0  0  0  0  0  0  0  # atno 17394 bound_to 11000
  141.1253  133.6601  156.3320 LP  0  0  0  0  0  0  0  0  0  0  0  0  # atno 17395 bound_to 11000

$$$$
