AV-unprocessed.smi:45|AV-procd|sdf|416|dock1
  -GOLD-   2262016283D 1   1.00000     0.00000
 Structure written by MMmdl.
 60 63  0  0  0  0  0  0  0  0  3 V2000
  146.8616  135.8864  162.8523 C   0  0  0  0  0  0  0  0  0  0  0  0
  147.0894  134.7214  162.0728 O   0  0  0  0  0  0  0  0  0  0  0  0
  146.8133  134.7749  160.7222 C   0  0  0  0  0  0  0  0  0  0  0  0
  146.2244  135.8948  160.0815 C   0  0  0  0  0  0  0  0  0  0  0  0
  145.9727  135.8763  158.6962 C   0  0  0  0  0  0  0  0  0  0  0  0
  146.3032  134.7423  157.9284 C   0  0  0  0  0  0  0  0  0  0  0  0
  146.0327  134.7244  156.4371 C   0  0  0  0  0  0  0  0  0  0  0  0
  147.2279  134.9484  155.6373 N   0  0  0  0  0  0  0  0  0  0  0  0
  147.5745  134.0964  154.5745 C   0  0  0  0  0  0  0  0  0  0  0  0
  146.7326  134.0296  153.5176 N   0  0  0  0  0  0  0  0  0  0  0  0
  147.0172  133.2440  152.4701 C   0  0  0  0  0  0  0  0  0  0  0  0
  146.1238  133.2116  151.4006 N   0  0  0  0  0  0  0  0  0  0  0  0
  145.8841  131.9892  150.6407 C   0  0  0  0  0  0  0  0  0  0  0  0
  144.4220  132.0476  150.1953 C   0  0  0  0  0  0  0  0  0  0  0  0
  144.1569  133.5434  150.0734 C   0  0  0  0  0  0  0  0  0  0  0  0
  145.0066  134.1366  151.2072 C   0  0  2  0  0  0  0  0  0  0  0  0
  145.4271  135.6081  150.9884 C   0  0  0  0  0  0  0  0  0  0  0  0
  144.3158  136.4803  151.0179 O   0  0  0  0  0  0  0  0  0  0  0  0
  148.1370  132.5065  152.4197 N   0  3  0  0  0  0  0  0  0  0  0  0
  149.0143  132.5373  153.4514 C   0  0  0  0  0  0  0  0  0  0  0  0
  148.7744  133.3428  154.5864 C   0  0  0  0  0  0  0  0  0  0  0  0
  149.7425  133.3481  155.7428 C   0  0  0  0  0  0  0  0  0  0  0  0
  150.0601  134.4331  156.2428 O   0  0  0  0  0  0  0  0  0  0  0  0
  150.1562  132.0901  156.0568 N   0  5  0  0  0  0  0  0  0  0  0  0
  151.2484  131.7986  156.9842 C   0  0  0  0  0  0  0  0  0  0  0  0
  152.3862  131.0590  156.2946 C   0  0  0  0  0  0  0  0  0  0  0  0
  152.0541  129.9968  155.5500 N   0  0  0  0  0  0  0  0  0  0  0  0
  153.0592  129.3522  154.9188 C   0  0  0  0  0  0  0  0  0  0  0  0
  154.3993  129.7726  155.0352 C   0  0  0  0  0  0  0  0  0  0  0  0
  154.6298  130.9013  155.8466 C   0  0  0  0  0  0  0  0  0  0  0  0
  153.6213  131.5428  156.4759 N   0  0  0  0  0  0  0  0  0  0  0  0
  146.8888  133.6263  158.5572 C   0  0  0  0  0  0  0  0  0  0  0  0
  147.1409  133.6424  159.9431 C   0  0  0  0  0  0  0  0  0  0  0  0
  147.8586  132.2563  160.6831 Cl  0  0  0  0  0  0  0  0  0  0  0  0
  144.4134  134.0895  152.1216 H   0  0  0  0  0  0  0  0  0  0  0  0
  147.1320  135.6842  163.8885 H   0  0  0  0  0  0  0  0  0  0  0  0
  145.8104  136.1772  162.8372 H   0  0  0  0  0  0  0  0  0  0  0  0
  147.4733  136.7216  162.5092 H   0  0  0  0  0  0  0  0  0  0  0  0
  145.9550  136.7833  160.6317 H   0  0  0  0  0  0  0  0  0  0  0  0
  145.5234  136.7376  158.2236 H   0  0  0  0  0  0  0  0  0  0  0  0
  145.6012  133.7569  156.1778 H   0  0  0  0  0  0  0  0  0  0  0  0
  145.2895  135.4842  156.1912 H   0  0  0  0  0  0  0  0  0  0  0  0
  147.8173  135.7414  155.8496 H   0  0  0  0  0  0  0  0  0  0  0  0
  146.5499  131.9801  149.7771 H   0  0  0  0  0  0  0  0  0  0  0  0
  146.0772  131.0898  151.2266 H   0  0  0  0  0  0  0  0  0  0  0  0
  144.2375  131.5020  149.2695 H   0  0  0  0  0  0  0  0  0  0  0  0
  143.7820  131.6238  150.9706 H   0  0  0  0  0  0  0  0  0  0  0  0
  144.5015  133.8864  149.0972 H   0  0  0  0  0  0  0  0  0  0  0  0
  143.1001  133.7965  150.1615 H   0  0  0  0  0  0  0  0  0  0  0  0
  146.1137  135.9111  151.7793 H   0  0  0  0  0  0  0  0  0  0  0  0
  145.9604  135.7472  150.0493 H   0  0  0  0  0  0  0  0  0  0  0  0
  144.4355  137.1431  150.3544 H   0  0  0  0  0  0  0  0  0  0  0  0
  149.8850  131.9080  153.3351 H   0  0  0  0  0  0  0  0  0  0  0  0
  151.6502  132.7090  157.4324 H   0  0  0  0  0  0  0  0  0  0  0  0
  150.9074  131.1931  157.8255 H   0  0  0  0  0  0  0  0  0  0  0  0
  152.7927  128.4959  154.3173 H   0  0  0  0  0  0  0  0  0  0  0  0
  155.2040  129.2586  154.5312 H   0  0  0  0  0  0  0  0  0  0  0  0
  155.6264  131.2910  155.9916 H   0  0  0  0  0  0  0  0  0  0  0  0
  147.1449  132.7512  157.9779 H   0  0  0  0  0  0  0  0  0  0  0  0
  148.3391  131.9183  151.6117 H   0  0  0  0  0  0  0  0  0  0  0  0
  1  2  1  0  0  0  0
  1 36  1  0  0  0  0
  1 37  1  0  0  0  0
  1 38  1  0  0  0  0
  2  3  1  0  0  0  0
  3 33  1  0  0  0  0
  3  4  2  0  0  0  0
  4  5  1  0  0  0  0
  4 39  1  0  0  0  0
  5  6  2  0  0  0  0
  5 40  1  0  0  0  0
  6  7  1  0  0  0  0
  6 32  1  0  0  0  0
  7  8  1  0  0  0  0
  7 41  1  0  0  0  0
  7 42  1  0  0  0  0
  8  9  1  0  0  0  0
  8 43  1  0  0  0  0
  9 21  1  0  0  0  0
  9 10  2  0  0  0  0
 10 11  1  0  0  0  0
 11 12  1  0  0  0  0
 11 19  2  0  0  0  0
 12 16  1  0  0  0  0
 12 13  1  0  0  0  0
 13 14  1  0  0  0  0
 13 44  1  0  0  0  0
 13 45  1  0  0  0  0
 14 15  1  0  0  0  0
 14 46  1  0  0  0  0
 14 47  1  0  0  0  0
 15 16  1  0  0  0  0
 15 48  1  0  0  0  0
 15 49  1  0  0  0  0
 16 35  1  0  0  0  0
 16 17  1  0  0  0  0
 17 18  1  0  0  0  0
 17 50  1  0  0  0  0
 17 51  1  0  0  0  0
 18 52  1  0  0  0  0
 19 20  1  0  0  0  0
 19 60  1  0  0  0  0
 20 21  2  0  0  0  0
 20 53  1  0  0  0  0
 21 22  1  0  0  0  0
 22 23  2  0  0  0  0
 22 24  1  0  0  0  0
 24 25  1  0  0  0  0
 25 26  1  0  0  0  0
 25 54  1  0  0  0  0
 25 55  1  0  0  0  0
 26 31  1  0  0  0  0
 26 27  2  0  0  0  0
 27 28  1  0  0  0  0
 28 29  2  0  0  0  0
 28 56  1  0  0  0  0
 29 30  1  0  0  0  0
 29 57  1  0  0  0  0
 30 31  2  0  0  0  0
 30 58  1  0  0  0  0
 32 33  2  0  0  0  0
 32 59  1  0  0  0  0
 33 34  1  0  0  0  0
M  CHG  1  19   1
M  CHG  1  24  -1
M  END
> <s_m_source_file>
AV-unprocessed.smi

> <i_m_source_file_index>
45

> <i_lp_mmshare_version>
43012

> <i_f3d_flags>
0

> <s_epik_input>
W0NIM11PYzFbY0hdW2NIXWMoW2NIXWMxQ2wpW0NIMl1bTkhdYzJuYyhOM1tDSDJdW0NIMl1bQ0gyXVtDQEhdM1tDSDJdW09IXSluW2NIXWMyQyg9TylbTkhdW0NIMl1jNG5bY0hdW2NIXVtjSF1uNA==

> <s_epik_cmdline>
J2VwaWtfcHl0aG9uJywgJy1waCcsICc3LjAnLCAnLXRuJywgJzgnLCAnLW1hJywgJzIwMCcsICctbWV0YWxfYmluZGluZycsICctaW1hZScsICc8aW5maWxlLm1hZT4nLCAnLW9tYWUnLCAnPG91dGZpbGUubWFlPic=

> <r_lp_tautomer_probability>
0.575011

> <r_epik_Ionization_Penalty>
6.73124

> <r_epik_Ionization_Penalty_Charging>
6.73106

> <r_epik_Ionization_Penalty_Neutral>
0.000179426

> <r_epik_State_Penalty>
8.26145

> <r_epik_Charging_Adjusted_Penalty>
14.9925

> <i_epik_Tot_Q>
0

> <i_epik_Tot_abs_Q>
2

> <r_epik_Metal_State_Penalty>
4.22532

> <b_epik_Metal_Only>
1

> <s_epik_Chemistry_Notes>
This compound contains an electron-poor aromatic ring that is susceptible to covalent hydrolysis at low pH, typically resulting in measured values for nitrogen ring protonation that are around two units higher than predicted values.

> <s_lp_Force_Field>
OPLS_2005

> <r_lp_Energy>
47.4245

> <b_lp_Chiralities_Consistent>
1

> <s_lp_Variant>
AV-unprocessed.smi:45-10

> <Gold.Version>
5.8.1

> <Gold.Id.Protein>
6NUR|6NUR_protein|mol2

> <Gold.PLP.Fitness>
56.5864

> <Gold.PLP.PLP>
-50.5201

> <Gold.PLP.part.hbond>
-2.0000

> <Gold.PLP.part.metal>
0.0000

> <Gold.PLP.part.buried>
-9.1913

> <Gold.PLP.part.nonpolar>
-40.8210

> <Gold.PLP.part.repulsive>
0.1364

> <Gold.PLP.ligand.clash>
0.0000

> <Gold.PLP.ligand.torsion>
2.0875

> <Gold.PLP.Chemscore.Hbond>
1.9760

> <Gold.PLP.Chemscore.CHOScore>
1.0000

> <Gold.PLP.Chemscore.Metal>
0.0000

> <Gold.Chemscore.Hbonds>
donor molecule, donor type, donor heavy atom, donor atom, acceptor molecule, acceptor atom, score
      L1  H    18    52       P1 10171  0.88
      L1  H    19    60       P1 10747  1.00
      L1  C    28    56       P1 10737  0.39

> <Gold.PLP.Chemscore.Internal.Correction>
1.3133

> <Gold.Rescore>
     Score         DG    S(hbond)    S(metal)    S(lipo)     H(rot)  DE(clash)    DE(int)     intcor
     13.96     -17.21       1.99        0.00     106.76       2.90       0.11       3.15       ----

> <Gold.Chemscore.Fitness>
13.9586

> <Gold.Chemscore.DG>
-17.2129

> <Gold.Chemscore.ZeroCoef>
-5.4800

> <Gold.Chemscore.Hbond>
1.9948

> <Gold.Chemscore.Metal>
0.0000

> <Gold.Chemscore.Lipo>
106.7623

> <Gold.Chemscore.Internal_Hbond>
0.0000

> <Gold.Chemscore.DEClash>
0.1067

> <Gold.Chemscore.DEInternal>
3.1476

> <Gold.Chemscore.Rot>
2.8988

> <Gold.Chemscore.Internal.Correction>
   9.000000E+99

> <Gold.Chemscore.Hbonds>
donor molecule, donor type, donor heavy atom, donor atom, acceptor molecule, acceptor atom, score
      L1  H    18    52       P1 10171  0.86
      L1  H    19    60       P1 10747  1.00

> <Gold.Chemscore.Hbond.Weighted>
-6.6626

> <Gold.Chemscore.Metal.Weighted>
-0.0000

> <Gold.Chemscore.Lipo.Weighted>
-12.4912

> <Gold.Chemscore.Internal_Hbond.Weighted>
0.0000

> <Gold.Chemscore.DEClash.Weighted>
0.1067

> <Gold.Chemscore.DEInternal.Weighted>
3.1476

> <Gold.Chemscore.Rot.Weighted>
7.4209

> <Gold.Chemscore.Internal.Correction.Weighted>
   9.000000E+99

> <Gold.Protein.RotatedTorsions>
[ 6907 6896 6895 6894 ] final -117.29 input  -60.11 | X-H torsion
[ 7974 7965 7964 7962 ] final  102.27 input  175.53 | X-H torsion
[ 8008 7997 7996 7995 ] final -163.07 input   59.86 | X-H torsion
[ 10167 10162 10161 10158 ] final  131.01 input  -65.29 | X-H torsion
[ 10718 10713 10712 10709 ] final  -96.03 input   66.30 | X-H torsion
[ 10763 10752 10751 10750 ] final   47.41 input  -60.55 | X-H torsion
[ 11005 11000 10999 10996 ] final  142.11 input  -57.11 | X-H torsion

> <Gold.Protein.ActiveResidues>
 VAL166  LYS551  ARG553  GLY616  TRP617  ASP618  TYR619  PRO620  LYS621  CYS622 
 ASP623  PHE694  ASN695  SER759  ASP760  ASP761  ALA762  ILE779  LEU786  VAL792 
 PHE793  MET794  SER795  GLU796  ALA797  LYS798  CYS799  TRP800  GLU811  SER814 

> <Gold.Protein.RotatedAtoms>
  150.8125  133.8397  159.3175 H   0  0  0  0  0  0  0  0  0  0  0  0  # atno 6907 bound_to 6896
  151.6178  135.1033  160.0104 H   0  0  0  0  0  0  0  0  0  0  0  0  # atno 6908 bound_to 6896
  152.4216  133.7086  159.6522 H   0  0  0  0  0  0  0  0  0  0  0  0  # atno 6909 bound_to 6896
  145.3614  139.2417  143.3505 H   0  0  0  0  0  0  0  0  0  0  0  0  # atno 7974 bound_to 7965
  155.8159  140.0912  157.1877 H   0  0  0  0  0  0  0  0  0  0  0  0  # atno 8008 bound_to 7997
  154.3979  140.1446  156.3502 H   0  0  0  0  0  0  0  0  0  0  0  0  # atno 8009 bound_to 7997
  155.8317  140.3442  155.5579 H   0  0  0  0  0  0  0  0  0  0  0  0  # atno 8010 bound_to 7997
  139.5403  144.6724  151.4646 H   0  0  0  0  0  0  0  0  0  0  0  0  # atno 10167 bound_to 10162
  156.0054  130.5134  150.6165 H   0  0  0  0  0  0  0  0  0  0  0  0  # atno 10718 bound_to 10713
  152.9800  135.5977  154.3757 H   0  0  0  0  0  0  0  0  0  0  0  0  # atno 10763 bound_to 10752
  154.3427  135.2767  155.2416 H   0  0  0  0  0  0  0  0  0  0  0  0  # atno 10764 bound_to 10752
  154.4491  135.5994  153.6234 H   0  0  0  0  0  0  0  0  0  0  0  0  # atno 10765 bound_to 10752
  140.0452  134.9284  157.0916 H   0  0  0  0  0  0  0  0  0  0  0  0  # atno 11005 bound_to 11000
  146.2926  140.4248  142.8734 LP  0  0  0  0  0  0  0  0  0  0  0  0  # atno 17320 bound_to 7965
  144.8644  140.7185  143.6087 LP  0  0  0  0  0  0  0  0  0  0  0  0  # atno 17321 bound_to 7965
  140.6630  143.8458  150.6909 LP  0  0  0  0  0  0  0  0  0  0  0  0  # atno 17342 bound_to 10162
  140.1858  143.4077  152.1899 LP  0  0  0  0  0  0  0  0  0  0  0  0  # atno 17343 bound_to 10162
  157.3988  131.0807  151.1327 LP  0  0  0  0  0  0  0  0  0  0  0  0  # atno 17370 bound_to 10713
  157.1995  130.6388  149.5733 LP  0  0  0  0  0  0  0  0  0  0  0  0  # atno 17371 bound_to 10713
  140.4005  134.2088  155.7163 LP  0  0  0  0  0  0  0  0  0  0  0  0  # atno 17394 bound_to 11000
  141.1903  133.8219  157.0923 LP  0  0  0  0  0  0  0  0  0  0  0  0  # atno 17395 bound_to 11000

$$$$
