AV-unprocessed.smi:1787|AV-procd|sdf|7206|dock9
  -GOLD-   22720 8443D 1   1.00000     0.00000
 Structure written by MMmdl.
 44 46  0  0  0  0  0  0  0  0  1 V2000
  145.3239  134.5825  154.0889 O   0  0  0  0  0  0  0  0  0  0  0  0
  146.3356  134.8480  153.4407 C   0  0  0  0  0  0  0  0  0  0  0  0
  147.3627  135.5500  153.9347 N   0  0  0  0  0  0  0  0  0  0  0  0
  147.4329  136.0851  155.2913 C   0  0  0  0  0  0  0  0  0  0  0  0
  148.9050  136.1801  155.8070 C   0  0  1  0  0  0  0  0  0  0  0  0
  149.6498  137.2413  155.0613 N   0  0  0  0  0  0  0  0  0  0  0  0
  149.0756  138.5939  155.1150 C   0  0  0  0  0  0  0  0  0  0  0  0
  149.8614  139.5996  154.2562 C   0  0  0  0  0  0  0  0  0  0  0  0
  151.2220  139.6225  154.6655 O   0  0  0  0  0  0  0  0  0  0  0  0
  151.8365  138.3464  154.5516 C   0  0  0  0  0  0  0  0  0  0  0  0
  151.0743  137.3255  155.4128 C   0  0  0  0  0  0  0  0  0  0  0  0
  148.8480  136.4280  157.3426 C   0  0  0  0  0  0  0  0  0  0  0  0
  148.3738  135.1513  158.0462 C   0  0  0  0  0  0  0  0  0  0  0  0
  148.9661  133.7461  157.0745 S   0  0  0  0  0  0  0  0  0  0  0  0
  149.5495  134.7747  155.6988 C   0  0  0  0  0  0  0  0  0  0  0  0
  146.5614  134.4986  152.1626 N   0  0  0  0  0  0  0  0  0  0  0  0
  145.7316  133.7587  151.2760 C   0  0  0  0  0  0  0  0  0  0  0  0
  144.3357  133.9155  151.4025 C   0  0  0  0  0  0  0  0  0  0  0  0
  143.4823  133.2101  150.5331 C   0  0  0  0  0  0  0  0  0  0  0  0
  144.0617  132.3739  149.5600 C   0  0  0  0  0  0  0  0  0  0  0  0
  145.3945  132.2197  149.4161 N   0  0  0  0  0  0  0  0  0  0  0  0
  146.2076  132.8993  150.2537 C   0  0  0  0  0  0  0  0  0  0  0  0
  148.1572  135.7263  153.3370 H   0  0  0  0  0  0  0  0  0  0  0  0
  146.9424  137.0581  155.3127 H   0  0  0  0  0  0  0  0  0  0  0  0
  146.8195  135.4639  155.9434 H   0  0  0  0  0  0  0  0  0  0  0  0
  148.0549  138.6022  154.7408 H   0  0  0  0  0  0  0  0  0  0  0  0
  149.0461  138.9595  156.1408 H   0  0  0  0  0  0  0  0  0  0  0  0
  149.7953  139.3390  153.1986 H   0  0  0  0  0  0  0  0  0  0  0  0
  149.4408  140.5994  154.3654 H   0  0  0  0  0  0  0  0  0  0  0  0
  151.8544  138.0336  153.5063 H   0  0  0  0  0  0  0  0  0  0  0  0
  152.8728  138.4201  154.8817 H   0  0  0  0  0  0  0  0  0  0  0  0
  151.1837  137.5968  156.4635 H   0  0  0  0  0  0  0  0  0  0  0  0
  151.5681  136.3650  155.2834 H   0  0  0  0  0  0  0  0  0  0  0  0
  149.8377  136.6230  157.7487 H   0  0  0  0  0  0  0  0  0  0  0  0
  148.2311  137.2863  157.6105 H   0  0  0  0  0  0  0  0  0  0  0  0
  148.7429  135.0934  159.0703 H   0  0  0  0  0  0  0  0  0  0  0  0
  147.2854  135.1144  158.0927 H   0  0  0  0  0  0  0  0  0  0  0  0
  149.3351  134.2879  154.7468 H   0  0  0  0  0  0  0  0  0  0  0  0
  150.6330  134.8226  155.7924 H   0  0  0  0  0  0  0  0  0  0  0  0
  147.4196  134.8442  151.7583 H   0  0  0  0  0  0  0  0  0  0  0  0
  143.9204  134.5670  152.1576 H   0  0  0  0  0  0  0  0  0  0  0  0
  142.4096  133.3086  150.6094 H   0  0  0  0  0  0  0  0  0  0  0  0
  143.4382  131.8182  148.8753 H   0  0  0  0  0  0  0  0  0  0  0  0
  147.2594  132.7490  150.0697 H   0  0  0  0  0  0  0  0  0  0  0  0
  1  2  2  0  0  0  0
  2  3  1  0  0  0  0
  2 16  1  0  0  0  0
  3  4  1  0  0  0  0
  3 23  1  0  0  0  0
  4  5  1  0  0  0  0
  4 24  1  0  0  0  0
  4 25  1  0  0  0  0
  5 15  1  0  0  0  0
  5  6  1  0  0  0  0
  5 12  1  0  0  0  0
  6 11  1  0  0  0  0
  6  7  1  0  0  0  0
  7  8  1  0  0  0  0
  7 26  1  0  0  0  0
  7 27  1  0  0  0  0
  8  9  1  0  0  0  0
  8 28  1  0  0  0  0
  8 29  1  0  0  0  0
  9 10  1  0  0  0  0
 10 11  1  0  0  0  0
 10 30  1  0  0  0  0
 10 31  1  0  0  0  0
 11 32  1  0  0  0  0
 11 33  1  0  0  0  0
 12 13  1  0  0  0  0
 12 34  1  0  0  0  0
 12 35  1  0  0  0  0
 13 14  1  0  0  0  0
 13 36  1  0  0  0  0
 13 37  1  0  0  0  0
 14 15  1  0  0  0  0
 15 38  1  0  0  0  0
 15 39  1  0  0  0  0
 16 17  1  0  0  0  0
 16 40  1  0  0  0  0
 17 22  1  0  0  0  0
 17 18  2  0  0  0  0
 18 19  1  0  0  0  0
 18 41  1  0  0  0  0
 19 20  2  0  0  0  0
 19 42  1  0  0  0  0
 20 21  1  0  0  0  0
 20 43  1  0  0  0  0
 21 22  2  0  0  0  0
 22 44  1  0  0  0  0
M  END
> <s_m_source_file>
AV-unprocessed.smi

> <i_m_source_file_index>
1787

> <i_lp_mmshare_version>
43012

> <i_f3d_flags>
0

> <s_epik_input>
W2NIXTFuW2NIXVtjSF1bY0hdYzFbTkhdQyg9TylbTkhdW0NIMl1bQ0BdMihbQ0gyXVtDSDJdU1tDSDJdMilOM1tDSDJdW0NIMl1PW0NIMl1bQ0gyXTM=

> <s_epik_cmdline>
J2VwaWtfcHl0aG9uJywgJy1waCcsICc3LjAnLCAnLXRuJywgJzgnLCAnLW1hJywgJzIwMCcsICctbWV0YWxfYmluZGluZycsICctaW1hZScsICc8aW5maWxlLm1hZT4nLCAnLW9tYWUnLCAnPG91dGZpbGUubWFlPic=

> <r_epik_Ionization_Penalty>
0.024212

> <r_epik_Ionization_Penalty_Charging>
0

> <r_epik_Ionization_Penalty_Neutral>
0.024212

> <r_epik_State_Penalty>
0.0155843

> <r_epik_Charging_Adjusted_Penalty>
0.0155843

> <i_epik_Tot_Q>
0

> <i_epik_Tot_abs_Q>
0

> <r_epik_Metal_State_Penalty>
0.01557

> <b_epik_Metal_Only>
0

> <s_lp_Force_Field>
OPLS_2005

> <r_lp_Energy>
57.3635

> <b_lp_Chiralities_Consistent>
1

> <s_lp_Variant>
AV-unprocessed.smi:1787-1

> <Gold.Version>
5.8.1

> <Gold.Id.Protein>
6NUR|6NUR_protein|mol2

> <Gold.PLP.Fitness>
41.9799

> <Gold.PLP.PLP>
-30.9416

> <Gold.PLP.part.hbond>
-3.0000

> <Gold.PLP.part.metal>
0.0000

> <Gold.PLP.part.buried>
-5.2964

> <Gold.PLP.part.nonpolar>
-24.0566

> <Gold.PLP.part.repulsive>
0.4748

> <Gold.PLP.ligand.clash>
0.0000

> <Gold.PLP.ligand.torsion>
0.5008

> <Gold.PLP.Chemscore.Hbond>
2.9920

> <Gold.PLP.Chemscore.CHOScore>
1.0000

> <Gold.PLP.Chemscore.Metal>
0.0000

> <Gold.Chemscore.Hbonds>
donor molecule, donor type, donor heavy atom, donor atom, acceptor molecule, acceptor atom, score
      L1  H     3    23       P1  7948  1.00
      L1  H    16    40       P1  7948  0.98
      P1  H  7989  7998       L1     9  0.65
      L1  C    22    44       P1 10747  0.96

> <Gold.PLP.Chemscore.Internal.Correction>
0.0640

> <Gold.Rescore>
     Score         DG    S(hbond)    S(metal)    S(lipo)     H(rot)  DE(clash)    DE(int)     intcor
     17.00     -18.68       2.23        0.00      80.72       1.44       0.05       1.63       ----

> <Gold.Chemscore.Fitness>
17.0021

> <Gold.Chemscore.DG>
-18.6828

> <Gold.Chemscore.ZeroCoef>
-5.4800

> <Gold.Chemscore.Hbond>
2.2323

> <Gold.Chemscore.Metal>
0.0000

> <Gold.Chemscore.Lipo>
80.7244

> <Gold.Chemscore.Internal_Hbond>
0.0000

> <Gold.Chemscore.DEClash>
0.0518

> <Gold.Chemscore.DEInternal>
1.6290

> <Gold.Chemscore.Rot>
1.4445

> <Gold.Chemscore.Internal.Correction>
   9.000000E+99

> <Gold.Chemscore.Hbonds>
donor molecule, donor type, donor heavy atom, donor atom, acceptor molecule, acceptor atom, score
      L1  H     3    23       P1  7948  0.99
      L1  H    16    40       P1  7948  0.62
      P1  H  7989  7998       L1     9  0.05

> <Gold.Chemscore.Hbond.Weighted>
-7.4560

> <Gold.Chemscore.Metal.Weighted>
-0.0000

> <Gold.Chemscore.Lipo.Weighted>
-9.4448

> <Gold.Chemscore.Internal_Hbond.Weighted>
0.0000

> <Gold.Chemscore.DEClash.Weighted>
0.0518

> <Gold.Chemscore.DEInternal.Weighted>
1.6290

> <Gold.Chemscore.Rot.Weighted>
3.6980

> <Gold.Chemscore.Internal.Correction.Weighted>
   9.000000E+99

> <Gold.Protein.RotatedTorsions>
[ 6907 6896 6895 6894 ] final   26.42 input  -60.11 | X-H torsion
[ 7974 7965 7964 7962 ] final -111.73 input  175.53 | X-H torsion
[ 8008 7997 7996 7995 ] final  -66.28 input   59.86 | X-H torsion
[ 10167 10162 10161 10158 ] final -147.08 input  -65.29 | X-H torsion
[ 10718 10713 10712 10709 ] final  -69.82 input   66.30 | X-H torsion
[ 10763 10752 10751 10750 ] final  -10.99 input  -60.55 | X-H torsion
[ 11005 11000 10999 10996 ] final  174.01 input  -57.11 | X-H torsion

> <Gold.Protein.ActiveResidues>
 VAL166  LYS551  ARG553  GLY616  TRP617  ASP618  TYR619  PRO620  LYS621  CYS622 
 ASP623  PHE694  ASN695  SER759  ASP760  ASP761  ALA762  ILE779  LEU786  VAL792 
 PHE793  MET794  SER795  GLU796  ALA797  LYS798  CYS799  TRP800  GLU811  SER814 

> <Gold.Protein.RotatedAtoms>
  151.9872  134.9998  160.0559 H   0  0  0  0  0  0  0  0  0  0  0  0  # atno 6907 bound_to 6896
  152.1642  133.4596  159.4884 H   0  0  0  0  0  0  0  0  0  0  0  0  # atno 6908 bound_to 6896
  150.6892  134.1952  159.4343 H   0  0  0  0  0  0  0  0  0  0  0  0  # atno 6909 bound_to 6896
  145.1525  140.8836  143.3638 H   0  0  0  0  0  0  0  0  0  0  0  0  # atno 7974 bound_to 7965
  154.4724  140.0916  156.7178 H   0  0  0  0  0  0  0  0  0  0  0  0  # atno 8008 bound_to 7997
  155.4687  140.3463  155.4304 H   0  0  0  0  0  0  0  0  0  0  0  0  # atno 8009 bound_to 7997
  156.1061  140.1435  156.9390 H   0  0  0  0  0  0  0  0  0  0  0  0  # atno 8010 bound_to 7997
  139.7654  143.8315  152.2615 H   0  0  0  0  0  0  0  0  0  0  0  0  # atno 10167 bound_to 10162
  156.0437  130.4320  150.2204 H   0  0  0  0  0  0  0  0  0  0  0  0  # atno 10718 bound_to 10713
  153.4772  135.7017  153.5959 H   0  0  0  0  0  0  0  0  0  0  0  0  # atno 10763 bound_to 10752
  153.4188  135.3830  155.2098 H   0  0  0  0  0  0  0  0  0  0  0  0  # atno 10764 bound_to 10752
  154.8723  135.3922  154.4217 H   0  0  0  0  0  0  0  0  0  0  0  0  # atno 10765 bound_to 10752
  140.3466  134.7230  157.4239 H   0  0  0  0  0  0  0  0  0  0  0  0  # atno 11005 bound_to 11000
  145.0416  139.3256  143.5974 LP  0  0  0  0  0  0  0  0  0  0  0  0  # atno 17320 bound_to 7965
  146.3493  139.9791  142.8698 LP  0  0  0  0  0  0  0  0  0  0  0  0  # atno 17321 bound_to 7965
  139.8334  144.7243  150.9422 LP  0  0  0  0  0  0  0  0  0  0  0  0  # atno 17342 bound_to 10162
  140.7810  143.4049  151.1087 LP  0  0  0  0  0  0  0  0  0  0  0  0  # atno 17343 bound_to 10162
  157.0296  131.0003  151.3316 LP  0  0  0  0  0  0  0  0  0  0  0  0  # atno 17370 bound_to 10713
  157.5286  130.8044  149.7891 LP  0  0  0  0  0  0  0  0  0  0  0  0  # atno 17371 bound_to 10713
  140.0737  134.5827  155.8614 LP  0  0  0  0  0  0  0  0  0  0  0  0  # atno 17394 bound_to 11000
  141.2024  133.6624  156.6002 LP  0  0  0  0  0  0  0  0  0  0  0  0  # atno 17395 bound_to 11000

$$$$
