AV-unprocessed.smi:193|AV-procd|sdf|1500|dock8
  -GOLD-   2262019323D 1   1.00000     0.00000
 Structure written by MMmdl.
 62 66  0  0  0  0  0  0  0  0  2 V2000
  147.4533  128.1633  153.1602 C   0  0  0  0  0  0  0  0  0  0  0  0
  147.4553  129.6897  152.9781 C   0  0  2  0  0  0  0  0  0  0  0  0
  147.9925  130.3590  154.2608 C   0  0  0  0  0  0  0  0  0  0  0  0
  148.5283  131.7077  154.0615 N   0  0  0  0  0  0  0  0  0  0  0  0
  149.3117  132.2337  155.0397 C   0  0  0  0  0  0  0  0  0  0  0  0
  149.5174  131.5187  156.1778 N   0  0  0  0  0  0  0  0  0  0  0  0
  150.2679  132.0176  157.1643 C   0  0  0  0  0  0  0  0  0  0  0  0
  150.8979  133.1919  157.2205 N   0  0  0  0  0  0  0  0  0  0  0  0
  150.7062  133.9118  156.0786 C   0  0  0  0  0  0  0  0  0  0  0  0
  149.9411  133.5093  154.9470 C   0  0  0  0  0  0  0  0  0  0  0  0
  149.9977  134.4939  153.9665 N   0  0  0  0  0  0  0  0  0  0  0  0
  150.7399  135.4287  154.4936 C   0  0  0  0  0  0  0  0  0  0  0  0
  151.1949  135.1685  155.7664 N   0  0  0  0  0  0  0  0  0  0  0  0
  152.0245  136.0368  156.5882 C   0  0  0  0  0  0  0  0  0  0  0  0
  151.2487  137.1986  157.2591 C   0  0  0  0  0  0  0  0  0  0  0  0
  152.1462  137.8818  158.1165 O   0  0  0  0  0  0  0  0  0  0  0  0
  150.7448  138.1928  156.1935 C   0  0  0  0  0  0  0  0  0  0  0  0
  149.8225  139.2695  156.7926 C   0  0  0  0  0  0  0  0  0  0  0  0
  148.7390  138.6542  157.4787 O   0  0  0  0  0  0  0  0  0  0  0  0
  149.1653  137.8697  158.5856 C   0  0  0  0  0  0  0  0  0  0  0  0
  150.0509  136.7075  158.1023 C   0  0  0  0  0  0  0  0  0  0  0  0
  147.9657  132.6312  153.0764 C   0  0  0  0  0  0  0  0  0  0  0  0
  146.4342  132.5829  153.0019 C   0  0  0  0  0  0  0  0  0  0  0  0
  145.9766  131.5353  152.0583 N   0  3  2  0  0  0  0  0  0  0  0  0
  144.6353  131.8356  151.5040 C   0  0  1  0  0  0  0  0  0  0  0  0
  144.5239  133.2057  150.8722 C   0  0  0  0  0  0  0  0  0  0  0  0
  144.5766  131.9761  149.9928 C   0  0  1  0  0  0  0  0  0  0  0  0
  145.7673  131.7451  149.0801 C   0  0  0  0  0  0  0  0  0  0  0  0
  146.0277  130.1677  152.6310 C   0  0  0  0  0  0  0  0  0  0  0  0
  146.7994  127.8617  153.9792 H   0  0  0  0  0  0  0  0  0  0  0  0
  148.4544  127.7903  153.3793 H   0  0  0  0  0  0  0  0  0  0  0  0
  147.1112  127.6570  152.2570 H   0  0  0  0  0  0  0  0  0  0  0  0
  148.1256  129.9059  152.1445 H   0  0  0  0  0  0  0  0  0  0  0  0
  147.2194  130.3776  155.0303 H   0  0  0  0  0  0  0  0  0  0  0  0
  148.8041  129.7468  154.6577 H   0  0  0  0  0  0  0  0  0  0  0  0
  150.3771  131.3871  158.0345 H   0  0  0  0  0  0  0  0  0  0  0  0
  150.9705  136.3445  153.9687 H   0  0  0  0  0  0  0  0  0  0  0  0
  152.5212  135.4250  157.3427 H   0  0  0  0  0  0  0  0  0  0  0  0
  152.8171  136.4367  155.9541 H   0  0  0  0  0  0  0  0  0  0  0  0
  151.7462  138.6945  158.3857 H   0  0  0  0  0  0  0  0  0  0  0  0
  151.5847  138.6629  155.6801 H   0  0  0  0  0  0  0  0  0  0  0  0
  150.1868  137.6502  155.4293 H   0  0  0  0  0  0  0  0  0  0  0  0
  150.3705  139.9276  157.4686 H   0  0  0  0  0  0  0  0  0  0  0  0
  149.4208  139.8989  155.9984 H   0  0  0  0  0  0  0  0  0  0  0  0
  149.6944  138.4946  159.3068 H   0  0  0  0  0  0  0  0  0  0  0  0
  148.2853  137.4782  159.0964 H   0  0  0  0  0  0  0  0  0  0  0  0
  149.4404  136.0336  157.4999 H   0  0  0  0  0  0  0  0  0  0  0  0
  150.3903  136.1286  158.9618 H   0  0  0  0  0  0  0  0  0  0  0  0
  148.2338  133.6545  153.3395 H   0  0  0  0  0  0  0  0  0  0  0  0
  148.4120  132.4449  152.0990 H   0  0  0  0  0  0  0  0  0  0  0  0
  145.9753  132.4696  153.9854 H   0  0  0  0  0  0  0  0  0  0  0  0
  146.1030  133.5520  152.6271 H   0  0  0  0  0  0  0  0  0  0  0  0
  143.7914  131.4250  152.0560 H   0  0  0  0  0  0  0  0  0  0  0  0
  143.5677  133.7190  150.9511 H   0  0  0  0  0  0  0  0  0  0  0  0
  145.3988  133.8533  150.8887 H   0  0  0  0  0  0  0  0  0  0  0  0
  143.6323  131.6795  149.5400 H   0  0  0  0  0  0  0  0  0  0  0  0
  146.6889  132.1243  149.5220 H   0  0  0  0  0  0  0  0  0  0  0  0
  145.6102  132.2581  148.1311 H   0  0  0  0  0  0  0  0  0  0  0  0
  145.8865  130.6804  148.8793 H   0  0  0  0  0  0  0  0  0  0  0  0
  145.6033  129.4865  151.8926 H   0  0  0  0  0  0  0  0  0  0  0  0
  145.3772  130.1052  153.5048 H   0  0  0  0  0  0  0  0  0  0  0  0
  146.6117  131.5531  151.2731 H   0  0  0  0  0  0  0  0  0  0  0  0
  1  2  1  0  0  0  0
  1 30  1  0  0  0  0
  1 31  1  0  0  0  0
  1 32  1  0  0  0  0
  2 29  1  0  0  0  0
  2  3  1  0  0  0  0
  2 33  1  0  0  0  0
  3  4  1  0  0  0  0
  3 34  1  0  0  0  0
  3 35  1  0  0  0  0
  4  5  1  0  0  0  0
  4 22  1  0  0  0  0
  5 10  1  0  0  0  0
  5  6  2  0  0  0  0
  6  7  1  0  0  0  0
  7  8  2  0  0  0  0
  7 36  1  0  0  0  0
  8  9  1  0  0  0  0
  9 13  1  0  0  0  0
  9 10  2  0  0  0  0
 10 11  1  0  0  0  0
 11 12  2  0  0  0  0
 12 13  1  0  0  0  0
 12 37  1  0  0  0  0
 13 14  1  0  0  0  0
 14 15  1  0  0  0  0
 14 38  1  0  0  0  0
 14 39  1  0  0  0  0
 15 21  1  0  0  0  0
 15 16  1  0  0  0  0
 15 17  1  0  0  0  0
 16 40  1  0  0  0  0
 17 18  1  0  0  0  0
 17 41  1  0  0  0  0
 17 42  1  0  0  0  0
 18 19  1  0  0  0  0
 18 43  1  0  0  0  0
 18 44  1  0  0  0  0
 19 20  1  0  0  0  0
 20 21  1  0  0  0  0
 20 45  1  0  0  0  0
 20 46  1  0  0  0  0
 21 47  1  0  0  0  0
 21 48  1  0  0  0  0
 22 23  1  0  0  0  0
 22 49  1  0  0  0  0
 22 50  1  0  0  0  0
 23 24  1  0  0  0  0
 23 51  1  0  0  0  0
 23 52  1  0  0  0  0
 24 25  1  0  0  0  0
 24 29  1  0  0  0  0
 24 62  1  0  0  0  0
 25 27  1  0  0  0  0
 25 26  1  0  0  0  0
 25 53  1  0  0  0  0
 26 27  1  0  0  0  0
 26 54  1  0  0  0  0
 26 55  1  0  0  0  0
 27 28  1  0  0  0  0
 27 56  1  0  0  0  0
 28 57  1  0  0  0  0
 28 58  1  0  0  0  0
 28 59  1  0  0  0  0
 29 60  1  0  0  0  0
 29 61  1  0  0  0  0
M  CHG  1  24   1
M  END
> <s_m_source_file>
AV-unprocessed.smi

> <i_m_source_file_index>
193

> <i_lp_mmshare_version>
43012

> <i_f3d_flags>
0

> <s_epik_input>
W0NIM11bQ0BASF0xW0NIMl1bQ0BIXTFOKFtDSDJdMilbQ0gyXVtDSDJdTihbQ0gyXVtDQEhdMltDSDNdKWMobltjSF1uMyljKGMzNCluW2NIXW40W0NIMl1DNShbT0hdKVtDSDJdW0NIMl1PW0NIMl1bQ0gyXTU=

> <s_epik_cmdline>
J2VwaWtfcHl0aG9uJywgJy1waCcsICc3LjAnLCAnLXRuJywgJzgnLCAnLW1hJywgJzIwMCcsICctbWV0YWxfYmluZGluZycsICctaW1hZScsICc8aW5maWxlLm1hZT4nLCAnLW9tYWUnLCAnPG91dGZpbGUubWFlPic=

> <r_lp_tautomer_probability>
1

> <r_epik_Ionization_Penalty>
0.0540825

> <r_epik_Ionization_Penalty_Charging>
0.0538476

> <r_epik_Ionization_Penalty_Neutral>
0.000234891

> <r_epik_State_Penalty>
0.0200719

> <r_epik_Charging_Adjusted_Penalty>
0.0739194

> <i_epik_Tot_Q>
1

> <i_epik_Tot_abs_Q>
1

> <r_epik_Metal_State_Penalty>
0.0199414

> <b_epik_Metal_Only>
0

> <s_lp_Force_Field>
OPLS_2005

> <r_lp_Energy>
56.6778

> <b_lp_Chiralities_Consistent>
1

> <s_lp_Variant>
AV-unprocessed.smi:193-5

> <Gold.Version>
5.8.1

> <Gold.Id.Protein>
6NUR|6NUR_protein|mol2

> <Gold.PLP.Fitness>
41.0902

> <Gold.PLP.PLP>
-38.3968

> <Gold.PLP.part.hbond>
-1.0000

> <Gold.PLP.part.metal>
0.0000

> <Gold.PLP.part.buried>
-3.3284

> <Gold.PLP.part.nonpolar>
-34.0455

> <Gold.PLP.part.repulsive>
1.3177

> <Gold.PLP.ligand.clash>
0.0000

> <Gold.PLP.ligand.torsion>
1.0994

> <Gold.PLP.Chemscore.Hbond>
1.0000

> <Gold.PLP.Chemscore.CHOScore>
0.1907

> <Gold.PLP.Chemscore.Metal>
0.0000

> <Gold.Chemscore.Hbonds>
donor molecule, donor type, donor heavy atom, donor atom, acceptor molecule, acceptor atom, score
      P1  H  6896  6907       L1     8  0.90
      L1  C    12    37       P1  7948  0.01
      L1  C    12    37       P1  7949  0.61

> <Gold.PLP.Chemscore.Internal.Correction>
1.3202

> <Gold.Rescore>
     Score         DG    S(hbond)    S(metal)    S(lipo)     H(rot)  DE(clash)    DE(int)     intcor
     13.09     -15.50       0.99        0.00      99.58       1.93       0.16       2.25       ----

> <Gold.Chemscore.Fitness>
13.0912

> <Gold.Chemscore.DG>
-15.4976

> <Gold.Chemscore.ZeroCoef>
-5.4800

> <Gold.Chemscore.Hbond>
0.9894

> <Gold.Chemscore.Metal>
0.0000

> <Gold.Chemscore.Lipo>
99.5835

> <Gold.Chemscore.Internal_Hbond>
0.0000

> <Gold.Chemscore.DEClash>
0.1592

> <Gold.Chemscore.DEInternal>
2.2472

> <Gold.Chemscore.Rot>
1.9290

> <Gold.Chemscore.Internal.Correction>
   9.000000E+99

> <Gold.Chemscore.Hbonds>
donor molecule, donor type, donor heavy atom, donor atom, acceptor molecule, acceptor atom, score
      P1  H  6896  6907       L1     8  0.33

> <Gold.Chemscore.Hbond.Weighted>
-3.3046

> <Gold.Chemscore.Metal.Weighted>
-0.0000

> <Gold.Chemscore.Lipo.Weighted>
-11.6513

> <Gold.Chemscore.Internal_Hbond.Weighted>
0.0000

> <Gold.Chemscore.DEClash.Weighted>
0.1592

> <Gold.Chemscore.DEInternal.Weighted>
2.2472

> <Gold.Chemscore.Rot.Weighted>
4.9383

> <Gold.Chemscore.Internal.Correction.Weighted>
   9.000000E+99

> <Gold.Protein.RotatedTorsions>
[ 6907 6896 6895 6894 ] final -143.76 input  -60.11 | X-H torsion
[ 7974 7965 7964 7962 ] final  161.99 input  175.53 | X-H torsion
[ 8008 7997 7996 7995 ] final  -83.09 input   59.86 | X-H torsion
[ 10167 10162 10161 10158 ] final  -92.43 input  -65.29 | X-H torsion
[ 10718 10713 10712 10709 ] final  144.59 input   66.30 | X-H torsion
[ 10763 10752 10751 10750 ] final  -58.32 input  -60.55 | X-H torsion
[ 11005 11000 10999 10996 ] final -132.60 input  -57.11 | X-H torsion

> <Gold.Protein.ActiveResidues>
 VAL166  LYS551  ARG553  GLY616  TRP617  ASP618  TYR619  PRO620  LYS621  CYS622 
 ASP623  PHE694  ASN695  SER759  ASP760  ASP761  ALA762  ILE779  LEU786  VAL792 
 PHE793  MET794  SER795  GLU796  ALA797  LYS798  CYS799  TRP800  GLU811  SER814 

> <Gold.Protein.RotatedAtoms>
  151.1048  133.5217  159.2608 H   0  0  0  0  0  0  0  0  0  0  0  0  # atno 6907 bound_to 6896
  151.2034  135.0451  159.8891 H   0  0  0  0  0  0  0  0  0  0  0  0  # atno 6908 bound_to 6896
  152.5446  134.0873  159.8315 H   0  0  0  0  0  0  0  0  0  0  0  0  # atno 6909 bound_to 6896
  144.7658  139.7976  143.6315 H   0  0  0  0  0  0  0  0  0  0  0  0  # atno 7974 bound_to 7965
  154.6155  140.0624  156.9548 H   0  0  0  0  0  0  0  0  0  0  0  0  # atno 8008 bound_to 7997
  155.1903  140.3306  155.4341 H   0  0  0  0  0  0  0  0  0  0  0  0  # atno 8009 bound_to 7997
  156.2401  140.1882  156.6994 H   0  0  0  0  0  0  0  0  0  0  0  0  # atno 8010 bound_to 7997
  140.3349  143.2974  151.9901 H   0  0  0  0  0  0  0  0  0  0  0  0  # atno 10167 bound_to 10162
  157.3553  131.0957  151.0963 H   0  0  0  0  0  0  0  0  0  0  0  0  # atno 10718 bound_to 10713
  154.2363  135.6351  153.5192 H   0  0  0  0  0  0  0  0  0  0  0  0  # atno 10763 bound_to 10752
  152.9939  135.5531  154.5958 H   0  0  0  0  0  0  0  0  0  0  0  0  # atno 10764 bound_to 10752
  154.5453  135.2897  155.1032 H   0  0  0  0  0  0  0  0  0  0  0  0  # atno 10765 bound_to 10752
  140.9156  134.1511  157.4355 H   0  0  0  0  0  0  0  0  0  0  0  0  # atno 11005 bound_to 11000
  146.1765  139.4937  142.9894 LP  0  0  0  0  0  0  0  0  0  0  0  0  # atno 17320 bound_to 7965
  145.6474  141.0271  143.1779 LP  0  0  0  0  0  0  0  0  0  0  0  0  # atno 17321 bound_to 7965
  139.4850  144.6205  151.7264 LP  0  0  0  0  0  0  0  0  0  0  0  0  # atno 17342 bound_to 10162
  140.5363  144.0650  150.6072 LP  0  0  0  0  0  0  0  0  0  0  0  0  # atno 17343 bound_to 10162
  157.2124  130.6444  149.5779 LP  0  0  0  0  0  0  0  0  0  0  0  0  # atno 17370 bound_to 10713
  155.9728  130.4656  150.6258 LP  0  0  0  0  0  0  0  0  0  0  0  0  # atno 17371 bound_to 10713
  139.8765  134.9952  156.5733 LP  0  0  0  0  0  0  0  0  0  0  0  0  # atno 17394 bound_to 11000
  140.8054  133.8472  155.8763 LP  0  0  0  0  0  0  0  0  0  0  0  0  # atno 17395 bound_to 11000

$$$$
