AV-unprocessed.smi:2726|AV-procd|sdf|10520|dock10
  -GOLD-   2272014563D 1   1.00000     0.00000
 Structure written by MMmdl.
 42 43  0  0  0  0  0  0  0  0  2 V2000
  139.9604  139.7732  155.9061 C   0  0  0  0  0  0  0  0  0  0  0  0
  140.0465  140.2045  154.4313 C   0  0  0  0  0  0  0  0  0  0  0  0
  138.7107  139.8693  153.7348 C   0  0  0  0  0  0  0  0  0  0  0  0
  140.3271  141.7211  154.3677 C   0  0  0  0  0  0  0  0  0  0  0  0
  141.1493  139.4456  153.8283 N   0  0  0  0  0  0  0  0  0  0  0  0
  141.3040  138.1123  153.7575 C   0  0  0  0  0  0  0  0  0  0  0  0
  140.4955  137.2996  154.2044 O   0  0  0  0  0  0  0  0  0  0  0  0
  142.4631  137.7942  153.1553 N   0  0  0  0  0  0  0  0  0  0  0  0
  142.9919  136.5029  152.8866 C   0  0  0  0  0  0  0  0  0  0  0  0
  144.0369  136.4021  151.9433 C   0  0  0  0  0  0  0  0  0  0  0  0
  144.5825  135.1391  151.6348 C   0  0  0  0  0  0  0  0  0  0  0  0
  144.0641  133.9862  152.2692 C   0  0  0  0  0  0  0  0  0  0  0  0
  144.5354  132.6867  152.0364 N   0  0  0  0  0  0  0  0  0  0  0  0
  144.6215  132.3022  150.6373 C   0  0  0  0  0  0  0  0  0  0  0  0
  145.5216  131.0643  150.6083 C   0  0  0  0  0  0  0  0  0  0  0  0
  146.3350  131.1382  151.9060 C   0  0  0  0  0  0  0  0  0  0  0  0
  145.8401  132.4044  152.6105 C   0  0  0  0  0  0  0  0  0  0  0  0
  143.0551  134.1227  153.1567 N   0  3  0  0  0  0  0  0  0  0  0  0
  142.5062  135.3131  153.4821 C   0  0  0  0  0  0  0  0  0  0  0  0
  139.1538  140.2921  156.4252 H   0  0  0  0  0  0  0  0  0  0  0  0
  140.8861  139.9908  156.4405 H   0  0  0  0  0  0  0  0  0  0  0  0
  139.7715  138.7028  155.9976 H   0  0  0  0  0  0  0  0  0  0  0  0
  138.5150  138.7965  153.7472 H   0  0  0  0  0  0  0  0  0  0  0  0
  138.6956  140.1950  152.6947 H   0  0  0  0  0  0  0  0  0  0  0  0
  137.8745  140.3597  154.2340 H   0  0  0  0  0  0  0  0  0  0  0  0
  139.5581  142.2848  154.8970 H   0  0  0  0  0  0  0  0  0  0  0  0
  140.3449  142.0938  153.3436 H   0  0  0  0  0  0  0  0  0  0  0  0
  141.2863  141.9672  154.8247 H   0  0  0  0  0  0  0  0  0  0  0  0
  141.8841  140.0069  153.4232 H   0  0  0  0  0  0  0  0  0  0  0  0
  143.0627  138.5686  152.9108 H   0  0  0  0  0  0  0  0  0  0  0  0
  144.4259  137.2873  151.4613 H   0  0  0  0  0  0  0  0  0  0  0  0
  145.3887  135.0638  150.9201 H   0  0  0  0  0  0  0  0  0  0  0  0
  143.6336  132.0880  150.2284 H   0  0  0  0  0  0  0  0  0  0  0  0
  145.0650  133.1017  150.0427 H   0  0  0  0  0  0  0  0  0  0  0  0
  144.9174  130.1564  150.6015 H   0  0  0  0  0  0  0  0  0  0  0  0
  146.1543  131.0479  149.7203 H   0  0  0  0  0  0  0  0  0  0  0  0
  146.1362  130.2590  152.5201 H   0  0  0  0  0  0  0  0  0  0  0  0
  147.4088  131.1776  151.7207 H   0  0  0  0  0  0  0  0  0  0  0  0
  146.5278  133.2306  152.4251 H   0  0  0  0  0  0  0  0  0  0  0  0
  145.7702  132.2610  153.6893 H   0  0  0  0  0  0  0  0  0  0  0  0
  141.6965  135.2587  154.1939 H   0  0  0  0  0  0  0  0  0  0  0  0
  142.6863  133.2827  153.6033 H   0  0  0  0  0  0  0  0  0  0  0  0
  1  2  1  0  0  0  0
  1 20  1  0  0  0  0
  1 21  1  0  0  0  0
  1 22  1  0  0  0  0
  2  3  1  0  0  0  0
  2  4  1  0  0  0  0
  2  5  1  0  0  0  0
  3 23  1  0  0  0  0
  3 24  1  0  0  0  0
  3 25  1  0  0  0  0
  4 26  1  0  0  0  0
  4 27  1  0  0  0  0
  4 28  1  0  0  0  0
  5  6  1  0  0  0  0
  5 29  1  0  0  0  0
  6  7  2  0  0  0  0
  6  8  1  0  0  0  0
  8  9  1  0  0  0  0
  8 30  1  0  0  0  0
  9 19  1  0  0  0  0
  9 10  2  0  0  0  0
 10 11  1  0  0  0  0
 10 31  1  0  0  0  0
 11 12  2  0  0  0  0
 11 32  1  0  0  0  0
 12 13  1  0  0  0  0
 12 18  1  0  0  0  0
 13 17  1  0  0  0  0
 13 14  1  0  0  0  0
 14 15  1  0  0  0  0
 14 33  1  0  0  0  0
 14 34  1  0  0  0  0
 15 16  1  0  0  0  0
 15 35  1  0  0  0  0
 15 36  1  0  0  0  0
 16 17  1  0  0  0  0
 16 37  1  0  0  0  0
 16 38  1  0  0  0  0
 17 39  1  0  0  0  0
 17 40  1  0  0  0  0
 18 19  2  0  0  0  0
 18 42  1  0  0  0  0
 19 41  1  0  0  0  0
M  CHG  1  18   1
M  END
> <s_m_source_file>
AV-unprocessed.smi

> <i_m_source_file_index>
2726

> <i_lp_mmshare_version>
43012

> <i_f3d_flags>
0

> <s_epik_input>
W0NIM11DKFtDSDNdKShbQ0gzXSlbTkhdQyg9TylbTkhdYzFbY0hdW2NIXWMobltjSF0xKU4yW0NIMl1bQ0gyXVtDSDJdW0NIMl0y

> <s_epik_cmdline>
J2VwaWtfcHl0aG9uJywgJy1waCcsICc3LjAnLCAnLXRuJywgJzgnLCAnLW1hJywgJzIwMCcsICctbWV0YWxfYmluZGluZycsICctaW1hZScsICc8aW5maWxlLm1hZT4nLCAnLW9tYWUnLCAnPG91dGZpbGUubWFlPic=

> <r_lp_tautomer_probability>
0.999994

> <r_epik_Ionization_Penalty>
1.07826

> <r_epik_Ionization_Penalty_Charging>
1.07824

> <r_epik_Ionization_Penalty_Neutral>
2.30307e-05

> <r_epik_State_Penalty>
1.13344

> <r_epik_Charging_Adjusted_Penalty>
2.21168

> <i_epik_Tot_Q>
1

> <i_epik_Tot_abs_Q>
1

> <r_epik_Metal_State_Penalty>
1.22394

> <b_epik_Metal_Only>
0

> <s_lp_Force_Field>
OPLS_2005

> <r_lp_Energy>
40.4449

> <b_lp_Chiralities_Consistent>
1

> <s_lp_Variant>
AV-unprocessed.smi:2726-2

> <Gold.Version>
5.8.1

> <Gold.Id.Protein>
6NUR|6NUR_protein|mol2

> <Gold.PLP.Fitness>
42.1616

> <Gold.PLP.PLP>
-30.7583

> <Gold.PLP.part.hbond>
-4.0000

> <Gold.PLP.part.metal>
0.0000

> <Gold.PLP.part.buried>
-3.3391

> <Gold.PLP.part.nonpolar>
-23.0098

> <Gold.PLP.part.repulsive>
0.2715

> <Gold.PLP.ligand.clash>
0.0000

> <Gold.PLP.ligand.torsion>
0.2831

> <Gold.PLP.Chemscore.Hbond>
3.9840

> <Gold.PLP.Chemscore.CHOScore>
0.0000

> <Gold.PLP.Chemscore.Metal>
0.0000

> <Gold.Chemscore.Hbonds>
donor molecule, donor type, donor heavy atom, donor atom, acceptor molecule, acceptor atom, score
      L1  H     5    29       P1 10175  1.00
      L1  H     8    30       P1 10175  1.00
      L1  H    18    42       P1 10957  2.00

> <Gold.PLP.Chemscore.Internal.Correction>
0.0175

> <Gold.Rescore>
     Score         DG    S(hbond)    S(metal)    S(lipo)     H(rot)  DE(clash)    DE(int)     intcor
     16.61     -18.67       2.68        0.00      62.01       1.18       0.10       1.95       ----

> <Gold.Chemscore.Fitness>
16.6136

> <Gold.Chemscore.DG>
-18.6673

> <Gold.Chemscore.ZeroCoef>
-5.4800

> <Gold.Chemscore.Hbond>
2.6828

> <Gold.Chemscore.Metal>
0.0000

> <Gold.Chemscore.Lipo>
62.0114

> <Gold.Chemscore.Internal_Hbond>
0.0000

> <Gold.Chemscore.DEClash>
0.0998

> <Gold.Chemscore.DEInternal>
1.9539

> <Gold.Chemscore.Rot>
1.1830

> <Gold.Chemscore.Internal.Correction>
   9.000000E+99

> <Gold.Chemscore.Hbonds>
donor molecule, donor type, donor heavy atom, donor atom, acceptor molecule, acceptor atom, score
      L1  H     5    29       P1 10175  0.48
      L1  H     8    30       P1 10175  0.96
      L1  H    18    42       P1 10957  0.98

> <Gold.Chemscore.Hbond.Weighted>
-8.9605

> <Gold.Chemscore.Metal.Weighted>
-0.0000

> <Gold.Chemscore.Lipo.Weighted>
-7.2553

> <Gold.Chemscore.Internal_Hbond.Weighted>
0.0000

> <Gold.Chemscore.DEClash.Weighted>
0.0998

> <Gold.Chemscore.DEInternal.Weighted>
1.9539

> <Gold.Chemscore.Rot.Weighted>
3.0285

> <Gold.Chemscore.Internal.Correction.Weighted>
   9.000000E+99

> <Gold.Protein.RotatedTorsions>
[ 6907 6896 6895 6894 ] final -149.00 input  -60.11 | X-H torsion
[ 7974 7965 7964 7962 ] final  -31.82 input  175.53 | X-H torsion
[ 8008 7997 7996 7995 ] final  -35.66 input   59.86 | X-H torsion
[ 10167 10162 10161 10158 ] final  -17.20 input  -65.29 | X-H torsion
[ 10718 10713 10712 10709 ] final   71.31 input   66.30 | X-H torsion
[ 10763 10752 10751 10750 ] final   21.68 input  -60.55 | X-H torsion
[ 11005 11000 10999 10996 ] final   58.63 input  -57.11 | X-H torsion

> <Gold.Protein.ActiveResidues>
 VAL166  LYS551  ARG553  GLY616  TRP617  ASP618  TYR619  PRO620  LYS621  CYS622 
 ASP623  PHE694  ASN695  SER759  ASP760  ASP761  ALA762  ILE779  LEU786  VAL792 
 PHE793  MET794  SER795  GLU796  ALA797  LYS798  CYS799  TRP800  GLU811  SER814 

> <Gold.Protein.RotatedAtoms>
  151.1778  133.4744  159.2593 H   0  0  0  0  0  0  0  0  0  0  0  0  # atno 6907 bound_to 6896
  151.1290  135.0120  159.8584 H   0  0  0  0  0  0  0  0  0  0  0  0  # atno 6908 bound_to 6896
  152.5459  134.1682  159.8639 H   0  0  0  0  0  0  0  0  0  0  0  0  # atno 6909 bound_to 6896
  146.1038  140.5715  142.8809 H   0  0  0  0  0  0  0  0  0  0  0  0  # atno 7974 bound_to 7965
  154.4090  140.1651  156.2248 H   0  0  0  0  0  0  0  0  0  0  0  0  # atno 8008 bound_to 7997
  155.9333  140.3413  155.6244 H   0  0  0  0  0  0  0  0  0  0  0  0  # atno 8009 bound_to 7997
  155.7079  140.0753  157.2374 H   0  0  0  0  0  0  0  0  0  0  0  0  # atno 8010 bound_to 7997
  140.7244  143.5039  150.9835 H   0  0  0  0  0  0  0  0  0  0  0  0  # atno 10167 bound_to 10162
  157.6445  130.9522  150.0772 H   0  0  0  0  0  0  0  0  0  0  0  0  # atno 10718 bound_to 10713
  153.0976  135.6664  153.9734 H   0  0  0  0  0  0  0  0  0  0  0  0  # atno 10763 bound_to 10752
  153.9313  135.3004  155.3447 H   0  0  0  0  0  0  0  0  0  0  0  0  # atno 10764 bound_to 10752
  154.7395  135.5086  153.9173 H   0  0  0  0  0  0  0  0  0  0  0  0  # atno 10765 bound_to 10752
  140.0363  134.5938  155.9439 H   0  0  0  0  0  0  0  0  0  0  0  0  # atno 11005 bound_to 11000
  144.7454  140.5054  143.6839 LP  0  0  0  0  0  0  0  0  0  0  0  0  # atno 17320 bound_to 7965
  145.5801  139.1488  143.3240 LP  0  0  0  0  0  0  0  0  0  0  0  0  # atno 17321 bound_to 7965
  139.8749  143.7145  152.3163 LP  0  0  0  0  0  0  0  0  0  0  0  0  # atno 17342 bound_to 10162
  139.7407  144.7560  151.0657 LP  0  0  0  0  0  0  0  0  0  0  0  0  # atno 17343 bound_to 10162
  156.1759  130.3648  149.9101 LP  0  0  0  0  0  0  0  0  0  0  0  0  # atno 17370 bound_to 10713
  156.7066  130.8953  151.3605 LP  0  0  0  0  0  0  0  0  0  0  0  0  # atno 17371 bound_to 10713
  141.1859  133.6556  156.5218 LP  0  0  0  0  0  0  0  0  0  0  0  0  # atno 17394 bound_to 11000
  140.4141  134.7246  157.4853 LP  0  0  0  0  0  0  0  0  0  0  0  0  # atno 17395 bound_to 11000

$$$$
