AV-unprocessed.smi:3176|AV-procd|sdf|12126|dock2
  -GOLD-   2272017563D 1   1.00000     0.00000
 Structure written by MMmdl.
 33 34  0  0  0  0  0  0  0  0  2 V2000
  152.6293  138.7725  156.2852 O   0  0  0  0  0  0  0  0  0  0  0  0
  151.4314  138.4911  156.2423 C   0  0  0  0  0  0  0  0  0  0  0  0
  150.4954  139.1775  156.9167 N   0  0  0  0  0  0  0  0  0  0  0  0
  150.7525  140.3292  157.7722 C   0  0  0  0  0  0  0  0  0  0  0  0
  151.1813  141.5558  156.9506 C   0  0  0  0  0  0  0  0  0  0  0  0
  151.5260  142.7426  157.8288 C   0  0  0  0  0  0  0  0  0  0  0  0
  152.4400  142.6428  158.9002 C   0  0  0  0  0  0  0  0  0  0  0  0
  152.7105  143.7843  159.6835 C   0  0  0  0  0  0  0  0  0  0  0  0
  152.0619  144.9992  159.3799 C   0  0  0  0  0  0  0  0  0  0  0  0
  151.1560  145.0416  158.3004 C   0  0  0  0  0  0  0  0  0  0  0  0
  150.9222  143.9263  157.5742 N   0  3  0  0  0  0  0  0  0  0  0  0
  150.9541  137.2957  155.4068 C   0  0  2  0  0  0  0  0  0  0  0  0
  149.4339  137.1490  155.3428 C   0  0  0  0  0  0  0  0  0  0  0  0
  149.2883  135.6850  154.9888 C   0  0  0  0  0  0  0  0  0  0  0  0
  150.4478  135.0381  155.7455 C   0  0  0  0  0  0  0  0  0  0  0  0
  151.4024  136.0704  155.9828 O   0  0  0  0  0  0  0  0  0  0  0  0
  149.5349  138.8792  156.8217 H   0  0  0  0  0  0  0  0  0  0  0  0
  149.8685  140.5552  158.3711 H   0  0  0  0  0  0  0  0  0  0  0  0
  151.5420  140.0586  158.4740 H   0  0  0  0  0  0  0  0  0  0  0  0
  152.0447  141.3075  156.3322 H   0  0  0  0  0  0  0  0  0  0  0  0
  150.3859  141.8479  156.2635 H   0  0  0  0  0  0  0  0  0  0  0  0
  152.9272  141.7042  159.1217 H   0  0  0  0  0  0  0  0  0  0  0  0
  153.4065  143.7277  160.5078 H   0  0  0  0  0  0  0  0  0  0  0  0
  152.2558  145.8849  159.9674 H   0  0  0  0  0  0  0  0  0  0  0  0
  150.6153  145.9267  157.9982 H   0  0  0  0  0  0  0  0  0  0  0  0
  151.3629  137.3733  154.3982 H   0  0  0  0  0  0  0  0  0  0  0  0
  148.9775  137.3496  156.3138 H   0  0  0  0  0  0  0  0  0  0  0  0
  148.9742  137.8059  154.6037 H   0  0  0  0  0  0  0  0  0  0  0  0
  148.3174  135.2718  155.2631 H   0  0  0  0  0  0  0  0  0  0  0  0
  149.4238  135.5498  153.9147 H   0  0  0  0  0  0  0  0  0  0  0  0
  150.1128  134.6498  156.7079 H   0  0  0  0  0  0  0  0  0  0  0  0
  150.8902  134.2145  155.1845 H   0  0  0  0  0  0  0  0  0  0  0  0
  150.2621  143.9798  156.7978 H   0  0  0  0  0  0  0  0  0  0  0  0
  1  2  2  0  0  0  0
  2  3  1  0  0  0  0
  2 12  1  0  0  0  0
  3  4  1  0  0  0  0
  3 17  1  0  0  0  0
  4  5  1  0  0  0  0
  4 18  1  0  0  0  0
  4 19  1  0  0  0  0
  5  6  1  0  0  0  0
  5 20  1  0  0  0  0
  5 21  1  0  0  0  0
  6 11  1  0  0  0  0
  6  7  2  0  0  0  0
  7  8  1  0  0  0  0
  7 22  1  0  0  0  0
  8  9  2  0  0  0  0
  8 23  1  0  0  0  0
  9 10  1  0  0  0  0
  9 24  1  0  0  0  0
 10 11  2  0  0  0  0
 10 25  1  0  0  0  0
 11 33  1  0  0  0  0
 12 16  1  0  0  0  0
 12 13  1  0  0  0  0
 12 26  1  0  0  0  0
 13 14  1  0  0  0  0
 13 27  1  0  0  0  0
 13 28  1  0  0  0  0
 14 15  1  0  0  0  0
 14 29  1  0  0  0  0
 14 30  1  0  0  0  0
 15 16  1  0  0  0  0
 15 31  1  0  0  0  0
 15 32  1  0  0  0  0
M  CHG  1  11   1
M  END
> <s_m_source_file>
AV-unprocessed.smi

> <i_m_source_file_index>
3176

> <i_lp_mmshare_version>
43012

> <i_f3d_flags>
0

> <s_epik_input>
TzFbQ0gyXVtDSDJdW0NIMl1bQ0BIXTFDKD1PKVtOSF1bQ0gyXVtDSDJdYzJbY0hdW2NIXVtjSF1bY0hdbjI=

> <s_epik_cmdline>
J2VwaWtfcHl0aG9uJywgJy1waCcsICc3LjAnLCAnLXRuJywgJzgnLCAnLW1hJywgJzIwMCcsICctbWV0YWxfYmluZGluZycsICctaW1hZScsICc8aW5maWxlLm1hZT4nLCAnLW9tYWUnLCAnPG91dGZpbGUubWFlPic=

> <r_epik_Ionization_Penalty>
1.81664

> <r_epik_Ionization_Penalty_Charging>
1.81664

> <r_epik_Ionization_Penalty_Neutral>
5.71603e-08

> <r_epik_State_Penalty>
1.93152

> <r_epik_Charging_Adjusted_Penalty>
3.74817

> <i_epik_Tot_Q>
1

> <i_epik_Tot_abs_Q>
1

> <r_epik_Metal_State_Penalty>
1.95876

> <b_epik_Metal_Only>
0

> <s_lp_Force_Field>
OPLS_2005

> <r_lp_Energy>
22.4632

> <b_lp_Chiralities_Consistent>
1

> <s_lp_Variant>
AV-unprocessed.smi:3176-3

> <Gold.Version>
5.8.1

> <Gold.Id.Protein>
6NUR|6NUR_protein|mol2

> <Gold.PLP.Fitness>
42.9380

> <Gold.PLP.PLP>
-31.3296

> <Gold.PLP.part.hbond>
-3.0000

> <Gold.PLP.part.metal>
0.0000

> <Gold.PLP.part.buried>
-4.5734

> <Gold.PLP.part.nonpolar>
-23.4228

> <Gold.PLP.part.repulsive>
0.0502

> <Gold.PLP.ligand.clash>
0.0000

> <Gold.PLP.ligand.torsion>
0.2098

> <Gold.PLP.Chemscore.Hbond>
4.0000

> <Gold.PLP.Chemscore.CHOScore>
0.0000

> <Gold.PLP.Chemscore.Metal>
0.0000

> <Gold.Chemscore.Hbonds>
donor molecule, donor type, donor heavy atom, donor atom, acceptor molecule, acceptor atom, score
      L1  H    11    33       P1  8028  2.00
      P1  H  7997  8008       L1     1  0.55
      P1  H 10752 10764       L1    16  0.88

> <Gold.PLP.Chemscore.Internal.Correction>
0.0280

> <Gold.Rescore>
     Score         DG    S(hbond)    S(metal)    S(lipo)     H(rot)  DE(clash)    DE(int)     intcor
     19.27     -20.30       2.47        0.00      91.33       1.61       0.26       0.77       ----

> <Gold.Chemscore.Fitness>
19.2711

> <Gold.Chemscore.DG>
-20.3016

> <Gold.Chemscore.ZeroCoef>
-5.4800

> <Gold.Chemscore.Hbond>
2.4688

> <Gold.Chemscore.Metal>
0.0000

> <Gold.Chemscore.Lipo>
91.3302

> <Gold.Chemscore.Internal_Hbond>
0.0000

> <Gold.Chemscore.DEClash>
0.2575

> <Gold.Chemscore.DEInternal>
0.7730

> <Gold.Chemscore.Rot>
1.6054

> <Gold.Chemscore.Internal.Correction>
   9.000000E+99

> <Gold.Chemscore.Hbonds>
donor molecule, donor type, donor heavy atom, donor atom, acceptor molecule, acceptor atom, score
      L1  H    11    33       P1  8028  0.98
      P1  H  7997  8008       L1     1  0.53
      P1  H 10752 10764       L1    16  0.40

> <Gold.Chemscore.Hbond.Weighted>
-8.2457

> <Gold.Chemscore.Metal.Weighted>
-0.0000

> <Gold.Chemscore.Lipo.Weighted>
-10.6856

> <Gold.Chemscore.Internal_Hbond.Weighted>
0.0000

> <Gold.Chemscore.DEClash.Weighted>
0.2575

> <Gold.Chemscore.DEInternal.Weighted>
0.7730

> <Gold.Chemscore.Rot.Weighted>
4.1097

> <Gold.Chemscore.Internal.Correction.Weighted>
   9.000000E+99

> <Gold.Protein.RotatedTorsions>
[ 6907 6896 6895 6894 ] final   57.12 input  -60.11 | X-H torsion
[ 7974 7965 7964 7962 ] final   66.13 input  175.53 | X-H torsion
[ 8008 7997 7996 7995 ] final  -31.12 input   59.86 | X-H torsion
[ 10167 10162 10161 10158 ] final   58.80 input  -65.29 | X-H torsion
[ 10718 10713 10712 10709 ] final -131.80 input   66.30 | X-H torsion
[ 10763 10752 10751 10750 ] final  -25.25 input  -60.55 | X-H torsion
[ 11005 11000 10999 10996 ] final -166.92 input  -57.11 | X-H torsion

> <Gold.Protein.ActiveResidues>
 VAL166  LYS551  ARG553  GLY616  TRP617  ASP618  TYR619  PRO620  LYS621  CYS622 
 ASP623  PHE694  ASN695  SER759  ASP760  ASP761  ALA762  ILE779  LEU786  VAL792 
 PHE793  MET794  SER795  GLU796  ALA797  LYS798  CYS799  TRP800  GLU811  SER814 

> <Gold.Protein.RotatedAtoms>
  152.3701  134.6746  160.0178 H   0  0  0  0  0  0  0  0  0  0  0  0  # atno 6907 bound_to 6896
  151.7041  133.3306  159.3282 H   0  0  0  0  0  0  0  0  0  0  0  0  # atno 6908 bound_to 6896
  150.7667  134.6524  159.6340 H   0  0  0  0  0  0  0  0  0  0  0  0  # atno 6909 bound_to 6896
  145.8303  139.3135  143.0991 H   0  0  0  0  0  0  0  0  0  0  0  0  # atno 7974 bound_to 7965
  154.4225  140.1773  156.1516 H   0  0  0  0  0  0  0  0  0  0  0  0  # atno 8008 bound_to 7997
  155.9910  140.3369  155.6729 H   0  0  0  0  0  0  0  0  0  0  0  0  # atno 8009 bound_to 7997
  155.6372  140.0676  157.2621 H   0  0  0  0  0  0  0  0  0  0  0  0  # atno 8010 bound_to 7997
  140.1833  144.4160  150.6605 H   0  0  0  0  0  0  0  0  0  0  0  0  # atno 10167 bound_to 10162
  156.2281  130.7020  151.0828 H   0  0  0  0  0  0  0  0  0  0  0  0  # atno 10718 bound_to 10713
  153.6969  135.6958  153.5074 H   0  0  0  0  0  0  0  0  0  0  0  0  # atno 10763 bound_to 10752
  153.2371  135.4318  155.0658 H   0  0  0  0  0  0  0  0  0  0  0  0  # atno 10764 bound_to 10752
  154.8356  135.3498  154.6509 H   0  0  0  0  0  0  0  0  0  0  0  0  # atno 10765 bound_to 10752
  140.5591  134.5351  157.5139 H   0  0  0  0  0  0  0  0  0  0  0  0  # atno 11005 bound_to 11000
  145.9578  140.8859  143.0226 LP  0  0  0  0  0  0  0  0  0  0  0  0  # atno 17320 bound_to 7965
  144.6740  140.1770  143.7409 LP  0  0  0  0  0  0  0  0  0  0  0  0  # atno 17321 bound_to 7965
  140.6505  143.2224  151.6088 LP  0  0  0  0  0  0  0  0  0  0  0  0  # atno 17342 bound_to 10162
  139.5287  144.2981  152.1096 LP  0  0  0  0  0  0  0  0  0  0  0  0  # atno 17343 bound_to 10162
  157.7120  131.0729  150.6467 LP  0  0  0  0  0  0  0  0  0  0  0  0  # atno 17370 bound_to 10713
  156.6533  130.4491  149.5712 LP  0  0  0  0  0  0  0  0  0  0  0  0  # atno 17371 bound_to 10713
  139.9417  134.7776  156.0663 LP  0  0  0  0  0  0  0  0  0  0  0  0  # atno 17394 bound_to 11000
  141.1125  133.6638  156.3014 LP  0  0  0  0  0  0  0  0  0  0  0  0  # atno 17395 bound_to 11000

$$$$
