AV-unprocessed.smi:1590|AV-procd|sdf|6396|dock9
  -GOLD-   22720 7 33D 1   1.00000     0.00000
 Structure written by MMmdl.
 34 35  0  0  0  0  0  0  0  0  2 V2000
  147.3952  142.0232  155.1120 C   0  0  0  0  0  0  0  0  0  0  0  0
  148.2150  141.1979  154.1099 C   0  0  0  0  0  0  0  0  0  0  0  0
  147.4068  140.0432  153.5003 C   0  0  0  0  0  0  0  0  0  0  0  0
  149.5064  140.7249  154.7025 C   0  0  0  0  0  0  0  0  0  0  0  0
  150.3195  139.8721  154.0726 N   0  0  0  0  0  0  0  0  0  0  0  0
  151.4553  139.5835  154.8145 N   0  0  0  0  0  0  0  0  0  0  0  0
  151.4942  140.2271  155.9895 C   0  0  0  0  0  0  0  0  0  0  0  0
  152.5104  140.0829  156.8560 N   0  5  0  0  0  0  0  0  0  0  0  0
  152.2758  140.1338  158.1873 C   0  0  0  0  0  0  0  0  0  0  0  0
  151.3770  139.5469  158.7944 O   0  0  0  0  0  0  0  0  0  0  0  0
  153.1359  140.9110  158.8586 N   0  0  0  0  0  0  0  0  0  0  0  0
  153.1106  141.1422  160.2967 C   0  0  0  0  0  0  0  0  0  0  0  0
  153.1559  142.6355  160.5973 C   0  0  0  0  0  0  0  0  0  0  0  0
  152.5288  143.1671  161.8945 C   0  0  0  0  0  0  0  0  0  0  0  0
  152.1170  144.4260  161.1262 C   0  0  0  0  0  0  0  0  0  0  0  0
  152.2235  143.5966  159.8438 C   0  0  0  0  0  0  0  0  0  0  0  0
  150.0831  141.2428  156.2808 S   0  0  0  0  0  0  0  0  0  0  0  0
  147.9681  142.8760  155.4770 H   0  0  0  0  0  0  0  0  0  0  0  0
  147.1015  141.4251  155.9753 H   0  0  0  0  0  0  0  0  0  0  0  0
  146.4857  142.4092  154.6512 H   0  0  0  0  0  0  0  0  0  0  0  0
  148.4692  141.8684  153.2875 H   0  0  0  0  0  0  0  0  0  0  0  0
  147.9878  139.5160  152.7430 H   0  0  0  0  0  0  0  0  0  0  0  0
  146.4983  140.4101  153.0223 H   0  0  0  0  0  0  0  0  0  0  0  0
  147.1124  139.3178  154.2592 H   0  0  0  0  0  0  0  0  0  0  0  0
  153.8581  141.3771  158.3295 H   0  0  0  0  0  0  0  0  0  0  0  0
  152.2094  140.6941  160.7177 H   0  0  0  0  0  0  0  0  0  0  0  0
  153.9613  140.6377  160.7567 H   0  0  0  0  0  0  0  0  0  0  0  0
  154.1787  143.0126  160.5269 H   0  0  0  0  0  0  0  0  0  0  0  0
  151.6720  142.5771  162.2243 H   0  0  0  0  0  0  0  0  0  0  0  0
  153.2358  143.3373  162.7070 H   0  0  0  0  0  0  0  0  0  0  0  0
  151.1155  144.7930  161.3522 H   0  0  0  0  0  0  0  0  0  0  0  0
  152.8640  145.2196  161.1804 H   0  0  0  0  0  0  0  0  0  0  0  0
  152.6849  144.1124  159.0014 H   0  0  0  0  0  0  0  0  0  0  0  0
  151.2765  143.1337  159.5610 H   0  0  0  0  0  0  0  0  0  0  0  0
  1  2  1  0  0  0  0
  1 18  1  0  0  0  0
  1 19  1  0  0  0  0
  1 20  1  0  0  0  0
  2  3  1  0  0  0  0
  2  4  1  0  0  0  0
  2 21  1  0  0  0  0
  3 22  1  0  0  0  0
  3 23  1  0  0  0  0
  3 24  1  0  0  0  0
  4 17  1  0  0  0  0
  4  5  2  0  0  0  0
  5  6  1  0  0  0  0
  6  7  2  0  0  0  0
  7  8  1  0  0  0  0
  7 17  1  0  0  0  0
  8  9  1  0  0  0  0
  9 10  2  0  0  0  0
  9 11  1  0  0  0  0
 11 12  1  0  0  0  0
 11 25  1  0  0  0  0
 12 13  1  0  0  0  0
 12 26  1  0  0  0  0
 12 27  1  0  0  0  0
 13 16  1  0  0  0  0
 13 14  1  0  0  0  0
 13 28  1  0  0  0  0
 14 15  1  0  0  0  0
 14 29  1  0  0  0  0
 14 30  1  0  0  0  0
 15 16  1  0  0  0  0
 15 31  1  0  0  0  0
 15 32  1  0  0  0  0
 16 33  1  0  0  0  0
 16 34  1  0  0  0  0
M  CHG  1   8  -1
M  END
> <s_m_source_file>
AV-unprocessed.smi

> <i_m_source_file_index>
1590

> <i_lp_mmshare_version>
43012

> <i_f3d_flags>
0

> <s_epik_input>
W0NIM11bQ0hdKFtDSDNdKWMxbm5jKHMxKVtOSF1DKD1PKVtOSF1bQ0gyXVtDSF0yW0NIMl1bQ0gyXVtDSDJdMg==

> <s_epik_cmdline>
J2VwaWtfcHl0aG9uJywgJy1waCcsICc3LjAnLCAnLXRuJywgJzgnLCAnLW1hJywgJzIwMCcsICctbWV0YWxfYmluZGluZycsICctaW1hZScsICc8aW5maWxlLm1hZT4nLCAnLW9tYWUnLCAnPG91dGZpbGUubWFlPic=

> <r_lp_tautomer_probability>
1

> <r_epik_Ionization_Penalty>
4.56565

> <r_epik_Ionization_Penalty_Charging>
4.40687

> <r_epik_Ionization_Penalty_Neutral>
0.158778

> <r_epik_State_Penalty>
4.40652

> <r_epik_Charging_Adjusted_Penalty>
8.8134

> <i_epik_Tot_Q>
-1

> <i_epik_Tot_abs_Q>
1

> <r_epik_Metal_State_Penalty>
0.774635

> <b_epik_Metal_Only>
1

> <s_lp_Force_Field>
OPLS_2005

> <r_lp_Energy>
4.00522

> <b_lp_Chiralities_Consistent>
1

> <s_lp_Variant>
AV-unprocessed.smi:1590-2

> <Gold.Version>
5.8.1

> <Gold.Id.Protein>
6NUR|6NUR_protein|mol2

> <Gold.PLP.Fitness>
43.7310

> <Gold.PLP.PLP>
-39.7747

> <Gold.PLP.part.hbond>
-3.0000

> <Gold.PLP.part.metal>
0.0000

> <Gold.PLP.part.buried>
-2.4879

> <Gold.PLP.part.nonpolar>
-33.8232

> <Gold.PLP.part.repulsive>
1.1664

> <Gold.PLP.ligand.clash>
0.0000

> <Gold.PLP.ligand.torsion>
1.0973

> <Gold.PLP.Chemscore.Hbond>
2.0000

> <Gold.PLP.Chemscore.CHOScore>
0.0000

> <Gold.PLP.Chemscore.Metal>
0.0000

> <Gold.Chemscore.Hbonds>
donor molecule, donor type, donor heavy atom, donor atom, acceptor molecule, acceptor atom, score
      P1  H  7997  8009       L1     8  2.00

> <Gold.PLP.Chemscore.Internal.Correction>
0.1509

> <Gold.Rescore>
     Score         DG    S(hbond)    S(metal)    S(lipo)     H(rot)  DE(clash)    DE(int)     intcor
     14.89     -15.91       0.91        0.00      93.09       1.36       0.08       0.95       ----

> <Gold.Chemscore.Fitness>
14.8915

> <Gold.Chemscore.DG>
-15.9141

> <Gold.Chemscore.ZeroCoef>
-5.4800

> <Gold.Chemscore.Hbond>
0.9057

> <Gold.Chemscore.Metal>
0.0000

> <Gold.Chemscore.Lipo>
93.0911

> <Gold.Chemscore.Internal_Hbond>
0.0000

> <Gold.Chemscore.DEClash>
0.0767

> <Gold.Chemscore.DEInternal>
0.9459

> <Gold.Chemscore.Rot>
1.3604

> <Gold.Chemscore.Internal.Correction>
   9.000000E+99

> <Gold.Chemscore.Hbonds>
donor molecule, donor type, donor heavy atom, donor atom, acceptor molecule, acceptor atom, score
      P1  H  7997  8009       L1     8  0.87

> <Gold.Chemscore.Hbond.Weighted>
-3.0250

> <Gold.Chemscore.Metal.Weighted>
-0.0000

> <Gold.Chemscore.Lipo.Weighted>
-10.8917

> <Gold.Chemscore.Internal_Hbond.Weighted>
0.0000

> <Gold.Chemscore.DEClash.Weighted>
0.0767

> <Gold.Chemscore.DEInternal.Weighted>
0.9459

> <Gold.Chemscore.Rot.Weighted>
3.4826

> <Gold.Chemscore.Internal.Correction.Weighted>
   9.000000E+99

> <Gold.Protein.RotatedTorsions>
[ 6907 6896 6895 6894 ] final  -84.87 input  -60.11 | X-H torsion
[ 7974 7965 7964 7962 ] final  -92.18 input  175.53 | X-H torsion
[ 8008 7997 7996 7995 ] final -163.25 input   59.86 | X-H torsion
[ 10167 10162 10161 10158 ] final -131.71 input  -65.29 | X-H torsion
[ 10718 10713 10712 10709 ] final -133.09 input   66.30 | X-H torsion
[ 10763 10752 10751 10750 ] final  145.26 input  -60.55 | X-H torsion
[ 11005 11000 10999 10996 ] final  -14.96 input  -57.11 | X-H torsion

> <Gold.Protein.ActiveResidues>
 VAL166  LYS551  ARG553  GLY616  TRP617  ASP618  TYR619  PRO620  LYS621  CYS622 
 ASP623  PHE694  ASN695  SER759  ASP760  ASP761  ALA762  ILE779  LEU786  VAL792 
 PHE793  MET794  SER795  GLU796  ALA797  LYS798  CYS799  TRP800  GLU811  SER814 

> <Gold.Protein.RotatedAtoms>
  150.6873  134.3293  159.4819 H   0  0  0  0  0  0  0  0  0  0  0  0  # atno 6907 bound_to 6896
  152.1159  134.9238  160.0574 H   0  0  0  0  0  0  0  0  0  0  0  0  # atno 6908 bound_to 6896
  152.0463  133.3964  159.4395 H   0  0  0  0  0  0  0  0  0  0  0  0  # atno 6909 bound_to 6896
  145.4033  140.9539  143.2275 H   0  0  0  0  0  0  0  0  0  0  0  0  # atno 7974 bound_to 7965
  155.8185  140.0916  157.1863 H   0  0  0  0  0  0  0  0  0  0  0  0  # atno 8008 bound_to 7997
  154.3979  140.1441  156.3532 H   0  0  0  0  0  0  0  0  0  0  0  0  # atno 8009 bound_to 7997
  155.8291  140.3443  155.5563 H   0  0  0  0  0  0  0  0  0  0  0  0  # atno 8010 bound_to 7997
  139.9161  143.6437  152.2564 H   0  0  0  0  0  0  0  0  0  0  0  0  # atno 10167 bound_to 10162
  156.2413  130.7097  151.0960 H   0  0  0  0  0  0  0  0  0  0  0  0  # atno 10718 bound_to 10713
  154.0025  135.2922  155.3401 H   0  0  0  0  0  0  0  0  0  0  0  0  # atno 10763 bound_to 10752
  154.7151  135.5133  153.8728 H   0  0  0  0  0  0  0  0  0  0  0  0  # atno 10764 bound_to 10752
  153.0759  135.6663  154.0265 H   0  0  0  0  0  0  0  0  0  0  0  0  # atno 10765 bound_to 10752
  140.7917  133.8282  155.9386 H   0  0  0  0  0  0  0  0  0  0  0  0  # atno 11005 bound_to 11000
  144.8359  139.5551  143.6922 LP  0  0  0  0  0  0  0  0  0  0  0  0  # atno 17320 bound_to 7965
  146.2741  139.6709  142.9275 LP  0  0  0  0  0  0  0  0  0  0  0  0  # atno 17321 bound_to 7965
  139.6901  144.7647  151.1453 LP  0  0  0  0  0  0  0  0  0  0  0  0  # atno 17342 bound_to 10162
  140.7674  143.5601  150.9109 LP  0  0  0  0  0  0  0  0  0  0  0  0  # atno 17343 bound_to 10162
  157.7176  131.0700  150.6264 LP  0  0  0  0  0  0  0  0  0  0  0  0  # atno 17370 bound_to 10713
  156.6338  130.4439  149.5777 LP  0  0  0  0  0  0  0  0  0  0  0  0  # atno 17371 bound_to 10713
  140.9382  134.1934  157.4816 LP  0  0  0  0  0  0  0  0  0  0  0  0  # atno 17394 bound_to 11000
  139.8730  134.9861  156.5310 LP  0  0  0  0  0  0  0  0  0  0  0  0  # atno 17395 bound_to 11000

$$$$
