AV-unprocessed.smi:651|AV-procd|sdf|3184|dock1
  -GOLD-   22720 0113D 1   1.00000     0.00000
 Structure written by MMmdl.
 38 39  0  0  0  0  0  0  0  0  1 V2000
  152.8084  143.1046  162.2151 C   0  0  0  0  0  0  0  0  0  0  0  0
  152.4427  143.1517  160.7464 C   0  0  0  0  0  0  0  0  0  0  0  0
  152.0991  144.3707  160.1251 C   0  0  0  0  0  0  0  0  0  0  0  0
  151.7710  144.3562  158.7561 C   0  0  0  0  0  0  0  0  0  0  0  0
  151.8021  143.1292  158.0616 C   0  0  0  0  0  0  0  0  0  0  0  0
  151.4687  143.0606  156.5805 C   0  0  0  0  0  0  0  0  0  0  0  0
  150.5005  141.9116  156.2877 C   0  0  0  0  0  0  0  0  0  0  0  0
  150.8324  140.7518  156.5307 O   0  0  0  0  0  0  0  0  0  0  0  0
  149.3074  142.2458  155.7714 N   0  0  0  0  0  0  0  0  0  0  0  0
  148.2564  141.3045  155.3961 C   0  0  2  0  0  0  0  0  0  0  0  0
  148.7516  140.2539  154.3879 C   0  0  0  0  0  0  0  0  0  0  0  0
  147.5489  139.9692  153.4947 C   0  0  0  0  0  0  0  0  0  0  0  0
  146.8609  141.3254  153.3613 C   0  0  0  0  0  0  0  0  0  0  0  0
  147.0742  142.0401  154.7105 C   0  0  1  0  0  0  0  0  0  0  0  0
  145.8062  142.0368  155.5800 C   0  0  0  0  0  0  0  0  0  0  0  0
  144.6881  141.5618  155.0254 N   0  0  0  0  0  0  0  0  0  0  0  0
  145.8350  142.4519  156.7373 O   0  0  0  0  0  0  0  0  0  0  0  0
  152.1575  141.9660  158.7776 C   0  0  0  0  0  0  0  0  0  0  0  0
  152.4725  141.9706  160.0907 N   0  0  0  0  0  0  0  0  0  0  0  0
  152.5939  144.0547  162.7055 H   0  0  0  0  0  0  0  0  0  0  0  0
  153.8713  142.8923  162.3326 H   0  0  0  0  0  0  0  0  0  0  0  0
  152.2424  142.3250  162.7258 H   0  0  0  0  0  0  0  0  0  0  0  0
  152.0876  145.2965  160.6813 H   0  0  0  0  0  0  0  0  0  0  0  0
  151.5068  145.2726  158.2490 H   0  0  0  0  0  0  0  0  0  0  0  0
  151.0271  144.0070  156.2653 H   0  0  0  0  0  0  0  0  0  0  0  0
  152.3783  142.9248  155.9943 H   0  0  0  0  0  0  0  0  0  0  0  0
  149.1241  143.2244  155.6038 H   0  0  0  0  0  0  0  0  0  0  0  0
  147.9137  140.7858  156.2945 H   0  0  0  0  0  0  0  0  0  0  0  0
  149.5583  140.6634  153.7771 H   0  0  0  0  0  0  0  0  0  0  0  0
  149.1321  139.3551  154.8744 H   0  0  0  0  0  0  0  0  0  0  0  0
  147.8307  139.5430  152.5315 H   0  0  0  0  0  0  0  0  0  0  0  0
  146.8815  139.2632  153.9907 H   0  0  0  0  0  0  0  0  0  0  0  0
  147.3432  141.9000  152.5695 H   0  0  0  0  0  0  0  0  0  0  0  0
  145.8113  141.2203  153.0824 H   0  0  0  0  0  0  0  0  0  0  0  0
  147.3397  143.0782  154.4995 H   0  0  0  0  0  0  0  0  0  0  0  0
  143.8297  141.5396  155.5564 H   0  0  0  0  0  0  0  0  0  0  0  0
  144.7059  141.2260  154.0733 H   0  0  0  0  0  0  0  0  0  0  0  0
  152.1951  141.0067  158.2825 H   0  0  0  0  0  0  0  0  0  0  0  0
  1  2  1  0  0  0  0
  1 20  1  0  0  0  0
  1 21  1  0  0  0  0
  1 22  1  0  0  0  0
  2 19  1  0  0  0  0
  2  3  2  0  0  0  0
  3  4  1  0  0  0  0
  3 23  1  0  0  0  0
  4  5  2  0  0  0  0
  4 24  1  0  0  0  0
  5  6  1  0  0  0  0
  5 18  1  0  0  0  0
  6  7  1  0  0  0  0
  6 25  1  0  0  0  0
  6 26  1  0  0  0  0
  7  8  2  0  0  0  0
  7  9  1  0  0  0  0
  9 10  1  0  0  0  0
  9 27  1  0  0  0  0
 10 14  1  0  0  0  0
 10 11  1  0  0  0  0
 10 28  1  0  0  0  0
 11 12  1  0  0  0  0
 11 29  1  0  0  0  0
 11 30  1  0  0  0  0
 12 13  1  0  0  0  0
 12 31  1  0  0  0  0
 12 32  1  0  0  0  0
 13 14  1  0  0  0  0
 13 33  1  0  0  0  0
 13 34  1  0  0  0  0
 14 15  1  0  0  0  0
 14 35  1  0  0  0  0
 15 16  1  0  0  0  0
 15 17  2  0  0  0  0
 16 36  1  0  0  0  0
 16 37  1  0  0  0  0
 18 19  2  0  0  0  0
 18 38  1  0  0  0  0
M  END
> <s_m_source_file>
AV-unprocessed.smi

> <i_m_source_file_index>
651

> <i_lp_mmshare_version>
43012

> <i_f3d_flags>
0

> <s_epik_input>
W0NIM11jMVtjSF1bY0hdYyhbY0hdbjEpW0NIMl1DKD1PKVtOSF1bQ0BASF0yW0NIMl1bQ0gyXVtDSDJdW0NASF0yQyg9TylbTkgyXQ==

> <s_epik_cmdline>
J2VwaWtfcHl0aG9uJywgJy1waCcsICc3LjAnLCAnLXRuJywgJzgnLCAnLW1hJywgJzIwMCcsICctbWV0YWxfYmluZGluZycsICctaW1hZScsICc8aW5maWxlLm1hZT4nLCAnLW9tYWUnLCAnPG91dGZpbGUubWFlPic=

> <r_epik_Ionization_Penalty>
0.0159502

> <r_epik_Ionization_Penalty_Charging>
0

> <r_epik_Ionization_Penalty_Neutral>
0.0159502

> <r_epik_State_Penalty>
0.012563

> <r_epik_Charging_Adjusted_Penalty>
0.012563

> <i_epik_Tot_Q>
0

> <i_epik_Tot_abs_Q>
0

> <r_epik_Metal_State_Penalty>
0.0122326

> <b_epik_Metal_Only>
0

> <s_lp_Force_Field>
OPLS_2005

> <r_lp_Energy>
13.4816

> <b_lp_Chiralities_Consistent>
1

> <s_lp_Variant>
AV-unprocessed.smi:651-1

> <Gold.Version>
5.8.1

> <Gold.Id.Protein>
6NUR|6NUR_protein|mol2

> <Gold.PLP.Fitness>
44.5185

> <Gold.PLP.PLP>
-39.2807

> <Gold.PLP.part.hbond>
-2.0000

> <Gold.PLP.part.metal>
0.0000

> <Gold.PLP.part.buried>
-6.2715

> <Gold.PLP.part.nonpolar>
-31.9616

> <Gold.PLP.part.repulsive>
0.2658

> <Gold.PLP.ligand.clash>
0.1071

> <Gold.PLP.ligand.torsion>
0.2528

> <Gold.PLP.Chemscore.Hbond>
1.9440

> <Gold.PLP.Chemscore.CHOScore>
0.0000

> <Gold.PLP.Chemscore.Metal>
0.0000

> <Gold.Chemscore.Hbonds>
donor molecule, donor type, donor heavy atom, donor atom, acceptor molecule, acceptor atom, score
      L1  H     9    27       P1  8028  0.96
      L1  H    16    37       P1 10175  0.94

> <Gold.PLP.Chemscore.Internal.Correction>
0.0185

> <Gold.Rescore>
     Score         DG    S(hbond)    S(metal)    S(lipo)     H(rot)  DE(clash)    DE(int)     intcor
     17.35     -19.56       1.88        0.00     109.63       1.97       1.30       0.90       ----

> <Gold.Chemscore.Fitness>
17.3543

> <Gold.Chemscore.DG>
-19.5579

> <Gold.Chemscore.ZeroCoef>
-5.4800

> <Gold.Chemscore.Hbond>
1.8848

> <Gold.Chemscore.Metal>
0.0000

> <Gold.Chemscore.Lipo>
109.6333

> <Gold.Chemscore.Internal_Hbond>
0.0000

> <Gold.Chemscore.DEClash>
1.3029

> <Gold.Chemscore.DEInternal>
0.9007

> <Gold.Chemscore.Rot>
1.9704

> <Gold.Chemscore.Internal.Correction>
   9.000000E+99

> <Gold.Chemscore.Hbonds>
donor molecule, donor type, donor heavy atom, donor atom, acceptor molecule, acceptor atom, score
      L1  H     9    27       P1  8028  0.90
      L1  H    16    37       P1 10175  0.57

> <Gold.Chemscore.Hbond.Weighted>
-6.2951

> <Gold.Chemscore.Metal.Weighted>
-0.0000

> <Gold.Chemscore.Lipo.Weighted>
-12.8271

> <Gold.Chemscore.Internal_Hbond.Weighted>
0.0000

> <Gold.Chemscore.DEClash.Weighted>
1.3029

> <Gold.Chemscore.DEInternal.Weighted>
0.9007

> <Gold.Chemscore.Rot.Weighted>
5.0443

> <Gold.Chemscore.Internal.Correction.Weighted>
   9.000000E+99

> <Gold.Protein.RotatedTorsions>
[ 6907 6896 6895 6894 ] final   13.81 input  -60.11 | X-H torsion
[ 7974 7965 7964 7962 ] final   16.90 input  175.53 | X-H torsion
[ 8008 7997 7996 7995 ] final   98.35 input   59.86 | X-H torsion
[ 10167 10162 10161 10158 ] final -130.61 input  -65.29 | X-H torsion
[ 10718 10713 10712 10709 ] final   75.49 input   66.30 | X-H torsion
[ 10763 10752 10751 10750 ] final -146.64 input  -60.55 | X-H torsion
[ 11005 11000 10999 10996 ] final  149.21 input  -57.11 | X-H torsion

> <Gold.Protein.ActiveResidues>
 VAL166  LYS551  ARG553  GLY616  TRP617  ASP618  TYR619  PRO620  LYS621  CYS622 
 ASP623  PHE694  ASN695  SER759  ASP760  ASP761  ALA762  ILE779  LEU786  VAL792 
 PHE793  MET794  SER795  GLU796  ALA797  LYS798  CYS799  TRP800  GLU811  SER814 

> <Gold.Protein.RotatedAtoms>
  151.7922  135.0732  160.0388 H   0  0  0  0  0  0  0  0  0  0  0  0  # atno 6907 bound_to 6896
  152.3148  133.5786  159.5713 H   0  0  0  0  0  0  0  0  0  0  0  0  # atno 6908 bound_to 6896
  150.7338  134.0014  159.3681 H   0  0  0  0  0  0  0  0  0  0  0  0  # atno 6909 bound_to 6896
  146.2235  139.8681  142.8592 H   0  0  0  0  0  0  0  0  0  0  0  0  # atno 7974 bound_to 7965
  156.0995  140.3245  155.7923 H   0  0  0  0  0  0  0  0  0  0  0  0  # atno 8008 bound_to 7997
  155.4861  140.0558  157.2977 H   0  0  0  0  0  0  0  0  0  0  0  0  # atno 8009 bound_to 7997
  154.4688  140.2001  156.0064 H   0  0  0  0  0  0  0  0  0  0  0  0  # atno 8010 bound_to 7997
  139.9276  143.6310  152.2538 H   0  0  0  0  0  0  0  0  0  0  0  0  # atno 10167 bound_to 10162
  157.6636  130.9729  150.1361 H   0  0  0  0  0  0  0  0  0  0  0  0  # atno 10718 bound_to 10713
  154.8326  135.3381  154.6693 H   0  0  0  0  0  0  0  0  0  0  0  0  # atno 10763 bound_to 10752
  153.7311  135.6952  153.4993 H   0  0  0  0  0  0  0  0  0  0  0  0  # atno 10764 bound_to 10752
  153.2311  135.4416  155.0549 H   0  0  0  0  0  0  0  0  0  0  0  0  # atno 10765 bound_to 10752
  140.1025  134.8974  157.1817 H   0  0  0  0  0  0  0  0  0  0  0  0  # atno 11005 bound_to 11000
  145.2636  141.0085  143.3812 LP  0  0  0  0  0  0  0  0  0  0  0  0  # atno 17320 bound_to 7965
  144.9279  139.4334  143.6509 LP  0  0  0  0  0  0  0  0  0  0  0  0  # atno 17321 bound_to 7965
  139.6809  144.7655  151.1610 LP  0  0  0  0  0  0  0  0  0  0  0  0  # atno 17342 bound_to 10162
  140.7646  143.5726  150.8980 LP  0  0  0  0  0  0  0  0  0  0  0  0  # atno 17343 bound_to 10162
  156.2196  130.3673  149.8572 LP  0  0  0  0  0  0  0  0  0  0  0  0  # atno 17370 bound_to 10713
  156.6429  130.8712  151.3517 LP  0  0  0  0  0  0  0  0  0  0  0  0  # atno 17371 bound_to 10713
  140.3201  134.2926  155.7248 LP  0  0  0  0  0  0  0  0  0  0  0  0  # atno 17394 bound_to 11000
  141.2109  133.7704  156.9898 LP  0  0  0  0  0  0  0  0  0  0  0  0  # atno 17395 bound_to 11000

$$$$
