AV-unprocessed.smi:2931|AV-procd|sdf|11244|dock10
  -GOLD-   2272016143D 1   1.00000     0.00000
 Structure written by MMmdl.
 42 43  0  0  0  0  0  0  0  0  2 V2000
  148.3317  132.8271  153.9357 C   0  0  0  0  0  0  0  0  0  0  0  0
  147.5387  133.7620  153.1096 N   0  3  1  0  0  0  0  0  0  0  0  0
  146.9663  133.1083  151.9058 C   0  0  0  0  0  0  0  0  0  0  0  0
  146.2486  134.1294  151.0050 C   0  0  0  0  0  0  0  0  0  0  0  0
  145.1915  134.9271  151.7893 C   0  0  0  0  0  0  0  0  0  0  0  0
  145.8047  135.5633  153.0498 C   0  0  2  0  0  0  0  0  0  0  0  0
  146.7381  136.6210  152.6633 N   0  0  0  0  0  0  0  0  0  0  0  0
  146.6393  137.9102  153.0138 C   0  0  0  0  0  0  0  0  0  0  0  0
  145.7097  138.3781  153.6705 O   0  0  0  0  0  0  0  0  0  0  0  0
  147.7018  138.6150  152.6034 N   0  0  0  0  0  0  0  0  0  0  0  0
  147.9687  140.0087  152.9457 C   0  0  0  0  0  0  0  0  0  0  0  0
  148.0871  140.2466  154.4666 C   0  0  0  0  0  0  0  0  0  0  0  0
  149.5168  140.2196  154.9830 C   0  0  0  0  0  0  0  0  0  0  0  0
  150.0158  141.2710  155.7809 C   0  0  0  0  0  0  0  0  0  0  0  0
  151.3446  141.1909  156.2431 C   0  0  0  0  0  0  0  0  0  0  0  0
  152.1641  140.1539  155.9694 N   0  0  0  0  0  0  0  0  0  0  0  0
  151.6808  139.1524  155.2028 C   0  0  0  0  0  0  0  0  0  0  0  0
  150.3694  139.1365  154.6864 C   0  0  0  0  0  0  0  0  0  0  0  0
  146.4982  134.4708  153.8961 C   0  0  0  0  0  0  0  0  0  0  0  0
  147.7079  132.0207  154.3231 H   0  0  0  0  0  0  0  0  0  0  0  0
  148.7832  133.3474  154.7809 H   0  0  0  0  0  0  0  0  0  0  0  0
  149.1380  132.3859  153.3489 H   0  0  0  0  0  0  0  0  0  0  0  0
  147.7622  132.6212  151.3413 H   0  0  0  0  0  0  0  0  0  0  0  0
  146.2703  132.3257  152.2123 H   0  0  0  0  0  0  0  0  0  0  0  0
  146.9815  134.8115  150.5725 H   0  0  0  0  0  0  0  0  0  0  0  0
  145.7782  133.6172  150.1652 H   0  0  0  0  0  0  0  0  0  0  0  0
  144.7450  135.6916  151.1522 H   0  0  0  0  0  0  0  0  0  0  0  0
  144.3793  134.2594  152.0804 H   0  0  0  0  0  0  0  0  0  0  0  0
  145.0028  136.0154  153.6360 H   0  0  0  0  0  0  0  0  0  0  0  0
  147.5374  136.3416  152.1135 H   0  0  0  0  0  0  0  0  0  0  0  0
  148.4101  138.1391  152.0639 H   0  0  0  0  0  0  0  0  0  0  0  0
  148.9109  140.2774  152.4670 H   0  0  0  0  0  0  0  0  0  0  0  0
  147.2070  140.6593  152.5138 H   0  0  0  0  0  0  0  0  0  0  0  0
  147.6372  141.2059  154.7246 H   0  0  0  0  0  0  0  0  0  0  0  0
  147.5057  139.4929  154.9989 H   0  0  0  0  0  0  0  0  0  0  0  0
  149.3972  142.1193  156.0352 H   0  0  0  0  0  0  0  0  0  0  0  0
  151.7589  141.9788  156.8543 H   0  0  0  0  0  0  0  0  0  0  0  0
  152.3589  138.3375  154.9966 H   0  0  0  0  0  0  0  0  0  0  0  0
  150.0278  138.3100  154.0805 H   0  0  0  0  0  0  0  0  0  0  0  0
  145.7600  133.7499  154.2514 H   0  0  0  0  0  0  0  0  0  0  0  0
  146.9492  134.9106  154.7866 H   0  0  0  0  0  0  0  0  0  0  0  0
  148.1806  134.4692  152.7807 H   0  0  0  0  0  0  0  0  0  0  0  0
  1  2  1  0  0  0  0
  1 20  1  0  0  0  0
  1 21  1  0  0  0  0
  1 22  1  0  0  0  0
  2 19  1  0  0  0  0
  2  3  1  0  0  0  0
  2 42  1  0  0  0  0
  3  4  1  0  0  0  0
  3 23  1  0  0  0  0
  3 24  1  0  0  0  0
  4  5  1  0  0  0  0
  4 25  1  0  0  0  0
  4 26  1  0  0  0  0
  5  6  1  0  0  0  0
  5 27  1  0  0  0  0
  5 28  1  0  0  0  0
  6  7  1  0  0  0  0
  6 19  1  0  0  0  0
  6 29  1  0  0  0  0
  7  8  1  0  0  0  0
  7 30  1  0  0  0  0
  8  9  2  0  0  0  0
  8 10  1  0  0  0  0
 10 11  1  0  0  0  0
 10 31  1  0  0  0  0
 11 12  1  0  0  0  0
 11 32  1  0  0  0  0
 11 33  1  0  0  0  0
 12 13  1  0  0  0  0
 12 34  1  0  0  0  0
 12 35  1  0  0  0  0
 13 18  1  0  0  0  0
 13 14  2  0  0  0  0
 14 15  1  0  0  0  0
 14 36  1  0  0  0  0
 15 16  2  0  0  0  0
 15 37  1  0  0  0  0
 16 17  1  0  0  0  0
 17 18  2  0  0  0  0
 17 38  1  0  0  0  0
 18 39  1  0  0  0  0
 19 40  1  0  0  0  0
 19 41  1  0  0  0  0
M  CHG  1   2   1
M  END
> <s_m_source_file>
AV-unprocessed.smi

> <i_m_source_file_index>
2931

> <i_lp_mmshare_version>
43012

> <i_f3d_flags>
0

> <s_epik_input>
W0NIM11OMVtDSDJdW0NIMl1bQ0gyXVtDQEhdKFtDSDJdMSlbTkhdQyg9TylbTkhdW0NIMl1bQ0gyXWMyW2NIXVtjSF1uW2NIXVtjSF0y

> <s_epik_cmdline>
J2VwaWtfcHl0aG9uJywgJy1waCcsICc3LjAnLCAnLXRuJywgJzgnLCAnLW1hJywgJzIwMCcsICctbWV0YWxfYmluZGluZycsICctaW1hZScsICc8aW5maWxlLm1hZT4nLCAnLW9tYWUnLCAnPG91dGZpbGUubWFlPic=

> <r_epik_Ionization_Penalty>
0.0573876

> <r_epik_Ionization_Penalty_Charging>
0.00229982

> <r_epik_Ionization_Penalty_Neutral>
0.0550878

> <r_epik_State_Penalty>
0.0473925

> <r_epik_Charging_Adjusted_Penalty>
0.0496923

> <i_epik_Tot_Q>
1

> <i_epik_Tot_abs_Q>
1

> <r_epik_Metal_State_Penalty>
0.0433388

> <b_epik_Metal_Only>
0

> <s_lp_Force_Field>
OPLS_2005

> <r_lp_Energy>
20.0995

> <b_lp_Chiralities_Consistent>
1

> <s_lp_Variant>
AV-unprocessed.smi:2931-3

> <Gold.Version>
5.8.1

> <Gold.Id.Protein>
6NUR|6NUR_protein|mol2

> <Gold.PLP.Fitness>
44.2992

> <Gold.PLP.PLP>
-31.4459

> <Gold.PLP.part.hbond>
-5.2484

> <Gold.PLP.part.metal>
0.0000

> <Gold.PLP.part.buried>
1.8714

> <Gold.PLP.part.nonpolar>
-27.8496

> <Gold.PLP.part.repulsive>
0.2693

> <Gold.PLP.ligand.clash>
0.0000

> <Gold.PLP.ligand.torsion>
0.3085

> <Gold.PLP.Chemscore.Hbond>
4.4880

> <Gold.PLP.Chemscore.CHOScore>
0.0000

> <Gold.PLP.Chemscore.Metal>
0.0000

> <Gold.Chemscore.Hbonds>
donor molecule, donor type, donor heavy atom, donor atom, acceptor molecule, acceptor atom, score
      L1  H     2    42       P1  7948  1.69
      L1  H     7    30       P1  7948  0.73
      L1  H    10    31       P1  7948  0.72
      P1  H  7997  8010       L1    16  0.57

> <Gold.PLP.Chemscore.Internal.Correction>
0.0062

> <Gold.Rescore>
     Score         DG    S(hbond)    S(metal)    S(lipo)     H(rot)  DE(clash)    DE(int)     intcor
     17.74     -18.12       2.63        0.00      67.04       1.56       0.01       0.38       ----

> <Gold.Chemscore.Fitness>
17.7360

> <Gold.Chemscore.DG>
-18.1237

> <Gold.Chemscore.ZeroCoef>
-5.4800

> <Gold.Chemscore.Hbond>
2.6322

> <Gold.Chemscore.Metal>
0.0000

> <Gold.Chemscore.Lipo>
67.0387

> <Gold.Chemscore.Internal_Hbond>
0.0000

> <Gold.Chemscore.DEClash>
0.0061

> <Gold.Chemscore.DEInternal>
0.3816

> <Gold.Chemscore.Rot>
1.5592

> <Gold.Chemscore.Internal.Correction>
   9.000000E+99

> <Gold.Chemscore.Hbonds>
donor molecule, donor type, donor heavy atom, donor atom, acceptor molecule, acceptor atom, score
      L1  H     2    42       P1  7948  0.33
      L1  H     7    30       P1  7948  0.71
      L1  H    10    31       P1  7948  0.71
      P1  H  7997  8010       L1    16  0.49

> <Gold.Chemscore.Hbond.Weighted>
-8.7917

> <Gold.Chemscore.Metal.Weighted>
-0.0000

> <Gold.Chemscore.Lipo.Weighted>
-7.8435

> <Gold.Chemscore.Internal_Hbond.Weighted>
0.0000

> <Gold.Chemscore.DEClash.Weighted>
0.0061

> <Gold.Chemscore.DEInternal.Weighted>
0.3816

> <Gold.Chemscore.Rot.Weighted>
3.9915

> <Gold.Chemscore.Internal.Correction.Weighted>
   9.000000E+99

> <Gold.Protein.RotatedTorsions>
[ 6907 6896 6895 6894 ] final -158.84 input  -60.11 | X-H torsion
[ 7974 7965 7964 7962 ] final  -30.40 input  175.53 | X-H torsion
[ 8008 7997 7996 7995 ] final   90.97 input   59.86 | X-H torsion
[ 10167 10162 10161 10158 ] final  -43.15 input  -65.29 | X-H torsion
[ 10718 10713 10712 10709 ] final   95.79 input   66.30 | X-H torsion
[ 10763 10752 10751 10750 ] final -102.30 input  -60.55 | X-H torsion
[ 11005 11000 10999 10996 ] final  136.94 input  -57.11 | X-H torsion

> <Gold.Protein.ActiveResidues>
 VAL166  LYS551  ARG553  GLY616  TRP617  ASP618  TYR619  PRO620  LYS621  CYS622 
 ASP623  PHE694  ASN695  SER759  ASP760  ASP761  ALA762  ILE779  LEU786  VAL792 
 PHE793  MET794  SER795  GLU796  ALA797  LYS798  CYS799  TRP800  GLU811  SER814 

> <Gold.Protein.RotatedAtoms>
  151.3243  133.4027  159.2656 H   0  0  0  0  0  0  0  0  0  0  0  0  # atno 6907 bound_to 6896
  151.0008  134.9321  159.7963 H   0  0  0  0  0  0  0  0  0  0  0  0  # atno 6908 bound_to 6896
  152.5274  134.3208  159.9200 H   0  0  0  0  0  0  0  0  0  0  0  0  # atno 6909 bound_to 6896
  146.1146  140.5535  142.8763 H   0  0  0  0  0  0  0  0  0  0  0  0  # atno 7974 bound_to 7965
  156.0182  140.3343  155.7011 H   0  0  0  0  0  0  0  0  0  0  0  0  # atno 8008 bound_to 7997
  155.6060  140.0660  157.2737 H   0  0  0  0  0  0  0  0  0  0  0  0  # atno 8009 bound_to 7997
  154.4306  140.1802  156.1210 H   0  0  0  0  0  0  0  0  0  0  0  0  # atno 8010 bound_to 7997
  140.6944  143.2998  151.3311 H   0  0  0  0  0  0  0  0  0  0  0  0  # atno 10167 bound_to 10162
  157.6934  131.0557  150.4393 H   0  0  0  0  0  0  0  0  0  0  0  0  # atno 10718 bound_to 10713
  154.7723  135.4866  153.9674 H   0  0  0  0  0  0  0  0  0  0  0  0  # atno 10763 bound_to 10752
  153.1384  135.6767  153.9074 H   0  0  0  0  0  0  0  0  0  0  0  0  # atno 10764 bound_to 10752
  153.8756  135.3138  155.3422 H   0  0  0  0  0  0  0  0  0  0  0  0  # atno 10765 bound_to 10752
  140.0080  134.9451  157.0217 H   0  0  0  0  0  0  0  0  0  0  0  0  # atno 11005 bound_to 11000
  144.7541  140.5264  143.6781 LP  0  0  0  0  0  0  0  0  0  0  0  0  # atno 17320 bound_to 7965
  145.5594  139.1479  143.3350 LP  0  0  0  0  0  0  0  0  0  0  0  0  # atno 17321 bound_to 7965
  139.6382  144.0590  152.2533 LP  0  0  0  0  0  0  0  0  0  0  0  0  # atno 17342 bound_to 10162
  140.0087  144.6240  150.7666 LP  0  0  0  0  0  0  0  0  0  0  0  0  # atno 17343 bound_to 10162
  156.4753  130.4062  149.6493 LP  0  0  0  0  0  0  0  0  0  0  0  0  # atno 17370 bound_to 10713
  156.3559  130.7456  151.2422 LP  0  0  0  0  0  0  0  0  0  0  0  0  # atno 17371 bound_to 10713
  140.4606  134.1488  155.7191 LP  0  0  0  0  0  0  0  0  0  0  0  0  # atno 17394 bound_to 11000
  141.1691  133.8645  157.1626 LP  0  0  0  0  0  0  0  0  0  0  0  0  # atno 17395 bound_to 11000

$$$$
