AV-unprocessed.smi:2597|AV-procd|sdf|10173|dock9
  -GOLD-   2272014183D 1   1.00000     0.00000
 Structure written by MMmdl.
 31 32  0  0  0  0  0  0  0  0  2 V2000
  150.5735  143.3496  157.2362 N   0  3  0  0  0  0  0  0  0  0  0  0
  151.4301  143.8534  158.3266 C   0  0  2  0  0  0  0  0  0  0  0  0
  152.0725  142.6895  159.1086 C   0  0  0  0  0  0  0  0  0  0  0  0
  152.9718  143.2085  160.2418 C   0  0  0  0  0  0  0  0  0  0  0  0
  152.2076  144.1470  161.1885 C   0  0  0  0  0  0  0  0  0  0  0  0
  151.5564  145.3134  160.4216 C   0  0  0  0  0  0  0  0  0  0  0  0
  150.6731  144.8601  159.2355 C   0  0  2  0  0  0  0  0  0  0  0  0
  149.3482  144.4037  159.6589 N   0  0  0  0  0  0  0  0  0  0  0  0
  148.4720  145.0509  160.5075 C   0  0  0  0  0  0  0  0  0  0  0  0
  147.3882  144.2210  160.5526 C   0  0  0  0  0  0  0  0  0  0  0  0
  146.0995  144.3806  161.2996 C   0  0  0  0  0  0  0  0  0  0  0  0
  145.4700  145.5317  160.7793 O   0  0  0  0  0  0  0  0  0  0  0  0
  147.6439  143.1138  159.7474 N   0  0  0  0  0  0  0  0  0  0  0  0
  148.8211  143.2327  159.2217 N   0  0  0  0  0  0  0  0  0  0  0  0
  152.2408  144.3998  157.8426 H   0  0  0  0  0  0  0  0  0  0  0  0
  150.4920  145.7508  158.6315 H   0  0  0  0  0  0  0  0  0  0  0  0
  149.8419  142.7709  157.6242 H   0  0  0  0  0  0  0  0  0  0  0  0
  151.1294  142.8032  156.5939 H   0  0  0  0  0  0  0  0  0  0  0  0
  151.3101  142.0273  159.5176 H   0  0  0  0  0  0  0  0  0  0  0  0
  152.6679  142.0752  158.4321 H   0  0  0  0  0  0  0  0  0  0  0  0
  153.3825  142.3693  160.8040 H   0  0  0  0  0  0  0  0  0  0  0  0
  153.8239  143.7394  159.8154 H   0  0  0  0  0  0  0  0  0  0  0  0
  151.4551  143.5843  161.7396 H   0  0  0  0  0  0  0  0  0  0  0  0
  152.8909  144.5425  161.9406 H   0  0  0  0  0  0  0  0  0  0  0  0
  150.9785  145.9347  161.1070 H   0  0  0  0  0  0  0  0  0  0  0  0
  152.3506  145.9546  160.0367 H   0  0  0  0  0  0  0  0  0  0  0  0
  148.6790  146.0005  160.9790 H   0  0  0  0  0  0  0  0  0  0  0  0
  145.4470  143.5165  161.1705 H   0  0  0  0  0  0  0  0  0  0  0  0
  146.2752  144.5094  162.3676 H   0  0  0  0  0  0  0  0  0  0  0  0
  145.2494  145.3691  159.8749 H   0  0  0  0  0  0  0  0  0  0  0  0
  150.1590  144.1285  156.7445 H   0  0  0  0  0  0  0  0  0  0  0  0
  1  2  1  0  0  0  0
  1 17  1  0  0  0  0
  1 18  1  0  0  0  0
  1 31  1  0  0  0  0
  2 15  1  0  0  0  0
  2  7  1  0  0  0  0
  2  3  1  0  0  0  0
  3  4  1  0  0  0  0
  3 19  1  0  0  0  0
  3 20  1  0  0  0  0
  4  5  1  0  0  0  0
  4 21  1  0  0  0  0
  4 22  1  0  0  0  0
  5  6  1  0  0  0  0
  5 23  1  0  0  0  0
  5 24  1  0  0  0  0
  6  7  1  0  0  0  0
  6 25  1  0  0  0  0
  6 26  1  0  0  0  0
  7 16  1  0  0  0  0
  7  8  1  0  0  0  0
  8 14  1  0  0  0  0
  8  9  1  0  0  0  0
  9 10  2  0  0  0  0
  9 27  1  0  0  0  0
 10 11  1  0  0  0  0
 10 13  1  0  0  0  0
 11 12  1  0  0  0  0
 11 28  1  0  0  0  0
 11 29  1  0  0  0  0
 12 30  1  0  0  0  0
 13 14  2  0  0  0  0
M  CHG  1   1   1
M  END
> <s_m_source_file>
AV-unprocessed.smi

> <i_m_source_file_index>
2597

> <i_lp_mmshare_version>
43012

> <i_f3d_flags>
0

> <s_epik_input>
W05IMl1bQ0BIXTFbQ0gyXVtDSDJdW0NIMl1bQ0gyXVtDQEhdMW4yW2NIXWMobm4yKVtDSDJdW09IXQ==

> <s_epik_cmdline>
J2VwaWtfcHl0aG9uJywgJy1waCcsICc3LjAnLCAnLXRuJywgJzgnLCAnLW1hJywgJzIwMCcsICctbWV0YWxfYmluZGluZycsICctaW1hZScsICc8aW5maWxlLm1hZT4nLCAnLW9tYWUnLCAnPG91dGZpbGUubWFlPic=

> <r_lp_tautomer_probability>
1

> <r_epik_Ionization_Penalty>
0.014346

> <r_epik_Ionization_Penalty_Charging>
0.014316

> <r_epik_Ionization_Penalty_Neutral>
3.00097e-05

> <r_epik_State_Penalty>
0.0111909

> <r_epik_Charging_Adjusted_Penalty>
0.0255069

> <i_epik_Tot_Q>
1

> <i_epik_Tot_abs_Q>
1

> <r_epik_Metal_State_Penalty>
0.011192

> <b_epik_Metal_Only>
0

> <s_lp_Force_Field>
OPLS_2005

> <r_lp_Energy>
16.1833

> <b_lp_Chiralities_Consistent>
1

> <s_lp_Variant>
AV-unprocessed.smi:2597-4

> <Gold.Version>
5.8.1

> <Gold.Id.Protein>
6NUR|6NUR_protein|mol2

> <Gold.PLP.Fitness>
41.8440

> <Gold.PLP.PLP>
-35.4882

> <Gold.PLP.part.hbond>
-4.1535

> <Gold.PLP.part.metal>
0.0000

> <Gold.PLP.part.buried>
-6.4752

> <Gold.PLP.part.nonpolar>
-26.2807

> <Gold.PLP.part.repulsive>
0.2103

> <Gold.PLP.ligand.clash>
0.0000

> <Gold.PLP.ligand.torsion>
0.1365

> <Gold.PLP.Chemscore.Hbond>
2.1879

> <Gold.PLP.Chemscore.CHOScore>
0.0000

> <Gold.PLP.Chemscore.Metal>
0.0000

> <Gold.Chemscore.Hbonds>
donor molecule, donor type, donor heavy atom, donor atom, acceptor molecule, acceptor atom, score
      L1  H     1    31       P1  8028  1.98
      P1  H  6933  6944       L1    13  0.09

> <Gold.PLP.Chemscore.Internal.Correction>
0.0649

> <Gold.Rescore>
     Score         DG    S(hbond)    S(metal)    S(lipo)     H(rot)  DE(clash)    DE(int)     intcor
     12.98     -14.80       1.36        0.00      81.54       1.86       0.09       1.73       ----

> <Gold.Chemscore.Fitness>
12.9835

> <Gold.Chemscore.DG>
-14.7997

> <Gold.Chemscore.ZeroCoef>
-5.4800

> <Gold.Chemscore.Hbond>
1.3557

> <Gold.Chemscore.Metal>
0.0000

> <Gold.Chemscore.Lipo>
81.5433

> <Gold.Chemscore.Internal_Hbond>
0.0000

> <Gold.Chemscore.DEClash>
0.0910

> <Gold.Chemscore.DEInternal>
1.7252

> <Gold.Chemscore.Rot>
1.8551

> <Gold.Chemscore.Internal.Correction>
   9.000000E+99

> <Gold.Chemscore.Hbonds>
donor molecule, donor type, donor heavy atom, donor atom, acceptor molecule, acceptor atom, score
      L1  H     1    31       P1  8028  0.93

> <Gold.Chemscore.Hbond.Weighted>
-4.5280

> <Gold.Chemscore.Metal.Weighted>
-0.0000

> <Gold.Chemscore.Lipo.Weighted>
-9.5406

> <Gold.Chemscore.Internal_Hbond.Weighted>
0.0000

> <Gold.Chemscore.DEClash.Weighted>
0.0910

> <Gold.Chemscore.DEInternal.Weighted>
1.7252

> <Gold.Chemscore.Rot.Weighted>
4.7489

> <Gold.Chemscore.Internal.Correction.Weighted>
   9.000000E+99

> <Gold.Protein.RotatedTorsions>
[ 6907 6896 6895 6894 ] final  -78.78 input  -60.11 | X-H torsion
[ 7974 7965 7964 7962 ] final -141.75 input  175.53 | X-H torsion
[ 8008 7997 7996 7995 ] final  113.19 input   59.86 | X-H torsion
[ 10167 10162 10161 10158 ] final -143.45 input  -65.29 | X-H torsion
[ 10718 10713 10712 10709 ] final  106.25 input   66.30 | X-H torsion
[ 10763 10752 10751 10750 ] final   47.75 input  -60.55 | X-H torsion
[ 11005 11000 10999 10996 ] final  -68.76 input  -57.11 | X-H torsion

> <Gold.Protein.ActiveResidues>
 VAL166  LYS551  ARG553  GLY616  TRP617  ASP618  TYR619  PRO620  LYS621  CYS622 
 ASP623  PHE694  ASN695  SER759  ASP760  ASP761  ALA762  ILE779  LEU786  VAL792 
 PHE793  MET794  SER795  GLU796  ALA797  LYS798  CYS799  TRP800  GLU811  SER814 

> <Gold.Protein.RotatedAtoms>
  150.6965  134.4221  159.5209 H   0  0  0  0  0  0  0  0  0  0  0  0  # atno 6907 bound_to 6896
  152.1962  134.8626  160.0522 H   0  0  0  0  0  0  0  0  0  0  0  0  # atno 6908 bound_to 6896
  151.9563  133.3646  159.4055 H   0  0  0  0  0  0  0  0  0  0  0  0  # atno 6909 bound_to 6896
  144.8496  140.6042  143.5399 H   0  0  0  0  0  0  0  0  0  0  0  0  # atno 7974 bound_to 7965
  156.2241  140.2984  156.0025 H   0  0  0  0  0  0  0  0  0  0  0  0  # atno 8008 bound_to 7997
  155.2402  140.0422  157.2991 H   0  0  0  0  0  0  0  0  0  0  0  0  # atno 8009 bound_to 7997
  154.5888  140.2395  155.7958 H   0  0  0  0  0  0  0  0  0  0  0  0  # atno 8010 bound_to 7997
  139.7992  143.7857  152.2657 H   0  0  0  0  0  0  0  0  0  0  0  0  # atno 10167 bound_to 10162
  157.6675  131.0846  150.5979 H   0  0  0  0  0  0  0  0  0  0  0  0  # atno 10718 bound_to 10713
  152.9797  135.5966  154.3813 H   0  0  0  0  0  0  0  0  0  0  0  0  # atno 10763 bound_to 10752
  154.3477  135.2767  155.2390 H   0  0  0  0  0  0  0  0  0  0  0  0  # atno 10764 bound_to 10752
  154.4444  135.6005  153.6205 H   0  0  0  0  0  0  0  0  0  0  0  0  # atno 10765 bound_to 10752
  141.1539  133.6748  156.6495 H   0  0  0  0  0  0  0  0  0  0  0  0  # atno 11005 bound_to 11000
  145.4527  139.1521  143.3909 LP  0  0  0  0  0  0  0  0  0  0  0  0  # atno 17320 bound_to 7965
  146.2773  140.4654  142.8790 LP  0  0  0  0  0  0  0  0  0  0  0  0  # atno 17321 bound_to 7965
  139.7972  144.7388  150.9874 LP  0  0  0  0  0  0  0  0  0  0  0  0  # atno 17342 bound_to 10162
  140.7820  143.4381  151.0592 LP  0  0  0  0  0  0  0  0  0  0  0  0  # atno 17343 bound_to 10162
  156.6279  130.4424  149.5797 LP  0  0  0  0  0  0  0  0  0  0  0  0  # atno 17370 bound_to 10713
  156.2304  130.6791  151.1458 LP  0  0  0  0  0  0  0  0  0  0  0  0  # atno 17371 bound_to 10713
  140.3331  134.7912  157.4341 LP  0  0  0  0  0  0  0  0  0  0  0  0  # atno 17394 bound_to 11000
  140.1000  134.5485  155.8362 LP  0  0  0  0  0  0  0  0  0  0  0  0  # atno 17395 bound_to 11000

$$$$
