AV-unprocessed.smi:317|AV-procd|sdf|2327|dock4
  -GOLD-   2262022233D 1   1.00000     0.00000
 Structure written by MMmdl.
 39 40  0  0  0  0  0  0  0  0  1 V2000
  144.8651  134.5553  150.7101 C   0  0  0  0  0  0  0  0  0  0  0  0
  144.6497  133.0360  150.6513 C   0  0  1  0  0  0  0  0  0  0  0  0
  144.2405  132.5800  149.2343 C   0  0  0  0  0  0  0  0  0  0  0  0
  142.8904  132.1685  149.2160 O   0  0  0  0  0  0  0  0  0  0  0  0
  145.8935  132.3844  151.0530 N   0  0  0  0  0  0  0  0  0  0  0  0
  146.5675  132.6300  152.1852 C   0  0  0  0  0  0  0  0  0  0  0  0
  146.2131  133.4546  153.0275 O   0  0  0  0  0  0  0  0  0  0  0  0
  147.6551  131.8473  152.2791 N   0  0  0  0  0  0  0  0  0  0  0  0
  148.5971  131.7825  153.3439 C   0  0  0  0  0  0  0  0  0  0  0  0
  149.0132  132.9482  154.0322 C   0  0  0  0  0  0  0  0  0  0  0  0
  150.0006  132.8464  155.0272 C   0  0  0  0  0  0  0  0  0  0  0  0
  150.5511  131.5811  155.2896 C   0  0  0  0  0  0  0  0  0  0  0  0
  150.1752  130.4643  154.6349 N   0  0  0  0  0  0  0  0  0  0  0  0
  149.2131  130.5434  153.6824 C   0  0  0  0  0  0  0  0  0  0  0  0
  148.8467  129.3368  153.0426 N   0  0  0  0  0  0  0  0  0  0  0  0
  149.6687  128.1407  153.1936 C   0  0  0  0  0  0  0  0  0  0  0  0
  148.7860  126.9921  152.7143 C   0  0  0  0  0  0  0  0  0  0  0  0
  147.4009  127.4285  153.1820 C   0  0  0  0  0  0  0  0  0  0  0  0
  147.4372  128.9552  153.0552 C   0  0  0  0  0  0  0  0  0  0  0  0
  143.9521  135.0916  150.4496 H   0  0  0  0  0  0  0  0  0  0  0  0
  145.6469  134.8743  150.0198 H   0  0  0  0  0  0  0  0  0  0  0  0
  145.1544  134.8725  151.7125 H   0  0  0  0  0  0  0  0  0  0  0  0
  143.8553  132.8008  151.3630 H   0  0  0  0  0  0  0  0  0  0  0  0
  144.3261  133.4062  148.5278 H   0  0  0  0  0  0  0  0  0  0  0  0
  144.8834  131.7815  148.8620 H   0  0  0  0  0  0  0  0  0  0  0  0
  142.3427  132.9250  149.3589 H   0  0  0  0  0  0  0  0  0  0  0  0
  146.2632  131.6873  150.4235 H   0  0  0  0  0  0  0  0  0  0  0  0
  147.7640  131.1459  151.5613 H   0  0  0  0  0  0  0  0  0  0  0  0
  148.6087  133.9207  153.7963 H   0  0  0  0  0  0  0  0  0  0  0  0
  150.3368  133.7201  155.5656 H   0  0  0  0  0  0  0  0  0  0  0  0
  151.3181  131.4624  156.0403 H   0  0  0  0  0  0  0  0  0  0  0  0
  150.5889  128.2144  152.6135 H   0  0  0  0  0  0  0  0  0  0  0  0
  149.9338  127.9814  154.2398 H   0  0  0  0  0  0  0  0  0  0  0  0
  148.8101  126.9307  151.6254 H   0  0  0  0  0  0  0  0  0  0  0  0
  149.0896  126.0256  153.1173 H   0  0  0  0  0  0  0  0  0  0  0  0
  146.5939  126.9753  152.6058 H   0  0  0  0  0  0  0  0  0  0  0  0
  147.2644  127.1504  154.2279 H   0  0  0  0  0  0  0  0  0  0  0  0
  146.8886  129.4344  153.8677 H   0  0  0  0  0  0  0  0  0  0  0  0
  146.9807  129.2599  152.1131 H   0  0  0  0  0  0  0  0  0  0  0  0
  1  2  1  0  0  0  0
  1 20  1  0  0  0  0
  1 21  1  0  0  0  0
  1 22  1  0  0  0  0
  2  3  1  0  0  0  0
  2  5  1  0  0  0  0
  2 23  1  0  0  0  0
  3  4  1  0  0  0  0
  3 24  1  0  0  0  0
  3 25  1  0  0  0  0
  4 26  1  0  0  0  0
  5  6  1  0  0  0  0
  5 27  1  0  0  0  0
  6  7  2  0  0  0  0
  6  8  1  0  0  0  0
  8  9  1  0  0  0  0
  8 28  1  0  0  0  0
  9 14  1  0  0  0  0
  9 10  2  0  0  0  0
 10 11  1  0  0  0  0
 10 29  1  0  0  0  0
 11 12  2  0  0  0  0
 11 30  1  0  0  0  0
 12 13  1  0  0  0  0
 12 31  1  0  0  0  0
 13 14  2  0  0  0  0
 14 15  1  0  0  0  0
 15 19  1  0  0  0  0
 15 16  1  0  0  0  0
 16 17  1  0  0  0  0
 16 32  1  0  0  0  0
 16 33  1  0  0  0  0
 17 18  1  0  0  0  0
 17 34  1  0  0  0  0
 17 35  1  0  0  0  0
 18 19  1  0  0  0  0
 18 36  1  0  0  0  0
 18 37  1  0  0  0  0
 19 38  1  0  0  0  0
 19 39  1  0  0  0  0
M  END
> <s_m_source_file>
AV-unprocessed.smi

> <i_m_source_file_index>
317

> <i_lp_mmshare_version>
43012

> <i_f3d_flags>
0

> <s_epik_input>
W09IXVtDSDJdW0NAQEhdKFtDSDNdKVtOSF1DKD1PKVtOSF1jMVtjSF1bY0hdW2NIXW5jMU4yW0NIMl1bQ0gyXVtDSDJdW0NIMl0y

> <s_epik_cmdline>
J2VwaWtfcHl0aG9uJywgJy1waCcsICc3LjAnLCAnLXRuJywgJzgnLCAnLW1hJywgJzIwMCcsICctbWV0YWxfYmluZGluZycsICctaW1hZScsICc8aW5maWxlLm1hZT4nLCAnLW9tYWUnLCAnPG91dGZpbGUubWFlPic=

> <r_lp_tautomer_probability>
1

> <r_epik_Ionization_Penalty>
0.098371

> <r_epik_Ionization_Penalty_Charging>
0

> <r_epik_Ionization_Penalty_Neutral>
0.098371

> <r_epik_State_Penalty>
0.0879016

> <r_epik_Charging_Adjusted_Penalty>
0.0879016

> <i_epik_Tot_Q>
0

> <i_epik_Tot_abs_Q>
0

> <r_epik_Metal_State_Penalty>
0.0753294

> <b_epik_Metal_Only>
0

> <s_lp_Force_Field>
OPLS_2005

> <r_lp_Energy>
32.3253

> <b_lp_Chiralities_Consistent>
1

> <s_lp_Variant>
AV-unprocessed.smi:317-2

> <Gold.Version>
5.8.1

> <Gold.Id.Protein>
6NUR|6NUR_protein|mol2

> <Gold.PLP.Fitness>
39.0552

> <Gold.PLP.PLP>
-32.7903

> <Gold.PLP.part.hbond>
-4.0000

> <Gold.PLP.part.metal>
0.0000

> <Gold.PLP.part.buried>
-4.9836

> <Gold.PLP.part.nonpolar>
-25.1519

> <Gold.PLP.part.repulsive>
0.3111

> <Gold.PLP.ligand.clash>
0.0000

> <Gold.PLP.ligand.torsion>
1.1686

> <Gold.PLP.Chemscore.Hbond>
2.7593

> <Gold.PLP.Chemscore.CHOScore>
0.0000

> <Gold.PLP.Chemscore.Metal>
0.0000

> <Gold.Chemscore.Hbonds>
donor molecule, donor type, donor heavy atom, donor atom, acceptor molecule, acceptor atom, score
      L1  H     4    26       P1 10186  1.00
      L1  H     8    28       P1 10747  0.69
      P1  H 10785 10796       L1     4  0.77

> <Gold.PLP.Chemscore.Internal.Correction>
0.3244

> <Gold.Rescore>
     Score         DG    S(hbond)    S(metal)    S(lipo)     H(rot)  DE(clash)    DE(int)     intcor
     10.53     -15.69       2.23        0.00      68.99       2.08       1.59       3.57       ----

> <Gold.Chemscore.Fitness>
10.5255

> <Gold.Chemscore.DG>
-15.6901

> <Gold.Chemscore.ZeroCoef>
-5.4800

> <Gold.Chemscore.Hbond>
2.2325

> <Gold.Chemscore.Metal>
0.0000

> <Gold.Chemscore.Lipo>
68.9854

> <Gold.Chemscore.Internal_Hbond>
0.0000

> <Gold.Chemscore.DEClash>
1.5924

> <Gold.Chemscore.DEInternal>
3.5722

> <Gold.Chemscore.Rot>
2.0773

> <Gold.Chemscore.Internal.Correction>
   9.000000E+99

> <Gold.Chemscore.Hbonds>
donor molecule, donor type, donor heavy atom, donor atom, acceptor molecule, acceptor atom, score
      L1  H     4    26       P1 10186  0.95
      L1  H     8    28       P1 10747  0.68
      P1  H 10785 10796       L1     4  0.17

> <Gold.Chemscore.Hbond.Weighted>
-7.4566

> <Gold.Chemscore.Metal.Weighted>
-0.0000

> <Gold.Chemscore.Lipo.Weighted>
-8.0713

> <Gold.Chemscore.Internal_Hbond.Weighted>
0.0000

> <Gold.Chemscore.DEClash.Weighted>
1.5924

> <Gold.Chemscore.DEInternal.Weighted>
3.5722

> <Gold.Chemscore.Rot.Weighted>
5.3178

> <Gold.Chemscore.Internal.Correction.Weighted>
   9.000000E+99

> <Gold.Protein.RotatedTorsions>
[ 6907 6896 6895 6894 ] final  137.58 input  -60.11 | X-H torsion
[ 7974 7965 7964 7962 ] final -119.72 input  175.53 | X-H torsion
[ 8008 7997 7996 7995 ] final  107.27 input   59.86 | X-H torsion
[ 10167 10162 10161 10158 ] final  -59.10 input  -65.29 | X-H torsion
[ 10718 10713 10712 10709 ] final -142.64 input   66.30 | X-H torsion
[ 10763 10752 10751 10750 ] final -142.76 input  -60.55 | X-H torsion
[ 11005 11000 10999 10996 ] final   -4.22 input  -57.11 | X-H torsion

> <Gold.Protein.ActiveResidues>
 VAL166  LYS551  ARG553  GLY616  TRP617  ASP618  TYR619  PRO620  LYS621  CYS622 
 ASP623  PHE694  ASN695  SER759  ASP760  ASP761  ALA762  ILE779  LEU786  VAL792 
 PHE793  MET794  SER795  GLU796  ALA797  LYS798  CYS799  TRP800  GLU811  SER814 

> <Gold.Protein.RotatedAtoms>
  152.2765  133.5430  159.5470 H   0  0  0  0  0  0  0  0  0  0  0  0  # atno 6907 bound_to 6896
  150.7179  134.0625  159.3845 H   0  0  0  0  0  0  0  0  0  0  0  0  # atno 6908 bound_to 6896
  151.8537  135.0549  160.0512 H   0  0  0  0  0  0  0  0  0  0  0  0  # atno 6909 bound_to 6896
  145.0593  140.8278  143.4162 H   0  0  0  0  0  0  0  0  0  0  0  0  # atno 7974 bound_to 7965
  156.1811  140.3098  155.9150 H   0  0  0  0  0  0  0  0  0  0  0  0  # atno 8008 bound_to 7997
  155.3383  140.0464  157.3061 H   0  0  0  0  0  0  0  0  0  0  0  0  # atno 8009 bound_to 7997
  154.5343  140.2241  155.8759 H   0  0  0  0  0  0  0  0  0  0  0  0  # atno 8010 bound_to 7997
  140.6156  143.2401  151.5605 H   0  0  0  0  0  0  0  0  0  0  0  0  # atno 10167 bound_to 10162
  156.3484  130.7675  151.1823 H   0  0  0  0  0  0  0  0  0  0  0  0  # atno 10718 bound_to 10713
  154.8496  135.3487  154.6080 H   0  0  0  0  0  0  0  0  0  0  0  0  # atno 10763 bound_to 10752
  153.6689  135.6986  153.5158 H   0  0  0  0  0  0  0  0  0  0  0  0  # atno 10764 bound_to 10752
  153.2758  135.4278  155.0989 H   0  0  0  0  0  0  0  0  0  0  0  0  # atno 10765 bound_to 10752
  140.6779  133.9179  155.8536 H   0  0  0  0  0  0  0  0  0  0  0  0  # atno 11005 bound_to 11000
  145.1428  139.2561  143.5481 LP  0  0  0  0  0  0  0  0  0  0  0  0  # atno 17320 bound_to 7965
  146.3523  140.1110  142.8604 LP  0  0  0  0  0  0  0  0  0  0  0  0  # atno 17321 bound_to 7965
  139.5396  144.2685  152.1323 LP  0  0  0  0  0  0  0  0  0  0  0  0  # atno 17342 bound_to 10162
  140.1893  144.4767  150.6487 LP  0  0  0  0  0  0  0  0  0  0  0  0  # atno 17343 bound_to 10162
  157.7457  131.0434  150.4745 LP  0  0  0  0  0  0  0  0  0  0  0  0  # atno 17370 bound_to 10713
  156.4936  130.4101  149.6393 LP  0  0  0  0  0  0  0  0  0  0  0  0  # atno 17371 bound_to 10713
  141.0341  134.0715  157.3980 LP  0  0  0  0  0  0  0  0  0  0  0  0  # atno 17394 bound_to 11000
  139.8961  135.0144  156.7034 LP  0  0  0  0  0  0  0  0  0  0  0  0  # atno 17395 bound_to 11000

$$$$
