AV-unprocessed.smi:697|AV-procd|sdf|3394|dock9
  -GOLD-   22720 0373D 1   1.00000     0.00000
 Structure written by MMmdl.
 43 44  0  0  0  0  0  0  0  0  2 V2000
  143.6308  132.5178  149.4358 C   0  0  0  0  0  0  0  0  0  0  0  0
  143.7649  133.4058  150.5389 O   0  0  0  0  0  0  0  0  0  0  0  0
  144.8385  134.3562  150.4935 C   0  0  2  0  0  0  0  0  0  0  0  0
  144.5732  135.4176  149.4183 C   0  0  0  0  0  0  0  0  0  0  0  0
  146.1960  133.6279  150.5165 C   0  0  0  0  0  0  0  0  0  0  0  0
  146.0532  133.5639  152.0357 C   0  0  1  0  0  0  0  0  0  0  0  0
  147.3220  133.7627  152.7280 N   0  0  0  0  0  0  0  0  0  0  0  0
  147.8196  132.9321  153.6535 C   0  0  0  0  0  0  0  0  0  0  0  0
  147.2508  131.8994  154.0071 O   0  0  0  0  0  0  0  0  0  0  0  0
  148.9850  133.3993  154.1357 N   0  0  0  0  0  0  0  0  0  0  0  0
  149.8463  132.8343  155.0911 C   0  0  0  0  0  0  0  0  0  0  0  0
  150.5203  131.6614  154.9335 C   0  0  0  0  0  0  0  0  0  0  0  0
  151.4154  131.1328  155.9554 C   0  0  0  0  0  0  0  0  0  0  0  0
  152.2426  129.8715  155.7812 C   0  0  0  0  0  0  0  0  0  0  0  0
  152.1165  129.0654  156.8358 F   0  0  0  0  0  0  0  0  0  0  0  0
  151.8356  129.2075  154.7003 F   0  0  0  0  0  0  0  0  0  0  0  0
  153.5343  130.1637  155.6279 F   0  0  0  0  0  0  0  0  0  0  0  0
  151.5088  131.9668  157.0526 C   0  0  0  0  0  0  0  0  0  0  0  0
  150.8727  133.1347  157.2903 N   0  5  0  0  0  0  0  0  0  0  0  0
  150.0321  133.6158  156.3313 C   0  0  0  0  0  0  0  0  0  0  0  0
  149.4290  134.6795  156.4785 O   0  0  0  0  0  0  0  0  0  0  0  0
  145.1491  134.8209  151.9542 C   0  0  0  0  0  0  0  0  0  0  0  0
  145.8488  136.1865  152.0935 C   0  0  0  0  0  0  0  0  0  0  0  0
  143.9654  134.8587  152.9269 C   0  0  0  0  0  0  0  0  0  0  0  0
  142.8817  131.7637  149.6763 H   0  0  0  0  0  0  0  0  0  0  0  0
  144.5598  131.9978  149.2044 H   0  0  0  0  0  0  0  0  0  0  0  0
  143.2874  133.0368  148.5413 H   0  0  0  0  0  0  0  0  0  0  0  0
  145.3241  136.2067  149.4333 H   0  0  0  0  0  0  0  0  0  0  0  0
  143.6007  135.8899  149.5595 H   0  0  0  0  0  0  0  0  0  0  0  0
  144.5994  134.9965  148.4137 H   0  0  0  0  0  0  0  0  0  0  0  0
  146.2276  132.6534  150.0303 H   0  0  0  0  0  0  0  0  0  0  0  0
  147.0208  134.2590  150.1805 H   0  0  0  0  0  0  0  0  0  0  0  0
  145.5112  132.6692  152.3511 H   0  0  0  0  0  0  0  0  0  0  0  0
  147.8488  134.5918  152.4958 H   0  0  0  0  0  0  0  0  0  0  0  0
  149.2814  134.3026  153.7960 H   0  0  0  0  0  0  0  0  0  0  0  0
  150.4258  131.0868  154.0268 H   0  0  0  0  0  0  0  0  0  0  0  0
  152.2047  131.6507  157.8590 H   0  0  0  0  0  0  0  0  0  0  0  0
  146.1873  136.3631  153.1151 H   0  0  0  0  0  0  0  0  0  0  0  0
  145.1798  137.0064  151.8307 H   0  0  0  0  0  0  0  0  0  0  0  0
  146.7257  136.2682  151.4510 H   0  0  0  0  0  0  0  0  0  0  0  0
  144.2822  135.1271  153.9351 H   0  0  0  0  0  0  0  0  0  0  0  0
  143.4695  133.8909  153.0045 H   0  0  0  0  0  0  0  0  0  0  0  0
  143.2143  135.5836  152.6116 H   0  0  0  0  0  0  0  0  0  0  0  0
  1  2  1  0  0  0  0
  1 25  1  0  0  0  0
  1 26  1  0  0  0  0
  1 27  1  0  0  0  0
  2  3  1  0  0  0  0
  3 22  1  0  0  0  0
  3  4  1  0  0  0  0
  3  5  1  0  0  0  0
  4 28  1  0  0  0  0
  4 29  1  0  0  0  0
  4 30  1  0  0  0  0
  5  6  1  0  0  0  0
  5 31  1  0  0  0  0
  5 32  1  0  0  0  0
  6  7  1  0  0  0  0
  6 22  1  0  0  0  0
  6 33  1  0  0  0  0
  7  8  1  0  0  0  0
  7 34  1  0  0  0  0
  8  9  2  0  0  0  0
  8 10  1  0  0  0  0
 10 11  1  0  0  0  0
 10 35  1  0  0  0  0
 11 20  1  0  0  0  0
 11 12  2  0  0  0  0
 12 13  1  0  0  0  0
 12 36  1  0  0  0  0
 13 14  1  0  0  0  0
 13 18  2  0  0  0  0
 14 15  1  0  0  0  0
 14 16  1  0  0  0  0
 14 17  1  0  0  0  0
 18 19  1  0  0  0  0
 18 37  1  0  0  0  0
 19 20  1  0  0  0  0
 20 21  2  0  0  0  0
 22 23  1  0  0  0  0
 22 24  1  0  0  0  0
 23 38  1  0  0  0  0
 23 39  1  0  0  0  0
 23 40  1  0  0  0  0
 24 41  1  0  0  0  0
 24 42  1  0  0  0  0
 24 43  1  0  0  0  0
M  CHG  1  19  -1
M  END
> <s_m_source_file>
AV-unprocessed.smi

> <i_m_source_file_index>
697

> <i_lp_mmshare_version>
43012

> <i_f3d_flags>
0

> <s_epik_input>
W0NIM11PW0NAQF0xKFtDSDNdKVtDSDJdW0NASF0oQzEoW0NIM10pW0NIM10pW05IXUMoPU8pW05IXWMyW2NIXWMoQyhGKShGKUYpW2NIXVtuSF1jMj1P

> <s_epik_cmdline>
J2VwaWtfcHl0aG9uJywgJy1waCcsICc3LjAnLCAnLXRuJywgJzgnLCAnLW1hJywgJzIwMCcsICctbWV0YWxfYmluZGluZycsICctaW1hZScsICc8aW5maWxlLm1hZT4nLCAnLW9tYWUnLCAnPG91dGZpbGUubWFlPic=

> <r_lp_tautomer_probability>
1

> <r_epik_Ionization_Penalty>
3.20094

> <r_epik_Ionization_Penalty_Charging>
0.180017

> <r_epik_Ionization_Penalty_Neutral>
3.02092

> <r_epik_State_Penalty>
3.01726

> <r_epik_Charging_Adjusted_Penalty>
3.19727

> <i_epik_Tot_Q>
-1

> <i_epik_Tot_abs_Q>
1

> <r_epik_Metal_State_Penalty>
0.455096

> <b_epik_Metal_Only>
1

> <s_lp_Force_Field>
OPLS_2005

> <r_lp_Energy>
36.2607

> <b_lp_Chiralities_Consistent>
1

> <s_lp_Variant>
AV-unprocessed.smi:697-6

> <Gold.Version>
5.8.1

> <Gold.Id.Protein>
6NUR|6NUR_protein|mol2

> <Gold.PLP.Fitness>
39.2687

> <Gold.PLP.PLP>
-32.7755

> <Gold.PLP.part.hbond>
-1.9976

> <Gold.PLP.part.metal>
0.0000

> <Gold.PLP.part.buried>
1.0113

> <Gold.PLP.part.nonpolar>
-31.5212

> <Gold.PLP.part.repulsive>
0.2683

> <Gold.PLP.ligand.clash>
0.0000

> <Gold.PLP.ligand.torsion>
1.1058

> <Gold.PLP.Chemscore.Hbond>
2.7600

> <Gold.PLP.Chemscore.CHOScore>
0.0000

> <Gold.PLP.Chemscore.Metal>
0.0000

> <Gold.Chemscore.Hbonds>
donor molecule, donor type, donor heavy atom, donor atom, acceptor molecule, acceptor atom, score
      L1  H     7    34       P1  7948  0.99
      P1  H  6896  6908       L1    19  1.89

> <Gold.PLP.Chemscore.Internal.Correction>
0.4248

> <Gold.Rescore>
     Score         DG    S(hbond)    S(metal)    S(lipo)     H(rot)  DE(clash)    DE(int)     intcor
     13.11     -15.87       1.46        0.00      75.52       1.30       1.88       0.88       ----

> <Gold.Chemscore.Fitness>
13.1103

> <Gold.Chemscore.DG>
-15.8748

> <Gold.Chemscore.ZeroCoef>
-5.4800

> <Gold.Chemscore.Hbond>
1.4612

> <Gold.Chemscore.Metal>
0.0000

> <Gold.Chemscore.Lipo>
75.5164

> <Gold.Chemscore.Internal_Hbond>
0.0000

> <Gold.Chemscore.DEClash>
1.8816

> <Gold.Chemscore.DEInternal>
0.8828

> <Gold.Chemscore.Rot>
1.2973

> <Gold.Chemscore.Internal.Correction>
   9.000000E+99

> <Gold.Chemscore.Hbonds>
donor molecule, donor type, donor heavy atom, donor atom, acceptor molecule, acceptor atom, score
      L1  H     7    34       P1  7948  0.60
      P1  H  6896  6908       L1    19  0.45

> <Gold.Chemscore.Hbond.Weighted>
-4.8803

> <Gold.Chemscore.Metal.Weighted>
-0.0000

> <Gold.Chemscore.Lipo.Weighted>
-8.8354

> <Gold.Chemscore.Internal_Hbond.Weighted>
0.0000

> <Gold.Chemscore.DEClash.Weighted>
1.8816

> <Gold.Chemscore.DEInternal.Weighted>
0.8828

> <Gold.Chemscore.Rot.Weighted>
3.3210

> <Gold.Chemscore.Internal.Correction.Weighted>
   9.000000E+99

> <Gold.Protein.RotatedTorsions>
[ 6907 6896 6895 6894 ] final   92.14 input  -60.11 | X-H torsion
[ 7974 7965 7964 7962 ] final  -28.89 input  175.53 | X-H torsion
[ 8008 7997 7996 7995 ] final -115.04 input   59.86 | X-H torsion
[ 10167 10162 10161 10158 ] final -116.14 input  -65.29 | X-H torsion
[ 10718 10713 10712 10709 ] final   82.53 input   66.30 | X-H torsion
[ 10763 10752 10751 10750 ] final  -74.89 input  -60.55 | X-H torsion
[ 11005 11000 10999 10996 ] final  138.59 input  -57.11 | X-H torsion

> <Gold.Protein.ActiveResidues>
 VAL166  LYS551  ARG553  GLY616  TRP617  ASP618  TYR619  PRO620  LYS621  CYS622 
 ASP623  PHE694  ASN695  SER759  ASP760  ASP761  ALA762  ILE779  LEU786  VAL792 
 PHE793  MET794  SER795  GLU796  ALA797  LYS798  CYS799  TRP800  GLU811  SER814 

> <Gold.Protein.RotatedAtoms>
  152.5452  134.1548  159.8533 H   0  0  0  0  0  0  0  0  0  0  0  0  # atno 6907 bound_to 6896
  151.1572  133.4862  159.2602 H   0  0  0  0  0  0  0  0  0  0  0  0  # atno 6908 bound_to 6896
  151.1411  135.0190  159.8681 H   0  0  0  0  0  0  0  0  0  0  0  0  # atno 6909 bound_to 6896
  146.1256  140.5341  142.8716 H   0  0  0  0  0  0  0  0  0  0  0  0  # atno 7974 bound_to 7965
  155.0457  140.0392  157.2526 H   0  0  0  0  0  0  0  0  0  0  0  0  # atno 8008 bound_to 7997
  154.7179  140.2706  155.6544 H   0  0  0  0  0  0  0  0  0  0  0  0  # atno 8009 bound_to 7997
  156.2808  140.2708  156.1841 H   0  0  0  0  0  0  0  0  0  0  0  0  # atno 8010 bound_to 7997
  140.0825  143.4775  152.1918 H   0  0  0  0  0  0  0  0  0  0  0  0  # atno 10167 bound_to 10162
  157.6859  131.0052  150.2388 H   0  0  0  0  0  0  0  0  0  0  0  0  # atno 10718 bound_to 10713
  154.4792  135.5849  153.6377 H   0  0  0  0  0  0  0  0  0  0  0  0  # atno 10763 bound_to 10752
  152.9845  135.6085  154.3268 H   0  0  0  0  0  0  0  0  0  0  0  0  # atno 10764 bound_to 10752
  154.3157  135.2844  155.2523 H   0  0  0  0  0  0  0  0  0  0  0  0  # atno 10765 bound_to 10752
  140.0194  134.9403  157.0443 H   0  0  0  0  0  0  0  0  0  0  0  0  # atno 11005 bound_to 11000
  144.7639  140.5485  143.6716 LP  0  0  0  0  0  0  0  0  0  0  0  0  # atno 17320 bound_to 7965
  145.5373  139.1475  143.3466 LP  0  0  0  0  0  0  0  0  0  0  0  0  # atno 17321 bound_to 7965
  139.5771  144.7493  151.3735 LP  0  0  0  0  0  0  0  0  0  0  0  0  # atno 17342 bound_to 10162
  140.7071  143.7487  150.7500 LP  0  0  0  0  0  0  0  0  0  0  0  0  # atno 17343 bound_to 10162
  156.3007  130.3758  149.7753 LP  0  0  0  0  0  0  0  0  0  0  0  0  # atno 17370 bound_to 10713
  156.5384  130.8289  151.3261 LP  0  0  0  0  0  0  0  0  0  0  0  0  # atno 17371 bound_to 10713
  140.4414  134.1677  155.7174 LP  0  0  0  0  0  0  0  0  0  0  0  0  # atno 17394 bound_to 11000
  141.1764  133.8505  157.1407 LP  0  0  0  0  0  0  0  0  0  0  0  0  # atno 17395 bound_to 11000

$$$$
