AV-unprocessed.smi:1762|AV-procd|sdf|7125|dock7
  -GOLD-   22720 8363D 1   1.00000     0.00000
 Structure written by MMmdl.
 52 53  0  0  0  0  0  0  0  0  3 V2000
  150.7217  134.4636  155.7585 C   0  0  0  0  0  0  0  0  0  0  0  0
  149.6222  135.1573  154.9464 C   0  0  2  0  0  0  0  0  0  0  0  0
  149.4308  136.6254  155.3642 C   0  0  0  0  0  0  0  0  0  0  0  0
  148.3190  137.2659  154.6024 N   0  3  2  0  0  0  0  0  0  0  0  0
  148.1459  138.7235  154.9252 C   0  0  1  0  0  0  0  0  0  0  0  0
  149.5031  139.4660  154.8606 C   0  0  0  0  0  0  0  0  0  0  0  0
  150.1491  139.4246  153.8077 O   0  0  0  0  0  0  0  0  0  0  0  0
  149.8070  140.0483  156.0538 N   0  5  0  0  0  0  0  0  0  0  0  0
  151.0783  140.7114  156.3387 C   0  0  0  0  0  0  0  0  0  0  0  0
  151.2501  140.9064  157.8633 C   0  0  0  0  0  0  0  0  0  0  0  0
  151.2761  142.3644  158.3101 C   0  0  0  0  0  0  0  0  0  0  0  0
  152.3998  142.8877  158.9894 C   0  0  0  0  0  0  0  0  0  0  0  0
  152.3855  144.2421  159.3743 C   0  0  0  0  0  0  0  0  0  0  0  0
  151.2565  145.0240  159.0645 C   0  0  0  0  0  0  0  0  0  0  0  0
  150.1882  144.4148  158.3774 C   0  0  0  0  0  0  0  0  0  0  0  0
  150.1919  143.1176  158.0022 N   0  0  0  0  0  0  0  0  0  0  0  0
  147.0573  139.4565  154.0686 C   0  0  0  0  0  0  0  0  0  0  0  0
  146.9002  138.9154  152.6320 C   0  0  0  0  0  0  0  0  0  0  0  0
  147.2436  140.9862  154.0395 C   0  0  0  0  0  0  0  0  0  0  0  0
  147.0877  136.4421  154.7565 C   0  0  0  0  0  0  0  0  0  0  0  0
  147.3449  134.9725  154.3710 C   0  0  2  0  0  0  0  0  0  0  0  0
  146.1126  134.0909  154.6012 C   0  0  0  0  0  0  0  0  0  0  0  0
  148.4061  134.4558  155.1618 O   0  0  0  0  0  0  0  0  0  0  0  0
  151.6837  134.9570  155.6179 H   0  0  0  0  0  0  0  0  0  0  0  0
  150.8345  133.4233  155.4522 H   0  0  0  0  0  0  0  0  0  0  0  0
  150.4929  134.4740  156.8245 H   0  0  0  0  0  0  0  0  0  0  0  0
  149.8890  135.1060  153.8892 H   0  0  0  0  0  0  0  0  0  0  0  0
  149.2189  136.6876  156.4331 H   0  0  0  0  0  0  0  0  0  0  0  0
  150.3748  137.1448  155.2016 H   0  0  0  0  0  0  0  0  0  0  0  0
  147.7782  138.7450  155.9543 H   0  0  0  0  0  0  0  0  0  0  0  0
  151.9294  140.1544  155.9447 H   0  0  0  0  0  0  0  0  0  0  0  0
  151.1197  141.6867  155.8532 H   0  0  0  0  0  0  0  0  0  0  0  0
  150.4426  140.3977  158.3924 H   0  0  0  0  0  0  0  0  0  0  0  0
  152.1730  140.4288  158.1966 H   0  0  0  0  0  0  0  0  0  0  0  0
  153.2521  142.2632  159.2139 H   0  0  0  0  0  0  0  0  0  0  0  0
  153.2258  144.6731  159.8982 H   0  0  0  0  0  0  0  0  0  0  0  0
  151.2106  146.0654  159.3455 H   0  0  0  0  0  0  0  0  0  0  0  0
  149.3076  144.9848  158.1204 H   0  0  0  0  0  0  0  0  0  0  0  0
  146.0999  139.3195  154.5694 H   0  0  0  0  0  0  0  0  0  0  0  0
  147.7646  139.1548  152.0127 H   0  0  0  0  0  0  0  0  0  0  0  0
  146.0289  139.3569  152.1476 H   0  0  0  0  0  0  0  0  0  0  0  0
  146.7686  137.8342  152.6115 H   0  0  0  0  0  0  0  0  0  0  0  0
  148.1358  141.2796  153.4854 H   0  0  0  0  0  0  0  0  0  0  0  0
  147.3301  141.3912  155.0482 H   0  0  0  0  0  0  0  0  0  0  0  0
  146.3923  141.4738  153.5637 H   0  0  0  0  0  0  0  0  0  0  0  0
  146.7345  136.5093  155.7867 H   0  0  0  0  0  0  0  0  0  0  0  0
  146.2871  136.8071  154.1161 H   0  0  0  0  0  0  0  0  0  0  0  0
  147.6199  134.9126  153.3163 H   0  0  0  0  0  0  0  0  0  0  0  0
  145.2677  134.4309  154.0020 H   0  0  0  0  0  0  0  0  0  0  0  0
  145.8076  134.1040  155.6480 H   0  0  0  0  0  0  0  0  0  0  0  0
  146.3184  133.0559  154.3278 H   0  0  0  0  0  0  0  0  0  0  0  0
  148.5755  137.2271  153.6263 H   0  0  0  0  0  0  0  0  0  0  0  0
  1  2  1  0  0  0  0
  1 24  1  0  0  0  0
  1 25  1  0  0  0  0
  1 26  1  0  0  0  0
  2 23  1  0  0  0  0
  2  3  1  0  0  0  0
  2 27  1  0  0  0  0
  3  4  1  0  0  0  0
  3 28  1  0  0  0  0
  3 29  1  0  0  0  0
  4  5  1  0  0  0  0
  4 20  1  0  0  0  0
  4 52  1  0  0  0  0
  5  6  1  0  0  0  0
  5 17  1  0  0  0  0
  5 30  1  0  0  0  0
  6  7  2  0  0  0  0
  6  8  1  0  0  0  0
  8  9  1  0  0  0  0
  9 10  1  0  0  0  0
  9 31  1  0  0  0  0
  9 32  1  0  0  0  0
 10 11  1  0  0  0  0
 10 33  1  0  0  0  0
 10 34  1  0  0  0  0
 11 16  1  0  0  0  0
 11 12  2  0  0  0  0
 12 13  1  0  0  0  0
 12 35  1  0  0  0  0
 13 14  2  0  0  0  0
 13 36  1  0  0  0  0
 14 15  1  0  0  0  0
 14 37  1  0  0  0  0
 15 16  2  0  0  0  0
 15 38  1  0  0  0  0
 17 18  1  0  0  0  0
 17 19  1  0  0  0  0
 17 39  1  0  0  0  0
 18 40  1  0  0  0  0
 18 41  1  0  0  0  0
 18 42  1  0  0  0  0
 19 43  1  0  0  0  0
 19 44  1  0  0  0  0
 19 45  1  0  0  0  0
 20 21  1  0  0  0  0
 20 46  1  0  0  0  0
 20 47  1  0  0  0  0
 21 22  1  0  0  0  0
 21 23  1  0  0  0  0
 21 48  1  0  0  0  0
 22 49  1  0  0  0  0
 22 50  1  0  0  0  0
 22 51  1  0  0  0  0
M  CHG  1   4   1
M  CHG  1   8  -1
M  END
> <s_m_source_file>
AV-unprocessed.smi

> <i_m_source_file_index>
1762

> <i_lp_mmshare_version>
43012

> <i_f3d_flags>
0

> <s_epik_input>
W0NIM11bQ0BASF0xW0NIMl1OKFtDSDJdW0NASF0oTzEpW0NIM10pW0NAQEhdKFtDSF0oW0NIM10pW0NIM10pQyg9TylbTkhdW0NIMl1bQ0gyXWMyW2NIXVtjSF1bY0hdW2NIXW4y

> <s_epik_cmdline>
J2VwaWtfcHl0aG9uJywgJy1waCcsICc3LjAnLCAnLXRuJywgJzgnLCAnLW1hJywgJzIwMCcsICctbWV0YWxfYmluZGluZycsICctaW1hZScsICc8aW5maWxlLm1hZT4nLCAnLW9tYWUnLCAnPG91dGZpbGUubWFlPic=

> <r_epik_Ionization_Penalty>
7.82966

> <r_epik_Ionization_Penalty_Charging>
7.7461

> <r_epik_Ionization_Penalty_Neutral>
0.0835571

> <r_epik_State_Penalty>
8.52273

> <r_epik_Charging_Adjusted_Penalty>
16.2688

> <i_epik_Tot_Q>
0

> <i_epik_Tot_abs_Q>
2

> <r_epik_Metal_State_Penalty>
4.47451

> <b_epik_Metal_Only>
1

> <s_lp_Force_Field>
OPLS_2005

> <r_lp_Energy>
21.2393

> <b_lp_Chiralities_Consistent>
1

> <s_lp_Variant>
AV-unprocessed.smi:1762-27

> <Gold.Version>
5.8.1

> <Gold.Id.Protein>
6NUR|6NUR_protein|mol2

> <Gold.PLP.Fitness>
44.6392

> <Gold.PLP.PLP>
-34.5690

> <Gold.PLP.part.hbond>
-2.0000

> <Gold.PLP.part.metal>
0.0000

> <Gold.PLP.part.buried>
-3.1558

> <Gold.PLP.part.nonpolar>
-31.1628

> <Gold.PLP.part.repulsive>
1.8415

> <Gold.PLP.ligand.clash>
0.0000

> <Gold.PLP.ligand.torsion>
1.2905

> <Gold.PLP.Chemscore.Hbond>
3.0000

> <Gold.PLP.Chemscore.CHOScore>
1.0828

> <Gold.PLP.Chemscore.Metal>
0.0000

> <Gold.Chemscore.Hbonds>
donor molecule, donor type, donor heavy atom, donor atom, acceptor molecule, acceptor atom, score
      L1  H     4    52       P1  7948  1.89
      P1  H  7989  7998       L1     7  0.84
      L1  C    15    38       P1  8029  0.67

> <Gold.PLP.Chemscore.Internal.Correction>
0.4027

> <Gold.Rescore>
     Score         DG    S(hbond)    S(metal)    S(lipo)     H(rot)  DE(clash)    DE(int)     intcor
     16.61     -18.14       1.40        0.00     103.33       1.60       0.39       1.14       ----

> <Gold.Chemscore.Fitness>
16.6108

> <Gold.Chemscore.DG>
-18.1388

> <Gold.Chemscore.ZeroCoef>
-5.4800

> <Gold.Chemscore.Hbond>
1.3976

> <Gold.Chemscore.Metal>
0.0000

> <Gold.Chemscore.Lipo>
103.3327

> <Gold.Chemscore.Internal_Hbond>
0.0000

> <Gold.Chemscore.DEClash>
0.3874

> <Gold.Chemscore.DEInternal>
1.1406

> <Gold.Chemscore.Rot>
1.6012

> <Gold.Chemscore.Internal.Correction>
   9.000000E+99

> <Gold.Chemscore.Hbonds>
donor molecule, donor type, donor heavy atom, donor atom, acceptor molecule, acceptor atom, score
      L1  H     4    52       P1  7948  0.88
      P1  H  7989  7998       L1     7  0.76

> <Gold.Chemscore.Hbond.Weighted>
-4.6678

> <Gold.Chemscore.Metal.Weighted>
-0.0000

> <Gold.Chemscore.Lipo.Weighted>
-12.0899

> <Gold.Chemscore.Internal_Hbond.Weighted>
0.0000

> <Gold.Chemscore.DEClash.Weighted>
0.3874

> <Gold.Chemscore.DEInternal.Weighted>
1.1406

> <Gold.Chemscore.Rot.Weighted>
4.0990

> <Gold.Chemscore.Internal.Correction.Weighted>
   9.000000E+99

> <Gold.Protein.RotatedTorsions>
[ 6907 6896 6895 6894 ] final  127.28 input  -60.11 | X-H torsion
[ 7974 7965 7964 7962 ] final   -2.53 input  175.53 | X-H torsion
[ 8008 7997 7996 7995 ] final  117.99 input   59.86 | X-H torsion
[ 10167 10162 10161 10158 ] final  -49.68 input  -65.29 | X-H torsion
[ 10718 10713 10712 10709 ] final   73.47 input   66.30 | X-H torsion
[ 10763 10752 10751 10750 ] final -115.66 input  -60.55 | X-H torsion
[ 11005 11000 10999 10996 ] final  132.69 input  -57.11 | X-H torsion

> <Gold.Protein.ActiveResidues>
 VAL166  LYS551  ARG553  GLY616  TRP617  ASP618  TYR619  PRO620  LYS621  CYS622 
 ASP623  PHE694  ASN695  SER759  ASP760  ASP761  ALA762  ILE779  LEU786  VAL792 
 PHE793  MET794  SER795  GLU796  ALA797  LYS798  CYS799  TRP800  GLU811  SER814 

> <Gold.Protein.RotatedAtoms>
  152.3827  133.6568  159.6173 H   0  0  0  0  0  0  0  0  0  0  0  0  # atno 6907 bound_to 6896
  150.7754  133.9087  159.3371 H   0  0  0  0  0  0  0  0  0  0  0  0  # atno 6908 bound_to 6896
  151.6889  135.0951  160.0281 H   0  0  0  0  0  0  0  0  0  0  0  0  # atno 6909 bound_to 6896
  146.2403  140.1585  142.8333 H   0  0  0  0  0  0  0  0  0  0  0  0  # atno 7974 bound_to 7965
  156.2523  140.2884  156.0765 H   0  0  0  0  0  0  0  0  0  0  0  0  # atno 8008 bound_to 7997
  155.1613  140.0399  157.2860 H   0  0  0  0  0  0  0  0  0  0  0  0  # atno 8009 bound_to 7997
  154.6390  140.2518  155.7350 H   0  0  0  0  0  0  0  0  0  0  0  0  # atno 8010 bound_to 7997
  140.6674  143.2688  151.4249 H   0  0  0  0  0  0  0  0  0  0  0  0  # atno 10167 bound_to 10162
  157.6549  130.9630  150.1074 H   0  0  0  0  0  0  0  0  0  0  0  0  # atno 10718 bound_to 10713
  154.8490  135.4373  154.1698 H   0  0  0  0  0  0  0  0  0  0  0  0  # atno 10763 bound_to 10752
  153.2814  135.6954  153.7388 H   0  0  0  0  0  0  0  0  0  0  0  0  # atno 10764 bound_to 10752
  153.6590  135.3438  155.3096 H   0  0  0  0  0  0  0  0  0  0  0  0  # atno 10765 bound_to 10752
  139.9805  134.9549  156.9618 H   0  0  0  0  0  0  0  0  0  0  0  0  # atno 11005 bound_to 11000
  145.0109  140.8713  143.5225 LP  0  0  0  0  0  0  0  0  0  0  0  0  # atno 17320 bound_to 7965
  145.1618  139.2454  143.5387 LP  0  0  0  0  0  0  0  0  0  0  0  0  # atno 17321 bound_to 7965
  139.5928  144.1463  152.2108 LP  0  0  0  0  0  0  0  0  0  0  0  0  # atno 17342 bound_to 10162
  140.0822  144.5691  150.7114 LP  0  0  0  0  0  0  0  0  0  0  0  0  # atno 17343 bound_to 10162
  156.1980  130.3658  149.8825 LP  0  0  0  0  0  0  0  0  0  0  0  0  # atno 17370 bound_to 10713
  156.6736  130.8830  151.3566 LP  0  0  0  0  0  0  0  0  0  0  0  0  # atno 17371 bound_to 10713
  140.5106  134.1006  155.7269 LP  0  0  0  0  0  0  0  0  0  0  0  0  # atno 17394 bound_to 11000
  141.1478  133.9024  157.2173 LP  0  0  0  0  0  0  0  0  0  0  0  0  # atno 17395 bound_to 11000

$$$$
