AV-unprocessed.smi:2134|AV-procd|sdf|8695|dock4
  -GOLD-   2272011453D 1   1.00000     0.00000
 Structure written by MMmdl.
 36 37  0  0  0  0  0  0  0  0  2 V2000
  149.0736  141.4265  154.5138 C   0  0  0  0  0  0  0  0  0  0  0  0
  149.2958  139.9820  154.5327 N   0  0  0  0  0  0  0  0  0  0  0  0
  148.1623  139.2190  154.3411 N   0  0  0  0  0  0  0  0  0  0  0  0
  148.1501  137.9400  154.5519 C   0  0  0  0  0  0  0  0  0  0  0  0
  146.8963  137.1659  154.3530 C   0  0  0  0  0  0  0  0  0  0  0  0
  145.8571  137.4820  154.9333 O   0  0  0  0  0  0  0  0  0  0  0  0
  146.9732  136.1293  153.4973 N   0  0  0  0  0  0  0  0  0  0  0  0
  145.8661  135.2578  153.1110 C   0  0  0  0  0  0  0  0  0  0  0  0
  146.3530  133.9318  152.4947 C   0  0  0  0  0  0  0  0  0  0  0  0
  145.5445  133.4884  151.2874 C   0  0  0  0  0  0  0  0  0  0  0  0
  146.0089  132.4508  150.4485 C   0  0  0  0  0  0  0  0  0  0  0  0
  145.2504  132.0840  149.3175 C   0  0  0  0  0  0  0  0  0  0  0  0
  144.0437  132.7625  149.0511 C   0  0  0  0  0  0  0  0  0  0  0  0
  143.6296  133.7478  149.8776 N   0  3  0  0  0  0  0  0  0  0  0  0
  144.3260  134.1274  150.9712 C   0  0  0  0  0  0  0  0  0  0  0  0
  149.3960  137.2263  155.0371 C   0  0  0  0  0  0  0  0  0  0  0  0
  150.6853  137.9572  154.6133 C   0  0  0  0  0  0  0  0  0  0  0  0
  150.5446  139.4797  154.6999 C   0  0  0  0  0  0  0  0  0  0  0  0
  151.5423  140.1756  154.8878 O   0  0  0  0  0  0  0  0  0  0  0  0
  149.6377  141.8914  153.7042 H   0  0  0  0  0  0  0  0  0  0  0  0
  149.3926  141.8772  155.4546 H   0  0  0  0  0  0  0  0  0  0  0  0
  148.0217  141.6776  154.3681 H   0  0  0  0  0  0  0  0  0  0  0  0
  147.8697  135.9397  153.0718 H   0  0  0  0  0  0  0  0  0  0  0  0
  145.2741  135.0486  154.0022 H   0  0  0  0  0  0  0  0  0  0  0  0
  145.1970  135.7715  152.4187 H   0  0  0  0  0  0  0  0  0  0  0  0
  147.4016  134.0251  152.2087 H   0  0  0  0  0  0  0  0  0  0  0  0
  146.3148  133.1434  153.2473 H   0  0  0  0  0  0  0  0  0  0  0  0
  146.9408  131.9475  150.6610 H   0  0  0  0  0  0  0  0  0  0  0  0
  145.5915  131.2961  148.6621 H   0  0  0  0  0  0  0  0  0  0  0  0
  143.4030  132.5494  148.2080 H   0  0  0  0  0  0  0  0  0  0  0  0
  143.8975  134.9340  151.5481 H   0  0  0  0  0  0  0  0  0  0  0  0
  149.3587  137.1371  156.1234 H   0  0  0  0  0  0  0  0  0  0  0  0
  149.4323  136.2084  154.6463 H   0  0  0  0  0  0  0  0  0  0  0  0
  151.5281  137.6228  155.2193 H   0  0  0  0  0  0  0  0  0  0  0  0
  150.9244  137.7089  153.5786 H   0  0  0  0  0  0  0  0  0  0  0  0
  142.7548  134.2284  149.6654 H   0  0  0  0  0  0  0  0  0  0  0  0
  1  2  1  0  0  0  0
  1 20  1  0  0  0  0
  1 21  1  0  0  0  0
  1 22  1  0  0  0  0
  2 18  1  0  0  0  0
  2  3  1  0  0  0  0
  3  4  2  0  0  0  0
  4  5  1  0  0  0  0
  4 16  1  0  0  0  0
  5  6  2  0  0  0  0
  5  7  1  0  0  0  0
  7  8  1  0  0  0  0
  7 23  1  0  0  0  0
  8  9  1  0  0  0  0
  8 24  1  0  0  0  0
  8 25  1  0  0  0  0
  9 10  1  0  0  0  0
  9 26  1  0  0  0  0
  9 27  1  0  0  0  0
 10 15  1  0  0  0  0
 10 11  2  0  0  0  0
 11 12  1  0  0  0  0
 11 28  1  0  0  0  0
 12 13  2  0  0  0  0
 12 29  1  0  0  0  0
 13 14  1  0  0  0  0
 13 30  1  0  0  0  0
 14 15  2  0  0  0  0
 14 36  1  0  0  0  0
 15 31  1  0  0  0  0
 16 17  1  0  0  0  0
 16 32  1  0  0  0  0
 16 33  1  0  0  0  0
 17 18  1  0  0  0  0
 17 34  1  0  0  0  0
 17 35  1  0  0  0  0
 18 19  2  0  0  0  0
M  CHG  1  14   1
M  END
> <s_m_source_file>
AV-unprocessed.smi

> <i_m_source_file_index>
2134

> <i_lp_mmshare_version>
43012

> <i_f3d_flags>
0

> <s_epik_input>
Tz1DMVtDSDJdW0NIMl1DKD1OTjFbQ0gzXSlDKD1PKVtOSF1bQ0gyXVtDSDJdYzJbY0hdW2NIXVtjSF1uW2NIXTI=

> <s_epik_cmdline>
J2VwaWtfcHl0aG9uJywgJy1waCcsICc3LjAnLCAnLXRuJywgJzgnLCAnLW1hJywgJzIwMCcsICctbWV0YWxfYmluZGluZycsICctaW1hZScsICc8aW5maWxlLm1hZT4nLCAnLW9tYWUnLCAnPG91dGZpbGUubWFlPic=

> <r_epik_Ionization_Penalty>
2.46483

> <r_epik_Ionization_Penalty_Charging>
2.46471

> <r_epik_Ionization_Penalty_Neutral>
0.00011851

> <r_epik_State_Penalty>
2.62717

> <r_epik_Charging_Adjusted_Penalty>
5.09187

> <i_epik_Tot_Q>
1

> <i_epik_Tot_abs_Q>
1

> <r_epik_Metal_State_Penalty>
2.80118

> <b_epik_Metal_Only>
0

> <s_epik_Chemistry_Notes>
This compound has an imine and may undergo hydrolysis.

> <s_lp_Force_Field>
OPLS_2005

> <r_lp_Energy>
23.6794

> <b_lp_Chiralities_Consistent>
1

> <s_lp_Variant>
AV-unprocessed.smi:2134-2

> <Gold.Version>
5.8.1

> <Gold.Id.Protein>
6NUR|6NUR_protein|mol2

> <Gold.PLP.Fitness>
42.4606

> <Gold.PLP.PLP>
-33.6424

> <Gold.PLP.part.hbond>
-2.8511

> <Gold.PLP.part.metal>
0.0000

> <Gold.PLP.part.buried>
-2.9576

> <Gold.PLP.part.nonpolar>
-27.4656

> <Gold.PLP.part.repulsive>
0.2915

> <Gold.PLP.ligand.clash>
0.0000

> <Gold.PLP.ligand.torsion>
1.5826

> <Gold.PLP.Chemscore.Hbond>
3.9920

> <Gold.PLP.Chemscore.CHOScore>
0.0000

> <Gold.PLP.Chemscore.Metal>
0.0000

> <Gold.Chemscore.Hbonds>
donor molecule, donor type, donor heavy atom, donor atom, acceptor molecule, acceptor atom, score
      L1  H     7    23       P1  7948  0.99
      L1  H    14    36       P1 10186  2.00
      P1  H  7989  7998       L1    19  1.00

> <Gold.PLP.Chemscore.Internal.Correction>
0.0075

> <Gold.Rescore>
     Score         DG    S(hbond)    S(metal)    S(lipo)     H(rot)  DE(clash)    DE(int)     intcor
     18.32     -19.95       2.79        0.00      77.22       1.52       0.08       1.55       ----

> <Gold.Chemscore.Fitness>
18.3183

> <Gold.Chemscore.DG>
-19.9503

> <Gold.Chemscore.ZeroCoef>
-5.4800

> <Gold.Chemscore.Hbond>
2.7892

> <Gold.Chemscore.Metal>
0.0000

> <Gold.Chemscore.Lipo>
77.2167

> <Gold.Chemscore.Internal_Hbond>
0.0000

> <Gold.Chemscore.DEClash>
0.0801

> <Gold.Chemscore.DEInternal>
1.5519

> <Gold.Chemscore.Rot>
1.5157

> <Gold.Chemscore.Internal.Correction>
   9.000000E+99

> <Gold.Chemscore.Hbonds>
donor molecule, donor type, donor heavy atom, donor atom, acceptor molecule, acceptor atom, score
      L1  H     7    23       P1  7948  0.94
      L1  H    14    36       P1 10186  0.99
      P1  H  7989  7998       L1    19  0.24

> <Gold.Chemscore.Hbond.Weighted>
-9.3161

> <Gold.Chemscore.Metal.Weighted>
-0.0000

> <Gold.Chemscore.Lipo.Weighted>
-9.0343

> <Gold.Chemscore.Internal_Hbond.Weighted>
0.0000

> <Gold.Chemscore.DEClash.Weighted>
0.0801

> <Gold.Chemscore.DEInternal.Weighted>
1.5519

> <Gold.Chemscore.Rot.Weighted>
3.8801

> <Gold.Chemscore.Internal.Correction.Weighted>
   9.000000E+99

> <Gold.Protein.RotatedTorsions>
[ 6907 6896 6895 6894 ] final -131.37 input  -60.11 | X-H torsion
[ 7974 7965 7964 7962 ] final   20.03 input  175.53 | X-H torsion
[ 8008 7997 7996 7995 ] final   79.52 input   59.86 | X-H torsion
[ 10167 10162 10161 10158 ] final   39.23 input  -65.29 | X-H torsion
[ 10718 10713 10712 10709 ] final  134.42 input   66.30 | X-H torsion
[ 10763 10752 10751 10750 ] final  -48.56 input  -60.55 | X-H torsion
[ 11005 11000 10999 10996 ] final  -17.56 input  -57.11 | X-H torsion

> <Gold.Protein.ActiveResidues>
 VAL166  LYS551  ARG553  GLY616  TRP617  ASP618  TYR619  PRO620  LYS621  CYS622 
 ASP623  PHE694  ASN695  SER759  ASP760  ASP761  ALA762  ILE779  LEU786  VAL792 
 PHE793  MET794  SER795  GLU796  ALA797  LYS798  CYS799  TRP800  GLU811  SER814 

> <Gold.Protein.RotatedAtoms>
  150.9502  133.6558  159.2773 H   0  0  0  0  0  0  0  0  0  0  0  0  # atno 6907 bound_to 6896
  151.3917  135.0956  159.9538 H   0  0  0  0  0  0  0  0  0  0  0  0  # atno 6908 bound_to 6896
  152.5106  133.9014  159.7498 H   0  0  0  0  0  0  0  0  0  0  0  0  # atno 6909 bound_to 6896
  146.2127  139.8228  142.8676 H   0  0  0  0  0  0  0  0  0  0  0  0  # atno 7974 bound_to 7965
  155.8708  140.3449  155.5820 H   0  0  0  0  0  0  0  0  0  0  0  0  # atno 8008 bound_to 7997
  155.7829  140.0861  157.2069 H   0  0  0  0  0  0  0  0  0  0  0  0  # atno 8009 bound_to 7997
  154.4017  140.1497  156.3060 H   0  0  0  0  0  0  0  0  0  0  0  0  # atno 8010 bound_to 7997
  140.3859  144.1917  150.6130 H   0  0  0  0  0  0  0  0  0  0  0  0  # atno 10167 bound_to 10162
  157.4675  131.1078  150.9845 H   0  0  0  0  0  0  0  0  0  0  0  0  # atno 10718 bound_to 10713
  154.0798  135.6593  153.4836 H   0  0  0  0  0  0  0  0  0  0  0  0  # atno 10763 bound_to 10752
  153.0360  135.5177  154.7485 H   0  0  0  0  0  0  0  0  0  0  0  0  # atno 10764 bound_to 10752
  154.6576  135.3010  154.9875 H   0  0  0  0  0  0  0  0  0  0  0  0  # atno 10765 bound_to 10752
  140.8181  133.8089  155.9631 H   0  0  0  0  0  0  0  0  0  0  0  0  # atno 11005 bound_to 11000
  145.3078  141.0212  143.3572 LP  0  0  0  0  0  0  0  0  0  0  0  0  # atno 17320 bound_to 7965
  144.8958  139.4714  143.6656 LP  0  0  0  0  0  0  0  0  0  0  0  0  # atno 17321 bound_to 7965
  140.4889  143.2354  151.8847 LP  0  0  0  0  0  0  0  0  0  0  0  0  # atno 17342 bound_to 10162
  139.4792  144.5187  151.8831 LP  0  0  0  0  0  0  0  0  0  0  0  0  # atno 17343 bound_to 10162
  157.0621  130.5829  149.5387 LP  0  0  0  0  0  0  0  0  0  0  0  0  # atno 17370 bound_to 10713
  156.0057  130.5143  150.7821 LP  0  0  0  0  0  0  0  0  0  0  0  0  # atno 17371 bound_to 10713
  140.9128  134.2239  157.4975 LP  0  0  0  0  0  0  0  0  0  0  0  0  # atno 17394 bound_to 11000
  139.8710  134.9758  156.4896 LP  0  0  0  0  0  0  0  0  0  0  0  0  # atno 17395 bound_to 11000

$$$$
