AV-unprocessed.smi:1118|AV-procd|sdf|4814|dock5
  -GOLD-   22720 3363D 1   1.00000     0.00000
 Structure written by MMmdl.
 45 46  0  0  0  0  0  0  0  0  2 V2000
  144.1370  133.0172  149.6474 C   0  0  0  0  0  0  0  0  0  0  0  0
  145.3763  132.5846  150.1809 O   0  0  0  0  0  0  0  0  0  0  0  0
  145.9295  133.5156  151.0964 C   0  0  0  0  0  0  0  0  0  0  0  0
  147.1198  132.8598  151.8130 C   0  0  0  0  0  0  0  0  0  0  0  0
  147.7630  133.7701  152.7944 N   0  3  2  0  0  0  0  0  0  0  0  0
  148.9177  133.1343  153.4778 C   0  0  0  0  0  0  0  0  0  0  0  0
  149.6545  134.1415  154.3760 C   0  0  0  0  0  0  0  0  0  0  0  0
  148.7095  134.7692  155.4154 C   0  0  1  0  0  0  0  0  0  0  0  0
  149.4602  135.7834  156.3036 C   0  0  0  0  0  0  0  0  0  0  0  0
  148.5805  136.3885  157.2979 N   0  0  0  0  0  0  0  0  0  0  0  0
  148.3857  135.9364  158.5466 C   0  0  0  0  0  0  0  0  0  0  0  0
  148.8851  134.8996  158.9833 O   0  0  0  0  0  0  0  0  0  0  0  0
  147.5248  136.8124  159.4556 C   0  0  0  0  0  0  0  0  0  0  0  0
  147.4996  136.2742  160.8038 N   0  0  0  0  0  0  0  0  0  0  0  0
  147.2504  134.9775  161.2032 C   0  0  0  0  0  0  0  0  0  0  0  0
  147.3549  134.9443  162.5641 C   0  0  0  0  0  0  0  0  0  0  0  0
  147.6757  136.2863  162.9118 C   0  0  0  0  0  0  0  0  0  0  0  0
  147.7640  137.0797  161.8566 N   0  0  0  0  0  0  0  0  0  0  0  0
  147.4978  135.3808  154.6822 C   0  0  0  0  0  0  0  0  0  0  0  0
  146.8071  134.3507  153.7737 C   0  0  0  0  0  0  0  0  0  0  0  0
  143.7570  132.2698  148.9508 H   0  0  0  0  0  0  0  0  0  0  0  0
  144.2476  133.9572  149.1050 H   0  0  0  0  0  0  0  0  0  0  0  0
  143.3939  133.1521  150.4344 H   0  0  0  0  0  0  0  0  0  0  0  0
  146.2230  134.4324  150.5847 H   0  0  0  0  0  0  0  0  0  0  0  0
  145.1732  133.7911  151.8331 H   0  0  0  0  0  0  0  0  0  0  0  0
  146.8058  131.9436  152.3149 H   0  0  0  0  0  0  0  0  0  0  0  0
  147.8447  132.5599  151.0548 H   0  0  0  0  0  0  0  0  0  0  0  0
  148.5716  132.2838  154.0676 H   0  0  0  0  0  0  0  0  0  0  0  0
  149.6156  132.7437  152.7364 H   0  0  0  0  0  0  0  0  0  0  0  0
  150.4833  133.6417  154.8791 H   0  0  0  0  0  0  0  0  0  0  0  0
  150.0966  134.9242  153.7575 H   0  0  0  0  0  0  0  0  0  0  0  0
  148.3434  133.9688  156.0607 H   0  0  0  0  0  0  0  0  0  0  0  0
  150.2617  135.2770  156.8420 H   0  0  0  0  0  0  0  0  0  0  0  0
  149.9437  136.5446  155.6888 H   0  0  0  0  0  0  0  0  0  0  0  0
  148.1259  137.2517  157.0360 H   0  0  0  0  0  0  0  0  0  0  0  0
  147.9070  137.8345  159.4770 H   0  0  0  0  0  0  0  0  0  0  0  0
  146.5042  136.8572  159.0731 H   0  0  0  0  0  0  0  0  0  0  0  0
  147.0251  134.1956  160.4926 H   0  0  0  0  0  0  0  0  0  0  0  0
  147.2226  134.0911  163.2129 H   0  0  0  0  0  0  0  0  0  0  0  0
  147.8474  136.7045  163.8927 H   0  0  0  0  0  0  0  0  0  0  0  0
  146.7680  135.7584  155.3988 H   0  0  0  0  0  0  0  0  0  0  0  0
  147.8185  136.2377  154.0879 H   0  0  0  0  0  0  0  0  0  0  0  0
  145.9812  134.8380  153.2571 H   0  0  0  0  0  0  0  0  0  0  0  0
  146.3733  133.5524  154.3780 H   0  0  0  0  0  0  0  0  0  0  0  0
  148.1429  134.5386  152.2595 H   0  0  0  0  0  0  0  0  0  0  0  0
  1  2  1  0  0  0  0
  1 21  1  0  0  0  0
  1 22  1  0  0  0  0
  1 23  1  0  0  0  0
  2  3  1  0  0  0  0
  3  4  1  0  0  0  0
  3 24  1  0  0  0  0
  3 25  1  0  0  0  0
  4  5  1  0  0  0  0
  4 26  1  0  0  0  0
  4 27  1  0  0  0  0
  5 20  1  0  0  0  0
  5  6  1  0  0  0  0
  5 45  1  0  0  0  0
  6  7  1  0  0  0  0
  6 28  1  0  0  0  0
  6 29  1  0  0  0  0
  7  8  1  0  0  0  0
  7 30  1  0  0  0  0
  7 31  1  0  0  0  0
  8  9  1  0  0  0  0
  8 19  1  0  0  0  0
  8 32  1  0  0  0  0
  9 10  1  0  0  0  0
  9 33  1  0  0  0  0
  9 34  1  0  0  0  0
 10 11  1  0  0  0  0
 10 35  1  0  0  0  0
 11 12  2  0  0  0  0
 11 13  1  0  0  0  0
 13 14  1  0  0  0  0
 13 36  1  0  0  0  0
 13 37  1  0  0  0  0
 14 18  1  0  0  0  0
 14 15  1  0  0  0  0
 15 16  2  0  0  0  0
 15 38  1  0  0  0  0
 16 17  1  0  0  0  0
 16 39  1  0  0  0  0
 17 18  2  0  0  0  0
 17 40  1  0  0  0  0
 19 20  1  0  0  0  0
 19 41  1  0  0  0  0
 19 42  1  0  0  0  0
 20 43  1  0  0  0  0
 20 44  1  0  0  0  0
M  CHG  1   5   1
M  END
> <s_m_source_file>
AV-unprocessed.smi

> <i_m_source_file_index>
1118

> <i_lp_mmshare_version>
43012

> <i_f3d_flags>
0

> <s_epik_input>
W0NIM11PW0NIMl1bQ0gyXU4xW0NIMl1bQ0gyXVtDSF0oW0NIMl1bQ0gyXTEpW0NIMl1bTkhdQyg9TylbQ0gyXW4yW2NIXVtjSF1bY0hdbjI=

> <s_epik_cmdline>
J2VwaWtfcHl0aG9uJywgJy1waCcsICc3LjAnLCAnLXRuJywgJzgnLCAnLW1hJywgJzIwMCcsICctbWV0YWxfYmluZGluZycsICctaW1hZScsICc8aW5maWxlLm1hZT4nLCAnLW9tYWUnLCAnPG91dGZpbGUubWFlPic=

> <r_lp_tautomer_probability>
1

> <r_epik_Ionization_Penalty>
0.00991549

> <r_epik_Ionization_Penalty_Charging>
0.00990284

> <r_epik_Ionization_Penalty_Neutral>
1.26554e-05

> <r_epik_State_Penalty>
0.00754525

> <r_epik_Charging_Adjusted_Penalty>
0.0174481

> <i_epik_Tot_Q>
1

> <i_epik_Tot_abs_Q>
1

> <r_epik_Metal_State_Penalty>
0.00754527

> <b_epik_Metal_Only>
0

> <s_lp_Force_Field>
OPLS_2005

> <r_lp_Energy>
19.0863

> <b_lp_Chiralities_Consistent>
1

> <s_lp_Variant>
AV-unprocessed.smi:1118-1

> <Gold.Version>
5.8.1

> <Gold.Id.Protein>
6NUR|6NUR_protein|mol2

> <Gold.PLP.Fitness>
49.5476

> <Gold.PLP.PLP>
-36.7998

> <Gold.PLP.part.hbond>
-4.0000

> <Gold.PLP.part.metal>
0.0000

> <Gold.PLP.part.buried>
-3.3225

> <Gold.PLP.part.nonpolar>
-28.3580

> <Gold.PLP.part.repulsive>
0.1588

> <Gold.PLP.ligand.clash>
0.0000

> <Gold.PLP.ligand.torsion>
0.3458

> <Gold.PLP.Chemscore.Hbond>
4.4399

> <Gold.PLP.Chemscore.CHOScore>
0.0000

> <Gold.PLP.Chemscore.Metal>
0.0000

> <Gold.Chemscore.Hbonds>
donor molecule, donor type, donor heavy atom, donor atom, acceptor molecule, acceptor atom, score
      L1  H     5    45       P1  7948  1.80
      P1  H  6896  6908       L1    12  1.00
      P1  H  6931  6943       L1    18  1.00
      P1  H  6934  6947       L1    18  0.34

> <Gold.PLP.Chemscore.Internal.Correction>
0.1196

> <Gold.Rescore>
     Score         DG    S(hbond)    S(metal)    S(lipo)     H(rot)  DE(clash)    DE(int)     intcor
     15.71     -17.54       2.71        0.00      74.08       2.22       0.09       1.74       ----

> <Gold.Chemscore.Fitness>
15.7060

> <Gold.Chemscore.DG>
-17.5379

> <Gold.Chemscore.ZeroCoef>
-5.4800

> <Gold.Chemscore.Hbond>
2.7141

> <Gold.Chemscore.Metal>
0.0000

> <Gold.Chemscore.Lipo>
74.0808

> <Gold.Chemscore.Internal_Hbond>
0.0000

> <Gold.Chemscore.DEClash>
0.0870

> <Gold.Chemscore.DEInternal>
1.7449

> <Gold.Chemscore.Rot>
2.2166

> <Gold.Chemscore.Internal.Correction>
   9.000000E+99

> <Gold.Chemscore.Hbonds>
donor molecule, donor type, donor heavy atom, donor atom, acceptor molecule, acceptor atom, score
      L1  H     5    45       P1  7948  0.18
      P1  H  6896  6908       L1    12  0.98
      P1  H  6931  6943       L1    18  0.89
      P1  H  6934  6947       L1    18  0.07

> <Gold.Chemscore.Hbond.Weighted>
-9.0649

> <Gold.Chemscore.Metal.Weighted>
-0.0000

> <Gold.Chemscore.Lipo.Weighted>
-8.6674

> <Gold.Chemscore.Internal_Hbond.Weighted>
0.0000

> <Gold.Chemscore.DEClash.Weighted>
0.0870

> <Gold.Chemscore.DEInternal.Weighted>
1.7449

> <Gold.Chemscore.Rot.Weighted>
5.6745

> <Gold.Chemscore.Internal.Correction.Weighted>
   9.000000E+99

> <Gold.Protein.RotatedTorsions>
[ 6907 6896 6895 6894 ] final  145.48 input  -60.11 | X-H torsion
[ 7974 7965 7964 7962 ] final  108.44 input  175.53 | X-H torsion
[ 8008 7997 7996 7995 ] final    2.94 input   59.86 | X-H torsion
[ 10167 10162 10161 10158 ] final  136.99 input  -65.29 | X-H torsion
[ 10718 10713 10712 10709 ] final  -37.09 input   66.30 | X-H torsion
[ 10763 10752 10751 10750 ] final  -41.34 input  -60.55 | X-H torsion
[ 11005 11000 10999 10996 ] final -103.79 input  -57.11 | X-H torsion

> <Gold.Protein.ActiveResidues>
 VAL166  LYS551  ARG553  GLY616  TRP617  ASP618  TYR619  PRO620  LYS621  CYS622 
 ASP623  PHE694  ASN695  SER759  ASP760  ASP761  ALA762  ILE779  LEU786  VAL792 
 PHE793  MET794  SER795  GLU796  ALA797  LYS798  CYS799  TRP800  GLU811  SER814 

> <Gold.Protein.RotatedAtoms>
  152.1803  133.4703  159.4954 H   0  0  0  0  0  0  0  0  0  0  0  0  # atno 6907 bound_to 6896
  150.6933  134.1841  159.4269 H   0  0  0  0  0  0  0  0  0  0  0  0  # atno 6908 bound_to 6896
  151.9752  135.0056  160.0605 H   0  0  0  0  0  0  0  0  0  0  0  0  # atno 6909 bound_to 6896
  145.2807  139.2634  143.3917 H   0  0  0  0  0  0  0  0  0  0  0  0  # atno 7974 bound_to 7965
  154.6976  140.2666  155.6751 H   0  0  0  0  0  0  0  0  0  0  0  0  # atno 8008 bound_to 7997
  156.2754  140.2778  156.1499 H   0  0  0  0  0  0  0  0  0  0  0  0  # atno 8009 bound_to 7997
  155.0809  140.0372  157.2629 H   0  0  0  0  0  0  0  0  0  0  0  0  # atno 8010 bound_to 7997
  139.5160  144.6435  151.5505 H   0  0  0  0  0  0  0  0  0  0  0  0  # atno 10167 bound_to 10162
  156.3192  130.4263  149.7976 H   0  0  0  0  0  0  0  0  0  0  0  0  # atno 10718 bound_to 10713
  153.9609  135.6739  153.4745 H   0  0  0  0  0  0  0  0  0  0  0  0  # atno 10763 bound_to 10752
  153.0838  135.4909  154.8554 H   0  0  0  0  0  0  0  0  0  0  0  0  # atno 10764 bound_to 10752
  154.7273  135.3130  154.8910 H   0  0  0  0  0  0  0  0  0  0  0  0  # atno 10765 bound_to 10752
  141.1130  133.8669  157.1530 H   0  0  0  0  0  0  0  0  0  0  0  0  # atno 11005 bound_to 11000
  146.3217  140.3273  142.8637 LP  0  0  0  0  0  0  0  0  0  0  0  0  # atno 17320 bound_to 7965
  144.9256  140.7917  143.5721 LP  0  0  0  0  0  0  0  0  0  0  0  0  # atno 17321 bound_to 7965
  140.6210  143.9258  150.6526 LP  0  0  0  0  0  0  0  0  0  0  0  0  # atno 17342 bound_to 10162
  140.2531  143.3578  152.1388 LP  0  0  0  0  0  0  0  0  0  0  0  0  # atno 17343 bound_to 10162
  156.5290  130.8249  151.3230 LP  0  0  0  0  0  0  0  0  0  0  0  0  # atno 17370 bound_to 10713
  157.7408  130.9858  150.2403 LP  0  0  0  0  0  0  0  0  0  0  0  0  # atno 17371 bound_to 10713
  140.0035  135.0018  157.0241 LP  0  0  0  0  0  0  0  0  0  0  0  0  # atno 17394 bound_to 11000
  140.4723  134.1373  155.7205 LP  0  0  0  0  0  0  0  0  0  0  0  0  # atno 17395 bound_to 11000

$$$$
