AV-unprocessed.smi:1667|AV-procd|sdf|6675|dock6
  -GOLD-   22720 7393D 1   1.00000     0.00000
 Structure written by MMmdl.
 45 47  0  0  0  0  0  0  0  0  1 V2000
  150.7293  136.7506  154.7308 C   0  0  0  0  0  0  0  0  0  0  0  0
  149.3937  136.2640  155.2831 C   0  0  0  0  0  0  0  0  0  0  0  0
  149.1301  136.4209  156.4746 O   0  0  0  0  0  0  0  0  0  0  0  0
  148.5642  135.6706  154.4116 N   0  0  0  0  0  0  0  0  0  0  0  0
  147.2605  135.0958  154.7387 C   0  0  1  0  0  0  0  0  0  0  0  0
  146.3245  136.1571  155.3373 C   0  0  0  0  0  0  0  0  0  0  0  0
  146.6873  134.4876  153.4832 C   0  0  0  0  0  0  0  0  0  0  0  0
  145.5045  134.8682  152.9912 N   0  0  0  0  0  0  0  0  0  0  0  0
  145.3433  134.0443  151.8970 C   0  0  0  0  0  0  0  0  0  0  0  0
  144.2876  133.9597  150.9612 C   0  0  0  0  0  0  0  0  0  0  0  0
  144.3358  133.0162  149.9143 C   0  0  0  0  0  0  0  0  0  0  0  0
  145.4365  132.1446  149.7909 C   0  0  0  0  0  0  0  0  0  0  0  0
  146.4981  132.2134  150.7133 C   0  0  0  0  0  0  0  0  0  0  0  0
  146.4492  133.1613  151.7538 C   0  0  0  0  0  0  0  0  0  0  0  0
  147.3085  133.4874  152.8009 N   0  0  0  0  0  0  0  0  0  0  0  0
  148.5905  132.8459  153.0848 C   0  0  0  0  0  0  0  0  0  0  0  0
  148.4689  131.4709  153.7846 C   0  0  1  0  0  0  0  0  0  0  0  0
  147.9227  130.5136  152.8988 O   0  0  0  0  0  0  0  0  0  0  0  0
  149.7698  130.9999  154.4229 C   0  0  0  0  0  0  0  0  0  0  0  0
  150.3308  129.7458  154.0902 C   0  0  0  0  0  0  0  0  0  0  0  0
  151.5322  129.3222  154.6903 C   0  0  0  0  0  0  0  0  0  0  0  0
  152.1808  130.1483  155.6277 C   0  0  0  0  0  0  0  0  0  0  0  0
  151.6307  131.4010  155.9595 C   0  0  0  0  0  0  0  0  0  0  0  0
  152.2577  132.1993  156.8554 F   0  0  0  0  0  0  0  0  0  0  0  0
  150.4295  131.8254  155.3587 C   0  0  0  0  0  0  0  0  0  0  0  0
  147.4226  134.3147  155.4790 H   0  0  0  0  0  0  0  0  0  0  0  0
  150.9356  136.3221  153.7494 H   0  0  0  0  0  0  0  0  0  0  0  0
  151.5398  136.4662  155.4023 H   0  0  0  0  0  0  0  0  0  0  0  0
  150.7248  137.8368  154.6386 H   0  0  0  0  0  0  0  0  0  0  0  0
  148.8629  135.5865  153.4505 H   0  0  0  0  0  0  0  0  0  0  0  0
  145.3546  135.7247  155.5840 H   0  0  0  0  0  0  0  0  0  0  0  0
  146.1549  136.9771  154.6388 H   0  0  0  0  0  0  0  0  0  0  0  0
  146.7380  136.5796  156.2535 H   0  0  0  0  0  0  0  0  0  0  0  0
  143.4380  134.6203  151.0502 H   0  0  0  0  0  0  0  0  0  0  0  0
  143.5236  132.9595  149.2042 H   0  0  0  0  0  0  0  0  0  0  0  0
  145.4660  131.4231  148.9877 H   0  0  0  0  0  0  0  0  0  0  0  0
  147.3421  131.5466  150.6194 H   0  0  0  0  0  0  0  0  0  0  0  0
  149.1697  132.7593  152.1663 H   0  0  0  0  0  0  0  0  0  0  0  0
  149.1661  133.5218  153.7184 H   0  0  0  0  0  0  0  0  0  0  0  0
  147.7363  131.5753  154.5859 H   0  0  0  0  0  0  0  0  0  0  0  0
  147.2527  130.9334  152.3812 H   0  0  0  0  0  0  0  0  0  0  0  0
  149.8459  129.1060  153.3673 H   0  0  0  0  0  0  0  0  0  0  0  0
  151.9580  128.3646  154.4293 H   0  0  0  0  0  0  0  0  0  0  0  0
  153.1038  129.8249  156.0860 H   0  0  0  0  0  0  0  0  0  0  0  0
  150.0165  132.7890  155.6188 H   0  0  0  0  0  0  0  0  0  0  0  0
  1  2  1  0  0  0  0
  1 27  1  0  0  0  0
  1 28  1  0  0  0  0
  1 29  1  0  0  0  0
  2  3  2  0  0  0  0
  2  4  1  0  0  0  0
  4  5  1  0  0  0  0
  4 30  1  0  0  0  0
  5 26  1  0  0  0  0
  5  6  1  0  0  0  0
  5  7  1  0  0  0  0
  6 31  1  0  0  0  0
  6 32  1  0  0  0  0
  6 33  1  0  0  0  0
  7 15  1  0  0  0  0
  7  8  2  0  0  0  0
  8  9  1  0  0  0  0
  9 14  2  0  0  0  0
  9 10  1  0  0  0  0
 10 11  2  0  0  0  0
 10 34  1  0  0  0  0
 11 12  1  0  0  0  0
 11 35  1  0  0  0  0
 12 13  2  0  0  0  0
 12 36  1  0  0  0  0
 13 14  1  0  0  0  0
 13 37  1  0  0  0  0
 14 15  1  0  0  0  0
 15 16  1  0  0  0  0
 16 17  1  0  0  0  0
 16 38  1  0  0  0  0
 16 39  1  0  0  0  0
 17 18  1  0  0  0  0
 17 19  1  0  0  0  0
 17 40  1  0  0  0  0
 18 41  1  0  0  0  0
 19 25  1  0  0  0  0
 19 20  2  0  0  0  0
 20 21  1  0  0  0  0
 20 42  1  0  0  0  0
 21 22  2  0  0  0  0
 21 43  1  0  0  0  0
 22 23  1  0  0  0  0
 22 44  1  0  0  0  0
 23 24  1  0  0  0  0
 23 25  2  0  0  0  0
 25 45  1  0  0  0  0
M  END
> <s_m_source_file>
AV-unprocessed.smi

> <i_m_source_file_index>
1667

> <i_lp_mmshare_version>
43012

> <i_f3d_flags>
0

> <s_epik_input>
W0NIM11DKD1PKVtOSF1bQ0BASF0oW0NIM10pYyhuMSluKGMoYzEyKVtjSF1bY0hdW2NIXVtjSF0yKVtDSDJdW0NASF0oW09IXSljM1tjSF1bY0hdW2NIXWMoRilbY0hdMw==

> <s_epik_cmdline>
J2VwaWtfcHl0aG9uJywgJy1waCcsICc3LjAnLCAnLXRuJywgJzgnLCAnLW1hJywgJzIwMCcsICctbWV0YWxfYmluZGluZycsICctaW1hZScsICc8aW5maWxlLm1hZT4nLCAnLW9tYWUnLCAnPG91dGZpbGUubWFlPic=

> <r_epik_Ionization_Penalty>
0.133011

> <r_epik_Ionization_Penalty_Charging>
0

> <r_epik_Ionization_Penalty_Neutral>
0.133011

> <r_epik_State_Penalty>
0.122384

> <r_epik_Charging_Adjusted_Penalty>
0.122384

> <i_epik_Tot_Q>
0

> <i_epik_Tot_abs_Q>
0

> <r_epik_Metal_State_Penalty>
0.0997374

> <b_epik_Metal_Only>
0

> <s_lp_Force_Field>
OPLS_2005

> <r_lp_Energy>
5.5788

> <b_lp_Chiralities_Consistent>
1

> <s_lp_Variant>
AV-unprocessed.smi:1667-3

> <Gold.Version>
5.8.1

> <Gold.Id.Protein>
6NUR|6NUR_protein|mol2

> <Gold.PLP.Fitness>
43.9913

> <Gold.PLP.PLP>
-41.6415

> <Gold.PLP.part.hbond>
-2.0000

> <Gold.PLP.part.metal>
0.0000

> <Gold.PLP.part.buried>
-2.7173

> <Gold.PLP.part.nonpolar>
-36.6480

> <Gold.PLP.part.repulsive>
0.0983

> <Gold.PLP.ligand.clash>
0.0000

> <Gold.PLP.ligand.torsion>
0.3724

> <Gold.PLP.Chemscore.Hbond>
1.0000

> <Gold.PLP.Chemscore.CHOScore>
0.0000

> <Gold.PLP.Chemscore.Metal>
0.0000

> <Gold.Chemscore.Hbonds>
donor molecule, donor type, donor heavy atom, donor atom, acceptor molecule, acceptor atom, score
      L1  H     4    30       P1  7948  1.00

> <Gold.PLP.Chemscore.Internal.Correction>
0.0945

> <Gold.Rescore>
     Score         DG    S(hbond)    S(metal)    S(lipo)     H(rot)  DE(clash)    DE(int)     intcor
     12.81     -13.23       1.00        0.00      91.93       2.48       0.05       0.37       ----

> <Gold.Chemscore.Fitness>
12.8084

> <Gold.Chemscore.DG>
-13.2277

> <Gold.Chemscore.ZeroCoef>
-5.4800

> <Gold.Chemscore.Hbond>
0.9972

> <Gold.Chemscore.Metal>
0.0000

> <Gold.Chemscore.Lipo>
91.9285

> <Gold.Chemscore.Internal_Hbond>
0.0000

> <Gold.Chemscore.DEClash>
0.0515

> <Gold.Chemscore.DEInternal>
0.3677

> <Gold.Chemscore.Rot>
2.4760

> <Gold.Chemscore.Internal.Correction>
   9.000000E+99

> <Gold.Chemscore.Hbonds>
donor molecule, donor type, donor heavy atom, donor atom, acceptor molecule, acceptor atom, score
      L1  H     4    30       P1  7948  0.84

> <Gold.Chemscore.Hbond.Weighted>
-3.3305

> <Gold.Chemscore.Metal.Weighted>
-0.0000

> <Gold.Chemscore.Lipo.Weighted>
-10.7556

> <Gold.Chemscore.Internal_Hbond.Weighted>
0.0000

> <Gold.Chemscore.DEClash.Weighted>
0.0515

> <Gold.Chemscore.DEInternal.Weighted>
0.3677

> <Gold.Chemscore.Rot.Weighted>
6.3385

> <Gold.Chemscore.Internal.Correction.Weighted>
   9.000000E+99

> <Gold.Protein.RotatedTorsions>
[ 6907 6896 6895 6894 ] final   82.25 input  -60.11 | X-H torsion
[ 7974 7965 7964 7962 ] final  -88.58 input  175.53 | X-H torsion
[ 8008 7997 7996 7995 ] final -108.01 input   59.86 | X-H torsion
[ 10167 10162 10161 10158 ] final  -58.40 input  -65.29 | X-H torsion
[ 10718 10713 10712 10709 ] final  175.97 input   66.30 | X-H torsion
[ 10763 10752 10751 10750 ] final  -44.41 input  -60.55 | X-H torsion
[ 11005 11000 10999 10996 ] final -134.18 input  -57.11 | X-H torsion

> <Gold.Protein.ActiveResidues>
 VAL166  LYS551  ARG553  GLY616  TRP617  ASP618  TYR619  PRO620  LYS621  CYS622 
 ASP623  PHE694  ASN695  SER759  ASP760  ASP761  ALA762  ILE779  LEU786  VAL792 
 PHE793  MET794  SER795  GLU796  ALA797  LYS798  CYS799  TRP800  GLU811  SER814 

> <Gold.Protein.RotatedAtoms>
  152.5293  134.3078  159.9102 H   0  0  0  0  0  0  0  0  0  0  0  0  # atno 6907 bound_to 6896
  151.3028  133.4108  159.2648 H   0  0  0  0  0  0  0  0  0  0  0  0  # atno 6908 bound_to 6896
  151.0104  134.9409  159.8061 H   0  0  0  0  0  0  0  0  0  0  0  0  # atno 6909 bound_to 6896
  145.4512  140.9560  143.2021 H   0  0  0  0  0  0  0  0  0  0  0  0  # atno 7974 bound_to 7965
  154.9379  140.0403  157.2082 H   0  0  0  0  0  0  0  0  0  0  0  0  # atno 8008 bound_to 7997
  154.8097  140.2866  155.5840 H   0  0  0  0  0  0  0  0  0  0  0  0  # atno 8009 bound_to 7997
  156.2970  140.2539  156.2983 H   0  0  0  0  0  0  0  0  0  0  0  0  # atno 8010 bound_to 7997
  140.6200  143.2416  151.5504 H   0  0  0  0  0  0  0  0  0  0  0  0  # atno 10167 bound_to 10162
  156.9270  130.9959  151.2994 H   0  0  0  0  0  0  0  0  0  0  0  0  # atno 10718 bound_to 10713
  154.0117  135.6680  153.4766 H   0  0  0  0  0  0  0  0  0  0  0  0  # atno 10763 bound_to 10752
  153.0618  135.5023  154.8107 H   0  0  0  0  0  0  0  0  0  0  0  0  # atno 10764 bound_to 10752
  154.6992  135.3075  154.9331 H   0  0  0  0  0  0  0  0  0  0  0  0  # atno 10765 bound_to 10752
  140.9013  134.1686  157.4458 H   0  0  0  0  0  0  0  0  0  0  0  0  # atno 11005 bound_to 11000
  144.8060  139.6050  143.7050 LP  0  0  0  0  0  0  0  0  0  0  0  0  # atno 17320 bound_to 7965
  146.2503  139.6185  142.9431 LP  0  0  0  0  0  0  0  0  0  0  0  0  # atno 17321 bound_to 7965
  139.5430  144.2596  152.1388 LP  0  0  0  0  0  0  0  0  0  0  0  0  # atno 17342 bound_to 10162
  140.1813  144.4841  150.6526 LP  0  0  0  0  0  0  0  0  0  0  0  0  # atno 17343 bound_to 10162
  157.5871  130.8417  149.8606 LP  0  0  0  0  0  0  0  0  0  0  0  0  # atno 17370 bound_to 10713
  156.0465  130.3727  150.1306 LP  0  0  0  0  0  0  0  0  0  0  0  0  # atno 17371 bound_to 10713
  139.8743  134.9899  156.5479 LP  0  0  0  0  0  0  0  0  0  0  0  0  # atno 17394 bound_to 11000
  140.8226  133.8342  155.8909 LP  0  0  0  0  0  0  0  0  0  0  0  0  # atno 17395 bound_to 11000

$$$$
