AV-unprocessed.smi:2136|AV-procd|sdf|8702|dock4
  -GOLD-   2272011463D 1   1.00000     0.00000
 Structure written by MMmdl.
 42 43  0  0  0  0  0  0  0  0  1 V2000
  153.5355  140.5245  161.4114 C   0  0  0  0  0  0  0  0  0  0  0  0
  153.3440  140.2661  159.5986 S   0  0  0  0  0  0  0  0  0  0  0  0
  154.6589  140.3886  158.9509 O   0  0  0  0  0  0  0  0  0  0  0  0
  152.5680  139.0285  159.4247 O   0  0  0  0  0  0  0  0  0  0  0  0
  152.3405  141.6112  159.0979 N   0  0  0  0  0  0  0  0  0  0  0  0
  152.1358  142.6812  160.1042 C   0  0  0  0  0  0  0  0  0  0  0  0
  151.6052  143.9888  159.5022 C   0  0  0  0  0  0  0  0  0  0  0  0
  150.3483  143.7403  158.6764 C   0  0  0  0  0  0  0  0  0  0  0  0
  150.6986  142.7541  157.5659 C   0  0  0  0  0  0  0  0  0  0  0  0
  151.2239  141.4076  158.1207 C   0  0  1  0  0  0  0  0  0  0  0  0
  151.5308  140.4822  156.9299 C   0  0  0  0  0  0  0  0  0  0  0  0
  152.6178  139.9087  156.8510 O   0  0  0  0  0  0  0  0  0  0  0  0
  150.5615  140.3428  156.0120 N   0  0  0  0  0  0  0  0  0  0  0  0
  150.6330  139.4824  154.8382 C   0  0  0  0  0  0  0  0  0  0  0  0
  149.2498  138.9237  154.4671 C   0  0  0  0  0  0  0  0  0  0  0  0
  148.1350  139.8974  154.7936 C   0  0  0  0  0  0  0  0  0  0  0  0
  147.1122  139.5538  155.7016 C   0  0  0  0  0  0  0  0  0  0  0  0
  146.1033  140.4976  155.9749 C   0  0  0  0  0  0  0  0  0  0  0  0
  146.1604  141.7476  155.3263 C   0  0  0  0  0  0  0  0  0  0  0  0
  147.1343  142.0864  154.4541 N   0  0  0  0  0  0  0  0  0  0  0  0
  148.0980  141.1758  154.1977 C   0  0  0  0  0  0  0  0  0  0  0  0
  154.0377  139.6602  161.8451 H   0  0  0  0  0  0  0  0  0  0  0  0
  152.5528  140.6359  161.8686 H   0  0  0  0  0  0  0  0  0  0  0  0
  154.1314  141.4115  161.6108 H   0  0  0  0  0  0  0  0  0  0  0  0
  151.4484  142.3132  160.8669 H   0  0  0  0  0  0  0  0  0  0  0  0
  153.0776  142.9011  160.6060 H   0  0  0  0  0  0  0  0  0  0  0  0
  151.3920  144.7014  160.2995 H   0  0  0  0  0  0  0  0  0  0  0  0
  152.3742  144.4458  158.8779 H   0  0  0  0  0  0  0  0  0  0  0  0
  149.5505  143.3410  159.3038 H   0  0  0  0  0  0  0  0  0  0  0  0
  149.9837  144.6759  158.2515 H   0  0  0  0  0  0  0  0  0  0  0  0
  149.8157  142.5846  156.9477 H   0  0  0  0  0  0  0  0  0  0  0  0
  151.4438  143.2122  156.9128 H   0  0  0  0  0  0  0  0  0  0  0  0
  150.4064  140.9514  158.6820 H   0  0  0  0  0  0  0  0  0  0  0  0
  149.6982  140.8467  156.1556 H   0  0  0  0  0  0  0  0  0  0  0  0
  151.0283  140.0729  154.0112 H   0  0  0  0  0  0  0  0  0  0  0  0
  151.3434  138.6718  155.0095 H   0  0  0  0  0  0  0  0  0  0  0  0
  149.2073  138.6949  153.4019 H   0  0  0  0  0  0  0  0  0  0  0  0
  149.0718  137.9832  154.9906 H   0  0  0  0  0  0  0  0  0  0  0  0
  147.0996  138.5861  156.1817 H   0  0  0  0  0  0  0  0  0  0  0  0
  145.3046  140.2702  156.6653 H   0  0  0  0  0  0  0  0  0  0  0  0
  145.4032  142.4948  155.5126 H   0  0  0  0  0  0  0  0  0  0  0  0
  148.8642  141.4774  153.4987 H   0  0  0  0  0  0  0  0  0  0  0  0
  1  2  1  0  0  0  0
  1 22  1  0  0  0  0
  1 23  1  0  0  0  0
  1 24  1  0  0  0  0
  2  3  2  0  0  0  0
  2  4  2  0  0  0  0
  2  5  1  0  0  0  0
  5 10  1  0  0  0  0
  5  6  1  0  0  0  0
  6  7  1  0  0  0  0
  6 25  1  0  0  0  0
  6 26  1  0  0  0  0
  7  8  1  0  0  0  0
  7 27  1  0  0  0  0
  7 28  1  0  0  0  0
  8  9  1  0  0  0  0
  8 29  1  0  0  0  0
  8 30  1  0  0  0  0
  9 10  1  0  0  0  0
  9 31  1  0  0  0  0
  9 32  1  0  0  0  0
 10 11  1  0  0  0  0
 10 33  1  0  0  0  0
 11 12  2  0  0  0  0
 11 13  1  0  0  0  0
 13 14  1  0  0  0  0
 13 34  1  0  0  0  0
 14 15  1  0  0  0  0
 14 35  1  0  0  0  0
 14 36  1  0  0  0  0
 15 16  1  0  0  0  0
 15 37  1  0  0  0  0
 15 38  1  0  0  0  0
 16 21  1  0  0  0  0
 16 17  2  0  0  0  0
 17 18  1  0  0  0  0
 17 39  1  0  0  0  0
 18 19  2  0  0  0  0
 18 40  1  0  0  0  0
 19 20  1  0  0  0  0
 19 41  1  0  0  0  0
 20 21  2  0  0  0  0
 21 42  1  0  0  0  0
M  END
> <s_m_source_file>
AV-unprocessed.smi

> <i_m_source_file_index>
2136

> <i_lp_mmshare_version>
43012

> <i_f3d_flags>
0

> <s_epik_input>
W0NIM11TKD1PKSg9TylOMVtDSDJdW0NIMl1bQ0gyXVtDSDJdW0NASF0xQyg9TylbTkhdW0NIMl1bQ0gyXWMyW2NIXVtjSF1bY0hdbltjSF0y

> <s_epik_cmdline>
J2VwaWtfcHl0aG9uJywgJy1waCcsICc3LjAnLCAnLXRuJywgJzgnLCAnLW1hJywgJzIwMCcsICctbWV0YWxfYmluZGluZycsICctaW1hZScsICc8aW5maWxlLm1hZT4nLCAnLW9tYWUnLCAnPG91dGZpbGUubWFlPic=

> <r_epik_Ionization_Penalty>
0.0126915

> <r_epik_Ionization_Penalty_Charging>
0

> <r_epik_Ionization_Penalty_Neutral>
0.0126915

> <r_epik_State_Penalty>
0.0098379

> <r_epik_Charging_Adjusted_Penalty>
0.0098379

> <i_epik_Tot_Q>
0

> <i_epik_Tot_abs_Q>
0

> <r_epik_Metal_State_Penalty>
0.00962913

> <b_epik_Metal_Only>
0

> <s_lp_Force_Field>
OPLS_2005

> <r_lp_Energy>
4.41633

> <b_lp_Chiralities_Consistent>
1

> <s_lp_Variant>
AV-unprocessed.smi:2136-1

> <Gold.Version>
5.8.1

> <Gold.Id.Protein>
6NUR|6NUR_protein|mol2

> <Gold.PLP.Fitness>
43.3288

> <Gold.PLP.PLP>
-37.1302

> <Gold.PLP.part.hbond>
-2.4617

> <Gold.PLP.part.metal>
0.0000

> <Gold.PLP.part.buried>
-2.7391

> <Gold.PLP.part.nonpolar>
-32.1791

> <Gold.PLP.part.repulsive>
0.8379

> <Gold.PLP.ligand.clash>
0.0000

> <Gold.PLP.ligand.torsion>
1.6468

> <Gold.PLP.Chemscore.Hbond>
1.5200

> <Gold.PLP.Chemscore.CHOScore>
0.9450

> <Gold.PLP.Chemscore.Metal>
0.0000

> <Gold.Chemscore.Hbonds>
donor molecule, donor type, donor heavy atom, donor atom, acceptor molecule, acceptor atom, score
      P1  H  7997  8009       L1     3  0.35
      P1  H  7997  8010       L1    12  0.88
      L1  C    21    42       P1  7957  0.22

> <Gold.PLP.Chemscore.Internal.Correction>
2.0972

> <Gold.Rescore>
     Score         DG    S(hbond)    S(metal)    S(lipo)     H(rot)  DE(clash)    DE(int)     intcor
     11.36     -17.34       1.33        0.00      97.78       1.56       0.32       5.67       ----

> <Gold.Chemscore.Fitness>
11.3564

> <Gold.Chemscore.DG>
-17.3443

> <Gold.Chemscore.ZeroCoef>
-5.4800

> <Gold.Chemscore.Hbond>
1.3260

> <Gold.Chemscore.Metal>
0.0000

> <Gold.Chemscore.Lipo>
97.7782

> <Gold.Chemscore.Internal_Hbond>
0.0000

> <Gold.Chemscore.DEClash>
0.3178

> <Gold.Chemscore.DEInternal>
5.6701

> <Gold.Chemscore.Rot>
1.5643

> <Gold.Chemscore.Internal.Correction>
   9.000000E+99

> <Gold.Chemscore.Hbonds>
donor molecule, donor type, donor heavy atom, donor atom, acceptor molecule, acceptor atom, score
      P1  H  7997  8009       L1     3  0.36
      P1  H  7997  8010       L1    12  0.86

> <Gold.Chemscore.Hbond.Weighted>
-4.4288

> <Gold.Chemscore.Metal.Weighted>
-0.0000

> <Gold.Chemscore.Lipo.Weighted>
-11.4400

> <Gold.Chemscore.Internal_Hbond.Weighted>
0.0000

> <Gold.Chemscore.DEClash.Weighted>
0.3178

> <Gold.Chemscore.DEInternal.Weighted>
5.6701

> <Gold.Chemscore.Rot.Weighted>
4.0046

> <Gold.Chemscore.Internal.Correction.Weighted>
   9.000000E+99

> <Gold.Protein.RotatedTorsions>
[ 6907 6896 6895 6894 ] final   61.52 input  -60.11 | X-H torsion
[ 7974 7965 7964 7962 ] final -142.34 input  175.53 | X-H torsion
[ 8008 7997 7996 7995 ] final   86.88 input   59.86 | X-H torsion
[ 10167 10162 10161 10158 ] final   51.93 input  -65.29 | X-H torsion
[ 10718 10713 10712 10709 ] final  127.70 input   66.30 | X-H torsion
[ 10763 10752 10751 10750 ] final -179.51 input  -60.55 | X-H torsion
[ 11005 11000 10999 10996 ] final   82.71 input  -57.11 | X-H torsion

> <Gold.Protein.ActiveResidues>
 VAL166  LYS551  ARG553  GLY616  TRP617  ASP618  TYR619  PRO620  LYS621  CYS622 
 ASP623  PHE694  ASN695  SER759  ASP760  ASP761  ALA762  ILE779  LEU786  VAL792 
 PHE793  MET794  SER795  GLU796  ALA797  LYS798  CYS799  TRP800  GLU811  SER814 

> <Gold.Protein.RotatedAtoms>
  152.4096  134.6148  160.0034 H   0  0  0  0  0  0  0  0  0  0  0  0  # atno 6907 bound_to 6896
  151.6329  133.3325  159.3121 H   0  0  0  0  0  0  0  0  0  0  0  0  # atno 6908 bound_to 6896
  150.7988  134.7107  159.6647 H   0  0  0  0  0  0  0  0  0  0  0  0  # atno 6909 bound_to 6896
  144.8451  140.5970  143.5427 H   0  0  0  0  0  0  0  0  0  0  0  0  # atno 7974 bound_to 7965
  155.9684  140.3387  155.6553 H   0  0  0  0  0  0  0  0  0  0  0  0  # atno 8008 bound_to 7997
  155.6707  140.0726  157.2539 H   0  0  0  0  0  0  0  0  0  0  0  0  # atno 8009 bound_to 7997
  154.4160  140.1692  156.1863 H   0  0  0  0  0  0  0  0  0  0  0  0  # atno 8010 bound_to 7997
  140.2567  144.3419  150.6331 H   0  0  0  0  0  0  0  0  0  0  0  0  # atno 10167 bound_to 10162
  157.5309  131.1098  150.9010 H   0  0  0  0  0  0  0  0  0  0  0  0  # atno 10718 bound_to 10713
  154.5342  135.2802  155.1153 H   0  0  0  0  0  0  0  0  0  0  0  0  # atno 10763 bound_to 10752
  154.2662  135.6312  153.5296 H   0  0  0  0  0  0  0  0  0  0  0  0  # atno 10764 bound_to 10752
  152.9963  135.5617  154.5863 H   0  0  0  0  0  0  0  0  0  0  0  0  # atno 10765 bound_to 10752
  139.9054  134.8091  156.2211 H   0  0  0  0  0  0  0  0  0  0  0  0  # atno 11005 bound_to 11000
  145.4614  139.1512  143.3864 LP  0  0  0  0  0  0  0  0  0  0  0  0  # atno 17320 bound_to 7965
  146.2737  140.4744  142.8804 LP  0  0  0  0  0  0  0  0  0  0  0  0  # atno 17321 bound_to 7965
  140.5998  143.2167  151.7094 LP  0  0  0  0  0  0  0  0  0  0  0  0  # atno 17342 bound_to 10162
  139.5029  144.3810  152.0375 LP  0  0  0  0  0  0  0  0  0  0  0  0  # atno 17343 bound_to 10162
  156.9591  130.5448  149.5285 LP  0  0  0  0  0  0  0  0  0  0  0  0  # atno 17370 bound_to 10713
  156.0422  130.5503  150.8797 LP  0  0  0  0  0  0  0  0  0  0  0  0  # atno 17371 bound_to 10713
  141.0405  133.6940  156.1589 LP  0  0  0  0  0  0  0  0  0  0  0  0  # atno 17394 bound_to 11000
  140.6963  134.4612  157.5587 LP  0  0  0  0  0  0  0  0  0  0  0  0  # atno 17395 bound_to 11000

$$$$
