AV-unprocessed.smi:1579|AV-procd|sdf|6356|dock7
  -GOLD-   22720 6583D 1   1.00000     0.00000
 Structure written by MMmdl.
 47 48  0  0  0  0  0  0  0  0  2 V2000
  138.1500  137.0557  153.5322 C   0  0  0  0  0  0  0  0  0  0  0  0
  139.4039  137.7414  154.0033 C   0  0  0  0  0  0  0  0  0  0  0  0
  140.4054  136.9807  154.3021 N   0  0  0  0  0  0  0  0  0  0  0  0
  141.6029  137.5065  154.7463 N   0  0  0  0  0  0  0  0  0  0  0  0
  142.6217  136.4902  155.0428 C   0  0  0  0  0  0  0  0  0  0  0  0
  142.7057  135.3987  153.9531 C   0  0  2  0  0  0  0  0  0  0  0  0
  141.8139  134.3653  154.3231 O   0  0  0  0  0  0  0  0  0  0  0  0
  144.1237  134.8067  153.7877 C   0  0  0  0  0  0  0  0  0  0  0  0
  144.1526  133.5719  152.9617 N   0  3  2  0  0  0  0  0  0  0  0  0
  145.5174  132.9903  152.8811 C   0  0  0  0  0  0  0  0  0  0  0  0
  145.5098  131.6431  152.1369 C   0  0  0  0  0  0  0  0  0  0  0  0
  144.8905  131.7575  150.7326 C   0  0  2  0  0  0  0  0  0  0  0  0
  145.8162  132.4685  149.7296 C   0  0  0  0  0  0  0  0  0  0  0  0
  143.5057  132.4211  150.8395 C   0  0  0  0  0  0  0  0  0  0  0  0
  143.5549  133.7521  151.6112 C   0  0  0  0  0  0  0  0  0  0  0  0
  141.8532  138.8380  154.9051 C   0  0  0  0  0  0  0  0  0  0  0  0
  142.9435  139.2677  155.2846 O   0  0  0  0  0  0  0  0  0  0  0  0
  140.7147  139.6944  154.5658 C   0  0  0  0  0  0  0  0  0  0  0  0
  140.9357  141.0962  154.7175 C   0  0  0  0  0  0  0  0  0  0  0  0
  141.0951  142.2363  154.8372 N   0  0  0  0  0  0  0  0  0  0  0  0
  139.5331  139.1891  154.1320 C   0  0  0  0  0  0  0  0  0  0  0  0
  138.3221  140.0359  153.7652 C   0  0  0  0  0  0  0  0  0  0  0  0
  137.3095  137.2953  154.1837 H   0  0  0  0  0  0  0  0  0  0  0  0
  138.2584  135.9701  153.5223 H   0  0  0  0  0  0  0  0  0  0  0  0
  137.8938  137.3696  152.5202 H   0  0  0  0  0  0  0  0  0  0  0  0
  143.6042  136.9376  155.2049 H   0  0  0  0  0  0  0  0  0  0  0  0
  142.3664  136.0265  155.9980 H   0  0  0  0  0  0  0  0  0  0  0  0
  142.3486  135.8214  153.0148 H   0  0  0  0  0  0  0  0  0  0  0  0
  142.2191  133.5306  154.1456 H   0  0  0  0  0  0  0  0  0  0  0  0
  144.7997  135.5334  153.3368 H   0  0  0  0  0  0  0  0  0  0  0  0
  144.5240  134.5965  154.7809 H   0  0  0  0  0  0  0  0  0  0  0  0
  146.1891  133.6967  152.3913 H   0  0  0  0  0  0  0  0  0  0  0  0
  145.9080  132.8340  153.8875 H   0  0  0  0  0  0  0  0  0  0  0  0
  146.5231  131.2451  152.0722 H   0  0  0  0  0  0  0  0  0  0  0  0
  144.9387  130.9201  152.7212 H   0  0  0  0  0  0  0  0  0  0  0  0
  144.7433  130.7454  150.3528 H   0  0  0  0  0  0  0  0  0  0  0  0
  146.0310  133.4959  150.0222 H   0  0  0  0  0  0  0  0  0  0  0  0
  145.3671  132.4967  148.7364 H   0  0  0  0  0  0  0  0  0  0  0  0
  146.7693  131.9463  149.6409 H   0  0  0  0  0  0  0  0  0  0  0  0
  143.0848  132.5793  149.8459 H   0  0  0  0  0  0  0  0  0  0  0  0
  142.8226  131.7411  151.3506 H   0  0  0  0  0  0  0  0  0  0  0  0
  142.5410  134.1409  151.6934 H   0  0  0  0  0  0  0  0  0  0  0  0
  144.1265  134.4944  151.0526 H   0  0  0  0  0  0  0  0  0  0  0  0
  138.5104  141.1017  153.8909 H   0  0  0  0  0  0  0  0  0  0  0  0
  137.4702  139.7783  154.3950 H   0  0  0  0  0  0  0  0  0  0  0  0
  138.0417  139.8741  152.7239 H   0  0  0  0  0  0  0  0  0  0  0  0
  143.5883  132.8899  153.4477 H   0  0  0  0  0  0  0  0  0  0  0  0
  1  2  1  0  0  0  0
  1 23  1  0  0  0  0
  1 24  1  0  0  0  0
  1 25  1  0  0  0  0
  2 21  1  0  0  0  0
  2  3  2  0  0  0  0
  3  4  1  0  0  0  0
  4  5  1  0  0  0  0
  4 16  1  0  0  0  0
  5  6  1  0  0  0  0
  5 26  1  0  0  0  0
  5 27  1  0  0  0  0
  6  7  1  0  0  0  0
  6  8  1  0  0  0  0
  6 28  1  0  0  0  0
  7 29  1  0  0  0  0
  8  9  1  0  0  0  0
  8 30  1  0  0  0  0
  8 31  1  0  0  0  0
  9 15  1  0  0  0  0
  9 10  1  0  0  0  0
  9 47  1  0  0  0  0
 10 11  1  0  0  0  0
 10 32  1  0  0  0  0
 10 33  1  0  0  0  0
 11 12  1  0  0  0  0
 11 34  1  0  0  0  0
 11 35  1  0  0  0  0
 12 13  1  0  0  0  0
 12 14  1  0  0  0  0
 12 36  1  0  0  0  0
 13 37  1  0  0  0  0
 13 38  1  0  0  0  0
 13 39  1  0  0  0  0
 14 15  1  0  0  0  0
 14 40  1  0  0  0  0
 14 41  1  0  0  0  0
 15 42  1  0  0  0  0
 15 43  1  0  0  0  0
 16 17  2  0  0  0  0
 16 18  1  0  0  0  0
 18 19  1  0  0  0  0
 18 21  2  0  0  0  0
 19 20  3  0  0  0  0
 21 22  1  0  0  0  0
 22 44  1  0  0  0  0
 22 45  1  0  0  0  0
 22 46  1  0  0  0  0
M  CHG  1   9   1
M  END
> <s_m_source_file>
AV-unprocessed.smi

> <i_m_source_file_index>
1579

> <i_lp_mmshare_version>
43012

> <i_f3d_flags>
0

> <s_epik_input>
TiNDYyhjMVtDSDNdKWMoPU8pbihuYzFbQ0gzXSlbQ0gyXVtDQEhdKFtPSF0pW0NIMl1OMltDSDJdW0NIMl1bQ0hdKFtDSDNdKVtDSDJdW0NIMl0y

> <s_epik_cmdline>
J2VwaWtfcHl0aG9uJywgJy1waCcsICc3LjAnLCAnLXRuJywgJzgnLCAnLW1hJywgJzIwMCcsICctbWV0YWxfYmluZGluZycsICctaW1hZScsICc8aW5maWxlLm1hZT4nLCAnLW9tYWUnLCAnPG91dGZpbGUubWFlPic=

> <r_epik_Ionization_Penalty>
0.00136816

> <r_epik_Ionization_Penalty_Charging>
0.00136813

> <r_epik_Ionization_Penalty_Neutral>
3.19884e-08

> <r_epik_State_Penalty>
0.000910892

> <r_epik_Charging_Adjusted_Penalty>
0.00227902

> <i_epik_Tot_Q>
1

> <i_epik_Tot_abs_Q>
1

> <r_epik_Metal_State_Penalty>
-0

> <b_epik_Metal_Only>
0

> <s_lp_Force_Field>
OPLS_2005

> <r_lp_Energy>
38.3008

> <b_lp_Chiralities_Consistent>
1

> <s_lp_Variant>
AV-unprocessed.smi:1579-3

> <Gold.Version>
5.8.1

> <Gold.Id.Protein>
6NUR|6NUR_protein|mol2

> <Gold.PLP.Fitness>
44.5267

> <Gold.PLP.PLP>
-33.9051

> <Gold.PLP.part.hbond>
-3.0000

> <Gold.PLP.part.metal>
0.0000

> <Gold.PLP.part.buried>
-6.8899

> <Gold.PLP.part.nonpolar>
-25.1950

> <Gold.PLP.part.repulsive>
1.6674

> <Gold.PLP.ligand.clash>
0.0000

> <Gold.PLP.ligand.torsion>
0.6621

> <Gold.PLP.Chemscore.Hbond>
3.9760

> <Gold.PLP.Chemscore.CHOScore>
0.0000

> <Gold.PLP.Chemscore.Metal>
0.0000

> <Gold.Chemscore.Hbonds>
donor molecule, donor type, donor heavy atom, donor atom, acceptor molecule, acceptor atom, score
      L1  H     7    29       P1 10957  0.94
      L1  H     9    47       P1 10957  2.00
      P1  H 11000 11005       L1     7  1.00

> <Gold.PLP.Chemscore.Internal.Correction>
0.0178

> <Gold.Rescore>
     Score         DG    S(hbond)    S(metal)    S(lipo)     H(rot)  DE(clash)    DE(int)     intcor
     16.91     -17.65       2.46        0.00      81.19       2.17       0.00       0.73       ----

> <Gold.Chemscore.Fitness>
16.9097

> <Gold.Chemscore.DG>
-17.6467

> <Gold.Chemscore.ZeroCoef>
-5.4800

> <Gold.Chemscore.Hbond>
2.4631

> <Gold.Chemscore.Metal>
0.0000

> <Gold.Chemscore.Lipo>
81.1886

> <Gold.Chemscore.Internal_Hbond>
0.0000

> <Gold.Chemscore.DEClash>
0.0038

> <Gold.Chemscore.DEInternal>
0.7332

> <Gold.Chemscore.Rot>
2.1715

> <Gold.Chemscore.Internal.Correction>
   9.000000E+99

> <Gold.Chemscore.Hbonds>
donor molecule, donor type, donor heavy atom, donor atom, acceptor molecule, acceptor atom, score
      L1  H     7    29       P1 10957  0.91
      L1  H     9    47       P1 10957  0.73
      P1  H 11000 11005       L1     7  0.33

> <Gold.Chemscore.Hbond.Weighted>
-8.2267

> <Gold.Chemscore.Metal.Weighted>
-0.0000

> <Gold.Chemscore.Lipo.Weighted>
-9.4991

> <Gold.Chemscore.Internal_Hbond.Weighted>
0.0000

> <Gold.Chemscore.DEClash.Weighted>
0.0038

> <Gold.Chemscore.DEInternal.Weighted>
0.7332

> <Gold.Chemscore.Rot.Weighted>
5.5591

> <Gold.Chemscore.Internal.Correction.Weighted>
   9.000000E+99

> <Gold.Protein.RotatedTorsions>
[ 6907 6896 6895 6894 ] final   87.74 input  -60.11 | X-H torsion
[ 7974 7965 7964 7962 ] final  -84.41 input  175.53 | X-H torsion
[ 8008 7997 7996 7995 ] final  106.52 input   59.86 | X-H torsion
[ 10167 10162 10161 10158 ] final   37.30 input  -65.29 | X-H torsion
[ 10718 10713 10712 10709 ] final -141.95 input   66.30 | X-H torsion
[ 10763 10752 10751 10750 ] final  157.19 input  -60.55 | X-H torsion
[ 11005 11000 10999 10996 ] final   -1.65 input  -57.11 | X-H torsion

> <Gold.Protein.ActiveResidues>
 VAL166  LYS551  ARG553  GLY616  TRP617  ASP618  TYR619  PRO620  LYS621  CYS622 
 ASP623  PHE694  ASN695  SER759  ASP760  ASP761  ALA762  ILE779  LEU786  VAL792 
 PHE793  MET794  SER795  GLU796  ALA797  LYS798  CYS799  TRP800  GLU811  SER814 

> <Gold.Protein.RotatedAtoms>
  152.5415  134.2229  159.8794 H   0  0  0  0  0  0  0  0  0  0  0  0  # atno 6907 bound_to 6896
  151.2205  133.4498  159.2608 H   0  0  0  0  0  0  0  0  0  0  0  0  # atno 6908 bound_to 6896
  151.0810  134.9871  159.8412 H   0  0  0  0  0  0  0  0  0  0  0  0  # atno 6909 bound_to 6896
  145.5070  140.9543  143.1728 H   0  0  0  0  0  0  0  0  0  0  0  0  # atno 7974 bound_to 7965
  156.1749  140.3111  155.9041 H   0  0  0  0  0  0  0  0  0  0  0  0  # atno 8008 bound_to 7997
  155.3508  140.0471  157.3063 H   0  0  0  0  0  0  0  0  0  0  0  0  # atno 8009 bound_to 7997
  154.5280  140.2221  155.8865 H   0  0  0  0  0  0  0  0  0  0  0  0  # atno 8010 bound_to 7997
  140.4046  144.1677  150.6135 H   0  0  0  0  0  0  0  0  0  0  0  0  # atno 10167 bound_to 10162
  156.3401  130.7633  151.1767 H   0  0  0  0  0  0  0  0  0  0  0  0  # atno 10718 bound_to 10713
  154.1962  135.2792  155.3006 H   0  0  0  0  0  0  0  0  0  0  0  0  # atno 10763 bound_to 10752
  154.5890  135.5566  153.7263 H   0  0  0  0  0  0  0  0  0  0  0  0  # atno 10764 bound_to 10752
  153.0099  135.6363  154.2101 H   0  0  0  0  0  0  0  0  0  0  0  0  # atno 10765 bound_to 10752
  140.6497  133.9415  155.8373 H   0  0  0  0  0  0  0  0  0  0  0  0  # atno 11005 bound_to 11000
  144.7748  139.6654  143.7179 LP  0  0  0  0  0  0  0  0  0  0  0  0  # atno 17320 bound_to 7965
  146.2190  139.5601  142.9631 LP  0  0  0  0  0  0  0  0  0  0  0  0  # atno 17321 bound_to 7965
  140.4704  143.2415  151.9097 LP  0  0  0  0  0  0  0  0  0  0  0  0  # atno 17342 bound_to 10162
  139.4784  144.5376  151.8576 LP  0  0  0  0  0  0  0  0  0  0  0  0  # atno 17343 bound_to 10162
  157.7445  131.0457  150.4856 LP  0  0  0  0  0  0  0  0  0  0  0  0  # atno 17370 bound_to 10713
  156.5034  130.4122  149.6340 LP  0  0  0  0  0  0  0  0  0  0  0  0  # atno 17371 bound_to 10713
  141.0546  134.0435  157.3739 LP  0  0  0  0  0  0  0  0  0  0  0  0  # atno 17394 bound_to 11000
  139.9050  135.0177  156.7445 LP  0  0  0  0  0  0  0  0  0  0  0  0  # atno 17395 bound_to 11000

$$$$
