AV-unprocessed.smi:2270|AV-procd|sdf|9155|dock1
  -GOLD-   2272012363D 1   1.00000     0.00000
 Structure written by MMmdl.
 53 54  0  0  0  0  0  0  0  0  2 V2000
  152.9651  142.1031  161.2142 C   0  0  0  0  0  0  0  0  0  0  0  0
  152.2514  143.1790  160.4226 C   0  0  0  0  0  0  0  0  0  0  0  0
  152.1760  144.5010  160.9026 C   0  0  0  0  0  0  0  0  0  0  0  0
  151.5056  145.4542  160.1159 C   0  0  0  0  0  0  0  0  0  0  0  0
  150.9354  145.0484  158.8943 C   0  0  0  0  0  0  0  0  0  0  0  0
  151.0426  143.6922  158.4933 C   0  0  0  0  0  0  0  0  0  0  0  0
  150.5044  143.2661  157.2511 N   0  0  0  0  0  0  0  0  0  0  0  0
  150.4768  142.0215  156.7440 C   0  0  0  0  0  0  0  0  0  0  0  0
  150.9356  141.0189  157.2922 O   0  0  0  0  0  0  0  0  0  0  0  0
  149.8941  142.0017  155.5387 N   0  0  0  0  0  0  0  0  0  0  0  0
  149.7017  140.8049  154.7268 C   0  0  0  0  0  0  0  0  0  0  0  0
  148.3880  140.0470  155.0744 C   0  0  1  0  0  0  0  0  0  0  0  0
  147.1198  140.6703  154.4014 C   0  0  0  0  0  0  0  0  0  0  0  0
  147.0939  140.5784  152.8636 C   0  0  0  0  0  0  0  0  0  0  0  0
  146.8494  142.1147  154.8585 C   0  0  0  0  0  0  0  0  0  0  0  0
  148.5193  138.5885  154.8295 N   0  0  0  0  0  0  0  0  0  0  0  0
  149.8287  138.0110  155.1730 C   0  0  0  0  0  0  0  0  0  0  0  0
  150.0690  137.9896  156.6983 C   0  0  0  0  0  0  0  0  0  0  0  0
  149.0082  137.2086  157.3767 N   0  3  0  0  0  0  0  0  0  0  0  0
  149.2033  137.1263  158.8396 C   0  0  0  0  0  0  0  0  0  0  0  0
  147.6645  137.7085  157.0029 C   0  0  0  0  0  0  0  0  0  0  0  0
  147.5122  137.7271  155.4673 C   0  0  0  0  0  0  0  0  0  0  0  0
  151.7084  142.7886  159.2490 N   0  0  0  0  0  0  0  0  0  0  0  0
  153.3122  142.4836  162.1753 H   0  0  0  0  0  0  0  0  0  0  0  0
  153.8300  141.7369  160.6604 H   0  0  0  0  0  0  0  0  0  0  0  0
  152.2962  141.2631  161.4037 H   0  0  0  0  0  0  0  0  0  0  0  0
  152.6237  144.7819  161.8445 H   0  0  0  0  0  0  0  0  0  0  0  0
  151.4341  146.4819  160.4403 H   0  0  0  0  0  0  0  0  0  0  0  0
  150.4379  145.7831  158.2791 H   0  0  0  0  0  0  0  0  0  0  0  0
  150.1930  144.0053  156.6385 H   0  0  0  0  0  0  0  0  0  0  0  0
  149.5479  142.8702  155.1573 H   0  0  0  0  0  0  0  0  0  0  0  0
  149.7107  141.0937  153.6759 H   0  0  0  0  0  0  0  0  0  0  0  0
  150.5632  140.1468  154.8321 H   0  0  0  0  0  0  0  0  0  0  0  0
  148.2423  140.1859  156.1446 H   0  0  0  0  0  0  0  0  0  0  0  0
  146.2504  140.1260  154.7650 H   0  0  0  0  0  0  0  0  0  0  0  0
  147.8355  141.2317  152.4049 H   0  0  0  0  0  0  0  0  0  0  0  0
  146.1203  140.8805  152.4768 H   0  0  0  0  0  0  0  0  0  0  0  0
  147.2788  139.5626  152.5152 H   0  0  0  0  0  0  0  0  0  0  0  0
  147.5676  142.8198  154.4408 H   0  0  0  0  0  0  0  0  0  0  0  0
  146.8842  142.1997  155.9450 H   0  0  0  0  0  0  0  0  0  0  0  0
  145.8599  142.4423  154.5382 H   0  0  0  0  0  0  0  0  0  0  0  0
  149.8672  136.9899  154.7907 H   0  0  0  0  0  0  0  0  0  0  0  0
  150.6401  138.5290  154.6647 H   0  0  0  0  0  0  0  0  0  0  0  0
  151.0355  137.5282  156.9040 H   0  0  0  0  0  0  0  0  0  0  0  0
  150.1160  138.9999  157.1059 H   0  0  0  0  0  0  0  0  0  0  0  0
  149.1390  138.1131  159.3001 H   0  0  0  0  0  0  0  0  0  0  0  0
  150.1805  136.7021  159.0732 H   0  0  0  0  0  0  0  0  0  0  0  0
  148.4454  136.4865  159.2926 H   0  0  0  0  0  0  0  0  0  0  0  0
  146.9078  137.0512  157.4325 H   0  0  0  0  0  0  0  0  0  0  0  0
  147.4948  138.6981  157.4289 H   0  0  0  0  0  0  0  0  0  0  0  0
  146.5015  138.0084  155.1789 H   0  0  0  0  0  0  0  0  0  0  0  0
  147.6335  136.7124  155.0848 H   0  0  0  0  0  0  0  0  0  0  0  0
  149.0734  136.2660  157.0198 H   0  0  0  0  0  0  0  0  0  0  0  0
  1  2  1  0  0  0  0
  1 24  1  0  0  0  0
  1 25  1  0  0  0  0
  1 26  1  0  0  0  0
  2 23  1  0  0  0  0
  2  3  2  0  0  0  0
  3  4  1  0  0  0  0
  3 27  1  0  0  0  0
  4  5  2  0  0  0  0
  4 28  1  0  0  0  0
  5  6  1  0  0  0  0
  5 29  1  0  0  0  0
  6  7  1  0  0  0  0
  6 23  2  0  0  0  0
  7  8  1  0  0  0  0
  7 30  1  0  0  0  0
  8  9  2  0  0  0  0
  8 10  1  0  0  0  0
 10 11  1  0  0  0  0
 10 31  1  0  0  0  0
 11 12  1  0  0  0  0
 11 32  1  0  0  0  0
 11 33  1  0  0  0  0
 12 13  1  0  0  0  0
 12 16  1  0  0  0  0
 12 34  1  0  0  0  0
 13 14  1  0  0  0  0
 13 15  1  0  0  0  0
 13 35  1  0  0  0  0
 14 36  1  0  0  0  0
 14 37  1  0  0  0  0
 14 38  1  0  0  0  0
 15 39  1  0  0  0  0
 15 40  1  0  0  0  0
 15 41  1  0  0  0  0
 16 22  1  0  0  0  0
 16 17  1  0  0  0  0
 17 18  1  0  0  0  0
 17 42  1  0  0  0  0
 17 43  1  0  0  0  0
 18 19  1  0  0  0  0
 18 44  1  0  0  0  0
 18 45  1  0  0  0  0
 19 20  1  0  0  0  0
 19 21  1  0  0  0  0
 19 53  1  0  0  0  0
 20 46  1  0  0  0  0
 20 47  1  0  0  0  0
 20 48  1  0  0  0  0
 21 22  1  0  0  0  0
 21 49  1  0  0  0  0
 21 50  1  0  0  0  0
 22 51  1  0  0  0  0
 22 52  1  0  0  0  0
M  CHG  1  19   1
M  END
> <s_m_source_file>
AV-unprocessed.smi

> <i_m_source_file_index>
2270

> <i_lp_mmshare_version>
43012

> <i_f3d_flags>
0

> <s_epik_input>
W0NIM11jMVtjSF1bY0hdW2NIXWMobjEpW05IXUMoPU8pW05IXVtDSDJdW0NASF0oW0NIXShbQ0gzXSlbQ0gzXSlOMltDSDJdW0NIMl1OKFtDSDNdKVtDSDJdW0NIMl0y

> <s_epik_cmdline>
J2VwaWtfcHl0aG9uJywgJy1waCcsICc3LjAnLCAnLXRuJywgJzgnLCAnLW1hJywgJzIwMCcsICctbWV0YWxfYmluZGluZycsICctaW1hZScsICc8aW5maWxlLm1hZT4nLCAnLW9tYWUnLCAnPG91dGZpbGUubWFlPic=

> <r_epik_Ionization_Penalty>
0.0278292

> <r_epik_Ionization_Penalty_Charging>
0.0272987

> <r_epik_Ionization_Penalty_Neutral>
0.000530468

> <r_epik_State_Penalty>
0.0776825

> <r_epik_Charging_Adjusted_Penalty>
0.104981

> <i_epik_Tot_Q>
1

> <i_epik_Tot_abs_Q>
1

> <r_epik_Metal_State_Penalty>
0.0776809

> <b_epik_Metal_Only>
0

> <s_lp_Force_Field>
OPLS_2005

> <r_lp_Energy>
35.6144

> <b_lp_Chiralities_Consistent>
1

> <s_lp_Variant>
AV-unprocessed.smi:2270-2

> <Gold.Version>
5.8.1

> <Gold.Id.Protein>
6NUR|6NUR_protein|mol2

> <Gold.PLP.Fitness>
44.5317

> <Gold.PLP.PLP>
-39.9467

> <Gold.PLP.part.hbond>
-2.0000

> <Gold.PLP.part.metal>
0.0000

> <Gold.PLP.part.buried>
-5.4162

> <Gold.PLP.part.nonpolar>
-32.9519

> <Gold.PLP.part.repulsive>
0.3213

> <Gold.PLP.ligand.clash>
0.0000

> <Gold.PLP.ligand.torsion>
0.7533

> <Gold.PLP.Chemscore.Hbond>
1.8880

> <Gold.PLP.Chemscore.CHOScore>
0.0000

> <Gold.PLP.Chemscore.Metal>
0.0000

> <Gold.Chemscore.Hbonds>
donor molecule, donor type, donor heavy atom, donor atom, acceptor molecule, acceptor atom, score
      L1  H     7    30       P1  8028  0.99
      L1  H    10    31       P1  8028  0.88

> <Gold.PLP.Chemscore.Internal.Correction>
0.4275

> <Gold.Rescore>
     Score         DG    S(hbond)    S(metal)    S(lipo)     H(rot)  DE(clash)    DE(int)     intcor
     17.15     -19.38       1.88        0.00     100.14       1.61       0.04       2.19       ----

> <Gold.Chemscore.Fitness>
17.1542

> <Gold.Chemscore.DG>
-19.3775

> <Gold.Chemscore.ZeroCoef>
-5.4800

> <Gold.Chemscore.Hbond>
1.8849

> <Gold.Chemscore.Metal>
0.0000

> <Gold.Chemscore.Lipo>
100.1360

> <Gold.Chemscore.Internal_Hbond>
0.0000

> <Gold.Chemscore.DEClash>
0.0352

> <Gold.Chemscore.DEInternal>
2.1881

> <Gold.Chemscore.Rot>
1.6070

> <Gold.Chemscore.Internal.Correction>
   9.000000E+99

> <Gold.Chemscore.Hbonds>
donor molecule, donor type, donor heavy atom, donor atom, acceptor molecule, acceptor atom, score
      L1  H     7    30       P1  8028  0.94
      L1  H    10    31       P1  8028  0.82

> <Gold.Chemscore.Hbond.Weighted>
-6.2955

> <Gold.Chemscore.Metal.Weighted>
-0.0000

> <Gold.Chemscore.Lipo.Weighted>
-11.7159

> <Gold.Chemscore.Internal_Hbond.Weighted>
0.0000

> <Gold.Chemscore.DEClash.Weighted>
0.0352

> <Gold.Chemscore.DEInternal.Weighted>
2.1881

> <Gold.Chemscore.Rot.Weighted>
4.1140

> <Gold.Chemscore.Internal.Correction.Weighted>
   9.000000E+99

> <Gold.Protein.RotatedTorsions>
[ 6907 6896 6895 6894 ] final  -28.80 input  -60.11 | X-H torsion
[ 7974 7965 7964 7962 ] final -126.83 input  175.53 | X-H torsion
[ 8008 7997 7996 7995 ] final  163.23 input   59.86 | X-H torsion
[ 10167 10162 10161 10158 ] final  143.16 input  -65.29 | X-H torsion
[ 10718 10713 10712 10709 ] final  133.42 input   66.30 | X-H torsion
[ 10763 10752 10751 10750 ] final   -8.97 input  -60.55 | X-H torsion
[ 11005 11000 10999 10996 ] final  114.90 input  -57.11 | X-H torsion

> <Gold.Protein.ActiveResidues>
 VAL166  LYS551  ARG553  GLY616  TRP617  ASP618  TYR619  PRO620  LYS621  CYS622 
 ASP623  PHE694  ASN695  SER759  ASP760  ASP761  ALA762  ILE779  LEU786  VAL792 
 PHE793  MET794  SER795  GLU796  ALA797  LYS798  CYS799  TRP800  GLU811  SER814 

> <Gold.Protein.RotatedAtoms>
  151.1280  135.0115  159.8568 H   0  0  0  0  0  0  0  0  0  0  0  0  # atno 6907 bound_to 6896
  152.5450  134.1644  159.8581 H   0  0  0  0  0  0  0  0  0  0  0  0  # atno 6908 bound_to 6896
  151.1708  133.4740  159.2627 H   0  0  0  0  0  0  0  0  0  0  0  0  # atno 6909 bound_to 6896
  144.9833  140.7661  143.4599 H   0  0  0  0  0  0  0  0  0  0  0  0  # atno 7974 bound_to 7965
  156.1972  140.1729  156.7973 H   0  0  0  0  0  0  0  0  0  0  0  0  # atno 8008 bound_to 7997
  154.5545  140.0711  156.8753 H   0  0  0  0  0  0  0  0  0  0  0  0  # atno 8009 bound_to 7997
  155.2964  140.3358  155.4252 H   0  0  0  0  0  0  0  0  0  0  0  0  # atno 8010 bound_to 7997
  139.4976  144.6059  151.6380 H   0  0  0  0  0  0  0  0  0  0  0  0  # atno 10167 bound_to 10162
  157.4774  131.1084  150.9726 H   0  0  0  0  0  0  0  0  0  0  0  0  # atno 10718 bound_to 10713
  153.4480  135.7014  153.6127 H   0  0  0  0  0  0  0  0  0  0  0  0  # atno 10763 bound_to 10752
  153.4473  135.3766  155.2264 H   0  0  0  0  0  0  0  0  0  0  0  0  # atno 10764 bound_to 10752
  154.8728  135.3988  154.3888 H   0  0  0  0  0  0  0  0  0  0  0  0  # atno 10765 bound_to 10752
  139.8994  134.9575  156.6963 H   0  0  0  0  0  0  0  0  0  0  0  0  # atno 11005 bound_to 11000
  145.2390  139.2081  143.5003 LP  0  0  0  0  0  0  0  0  0  0  0  0  # atno 17320 bound_to 7965
  146.3413  140.2282  142.8593 LP  0  0  0  0  0  0  0  0  0  0  0  0  # atno 17321 bound_to 7965
  140.5720  144.0092  150.6222 LP  0  0  0  0  0  0  0  0  0  0  0  0  # atno 17342 bound_to 10162
  140.3213  143.3135  152.0781 LP  0  0  0  0  0  0  0  0  0  0  0  0  # atno 17343 bound_to 10162
  157.0470  130.5772  149.5364 LP  0  0  0  0  0  0  0  0  0  0  0  0  # atno 17370 bound_to 10713
  156.0104  130.5195  150.7969 LP  0  0  0  0  0  0  0  0  0  0  0  0  # atno 17371 bound_to 10713
  140.7185  133.9161  155.8131 LP  0  0  0  0  0  0  0  0  0  0  0  0  # atno 17394 bound_to 11000
  141.0245  134.0842  157.4083 LP  0  0  0  0  0  0  0  0  0  0  0  0  # atno 17395 bound_to 11000

$$$$
