AV-unprocessed.smi:488|AV-procd|sdf|2701|dock6
  -GOLD-   2262023133D 1   1.00000     0.00000
 Structure written by MMmdl.
 45 46  0  0  0  0  0  0  0  0  1 V2000
  144.9867  144.8293  153.4556 C   0  0  0  0  0  0  0  0  0  0  0  0
  145.4491  143.6768  154.3057 C   0  0  0  0  0  0  0  0  0  0  0  0
  146.3669  142.9174  153.8037 N   0  0  0  0  0  0  0  0  0  0  0  0
  146.8567  141.8261  154.4956 N   0  0  0  0  0  0  0  0  0  0  0  0
  147.8856  141.0693  153.7690 C   0  0  0  0  0  0  0  0  0  0  0  0
  149.1538  140.8851  154.6094 C   0  0  0  0  0  0  0  0  0  0  0  0
  149.8518  139.8846  154.4350 O   0  0  0  0  0  0  0  0  0  0  0  0
  149.4080  141.8660  155.4999 N   0  0  0  0  0  0  0  0  0  0  0  0
  150.4545  141.9601  156.3419 C   0  0  0  0  0  0  0  0  0  0  0  0
  151.2314  141.0466  156.6285 O   0  0  0  0  0  0  0  0  0  0  0  0
  150.5557  143.1993  156.8450 N   0  0  0  0  0  0  0  0  0  0  0  0
  151.4848  143.6111  157.8929 C   0  0  0  0  0  0  0  0  0  0  0  0
  151.5808  142.5064  158.9619 C   0  0  0  0  0  0  0  0  0  0  0  0
  152.5093  142.9207  160.1147 C   0  0  0  0  0  0  0  0  0  0  0  0
  152.0594  144.2498  160.7414 C   0  0  0  0  0  0  0  0  0  0  0  0
  151.9614  145.3580  159.6811 C   0  0  0  0  0  0  0  0  0  0  0  0
  151.0365  144.9455  158.5239 C   0  0  0  0  0  0  0  0  0  0  0  0
  146.4448  141.4477  155.7401 C   0  0  0  0  0  0  0  0  0  0  0  0
  146.9082  140.4664  156.3225 O   0  0  0  0  0  0  0  0  0  0  0  0
  145.4076  142.3147  156.3038 C   0  0  0  0  0  0  0  0  0  0  0  0
  144.9433  141.9510  157.6038 C   0  0  0  0  0  0  0  0  0  0  0  0
  144.5877  141.6538  158.6646 N   0  0  0  0  0  0  0  0  0  0  0  0
  144.9198  143.3891  155.6347 C   0  0  0  0  0  0  0  0  0  0  0  0
  143.8416  144.3174  156.1771 C   0  0  0  0  0  0  0  0  0  0  0  0
  145.2632  145.7801  153.9115 H   0  0  0  0  0  0  0  0  0  0  0  0
  143.9033  144.8130  153.3356 H   0  0  0  0  0  0  0  0  0  0  0  0
  145.4268  144.8011  152.4576 H   0  0  0  0  0  0  0  0  0  0  0  0
  147.5047  140.0863  153.4847 H   0  0  0  0  0  0  0  0  0  0  0  0
  148.1379  141.5624  152.8282 H   0  0  0  0  0  0  0  0  0  0  0  0
  148.7365  142.6187  155.5346 H   0  0  0  0  0  0  0  0  0  0  0  0
  149.9399  143.9120  156.4818 H   0  0  0  0  0  0  0  0  0  0  0  0
  152.4774  143.7437  157.4578 H   0  0  0  0  0  0  0  0  0  0  0  0
  150.5884  142.2871  159.3590 H   0  0  0  0  0  0  0  0  0  0  0  0
  151.9450  141.5817  158.5123 H   0  0  0  0  0  0  0  0  0  0  0  0
  152.5300  142.1390  160.8745 H   0  0  0  0  0  0  0  0  0  0  0  0
  153.5304  143.0186  159.7438 H   0  0  0  0  0  0  0  0  0  0  0  0
  151.0899  144.1171  161.2229 H   0  0  0  0  0  0  0  0  0  0  0  0
  152.7563  144.5461  161.5259 H   0  0  0  0  0  0  0  0  0  0  0  0
  151.5973  146.2784  160.1383 H   0  0  0  0  0  0  0  0  0  0  0  0
  152.9557  145.5791  159.2910 H   0  0  0  0  0  0  0  0  0  0  0  0
  151.0229  145.7336  157.7700 H   0  0  0  0  0  0  0  0  0  0  0  0
  150.0139  144.8548  158.8935 H   0  0  0  0  0  0  0  0  0  0  0  0
  143.6191  144.1203  157.2254 H   0  0  0  0  0  0  0  0  0  0  0  0
  142.9171  144.1942  155.6125 H   0  0  0  0  0  0  0  0  0  0  0  0
  144.1530  145.3599  156.1053 H   0  0  0  0  0  0  0  0  0  0  0  0
  1  2  1  0  0  0  0
  1 25  1  0  0  0  0
  1 26  1  0  0  0  0
  1 27  1  0  0  0  0
  2 23  1  0  0  0  0
  2  3  2  0  0  0  0
  3  4  1  0  0  0  0
  4  5  1  0  0  0  0
  4 18  1  0  0  0  0
  5  6  1  0  0  0  0
  5 28  1  0  0  0  0
  5 29  1  0  0  0  0
  6  7  2  0  0  0  0
  6  8  1  0  0  0  0
  8  9  1  0  0  0  0
  8 30  1  0  0  0  0
  9 10  2  0  0  0  0
  9 11  1  0  0  0  0
 11 12  1  0  0  0  0
 11 31  1  0  0  0  0
 12 17  1  0  0  0  0
 12 13  1  0  0  0  0
 12 32  1  0  0  0  0
 13 14  1  0  0  0  0
 13 33  1  0  0  0  0
 13 34  1  0  0  0  0
 14 15  1  0  0  0  0
 14 35  1  0  0  0  0
 14 36  1  0  0  0  0
 15 16  1  0  0  0  0
 15 37  1  0  0  0  0
 15 38  1  0  0  0  0
 16 17  1  0  0  0  0
 16 39  1  0  0  0  0
 16 40  1  0  0  0  0
 17 41  1  0  0  0  0
 17 42  1  0  0  0  0
 18 19  2  0  0  0  0
 18 20  1  0  0  0  0
 20 21  1  0  0  0  0
 20 23  2  0  0  0  0
 21 22  3  0  0  0  0
 23 24  1  0  0  0  0
 24 43  1  0  0  0  0
 24 44  1  0  0  0  0
 24 45  1  0  0  0  0
M  END
> <s_m_source_file>
AV-unprocessed.smi

> <i_m_source_file_index>
488

> <i_lp_mmshare_version>
43012

> <i_f3d_flags>
0

> <s_epik_input>
TiNDYyhjMVtDSDNdKWMoPU8pbihuYzFbQ0gzXSlbQ0gyXUMoPU8pW05IXUMoPU8pW05IXVtDSF0yW0NIMl1bQ0gyXVtDSDJdW0NIMl1bQ0gyXTI=

> <s_epik_cmdline>
J2VwaWtfcHl0aG9uJywgJy1waCcsICc3LjAnLCAnLXRuJywgJzgnLCAnLW1hJywgJzIwMCcsICctbWV0YWxfYmluZGluZycsICctaW1hZScsICc8aW5maWxlLm1hZT4nLCAnLW9tYWUnLCAnPG91dGZpbGUubWFlPic=

> <r_lp_tautomer_probability>
1

> <r_epik_Ionization_Penalty>
3.27035e-05

> <r_epik_Ionization_Penalty_Charging>
1.69167e-11

> <r_epik_Ionization_Penalty_Neutral>
3.27035e-05

> <r_epik_State_Penalty>
-0

> <r_epik_Charging_Adjusted_Penalty>
1.69167e-11

> <i_epik_Tot_Q>
0

> <i_epik_Tot_abs_Q>
0

> <r_epik_Metal_State_Penalty>
-0

> <b_epik_Metal_Only>
0

> <s_lp_Force_Field>
OPLS_2005

> <r_lp_Energy>
25.832

> <b_lp_Chiralities_Consistent>
1

> <s_lp_Variant>
AV-unprocessed.smi:488-1

> <Gold.Version>
5.8.1

> <Gold.Id.Protein>
6NUR|6NUR_protein|mol2

> <Gold.PLP.Fitness>
54.3954

> <Gold.PLP.PLP>
-48.1588

> <Gold.PLP.part.hbond>
-3.0000

> <Gold.PLP.part.metal>
0.0000

> <Gold.PLP.part.buried>
-5.6015

> <Gold.PLP.part.nonpolar>
-39.8547

> <Gold.PLP.part.repulsive>
0.6803

> <Gold.PLP.ligand.clash>
0.0000

> <Gold.PLP.ligand.torsion>
0.7476

> <Gold.PLP.Chemscore.Hbond>
2.5733

> <Gold.PLP.Chemscore.CHOScore>
0.0000

> <Gold.PLP.Chemscore.Metal>
0.0000

> <Gold.Chemscore.Hbonds>
donor molecule, donor type, donor heavy atom, donor atom, acceptor molecule, acceptor atom, score
      L1  H     8    30       P1  8028  0.58
      L1  H    11    31       P1  8028  1.00
      P1  H  7989  7998       L1     7  0.44

> <Gold.PLP.Chemscore.Internal.Correction>
0.0120

> <Gold.Rescore>
     Score         DG    S(hbond)    S(metal)    S(lipo)     H(rot)  DE(clash)    DE(int)     intcor
     14.44     -19.37       1.94        0.00      97.97       1.59       0.47       4.45       ----

> <Gold.Chemscore.Fitness>
14.4428

> <Gold.Chemscore.DG>
-19.3651

> <Gold.Chemscore.ZeroCoef>
-5.4800

> <Gold.Chemscore.Hbond>
1.9412

> <Gold.Chemscore.Metal>
0.0000

> <Gold.Chemscore.Lipo>
97.9675

> <Gold.Chemscore.Internal_Hbond>
0.0000

> <Gold.Chemscore.DEClash>
0.4729

> <Gold.Chemscore.DEInternal>
4.4494

> <Gold.Chemscore.Rot>
1.5862

> <Gold.Chemscore.Internal.Correction>
   9.000000E+99

> <Gold.Chemscore.Hbonds>
donor molecule, donor type, donor heavy atom, donor atom, acceptor molecule, acceptor atom, score
      L1  H     8    30       P1  8028  0.56
      L1  H    11    31       P1  8028  0.95
      P1  H  7989  7998       L1     7  0.09

> <Gold.Chemscore.Hbond.Weighted>
-6.4836

> <Gold.Chemscore.Metal.Weighted>
-0.0000

> <Gold.Chemscore.Lipo.Weighted>
-11.4622

> <Gold.Chemscore.Internal_Hbond.Weighted>
0.0000

> <Gold.Chemscore.DEClash.Weighted>
0.4729

> <Gold.Chemscore.DEInternal.Weighted>
4.4494

> <Gold.Chemscore.Rot.Weighted>
4.0607

> <Gold.Chemscore.Internal.Correction.Weighted>
   9.000000E+99

> <Gold.Protein.RotatedTorsions>
[ 6907 6896 6895 6894 ] final -151.93 input  -60.11 | X-H torsion
[ 7974 7965 7964 7962 ] final    5.02 input  175.53 | X-H torsion
[ 8008 7997 7996 7995 ] final   83.88 input   59.86 | X-H torsion
[ 10167 10162 10161 10158 ] final  -90.08 input  -65.29 | X-H torsion
[ 10718 10713 10712 10709 ] final -135.44 input   66.30 | X-H torsion
[ 10763 10752 10751 10750 ] final   87.56 input  -60.55 | X-H torsion
[ 11005 11000 10999 10996 ] final  148.47 input  -57.11 | X-H torsion

> <Gold.Protein.ActiveResidues>
 VAL166  LYS551  ARG553  GLY616  TRP617  ASP618  TYR619  PRO620  LYS621  CYS622 
 ASP623  PHE694  ASN695  SER759  ASP760  ASP761  ALA762  ILE779  LEU786  VAL792 
 PHE793  MET794  SER795  GLU796  ALA797  LYS798  CYS799  TRP800  GLU811  SER814 

> <Gold.Protein.RotatedAtoms>
  151.2203  133.4506  159.2600 H   0  0  0  0  0  0  0  0  0  0  0  0  # atno 6907 bound_to 6896
  151.0891  134.9905  159.8404 H   0  0  0  0  0  0  0  0  0  0  0  0  # atno 6908 bound_to 6896
  152.5432  134.2138  159.8813 H   0  0  0  0  0  0  0  0  0  0  0  0  # atno 6909 bound_to 6896
  146.2442  140.0447  142.8379 H   0  0  0  0  0  0  0  0  0  0  0  0  # atno 7974 bound_to 7965
  155.9297  140.3415  155.6239 H   0  0  0  0  0  0  0  0  0  0  0  0  # atno 8008 bound_to 7997
  155.7173  140.0779  157.2364 H   0  0  0  0  0  0  0  0  0  0  0  0  # atno 8009 bound_to 7997
  154.4083  140.1612  156.2350 H   0  0  0  0  0  0  0  0  0  0  0  0  # atno 8010 bound_to 7997
  140.3585  143.2854  151.9643 H   0  0  0  0  0  0  0  0  0  0  0  0  # atno 10167 bound_to 10162
  156.2662  130.7238  151.1190 H   0  0  0  0  0  0  0  0  0  0  0  0  # atno 10718 bound_to 10713
  153.1680  135.4539  154.9864 H   0  0  0  0  0  0  0  0  0  0  0  0  # atno 10763 bound_to 10752
  154.7946  135.3233  154.7700 H   0  0  0  0  0  0  0  0  0  0  0  0  # atno 10764 bound_to 10752
  153.8180  135.6949  153.4886 H   0  0  0  0  0  0  0  0  0  0  0  0  # atno 10765 bound_to 10752
  140.0963  134.9011  157.1728 H   0  0  0  0  0  0  0  0  0  0  0  0  # atno 11005 bound_to 11000
  145.1038  140.9362  143.4697 LP  0  0  0  0  0  0  0  0  0  0  0  0  # atno 17320 bound_to 7965
  145.0646  139.3079  143.5863 LP  0  0  0  0  0  0  0  0  0  0  0  0  # atno 17321 bound_to 7965
  139.4817  144.6014  151.7599 LP  0  0  0  0  0  0  0  0  0  0  0  0  # atno 17342 bound_to 10162
  140.5150  144.0966  150.6006 LP  0  0  0  0  0  0  0  0  0  0  0  0  # atno 17343 bound_to 10162
  157.7268  131.0644  150.5894 LP  0  0  0  0  0  0  0  0  0  0  0  0  # atno 17370 bound_to 10713
  156.5986  130.4348  149.5906 LP  0  0  0  0  0  0  0  0  0  0  0  0  # atno 17371 bound_to 10713
  140.3282  134.2839  155.7233 LP  0  0  0  0  0  0  0  0  0  0  0  0  # atno 17394 bound_to 11000
  141.2093  133.7753  157.0006 LP  0  0  0  0  0  0  0  0  0  0  0  0  # atno 17395 bound_to 11000

$$$$
