AV-unprocessed.smi:2822|AV-procd|sdf|10862|dock5
  -GOLD-   2272015303D 1   1.00000     0.00000
 Structure written by MMmdl.
 41 43  0  0  0  0  0  0  0  0  3 V2000
  150.1386  138.3562  154.0084 Cl  0  0  0  0  0  0  0  0  0  0  0  0
  149.0176  139.6705  154.0846 C   0  0  0  0  0  0  0  0  0  0  0  0
  149.4560  140.9231  154.5617 C   0  0  0  0  0  0  0  0  0  0  0  0
  148.5941  141.9598  154.6294 N   0  3  0  0  0  0  0  0  0  0  0  0
  147.3015  141.8585  154.2539 C   0  0  0  0  0  0  0  0  0  0  0  0
  146.8041  140.6321  153.7681 C   0  0  0  0  0  0  0  0  0  0  0  0
  147.6690  139.5123  153.6793 C   0  0  0  0  0  0  0  0  0  0  0  0
  147.2356  138.2647  153.2037 N   0  0  0  0  0  0  0  0  0  0  0  0
  145.8250  138.0061  152.9559 C   0  0  0  0  0  0  0  0  0  0  0  0
  145.5860  136.5610  152.4949 C   0  0  2  0  0  0  0  0  0  0  0  0
  146.0269  136.3565  151.0281 C   0  0  0  0  0  0  0  0  0  0  0  0
  145.6855  134.9985  150.5392 N   0  3  1  0  0  0  0  0  0  0  0  0
  146.6129  133.9434  151.0311 C   0  0  0  0  0  0  0  0  0  0  0  0
  146.2575  132.5685  150.4471 C   0  0  0  0  0  0  0  0  0  0  0  0
  144.8052  132.2016  150.7705 C   0  0  0  0  0  0  0  0  0  0  0  0
  143.8635  133.2968  150.2519 C   0  0  0  0  0  0  0  0  0  0  0  0
  144.2451  134.6996  150.7708 C   0  0  1  0  0  0  0  0  0  0  0  0
  143.8676  134.9451  152.2468 C   0  0  0  0  0  0  0  0  0  0  0  0
  144.1916  136.2862  152.5966 O   0  0  0  0  0  0  0  0  0  0  0  0
  150.4653  141.1255  154.8893 H   0  0  0  0  0  0  0  0  0  0  0  0
  146.7076  142.7556  154.3512 H   0  0  0  0  0  0  0  0  0  0  0  0
  145.7683  140.5726  153.4693 H   0  0  0  0  0  0  0  0  0  0  0  0
  147.8625  137.4746  153.2695 H   0  0  0  0  0  0  0  0  0  0  0  0
  145.2456  138.2142  153.8563 H   0  0  0  0  0  0  0  0  0  0  0  0
  145.4804  138.6919  152.1812 H   0  0  0  0  0  0  0  0  0  0  0  0
  146.1416  135.8875  153.1494 H   0  0  0  0  0  0  0  0  0  0  0  0
  145.5218  137.0838  150.3909 H   0  0  0  0  0  0  0  0  0  0  0  0
  147.0965  136.5379  150.9144 H   0  0  0  0  0  0  0  0  0  0  0  0
  147.6342  134.2030  150.7497 H   0  0  0  0  0  0  0  0  0  0  0  0
  146.5932  133.8911  152.1196 H   0  0  0  0  0  0  0  0  0  0  0  0
  146.4047  132.5769  149.3663 H   0  0  0  0  0  0  0  0  0  0  0  0
  146.9311  131.8094  150.8459 H   0  0  0  0  0  0  0  0  0  0  0  0
  144.5506  131.2435  150.3165 H   0  0  0  0  0  0  0  0  0  0  0  0
  144.6823  132.0772  151.8468 H   0  0  0  0  0  0  0  0  0  0  0  0
  143.8986  133.3009  149.1614 H   0  0  0  0  0  0  0  0  0  0  0  0
  142.8322  133.0625  150.5181 H   0  0  0  0  0  0  0  0  0  0  0  0
  143.6766  135.4184  150.1784 H   0  0  0  0  0  0  0  0  0  0  0  0
  142.7965  134.8013  152.3895 H   0  0  0  0  0  0  0  0  0  0  0  0
  144.3704  134.2493  152.9193 H   0  0  0  0  0  0  0  0  0  0  0  0
  145.8119  135.0168  149.5372 H   0  0  0  0  0  0  0  0  0  0  0  0
  148.9342  142.8565  154.9783 H   0  0  0  0  0  0  0  0  0  0  0  0
  1  2  1  0  0  0  0
  2  7  1  0  0  0  0
  2  3  2  0  0  0  0
  3  4  1  0  0  0  0
  3 20  1  0  0  0  0
  4  5  2  0  0  0  0
  4 41  1  0  0  0  0
  5  6  1  0  0  0  0
  5 21  1  0  0  0  0
  6  7  2  0  0  0  0
  6 22  1  0  0  0  0
  7  8  1  0  0  0  0
  8  9  1  0  0  0  0
  8 23  1  0  0  0  0
  9 10  1  0  0  0  0
  9 24  1  0  0  0  0
  9 25  1  0  0  0  0
 10 19  1  0  0  0  0
 10 11  1  0  0  0  0
 10 26  1  0  0  0  0
 11 12  1  0  0  0  0
 11 27  1  0  0  0  0
 11 28  1  0  0  0  0
 12 17  1  0  0  0  0
 12 13  1  0  0  0  0
 12 40  1  0  0  0  0
 13 14  1  0  0  0  0
 13 29  1  0  0  0  0
 13 30  1  0  0  0  0
 14 15  1  0  0  0  0
 14 31  1  0  0  0  0
 14 32  1  0  0  0  0
 15 16  1  0  0  0  0
 15 33  1  0  0  0  0
 15 34  1  0  0  0  0
 16 17  1  0  0  0  0
 16 35  1  0  0  0  0
 16 36  1  0  0  0  0
 17 18  1  0  0  0  0
 17 37  1  0  0  0  0
 18 19  1  0  0  0  0
 18 38  1  0  0  0  0
 18 39  1  0  0  0  0
M  CHG  1   4   1
M  CHG  1  12   1
M  END
> <s_m_source_file>
AV-unprocessed.smi

> <i_m_source_file_index>
2822

> <i_lp_mmshare_version>
43012

> <i_f3d_flags>
0

> <s_epik_input>
Q2xjMVtjSF1uW2NIXVtjSF1jMVtOSF1bQ0gyXVtDQEhdKFtDSDJdMilPW0NIMl1bQ0BASF0oTjIzKVtDSDJdW0NIMl1bQ0gyXVtDSDJdMw==

> <s_epik_cmdline>
J2VwaWtfcHl0aG9uJywgJy1waCcsICc3LjAnLCAnLXRuJywgJzgnLCAnLW1hJywgJzIwMCcsICctbWV0YWxfYmluZGluZycsICctaW1hZScsICc8aW5maWxlLm1hZT4nLCAnLW9tYWUnLCAnPG91dGZpbGUubWFlPic=

> <r_lp_tautomer_probability>
1

> <r_epik_Ionization_Penalty>
0.254999

> <r_epik_Ionization_Penalty_Charging>
0.254956

> <r_epik_Ionization_Penalty_Neutral>
4.33524e-05

> <r_epik_State_Penalty>
0.230978

> <r_epik_Charging_Adjusted_Penalty>
0.485934

> <i_epik_Tot_Q>
2

> <i_epik_Tot_abs_Q>
2

> <r_epik_Metal_State_Penalty>
3.47007

> <b_epik_Metal_Only>
0

> <s_lp_Force_Field>
OPLS_2005

> <r_lp_Energy>
40.6949

> <b_lp_Chiralities_Consistent>
1

> <s_lp_Variant>
AV-unprocessed.smi:2822-3

> <Gold.Version>
5.8.1

> <Gold.Id.Protein>
6NUR|6NUR_protein|mol2

> <Gold.PLP.Fitness>
43.8776

> <Gold.PLP.PLP>
-33.9999

> <Gold.PLP.part.hbond>
-3.0000

> <Gold.PLP.part.metal>
0.0000

> <Gold.PLP.part.buried>
0.8358

> <Gold.PLP.part.nonpolar>
-31.7352

> <Gold.PLP.part.repulsive>
0.5030

> <Gold.PLP.ligand.clash>
0.0000

> <Gold.PLP.ligand.torsion>
0.1241

> <Gold.PLP.Chemscore.Hbond>
3.3752

> <Gold.PLP.Chemscore.CHOScore>
0.0000

> <Gold.PLP.Chemscore.Metal>
0.0000

> <Gold.Chemscore.Hbonds>
donor molecule, donor type, donor heavy atom, donor atom, acceptor molecule, acceptor atom, score
      L1  H     4    41       P1  8028  2.00
      L1  H     8    23       P1  7948  0.47
      L1  H    12    40       P1  7921  1.00

> <Gold.PLP.Chemscore.Internal.Correction>
0.0004

> <Gold.Rescore>
     Score         DG    S(hbond)    S(metal)    S(lipo)     H(rot)  DE(clash)    DE(int)     intcor
     20.32     -21.08       2.08        0.00     100.20       1.20       0.65       0.11       ----

> <Gold.Chemscore.Fitness>
20.3158

> <Gold.Chemscore.DG>
-21.0846

> <Gold.Chemscore.ZeroCoef>
-5.4800

> <Gold.Chemscore.Hbond>
2.0788

> <Gold.Chemscore.Metal>
0.0000

> <Gold.Chemscore.Lipo>
100.2023

> <Gold.Chemscore.Internal_Hbond>
0.0000

> <Gold.Chemscore.DEClash>
0.6541

> <Gold.Chemscore.DEInternal>
0.1147

> <Gold.Chemscore.Rot>
1.1962

> <Gold.Chemscore.Internal.Correction>
   9.000000E+99

> <Gold.Chemscore.Hbonds>
donor molecule, donor type, donor heavy atom, donor atom, acceptor molecule, acceptor atom, score
      L1  H     4    41       P1  8028  0.97
      L1  H     8    23       P1  7948  0.47
      L1  H    12    40       P1  7921  0.94

> <Gold.Chemscore.Hbond.Weighted>
-6.9433

> <Gold.Chemscore.Metal.Weighted>
-0.0000

> <Gold.Chemscore.Lipo.Weighted>
-11.7237

> <Gold.Chemscore.Internal_Hbond.Weighted>
0.0000

> <Gold.Chemscore.DEClash.Weighted>
0.6541

> <Gold.Chemscore.DEInternal.Weighted>
0.1147

> <Gold.Chemscore.Rot.Weighted>
3.0623

> <Gold.Chemscore.Internal.Correction.Weighted>
   9.000000E+99

> <Gold.Protein.RotatedTorsions>
[ 6907 6896 6895 6894 ] final -124.31 input  -60.11 | X-H torsion
[ 7974 7965 7964 7962 ] final  -38.52 input  175.53 | X-H torsion
[ 8008 7997 7996 7995 ] final   72.56 input   59.86 | X-H torsion
[ 10167 10162 10161 10158 ] final   80.75 input  -65.29 | X-H torsion
[ 10718 10713 10712 10709 ] final   59.96 input   66.30 | X-H torsion
[ 10763 10752 10751 10750 ] final  -88.34 input  -60.55 | X-H torsion
[ 11005 11000 10999 10996 ] final  -66.97 input  -57.11 | X-H torsion

> <Gold.Protein.ActiveResidues>
 VAL166  LYS551  ARG553  GLY616  TRP617  ASP618  TYR619  PRO620  LYS621  CYS622 
 ASP623  PHE694  ASN695  SER759  ASP760  ASP761  ALA762  ILE779  LEU786  VAL792 
 PHE793  MET794  SER795  GLU796  ALA797  LYS798  CYS799  TRP800  GLU811  SER814 

> <Gold.Protein.RotatedAtoms>
  150.8755  133.7444  159.2947 H   0  0  0  0  0  0  0  0  0  0  0  0  # atno 6907 bound_to 6896
  151.5043  135.1061  159.9846 H   0  0  0  0  0  0  0  0  0  0  0  0  # atno 6908 bound_to 6896
  152.4725  133.8016  159.7011 H   0  0  0  0  0  0  0  0  0  0  0  0  # atno 6909 bound_to 6896
  146.0479  140.6522  142.9056 H   0  0  0  0  0  0  0  0  0  0  0  0  # atno 7974 bound_to 7965
  155.7706  140.3484  155.5245 H   0  0  0  0  0  0  0  0  0  0  0  0  # atno 8008 bound_to 7997
  155.8825  140.1004  157.1496 H   0  0  0  0  0  0  0  0  0  0  0  0  # atno 8009 bound_to 7997
  154.4026  140.1319  156.4202 H   0  0  0  0  0  0  0  0  0  0  0  0  # atno 8010 bound_to 7997
  139.9465  144.6055  150.8202 H   0  0  0  0  0  0  0  0  0  0  0  0  # atno 10167 bound_to 10162
  157.5716  130.8912  149.9277 H   0  0  0  0  0  0  0  0  0  0  0  0  # atno 10718 bound_to 10713
  154.6435  135.5380  153.7817 H   0  0  0  0  0  0  0  0  0  0  0  0  # atno 10763 bound_to 10752
  153.0347  135.6465  154.1124 H   0  0  0  0  0  0  0  0  0  0  0  0  # atno 10764 bound_to 10752
  154.1046  135.2931  155.3224 H   0  0  0  0  0  0  0  0  0  0  0  0  # atno 10765 bound_to 10752
  141.1496  133.6710  156.6221 H   0  0  0  0  0  0  0  0  0  0  0  0  # atno 11005 bound_to 11000
  144.7107  140.4027  143.7083 LP  0  0  0  0  0  0  0  0  0  0  0  0  # atno 17320 bound_to 7965
  145.6775  139.1611  143.2719 LP  0  0  0  0  0  0  0  0  0  0  0  0  # atno 17321 bound_to 7965
  140.7596  143.3132  151.2796 LP  0  0  0  0  0  0  0  0  0  0  0  0  # atno 17342 bound_to 10162
  139.6663  144.0100  152.2725 LP  0  0  0  0  0  0  0  0  0  0  0  0  # atno 17343 bound_to 10162
  156.0761  130.3678  150.0674 LP  0  0  0  0  0  0  0  0  0  0  0  0  # atno 17370 bound_to 10713
  156.8826  130.9562  151.3597 LP  0  0  0  0  0  0  0  0  0  0  0  0  # atno 17371 bound_to 10713
  140.3532  134.7750  157.4482 LP  0  0  0  0  0  0  0  0  0  0  0  0  # atno 17394 bound_to 11000
  140.0844  134.5687  155.8507 LP  0  0  0  0  0  0  0  0  0  0  0  0  # atno 17395 bound_to 11000

$$$$
