AV-unprocessed.smi:2774|AV-procd|sdf|10685|dock2
  -GOLD-   2272015133D 1   1.00000     0.00000
 Structure written by MMmdl.
 34 35  0  0  0  0  0  0  0  0  1 V2000
  147.9880  140.9383  156.5767 O   0  0  0  0  0  0  0  0  0  0  0  0
  149.2296  141.4812  156.1785 C   0  0  1  0  0  0  0  0  0  0  0  0
  149.8941  142.1094  157.4170 C   0  0  0  0  0  0  0  0  0  0  0  0
  150.9203  143.0839  157.0403 N   0  0  0  0  0  0  0  0  0  0  0  0
  151.7039  143.6424  158.1460 C   0  0  2  0  0  0  0  0  0  0  0  0
  152.0443  142.5117  159.1366 C   0  0  0  0  0  0  0  0  0  0  0  0
  152.9611  142.9720  160.2804 C   0  0  0  0  0  0  0  0  0  0  0  0
  152.3130  144.0652  161.1385 C   0  0  0  0  0  0  0  0  0  0  0  0
  151.9820  145.5504  160.1555 S   0  0  0  0  0  0  0  0  0  0  0  0
  150.9657  144.8019  158.8516 C   0  0  0  0  0  0  0  0  0  0  0  0
  150.1134  140.4384  155.5088 C   0  0  0  0  0  0  0  0  0  0  0  0
  149.6328  139.6804  154.4202 C   0  0  0  0  0  0  0  0  0  0  0  0
  150.4897  138.7298  153.8304 C   0  0  0  0  0  0  0  0  0  0  0  0
  151.7518  138.5044  154.2543 N   0  0  0  0  0  0  0  0  0  0  0  0
  152.2072  139.2336  155.2956 C   0  0  0  0  0  0  0  0  0  0  0  0
  151.4324  140.2080  155.9556 C   0  0  0  0  0  0  0  0  0  0  0  0
  147.5071  141.6048  157.0431 H   0  0  0  0  0  0  0  0  0  0  0  0
  149.0091  142.2691  155.4569 H   0  0  0  0  0  0  0  0  0  0  0  0
  149.1312  142.6017  158.0215 H   0  0  0  0  0  0  0  0  0  0  0  0
  150.3194  141.3185  158.0338 H   0  0  0  0  0  0  0  0  0  0  0  0
  150.4912  143.8396  156.5159 H   0  0  0  0  0  0  0  0  0  0  0  0
  152.6428  144.0274  157.7455 H   0  0  0  0  0  0  0  0  0  0  0  0
  151.1265  142.0922  159.5515 H   0  0  0  0  0  0  0  0  0  0  0  0
  152.5362  141.6971  158.6034 H   0  0  0  0  0  0  0  0  0  0  0  0
  153.2041  142.1173  160.9120 H   0  0  0  0  0  0  0  0  0  0  0  0
  153.9075  143.3320  159.8752 H   0  0  0  0  0  0  0  0  0  0  0  0
  151.3776  143.7073  161.5702 H   0  0  0  0  0  0  0  0  0  0  0  0
  152.9675  144.3328  161.9681 H   0  0  0  0  0  0  0  0  0  0  0  0
  150.7146  145.5995  158.1539 H   0  0  0  0  0  0  0  0  0  0  0  0
  150.0294  144.4512  159.2875 H   0  0  0  0  0  0  0  0  0  0  0  0
  148.6320  139.8233  154.0400 H   0  0  0  0  0  0  0  0  0  0  0  0
  150.1520  138.1348  152.9949 H   0  0  0  0  0  0  0  0  0  0  0  0
  153.2201  139.0349  155.6129 H   0  0  0  0  0  0  0  0  0  0  0  0
  151.8444  140.7663  156.7834 H   0  0  0  0  0  0  0  0  0  0  0  0
  1  2  1  0  0  0  0
  1 17  1  0  0  0  0
  2  3  1  0  0  0  0
  2 11  1  0  0  0  0
  2 18  1  0  0  0  0
  3  4  1  0  0  0  0
  3 19  1  0  0  0  0
  3 20  1  0  0  0  0
  4  5  1  0  0  0  0
  4 21  1  0  0  0  0
  5 10  1  0  0  0  0
  5  6  1  0  0  0  0
  5 22  1  0  0  0  0
  6  7  1  0  0  0  0
  6 23  1  0  0  0  0
  6 24  1  0  0  0  0
  7  8  1  0  0  0  0
  7 25  1  0  0  0  0
  7 26  1  0  0  0  0
  8  9  1  0  0  0  0
  8 27  1  0  0  0  0
  8 28  1  0  0  0  0
  9 10  1  0  0  0  0
 10 29  1  0  0  0  0
 10 30  1  0  0  0  0
 11 16  1  0  0  0  0
 11 12  2  0  0  0  0
 12 13  1  0  0  0  0
 12 31  1  0  0  0  0
 13 14  2  0  0  0  0
 13 32  1  0  0  0  0
 14 15  1  0  0  0  0
 15 16  2  0  0  0  0
 15 33  1  0  0  0  0
 16 34  1  0  0  0  0
M  END
> <s_m_source_file>
AV-unprocessed.smi

> <i_m_source_file_index>
2774

> <i_lp_mmshare_version>
43012

> <i_f3d_flags>
0

> <s_epik_input>
W2NIXTFbY0hdbltjSF1bY0hdYzFbQ0BIXShbT0hdKVtDSDJdW05IXVtDQEBIXTJbQ0gyXVtDSDJdW0NIMl1TW0NIMl0y

> <s_epik_cmdline>
J2VwaWtfcHl0aG9uJywgJy1waCcsICc3LjAnLCAnLXRuJywgJzgnLCAnLW1hJywgJzIwMCcsICctbWV0YWxfYmluZGluZycsICctaW1hZScsICc8aW5maWxlLm1hZT4nLCAnLW9tYWUnLCAnPG91dGZpbGUubWFlPic=

> <r_epik_Ionization_Penalty>
2.08116

> <r_epik_Ionization_Penalty_Charging>
0

> <r_epik_Ionization_Penalty_Neutral>
2.08116

> <r_epik_State_Penalty>
2.1944

> <r_epik_Charging_Adjusted_Penalty>
2.1944

> <i_epik_Tot_Q>
0

> <i_epik_Tot_abs_Q>
0

> <r_epik_Metal_State_Penalty>
2.1769

> <b_epik_Metal_Only>
0

> <s_lp_Force_Field>
OPLS_2005

> <r_lp_Energy>
10.4712

> <b_lp_Chiralities_Consistent>
1

> <s_lp_Variant>
AV-unprocessed.smi:2774-6

> <Gold.Version>
5.8.1

> <Gold.Id.Protein>
6NUR|6NUR_protein|mol2

> <Gold.PLP.Fitness>
44.9039

> <Gold.PLP.PLP>
-39.2627

> <Gold.PLP.part.hbond>
-1.0000

> <Gold.PLP.part.metal>
0.0000

> <Gold.PLP.part.buried>
-4.4231

> <Gold.PLP.part.nonpolar>
-33.9130

> <Gold.PLP.part.repulsive>
0.1345

> <Gold.PLP.ligand.clash>
0.0000

> <Gold.PLP.ligand.torsion>
0.4325

> <Gold.PLP.Chemscore.Hbond>
1.0000

> <Gold.PLP.Chemscore.CHOScore>
1.1554

> <Gold.PLP.Chemscore.Metal>
0.0000

> <Gold.Chemscore.Hbonds>
donor molecule, donor type, donor heavy atom, donor atom, acceptor molecule, acceptor atom, score
      L1  H     4    21       P1  8028  1.00
      L1  C    13    32       P1  7948  0.98
      L1  C    13    32       P1  7949  0.06
      L1  C    13    32       P1  7957  0.28

> <Gold.PLP.Chemscore.Internal.Correction>
0.0400

> <Gold.Rescore>
     Score         DG    S(hbond)    S(metal)    S(lipo)     H(rot)  DE(clash)    DE(int)     intcor
     17.03     -17.55       1.00        0.00     116.13       1.89       0.01       0.51       ----

> <Gold.Chemscore.Fitness>
17.0337

> <Gold.Chemscore.DG>
-17.5513

> <Gold.Chemscore.ZeroCoef>
-5.4800

> <Gold.Chemscore.Hbond>
0.9968

> <Gold.Chemscore.Metal>
0.0000

> <Gold.Chemscore.Lipo>
116.1343

> <Gold.Chemscore.Internal_Hbond>
0.0000

> <Gold.Chemscore.DEClash>
0.0111

> <Gold.Chemscore.DEInternal>
0.5065

> <Gold.Chemscore.Rot>
1.8928

> <Gold.Chemscore.Internal.Correction>
   9.000000E+99

> <Gold.Chemscore.Hbonds>
donor molecule, donor type, donor heavy atom, donor atom, acceptor molecule, acceptor atom, score
      L1  H     4    21       P1  8028  0.93

> <Gold.Chemscore.Hbond.Weighted>
-3.3292

> <Gold.Chemscore.Metal.Weighted>
-0.0000

> <Gold.Chemscore.Lipo.Weighted>
-13.5877

> <Gold.Chemscore.Internal_Hbond.Weighted>
0.0000

> <Gold.Chemscore.DEClash.Weighted>
0.0111

> <Gold.Chemscore.DEInternal.Weighted>
0.5065

> <Gold.Chemscore.Rot.Weighted>
4.8455

> <Gold.Chemscore.Internal.Correction.Weighted>
   9.000000E+99

> <Gold.Protein.RotatedTorsions>
[ 6907 6896 6895 6894 ] final  -30.08 input  -60.11 | X-H torsion
[ 7974 7965 7964 7962 ] final   24.72 input  175.53 | X-H torsion
[ 8008 7997 7996 7995 ] final -174.17 input   59.86 | X-H torsion
[ 10167 10162 10161 10158 ] final -176.01 input  -65.29 | X-H torsion
[ 10718 10713 10712 10709 ] final    0.92 input   66.30 | X-H torsion
[ 10763 10752 10751 10750 ] final  -40.50 input  -60.55 | X-H torsion
[ 11005 11000 10999 10996 ] final    6.43 input  -57.11 | X-H torsion

> <Gold.Protein.ActiveResidues>
 VAL166  LYS551  ARG553  GLY616  TRP617  ASP618  TYR619  PRO620  LYS621  CYS622 
 ASP623  PHE694  ASN695  SER759  ASP760  ASP761  ALA762  ILE779  LEU786  VAL792 
 PHE793  MET794  SER795  GLU796  ALA797  LYS798  CYS799  TRP800  GLU811  SER814 

> <Gold.Protein.RotatedAtoms>
  151.1104  135.0023  159.8490 H   0  0  0  0  0  0  0  0  0  0  0  0  # atno 6907 bound_to 6896
  152.5443  134.1843  159.8658 H   0  0  0  0  0  0  0  0  0  0  0  0  # atno 6908 bound_to 6896
  151.1893  133.4633  159.2628 H   0  0  0  0  0  0  0  0  0  0  0  0  # atno 6909 bound_to 6896
  146.1924  139.7565  142.8822 H   0  0  0  0  0  0  0  0  0  0  0  0  # atno 7974 bound_to 7965
  155.9668  140.1155  157.0848 H   0  0  0  0  0  0  0  0  0  0  0  0  # atno 8008 bound_to 7997
  154.4146  140.1171  156.5320 H   0  0  0  0  0  0  0  0  0  0  0  0  # atno 8009 bound_to 7997
  155.6649  140.3473  155.4799 H   0  0  0  0  0  0  0  0  0  0  0  0  # atno 8010 bound_to 7997
  139.5551  144.2009  152.1145 H   0  0  0  0  0  0  0  0  0  0  0  0  # atno 10167 bound_to 10162
  156.8406  130.5519  149.5678 H   0  0  0  0  0  0  0  0  0  0  0  0  # atno 10718 bound_to 10713
  153.9469  135.6755  153.4744 H   0  0  0  0  0  0  0  0  0  0  0  0  # atno 10763 bound_to 10752
  153.0903  135.4878  154.8674 H   0  0  0  0  0  0  0  0  0  0  0  0  # atno 10764 bound_to 10752
  154.7346  135.3146  154.8792 H   0  0  0  0  0  0  0  0  0  0  0  0  # atno 10765 bound_to 10752
  140.5596  134.0205  155.7967 H   0  0  0  0  0  0  0  0  0  0  0  0  # atno 11005 bound_to 11000
  145.3752  141.0349  143.3209 LP  0  0  0  0  0  0  0  0  0  0  0  0  # atno 17320 bound_to 7965
  144.8512  139.5319  143.6855 LP  0  0  0  0  0  0  0  0  0  0  0  0  # atno 17321 bound_to 7965
  140.1512  144.5113  150.6686 LP  0  0  0  0  0  0  0  0  0  0  0  0  # atno 17342 bound_to 10162
  140.6822  143.2332  151.5353 LP  0  0  0  0  0  0  0  0  0  0  0  0  # atno 17343 bound_to 10162
  156.0883  130.5875  150.9687 LP  0  0  0  0  0  0  0  0  0  0  0  0  # atno 17370 bound_to 10713
  157.6358  131.0916  150.8352 LP  0  0  0  0  0  0  0  0  0  0  0  0  # atno 17371 bound_to 10713
  141.1122  133.9597  157.2888 LP  0  0  0  0  0  0  0  0  0  0  0  0  # atno 17394 bound_to 11000
  139.9414  135.0190  156.8720 LP  0  0  0  0  0  0  0  0  0  0  0  0  # atno 17395 bound_to 11000

$$$$
