AV-unprocessed.smi:1332|AV-procd|sdf|5489|dock1
  -GOLD-   22720 5 63D 1   1.00000     0.00000
 Structure written by MMmdl.
 40 41  0  0  0  0  0  0  0  0  1 V2000
  152.0272  145.3326  158.7954 C   0  0  0  0  0  0  0  0  0  0  0  0
  152.2402  144.0140  159.5464 C   0  0  0  0  0  0  0  0  0  0  0  0
  151.9941  142.7871  158.6580 C   0  0  0  0  0  0  0  0  0  0  0  0
  150.6524  142.8568  157.9056 C   0  0  0  0  0  0  0  0  0  0  0  0
  150.3826  141.6348  157.0061 C   0  0  0  0  0  0  0  0  0  0  0  0
  149.6516  142.0118  155.8026 N   0  0  0  0  0  0  0  0  0  0  0  0
  149.4373  141.2090  154.7480 C   0  0  0  0  0  0  0  0  0  0  0  0
  149.9947  140.1218  154.5991 O   0  0  0  0  0  0  0  0  0  0  0  0
  148.4043  141.6878  153.7231 C   0  0  0  0  0  0  0  0  0  0  0  0
  147.0773  141.9372  154.3884 C   0  0  0  0  0  0  0  0  0  0  0  0
  146.4772  141.1528  155.3429 C   0  0  0  0  0  0  0  0  0  0  0  0
  144.9156  141.7697  155.8110 S   0  0  0  0  0  0  0  0  0  0  0  0
  145.1362  143.0973  154.6745 C   0  0  0  0  0  0  0  0  0  0  0  0
  144.1597  144.1124  154.4517 N   0  0  0  0  0  0  0  0  0  0  0  0
  144.3163  145.0895  153.3816 C   0  0  0  0  0  0  0  0  0  0  0  0
  143.0823  145.9771  153.5136 C   0  0  0  0  0  0  0  0  0  0  0  0
  142.4046  145.3902  154.6454 N   0  0  0  0  0  0  0  0  0  0  0  0
  143.0355  144.3345  155.1639 C   0  0  0  0  0  0  0  0  0  0  0  0
  142.6302  143.6987  156.1356 O   0  0  0  0  0  0  0  0  0  0  0  0
  146.3104  143.0543  154.0358 N   0  0  0  0  0  0  0  0  0  0  0  0
  152.1779  146.1860  159.4569 H   0  0  0  0  0  0  0  0  0  0  0  0
  151.0160  145.3975  158.3943 H   0  0  0  0  0  0  0  0  0  0  0  0
  152.7239  145.4280  157.9624 H   0  0  0  0  0  0  0  0  0  0  0  0
  153.2550  143.9838  159.9444 H   0  0  0  0  0  0  0  0  0  0  0  0
  151.5706  143.9809  160.4064 H   0  0  0  0  0  0  0  0  0  0  0  0
  152.8159  142.7033  157.9469 H   0  0  0  0  0  0  0  0  0  0  0  0
  152.0220  141.8823  159.2661 H   0  0  0  0  0  0  0  0  0  0  0  0
  149.8402  142.9526  158.6269 H   0  0  0  0  0  0  0  0  0  0  0  0
  150.6246  143.7634  157.2995 H   0  0  0  0  0  0  0  0  0  0  0  0
  151.3259  141.1785  156.7054 H   0  0  0  0  0  0  0  0  0  0  0  0
  149.8318  140.8716  157.5580 H   0  0  0  0  0  0  0  0  0  0  0  0
  149.1611  142.8940  155.8293 H   0  0  0  0  0  0  0  0  0  0  0  0
  148.7773  142.5947  153.2458 H   0  0  0  0  0  0  0  0  0  0  0  0
  148.2998  140.9410  152.9351 H   0  0  0  0  0  0  0  0  0  0  0  0
  146.8525  140.2434  155.7885 H   0  0  0  0  0  0  0  0  0  0  0  0
  145.2335  145.6650  153.5133 H   0  0  0  0  0  0  0  0  0  0  0  0
  144.3511  144.5941  152.4105 H   0  0  0  0  0  0  0  0  0  0  0  0
  143.3441  147.0157  153.7181 H   0  0  0  0  0  0  0  0  0  0  0  0
  142.4506  145.9363  152.6256 H   0  0  0  0  0  0  0  0  0  0  0  0
  141.5357  145.7571  155.0058 H   0  0  0  0  0  0  0  0  0  0  0  0
  1  2  1  0  0  0  0
  1 21  1  0  0  0  0
  1 22  1  0  0  0  0
  1 23  1  0  0  0  0
  2  3  1  0  0  0  0
  2 24  1  0  0  0  0
  2 25  1  0  0  0  0
  3  4  1  0  0  0  0
  3 26  1  0  0  0  0
  3 27  1  0  0  0  0
  4  5  1  0  0  0  0
  4 28  1  0  0  0  0
  4 29  1  0  0  0  0
  5  6  1  0  0  0  0
  5 30  1  0  0  0  0
  5 31  1  0  0  0  0
  6  7  1  0  0  0  0
  6 32  1  0  0  0  0
  7  8  2  0  0  0  0
  7  9  1  0  0  0  0
  9 10  1  0  0  0  0
  9 33  1  0  0  0  0
  9 34  1  0  0  0  0
 10 20  1  0  0  0  0
 10 11  2  0  0  0  0
 11 12  1  0  0  0  0
 11 35  1  0  0  0  0
 12 13  1  0  0  0  0
 13 14  1  0  0  0  0
 13 20  2  0  0  0  0
 14 18  1  0  0  0  0
 14 15  1  0  0  0  0
 15 16  1  0  0  0  0
 15 36  1  0  0  0  0
 15 37  1  0  0  0  0
 16 17  1  0  0  0  0
 16 38  1  0  0  0  0
 16 39  1  0  0  0  0
 17 18  1  0  0  0  0
 17 40  1  0  0  0  0
 18 19  2  0  0  0  0
M  END
> <s_m_source_file>
AV-unprocessed.smi

> <i_m_source_file_index>
1332

> <i_lp_mmshare_version>
43012

> <i_f3d_flags>
0

> <s_epik_input>
W0NIM11bQ0gyXVtDSDJdW0NIMl1bQ0gyXVtOSF1DKD1PKVtDSDJdYzFbY0hdc2MobjEpTjJbQ0gyXVtDSDJdW05IXUMyPU8=

> <s_epik_cmdline>
J2VwaWtfcHl0aG9uJywgJy1waCcsICc3LjAnLCAnLXRuJywgJzgnLCAnLW1hJywgJzIwMCcsICctbWV0YWxfYmluZGluZycsICctaW1hZScsICc8aW5maWxlLm1hZT4nLCAnLW9tYWUnLCAnPG91dGZpbGUubWFlPic=

> <r_lp_tautomer_probability>
1

> <r_epik_Ionization_Penalty>
0.00012022

> <r_epik_Ionization_Penalty_Charging>
0

> <r_epik_Ionization_Penalty_Neutral>
0.00012022

> <r_epik_State_Penalty>
-0

> <r_epik_Charging_Adjusted_Penalty>
0

> <i_epik_Tot_Q>
0

> <i_epik_Tot_abs_Q>
0

> <r_epik_Metal_State_Penalty>
-0

> <b_epik_Metal_Only>
0

> <s_lp_Force_Field>
OPLS_2005

> <r_lp_Energy>
29.098

> <b_lp_Chiralities_Consistent>
1

> <s_lp_Variant>
AV-unprocessed.smi:1332-1

> <Gold.Version>
5.8.1

> <Gold.Id.Protein>
6NUR|6NUR_protein|mol2

> <Gold.PLP.Fitness>
43.6920

> <Gold.PLP.PLP>
-38.6968

> <Gold.PLP.part.hbond>
-2.0000

> <Gold.PLP.part.metal>
0.0000

> <Gold.PLP.part.buried>
-3.4334

> <Gold.PLP.part.nonpolar>
-33.3946

> <Gold.PLP.part.repulsive>
0.4934

> <Gold.PLP.ligand.clash>
0.0000

> <Gold.PLP.ligand.torsion>
0.5939

> <Gold.PLP.Chemscore.Hbond>
2.0000

> <Gold.PLP.Chemscore.CHOScore>
0.0000

> <Gold.PLP.Chemscore.Metal>
0.0000

> <Gold.Chemscore.Hbonds>
donor molecule, donor type, donor heavy atom, donor atom, acceptor molecule, acceptor atom, score
      L1  H     6    32       P1  8028  1.00
      P1  H  7989  7998       L1     8  0.61

> <Gold.PLP.Chemscore.Internal.Correction>
0.1830

> <Gold.Rescore>
     Score         DG    S(hbond)    S(metal)    S(lipo)     H(rot)  DE(clash)    DE(int)     intcor
     12.50     -15.88       1.65        0.00      88.22       2.13       1.63       1.75       ----

> <Gold.Chemscore.Fitness>
12.5023

> <Gold.Chemscore.DG>
-15.8842

> <Gold.Chemscore.ZeroCoef>
-5.4800

> <Gold.Chemscore.Hbond>
1.6540

> <Gold.Chemscore.Metal>
0.0000

> <Gold.Chemscore.Lipo>
88.2163

> <Gold.Chemscore.Internal_Hbond>
0.0000

> <Gold.Chemscore.DEClash>
1.6323

> <Gold.Chemscore.DEInternal>
1.7496

> <Gold.Chemscore.Rot>
2.1256

> <Gold.Chemscore.Internal.Correction>
   9.000000E+99

> <Gold.Chemscore.Hbonds>
donor molecule, donor type, donor heavy atom, donor atom, acceptor molecule, acceptor atom, score
      L1  H     6    32       P1  8028  0.99
      P1  H  7989  7998       L1     8  0.07

> <Gold.Chemscore.Hbond.Weighted>
-5.5244

> <Gold.Chemscore.Metal.Weighted>
-0.0000

> <Gold.Chemscore.Lipo.Weighted>
-10.3213

> <Gold.Chemscore.Internal_Hbond.Weighted>
0.0000

> <Gold.Chemscore.DEClash.Weighted>
1.6323

> <Gold.Chemscore.DEInternal.Weighted>
1.7496

> <Gold.Chemscore.Rot.Weighted>
5.4415

> <Gold.Chemscore.Internal.Correction.Weighted>
   9.000000E+99

> <Gold.Protein.RotatedTorsions>
[ 6907 6896 6895 6894 ] final  -13.12 input  -60.11 | X-H torsion
[ 7974 7965 7964 7962 ] final -161.36 input  175.53 | X-H torsion
[ 8008 7997 7996 7995 ] final -147.86 input   59.86 | X-H torsion
[ 10167 10162 10161 10158 ] final   63.51 input  -65.29 | X-H torsion
[ 10718 10713 10712 10709 ] final   61.85 input   66.30 | X-H torsion
[ 10763 10752 10751 10750 ] final   70.66 input  -60.55 | X-H torsion
[ 11005 11000 10999 10996 ] final  156.58 input  -57.11 | X-H torsion

> <Gold.Protein.ActiveResidues>
 VAL166  LYS551  ARG553  GLY616  TRP617  ASP618  TYR619  PRO620  LYS621  CYS622 
 ASP623  PHE694  ASN695  SER759  ASP760  ASP761  ALA762  ILE779  LEU786  VAL792 
 PHE793  MET794  SER795  GLU796  ALA797  LYS798  CYS799  TRP800  GLU811  SER814 

> <Gold.Protein.RotatedAtoms>
  151.3598  135.0902  159.9430 H   0  0  0  0  0  0  0  0  0  0  0  0  # atno 6907 bound_to 6896
  152.5165  133.9269  159.7572 H   0  0  0  0  0  0  0  0  0  0  0  0  # atno 6908 bound_to 6896
  150.9661  133.6339  159.2775 H   0  0  0  0  0  0  0  0  0  0  0  0  # atno 6909 bound_to 6896
  144.7394  140.3408  143.6135 H   0  0  0  0  0  0  0  0  0  0  0  0  # atno 7974 bound_to 7965
  155.5823  140.0644  157.2780 H   0  0  0  0  0  0  0  0  0  0  0  0  # atno 8008 bound_to 7997
  154.4329  140.1850  156.1036 H   0  0  0  0  0  0  0  0  0  0  0  0  # atno 8009 bound_to 7997
  156.0295  140.3308  155.7128 H   0  0  0  0  0  0  0  0  0  0  0  0  # atno 8010 bound_to 7997
  140.1323  144.4632  150.6858 H   0  0  0  0  0  0  0  0  0  0  0  0  # atno 10167 bound_to 10162
  157.5858  130.9018  149.9513 H   0  0  0  0  0  0  0  0  0  0  0  0  # atno 10718 bound_to 10713
  153.0354  135.5165  154.7475 H   0  0  0  0  0  0  0  0  0  0  0  0  # atno 10763 bound_to 10752
  154.6455  135.2918  155.0053 H   0  0  0  0  0  0  0  0  0  0  0  0  # atno 10764 bound_to 10752
  154.0956  135.6644  153.4912 H   0  0  0  0  0  0  0  0  0  0  0  0  # atno 10765 bound_to 10752
  140.1688  134.8558  157.2665 H   0  0  0  0  0  0  0  0  0  0  0  0  # atno 11005 bound_to 11000
  145.7376  139.1754  143.2394 LP  0  0  0  0  0  0  0  0  0  0  0  0  # atno 17320 bound_to 7965
  146.1158  140.7371  142.9481 LP  0  0  0  0  0  0  0  0  0  0  0  0  # atno 17321 bound_to 7965
  140.6810  143.2327  151.5385 LP  0  0  0  0  0  0  0  0  0  0  0  0  # atno 17342 bound_to 10162
  139.5513  144.2387  152.1536 LP  0  0  0  0  0  0  0  0  0  0  0  0  # atno 17343 bound_to 10162
  156.0907  130.3663  150.0400 LP  0  0  0  0  0  0  0  0  0  0  0  0  # atno 17370 bound_to 10713
  156.8532  130.9466  151.3624 LP  0  0  0  0  0  0  0  0  0  0  0  0  # atno 17371 bound_to 10713
  140.2402  134.3805  155.7484 LP  0  0  0  0  0  0  0  0  0  0  0  0  # atno 17394 bound_to 11000
  141.2216  133.7261  156.8777 LP  0  0  0  0  0  0  0  0  0  0  0  0  # atno 17395 bound_to 11000

$$$$
