AV-unprocessed.smi:2021|AV-procd|sdf|8178|dock10
  -GOLD-   2272010433D 1   1.00000     0.00000
 Structure written by MMmdl.
 42 43  0  0  0  0  0  0  0  0  2 V2000
  144.7457  132.1747  149.8902 C   0  0  0  0  0  0  0  0  0  0  0  0
  145.9113  131.6069  150.7174 C   0  0  0  0  0  0  0  0  0  0  0  0
  145.6046  130.1679  151.1593 C   0  0  0  0  0  0  0  0  0  0  0  0
  146.2313  132.4913  151.9414 C   0  0  0  0  0  0  0  0  0  0  0  0
  147.5238  132.1489  152.5885 N   0  3  2  0  0  0  0  0  0  0  0  0
  147.4775  130.8986  153.3862 C   0  0  0  0  0  0  0  0  0  0  0  0
  148.8565  130.6016  153.9965 C   0  0  0  0  0  0  0  0  0  0  0  0
  149.2761  131.7111  154.7788 O   0  0  0  0  0  0  0  0  0  0  0  0
  149.4305  132.8955  154.0034 C   0  0  2  0  0  0  0  0  0  0  0  0
  149.9791  134.0173  154.9032 C   0  0  0  0  0  0  0  0  0  0  0  0
  149.7027  135.3400  154.3518 N   0  0  0  0  0  0  0  0  0  0  0  0
  149.9869  136.5013  154.9594 C   0  0  0  0  0  0  0  0  0  0  0  0
  150.5215  136.5732  156.0661 O   0  0  0  0  0  0  0  0  0  0  0  0
  149.6162  137.5504  154.2046 N   0  0  0  0  0  0  0  0  0  0  0  0
  149.7455  138.9340  154.4979 C   0  0  0  0  0  0  0  0  0  0  0  0
  150.8300  139.4748  155.0751 N   0  0  0  0  0  0  0  0  0  0  0  0
  150.6959  140.8460  155.2505 N   0  0  0  0  0  0  0  0  0  0  0  0
  149.5178  141.2850  154.7988 C   0  0  0  0  0  0  0  0  0  0  0  0
  148.4573  140.0664  154.1126 S   0  0  0  0  0  0  0  0  0  0  0  0
  148.0588  133.2644  153.4052 C   0  0  0  0  0  0  0  0  0  0  0  0
  143.8381  132.2566  150.4893 H   0  0  0  0  0  0  0  0  0  0  0  0
  144.5221  131.5354  149.0357 H   0  0  0  0  0  0  0  0  0  0  0  0
  144.9780  133.1658  149.5000 H   0  0  0  0  0  0  0  0  0  0  0  0
  146.7877  131.5564  150.0718 H   0  0  0  0  0  0  0  0  0  0  0  0
  144.7302  130.1298  151.8100 H   0  0  0  0  0  0  0  0  0  0  0  0
  146.4441  129.7365  151.7051 H   0  0  0  0  0  0  0  0  0  0  0  0
  145.4080  129.5250  150.3008 H   0  0  0  0  0  0  0  0  0  0  0  0
  146.2567  133.5312  151.6118 H   0  0  0  0  0  0  0  0  0  0  0  0
  145.4320  132.4286  152.6817 H   0  0  0  0  0  0  0  0  0  0  0  0
  146.7349  130.9965  154.1795 H   0  0  0  0  0  0  0  0  0  0  0  0
  147.1725  130.0576  152.7646 H   0  0  0  0  0  0  0  0  0  0  0  0
  148.8036  129.7198  154.6351 H   0  0  0  0  0  0  0  0  0  0  0  0
  149.5917  130.3884  153.2190 H   0  0  0  0  0  0  0  0  0  0  0  0
  150.1421  132.7115  153.1961 H   0  0  0  0  0  0  0  0  0  0  0  0
  149.5014  133.9671  155.8819 H   0  0  0  0  0  0  0  0  0  0  0  0
  151.0484  133.8841  155.0779 H   0  0  0  0  0  0  0  0  0  0  0  0
  149.2621  135.3725  153.4439 H   0  0  0  0  0  0  0  0  0  0  0  0
  149.1867  137.3359  153.3169 H   0  0  0  0  0  0  0  0  0  0  0  0
  149.2718  142.3341  154.8698 H   0  0  0  0  0  0  0  0  0  0  0  0
  148.1584  134.1565  152.7854 H   0  0  0  0  0  0  0  0  0  0  0  0
  147.3513  133.5041  154.2013 H   0  0  0  0  0  0  0  0  0  0  0  0
  148.1889  132.0009  151.8427 H   0  0  0  0  0  0  0  0  0  0  0  0
  1  2  1  0  0  0  0
  1 21  1  0  0  0  0
  1 22  1  0  0  0  0
  1 23  1  0  0  0  0
  2  3  1  0  0  0  0
  2  4  1  0  0  0  0
  2 24  1  0  0  0  0
  3 25  1  0  0  0  0
  3 26  1  0  0  0  0
  3 27  1  0  0  0  0
  4  5  1  0  0  0  0
  4 28  1  0  0  0  0
  4 29  1  0  0  0  0
  5 20  1  0  0  0  0
  5  6  1  0  0  0  0
  5 42  1  0  0  0  0
  6  7  1  0  0  0  0
  6 30  1  0  0  0  0
  6 31  1  0  0  0  0
  7  8  1  0  0  0  0
  7 32  1  0  0  0  0
  7 33  1  0  0  0  0
  8  9  1  0  0  0  0
  9 10  1  0  0  0  0
  9 20  1  0  0  0  0
  9 34  1  0  0  0  0
 10 11  1  0  0  0  0
 10 35  1  0  0  0  0
 10 36  1  0  0  0  0
 11 12  1  0  0  0  0
 11 37  1  0  0  0  0
 12 13  2  0  0  0  0
 12 14  1  0  0  0  0
 14 15  1  0  0  0  0
 14 38  1  0  0  0  0
 15 19  1  0  0  0  0
 15 16  2  0  0  0  0
 16 17  1  0  0  0  0
 17 18  2  0  0  0  0
 18 19  1  0  0  0  0
 18 39  1  0  0  0  0
 20 40  1  0  0  0  0
 20 41  1  0  0  0  0
M  CHG  1   5   1
M  END
> <s_m_source_file>
AV-unprocessed.smi

> <i_m_source_file_index>
2021

> <i_lp_mmshare_version>
43012

> <i_f3d_flags>
0

> <s_epik_input>
W0NIM11bQ0hdKFtDSDNdKVtDSDJdTjFbQ0gyXVtDSDJdT1tDQEhdKFtDSDJdMSlbQ0gyXVtOSF1DKD1PKVtOSF1jMm5uW2NIXXMy

> <s_epik_cmdline>
J2VwaWtfcHl0aG9uJywgJy1waCcsICc3LjAnLCAnLXRuJywgJzgnLCAnLW1hJywgJzIwMCcsICctbWV0YWxfYmluZGluZycsICctaW1hZScsICc8aW5maWxlLm1hZT4nLCAnLW9tYWUnLCAnPG91dGZpbGUubWFlPic=

> <r_lp_tautomer_probability>
1

> <r_epik_Ionization_Penalty>
0.102019

> <r_epik_Ionization_Penalty_Charging>
0.098413

> <r_epik_Ionization_Penalty_Neutral>
0.00360555

> <r_epik_State_Penalty>
0.0884988

> <r_epik_Charging_Adjusted_Penalty>
0.186912

> <i_epik_Tot_Q>
1

> <i_epik_Tot_abs_Q>
1

> <r_epik_Metal_State_Penalty>
0.454709

> <b_epik_Metal_Only>
0

> <s_lp_Force_Field>
OPLS_2005

> <r_lp_Energy>
16.3226

> <b_lp_Chiralities_Consistent>
1

> <s_lp_Variant>
AV-unprocessed.smi:2021-4

> <Gold.Version>
5.8.1

> <Gold.Id.Protein>
6NUR|6NUR_protein|mol2

> <Gold.PLP.Fitness>
46.3425

> <Gold.PLP.PLP>
-35.9385

> <Gold.PLP.part.hbond>
-4.4271

> <Gold.PLP.part.metal>
0.0000

> <Gold.PLP.part.buried>
-3.3959

> <Gold.PLP.part.nonpolar>
-27.4075

> <Gold.PLP.part.repulsive>
0.2322

> <Gold.PLP.ligand.clash>
0.0000

> <Gold.PLP.ligand.torsion>
0.7559

> <Gold.PLP.Chemscore.Hbond>
2.9632

> <Gold.PLP.Chemscore.CHOScore>
1.0000

> <Gold.PLP.Chemscore.Metal>
0.0000

> <Gold.Chemscore.Hbonds>
donor molecule, donor type, donor heavy atom, donor atom, acceptor molecule, acceptor atom, score
      L1  H     5    42       P1 10747  0.86
      L1  H    11    37       P1  7948  1.00
      L1  H    14    38       P1  7948  1.00
      P1  H  7989  7998       L1    17  0.10
      L1  C    18    39       P1  8028  1.00

> <Gold.PLP.Chemscore.Internal.Correction>
0.0261

> <Gold.Rescore>
     Score         DG    S(hbond)    S(metal)    S(lipo)     H(rot)  DE(clash)    DE(int)     intcor
     15.03     -17.09       2.15        0.00      79.05       1.88       0.24       1.82       ----

> <Gold.Chemscore.Fitness>
15.0265

> <Gold.Chemscore.DG>
-17.0886

> <Gold.Chemscore.ZeroCoef>
-5.4800

> <Gold.Chemscore.Hbond>
2.1484

> <Gold.Chemscore.Metal>
0.0000

> <Gold.Chemscore.Lipo>
79.0510

> <Gold.Chemscore.Internal_Hbond>
0.0000

> <Gold.Chemscore.DEClash>
0.2399

> <Gold.Chemscore.DEInternal>
1.8222

> <Gold.Chemscore.Rot>
1.8812

> <Gold.Chemscore.Internal.Correction>
   9.000000E+99

> <Gold.Chemscore.Hbonds>
donor molecule, donor type, donor heavy atom, donor atom, acceptor molecule, acceptor atom, score
      L1  H     5    42       P1 10747  0.81
      L1  H    11    37       P1  7948  0.24
      L1  H    14    38       P1  7948  0.95

> <Gold.Chemscore.Hbond.Weighted>
-7.1756

> <Gold.Chemscore.Metal.Weighted>
-0.0000

> <Gold.Chemscore.Lipo.Weighted>
-9.2490

> <Gold.Chemscore.Internal_Hbond.Weighted>
0.0000

> <Gold.Chemscore.DEClash.Weighted>
0.2399

> <Gold.Chemscore.DEInternal.Weighted>
1.8222

> <Gold.Chemscore.Rot.Weighted>
4.8159

> <Gold.Chemscore.Internal.Correction.Weighted>
   9.000000E+99

> <Gold.Protein.RotatedTorsions>
[ 6907 6896 6895 6894 ] final   69.77 input  -60.11 | X-H torsion
[ 7974 7965 7964 7962 ] final -171.45 input  175.53 | X-H torsion
[ 8008 7997 7996 7995 ] final  129.09 input   59.86 | X-H torsion
[ 10167 10162 10161 10158 ] final  -62.18 input  -65.29 | X-H torsion
[ 10718 10713 10712 10709 ] final    6.33 input   66.30 | X-H torsion
[ 10763 10752 10751 10750 ] final  173.20 input  -60.55 | X-H torsion
[ 11005 11000 10999 10996 ] final  -65.25 input  -57.11 | X-H torsion

> <Gold.Protein.ActiveResidues>
 VAL166  LYS551  ARG553  GLY616  TRP617  ASP618  TYR619  PRO620  LYS621  CYS622 
 ASP623  PHE694  ASN695  SER759  ASP760  ASP761  ALA762  ILE779  LEU786  VAL792 
 PHE793  MET794  SER795  GLU796  ALA797  LYS798  CYS799  TRP800  GLU811  SER814 

> <Gold.Protein.RotatedAtoms>
  152.4707  134.4967  159.9711 H   0  0  0  0  0  0  0  0  0  0  0  0  # atno 6907 bound_to 6896
  151.4995  133.3501  159.2874 H   0  0  0  0  0  0  0  0  0  0  0  0  # atno 6908 bound_to 6896
  150.8715  134.8118  159.7220 H   0  0  0  0  0  0  0  0  0  0  0  0  # atno 6909 bound_to 6896
  144.7157  140.1921  143.6347 H   0  0  0  0  0  0  0  0  0  0  0  0  # atno 7974 bound_to 7965
  156.2929  140.2629  156.2541 H   0  0  0  0  0  0  0  0  0  0  0  0  # atno 8008 bound_to 7997
  154.9853  140.0389  157.2314 H   0  0  0  0  0  0  0  0  0  0  0  0  # atno 8009 bound_to 7997
  154.7735  140.2782  155.6124 H   0  0  0  0  0  0  0  0  0  0  0  0  # atno 8010 bound_to 7997
  140.5956  143.2350  151.6043 H   0  0  0  0  0  0  0  0  0  0  0  0  # atno 10167 bound_to 10162
  156.9205  130.5789  149.5648 H   0  0  0  0  0  0  0  0  0  0  0  0  # atno 10718 bound_to 10713
  154.4367  135.2761  155.1875 H   0  0  0  0  0  0  0  0  0  0  0  0  # atno 10763 bound_to 10752
  154.3759  135.6098  153.5768 H   0  0  0  0  0  0  0  0  0  0  0  0  # atno 10764 bound_to 10752
  152.9839  135.5868  154.4688 H   0  0  0  0  0  0  0  0  0  0  0  0  # atno 10765 bound_to 10752
  141.1449  133.6678  156.5958 H   0  0  0  0  0  0  0  0  0  0  0  0  # atno 11005 bound_to 11000
  145.8759  139.2297  143.1634 LP  0  0  0  0  0  0  0  0  0  0  0  0  # atno 17320 bound_to 7965
  146.0041  140.8494  143.0004 LP  0  0  0  0  0  0  0  0  0  0  0  0  # atno 17321 bound_to 7965
  139.5256  144.3070  152.1025 LP  0  0  0  0  0  0  0  0  0  0  0  0  # atno 17342 bound_to 10162
  140.2242  144.4435  150.6328 LP  0  0  0  0  0  0  0  0  0  0  0  0  # atno 17343 bound_to 10162
  156.0493  130.5565  150.8953 LP  0  0  0  0  0  0  0  0  0  0  0  0  # atno 17370 bound_to 10713
  157.5910  131.0944  150.9118 LP  0  0  0  0  0  0  0  0  0  0  0  0  # atno 17371 bound_to 10713
  140.3727  134.7591  157.4609 LP  0  0  0  0  0  0  0  0  0  0  0  0  # atno 17394 bound_to 11000
  140.0698  134.5879  155.8655 LP  0  0  0  0  0  0  0  0  0  0  0  0  # atno 17395 bound_to 11000

$$$$
