AV-unprocessed.smi:2962|AV-procd|sdf|11316|dock8
  -GOLD-   2272016223D 1   1.00000     0.00000
 Structure written by MMmdl.
 36 37  0  0  0  0  0  0  0  0  1 V2000
  154.3906  137.7152  158.3555 C   0  0  0  0  0  0  0  0  0  0  0  0
  154.7242  139.0763  158.5603 O   0  0  0  0  0  0  0  0  0  0  0  0
  154.0827  139.6290  159.6979 C   0  0  0  0  0  0  0  0  0  0  0  0
  152.5612  139.4904  159.5542 C   0  0  0  0  0  0  0  0  0  0  0  0
  152.0059  140.4868  158.6493 N   0  0  0  0  0  0  0  0  0  0  0  0
  151.2790  140.2909  157.5207 C   0  0  0  0  0  0  0  0  0  0  0  0
  150.8549  138.6842  156.9350 S   0  0  0  0  0  0  0  0  0  0  0  0
  151.3408  138.8932  155.1946 C   0  0  1  0  0  0  0  0  0  0  0  0
  152.8676  139.0298  155.0501 C   0  0  0  0  0  0  0  0  0  0  0  0
  150.7714  137.7621  154.3298 C   0  0  0  0  0  0  0  0  0  0  0  0
  149.9311  138.1158  153.3535 N   0  0  0  0  0  0  0  0  0  0  0  0
  151.0774  136.5879  154.5315 O   0  0  0  0  0  0  0  0  0  0  0  0
  150.9111  141.3947  156.8708 N   0  0  0  0  0  0  0  0  0  0  0  0
  151.4427  142.4010  157.6527 C   0  0  0  0  0  0  0  0  0  0  0  0
  151.3964  143.8052  157.4997 C   0  0  0  0  0  0  0  0  0  0  0  0
  152.0268  144.6465  158.4397 C   0  0  0  0  0  0  0  0  0  0  0  0
  152.7115  144.0973  159.5431 C   0  0  0  0  0  0  0  0  0  0  0  0
  152.7692  142.7008  159.7145 C   0  0  0  0  0  0  0  0  0  0  0  0
  152.1362  141.8658  158.7743 C   0  0  0  0  0  0  0  0  0  0  0  0
  154.9125  137.3391  157.4755 H   0  0  0  0  0  0  0  0  0  0  0  0
  153.3195  137.5927  158.1901 H   0  0  0  0  0  0  0  0  0  0  0  0
  154.6859  137.1037  159.2090 H   0  0  0  0  0  0  0  0  0  0  0  0
  154.4155  139.1147  160.6005 H   0  0  0  0  0  0  0  0  0  0  0  0
  154.3525  140.6810  159.8040 H   0  0  0  0  0  0  0  0  0  0  0  0
  152.3060  138.4904  159.2059 H   0  0  0  0  0  0  0  0  0  0  0  0
  152.0830  139.6038  160.5277 H   0  0  0  0  0  0  0  0  0  0  0  0
  150.8923  139.8195  154.8336 H   0  0  0  0  0  0  0  0  0  0  0  0
  153.1650  139.0866  154.0021 H   0  0  0  0  0  0  0  0  0  0  0  0
  153.3884  138.1835  155.4997 H   0  0  0  0  0  0  0  0  0  0  0  0
  153.2300  139.9358  155.5353 H   0  0  0  0  0  0  0  0  0  0  0  0
  149.5349  137.4114  152.7486 H   0  0  0  0  0  0  0  0  0  0  0  0
  149.7032  139.0901  153.2188 H   0  0  0  0  0  0  0  0  0  0  0  0
  150.8756  144.2351  156.6569 H   0  0  0  0  0  0  0  0  0  0  0  0
  151.9861  145.7185  158.3129 H   0  0  0  0  0  0  0  0  0  0  0  0
  153.1930  144.7488  160.2576 H   0  0  0  0  0  0  0  0  0  0  0  0
  153.2934  142.2765  160.5577 H   0  0  0  0  0  0  0  0  0  0  0  0
  1  2  1  0  0  0  0
  1 20  1  0  0  0  0
  1 21  1  0  0  0  0
  1 22  1  0  0  0  0
  2  3  1  0  0  0  0
  3  4  1  0  0  0  0
  3 23  1  0  0  0  0
  3 24  1  0  0  0  0
  4  5  1  0  0  0  0
  4 25  1  0  0  0  0
  4 26  1  0  0  0  0
  5 19  1  0  0  0  0
  5  6  1  0  0  0  0
  6  7  1  0  0  0  0
  6 13  2  0  0  0  0
  7  8  1  0  0  0  0
  8  9  1  0  0  0  0
  8 10  1  0  0  0  0
  8 27  1  0  0  0  0
  9 28  1  0  0  0  0
  9 29  1  0  0  0  0
  9 30  1  0  0  0  0
 10 11  1  0  0  0  0
 10 12  2  0  0  0  0
 11 31  1  0  0  0  0
 11 32  1  0  0  0  0
 13 14  1  0  0  0  0
 14 19  2  0  0  0  0
 14 15  1  0  0  0  0
 15 16  2  0  0  0  0
 15 33  1  0  0  0  0
 16 17  1  0  0  0  0
 16 34  1  0  0  0  0
 17 18  2  0  0  0  0
 17 35  1  0  0  0  0
 18 19  1  0  0  0  0
 18 36  1  0  0  0  0
M  END
> <s_m_source_file>
AV-unprocessed.smi

> <i_m_source_file_index>
2962

> <i_lp_mmshare_version>
43012

> <i_f3d_flags>
0

> <s_epik_input>
W2NIXTFbY0hdW2NIXVtjSF1jKGMxMiluKFtDSDJdW0NIMl1PW0NIM10pYyhuMilTW0NASF0oW0NIM10pQyg9TylbTkgyXQ==

> <s_epik_cmdline>
J2VwaWtfcHl0aG9uJywgJy1waCcsICc3LjAnLCAnLXRuJywgJzgnLCAnLW1hJywgJzIwMCcsICctbWV0YWxfYmluZGluZycsICctaW1hZScsICc8aW5maWxlLm1hZT4nLCAnLW9tYWUnLCAnPG91dGZpbGUubWFlPic=

> <r_epik_Ionization_Penalty>
0.0199986

> <r_epik_Ionization_Penalty_Charging>
0

> <r_epik_Ionization_Penalty_Neutral>
0.0199986

> <r_epik_State_Penalty>
0.0160044

> <r_epik_Charging_Adjusted_Penalty>
0.0160044

> <i_epik_Tot_Q>
0

> <i_epik_Tot_abs_Q>
0

> <r_epik_Metal_State_Penalty>
0.015472

> <b_epik_Metal_Only>
0

> <s_lp_Force_Field>
OPLS_2005

> <r_lp_Energy>
4.7896

> <b_lp_Chiralities_Consistent>
1

> <s_lp_Variant>
AV-unprocessed.smi:2962-2

> <Gold.Version>
5.8.1

> <Gold.Id.Protein>
6NUR|6NUR_protein|mol2

> <Gold.PLP.Fitness>
48.6065

> <Gold.PLP.PLP>
-39.0983

> <Gold.PLP.part.hbond>
-5.0000

> <Gold.PLP.part.metal>
0.0000

> <Gold.PLP.part.buried>
-1.0905

> <Gold.PLP.part.nonpolar>
-33.8598

> <Gold.PLP.part.repulsive>
1.2028

> <Gold.PLP.ligand.clash>
0.0000

> <Gold.PLP.ligand.torsion>
0.2996

> <Gold.PLP.Chemscore.Hbond>
3.3448

> <Gold.PLP.Chemscore.CHOScore>
0.0000

> <Gold.PLP.Chemscore.Metal>
0.0000

> <Gold.Chemscore.Hbonds>
donor molecule, donor type, donor heavy atom, donor atom, acceptor molecule, acceptor atom, score
      L1  H    11    31       P1  7948  1.00
      L1  H    11    32       P1  7957  0.18
      P1  H  7997  8010       L1     2  1.00
      P1  H 10752 10763       L1    12  0.84

> <Gold.PLP.Chemscore.Internal.Correction>
0.0732

> <Gold.Rescore>
     Score         DG    S(hbond)    S(metal)    S(lipo)     H(rot)  DE(clash)    DE(int)     intcor
     20.39     -20.97       2.94        0.00     103.35       2.50       0.08       0.50       ----

> <Gold.Chemscore.Fitness>
20.3887

> <Gold.Chemscore.DG>
-20.9737

> <Gold.Chemscore.ZeroCoef>
-5.4800

> <Gold.Chemscore.Hbond>
2.9366

> <Gold.Chemscore.Metal>
0.0000

> <Gold.Chemscore.Lipo>
103.3541

> <Gold.Chemscore.Internal_Hbond>
0.0000

> <Gold.Chemscore.DEClash>
0.0815

> <Gold.Chemscore.DEInternal>
0.5035

> <Gold.Chemscore.Rot>
2.5027

> <Gold.Chemscore.Internal.Correction>
   9.000000E+99

> <Gold.Chemscore.Hbonds>
donor molecule, donor type, donor heavy atom, donor atom, acceptor molecule, acceptor atom, score
      L1  H    11    31       P1  7948  0.62
      L1  H    11    32       P1  7957  0.18
      P1  H  7997  8010       L1     2  0.96
      P1  H 10752 10763       L1    12  0.82

> <Gold.Chemscore.Hbond.Weighted>
-9.8083

> <Gold.Chemscore.Metal.Weighted>
-0.0000

> <Gold.Chemscore.Lipo.Weighted>
-12.0924

> <Gold.Chemscore.Internal_Hbond.Weighted>
0.0000

> <Gold.Chemscore.DEClash.Weighted>
0.0815

> <Gold.Chemscore.DEInternal.Weighted>
0.5035

> <Gold.Chemscore.Rot.Weighted>
6.4070

> <Gold.Chemscore.Internal.Correction.Weighted>
   9.000000E+99

> <Gold.Protein.RotatedTorsions>
[ 6907 6896 6895 6894 ] final  167.16 input  -60.11 | X-H torsion
[ 7974 7965 7964 7962 ] final   83.99 input  175.53 | X-H torsion
[ 8008 7997 7996 7995 ] final   -8.51 input   59.86 | X-H torsion
[ 10167 10162 10161 10158 ] final   -3.94 input  -65.29 | X-H torsion
[ 10718 10713 10712 10709 ] final  -13.23 input   66.30 | X-H torsion
[ 10763 10752 10751 10750 ] final   41.36 input  -60.55 | X-H torsion
[ 11005 11000 10999 10996 ] final  168.14 input  -57.11 | X-H torsion

> <Gold.Protein.ActiveResidues>
 VAL166  LYS551  ARG553  GLY616  TRP617  ASP618  TYR619  PRO620  LYS621  CYS622 
 ASP623  PHE694  ASN695  SER759  ASP760  ASP761  ALA762  ILE779  LEU786  VAL792 
 PHE793  MET794  SER795  GLU796  ALA797  LYS798  CYS799  TRP800  GLU811  SER814 

> <Gold.Protein.RotatedAtoms>
  151.8677  133.3469  159.3724 H   0  0  0  0  0  0  0  0  0  0  0  0  # atno 6907 bound_to 6896
  150.7161  134.5144  159.5632 H   0  0  0  0  0  0  0  0  0  0  0  0  # atno 6908 bound_to 6896
  152.2670  134.7974  160.0472 H   0  0  0  0  0  0  0  0  0  0  0  0  # atno 6909 bound_to 6896
  145.6047  139.2358  143.2226 H   0  0  0  0  0  0  0  0  0  0  0  0  # atno 7974 bound_to 7965
  154.5735  140.2379  155.8157 H   0  0  0  0  0  0  0  0  0  0  0  0  # atno 8008 bound_to 7997
  156.2125  140.3022  155.9722 H   0  0  0  0  0  0  0  0  0  0  0  0  # atno 8009 bound_to 7997
  155.2670  140.0417  157.2993 H   0  0  0  0  0  0  0  0  0  0  0  0  # atno 8010 bound_to 7997
  140.6909  143.6481  150.8374 H   0  0  0  0  0  0  0  0  0  0  0  0  # atno 10167 bound_to 10162
  156.6332  130.4907  149.6121 H   0  0  0  0  0  0  0  0  0  0  0  0  # atno 10718 bound_to 10713
  152.9910  135.6164  154.2775 H   0  0  0  0  0  0  0  0  0  0  0  0  # atno 10763 bound_to 10752
  154.2505  135.2785  155.2820 H   0  0  0  0  0  0  0  0  0  0  0  0  # atno 10764 bound_to 10752
  154.5292  135.5793  153.6802 H   0  0  0  0  0  0  0  0  0  0  0  0  # atno 10765 bound_to 10752
  140.2842  134.7726  157.3784 H   0  0  0  0  0  0  0  0  0  0  0  0  # atno 11005 bound_to 11000
  146.1550  140.6871  142.9304 LP  0  0  0  0  0  0  0  0  0  0  0  0  # atno 17320 bound_to 7965
  144.7295  140.4628  143.6948 LP  0  0  0  0  0  0  0  0  0  0  0  0  # atno 17321 bound_to 7965
  140.0194  143.5558  152.2806 LP  0  0  0  0  0  0  0  0  0  0  0  0  # atno 17342 bound_to 10162
  139.6311  144.7644  151.2534 LP  0  0  0  0  0  0  0  0  0  0  0  0  # atno 17343 bound_to 10162
  156.2218  130.6742  151.1376 LP  0  0  0  0  0  0  0  0  0  0  0  0  # atno 17370 bound_to 10713
  157.7194  131.0691  150.6199 LP  0  0  0  0  0  0  0  0  0  0  0  0  # atno 17371 bound_to 10713
  140.1255  134.5163  155.8148 LP  0  0  0  0  0  0  0  0  0  0  0  0  # atno 17394 bound_to 11000
  141.2157  133.6771  156.6944 LP  0  0  0  0  0  0  0  0  0  0  0  0  # atno 17395 bound_to 11000

$$$$
