AV-unprocessed.smi:107|AV-procd|sdf|1022|dock8
  -GOLD-   2262018 23D 1   1.00000     0.00000
 Structure written by MMmdl.
 30 31  0  0  0  0  0  0  0  0  2 V2000
  151.4621  136.8918  155.8735 C   0  0  0  0  0  0  0  0  0  0  0  0
  150.7668  138.1436  155.3678 C   0  0  0  0  0  0  0  0  0  0  0  0
  149.5032  138.1232  154.8881 C   0  0  0  0  0  0  0  0  0  0  0  0
  148.8760  139.2670  154.4264 N   0  0  0  0  0  0  0  0  0  0  0  0
  147.4722  139.2061  153.8743 C   0  0  1  0  0  0  0  0  0  0  0  0
  147.4605  139.4804  152.3760 C   0  0  0  0  0  0  0  0  0  0  0  0
  146.2541  138.6724  151.9128 C   0  0  1  0  0  0  0  0  0  0  0  0
  146.5697  137.9674  150.7261 O   0  0  0  0  0  0  0  0  0  0  0  0
  145.8859  137.7714  153.1178 C   0  0  1  0  0  0  0  0  0  0  0  0
  145.6664  136.2780  152.8107 C   0  0  0  0  0  0  0  0  0  0  0  0
  146.8567  135.5541  153.0399 O   0  0  0  0  0  0  0  0  0  0  0  0
  146.9765  137.9174  154.0196 O   0  0  0  0  0  0  0  0  0  0  0  0
  149.5779  140.4998  154.4185 C   0  0  0  0  0  0  0  0  0  0  0  0
  149.0073  141.4898  153.9598 O   0  0  0  0  0  0  0  0  0  0  0  0
  150.8498  140.5321  154.9092 N   0  5  0  0  0  0  0  0  0  0  0  0
  151.4849  139.4241  155.3891 C   0  0  0  0  0  0  0  0  0  0  0  0
  152.6326  139.4685  155.8318 O   0  0  0  0  0  0  0  0  0  0  0  0
  150.8141  136.0185  155.7944 H   0  0  0  0  0  0  0  0  0  0  0  0
  151.7445  137.0092  156.9199 H   0  0  0  0  0  0  0  0  0  0  0  0
  152.3638  136.6969  155.2922 H   0  0  0  0  0  0  0  0  0  0  0  0
  148.9737  137.1824  154.8597 H   0  0  0  0  0  0  0  0  0  0  0  0
  146.8550  139.8925  154.4571 H   0  0  0  0  0  0  0  0  0  0  0  0
  147.3833  140.5492  152.1748 H   0  0  0  0  0  0  0  0  0  0  0  0
  148.3846  139.1006  151.9359 H   0  0  0  0  0  0  0  0  0  0  0  0
  145.4195  139.3397  151.6944 H   0  0  0  0  0  0  0  0  0  0  0  0
  145.8200  137.9943  150.1518 H   0  0  0  0  0  0  0  0  0  0  0  0
  144.9953  138.1901  153.5906 H   0  0  0  0  0  0  0  0  0  0  0  0
  144.9108  135.8569  153.4742 H   0  0  0  0  0  0  0  0  0  0  0  0
  145.3230  136.1315  151.7860 H   0  0  0  0  0  0  0  0  0  0  0  0
  147.5757  136.0268  152.6491 H   0  0  0  0  0  0  0  0  0  0  0  0
  1  2  1  0  0  0  0
  1 18  1  0  0  0  0
  1 19  1  0  0  0  0
  1 20  1  0  0  0  0
  2 16  1  0  0  0  0
  2  3  2  0  0  0  0
  3  4  1  0  0  0  0
  3 21  1  0  0  0  0
  4  5  1  0  0  0  0
  4 13  1  0  0  0  0
  5 12  1  0  0  0  0
  5  6  1  0  0  0  0
  5 22  1  0  0  0  0
  6  7  1  0  0  0  0
  6 23  1  0  0  0  0
  6 24  1  0  0  0  0
  7  8  1  0  0  0  0
  7  9  1  0  0  0  0
  7 25  1  0  0  0  0
  8 26  1  0  0  0  0
  9 10  1  0  0  0  0
  9 12  1  0  0  0  0
  9 27  1  0  0  0  0
 10 11  1  0  0  0  0
 10 28  1  0  0  0  0
 10 29  1  0  0  0  0
 11 30  1  0  0  0  0
 13 14  2  0  0  0  0
 13 15  1  0  0  0  0
 15 16  1  0  0  0  0
 16 17  2  0  0  0  0
M  CHG  1  15  -1
M  END
> <s_m_source_file>
AV-unprocessed.smi

> <i_m_source_file_index>
107

> <i_lp_mmshare_version>
43012

> <i_f3d_flags>
0

> <s_epik_input>
Tz1jMVtuSF1jKD1PKW4oW2NIXWMxW0NIM10pW0NAQEhdMltDSDJdW0NAQEhdKFtPSF0pW0NASF0oTzIpW0NIMl1bT0hd

> <s_epik_cmdline>
J2VwaWtfcHl0aG9uJywgJy1waCcsICc3LjAnLCAnLXRuJywgJzgnLCAnLW1hJywgJzIwMCcsICctbWV0YWxfYmluZGluZycsICctaW1hZScsICc8aW5maWxlLm1hZT4nLCAnLW9tYWUnLCAnPG91dGZpbGUubWFlPic=

> <r_lp_tautomer_probability>
0.999537

> <r_epik_Ionization_Penalty>
3.66603

> <r_epik_Ionization_Penalty_Charging>
1.09773e-07

> <r_epik_Ionization_Penalty_Neutral>
3.66603

> <r_epik_State_Penalty>
3.66562

> <r_epik_Charging_Adjusted_Penalty>
3.66562

> <i_epik_Tot_Q>
-1

> <i_epik_Tot_abs_Q>
1

> <r_epik_Metal_State_Penalty>
0.234536

> <b_epik_Metal_Only>
1

> <s_epik_Chemistry_Notes>
This compound contains an acetal/aminal-like group ( X-CH(R)-Y where X, Y are N, S, or O) that may be acid/base labile, releasing an aldehyde.

> <s_lp_Force_Field>
OPLS_2005

> <r_lp_Energy>
40.7451

> <b_lp_Chiralities_Consistent>
1

> <s_lp_Variant>
AV-unprocessed.smi:107-10

> <Gold.Version>
5.8.1

> <Gold.Id.Protein>
6NUR|6NUR_protein|mol2

> <Gold.PLP.Fitness>
41.2624

> <Gold.PLP.PLP>
-25.3931

> <Gold.PLP.part.hbond>
-6.9754

> <Gold.PLP.part.metal>
0.0000

> <Gold.PLP.part.buried>
2.2604

> <Gold.PLP.part.nonpolar>
-21.7212

> <Gold.PLP.part.repulsive>
0.4056

> <Gold.PLP.ligand.clash>
0.0000

> <Gold.PLP.ligand.torsion>
0.5453

> <Gold.PLP.Chemscore.Hbond>
5.6452

> <Gold.PLP.Chemscore.CHOScore>
0.0000

> <Gold.PLP.Chemscore.Metal>
0.0000

> <Gold.Chemscore.Hbonds>
donor molecule, donor type, donor heavy atom, donor atom, acceptor molecule, acceptor atom, score
      L1  H     8    26       P1 10171  0.95
      L1  H    11    30       P1  7948  1.00
      P1  H  7954  7966       L1     8  1.00
      P1  H  7989  7998       L1    15  0.90
      P1  H  7997  8008       L1    17  1.00
      P1  H  8011  8017       L1    14  0.70

> <Gold.PLP.Chemscore.Internal.Correction>
0.0242

> <Gold.Rescore>
     Score         DG    S(hbond)    S(metal)    S(lipo)     H(rot)  DE(clash)    DE(int)     intcor
     15.27     -19.30       4.71        0.00      42.38       2.69       2.31       1.71       ----

> <Gold.Chemscore.Fitness>
15.2735

> <Gold.Chemscore.DG>
-19.2975

> <Gold.Chemscore.ZeroCoef>
-5.4800

> <Gold.Chemscore.Hbond>
4.7121

> <Gold.Chemscore.Metal>
0.0000

> <Gold.Chemscore.Lipo>
42.3783

> <Gold.Chemscore.Internal_Hbond>
0.0000

> <Gold.Chemscore.DEClash>
2.3144

> <Gold.Chemscore.DEInternal>
1.7096

> <Gold.Chemscore.Rot>
2.6871

> <Gold.Chemscore.Internal.Correction>
   9.000000E+99

> <Gold.Chemscore.Hbonds>
donor molecule, donor type, donor heavy atom, donor atom, acceptor molecule, acceptor atom, score
      L1  H     8    26       P1 10171  0.86
      L1  H    11    30       P1  7948  0.97
      P1  H  7954  7966       L1     8  0.85
      P1  H  7989  7998       L1    15  0.08
      P1  H  7997  8008       L1    17  1.00
      P1  H  8011  8017       L1    14  0.63

> <Gold.Chemscore.Hbond.Weighted>
-15.7383

> <Gold.Chemscore.Metal.Weighted>
-0.0000

> <Gold.Chemscore.Lipo.Weighted>
-4.9583

> <Gold.Chemscore.Internal_Hbond.Weighted>
0.0000

> <Gold.Chemscore.DEClash.Weighted>
2.3144

> <Gold.Chemscore.DEInternal.Weighted>
1.7096

> <Gold.Chemscore.Rot.Weighted>
6.8791

> <Gold.Chemscore.Internal.Correction.Weighted>
   9.000000E+99

> <Gold.Protein.RotatedTorsions>
[ 6907 6896 6895 6894 ] final   93.42 input  -60.11 | X-H torsion
[ 7974 7965 7964 7962 ] final   60.62 input  175.53 | X-H torsion
[ 8008 7997 7996 7995 ] final  -32.40 input   59.86 | X-H torsion
[ 10167 10162 10161 10158 ] final   51.01 input  -65.29 | X-H torsion
[ 10718 10713 10712 10709 ] final  114.99 input   66.30 | X-H torsion
[ 10763 10752 10751 10750 ] final  -19.22 input  -60.55 | X-H torsion
[ 11005 11000 10999 10996 ] final    6.60 input  -57.11 | X-H torsion

> <Gold.Protein.ActiveResidues>
 VAL166  LYS551  ARG553  GLY616  TRP617  ASP618  TYR619  PRO620  LYS621  CYS622 
 ASP623  PHE694  ASN695  SER759  ASP760  ASP761  ALA762  ILE779  LEU786  VAL792 
 PHE793  MET794  SER795  GLU796  ALA797  LYS798  CYS799  TRP800  GLU811  SER814 

> <Gold.Protein.RotatedAtoms>
  152.5452  134.1350  159.8454 H   0  0  0  0  0  0  0  0  0  0  0  0  # atno 6907 bound_to 6896
  151.1392  133.4976  159.2604 H   0  0  0  0  0  0  0  0  0  0  0  0  # atno 6908 bound_to 6896
  151.1591  135.0275  159.8757 H   0  0  0  0  0  0  0  0  0  0  0  0  # atno 6909 bound_to 6896
  145.8940  139.3532  143.0632 H   0  0  0  0  0  0  0  0  0  0  0  0  # atno 7974 bound_to 7965
  154.4181  140.1738  156.1721 H   0  0  0  0  0  0  0  0  0  0  0  0  # atno 8008 bound_to 7997
  155.9752  140.3382  155.6588 H   0  0  0  0  0  0  0  0  0  0  0  0  # atno 8009 bound_to 7997
  155.6573  140.0697  157.2557 H   0  0  0  0  0  0  0  0  0  0  0  0  # atno 8010 bound_to 7997
  140.2664  144.3315  150.6303 H   0  0  0  0  0  0  0  0  0  0  0  0  # atno 10167 bound_to 10162
  157.6249  131.1006  150.7265 H   0  0  0  0  0  0  0  0  0  0  0  0  # atno 10718 bound_to 10713
  153.6014  135.6999  153.5383 H   0  0  0  0  0  0  0  0  0  0  0  0  # atno 10763 bound_to 10752
  153.3094  135.4105  155.1322 H   0  0  0  0  0  0  0  0  0  0  0  0  # atno 10764 bound_to 10752
  154.8582  135.3668  154.5549 H   0  0  0  0  0  0  0  0  0  0  0  0  # atno 10765 bound_to 10752
  140.5577  134.0223  155.7960 H   0  0  0  0  0  0  0  0  0  0  0  0  # atno 11005 bound_to 11000
  145.8873  140.9325  143.0570 LP  0  0  0  0  0  0  0  0  0  0  0  0  # atno 17320 bound_to 7965
  144.6732  140.0859  143.7467 LP  0  0  0  0  0  0  0  0  0  0  0  0  # atno 17321 bound_to 7965
  140.5925  143.2167  151.7226 LP  0  0  0  0  0  0  0  0  0  0  0  0  # atno 17342 bound_to 10162
  139.5001  144.3917  152.0272 LP  0  0  0  0  0  0  0  0  0  0  0  0  # atno 17343 bound_to 10162
  156.7615  130.4800  149.5436 LP  0  0  0  0  0  0  0  0  0  0  0  0  # atno 17370 bound_to 10713
  156.1415  130.6248  151.0473 LP  0  0  0  0  0  0  0  0  0  0  0  0  # atno 17371 bound_to 10713
  141.1134  133.9580  157.2869 LP  0  0  0  0  0  0  0  0  0  0  0  0  # atno 17394 bound_to 11000
  139.9423  135.0189  156.8747 LP  0  0  0  0  0  0  0  0  0  0  0  0  # atno 17395 bound_to 11000

$$$$
