AV-unprocessed.smi:45|AV-procd|sdf|407|dock4
  -GOLD-   2262016263D 1   1.00000     0.00000
 Structure written by MMmdl.
 60 63  0  0  0  0  0  0  0  0  1 V2000
  143.0717  134.8691  163.2839 C   0  0  0  0  0  0  0  0  0  0  0  0
  144.1425  134.0368  162.8627 O   0  0  0  0  0  0  0  0  0  0  0  0
  145.2581  134.6365  162.3158 C   0  0  0  0  0  0  0  0  0  0  0  0
  145.4501  136.0402  162.2631 C   0  0  0  0  0  0  0  0  0  0  0  0
  146.6096  136.5837  161.6798 C   0  0  0  0  0  0  0  0  0  0  0  0
  147.5979  135.7350  161.1444 C   0  0  0  0  0  0  0  0  0  0  0  0
  148.8234  136.3253  160.4676 C   0  0  0  0  0  0  0  0  0  0  0  0
  148.5115  137.1366  159.2973 N   0  0  0  0  0  0  0  0  0  0  0  0
  149.6174  137.6637  158.6111 C   0  0  0  0  0  0  0  0  0  0  0  0
  149.8954  138.9734  158.8109 N   0  0  0  0  0  0  0  0  0  0  0  0
  150.9734  139.4904  158.2124 C   0  0  0  0  0  0  0  0  0  0  0  0
  151.2432  140.8359  158.4594 N   0  0  0  0  0  0  0  0  0  0  0  0
  150.3565  141.8929  157.9864 C   0  0  0  0  0  0  0  0  0  0  0  0
  151.2450  143.1133  157.7537 C   0  0  0  0  0  0  0  0  0  0  0  0
  152.3708  142.9116  158.7592 C   0  0  0  0  0  0  0  0  0  0  0  0
  152.5590  141.3875  158.7866 C   0  0  1  0  0  0  0  0  0  0  0  0
  153.1119  140.8858  160.1374 C   0  0  0  0  0  0  0  0  0  0  0  0
  154.3788  141.4574  160.3850 O   0  0  0  0  0  0  0  0  0  0  0  0
  151.8043  138.8237  157.4052 N   0  0  0  0  0  0  0  0  0  0  0  0
  151.5458  137.5170  157.1907 C   0  0  0  0  0  0  0  0  0  0  0  0
  150.4500  136.8559  157.7908 C   0  0  0  0  0  0  0  0  0  0  0  0
  150.2099  135.3882  157.5601 C   0  0  0  0  0  0  0  0  0  0  0  0
  149.4925  134.7292  158.3133 O   0  0  0  0  0  0  0  0  0  0  0  0
  150.8775  134.8594  156.5222 N   0  0  0  0  0  0  0  0  0  0  0  0
  150.8874  133.4460  156.1657 C   0  0  0  0  0  0  0  0  0  0  0  0
  149.8880  133.1239  155.0689 C   0  0  0  0  0  0  0  0  0  0  0  0
  149.0939  134.1230  154.6691 N   0  0  0  0  0  0  0  0  0  0  0  0
  148.1944  133.8390  153.7026 C   0  0  0  0  0  0  0  0  0  0  0  0
  148.0999  132.5538  153.1317 C   0  0  0  0  0  0  0  0  0  0  0  0
  148.9943  131.5840  153.6278 C   0  0  0  0  0  0  0  0  0  0  0  0
  149.8880  131.8721  154.5985 N   0  0  0  0  0  0  0  0  0  0  0  0
  147.4198  134.3390  161.1999 C   0  0  0  0  0  0  0  0  0  0  0  0
  146.2574  133.7941  161.7786 C   0  0  0  0  0  0  0  0  0  0  0  0
  146.0610  132.0784  161.8116 Cl  0  0  0  0  0  0  0  0  0  0  0  0
  153.2395  141.1010  157.9833 H   0  0  0  0  0  0  0  0  0  0  0  0
  142.2676  134.2478  163.6778 H   0  0  0  0  0  0  0  0  0  0  0  0
  142.6651  135.4456  162.4518 H   0  0  0  0  0  0  0  0  0  0  0  0
  143.3815  135.5492  164.0786 H   0  0  0  0  0  0  0  0  0  0  0  0
  144.7180  136.7247  162.6598 H   0  0  0  0  0  0  0  0  0  0  0  0
  146.7325  137.6560  161.6331 H   0  0  0  0  0  0  0  0  0  0  0  0
  149.3481  136.9527  161.1883 H   0  0  0  0  0  0  0  0  0  0  0  0
  149.5176  135.5313  160.1890 H   0  0  0  0  0  0  0  0  0  0  0  0
  147.8188  136.7189  158.6916 H   0  0  0  0  0  0  0  0  0  0  0  0
  149.8312  141.6123  157.0725 H   0  0  0  0  0  0  0  0  0  0  0  0
  149.6126  142.0968  158.7574 H   0  0  0  0  0  0  0  0  0  0  0  0
  151.6484  143.0902  156.7405 H   0  0  0  0  0  0  0  0  0  0  0  0
  150.7147  144.0565  157.8867 H   0  0  0  0  0  0  0  0  0  0  0  0
  153.2826  143.4449  158.4888 H   0  0  0  0  0  0  0  0  0  0  0  0
  152.0484  143.2742  159.7365 H   0  0  0  0  0  0  0  0  0  0  0  0
  152.4357  141.1399  160.9542 H   0  0  0  0  0  0  0  0  0  0  0  0
  153.2289  139.8032  160.1488 H   0  0  0  0  0  0  0  0  0  0  0  0
  154.4449  141.6526  161.3073 H   0  0  0  0  0  0  0  0  0  0  0  0
  152.2340  136.9961  156.5410 H   0  0  0  0  0  0  0  0  0  0  0  0
  151.4624  135.4685  155.9690 H   0  0  0  0  0  0  0  0  0  0  0  0
  151.8871  133.1266  155.8649 H   0  0  0  0  0  0  0  0  0  0  0  0
  150.6438  132.8682  157.0581 H   0  0  0  0  0  0  0  0  0  0  0  0
  147.5508  134.6431  153.3778 H   0  0  0  0  0  0  0  0  0  0  0  0
  147.3848  132.3259  152.3555 H   0  0  0  0  0  0  0  0  0  0  0  0
  148.9929  130.5745  153.2442 H   0  0  0  0  0  0  0  0  0  0  0  0
  148.1676  133.6819  160.7802 H   0  0  0  0  0  0  0  0  0  0  0  0
  1  2  1  0  0  0  0
  1 36  1  0  0  0  0
  1 37  1  0  0  0  0
  1 38  1  0  0  0  0
  2  3  1  0  0  0  0
  3 33  1  0  0  0  0
  3  4  2  0  0  0  0
  4  5  1  0  0  0  0
  4 39  1  0  0  0  0
  5  6  2  0  0  0  0
  5 40  1  0  0  0  0
  6  7  1  0  0  0  0
  6 32  1  0  0  0  0
  7  8  1  0  0  0  0
  7 41  1  0  0  0  0
  7 42  1  0  0  0  0
  8  9  1  0  0  0  0
  8 43  1  0  0  0  0
  9 21  1  0  0  0  0
  9 10  2  0  0  0  0
 10 11  1  0  0  0  0
 11 12  1  0  0  0  0
 11 19  2  0  0  0  0
 12 16  1  0  0  0  0
 12 13  1  0  0  0  0
 13 14  1  0  0  0  0
 13 44  1  0  0  0  0
 13 45  1  0  0  0  0
 14 15  1  0  0  0  0
 14 46  1  0  0  0  0
 14 47  1  0  0  0  0
 15 16  1  0  0  0  0
 15 48  1  0  0  0  0
 15 49  1  0  0  0  0
 16 35  1  0  0  0  0
 16 17  1  0  0  0  0
 17 18  1  0  0  0  0
 17 50  1  0  0  0  0
 17 51  1  0  0  0  0
 18 52  1  0  0  0  0
 19 20  1  0  0  0  0
 20 21  2  0  0  0  0
 20 53  1  0  0  0  0
 21 22  1  0  0  0  0
 22 23  2  0  0  0  0
 22 24  1  0  0  0  0
 24 25  1  0  0  0  0
 24 54  1  0  0  0  0
 25 26  1  0  0  0  0
 25 55  1  0  0  0  0
 25 56  1  0  0  0  0
 26 31  1  0  0  0  0
 26 27  2  0  0  0  0
 27 28  1  0  0  0  0
 28 29  2  0  0  0  0
 28 57  1  0  0  0  0
 29 30  1  0  0  0  0
 29 58  1  0  0  0  0
 30 31  2  0  0  0  0
 30 59  1  0  0  0  0
 32 33  2  0  0  0  0
 32 60  1  0  0  0  0
 33 34  1  0  0  0  0
M  END
> <s_m_source_file>
AV-unprocessed.smi

> <i_m_source_file_index>
45

> <i_lp_mmshare_version>
43012

> <i_f3d_flags>
0

> <s_epik_input>
W0NIM11PYzFbY0hdW2NIXWMoW2NIXWMxQ2wpW0NIMl1bTkhdYzJuYyhOM1tDSDJdW0NIMl1bQ0gyXVtDQEhdM1tDSDJdW09IXSluW2NIXWMyQyg9TylbTkhdW0NIMl1jNG5bY0hdW2NIXVtjSF1uNA==

> <s_epik_cmdline>
J2VwaWtfcHl0aG9uJywgJy1waCcsICc3LjAnLCAnLXRuJywgJzgnLCAnLW1hJywgJzIwMCcsICctbWV0YWxfYmluZGluZycsICctaW1hZScsICc8aW5maWxlLm1hZT4nLCAnLW9tYWUnLCAnPG91dGZpbGUubWFlPic=

> <r_lp_tautomer_probability>
1

> <r_epik_Ionization_Penalty>
0.0522664

> <r_epik_Ionization_Penalty_Charging>
0

> <r_epik_Ionization_Penalty_Neutral>
0.0522664

> <r_epik_State_Penalty>
0.0369431

> <r_epik_Charging_Adjusted_Penalty>
0.0369431

> <i_epik_Tot_Q>
0

> <i_epik_Tot_abs_Q>
0

> <r_epik_Metal_State_Penalty>
0.0404664

> <b_epik_Metal_Only>
0

> <s_epik_Chemistry_Notes>
This compound contains an electron-poor aromatic ring that is susceptible to covalent hydrolysis at low pH, typically resulting in measured values for nitrogen ring protonation that are around two units higher than predicted values.

> <s_lp_Force_Field>
OPLS_2005

> <r_lp_Energy>
30.7934

> <b_lp_Chiralities_Consistent>
1

> <s_lp_Variant>
AV-unprocessed.smi:45-1

> <Gold.Version>
5.8.1

> <Gold.Id.Protein>
6NUR|6NUR_protein|mol2

> <Gold.PLP.Fitness>
51.6014

> <Gold.PLP.PLP>
-49.1260

> <Gold.PLP.part.hbond>
-1.3764

> <Gold.PLP.part.metal>
0.0000

> <Gold.PLP.part.buried>
-5.9386

> <Gold.PLP.part.nonpolar>
-42.3258

> <Gold.PLP.part.repulsive>
0.3986

> <Gold.PLP.ligand.clash>
0.0000

> <Gold.PLP.ligand.torsion>
1.5779

> <Gold.PLP.Chemscore.Hbond>
1.0000

> <Gold.PLP.Chemscore.CHOScore>
0.6818

> <Gold.PLP.Chemscore.Metal>
0.0000

> <Gold.Chemscore.Hbonds>
donor molecule, donor type, donor heavy atom, donor atom, acceptor molecule, acceptor atom, score
      P1  H  6896  6907       L1    23  1.00
      L1  C    28    57       P1  7948  0.47

> <Gold.PLP.Chemscore.Internal.Correction>
0.5857

> <Gold.Rescore>
     Score         DG    S(hbond)    S(metal)    S(lipo)     H(rot)  DE(clash)    DE(int)     intcor
     12.09     -16.46       0.96        0.00     135.56       3.16       0.06       4.31       ----

> <Gold.Chemscore.Fitness>
12.0945

> <Gold.Chemscore.DG>
-16.4583

> <Gold.Chemscore.ZeroCoef>
-5.4800

> <Gold.Chemscore.Hbond>
0.9581

> <Gold.Chemscore.Metal>
0.0000

> <Gold.Chemscore.Lipo>
135.5589

> <Gold.Chemscore.Internal_Hbond>
0.0000

> <Gold.Chemscore.DEClash>
0.0572

> <Gold.Chemscore.DEInternal>
4.3066

> <Gold.Chemscore.Rot>
3.1571

> <Gold.Chemscore.Internal.Correction>
   9.000000E+99

> <Gold.Chemscore.Hbonds>
donor molecule, donor type, donor heavy atom, donor atom, acceptor molecule, acceptor atom, score
      P1  H  6896  6907       L1    23  0.25

> <Gold.Chemscore.Hbond.Weighted>
-3.2000

> <Gold.Chemscore.Metal.Weighted>
-0.0000

> <Gold.Chemscore.Lipo.Weighted>
-15.8604

> <Gold.Chemscore.Internal_Hbond.Weighted>
0.0000

> <Gold.Chemscore.DEClash.Weighted>
0.0572

> <Gold.Chemscore.DEInternal.Weighted>
4.3066

> <Gold.Chemscore.Rot.Weighted>
8.0822

> <Gold.Chemscore.Internal.Correction.Weighted>
   9.000000E+99

> <Gold.Protein.RotatedTorsions>
[ 6907 6896 6895 6894 ] final -102.46 input  -60.11 | X-H torsion
[ 7974 7965 7964 7962 ] final   16.19 input  175.53 | X-H torsion
[ 8008 7997 7996 7995 ] final    5.77 input   59.86 | X-H torsion
[ 10167 10162 10161 10158 ] final  178.55 input  -65.29 | X-H torsion
[ 10718 10713 10712 10709 ] final   87.99 input   66.30 | X-H torsion
[ 10763 10752 10751 10750 ] final  -54.83 input  -60.55 | X-H torsion
[ 11005 11000 10999 10996 ] final   63.31 input  -57.11 | X-H torsion

> <Gold.Protein.ActiveResidues>
 VAL166  LYS551  ARG553  GLY616  TRP617  ASP618  TYR619  PRO620  LYS621  CYS622 
 ASP623  PHE694  ASN695  SER759  ASP760  ASP761  ALA762  ILE779  LEU786  VAL792 
 PHE793  MET794  SER795  GLU796  ALA797  LYS798  CYS799  TRP800  GLU811  SER814 

> <Gold.Protein.RotatedAtoms>
  150.7197  134.0577  159.3820 H   0  0  0  0  0  0  0  0  0  0  0  0  # atno 6907 bound_to 6896
  151.8556  135.0540  160.0473 H   0  0  0  0  0  0  0  0  0  0  0  0  # atno 6908 bound_to 6896
  152.2757  133.5387  159.5503 H   0  0  0  0  0  0  0  0  0  0  0  0  # atno 6909 bound_to 6896
  146.2257  139.8783  142.8575 H   0  0  0  0  0  0  0  0  0  0  0  0  # atno 7974 bound_to 7965
  154.7326  140.2733  155.6443 H   0  0  0  0  0  0  0  0  0  0  0  0  # atno 8008 bound_to 7997
  156.2853  140.2713  156.1956 H   0  0  0  0  0  0  0  0  0  0  0  0  # atno 8009 bound_to 7997
  155.0362  140.0371  157.2482 H   0  0  0  0  0  0  0  0  0  0  0  0  # atno 8010 bound_to 7997
  139.5299  144.2666  152.0663 H   0  0  0  0  0  0  0  0  0  0  0  0  # atno 10167 bound_to 10162
  157.6945  131.0277  150.3207 H   0  0  0  0  0  0  0  0  0  0  0  0  # atno 10718 bound_to 10713
  154.1810  135.6443  153.5034 H   0  0  0  0  0  0  0  0  0  0  0  0  # atno 10763 bound_to 10752
  153.0059  135.5406  154.6514 H   0  0  0  0  0  0  0  0  0  0  0  0  # atno 10764 bound_to 10752
  154.5878  135.2931  155.0639 H   0  0  0  0  0  0  0  0  0  0  0  0  # atno 10765 bound_to 10752
  140.0033  134.6408  155.9895 H   0  0  0  0  0  0  0  0  0  0  0  0  # atno 11005 bound_to 11000
  145.2538  141.0053  143.3866 LP  0  0  0  0  0  0  0  0  0  0  0  0  # atno 17320 bound_to 7965
  144.9353  139.4251  143.6475 LP  0  0  0  0  0  0  0  0  0  0  0  0  # atno 17321 bound_to 7965
  140.2128  144.4545  150.6378 LP  0  0  0  0  0  0  0  0  0  0  0  0  # atno 17342 bound_to 10162
  140.6469  143.2215  151.6165 LP  0  0  0  0  0  0  0  0  0  0  0  0  # atno 17343 bound_to 10162
  156.3695  130.3861  149.7187 LP  0  0  0  0  0  0  0  0  0  0  0  0  # atno 17370 bound_to 10713
  156.4606  130.7950  151.2970 LP  0  0  0  0  0  0  0  0  0  0  0  0  # atno 17371 bound_to 10713
  141.1658  133.6537  156.4476 LP  0  0  0  0  0  0  0  0  0  0  0  0  # atno 17394 bound_to 11000
  140.4687  134.6773  157.5119 LP  0  0  0  0  0  0  0  0  0  0  0  0  # atno 17395 bound_to 11000

$$$$
