AV-unprocessed.smi:2198|AV-procd|sdf|8915|dock2
  -GOLD-   2272012133D 1   1.00000     0.00000
 Structure written by MMmdl.
 43 44  0  0  0  0  0  0  0  0  1 V2000
  151.2841  137.6429  156.1350 C   0  0  0  0  0  0  0  0  0  0  0  0
  151.8392  138.1227  157.4585 C   0  0  0  0  0  0  0  0  0  0  0  0
  150.9504  137.9969  158.5132 N   0  0  0  0  0  0  0  0  0  0  0  0
  151.3690  138.4106  159.7653 C   0  0  0  0  0  0  0  0  0  0  0  0
  150.3347  138.2412  160.8646 C   0  0  0  0  0  0  0  0  0  0  0  0
  152.6127  138.9188  159.9578 C   0  0  0  0  0  0  0  0  0  0  0  0
  153.1144  139.3796  161.3258 C   0  0  0  0  0  0  0  0  0  0  0  0
  153.9590  140.6564  161.3326 C   0  0  0  0  0  0  0  0  0  0  0  0
  155.1488  140.6167  161.6464 O   0  0  0  0  0  0  0  0  0  0  0  0
  153.3253  141.7863  160.9841 N   0  0  0  0  0  0  0  0  0  0  0  0
  153.9284  143.1171  160.9360 C   0  0  2  0  0  0  0  0  0  0  0  0
  153.7214  143.8450  162.2783 C   0  0  0  0  0  0  0  0  0  0  0  0
  152.2583  144.2696  162.4907 C   0  0  0  0  0  0  0  0  0  0  0  0
  151.7461  145.1156  161.3148 C   0  0  0  0  0  0  0  0  0  0  0  0
  151.9026  144.3723  159.9746 C   0  0  1  0  0  0  0  0  0  0  0  0
  151.3867  145.2170  158.8010 C   0  0  0  0  0  0  0  0  0  0  0  0
  153.3710  143.9499  159.7606 C   0  0  0  0  0  0  0  0  0  0  0  0
  153.5220  139.0213  158.7920 C   0  0  0  0  0  0  0  0  0  0  0  0
  154.6659  139.4598  158.9042 O   0  0  0  0  0  0  0  0  0  0  0  0
  153.0456  138.5956  157.5414 N   0  0  0  0  0  0  0  0  0  0  0  0
  150.0187  137.6196  158.4154 H   0  0  0  0  0  0  0  0  0  0  0  0
  151.9466  137.9154  155.3124 H   0  0  0  0  0  0  0  0  0  0  0  0
  150.3069  138.0880  155.9448 H   0  0  0  0  0  0  0  0  0  0  0  0
  151.1765  136.5581  156.1425 H   0  0  0  0  0  0  0  0  0  0  0  0
  150.0777  139.2080  161.2977 H   0  0  0  0  0  0  0  0  0  0  0  0
  150.7210  137.5993  161.6565 H   0  0  0  0  0  0  0  0  0  0  0  0
  149.4166  137.7896  160.4867 H   0  0  0  0  0  0  0  0  0  0  0  0
  153.7050  138.5731  161.7615 H   0  0  0  0  0  0  0  0  0  0  0  0
  152.2815  139.5169  162.0161 H   0  0  0  0  0  0  0  0  0  0  0  0
  152.3483  141.7226  160.7377 H   0  0  0  0  0  0  0  0  0  0  0  0
  155.0033  142.9932  160.7923 H   0  0  0  0  0  0  0  0  0  0  0  0
  154.0533  143.2157  163.1049 H   0  0  0  0  0  0  0  0  0  0  0  0
  154.3540  144.7331  162.3022 H   0  0  0  0  0  0  0  0  0  0  0  0
  151.6296  143.3862  162.6075 H   0  0  0  0  0  0  0  0  0  0  0  0
  152.1690  144.8337  163.4194 H   0  0  0  0  0  0  0  0  0  0  0  0
  150.6994  145.3734  161.4799 H   0  0  0  0  0  0  0  0  0  0  0  0
  152.2939  146.0584  161.2806 H   0  0  0  0  0  0  0  0  0  0  0  0
  151.2916  143.4696  160.0173 H   0  0  0  0  0  0  0  0  0  0  0  0
  151.9569  146.1404  158.6950 H   0  0  0  0  0  0  0  0  0  0  0  0
  150.3395  145.4864  158.9416 H   0  0  0  0  0  0  0  0  0  0  0  0
  151.4620  144.6693  157.8611 H   0  0  0  0  0  0  0  0  0  0  0  0
  153.9849  144.8437  159.6419 H   0  0  0  0  0  0  0  0  0  0  0  0
  153.4690  143.3953  158.8266 H   0  0  0  0  0  0  0  0  0  0  0  0
  1 22  1  0  0  0  0
  1 23  1  0  0  0  0
  1 24  1  0  0  0  0
  1  2  1  0  0  0  0
  2  3  1  0  0  0  0
  2 20  2  0  0  0  0
  3  4  1  0  0  0  0
  3 21  1  0  0  0  0
  4  6  2  0  0  0  0
  4  5  1  0  0  0  0
  5 25  1  0  0  0  0
  5 26  1  0  0  0  0
  5 27  1  0  0  0  0
  6 18  1  0  0  0  0
  6  7  1  0  0  0  0
  7  8  1  0  0  0  0
  7 28  1  0  0  0  0
  7 29  1  0  0  0  0
  8  9  2  0  0  0  0
  8 10  1  0  0  0  0
 10 11  1  0  0  0  0
 10 30  1  0  0  0  0
 11 17  1  0  0  0  0
 11 12  1  0  0  0  0
 11 31  1  0  0  0  0
 12 13  1  0  0  0  0
 12 32  1  0  0  0  0
 12 33  1  0  0  0  0
 13 14  1  0  0  0  0
 13 34  1  0  0  0  0
 13 35  1  0  0  0  0
 14 15  1  0  0  0  0
 14 36  1  0  0  0  0
 14 37  1  0  0  0  0
 15 16  1  0  0  0  0
 15 17  1  0  0  0  0
 15 38  1  0  0  0  0
 16 39  1  0  0  0  0
 16 40  1  0  0  0  0
 16 41  1  0  0  0  0
 17 42  1  0  0  0  0
 17 43  1  0  0  0  0
 18 19  2  0  0  0  0
 18 20  1  0  0  0  0
M  END
> <s_m_source_file>
AV-unprocessed.smi

> <i_m_source_file_index>
2198

> <i_lp_mmshare_version>
43012

> <i_f3d_flags>
0

> <s_epik_input>
W0NIM11jMW5jKFtDSDNdKWMoYyg9TylbbkhdMSlbQ0gyXUMoPU8pW05IXVtDQEBIXTJbQ0gyXVtDSDJdW0NIMl1bQ0BASF0oW0NIM10pW0NIMl0y

> <s_epik_cmdline>
J2VwaWtfcHl0aG9uJywgJy1waCcsICc3LjAnLCAnLXRuJywgJzgnLCAnLW1hJywgJzIwMCcsICctbWV0YWxfYmluZGluZycsICctaW1hZScsICc8aW5maWxlLm1hZT4nLCAnLW9tYWUnLCAnPG91dGZpbGUubWFlPic=

> <r_lp_tautomer_probability>
0.156392

> <r_epik_Ionization_Penalty>
0.0136514

> <r_epik_Ionization_Penalty_Charging>
0.0135207

> <r_epik_Ionization_Penalty_Neutral>
0.000130657

> <r_epik_State_Penalty>
1.15342

> <r_epik_Charging_Adjusted_Penalty>
1.16694

> <i_epik_Tot_Q>
0

> <i_epik_Tot_abs_Q>
0

> <r_epik_Metal_State_Penalty>
1.31404

> <b_epik_Metal_Only>
0

> <s_lp_Force_Field>
OPLS_2005

> <r_lp_Energy>
13.5111

> <b_lp_Chiralities_Consistent>
1

> <s_lp_Variant>
AV-unprocessed.smi:2198-5

> <Gold.Version>
5.8.1

> <Gold.Id.Protein>
6NUR|6NUR_protein|mol2

> <Gold.PLP.Fitness>
41.2859

> <Gold.PLP.PLP>
-39.9285

> <Gold.PLP.part.hbond>
-0.6545

> <Gold.PLP.part.metal>
0.0000

> <Gold.PLP.part.buried>
-5.4596

> <Gold.PLP.part.nonpolar>
-35.3233

> <Gold.PLP.part.repulsive>
0.1128

> <Gold.PLP.ligand.clash>
0.0000

> <Gold.PLP.ligand.torsion>
0.6697

> <Gold.PLP.Chemscore.Hbond>
0.8960

> <Gold.PLP.Chemscore.CHOScore>
0.0000

> <Gold.PLP.Chemscore.Metal>
0.0000

> <Gold.Chemscore.Hbonds>
donor molecule, donor type, donor heavy atom, donor atom, acceptor molecule, acceptor atom, score
      P1  H  7997  8010       L1    19  0.09

> <Gold.PLP.Chemscore.Internal.Correction>
0.0089

> <Gold.Rescore>
     Score         DG    S(hbond)    S(metal)    S(lipo)     H(rot)  DE(clash)    DE(int)     intcor
     14.98     -16.66       0.87        0.00     103.21       1.48       0.08       1.59       ----

> <Gold.Chemscore.Fitness>
14.9832

> <Gold.Chemscore.DG>
-16.6603

> <Gold.Chemscore.ZeroCoef>
-5.4800

> <Gold.Chemscore.Hbond>
0.8664

> <Gold.Chemscore.Metal>
0.0000

> <Gold.Chemscore.Lipo>
103.2097

> <Gold.Chemscore.Internal_Hbond>
0.0000

> <Gold.Chemscore.DEClash>
0.0824

> <Gold.Chemscore.DEInternal>
1.5947

> <Gold.Chemscore.Rot>
1.4801

> <Gold.Chemscore.Internal.Correction>
   9.000000E+99

> <Gold.Chemscore.Hbond.Weighted>
-2.8939

> <Gold.Chemscore.Metal.Weighted>
-0.0000

> <Gold.Chemscore.Lipo.Weighted>
-12.0755

> <Gold.Chemscore.Internal_Hbond.Weighted>
0.0000

> <Gold.Chemscore.DEClash.Weighted>
0.0824

> <Gold.Chemscore.DEInternal.Weighted>
1.5947

> <Gold.Chemscore.Rot.Weighted>
3.7891

> <Gold.Chemscore.Internal.Correction.Weighted>
   9.000000E+99

> <Gold.Protein.RotatedTorsions>
[ 6907 6896 6895 6894 ] final  179.02 input  -60.11 | X-H torsion
[ 7974 7965 7964 7962 ] final   -2.96 input  175.53 | X-H torsion
[ 8008 7997 7996 7995 ] final   47.65 input   59.86 | X-H torsion
[ 10167 10162 10161 10158 ] final   78.85 input  -65.29 | X-H torsion
[ 10718 10713 10712 10709 ] final  -59.80 input   66.30 | X-H torsion
[ 10763 10752 10751 10750 ] final   85.52 input  -60.55 | X-H torsion
[ 11005 11000 10999 10996 ] final  175.38 input  -57.11 | X-H torsion

> <Gold.Protein.ActiveResidues>
 VAL166  LYS551  ARG553  GLY616  TRP617  ASP618  TYR619  PRO620  LYS621  CYS622 
 ASP623  PHE694  ASN695  SER759  ASP760  ASP761  ALA762  ILE779  LEU786  VAL792 
 PHE793  MET794  SER795  GLU796  ALA797  LYS798  CYS799  TRP800  GLU811  SER814 

> <Gold.Protein.RotatedAtoms>
  151.6784  133.3312  159.3213 H   0  0  0  0  0  0  0  0  0  0  0  0  # atno 6907 bound_to 6896
  150.7834  134.6802  159.6449 H   0  0  0  0  0  0  0  0  0  0  0  0  # atno 6908 bound_to 6896
  152.3898  134.6463  160.0164 H   0  0  0  0  0  0  0  0  0  0  0  0  # atno 6909 bound_to 6896
  146.2397  140.1649  142.8332 H   0  0  0  0  0  0  0  0  0  0  0  0  # atno 7974 bound_to 7965
  155.3727  140.3424  155.4244 H   0  0  0  0  0  0  0  0  0  0  0  0  # atno 8008 bound_to 7997
  156.1654  140.1614  156.8575 H   0  0  0  0  0  0  0  0  0  0  0  0  # atno 8009 bound_to 7997
  154.5180  140.0774  156.8100 H   0  0  0  0  0  0  0  0  0  0  0  0  # atno 8010 bound_to 7997
  139.9665  144.5924  150.8024 H   0  0  0  0  0  0  0  0  0  0  0  0  # atno 10167 bound_to 10162
  156.1036  130.4183  150.0765 H   0  0  0  0  0  0  0  0  0  0  0  0  # atno 10718 bound_to 10713
  153.1483  135.4614  154.9599 H   0  0  0  0  0  0  0  0  0  0  0  0  # atno 10763 bound_to 10752
  154.7804  135.3186  154.8004 H   0  0  0  0  0  0  0  0  0  0  0  0  # atno 10764 bound_to 10752
  153.8514  135.6921  153.4846 H   0  0  0  0  0  0  0  0  0  0  0  0  # atno 10765 bound_to 10752
  140.3616  134.7108  157.4335 H   0  0  0  0  0  0  0  0  0  0  0  0  # atno 11005 bound_to 11000
  145.0059  140.8672  143.5254 LP  0  0  0  0  0  0  0  0  0  0  0  0  # atno 17320 bound_to 7965
  145.1675  139.2423  143.5359 LP  0  0  0  0  0  0  0  0  0  0  0  0  # atno 17321 bound_to 7965
  140.7536  143.3011  151.3077 LP  0  0  0  0  0  0  0  0  0  0  0  0  # atno 17342 bound_to 10162
  139.6514  144.0356  152.2628 LP  0  0  0  0  0  0  0  0  0  0  0  0  # atno 17343 bound_to 10162
  156.8746  130.9536  151.3606 LP  0  0  0  0  0  0  0  0  0  0  0  0  # atno 17370 bound_to 10713
  157.6210  130.8655  149.9108 LP  0  0  0  0  0  0  0  0  0  0  0  0  # atno 17371 bound_to 10713
  140.0622  134.5979  155.8736 LP  0  0  0  0  0  0  0  0  0  0  0  0  # atno 17394 bound_to 11000
  141.1982  133.6600  156.5781 LP  0  0  0  0  0  0  0  0  0  0  0  0  # atno 17395 bound_to 11000

$$$$
