AV-unprocessed.smi:870|AV-procd|sdf|4009|dock1
  -GOLD-   22720 1493D 1   1.00000     0.00000
 Structure written by MMmdl.
 47 49  0  0  0  0  0  0  0  0  2 V2000
  153.0219  138.0231  156.1956 C   0  0  0  0  0  0  0  0  0  0  0  0
  153.0607  139.2258  156.9437 O   0  0  0  0  0  0  0  0  0  0  0  0
  151.7920  139.8543  157.0265 C   0  0  0  0  0  0  0  0  0  0  0  0
  151.8435  141.1100  157.8338 C   0  0  0  0  0  0  0  0  0  0  0  0
  151.4901  142.3556  157.4078 N   0  3  0  0  0  0  0  0  0  0  0  0
  151.6752  143.2784  158.4378 C   0  0  0  0  0  0  0  0  0  0  0  0
  151.4549  144.6516  158.4809 C   0  0  0  0  0  0  0  0  0  0  0  0
  151.7453  145.3012  159.6984 C   0  0  0  0  0  0  0  0  0  0  0  0
  152.2330  144.5882  160.8127 C   0  0  0  0  0  0  0  0  0  0  0  0
  152.4531  143.1962  160.7568 C   0  0  0  0  0  0  0  0  0  0  0  0
  152.1655  142.5609  159.5486 C   0  0  0  0  0  0  0  0  0  0  0  0
  152.2535  141.2276  159.1291 N   0  0  0  0  0  0  0  0  0  0  0  0
  152.7427  140.1977  160.0597 C   0  0  0  0  0  0  0  0  0  0  0  0
  154.1995  140.4359  160.5051 C   0  0  2  0  0  0  0  0  0  0  0  0
  155.0807  140.2225  159.4211 O   0  0  0  0  0  0  0  0  0  0  0  0
  154.6159  139.5146  161.6602 C   0  0  0  0  0  0  0  0  0  0  0  0
  154.5565  138.1675  161.2115 O   0  0  0  0  0  0  0  0  0  0  0  0
  154.4761  137.1620  162.1525 C   0  0  0  0  0  0  0  0  0  0  0  0
  154.1185  137.3786  163.5079 C   0  0  0  0  0  0  0  0  0  0  0  0
  154.0566  136.3017  164.4124 C   0  0  0  0  0  0  0  0  0  0  0  0
  154.3496  134.9970  163.9775 C   0  0  0  0  0  0  0  0  0  0  0  0
  154.7055  134.7701  162.6357 C   0  0  0  0  0  0  0  0  0  0  0  0
  154.7692  135.8457  161.7251 C   0  0  0  0  0  0  0  0  0  0  0  0
  155.1570  135.5843  160.2817 C   0  0  0  0  0  0  0  0  0  0  0  0
  154.0176  137.5811  156.1605 H   0  0  0  0  0  0  0  0  0  0  0  0
  152.6994  138.2071  155.1700 H   0  0  0  0  0  0  0  0  0  0  0  0
  152.3471  137.2970  156.6506 H   0  0  0  0  0  0  0  0  0  0  0  0
  151.4311  140.0950  156.0257 H   0  0  0  0  0  0  0  0  0  0  0  0
  151.0692  139.1764  157.4828 H   0  0  0  0  0  0  0  0  0  0  0  0
  151.0795  145.1996  157.6291 H   0  0  0  0  0  0  0  0  0  0  0  0
  151.5899  146.3673  159.7799 H   0  0  0  0  0  0  0  0  0  0  0  0
  152.4418  145.1195  161.7300 H   0  0  0  0  0  0  0  0  0  0  0  0
  152.8220  142.6607  161.6191 H   0  0  0  0  0  0  0  0  0  0  0  0
  152.0819  140.2109  160.9272 H   0  0  0  0  0  0  0  0  0  0  0  0
  152.6220  139.2134  159.6070 H   0  0  0  0  0  0  0  0  0  0  0  0
  154.3196  141.4727  160.8215 H   0  0  0  0  0  0  0  0  0  0  0  0
  154.9128  140.8817  158.7652 H   0  0  0  0  0  0  0  0  0  0  0  0
  155.6226  139.7675  161.9978 H   0  0  0  0  0  0  0  0  0  0  0  0
  153.9319  139.6476  162.5003 H   0  0  0  0  0  0  0  0  0  0  0  0
  153.8852  138.3641  163.8811 H   0  0  0  0  0  0  0  0  0  0  0  0
  153.7836  136.4780  165.4425 H   0  0  0  0  0  0  0  0  0  0  0  0
  154.3018  134.1712  164.6721 H   0  0  0  0  0  0  0  0  0  0  0  0
  154.9305  133.7654  162.3089 H   0  0  0  0  0  0  0  0  0  0  0  0
  155.3502  134.5258  160.1048 H   0  0  0  0  0  0  0  0  0  0  0  0
  156.0589  136.1408  160.0258 H   0  0  0  0  0  0  0  0  0  0  0  0
  154.3563  135.8990  159.6116 H   0  0  0  0  0  0  0  0  0  0  0  0
  151.1471  142.5538  156.4765 H   0  0  0  0  0  0  0  0  0  0  0  0
  1  2  1  0  0  0  0
  1 25  1  0  0  0  0
  1 26  1  0  0  0  0
  1 27  1  0  0  0  0
  2  3  1  0  0  0  0
  3  4  1  0  0  0  0
  3 28  1  0  0  0  0
  3 29  1  0  0  0  0
  4 12  1  0  0  0  0
  4  5  2  0  0  0  0
  5  6  1  0  0  0  0
  5 47  1  0  0  0  0
  6 11  2  0  0  0  0
  6  7  1  0  0  0  0
  7  8  2  0  0  0  0
  7 30  1  0  0  0  0
  8  9  1  0  0  0  0
  8 31  1  0  0  0  0
  9 10  2  0  0  0  0
  9 32  1  0  0  0  0
 10 11  1  0  0  0  0
 10 33  1  0  0  0  0
 11 12  1  0  0  0  0
 12 13  1  0  0  0  0
 13 14  1  0  0  0  0
 13 34  1  0  0  0  0
 13 35  1  0  0  0  0
 14 15  1  0  0  0  0
 14 16  1  0  0  0  0
 14 36  1  0  0  0  0
 15 37  1  0  0  0  0
 16 17  1  0  0  0  0
 16 38  1  0  0  0  0
 16 39  1  0  0  0  0
 17 18  1  0  0  0  0
 18 23  1  0  0  0  0
 18 19  2  0  0  0  0
 19 20  1  0  0  0  0
 19 40  1  0  0  0  0
 20 21  2  0  0  0  0
 20 41  1  0  0  0  0
 21 22  1  0  0  0  0
 21 42  1  0  0  0  0
 22 23  2  0  0  0  0
 22 43  1  0  0  0  0
 23 24  1  0  0  0  0
 24 44  1  0  0  0  0
 24 45  1  0  0  0  0
 24 46  1  0  0  0  0
M  CHG  1   5   1
M  END
> <s_m_source_file>
AV-unprocessed.smi

> <i_m_source_file_index>
870

> <i_lp_mmshare_version>
43012

> <i_f3d_flags>
0

> <s_epik_input>
W2NIXTFbY0hdW2NIXVtjSF1jKGMxMiluKGMobjIpW0NIMl1PW0NIM10pW0NIMl1bQ0BIXShbT0hdKVtDSDJdT2MzW2NIXVtjSF1bY0hdW2NIXWMzW0NIM10=

> <s_epik_cmdline>
J2VwaWtfcHl0aG9uJywgJy1waCcsICc3LjAnLCAnLXRuJywgJzgnLCAnLW1hJywgJzIwMCcsICctbWV0YWxfYmluZGluZycsICctaW1hZScsICc8aW5maWxlLm1hZT4nLCAnLW9tYWUnLCAnPG91dGZpbGUubWFlPic=

> <r_lp_tautomer_probability>
1

> <r_epik_Ionization_Penalty>
1.55338

> <r_epik_Ionization_Penalty_Charging>
1.55338

> <r_epik_Ionization_Penalty_Neutral>
2.3993e-06

> <r_epik_State_Penalty>
1.64778

> <r_epik_Charging_Adjusted_Penalty>
3.20115

> <i_epik_Tot_Q>
1

> <i_epik_Tot_abs_Q>
1

> <r_epik_Metal_State_Penalty>
5.70266

> <b_epik_Metal_Only>
0

> <s_lp_Force_Field>
OPLS_2005

> <r_lp_Energy>
18.2102

> <b_lp_Chiralities_Consistent>
1

> <s_lp_Variant>
AV-unprocessed.smi:870-3

> <Gold.Version>
5.8.1

> <Gold.Id.Protein>
6NUR|6NUR_protein|mol2

> <Gold.PLP.Fitness>
54.1107

> <Gold.PLP.PLP>
-51.6152

> <Gold.PLP.part.hbond>
-1.9215

> <Gold.PLP.part.metal>
0.0000

> <Gold.PLP.part.buried>
-4.1180

> <Gold.PLP.part.nonpolar>
-45.1345

> <Gold.PLP.part.repulsive>
0.0545

> <Gold.PLP.ligand.clash>
0.0000

> <Gold.PLP.ligand.torsion>
0.3675

> <Gold.PLP.Chemscore.Hbond>
1.0000

> <Gold.PLP.Chemscore.CHOScore>
0.0000

> <Gold.PLP.Chemscore.Metal>
0.0000

> <Gold.Chemscore.Hbonds>
donor molecule, donor type, donor heavy atom, donor atom, acceptor molecule, acceptor atom, score
      P1  H  7997  8010       L1     2  1.00

> <Gold.PLP.Chemscore.Internal.Correction>
0.2305

> <Gold.Rescore>
     Score         DG    S(hbond)    S(metal)    S(lipo)     H(rot)  DE(clash)    DE(int)     intcor
     19.94     -20.56       0.98        0.00     154.54       2.45       0.16       0.46       ----

> <Gold.Chemscore.Fitness>
19.9376

> <Gold.Chemscore.DG>
-20.5597

> <Gold.Chemscore.ZeroCoef>
-5.4800

> <Gold.Chemscore.Hbond>
0.9787

> <Gold.Chemscore.Metal>
0.0000

> <Gold.Chemscore.Lipo>
154.5417

> <Gold.Chemscore.Internal_Hbond>
0.0000

> <Gold.Chemscore.DEClash>
0.1637

> <Gold.Chemscore.DEInternal>
0.4583

> <Gold.Chemscore.Rot>
2.4494

> <Gold.Chemscore.Internal.Correction>
   9.000000E+99

> <Gold.Chemscore.Hbonds>
donor molecule, donor type, donor heavy atom, donor atom, acceptor molecule, acceptor atom, score
      P1  H  7997  8010       L1     2  0.89

> <Gold.Chemscore.Hbond.Weighted>
-3.2687

> <Gold.Chemscore.Metal.Weighted>
-0.0000

> <Gold.Chemscore.Lipo.Weighted>
-18.0814

> <Gold.Chemscore.Internal_Hbond.Weighted>
0.0000

> <Gold.Chemscore.DEClash.Weighted>
0.1637

> <Gold.Chemscore.DEInternal.Weighted>
0.4583

> <Gold.Chemscore.Rot.Weighted>
6.2704

> <Gold.Chemscore.Internal.Correction.Weighted>
   9.000000E+99

> <Gold.Protein.RotatedTorsions>
[ 6907 6896 6895 6894 ] final  104.02 input  -60.11 | X-H torsion
[ 7974 7965 7964 7962 ] final   -6.37 input  175.53 | X-H torsion
[ 8008 7997 7996 7995 ] final   44.33 input   59.86 | X-H torsion
[ 10167 10162 10161 10158 ] final   -6.69 input  -65.29 | X-H torsion
[ 10718 10713 10712 10709 ] final  174.70 input   66.30 | X-H torsion
[ 10763 10752 10751 10750 ] final   79.85 input  -60.55 | X-H torsion
[ 11005 11000 10999 10996 ] final   -9.76 input  -57.11 | X-H torsion

> <Gold.Protein.ActiveResidues>
 VAL166  LYS551  ARG553  GLY616  TRP617  ASP618  TYR619  PRO620  LYS621  CYS622 
 ASP623  PHE694  ASN695  SER759  ASP760  ASP761  ALA762  ILE779  LEU786  VAL792 
 PHE793  MET794  SER795  GLU796  ALA797  LYS798  CYS799  TRP800  GLU811  SER814 

> <Gold.Protein.RotatedAtoms>
  152.5277  133.9739  159.7774 H   0  0  0  0  0  0  0  0  0  0  0  0  # atno 6907 bound_to 6896
  151.0006  133.6052  159.2702 H   0  0  0  0  0  0  0  0  0  0  0  0  # atno 6908 bound_to 6896
  151.3162  135.0813  159.9343 H   0  0  0  0  0  0  0  0  0  0  0  0  # atno 6909 bound_to 6896
  146.2332  140.2160  142.8336 H   0  0  0  0  0  0  0  0  0  0  0  0  # atno 7974 bound_to 7965
  155.3176  140.3395  155.4242 H   0  0  0  0  0  0  0  0  0  0  0  0  # atno 8008 bound_to 7997
  156.1925  140.1703  156.8101 H   0  0  0  0  0  0  0  0  0  0  0  0  # atno 8009 bound_to 7997
  154.5459  140.0715  156.8571 H   0  0  0  0  0  0  0  0  0  0  0  0  # atno 8010 bound_to 7997
  140.7005  143.6166  150.8653 H   0  0  0  0  0  0  0  0  0  0  0  0  # atno 10167 bound_to 10162
  156.9457  131.0015  151.2959 H   0  0  0  0  0  0  0  0  0  0  0  0  # atno 10718 bound_to 10713
  153.0986  135.4824  154.8824 H   0  0  0  0  0  0  0  0  0  0  0  0  # atno 10763 bound_to 10752
  154.7353  135.3069  154.8825 H   0  0  0  0  0  0  0  0  0  0  0  0  # atno 10764 bound_to 10752
  153.9449  135.6830  153.4797 H   0  0  0  0  0  0  0  0  0  0  0  0  # atno 10765 bound_to 10752
  140.7376  133.8697  155.8942 H   0  0  0  0  0  0  0  0  0  0  0  0  # atno 11005 bound_to 11000
  144.9669  140.8331  143.5479 LP  0  0  0  0  0  0  0  0  0  0  0  0  # atno 17320 bound_to 7965
  145.2137  139.2192  143.5129 LP  0  0  0  0  0  0  0  0  0  0  0  0  # atno 17321 bound_to 7965
  139.9888  143.5870  152.2917 LP  0  0  0  0  0  0  0  0  0  0  0  0  # atno 17342 bound_to 10162
  139.6518  144.7661  151.2134 LP  0  0  0  0  0  0  0  0  0  0  0  0  # atno 17343 bound_to 10162
  157.5755  130.8340  149.8450 LP  0  0  0  0  0  0  0  0  0  0  0  0  # atno 17370 bound_to 10713
  156.0384  130.3745  150.1498 LP  0  0  0  0  0  0  0  0  0  0  0  0  # atno 17371 bound_to 10713
  140.9866  134.1335  157.4447 LP  0  0  0  0  0  0  0  0  0  0  0  0  # atno 17394 bound_to 11000
  139.8813  135.0027  156.6144 LP  0  0  0  0  0  0  0  0  0  0  0  0  # atno 17395 bound_to 11000

$$$$
