AV-unprocessed.smi:108|AV-procd|sdf|1030|dock2
  -GOLD-   2262018 33D 1   1.00000     0.00000
 Structure written by MMmdl.
 59 62  0  0  0  0  0  0  0  0  1 V2000
  148.7243  142.8364  158.4432 O   0  0  0  0  0  0  0  0  0  0  0  0
  148.4014  142.2815  157.3906 C   0  0  0  0  0  0  0  0  0  0  0  0
  146.9125  142.2501  156.9822 C   0  0  0  0  0  0  0  0  0  0  0  0
  146.0175  142.9007  157.9644 N   0  0  0  0  0  0  0  0  0  0  0  0
  145.1170  143.8929  157.5056 C   0  0  0  0  0  0  0  0  0  0  0  0
  145.0799  144.2247  156.3196 O   0  0  0  0  0  0  0  0  0  0  0  0
  144.2545  144.4761  158.5253 C   0  0  0  0  0  0  0  0  0  0  0  0
  143.3281  145.3837  158.1733 F   0  0  0  0  0  0  0  0  0  0  0  0
  144.3583  144.1066  159.8182 C   0  0  0  0  0  0  0  0  0  0  0  0
  145.2867  143.1811  160.2668 N   0  0  0  0  0  0  0  0  0  0  0  0
  145.3556  142.7224  161.7163 C   0  0  1  0  0  0  0  0  0  0  0  0
  146.6616  143.0894  162.4338 C   0  0  0  0  0  0  0  0  0  0  0  0
  146.3045  144.3730  163.1787 C   0  0  0  0  0  0  0  0  0  0  0  0
  144.8306  144.6239  162.8422 C   0  0  0  0  0  0  0  0  0  0  0  0
  144.3410  143.3557  162.4283 O   0  0  0  0  0  0  0  0  0  0  0  0
  146.1127  142.5251  159.3260 C   0  0  0  0  0  0  0  0  0  0  0  0
  146.9061  141.6517  159.6848 O   0  0  0  0  0  0  0  0  0  0  0  0
  149.3157  141.6862  156.5847 N   0  0  0  0  0  0  0  0  0  0  0  0
  150.7399  141.6457  156.9580 C   0  0  0  0  0  0  0  0  0  0  0  0
  151.3730  143.0496  157.0684 C   0  0  0  0  0  0  0  0  0  0  0  0
  152.0875  143.2914  158.3874 C   0  0  0  0  0  0  0  0  0  0  0  0
  153.0947  142.4038  158.8232 C   0  0  0  0  0  0  0  0  0  0  0  0
  153.7695  142.6400  160.0363 C   0  0  0  0  0  0  0  0  0  0  0  0
  153.4384  143.7630  160.8192 C   0  0  0  0  0  0  0  0  0  0  0  0
  152.4327  144.6497  160.3882 C   0  0  0  0  0  0  0  0  0  0  0  0
  151.7579  144.4145  159.1745 C   0  0  0  0  0  0  0  0  0  0  0  0
  148.9794  141.0489  155.2996 C   0  0  0  0  0  0  0  0  0  0  0  0
  149.5077  139.6286  155.1266 C   0  0  0  0  0  0  0  0  0  0  0  0
  148.6462  138.5074  155.1484 C   0  0  0  0  0  0  0  0  0  0  0  0
  149.1661  137.2086  154.9874 C   0  0  0  0  0  0  0  0  0  0  0  0
  150.5482  137.0200  154.7977 C   0  0  0  0  0  0  0  0  0  0  0  0
  151.4103  138.1324  154.7661 C   0  0  0  0  0  0  0  0  0  0  0  0
  150.8909  139.4315  154.9286 C   0  0  0  0  0  0  0  0  0  0  0  0
  146.7964  142.7119  156.0016 H   0  0  0  0  0  0  0  0  0  0  0  0
  146.6118  141.2131  156.8281 H   0  0  0  0  0  0  0  0  0  0  0  0
  143.6683  144.5601  160.5122 H   0  0  0  0  0  0  0  0  0  0  0  0
  145.2108  141.6413  161.6861 H   0  0  0  0  0  0  0  0  0  0  0  0
  146.8881  142.3007  163.1524 H   0  0  0  0  0  0  0  0  0  0  0  0
  147.5103  143.1674  161.7547 H   0  0  0  0  0  0  0  0  0  0  0  0
  146.4329  144.2288  164.2518 H   0  0  0  0  0  0  0  0  0  0  0  0
  146.9311  145.2134  162.8793 H   0  0  0  0  0  0  0  0  0  0  0  0
  144.2674  145.0084  163.6928 H   0  0  0  0  0  0  0  0  0  0  0  0
  144.7333  145.3397  162.0251 H   0  0  0  0  0  0  0  0  0  0  0  0
  150.8621  141.1246  157.9083 H   0  0  0  0  0  0  0  0  0  0  0  0
  151.2978  141.0446  156.2379 H   0  0  0  0  0  0  0  0  0  0  0  0
  152.0799  143.1967  156.2510 H   0  0  0  0  0  0  0  0  0  0  0  0
  150.6068  143.8147  156.9377 H   0  0  0  0  0  0  0  0  0  0  0  0
  153.3586  141.5444  158.2237 H   0  0  0  0  0  0  0  0  0  0  0  0
  154.5419  141.9608  160.3654 H   0  0  0  0  0  0  0  0  0  0  0  0
  153.9564  143.9441  161.7495 H   0  0  0  0  0  0  0  0  0  0  0  0
  152.1796  145.5115  160.9879 H   0  0  0  0  0  0  0  0  0  0  0  0
  150.9911  145.1008  158.8460 H   0  0  0  0  0  0  0  0  0  0  0  0
  147.8980  141.0122  155.1648 H   0  0  0  0  0  0  0  0  0  0  0  0
  149.3277  141.6704  154.4742 H   0  0  0  0  0  0  0  0  0  0  0  0
  147.5826  138.6300  155.2892 H   0  0  0  0  0  0  0  0  0  0  0  0
  148.5030  136.3563  155.0093 H   0  0  0  0  0  0  0  0  0  0  0  0
  150.9462  136.0236  154.6739 H   0  0  0  0  0  0  0  0  0  0  0  0
  152.4707  137.9895  154.6175 H   0  0  0  0  0  0  0  0  0  0  0  0
  151.5608  140.2784  154.9036 H   0  0  0  0  0  0  0  0  0  0  0  0
  1  2  2  0  0  0  0
  2  3  1  0  0  0  0
  2 18  1  0  0  0  0
  3  4  1  0  0  0  0
  3 34  1  0  0  0  0
  3 35  1  0  0  0  0
  4 16  1  0  0  0  0
  4  5  1  0  0  0  0
  5  6  2  0  0  0  0
  5  7  1  0  0  0  0
  7  8  1  0  0  0  0
  7  9  2  0  0  0  0
  9 10  1  0  0  0  0
  9 36  1  0  0  0  0
 10 11  1  0  0  0  0
 10 16  1  0  0  0  0
 11 15  1  0  0  0  0
 11 12  1  0  0  0  0
 11 37  1  0  0  0  0
 12 13  1  0  0  0  0
 12 38  1  0  0  0  0
 12 39  1  0  0  0  0
 13 14  1  0  0  0  0
 13 40  1  0  0  0  0
 13 41  1  0  0  0  0
 14 15  1  0  0  0  0
 14 42  1  0  0  0  0
 14 43  1  0  0  0  0
 16 17  2  0  0  0  0
 18 19  1  0  0  0  0
 18 27  1  0  0  0  0
 19 20  1  0  0  0  0
 19 44  1  0  0  0  0
 19 45  1  0  0  0  0
 20 21  1  0  0  0  0
 20 46  1  0  0  0  0
 20 47  1  0  0  0  0
 21 26  1  0  0  0  0
 21 22  2  0  0  0  0
 22 23  1  0  0  0  0
 22 48  1  0  0  0  0
 23 24  2  0  0  0  0
 23 49  1  0  0  0  0
 24 25  1  0  0  0  0
 24 50  1  0  0  0  0
 25 26  2  0  0  0  0
 25 51  1  0  0  0  0
 26 52  1  0  0  0  0
 27 28  1  0  0  0  0
 27 53  1  0  0  0  0
 27 54  1  0  0  0  0
 28 33  1  0  0  0  0
 28 29  2  0  0  0  0
 29 30  1  0  0  0  0
 29 55  1  0  0  0  0
 30 31  2  0  0  0  0
 30 56  1  0  0  0  0
 31 32  1  0  0  0  0
 31 57  1  0  0  0  0
 32 33  2  0  0  0  0
 32 58  1  0  0  0  0
 33 59  1  0  0  0  0
M  END
> <s_m_source_file>
AV-unprocessed.smi

> <i_m_source_file_index>
108

> <i_lp_mmshare_version>
43012

> <i_f3d_flags>
0

> <s_epik_input>
W2NIXTFbY0hdW2NIXVtjSF1bY0hdYzFbQ0gyXVtDSDJdTihbQ0gyXWMyW2NIXVtjSF1bY0hdW2NIXVtjSF0yKUMoPU8pW0NIMl1uM2MoPU8pYyhGKVtjSF1uKGMzPU8pW0NAQEhdNFtDSDJdW0NIMl1bQ0gyXU80

> <s_epik_cmdline>
J2VwaWtfcHl0aG9uJywgJy1waCcsICc3LjAnLCAnLXRuJywgJzgnLCAnLW1hJywgJzIwMCcsICctbWV0YWxfYmluZGluZycsICctaW1hZScsICc8aW5maWxlLm1hZT4nLCAnLW9tYWUnLCAnPG91dGZpbGUubWFlPic=

> <r_lp_tautomer_probability>
1

> <r_epik_Ionization_Penalty>
5.46209e-09

> <r_epik_Ionization_Penalty_Charging>
4.22697e-09

> <r_epik_Ionization_Penalty_Neutral>
1.23512e-09

> <r_epik_State_Penalty>
-0

> <r_epik_Charging_Adjusted_Penalty>
4.22697e-09

> <i_epik_Tot_Q>
0

> <i_epik_Tot_abs_Q>
0

> <r_epik_Metal_State_Penalty>
-0

> <b_epik_Metal_Only>
0

> <s_epik_Chemistry_Notes>
This compound contains an acetal/aminal-like group ( X-CH(R)-Y where X, Y are N, S, or O) that may be acid/base labile, releasing an aldehyde.

> <s_lp_Force_Field>
OPLS_2005

> <r_lp_Energy>
38.0932

> <b_lp_Chiralities_Consistent>
1

> <s_lp_Variant>
AV-unprocessed.smi:108-2

> <Gold.Version>
5.8.1

> <Gold.Id.Protein>
6NUR|6NUR_protein|mol2

> <Gold.PLP.Fitness>
57.2454

> <Gold.PLP.PLP>
-56.6253

> <Gold.PLP.part.hbond>
-1.0000

> <Gold.PLP.part.metal>
0.0000

> <Gold.PLP.part.buried>
-1.6684

> <Gold.PLP.part.nonpolar>
-54.6813

> <Gold.PLP.part.repulsive>
0.3770

> <Gold.PLP.ligand.clash>
0.0000

> <Gold.PLP.ligand.torsion>
0.7678

> <Gold.PLP.Chemscore.Hbond>
0.5760

> <Gold.PLP.Chemscore.CHOScore>
0.0000

> <Gold.PLP.Chemscore.Metal>
0.0000

> <Gold.Chemscore.Hbonds>
donor molecule, donor type, donor heavy atom, donor atom, acceptor molecule, acceptor atom, score
      P1  H  6934  6946       L1    17  0.29

> <Gold.PLP.Chemscore.Internal.Correction>
0.4276

> <Gold.Rescore>
     Score         DG    S(hbond)    S(metal)    S(lipo)     H(rot)  DE(clash)    DE(int)     intcor
     12.93     -19.24       0.52        0.00     152.56       2.28       0.25       6.07       ----

> <Gold.Chemscore.Fitness>
12.9283

> <Gold.Chemscore.DG>
-19.2419

> <Gold.Chemscore.ZeroCoef>
-5.4800

> <Gold.Chemscore.Hbond>
0.5203

> <Gold.Chemscore.Metal>
0.0000

> <Gold.Chemscore.Lipo>
152.5598

> <Gold.Chemscore.Internal_Hbond>
0.0000

> <Gold.Chemscore.DEClash>
0.2455

> <Gold.Chemscore.DEInternal>
6.0681

> <Gold.Chemscore.Rot>
2.2756

> <Gold.Chemscore.Internal.Correction>
   9.000000E+99

> <Gold.Chemscore.Hbonds>
donor molecule, donor type, donor heavy atom, donor atom, acceptor molecule, acceptor atom, score
      P1  H  6933  6944       L1    17  0.01
      P1  H  6934  6946       L1    17  0.30

> <Gold.Chemscore.Hbond.Weighted>
-1.7379

> <Gold.Chemscore.Metal.Weighted>
-0.0000

> <Gold.Chemscore.Lipo.Weighted>
-17.8495

> <Gold.Chemscore.Internal_Hbond.Weighted>
0.0000

> <Gold.Chemscore.DEClash.Weighted>
0.2455

> <Gold.Chemscore.DEInternal.Weighted>
6.0681

> <Gold.Chemscore.Rot.Weighted>
5.8255

> <Gold.Chemscore.Internal.Correction.Weighted>
   9.000000E+99

> <Gold.Protein.RotatedTorsions>
[ 6907 6896 6895 6894 ] final  -54.38 input  -60.11 | X-H torsion
[ 7974 7965 7964 7962 ] final  -29.66 input  175.53 | X-H torsion
[ 8008 7997 7996 7995 ] final   61.90 input   59.86 | X-H torsion
[ 10167 10162 10161 10158 ] final  -45.76 input  -65.29 | X-H torsion
[ 10718 10713 10712 10709 ] final  -21.37 input   66.30 | X-H torsion
[ 10763 10752 10751 10750 ] final   78.93 input  -60.55 | X-H torsion
[ 11005 11000 10999 10996 ] final  -37.30 input  -57.11 | X-H torsion

> <Gold.Protein.ActiveResidues>
 VAL166  LYS551  ARG553  GLY616  TRP617  ASP618  TYR619  PRO620  LYS621  CYS622 
 ASP623  PHE694  ASN695  SER759  ASP760  ASP761  ALA762  ILE779  LEU786  VAL792 
 PHE793  MET794  SER795  GLU796  ALA797  LYS798  CYS799  TRP800  GLU811  SER814 

> <Gold.Protein.RotatedAtoms>
  150.8343  134.7610  159.6879 H   0  0  0  0  0  0  0  0  0  0  0  0  # atno 6907 bound_to 6896
  152.4442  134.5525  159.9880 H   0  0  0  0  0  0  0  0  0  0  0  0  # atno 6908 bound_to 6896
  151.5678  133.3356  159.3019 H   0  0  0  0  0  0  0  0  0  0  0  0  # atno 6909 bound_to 6896
  146.1200  140.5441  142.8739 H   0  0  0  0  0  0  0  0  0  0  0  0  # atno 7974 bound_to 7965
  155.6057  140.3494  155.4607 H   0  0  0  0  0  0  0  0  0  0  0  0  # atno 8008 bound_to 7997
  156.0193  140.1250  157.0398 H   0  0  0  0  0  0  0  0  0  0  0  0  # atno 8009 bound_to 7997
  154.4309  140.1065  156.5927 H   0  0  0  0  0  0  0  0  0  0  0  0  # atno 8010 bound_to 7997
  140.6845  143.2864  151.3685 H   0  0  0  0  0  0  0  0  0  0  0  0  # atno 10167 bound_to 10162
  156.5191  130.4628  149.6606 H   0  0  0  0  0  0  0  0  0  0  0  0  # atno 10718 bound_to 10713
  153.0913  135.4858  154.8695 H   0  0  0  0  0  0  0  0  0  0  0  0  # atno 10763 bound_to 10752
  154.7272  135.3052  154.8953 H   0  0  0  0  0  0  0  0  0  0  0  0  # atno 10764 bound_to 10752
  153.9600  135.6813  153.4798 H   0  0  0  0  0  0  0  0  0  0  0  0  # atno 10765 bound_to 10752
  140.9941  133.6989  156.1903 H   0  0  0  0  0  0  0  0  0  0  0  0  # atno 11005 bound_to 11000
  144.7588  140.5373  143.6750 LP  0  0  0  0  0  0  0  0  0  0  0  0  # atno 17320 bound_to 7965
  145.5486  139.1476  143.3407 LP  0  0  0  0  0  0  0  0  0  0  0  0  # atno 17321 bound_to 7965
  139.6193  144.0940  152.2375 LP  0  0  0  0  0  0  0  0  0  0  0  0  # atno 17342 bound_to 10162
  140.0379  144.6030  150.7435 LP  0  0  0  0  0  0  0  0  0  0  0  0  # atno 17343 bound_to 10162
  156.3167  130.7258  151.2162 LP  0  0  0  0  0  0  0  0  0  0  0  0  # atno 17370 bound_to 10713
  157.7439  131.0467  150.4905 LP  0  0  0  0  0  0  0  0  0  0  0  0  # atno 17371 bound_to 10713
  140.6993  134.4581  157.5586 LP  0  0  0  0  0  0  0  0  0  0  0  0  # atno 17394 bound_to 11000
  139.9006  134.8565  156.1912 LP  0  0  0  0  0  0  0  0  0  0  0  0  # atno 17395 bound_to 11000

$$$$
