AV-unprocessed.smi:2475|AV-procd|sdf|9755|dock6
  -GOLD-   2272013393D 1   1.00000     0.00000
 Structure written by MMmdl.
 37 38  0  0  0  0  0  0  0  0  1 V2000
  147.0222  139.9875  153.6153 C   0  0  0  0  0  0  0  0  0  0  0  0
  148.3942  140.1730  154.2280 C   0  0  0  0  0  0  0  0  0  0  0  0
  148.7237  141.3293  154.9657 C   0  0  0  0  0  0  0  0  0  0  0  0
  150.0308  141.4044  155.4969 C   0  0  0  0  0  0  0  0  0  0  0  0
  150.3334  142.5789  156.2333 N   0  0  0  0  0  0  0  0  0  0  0  0
  151.0787  142.6954  157.3493 C   0  0  0  0  0  0  0  0  0  0  0  0
  151.6602  141.7576  157.8964 O   0  0  0  0  0  0  0  0  0  0  0  0
  151.2186  144.1118  157.9277 C   0  0  2  0  0  0  0  0  0  0  0  0
  152.6064  144.4314  158.5183 C   0  0  0  0  0  0  0  0  0  0  0  0
  152.3115  144.8960  159.9351 C   0  0  0  0  0  0  0  0  0  0  0  0
  150.8410  145.2832  159.8691 C   0  0  0  0  0  0  0  0  0  0  0  0
  150.3049  144.2944  159.0081 O   0  0  0  0  0  0  0  0  0  0  0  0
  150.9041  140.3884  155.2894 N   0  0  0  0  0  0  0  0  0  0  0  0
  150.4938  139.3369  154.5726 C   0  0  0  0  0  0  0  0  0  0  0  0
  151.4955  138.2082  154.3655 C   0  0  0  0  0  0  0  0  0  0  0  0
  150.9541  136.8620  154.8702 C   0  0  0  0  0  0  0  0  0  0  0  0
  152.8788  138.5517  154.9398 C   0  0  0  0  0  0  0  0  0  0  0  0
  149.2827  139.1765  154.0324 N   0  0  0  0  0  0  0  0  0  0  0  0
  146.3736  140.8353  153.8367 H   0  0  0  0  0  0  0  0  0  0  0  0
  146.5506  139.0862  154.0078 H   0  0  0  0  0  0  0  0  0  0  0  0
  147.1007  139.8914  152.5321 H   0  0  0  0  0  0  0  0  0  0  0  0
  148.0058  142.1226  155.1163 H   0  0  0  0  0  0  0  0  0  0  0  0
  149.9321  143.4344  155.8776 H   0  0  0  0  0  0  0  0  0  0  0  0
  150.9765  144.8354  157.1479 H   0  0  0  0  0  0  0  0  0  0  0  0
  153.2921  143.5828  158.5256 H   0  0  0  0  0  0  0  0  0  0  0  0
  153.0790  145.2287  157.9437 H   0  0  0  0  0  0  0  0  0  0  0  0
  152.4424  144.0664  160.6310 H   0  0  0  0  0  0  0  0  0  0  0  0
  152.9530  145.7160  160.2587 H   0  0  0  0  0  0  0  0  0  0  0  0
  150.3572  145.2746  160.8461 H   0  0  0  0  0  0  0  0  0  0  0  0
  150.7127  146.2715  159.4243 H   0  0  0  0  0  0  0  0  0  0  0  0
  151.6343  138.0960  153.2887 H   0  0  0  0  0  0  0  0  0  0  0  0
  150.0094  136.6144  154.3855 H   0  0  0  0  0  0  0  0  0  0  0  0
  150.7819  136.8805  155.9469 H   0  0  0  0  0  0  0  0  0  0  0  0
  151.6551  136.0538  154.6603 H   0  0  0  0  0  0  0  0  0  0  0  0
  153.2631  139.4765  154.5084 H   0  0  0  0  0  0  0  0  0  0  0  0
  153.5995  137.7623  154.7255 H   0  0  0  0  0  0  0  0  0  0  0  0
  152.8405  138.6793  156.0222 H   0  0  0  0  0  0  0  0  0  0  0  0
  1  2  1  0  0  0  0
  1 19  1  0  0  0  0
  1 20  1  0  0  0  0
  1 21  1  0  0  0  0
  2 18  1  0  0  0  0
  2  3  2  0  0  0  0
  3  4  1  0  0  0  0
  3 22  1  0  0  0  0
  4  5  1  0  0  0  0
  4 13  2  0  0  0  0
  5  6  1  0  0  0  0
  5 23  1  0  0  0  0
  6  7  2  0  0  0  0
  6  8  1  0  0  0  0
  8 12  1  0  0  0  0
  8  9  1  0  0  0  0
  8 24  1  0  0  0  0
  9 10  1  0  0  0  0
  9 25  1  0  0  0  0
  9 26  1  0  0  0  0
 10 11  1  0  0  0  0
 10 27  1  0  0  0  0
 10 28  1  0  0  0  0
 11 12  1  0  0  0  0
 11 29  1  0  0  0  0
 11 30  1  0  0  0  0
 13 14  1  0  0  0  0
 14 15  1  0  0  0  0
 14 18  2  0  0  0  0
 15 16  1  0  0  0  0
 15 17  1  0  0  0  0
 15 31  1  0  0  0  0
 16 32  1  0  0  0  0
 16 33  1  0  0  0  0
 16 34  1  0  0  0  0
 17 35  1  0  0  0  0
 17 36  1  0  0  0  0
 17 37  1  0  0  0  0
M  END
> <s_m_source_file>
AV-unprocessed.smi

> <i_m_source_file_index>
2475

> <i_lp_mmshare_version>
43012

> <i_f3d_flags>
0

> <s_epik_input>
W0NIM11bQ0hdKFtDSDNdKWMobjEpbmMoW2NIXWMxW0NIM10pW05IXUMoPU8pW0NAQEhdMltDSDJdW0NIMl1bQ0gyXU8y

> <s_epik_cmdline>
J2VwaWtfcHl0aG9uJywgJy1waCcsICc3LjAnLCAnLXRuJywgJzgnLCAnLW1hJywgJzIwMCcsICctbWV0YWxfYmluZGluZycsICctaW1hZScsICc8aW5maWxlLm1hZT4nLCAnLW9tYWUnLCAnPG91dGZpbGUubWFlPic=

> <r_lp_tautomer_probability>
1

> <r_epik_Ionization_Penalty>
1.42804e-05

> <r_epik_Ionization_Penalty_Charging>
0

> <r_epik_Ionization_Penalty_Neutral>
1.42804e-05

> <r_epik_State_Penalty>
-0

> <r_epik_Charging_Adjusted_Penalty>
0

> <i_epik_Tot_Q>
0

> <i_epik_Tot_abs_Q>
0

> <r_epik_Metal_State_Penalty>
-0

> <b_epik_Metal_Only>
0

> <s_lp_Force_Field>
OPLS_2005

> <r_lp_Energy>
10.8571

> <b_lp_Chiralities_Consistent>
1

> <s_lp_Variant>
AV-unprocessed.smi:2475-1

> <Gold.Version>
5.8.1

> <Gold.Id.Protein>
6NUR|6NUR_protein|mol2

> <Gold.PLP.Fitness>
43.6136

> <Gold.PLP.PLP>
-42.4570

> <Gold.PLP.part.hbond>
-2.0000

> <Gold.PLP.part.metal>
0.0000

> <Gold.PLP.part.buried>
-5.7744

> <Gold.PLP.part.nonpolar>
-37.1113

> <Gold.PLP.part.repulsive>
1.8101

> <Gold.PLP.ligand.clash>
0.0000

> <Gold.PLP.ligand.torsion>
0.9589

> <Gold.PLP.Chemscore.Hbond>
1.0000

> <Gold.PLP.Chemscore.CHOScore>
0.0000

> <Gold.PLP.Chemscore.Metal>
0.0000

> <Gold.Chemscore.Hbonds>
donor molecule, donor type, donor heavy atom, donor atom, acceptor molecule, acceptor atom, score
      L1  H     5    23       P1  8028  1.00

> <Gold.PLP.Chemscore.Internal.Correction>
0.0743

> <Gold.Rescore>
     Score         DG    S(hbond)    S(metal)    S(lipo)     H(rot)  DE(clash)    DE(int)     intcor
     14.37     -16.70       0.98        0.00      93.68       1.18       0.91       1.42       ----

> <Gold.Chemscore.Fitness>
14.3731

> <Gold.Chemscore.DG>
-16.6970

> <Gold.Chemscore.ZeroCoef>
-5.4800

> <Gold.Chemscore.Hbond>
0.9843

> <Gold.Chemscore.Metal>
0.0000

> <Gold.Chemscore.Lipo>
93.6834

> <Gold.Chemscore.Internal_Hbond>
0.0000

> <Gold.Chemscore.DEClash>
0.9060

> <Gold.Chemscore.DEInternal>
1.4180

> <Gold.Chemscore.Rot>
1.1842

> <Gold.Chemscore.Internal.Correction>
   9.000000E+99

> <Gold.Chemscore.Hbonds>
donor molecule, donor type, donor heavy atom, donor atom, acceptor molecule, acceptor atom, score
      L1  H     5    23       P1  8028  1.00

> <Gold.Chemscore.Hbond.Weighted>
-3.2875

> <Gold.Chemscore.Metal.Weighted>
-0.0000

> <Gold.Chemscore.Lipo.Weighted>
-10.9610

> <Gold.Chemscore.Internal_Hbond.Weighted>
0.0000

> <Gold.Chemscore.DEClash.Weighted>
0.9060

> <Gold.Chemscore.DEInternal.Weighted>
1.4180

> <Gold.Chemscore.Rot.Weighted>
3.0315

> <Gold.Chemscore.Internal.Correction.Weighted>
   9.000000E+99

> <Gold.Protein.RotatedTorsions>
[ 6907 6896 6895 6894 ] final  -54.56 input  -60.11 | X-H torsion
[ 7974 7965 7964 7962 ] final   60.77 input  175.53 | X-H torsion
[ 8008 7997 7996 7995 ] final  -27.24 input   59.86 | X-H torsion
[ 10167 10162 10161 10158 ] final   19.48 input  -65.29 | X-H torsion
[ 10718 10713 10712 10709 ] final -136.88 input   66.30 | X-H torsion
[ 10763 10752 10751 10750 ] final  170.74 input  -60.55 | X-H torsion
[ 11005 11000 10999 10996 ] final   90.01 input  -57.11 | X-H torsion

> <Gold.Protein.ActiveResidues>
 VAL166  LYS551  ARG553  GLY616  TRP617  ASP618  TYR619  PRO620  LYS621  CYS622 
 ASP623  PHE694  ASN695  SER759  ASP760  ASP761  ALA762  ILE779  LEU786  VAL792 
 PHE793  MET794  SER795  GLU796  ALA797  LYS798  CYS799  TRP800  GLU811  SER814 

> <Gold.Protein.RotatedAtoms>
  150.8327  134.7587  159.6866 H   0  0  0  0  0  0  0  0  0  0  0  0  # atno 6907 bound_to 6896
  152.4429  134.5551  159.9888 H   0  0  0  0  0  0  0  0  0  0  0  0  # atno 6908 bound_to 6896
  151.5708  133.3352  159.3025 H   0  0  0  0  0  0  0  0  0  0  0  0  # atno 6909 bound_to 6896
  145.8923  139.3520  143.0642 H   0  0  0  0  0  0  0  0  0  0  0  0  # atno 7974 bound_to 7965
  154.4386  140.1877  156.0901 H   0  0  0  0  0  0  0  0  0  0  0  0  # atno 8008 bound_to 7997
  156.0372  140.3324  155.7177 H   0  0  0  0  0  0  0  0  0  0  0  0  # atno 8009 bound_to 7997
  155.5753  140.0616  157.2787 H   0  0  0  0  0  0  0  0  0  0  0  0  # atno 8010 bound_to 7997
  140.5576  143.9396  150.6620 H   0  0  0  0  0  0  0  0  0  0  0  0  # atno 10167 bound_to 10162
  156.2819  130.7325  151.1325 H   0  0  0  0  0  0  0  0  0  0  0  0  # atno 10718 bound_to 10713
  154.4019  135.2755  155.2091 H   0  0  0  0  0  0  0  0  0  0  0  0  # atno 10763 bound_to 10752
  154.4114  135.6021  153.5958 H   0  0  0  0  0  0  0  0  0  0  0  0  # atno 10764 bound_to 10752
  152.9831  135.5950  154.4288 H   0  0  0  0  0  0  0  0  0  0  0  0  # atno 10765 bound_to 10752
  139.8864  134.8587  156.3224 H   0  0  0  0  0  0  0  0  0  0  0  0  # atno 11005 bound_to 11000
  145.8893  140.9314  143.0560 LP  0  0  0  0  0  0  0  0  0  0  0  0  # atno 17320 bound_to 7965
  144.6731  140.0884  143.7466 LP  0  0  0  0  0  0  0  0  0  0  0  0  # atno 17321 bound_to 7965
  140.2838  143.3371  152.1126 LP  0  0  0  0  0  0  0  0  0  0  0  0  # atno 17342 bound_to 10162
  139.5055  144.6796  151.6042 LP  0  0  0  0  0  0  0  0  0  0  0  0  # atno 17343 bound_to 10162
  157.7317  131.0606  150.5665 LP  0  0  0  0  0  0  0  0  0  0  0  0  # atno 17370 bound_to 10713
  156.5772  130.4295  149.5993 LP  0  0  0  0  0  0  0  0  0  0  0  0  # atno 17371 bound_to 10713
  140.9778  133.7286  156.0627 LP  0  0  0  0  0  0  0  0  0  0  0  0  # atno 17394 bound_to 11000
  140.7789  134.3748  157.5492 LP  0  0  0  0  0  0  0  0  0  0  0  0  # atno 17395 bound_to 11000

$$$$
