AV-unprocessed.smi:2928|AV-procd|sdf|11235|dock6
  -GOLD-   2272016133D 1   1.00000     0.00000
 Structure written by MMmdl.
 56 59  0  0  0  0  0  0  0  0  3 V2000
  143.5658  132.4430  151.3690 C   0  0  0  0  0  0  0  0  0  0  0  0
  143.9879  133.3236  152.4844 N   0  3  2  0  0  0  0  0  0  0  0  0
  143.3911  134.6806  152.4667 C   0  0  2  0  0  0  0  0  0  0  0  0
  143.9582  135.5334  151.3030 C   0  0  0  0  0  0  0  0  0  0  0  0
  145.4963  135.5617  151.2264 C   0  0  0  0  0  0  0  0  0  0  0  0
  146.1341  134.1936  151.5283 C   0  0  0  0  0  0  0  0  0  0  0  0
  145.4538  133.4160  152.6829 C   0  0  1  0  0  0  0  0  0  0  0  0
  145.7393  133.9606  154.1020 C   0  0  0  0  0  0  0  0  0  0  0  0
  144.9332  135.2230  154.5163 C   0  0  1  0  0  0  0  0  0  0  0  0
  145.6773  136.4662  154.3336 N   0  0  0  0  0  0  0  0  0  0  0  0
  146.8891  136.7410  154.8368 C   0  0  0  0  0  0  0  0  0  0  0  0
  147.5235  135.9665  155.5522 O   0  0  0  0  0  0  0  0  0  0  0  0
  147.3145  137.9484  154.4326 N   0  0  0  0  0  0  0  0  0  0  0  0
  148.5824  138.5521  154.6603 C   0  0  0  0  0  0  0  0  0  0  0  0
  149.7870  137.8058  154.7118 C   0  0  0  0  0  0  0  0  0  0  0  0
  151.0063  138.4673  154.9598 C   0  0  0  0  0  0  0  0  0  0  0  0
  151.0018  139.8603  155.1604 C   0  0  0  0  0  0  0  0  0  0  0  0
  149.8360  140.5389  155.1208 N   0  3  0  0  0  0  0  0  0  0  0  0
  148.6373  139.9506  154.8875 C   0  0  0  0  0  0  0  0  0  0  0  0
  147.4790  140.7466  154.8652 N   0  0  0  0  0  0  0  0  0  0  0  0
  147.1753  141.4441  156.1032 C   0  0  0  0  0  0  0  0  0  0  0  0
  146.1365  142.5043  155.7278 C   0  0  0  0  0  0  0  0  0  0  0  0
  146.3032  142.7034  154.2161 C   0  0  0  0  0  0  0  0  0  0  0  0
  147.4327  141.7508  153.8160 C   0  0  0  0  0  0  0  0  0  0  0  0
  143.5250  135.3082  153.8745 C   0  0  0  0  0  0  0  0  0  0  0  0
  143.8902  132.8180  150.3988 H   0  0  0  0  0  0  0  0  0  0  0  0
  142.4797  132.3498  151.3488 H   0  0  0  0  0  0  0  0  0  0  0  0
  143.9788  131.4423  151.4987 H   0  0  0  0  0  0  0  0  0  0  0  0
  142.3209  134.5696  152.2854 H   0  0  0  0  0  0  0  0  0  0  0  0
  143.5780  135.1342  150.3622 H   0  0  0  0  0  0  0  0  0  0  0  0
  143.5725  136.5517  151.3591 H   0  0  0  0  0  0  0  0  0  0  0  0
  145.8030  135.8915  150.2334 H   0  0  0  0  0  0  0  0  0  0  0  0
  145.8958  136.3188  151.8920 H   0  0  0  0  0  0  0  0  0  0  0  0
  146.0865  133.5868  150.6237 H   0  0  0  0  0  0  0  0  0  0  0  0
  147.1974  134.3193  151.7350 H   0  0  0  0  0  0  0  0  0  0  0  0
  145.8552  132.4017  152.6611 H   0  0  0  0  0  0  0  0  0  0  0  0
  145.4711  133.1694  154.8035 H   0  0  0  0  0  0  0  0  0  0  0  0
  146.8109  134.1051  154.2428 H   0  0  0  0  0  0  0  0  0  0  0  0
  144.7703  135.1563  155.5939 H   0  0  0  0  0  0  0  0  0  0  0  0
  145.2377  137.1713  153.7602 H   0  0  0  0  0  0  0  0  0  0  0  0
  146.7134  138.4357  153.7842 H   0  0  0  0  0  0  0  0  0  0  0  0
  149.7946  136.7348  154.5780 H   0  0  0  0  0  0  0  0  0  0  0  0
  151.9317  137.9116  154.9997 H   0  0  0  0  0  0  0  0  0  0  0  0
  151.8877  140.4472  155.3557 H   0  0  0  0  0  0  0  0  0  0  0  0
  146.7916  140.7566  156.8577 H   0  0  0  0  0  0  0  0  0  0  0  0
  148.0704  141.9209  156.5049 H   0  0  0  0  0  0  0  0  0  0  0  0
  145.1302  142.1443  155.9457 H   0  0  0  0  0  0  0  0  0  0  0  0
  146.2865  143.4282  156.2875 H   0  0  0  0  0  0  0  0  0  0  0  0
  145.3797  142.4329  153.7024 H   0  0  0  0  0  0  0  0  0  0  0  0
  146.5378  143.7358  153.9556 H   0  0  0  0  0  0  0  0  0  0  0  0
  148.3782  142.2925  153.7617 H   0  0  0  0  0  0  0  0  0  0  0  0
  147.2482  141.2952  152.8427 H   0  0  0  0  0  0  0  0  0  0  0  0
  143.1578  136.3354  153.8731 H   0  0  0  0  0  0  0  0  0  0  0  0
  142.8412  134.7660  154.5296 H   0  0  0  0  0  0  0  0  0  0  0  0
  143.6261  132.8753  153.3143 H   0  0  0  0  0  0  0  0  0  0  0  0
  149.8592  141.5474  155.2734 H   0  0  0  0  0  0  0  0  0  0  0  0
  1  2  1  0  0  0  0
  1 26  1  0  0  0  0
  1 27  1  0  0  0  0
  1 28  1  0  0  0  0
  2  7  1  0  0  0  0
  2  3  1  0  0  0  0
  2 55  1  0  0  0  0
  3 25  1  0  0  0  0
  3  4  1  0  0  0  0
  3 29  1  0  0  0  0
  4  5  1  0  0  0  0
  4 30  1  0  0  0  0
  4 31  1  0  0  0  0
  5  6  1  0  0  0  0
  5 32  1  0  0  0  0
  5 33  1  0  0  0  0
  6  7  1  0  0  0  0
  6 34  1  0  0  0  0
  6 35  1  0  0  0  0
  7  8  1  0  0  0  0
  7 36  1  0  0  0  0
  8  9  1  0  0  0  0
  8 37  1  0  0  0  0
  8 38  1  0  0  0  0
  9 10  1  0  0  0  0
  9 25  1  0  0  0  0
  9 39  1  0  0  0  0
 10 11  1  0  0  0  0
 10 40  1  0  0  0  0
 11 12  2  0  0  0  0
 11 13  1  0  0  0  0
 13 14  1  0  0  0  0
 13 41  1  0  0  0  0
 14 19  1  0  0  0  0
 14 15  2  0  0  0  0
 15 16  1  0  0  0  0
 15 42  1  0  0  0  0
 16 17  2  0  0  0  0
 16 43  1  0  0  0  0
 17 18  1  0  0  0  0
 17 44  1  0  0  0  0
 18 19  2  0  0  0  0
 18 56  1  0  0  0  0
 19 20  1  0  0  0  0
 20 24  1  0  0  0  0
 20 21  1  0  0  0  0
 21 22  1  0  0  0  0
 21 45  1  0  0  0  0
 21 46  1  0  0  0  0
 22 23  1  0  0  0  0
 22 47  1  0  0  0  0
 22 48  1  0  0  0  0
 23 24  1  0  0  0  0
 23 49  1  0  0  0  0
 23 50  1  0  0  0  0
 24 51  1  0  0  0  0
 24 52  1  0  0  0  0
 25 53  1  0  0  0  0
 25 54  1  0  0  0  0
M  CHG  1   2   1
M  CHG  1  18   1
M  END
> <s_m_source_file>
AV-unprocessed.smi

> <i_m_source_file_index>
2928

> <i_lp_mmshare_version>
43012

> <i_f3d_flags>
0

> <s_epik_input>
W0NIMl0xW0NIMl1bQ0gyXVtDQEhdKE4oW0NIM10pW0NIXTEyKVtDSDJdW0NASF0oW0NIMl0yKVtOSF1DKD1PKVtOSF1jM1tjSF1bY0hdW2NIXW5jM040W0NIMl1bQ0gyXVtDSDJdW0NIMl00

> <s_epik_cmdline>
J2VwaWtfcHl0aG9uJywgJy1waCcsICc3LjAnLCAnLXRuJywgJzgnLCAnLW1hJywgJzIwMCcsICctbWV0YWxfYmluZGluZycsICctaW1hZScsICc8aW5maWxlLm1hZT4nLCAnLW9tYWUnLCAnPG91dGZpbGUubWFlPic=

> <r_lp_tautomer_probability>
0.999994

> <r_epik_Ionization_Penalty>
1.2404

> <r_epik_Ionization_Penalty_Charging>
1.24038

> <r_epik_Ionization_Penalty_Neutral>
1.86539e-05

> <r_epik_State_Penalty>
1.30821

> <r_epik_Charging_Adjusted_Penalty>
2.54859

> <i_epik_Tot_Q>
2

> <i_epik_Tot_abs_Q>
2

> <r_epik_Metal_State_Penalty>
1.3782

> <b_epik_Metal_Only>
0

> <s_lp_Force_Field>
OPLS_2005

> <r_lp_Energy>
75.6224

> <b_lp_Chiralities_Consistent>
1

> <s_lp_Variant>
AV-unprocessed.smi:2928-5

> <Gold.Version>
5.8.1

> <Gold.Id.Protein>
6NUR|6NUR_protein|mol2

> <Gold.PLP.Fitness>
39.1176

> <Gold.PLP.PLP>
-33.8736

> <Gold.PLP.part.hbond>
-0.9472

> <Gold.PLP.part.metal>
0.0000

> <Gold.PLP.part.buried>
-6.8298

> <Gold.PLP.part.nonpolar>
-28.7495

> <Gold.PLP.part.repulsive>
0.2897

> <Gold.PLP.ligand.clash>
0.0000

> <Gold.PLP.ligand.torsion>
0.2896

> <Gold.PLP.Chemscore.Hbond>
1.9175

> <Gold.PLP.Chemscore.CHOScore>
0.0000

> <Gold.PLP.Chemscore.Metal>
0.0000

> <Gold.Chemscore.Hbonds>
donor molecule, donor type, donor heavy atom, donor atom, acceptor molecule, acceptor atom, score
      L1  H     2    55       P1 10957  1.82

> <Gold.PLP.Chemscore.Internal.Correction>
0.0707

> <Gold.Rescore>
     Score         DG    S(hbond)    S(metal)    S(lipo)     H(rot)  DE(clash)    DE(int)     intcor
     13.73     -14.87       0.97        0.00      78.65       1.19       0.17       0.98       ----

> <Gold.Chemscore.Fitness>
13.7253

> <Gold.Chemscore.DG>
-14.8748

> <Gold.Chemscore.ZeroCoef>
-5.4800

> <Gold.Chemscore.Hbond>
0.9683

> <Gold.Chemscore.Metal>
0.0000

> <Gold.Chemscore.Lipo>
78.6479

> <Gold.Chemscore.Internal_Hbond>
0.0000

> <Gold.Chemscore.DEClash>
0.1739

> <Gold.Chemscore.DEInternal>
0.9755

> <Gold.Chemscore.Rot>
1.1879

> <Gold.Chemscore.Internal.Correction>
   9.000000E+99

> <Gold.Chemscore.Hbonds>
donor molecule, donor type, donor heavy atom, donor atom, acceptor molecule, acceptor atom, score
      L1  H     2    55       P1 10957  0.53

> <Gold.Chemscore.Hbond.Weighted>
-3.2340

> <Gold.Chemscore.Metal.Weighted>
-0.0000

> <Gold.Chemscore.Lipo.Weighted>
-9.2018

> <Gold.Chemscore.Internal_Hbond.Weighted>
0.0000

> <Gold.Chemscore.DEClash.Weighted>
0.1739

> <Gold.Chemscore.DEInternal.Weighted>
0.9755

> <Gold.Chemscore.Rot.Weighted>
3.0410

> <Gold.Chemscore.Internal.Correction.Weighted>
   9.000000E+99

> <Gold.Protein.RotatedTorsions>
[ 6907 6896 6895 6894 ] final   71.02 input  -60.11 | X-H torsion
[ 7974 7965 7964 7962 ] final   61.10 input  175.53 | X-H torsion
[ 8008 7997 7996 7995 ] final -113.23 input   59.86 | X-H torsion
[ 10167 10162 10161 10158 ] final  -84.20 input  -65.29 | X-H torsion
[ 10718 10713 10712 10709 ] final   52.36 input   66.30 | X-H torsion
[ 10763 10752 10751 10750 ] final  -76.23 input  -60.55 | X-H torsion
[ 11005 11000 10999 10996 ] final  -48.48 input  -57.11 | X-H torsion

> <Gold.Protein.ActiveResidues>
 VAL166  LYS551  ARG553  GLY616  TRP617  ASP618  TYR619  PRO620  LYS621  CYS622 
 ASP623  PHE694  ASN695  SER759  ASP760  ASP761  ALA762  ILE779  LEU786  VAL792 
 PHE793  MET794  SER795  GLU796  ALA797  LYS798  CYS799  TRP800  GLU811  SER814 

> <Gold.Protein.RotatedAtoms>
  152.4785  134.4781  159.9656 H   0  0  0  0  0  0  0  0  0  0  0  0  # atno 6907 bound_to 6896
  151.4792  133.3544  159.2843 H   0  0  0  0  0  0  0  0  0  0  0  0  # atno 6908 bound_to 6896
  150.8840  134.8262  159.7307 H   0  0  0  0  0  0  0  0  0  0  0  0  # atno 6909 bound_to 6896
  145.8886  139.3494  143.0663 H   0  0  0  0  0  0  0  0  0  0  0  0  # atno 7974 bound_to 7965
  155.0175  140.0393  157.2424 H   0  0  0  0  0  0  0  0  0  0  0  0  # atno 8008 bound_to 7997
  154.7407  140.2748  155.6353 H   0  0  0  0  0  0  0  0  0  0  0  0  # atno 8009 bound_to 7997
  156.2863  140.2666  156.2133 H   0  0  0  0  0  0  0  0  0  0  0  0  # atno 8010 bound_to 7997
  140.4155  143.2605  151.8960 H   0  0  0  0  0  0  0  0  0  0  0  0  # atno 10167 bound_to 10162
  157.5068  130.8474  149.8384 H   0  0  0  0  0  0  0  0  0  0  0  0  # atno 10718 bound_to 10713
  154.4971  135.5805  153.6502 H   0  0  0  0  0  0  0  0  0  0  0  0  # atno 10763 bound_to 10752
  152.9872  135.6126  154.3051 H   0  0  0  0  0  0  0  0  0  0  0  0  # atno 10764 bound_to 10752
  154.2955  135.2848  155.2614 H   0  0  0  0  0  0  0  0  0  0  0  0  # atno 10765 bound_to 10752
  141.0703  133.6681  156.3447 H   0  0  0  0  0  0  0  0  0  0  0  0  # atno 11005 bound_to 11000
  145.8936  140.9288  143.0539 LP  0  0  0  0  0  0  0  0  0  0  0  0  # atno 17320 bound_to 7965
  144.6729  140.0939  143.7464 LP  0  0  0  0  0  0  0  0  0  0  0  0  # atno 17321 bound_to 7965
  139.4782  144.5492  151.8411 LP  0  0  0  0  0  0  0  0  0  0  0  0  # atno 17342 bound_to 10162
  140.4591  144.1747  150.5904 LP  0  0  0  0  0  0  0  0  0  0  0  0  # atno 17343 bound_to 10162
  156.0263  130.3778  150.1813 LP  0  0  0  0  0  0  0  0  0  0  0  0  # atno 17370 bound_to 10713
  157.0003  130.9920  151.3392 LP  0  0  0  0  0  0  0  0  0  0  0  0  # atno 17371 bound_to 10713
  140.5687  134.5862  157.5452 LP  0  0  0  0  0  0  0  0  0  0  0  0  # atno 17394 bound_to 11000
  139.9517  134.7606  156.0434 LP  0  0  0  0  0  0  0  0  0  0  0  0  # atno 17395 bound_to 11000

$$$$
