AV-unprocessed.smi:2345|AV-procd|sdf|9362|dock10
  -GOLD-   2272012583D 1   1.00000     0.00000
 Structure written by MMmdl.
 37 38  0  0  0  0  0  0  0  0  1 V2000
  145.0027  132.2095  150.8062 C   0  0  0  0  0  0  0  0  0  0  0  0
  146.2127  133.0404  150.3725 C   0  0  0  0  0  0  0  0  0  0  0  0
  146.6651  134.2609  151.6364 S   0  0  0  0  0  0  0  0  0  0  0  0
  145.3038  135.4650  151.4455 C   0  0  1  0  0  0  0  0  0  0  0  0
  143.9857  134.8324  151.8967 C   0  0  0  0  0  0  0  0  0  0  0  0
  143.9552  135.0442  153.4091 C   0  0  0  0  0  0  0  0  0  0  0  0
  144.6436  136.3936  153.6395 C   0  0  0  0  0  0  0  0  0  0  0  0
  145.4350  136.7117  152.3553 C   0  0  1  0  0  0  0  0  0  0  0  0
  146.8144  137.0873  152.6622 N   0  0  0  0  0  0  0  0  0  0  0  0
  147.1815  138.1104  153.4462 C   0  0  0  0  0  0  0  0  0  0  0  0
  146.3796  138.8519  154.0138 O   0  0  0  0  0  0  0  0  0  0  0  0
  148.5193  138.2264  153.4941 N   0  0  0  0  0  0  0  0  0  0  0  0
  149.3043  139.1898  154.1844 C   0  0  0  0  0  0  0  0  0  0  0  0
  148.8262  140.4590  154.5920 C   0  0  0  0  0  0  0  0  0  0  0  0
  149.7014  141.3184  155.2864 C   0  0  0  0  0  0  0  0  0  0  0  0
  150.9751  140.9939  155.5937 N   0  0  0  0  0  0  0  0  0  0  0  0
  151.4228  139.7777  155.2161 C   0  0  0  0  0  0  0  0  0  0  0  0
  150.6309  138.8437  154.5183 C   0  0  0  0  0  0  0  0  0  0  0  0
  151.1419  137.6374  154.1720 F   0  0  0  0  0  0  0  0  0  0  0  0
  144.7389  131.4788  150.0414 H   0  0  0  0  0  0  0  0  0  0  0  0
  144.1315  132.8420  150.9789 H   0  0  0  0  0  0  0  0  0  0  0  0
  145.2120  131.6657  151.7280 H   0  0  0  0  0  0  0  0  0  0  0  0
  147.0595  132.3821  150.1838 H   0  0  0  0  0  0  0  0  0  0  0  0
  145.9994  133.5620  149.4390 H   0  0  0  0  0  0  0  0  0  0  0  0
  145.2440  135.7491  150.3943 H   0  0  0  0  0  0  0  0  0  0  0  0
  143.1513  135.3659  151.4394 H   0  0  0  0  0  0  0  0  0  0  0  0
  143.8944  133.7823  151.6165 H   0  0  0  0  0  0  0  0  0  0  0  0
  142.9429  135.0174  153.8132 H   0  0  0  0  0  0  0  0  0  0  0  0
  144.5255  134.2541  153.8994 H   0  0  0  0  0  0  0  0  0  0  0  0
  143.9027  137.1731  153.8207 H   0  0  0  0  0  0  0  0  0  0  0  0
  145.2808  136.3475  154.5238 H   0  0  0  0  0  0  0  0  0  0  0  0
  144.9305  137.5459  151.8638 H   0  0  0  0  0  0  0  0  0  0  0  0
  147.5400  136.5389  152.2240 H   0  0  0  0  0  0  0  0  0  0  0  0
  149.0395  137.5914  152.9066 H   0  0  0  0  0  0  0  0  0  0  0  0
  147.8150  140.7830  154.4000 H   0  0  0  0  0  0  0  0  0  0  0  0
  149.3658  142.2928  155.6097 H   0  0  0  0  0  0  0  0  0  0  0  0
  152.4430  139.5406  155.4793 H   0  0  0  0  0  0  0  0  0  0  0  0
  1  2  1  0  0  0  0
  1 20  1  0  0  0  0
  1 21  1  0  0  0  0
  1 22  1  0  0  0  0
  2  3  1  0  0  0  0
  2 23  1  0  0  0  0
  2 24  1  0  0  0  0
  3  4  1  0  0  0  0
  4  8  1  0  0  0  0
  4  5  1  0  0  0  0
  4 25  1  0  0  0  0
  5  6  1  0  0  0  0
  5 26  1  0  0  0  0
  5 27  1  0  0  0  0
  6  7  1  0  0  0  0
  6 28  1  0  0  0  0
  6 29  1  0  0  0  0
  7  8  1  0  0  0  0
  7 30  1  0  0  0  0
  7 31  1  0  0  0  0
  8  9  1  0  0  0  0
  8 32  1  0  0  0  0
  9 10  1  0  0  0  0
  9 33  1  0  0  0  0
 10 11  2  0  0  0  0
 10 12  1  0  0  0  0
 12 13  1  0  0  0  0
 12 34  1  0  0  0  0
 13 18  1  0  0  0  0
 13 14  2  0  0  0  0
 14 15  1  0  0  0  0
 14 35  1  0  0  0  0
 15 16  2  0  0  0  0
 15 36  1  0  0  0  0
 16 17  1  0  0  0  0
 17 18  2  0  0  0  0
 17 37  1  0  0  0  0
 18 19  1  0  0  0  0
M  END
> <s_m_source_file>
AV-unprocessed.smi

> <i_m_source_file_index>
2345

> <i_lp_mmshare_version>
43012

> <i_f3d_flags>
0

> <s_epik_input>
W0NIM11bQ0gyXVNbQ0BASF0xW0NIMl1bQ0gyXVtDSDJdW0NASF0xW05IXUMoPU8pW05IXWMyW2NIXVtjSF1uW2NIXWMyRg==

> <s_epik_cmdline>
J2VwaWtfcHl0aG9uJywgJy1waCcsICc3LjAnLCAnLXRuJywgJzgnLCAnLW1hJywgJzIwMCcsICctbWV0YWxfYmluZGluZycsICctaW1hZScsICc8aW5maWxlLm1hZT4nLCAnLW9tYWUnLCAnPG91dGZpbGUubWFlPic=

> <r_epik_Ionization_Penalty>
0.00333745

> <r_epik_Ionization_Penalty_Charging>
0

> <r_epik_Ionization_Penalty_Neutral>
0.00333745

> <r_epik_State_Penalty>
0.00233401

> <r_epik_Charging_Adjusted_Penalty>
0.00233401

> <i_epik_Tot_Q>
0

> <i_epik_Tot_abs_Q>
0

> <r_epik_Metal_State_Penalty>
-0

> <b_epik_Metal_Only>
0

> <s_lp_Force_Field>
OPLS_2005

> <r_lp_Energy>
24.8038

> <b_lp_Chiralities_Consistent>
1

> <s_lp_Variant>
AV-unprocessed.smi:2345-2

> <Gold.Version>
5.8.1

> <Gold.Id.Protein>
6NUR|6NUR_protein|mol2

> <Gold.PLP.Fitness>
44.6069

> <Gold.PLP.PLP>
-35.9448

> <Gold.PLP.part.hbond>
-3.7828

> <Gold.PLP.part.metal>
0.0000

> <Gold.PLP.part.buried>
-0.7777

> <Gold.PLP.part.nonpolar>
-31.7480

> <Gold.PLP.part.repulsive>
0.3069

> <Gold.PLP.ligand.clash>
0.0000

> <Gold.PLP.ligand.torsion>
0.1760

> <Gold.PLP.Chemscore.Hbond>
2.0000

> <Gold.PLP.Chemscore.CHOScore>
1.0000

> <Gold.PLP.Chemscore.Metal>
0.0000

> <Gold.Chemscore.Hbonds>
donor molecule, donor type, donor heavy atom, donor atom, acceptor molecule, acceptor atom, score
      L1  H     9    33       P1  7948  0.88
      L1  H    12    34       P1  7948  0.94
      L1  C    15    36       P1  8028  1.00

> <Gold.PLP.Chemscore.Internal.Correction>
0.0140

> <Gold.Rescore>
     Score         DG    S(hbond)    S(metal)    S(lipo)     H(rot)  DE(clash)    DE(int)     intcor
     15.11     -17.65       1.95        0.00      77.81       1.35       0.05       2.49       ----

> <Gold.Chemscore.Fitness>
15.1114

> <Gold.Chemscore.DG>
-17.6496

> <Gold.Chemscore.ZeroCoef>
-5.4800

> <Gold.Chemscore.Hbond>
1.9506

> <Gold.Chemscore.Metal>
0.0000

> <Gold.Chemscore.Lipo>
77.8141

> <Gold.Chemscore.Internal_Hbond>
0.0000

> <Gold.Chemscore.DEClash>
0.0460

> <Gold.Chemscore.DEInternal>
2.4923

> <Gold.Chemscore.Rot>
1.3475

> <Gold.Chemscore.Internal.Correction>
   9.000000E+99

> <Gold.Chemscore.Hbonds>
donor molecule, donor type, donor heavy atom, donor atom, acceptor molecule, acceptor atom, score
      L1  H     9    33       P1  7948  0.82
      L1  H    12    34       P1  7948  0.91

> <Gold.Chemscore.Hbond.Weighted>
-6.5150

> <Gold.Chemscore.Metal.Weighted>
-0.0000

> <Gold.Chemscore.Lipo.Weighted>
-9.1043

> <Gold.Chemscore.Internal_Hbond.Weighted>
0.0000

> <Gold.Chemscore.DEClash.Weighted>
0.0460

> <Gold.Chemscore.DEInternal.Weighted>
2.4923

> <Gold.Chemscore.Rot.Weighted>
3.4496

> <Gold.Chemscore.Internal.Correction.Weighted>
   9.000000E+99

> <Gold.Protein.RotatedTorsions>
[ 6907 6896 6895 6894 ] final   89.87 input  -60.11 | X-H torsion
[ 7974 7965 7964 7962 ] final  127.95 input  175.53 | X-H torsion
[ 8008 7997 7996 7995 ] final -158.98 input   59.86 | X-H torsion
[ 10167 10162 10161 10158 ] final  114.36 input  -65.29 | X-H torsion
[ 10718 10713 10712 10709 ] final   13.90 input   66.30 | X-H torsion
[ 10763 10752 10751 10750 ] final  -62.37 input  -60.55 | X-H torsion
[ 11005 11000 10999 10996 ] final   69.76 input  -57.11 | X-H torsion

> <Gold.Protein.ActiveResidues>
 VAL166  LYS551  ARG553  GLY616  TRP617  ASP618  TYR619  PRO620  LYS621  CYS622 
 ASP623  PHE694  ASN695  SER759  ASP760  ASP761  ALA762  ILE779  LEU786  VAL792 
 PHE793  MET794  SER795  GLU796  ALA797  LYS798  CYS799  TRP800  GLU811  SER814 

> <Gold.Protein.RotatedAtoms>
  152.5440  134.1900  159.8669 H   0  0  0  0  0  0  0  0  0  0  0  0  # atno 6907 bound_to 6896
  151.1896  133.4668  159.2602 H   0  0  0  0  0  0  0  0  0  0  0  0  # atno 6908 bound_to 6896
  151.1096  135.0031  159.8543 H   0  0  0  0  0  0  0  0  0  0  0  0  # atno 6909 bound_to 6896
  145.0450  139.3931  143.5083 H   0  0  0  0  0  0  0  0  0  0  0  0  # atno 7974 bound_to 7965
  155.7556  140.0832  157.2180 H   0  0  0  0  0  0  0  0  0  0  0  0  # atno 8008 bound_to 7997
  154.4008  140.1552  156.2830 H   0  0  0  0  0  0  0  0  0  0  0  0  # atno 8009 bound_to 7997
  155.8888  140.3416  155.5944 H   0  0  0  0  0  0  0  0  0  0  0  0  # atno 8010 bound_to 7997
  139.6394  144.7122  151.2268 H   0  0  0  0  0  0  0  0  0  0  0  0  # atno 10167 bound_to 10162
  157.0314  130.6194  149.5736 H   0  0  0  0  0  0  0  0  0  0  0  0  # atno 10718 bound_to 10713
  154.2988  135.6239  153.5416 H   0  0  0  0  0  0  0  0  0  0  0  0  # atno 10763 bound_to 10752
  152.9843  135.5673  154.5307 H   0  0  0  0  0  0  0  0  0  0  0  0  # atno 10764 bound_to 10752
  154.4933  135.2868  155.1455 H   0  0  0  0  0  0  0  0  0  0  0  0  # atno 10765 bound_to 10752
  139.9636  134.7019  156.0594 H   0  0  0  0  0  0  0  0  0  0  0  0  # atno 11005 bound_to 11000
  146.3513  140.0070  142.8670 LP  0  0  0  0  0  0  0  0  0  0  0  0  # atno 17320 bound_to 7965
  145.1600  140.9668  143.4383 LP  0  0  0  0  0  0  0  0  0  0  0  0  # atno 17321 bound_to 7965
  140.7483  143.6339  150.8397 LP  0  0  0  0  0  0  0  0  0  0  0  0  # atno 17342 bound_to 10162
  139.9974  143.5781  152.2888 LP  0  0  0  0  0  0  0  0  0  0  0  0  # atno 17343 bound_to 10162
  156.0068  130.5156  150.7857 LP  0  0  0  0  0  0  0  0  0  0  0  0  # atno 17370 bound_to 10713
  157.5175  131.0929  151.0121 LP  0  0  0  0  0  0  0  0  0  0  0  0  # atno 17371 bound_to 10713
  141.1314  133.6585  156.3475 LP  0  0  0  0  0  0  0  0  0  0  0  0  # atno 17394 bound_to 11000
  140.5446  134.6086  157.5390 LP  0  0  0  0  0  0  0  0  0  0  0  0  # atno 17395 bound_to 11000

$$$$
