AV-unprocessed.smi:691|AV-procd|sdf|3366|dock3
  -GOLD-   22720 0343D 1   1.00000     0.00000
 Structure written by MMmdl.
 37 38  0  0  0  0  0  0  0  0  1 V2000
  146.7059  140.5292  154.0809 C   0  0  0  0  0  0  0  0  0  0  0  0
  147.2654  139.2823  153.3559 C   0  0  1  0  0  0  0  0  0  0  0  0
  146.9437  139.3862  151.8419 C   0  0  0  0  0  0  0  0  0  0  0  0
  147.3002  138.2070  151.1486 O   0  0  0  0  0  0  0  0  0  0  0  0
  148.7847  139.2052  153.5900 C   0  0  0  0  0  0  0  0  0  0  0  0
  148.9742  138.5631  154.9691 C   0  0  0  0  0  0  0  0  0  0  0  0
  147.6844  137.7844  155.2620 C   0  0  0  0  0  0  0  0  0  0  0  0
  146.7615  137.9869  154.0474 C   0  0  2  0  0  0  0  0  0  0  0  0
  146.8530  136.8121  153.1762 N   0  0  0  0  0  0  0  0  0  0  0  0
  145.8441  135.9920  152.8484 C   0  0  0  0  0  0  0  0  0  0  0  0
  144.6924  136.1260  153.2604 O   0  0  0  0  0  0  0  0  0  0  0  0
  146.2604  135.0333  152.0035 N   0  0  0  0  0  0  0  0  0  0  0  0
  145.5041  133.9898  151.4041 C   0  0  0  0  0  0  0  0  0  0  0  0
  146.0341  133.0343  150.5034 C   0  0  0  0  0  0  0  0  0  0  0  0
  145.1742  132.0569  149.9661 C   0  0  0  0  0  0  0  0  0  0  0  0
  143.8171  132.0745  150.3417 C   0  0  0  0  0  0  0  0  0  0  0  0
  143.2954  132.9879  151.1872 N   0  0  0  0  0  0  0  0  0  0  0  0
  144.1256  133.9219  151.6979 C   0  0  0  0  0  0  0  0  0  0  0  0
  147.0974  141.4485  153.6446 H   0  0  0  0  0  0  0  0  0  0  0  0
  146.9620  140.5390  155.1404 H   0  0  0  0  0  0  0  0  0  0  0  0
  145.6186  140.5742  154.0152 H   0  0  0  0  0  0  0  0  0  0  0  0
  145.8779  139.5635  151.6944 H   0  0  0  0  0  0  0  0  0  0  0  0
  147.4588  140.2284  151.3792 H   0  0  0  0  0  0  0  0  0  0  0  0
  147.6897  137.6023  151.7616 H   0  0  0  0  0  0  0  0  0  0  0  0
  149.2426  138.5599  152.8391 H   0  0  0  0  0  0  0  0  0  0  0  0
  149.2757  140.1763  153.5150 H   0  0  0  0  0  0  0  0  0  0  0  0
  149.8521  137.9165  154.9864 H   0  0  0  0  0  0  0  0  0  0  0  0
  149.1228  139.3321  155.7281 H   0  0  0  0  0  0  0  0  0  0  0  0
  147.8825  136.7310  155.4666 H   0  0  0  0  0  0  0  0  0  0  0  0
  147.2121  138.1926  156.1566 H   0  0  0  0  0  0  0  0  0  0  0  0
  145.7320  138.1177  154.3851 H   0  0  0  0  0  0  0  0  0  0  0  0
  147.7617  136.6181  152.7823 H   0  0  0  0  0  0  0  0  0  0  0  0
  147.2212  135.0980  151.7005 H   0  0  0  0  0  0  0  0  0  0  0  0
  147.0706  133.0377  150.2043 H   0  0  0  0  0  0  0  0  0  0  0  0
  145.5462  131.3128  149.2773 H   0  0  0  0  0  0  0  0  0  0  0  0
  143.1313  131.3392  149.9478 H   0  0  0  0  0  0  0  0  0  0  0  0
  143.6729  134.6370  152.3693 H   0  0  0  0  0  0  0  0  0  0  0  0
  1  2  1  0  0  0  0
  1 19  1  0  0  0  0
  1 20  1  0  0  0  0
  1 21  1  0  0  0  0
  2  8  1  0  0  0  0
  2  3  1  0  0  0  0
  2  5  1  0  0  0  0
  3  4  1  0  0  0  0
  3 22  1  0  0  0  0
  3 23  1  0  0  0  0
  4 24  1  0  0  0  0
  5  6  1  0  0  0  0
  5 25  1  0  0  0  0
  5 26  1  0  0  0  0
  6  7  1  0  0  0  0
  6 27  1  0  0  0  0
  6 28  1  0  0  0  0
  7  8  1  0  0  0  0
  7 29  1  0  0  0  0
  7 30  1  0  0  0  0
  8  9  1  0  0  0  0
  8 31  1  0  0  0  0
  9 10  1  0  0  0  0
  9 32  1  0  0  0  0
 10 11  2  0  0  0  0
 10 12  1  0  0  0  0
 12 13  1  0  0  0  0
 12 33  1  0  0  0  0
 13 18  1  0  0  0  0
 13 14  2  0  0  0  0
 14 15  1  0  0  0  0
 14 34  1  0  0  0  0
 15 16  2  0  0  0  0
 15 35  1  0  0  0  0
 16 17  1  0  0  0  0
 16 36  1  0  0  0  0
 17 18  2  0  0  0  0
 18 37  1  0  0  0  0
M  END
> <s_m_source_file>
AV-unprocessed.smi

> <i_m_source_file_index>
691

> <i_lp_mmshare_version>
43012

> <i_f3d_flags>
0

> <s_epik_input>
W09IXVtDSDJdW0NAXTEoW0NIM10pW0NIMl1bQ0gyXVtDSDJdW0NASF0xW05IXUMoPU8pW05IXWMyW2NIXVtjSF1bY0hdbltjSF0y

> <s_epik_cmdline>
J2VwaWtfcHl0aG9uJywgJy1waCcsICc3LjAnLCAnLXRuJywgJzgnLCAnLW1hJywgJzIwMCcsICctbWV0YWxfYmluZGluZycsICctaW1hZScsICc8aW5maWxlLm1hZT4nLCAnLW9tYWUnLCAnPG91dGZpbGUubWFlPic=

> <r_epik_Ionization_Penalty>
0.00496828

> <r_epik_Ionization_Penalty_Charging>
0

> <r_epik_Ionization_Penalty_Neutral>
0.00496828

> <r_epik_State_Penalty>
0.00358054

> <r_epik_Charging_Adjusted_Penalty>
0.00358054

> <i_epik_Tot_Q>
0

> <i_epik_Tot_abs_Q>
0

> <r_epik_Metal_State_Penalty>
-0

> <b_epik_Metal_Only>
0

> <s_lp_Force_Field>
OPLS_2005

> <r_lp_Energy>
29.635

> <b_lp_Chiralities_Consistent>
1

> <s_lp_Variant>
AV-unprocessed.smi:691-3

> <Gold.Version>
5.8.1

> <Gold.Id.Protein>
6NUR|6NUR_protein|mol2

> <Gold.PLP.Fitness>
41.7531

> <Gold.PLP.PLP>
-27.8470

> <Gold.PLP.part.hbond>
-5.0000

> <Gold.PLP.part.metal>
0.0000

> <Gold.PLP.part.buried>
0.6368

> <Gold.PLP.part.nonpolar>
-24.2463

> <Gold.PLP.part.repulsive>
0.6427

> <Gold.PLP.ligand.clash>
0.0000

> <Gold.PLP.ligand.torsion>
0.0605

> <Gold.PLP.Chemscore.Hbond>
3.6880

> <Gold.PLP.Chemscore.CHOScore>
0.9824

> <Gold.PLP.Chemscore.Metal>
0.0000

> <Gold.Chemscore.Hbonds>
donor molecule, donor type, donor heavy atom, donor atom, acceptor molecule, acceptor atom, score
      L1  H     4    24       P1  7948  0.80
      L1  H     9    32       P1  7948  1.00
      L1  H    12    33       P1  7948  0.90
      P1  H  7954  7966       L1     4  0.95
      L1  C    16    36       P1 10952  0.97

> <Gold.PLP.Chemscore.Internal.Correction>
0.0157

> <Gold.Rescore>
     Score         DG    S(hbond)    S(metal)    S(lipo)     H(rot)  DE(clash)    DE(int)     intcor
     17.80     -19.57       3.13        0.00      70.11       1.78       0.26       1.51       ----

> <Gold.Chemscore.Fitness>
17.7999

> <Gold.Chemscore.DG>
-19.5657

> <Gold.Chemscore.ZeroCoef>
-5.4800

> <Gold.Chemscore.Hbond>
3.1286

> <Gold.Chemscore.Metal>
0.0000

> <Gold.Chemscore.Lipo>
70.1103

> <Gold.Chemscore.Internal_Hbond>
0.0000

> <Gold.Chemscore.DEClash>
0.2560

> <Gold.Chemscore.DEInternal>
1.5097

> <Gold.Chemscore.Rot>
1.7838

> <Gold.Chemscore.Internal.Correction>
   9.000000E+99

> <Gold.Chemscore.Hbonds>
donor molecule, donor type, donor heavy atom, donor atom, acceptor molecule, acceptor atom, score
      L1  H     4    24       P1  7948  0.80
      L1  H     9    32       P1  7948  0.95
      L1  H    12    33       P1  7948  0.76
      P1  H  7954  7966       L1     4  0.21

> <Gold.Chemscore.Hbond.Weighted>
-10.4494

> <Gold.Chemscore.Metal.Weighted>
-0.0000

> <Gold.Chemscore.Lipo.Weighted>
-8.2029

> <Gold.Chemscore.Internal_Hbond.Weighted>
0.0000

> <Gold.Chemscore.DEClash.Weighted>
0.2560

> <Gold.Chemscore.DEInternal.Weighted>
1.5097

> <Gold.Chemscore.Rot.Weighted>
4.5666

> <Gold.Chemscore.Internal.Correction.Weighted>
   9.000000E+99

> <Gold.Protein.RotatedTorsions>
[ 6907 6896 6895 6894 ] final  178.33 input  -60.11 | X-H torsion
[ 7974 7965 7964 7962 ] final  -48.78 input  175.53 | X-H torsion
[ 8008 7997 7996 7995 ] final  -46.85 input   59.86 | X-H torsion
[ 10167 10162 10161 10158 ] final   45.55 input  -65.29 | X-H torsion
[ 10718 10713 10712 10709 ] final  -19.75 input   66.30 | X-H torsion
[ 10763 10752 10751 10750 ] final   82.15 input  -60.55 | X-H torsion
[ 11005 11000 10999 10996 ] final  -20.05 input  -57.11 | X-H torsion

> <Gold.Protein.ActiveResidues>
 VAL166  LYS551  ARG553  GLY616  TRP617  ASP618  TYR619  PRO620  LYS621  CYS622 
 ASP623  PHE694  ASN695  SER759  ASP760  ASP761  ALA762  ILE779  LEU786  VAL792 
 PHE793  MET794  SER795  GLU796  ALA797  LYS798  CYS799  TRP800  GLU811  SER814 

> <Gold.Protein.RotatedAtoms>
  151.6896  133.3311  159.3239 H   0  0  0  0  0  0  0  0  0  0  0  0  # atno 6907 bound_to 6896
  150.7785  134.6710  159.6401 H   0  0  0  0  0  0  0  0  0  0  0  0  # atno 6908 bound_to 6896
  152.3835  134.6556  160.0186 H   0  0  0  0  0  0  0  0  0  0  0  0  # atno 6909 bound_to 6896
  145.9475  140.7604  142.9521 H   0  0  0  0  0  0  0  0  0  0  0  0  # atno 7974 bound_to 7965
  154.4011  140.1361  156.4079 H   0  0  0  0  0  0  0  0  0  0  0  0  # atno 8008 bound_to 7997
  155.7762  140.3482  155.5252 H   0  0  0  0  0  0  0  0  0  0  0  0  # atno 8009 bound_to 7997
  155.8719  140.0973  157.1535 H   0  0  0  0  0  0  0  0  0  0  0  0  # atno 8010 bound_to 7997
  140.3230  144.2682  150.6179 H   0  0  0  0  0  0  0  0  0  0  0  0  # atno 10167 bound_to 10162
  156.5413  130.4679  149.6497 H   0  0  0  0  0  0  0  0  0  0  0  0  # atno 10718 bound_to 10713
  153.1178  135.4739  154.9144 H   0  0  0  0  0  0  0  0  0  0  0  0  # atno 10763 bound_to 10752
  154.7545  135.3115  154.8497 H   0  0  0  0  0  0  0  0  0  0  0  0  # atno 10764 bound_to 10752
  153.9069  135.6869  153.4806 H   0  0  0  0  0  0  0  0  0  0  0  0  # atno 10765 bound_to 10752
  140.8426  133.7915  155.9878 H   0  0  0  0  0  0  0  0  0  0  0  0  # atno 11005 bound_to 11000
  144.6790  140.2380  143.7347 LP  0  0  0  0  0  0  0  0  0  0  0  0  # atno 17320 bound_to 7965
  145.8216  139.2046  143.1934 LP  0  0  0  0  0  0  0  0  0  0  0  0  # atno 17321 bound_to 7965
  140.5466  143.2213  151.7997 LP  0  0  0  0  0  0  0  0  0  0  0  0  # atno 17342 bound_to 10162
  139.4870  144.4531  151.9630 LP  0  0  0  0  0  0  0  0  0  0  0  0  # atno 17343 bound_to 10162
  156.2969  130.7155  151.2017 LP  0  0  0  0  0  0  0  0  0  0  0  0  # atno 17370 bound_to 10713
  157.7405  131.0516  150.5164 LP  0  0  0  0  0  0  0  0  0  0  0  0  # atno 17371 bound_to 10713
  140.8878  134.2532  157.5110 LP  0  0  0  0  0  0  0  0  0  0  0  0  # atno 17394 bound_to 11000
  139.8703  134.9647  156.4503 LP  0  0  0  0  0  0  0  0  0  0  0  0  # atno 17395 bound_to 11000

$$$$
