AV-unprocessed.smi:1953|AV-procd|sdf|7893|dock2
  -GOLD-   2272010 53D 1   1.00000     0.00000
 Structure written by MMmdl.
 43 45  0  0  0  0  0  0  0  0  1 V2000
  146.7672  141.8366  154.6755 N   0  0  0  0  0  0  0  0  0  0  0  0
  147.8292  141.4346  154.8998 C   0  0  0  0  0  0  0  0  0  0  0  0
  149.1410  140.9339  155.1452 C   0  0  0  0  0  0  0  0  0  0  0  0
  149.9799  141.5345  156.0141 C   0  0  0  0  0  0  0  0  0  0  0  0
  151.2453  141.0552  156.2738 N   0  0  0  0  0  0  0  0  0  0  0  0
  152.1728  141.7849  157.0915 C   0  0  0  0  0  0  0  0  0  0  0  0
  151.9069  141.9562  158.5746 C   0  0  0  0  0  0  0  0  0  0  0  0
  151.7659  143.1342  157.6428 C   0  0  0  0  0  0  0  0  0  0  0  0
  151.7434  139.9433  155.5609 C   0  0  0  0  0  0  0  0  0  0  0  0
  152.9009  139.5481  155.7228 O   0  0  0  0  0  0  0  0  0  0  0  0
  150.8729  139.2945  154.6513 N   0  0  0  0  0  0  0  0  0  0  0  0
  151.3653  138.0899  153.9479 C   0  0  0  0  0  0  0  0  0  0  0  0
  151.2298  136.8106  154.7866 C   0  0  0  0  0  0  0  0  0  0  0  0
  151.9850  136.5964  155.7361 O   0  0  0  0  0  0  0  0  0  0  0  0
  150.2479  135.9713  154.4244 N   0  0  0  0  0  0  0  0  0  0  0  0
  149.9493  134.6938  155.0645 C   0  0  0  0  0  0  0  0  0  0  0  0
  151.2519  133.9605  155.4505 C   0  0  0  0  0  0  0  0  0  0  0  0
  150.9623  132.5744  156.0483 C   0  0  0  0  0  0  0  0  0  0  0  0
  150.1141  131.7211  155.0930 C   0  0  0  0  0  0  0  0  0  0  0  0
  148.8120  132.4438  154.7147 C   0  0  0  0  0  0  0  0  0  0  0  0
  149.0975  133.8300  154.1148 C   0  0  0  0  0  0  0  0  0  0  0  0
  149.5470  139.7375  154.4109 C   0  0  0  0  0  0  0  0  0  0  0  0
  148.8071  139.1363  153.6305 O   0  0  0  0  0  0  0  0  0  0  0  0
  149.6460  142.4203  156.5352 H   0  0  0  0  0  0  0  0  0  0  0  0
  153.2190  141.6864  156.8070 H   0  0  0  0  0  0  0  0  0  0  0  0
  150.9905  141.5364  158.9855 H   0  0  0  0  0  0  0  0  0  0  0  0
  152.7656  141.9418  159.2425 H   0  0  0  0  0  0  0  0  0  0  0  0
  152.5305  143.9066  157.6909 H   0  0  0  0  0  0  0  0  0  0  0  0
  150.7576  143.4896  157.4395 H   0  0  0  0  0  0  0  0  0  0  0  0
  150.8437  137.9317  153.0031 H   0  0  0  0  0  0  0  0  0  0  0  0
  152.4083  138.2215  153.6539 H   0  0  0  0  0  0  0  0  0  0  0  0
  149.6716  136.2300  153.6367 H   0  0  0  0  0  0  0  0  0  0  0  0
  149.3668  134.8800  155.9691 H   0  0  0  0  0  0  0  0  0  0  0  0
  151.8876  133.8489  154.5708 H   0  0  0  0  0  0  0  0  0  0  0  0
  151.8214  134.5521  156.1681 H   0  0  0  0  0  0  0  0  0  0  0  0
  151.8993  132.0636  156.2717 H   0  0  0  0  0  0  0  0  0  0  0  0
  150.4389  132.6895  156.9984 H   0  0  0  0  0  0  0  0  0  0  0  0
  150.6868  131.5025  154.1908 H   0  0  0  0  0  0  0  0  0  0  0  0
  149.8861  130.7602  155.5552 H   0  0  0  0  0  0  0  0  0  0  0  0
  148.2455  131.8413  154.0041 H   0  0  0  0  0  0  0  0  0  0  0  0
  148.1832  132.5512  155.5996 H   0  0  0  0  0  0  0  0  0  0  0  0
  148.1561  134.3345  153.8937 H   0  0  0  0  0  0  0  0  0  0  0  0
  149.6144  133.7091  153.1616 H   0  0  0  0  0  0  0  0  0  0  0  0
  1  2  3  0  0  0  0
  2  3  1  0  0  0  0
  3 22  1  0  0  0  0
  3  4  2  0  0  0  0
  4  5  1  0  0  0  0
  4 24  1  0  0  0  0
  5  6  1  0  0  0  0
  5  9  1  0  0  0  0
  6  8  1  0  0  0  0
  6  7  1  0  0  0  0
  6 25  1  0  0  0  0
  7  8  1  0  0  0  0
  7 26  1  0  0  0  0
  7 27  1  0  0  0  0
  8 28  1  0  0  0  0
  8 29  1  0  0  0  0
  9 10  2  0  0  0  0
  9 11  1  0  0  0  0
 11 12  1  0  0  0  0
 11 22  1  0  0  0  0
 12 13  1  0  0  0  0
 12 30  1  0  0  0  0
 12 31  1  0  0  0  0
 13 14  2  0  0  0  0
 13 15  1  0  0  0  0
 15 16  1  0  0  0  0
 15 32  1  0  0  0  0
 16 21  1  0  0  0  0
 16 17  1  0  0  0  0
 16 33  1  0  0  0  0
 17 18  1  0  0  0  0
 17 34  1  0  0  0  0
 17 35  1  0  0  0  0
 18 19  1  0  0  0  0
 18 36  1  0  0  0  0
 18 37  1  0  0  0  0
 19 20  1  0  0  0  0
 19 38  1  0  0  0  0
 19 39  1  0  0  0  0
 20 21  1  0  0  0  0
 20 40  1  0  0  0  0
 20 41  1  0  0  0  0
 21 42  1  0  0  0  0
 21 43  1  0  0  0  0
 22 23  2  0  0  0  0
M  END
> <s_m_source_file>
AV-unprocessed.smi

> <i_m_source_file_index>
1953

> <i_lp_mmshare_version>
43012

> <i_f3d_flags>
0

> <s_epik_input>
TiNDYzFbY0hdbihbQ0hdMltDSDJdW0NIMl0yKWMoPU8pbihjMT1PKVtDSDJdQyg9TylbTkhdW0NIXTNbQ0gyXVtDSDJdW0NIMl1bQ0gyXVtDSDJdMw==

> <s_epik_cmdline>
J2VwaWtfcHl0aG9uJywgJy1waCcsICc3LjAnLCAnLXRuJywgJzgnLCAnLW1hJywgJzIwMCcsICctbWV0YWxfYmluZGluZycsICctaW1hZScsICc8aW5maWxlLm1hZT4nLCAnLW9tYWUnLCAnPG91dGZpbGUubWFlPic=

> <r_lp_tautomer_probability>
1

> <r_epik_Ionization_Penalty>
1.91355e-08

> <r_epik_Ionization_Penalty_Charging>
8.86257e-11

> <r_epik_Ionization_Penalty_Neutral>
1.90469e-08

> <r_epik_State_Penalty>
-0

> <r_epik_Charging_Adjusted_Penalty>
8.86257e-11

> <i_epik_Tot_Q>
0

> <i_epik_Tot_abs_Q>
0

> <r_epik_Metal_State_Penalty>
-0

> <b_epik_Metal_Only>
0

> <s_lp_Force_Field>
OPLS_2005

> <r_lp_Energy>
34.5376

> <b_lp_Chiralities_Consistent>
1

> <s_lp_Variant>
AV-unprocessed.smi:1953-1

> <Gold.Version>
5.8.1

> <Gold.Id.Protein>
6NUR|6NUR_protein|mol2

> <Gold.PLP.Fitness>
49.9282

> <Gold.PLP.PLP>
-39.6210

> <Gold.PLP.part.hbond>
-3.5035

> <Gold.PLP.part.metal>
0.0000

> <Gold.PLP.part.buried>
-5.6913

> <Gold.PLP.part.nonpolar>
-31.7700

> <Gold.PLP.part.repulsive>
2.8657

> <Gold.PLP.ligand.clash>
0.0000

> <Gold.PLP.ligand.torsion>
0.8854

> <Gold.PLP.Chemscore.Hbond>
2.9588

> <Gold.PLP.Chemscore.CHOScore>
1.0000

> <Gold.PLP.Chemscore.Metal>
0.0000

> <Gold.Chemscore.Hbonds>
donor molecule, donor type, donor heavy atom, donor atom, acceptor molecule, acceptor atom, score
      L1  H    15    32       P1  7948  1.00
      P1  H  7997  8009       L1    10  1.00
      P1  H 10752 10763       L1    14  1.00
      L1  C     4    24       P1  8028  0.89

> <Gold.PLP.Chemscore.Internal.Correction>
0.2018

> <Gold.Rescore>
     Score         DG    S(hbond)    S(metal)    S(lipo)     H(rot)  DE(clash)    DE(int)     intcor
     14.27     -18.64       2.59        0.00      76.30       1.73       1.60       2.78       ----

> <Gold.Chemscore.Fitness>
14.2662

> <Gold.Chemscore.DG>
-18.6441

> <Gold.Chemscore.ZeroCoef>
-5.4800

> <Gold.Chemscore.Hbond>
2.5944

> <Gold.Chemscore.Metal>
0.0000

> <Gold.Chemscore.Lipo>
76.3012

> <Gold.Chemscore.Internal_Hbond>
0.0000

> <Gold.Chemscore.DEClash>
1.6018

> <Gold.Chemscore.DEInternal>
2.7761

> <Gold.Chemscore.Rot>
1.7298

> <Gold.Chemscore.Internal.Correction>
   9.000000E+99

> <Gold.Chemscore.Hbonds>
donor molecule, donor type, donor heavy atom, donor atom, acceptor molecule, acceptor atom, score
      L1  H    15    32       P1  7948  0.39
      P1  H  7997  8009       L1    10  1.00
      P1  H 10752 10763       L1    14  0.42

> <Gold.Chemscore.Hbond.Weighted>
-8.6653

> <Gold.Chemscore.Metal.Weighted>
-0.0000

> <Gold.Chemscore.Lipo.Weighted>
-8.9272

> <Gold.Chemscore.Internal_Hbond.Weighted>
0.0000

> <Gold.Chemscore.DEClash.Weighted>
1.6018

> <Gold.Chemscore.DEInternal.Weighted>
2.7761

> <Gold.Chemscore.Rot.Weighted>
4.4284

> <Gold.Chemscore.Internal.Correction.Weighted>
   9.000000E+99

> <Gold.Protein.RotatedTorsions>
[ 6907 6896 6895 6894 ] final  -48.91 input  -60.11 | X-H torsion
[ 7974 7965 7964 7962 ] final   55.26 input  175.53 | X-H torsion
[ 8008 7997 7996 7995 ] final -158.32 input   59.86 | X-H torsion
[ 10167 10162 10161 10158 ] final   82.74 input  -65.29 | X-H torsion
[ 10718 10713 10712 10709 ] final   65.77 input   66.30 | X-H torsion
[ 10763 10752 10751 10750 ] final   94.05 input  -60.55 | X-H torsion
[ 11005 11000 10999 10996 ] final  159.22 input  -57.11 | X-H torsion

> <Gold.Protein.ActiveResidues>
 VAL166  LYS551  ARG553  GLY616  TRP617  ASP618  TYR619  PRO620  LYS621  CYS622 
 ASP623  PHE694  ASN695  SER759  ASP760  ASP761  ALA762  ILE779  LEU786  VAL792 
 PHE793  MET794  SER795  GLU796  ALA797  LYS798  CYS799  TRP800  GLU811  SER814 

> <Gold.Protein.RotatedAtoms>
  150.8857  134.8255  159.7257 H   0  0  0  0  0  0  0  0  0  0  0  0  # atno 6907 bound_to 6896
  152.4806  134.4726  159.9650 H   0  0  0  0  0  0  0  0  0  0  0  0  # atno 6908 bound_to 6896
  151.4794  133.3511  159.2871 H   0  0  0  0  0  0  0  0  0  0  0  0  # atno 6909 bound_to 6896
  145.9523  139.3983  143.0298 H   0  0  0  0  0  0  0  0  0  0  0  0  # atno 7974 bound_to 7965
  155.7457  140.0820  157.2225 H   0  0  0  0  0  0  0  0  0  0  0  0  # atno 8008 bound_to 7997
  154.4017  140.1569  156.2722 H   0  0  0  0  0  0  0  0  0  0  0  0  # atno 8009 bound_to 7997
  155.8978  140.3411  155.6006 H   0  0  0  0  0  0  0  0  0  0  0  0  # atno 8010 bound_to 7997
  139.9256  144.6185  150.8396 H   0  0  0  0  0  0  0  0  0  0  0  0  # atno 10167 bound_to 10162
  157.6126  130.9232  150.0020 H   0  0  0  0  0  0  0  0  0  0  0  0  # atno 10718 bound_to 10713
  153.2373  135.4303  155.0660 H   0  0  0  0  0  0  0  0  0  0  0  0  # atno 10763 bound_to 10752
  154.8324  135.3394  154.6701 H   0  0  0  0  0  0  0  0  0  0  0  0  # atno 10764 bound_to 10752
  153.7126  135.7022  153.5090 H   0  0  0  0  0  0  0  0  0  0  0  0  # atno 10765 bound_to 10752
  140.1941  134.8386  157.2945 H   0  0  0  0  0  0  0  0  0  0  0  0  # atno 11005 bound_to 11000
  145.8154  140.9705  143.0927 LP  0  0  0  0  0  0  0  0  0  0  0  0  # atno 17320 bound_to 7965
  144.6798  139.9974  143.7484 LP  0  0  0  0  0  0  0  0  0  0  0  0  # atno 17321 bound_to 7965
  140.7651  143.3266  151.2503 LP  0  0  0  0  0  0  0  0  0  0  0  0  # atno 17342 bound_to 10162
  139.6825  143.9830  152.2816 LP  0  0  0  0  0  0  0  0  0  0  0  0  # atno 17343 bound_to 10162
  156.1235  130.3645  149.9847 LP  0  0  0  0  0  0  0  0  0  0  0  0  # atno 17370 bound_to 10713
  156.7922  130.9260  151.3646 LP  0  0  0  0  0  0  0  0  0  0  0  0  # atno 17371 bound_to 10713
  140.2127  134.4119  155.7605 LP  0  0  0  0  0  0  0  0  0  0  0  0  # atno 17394 bound_to 11000
  141.2227  133.7126  156.8363 LP  0  0  0  0  0  0  0  0  0  0  0  0  # atno 17395 bound_to 11000

$$$$
