AV-unprocessed.smi:1601|AV-procd|sdf|6433|dock1
  -GOLD-   22720 7 73D 1   1.00000     0.00000
 Structure written by MMmdl.
 41 42  0  0  0  0  0  0  0  0  1 V2000
  150.6171  134.2542  155.7356 C   0  0  0  0  0  0  0  0  0  0  0  0
  149.8250  135.5359  156.1042 C   0  0  2  0  0  0  0  0  0  0  0  0
  148.3101  135.1948  156.1476 C   0  0  0  0  0  0  0  0  0  0  0  0
  147.6266  135.8639  157.2478 N   0  0  0  0  0  0  0  0  0  0  0  0
  148.1037  135.9747  158.4967 C   0  0  0  0  0  0  0  0  0  0  0  0
  149.1672  135.4664  158.8535 O   0  0  0  0  0  0  0  0  0  0  0  0
  147.2381  136.7774  159.4847 C   0  0  1  0  0  0  0  0  0  0  0  0
  145.7948  136.9971  158.9865 C   0  0  0  0  0  0  0  0  0  0  0  0
  147.2669  136.1664  160.8102 N   0  0  0  0  0  0  0  0  0  0  0  0
  146.9133  134.8784  161.1593 C   0  0  0  0  0  0  0  0  0  0  0  0
  147.0620  134.7635  162.5115 C   0  0  0  0  0  0  0  0  0  0  0  0
  147.5092  136.0529  162.9128 C   0  0  0  0  0  0  0  0  0  0  0  0
  147.6249  136.8910  161.8960 N   0  0  0  0  0  0  0  0  0  0  0  0
  150.1429  136.6798  155.2177 N   0  0  0  0  0  0  0  0  0  0  0  0
  149.3105  137.8580  155.4879 C   0  0  0  0  0  0  0  0  0  0  0  0
  149.6611  139.0571  154.5897 C   0  0  0  0  0  0  0  0  0  0  0  0
  151.0353  139.3842  154.7409 O   0  0  0  0  0  0  0  0  0  0  0  0
  151.8818  138.2923  154.4098 C   0  0  0  0  0  0  0  0  0  0  0  0
  151.5494  137.0888  155.3088 C   0  0  0  0  0  0  0  0  0  0  0  0
  150.3432  133.3980  156.3514 H   0  0  0  0  0  0  0  0  0  0  0  0
  151.6894  134.3754  155.8831 H   0  0  0  0  0  0  0  0  0  0  0  0
  150.4489  133.9730  154.6952 H   0  0  0  0  0  0  0  0  0  0  0  0
  150.1176  135.8084  157.1195 H   0  0  0  0  0  0  0  0  0  0  0  0
  147.7964  135.5173  155.2433 H   0  0  0  0  0  0  0  0  0  0  0  0
  148.1776  134.1140  156.2259 H   0  0  0  0  0  0  0  0  0  0  0  0
  146.7437  136.3051  157.0353 H   0  0  0  0  0  0  0  0  0  0  0  0
  147.7011  137.7612  159.5755 H   0  0  0  0  0  0  0  0  0  0  0  0
  145.7822  137.5263  158.0331 H   0  0  0  0  0  0  0  0  0  0  0  0
  145.2266  137.5967  159.6979 H   0  0  0  0  0  0  0  0  0  0  0  0
  145.2629  136.0550  158.8493 H   0  0  0  0  0  0  0  0  0  0  0  0
  146.5872  134.1583  160.4233 H   0  0  0  0  0  0  0  0  0  0  0  0
  146.8764  133.8922  163.1220 H   0  0  0  0  0  0  0  0  0  0  0  0
  147.7487  136.4038  163.9058 H   0  0  0  0  0  0  0  0  0  0  0  0
  148.2592  137.6351  155.3172 H   0  0  0  0  0  0  0  0  0  0  0  0
  149.4091  138.1489  156.5348 H   0  0  0  0  0  0  0  0  0  0  0  0
  149.4443  138.8334  153.5440 H   0  0  0  0  0  0  0  0  0  0  0  0
  149.0580  139.9231  154.8631 H   0  0  0  0  0  0  0  0  0  0  0  0
  151.7615  138.0333  153.3567 H   0  0  0  0  0  0  0  0  0  0  0  0
  152.9204  138.5930  154.5487 H   0  0  0  0  0  0  0  0  0  0  0  0
  151.7981  137.3305  156.3434 H   0  0  0  0  0  0  0  0  0  0  0  0
  152.2063  136.2753  155.0066 H   0  0  0  0  0  0  0  0  0  0  0  0
  1  2  1  0  0  0  0
  1 20  1  0  0  0  0
  1 21  1  0  0  0  0
  1 22  1  0  0  0  0
  2  3  1  0  0  0  0
  2 14  1  0  0  0  0
  2 23  1  0  0  0  0
  3  4  1  0  0  0  0
  3 24  1  0  0  0  0
  3 25  1  0  0  0  0
  4  5  1  0  0  0  0
  4 26  1  0  0  0  0
  5  6  2  0  0  0  0
  5  7  1  0  0  0  0
  7  8  1  0  0  0  0
  7  9  1  0  0  0  0
  7 27  1  0  0  0  0
  8 28  1  0  0  0  0
  8 29  1  0  0  0  0
  8 30  1  0  0  0  0
  9 13  1  0  0  0  0
  9 10  1  0  0  0  0
 10 11  2  0  0  0  0
 10 31  1  0  0  0  0
 11 12  1  0  0  0  0
 11 32  1  0  0  0  0
 12 13  2  0  0  0  0
 12 33  1  0  0  0  0
 14 19  1  0  0  0  0
 14 15  1  0  0  0  0
 15 16  1  0  0  0  0
 15 34  1  0  0  0  0
 15 35  1  0  0  0  0
 16 17  1  0  0  0  0
 16 36  1  0  0  0  0
 16 37  1  0  0  0  0
 17 18  1  0  0  0  0
 18 19  1  0  0  0  0
 18 38  1  0  0  0  0
 18 39  1  0  0  0  0
 19 40  1  0  0  0  0
 19 41  1  0  0  0  0
M  END
> <s_m_source_file>
AV-unprocessed.smi

> <i_m_source_file_index>
1601

> <i_lp_mmshare_version>
43012

> <i_f3d_flags>
0

> <s_epik_input>
W0NIMl0xW0NIMl1PW0NIMl1bQ0gyXU4xW0NASF0oW0NIM10pW0NIMl1bTkhdQyg9TylbQ0BIXShbQ0gzXSluMltjSF1bY0hdW2NIXW4y

> <s_epik_cmdline>
J2VwaWtfcHl0aG9uJywgJy1waCcsICc3LjAnLCAnLXRuJywgJzgnLCAnLW1hJywgJzIwMCcsICctbWV0YWxfYmluZGluZycsICctaW1hZScsICc8aW5maWxlLm1hZT4nLCAnLW9tYWUnLCAnPG91dGZpbGUubWFlPic=

> <r_lp_tautomer_probability>
1

> <r_epik_Ionization_Penalty>
0.203323

> <r_epik_Ionization_Penalty_Charging>
0

> <r_epik_Ionization_Penalty_Neutral>
0.203323

> <r_epik_State_Penalty>
0.193192

> <r_epik_Charging_Adjusted_Penalty>
0.193192

> <i_epik_Tot_Q>
0

> <i_epik_Tot_abs_Q>
0

> <r_epik_Metal_State_Penalty>
0.193187

> <b_epik_Metal_Only>
0

> <s_lp_Force_Field>
OPLS_2005

> <r_lp_Energy>
33.4287

> <b_lp_Chiralities_Consistent>
1

> <s_lp_Variant>
AV-unprocessed.smi:1601-3

> <Gold.Version>
5.8.1

> <Gold.Id.Protein>
6NUR|6NUR_protein|mol2

> <Gold.PLP.Fitness>
39.1307

> <Gold.PLP.PLP>
-30.6978

> <Gold.PLP.part.hbond>
-4.0000

> <Gold.PLP.part.metal>
0.0000

> <Gold.PLP.part.buried>
-4.4505

> <Gold.PLP.part.nonpolar>
-21.9717

> <Gold.PLP.part.repulsive>
0.2425

> <Gold.PLP.ligand.clash>
0.0000

> <Gold.PLP.ligand.torsion>
1.2955

> <Gold.PLP.Chemscore.Hbond>
3.5708

> <Gold.PLP.Chemscore.CHOScore>
0.0000

> <Gold.PLP.Chemscore.Metal>
0.0000

> <Gold.Chemscore.Hbonds>
donor molecule, donor type, donor heavy atom, donor atom, acceptor molecule, acceptor atom, score
      P1  H  6896  6907       L1     6  1.00
      P1  H  6931  6943       L1    13  1.00
      P1  H  6934  6947       L1    13  0.09
      P1  H  7989  7998       L1    17  1.00

> <Gold.PLP.Chemscore.Internal.Correction>
0.3115

> <Gold.Rescore>
     Score         DG    S(hbond)    S(metal)    S(lipo)     H(rot)  DE(clash)    DE(int)     intcor
     14.80     -17.67       2.71        0.00      65.96       1.79       0.51       2.36       ----

> <Gold.Chemscore.Fitness>
14.8009

> <Gold.Chemscore.DG>
-17.6673

> <Gold.Chemscore.ZeroCoef>
-5.4800

> <Gold.Chemscore.Hbond>
2.7081

> <Gold.Chemscore.Metal>
0.0000

> <Gold.Chemscore.Lipo>
65.9614

> <Gold.Chemscore.Internal_Hbond>
0.0000

> <Gold.Chemscore.DEClash>
0.5092

> <Gold.Chemscore.DEInternal>
2.3572

> <Gold.Chemscore.Rot>
1.7872

> <Gold.Chemscore.Internal.Correction>
   9.000000E+99

> <Gold.Chemscore.Hbonds>
donor molecule, donor type, donor heavy atom, donor atom, acceptor molecule, acceptor atom, score
      P1  H  6896  6907       L1     6  1.00
      P1  H  6931  6943       L1    13  0.94
      P1  H  6934  6947       L1    13  0.02
      P1  H  7989  7998       L1    17  0.36

> <Gold.Chemscore.Hbond.Weighted>
-9.0450

> <Gold.Chemscore.Metal.Weighted>
-0.0000

> <Gold.Chemscore.Lipo.Weighted>
-7.7175

> <Gold.Chemscore.Internal_Hbond.Weighted>
0.0000

> <Gold.Chemscore.DEClash.Weighted>
0.5092

> <Gold.Chemscore.DEInternal.Weighted>
2.3572

> <Gold.Chemscore.Rot.Weighted>
4.5752

> <Gold.Chemscore.Internal.Correction.Weighted>
   9.000000E+99

> <Gold.Protein.RotatedTorsions>
[ 6907 6896 6895 6894 ] final  -75.06 input  -60.11 | X-H torsion
[ 7974 7965 7964 7962 ] final   80.23 input  175.53 | X-H torsion
[ 8008 7997 7996 7995 ] final    8.69 input   59.86 | X-H torsion
[ 10167 10162 10161 10158 ] final  -89.70 input  -65.29 | X-H torsion
[ 10718 10713 10712 10709 ] final   76.90 input   66.30 | X-H torsion
[ 10763 10752 10751 10750 ] final   55.93 input  -60.55 | X-H torsion
[ 11005 11000 10999 10996 ] final -125.05 input  -57.11 | X-H torsion

> <Gold.Protein.ActiveResidues>
 VAL166  LYS551  ARG553  GLY616  TRP617  ASP618  TYR619  PRO620  LYS621  CYS622 
 ASP623  PHE694  ASN695  SER759  ASP760  ASP761  ALA762  ILE779  LEU786  VAL792 
 PHE793  MET794  SER795  GLU796  ALA797  LYS798  CYS799  TRP800  GLU811  SER814 

> <Gold.Protein.RotatedAtoms>
  150.7072  134.4777  159.5455 H   0  0  0  0  0  0  0  0  0  0  0  0  # atno 6907 bound_to 6896
  152.2421  134.8215  160.0468 H   0  0  0  0  0  0  0  0  0  0  0  0  # atno 6908 bound_to 6896
  151.8993  133.3499  159.3862 H   0  0  0  0  0  0  0  0  0  0  0  0  # atno 6909 bound_to 6896
  145.6539  139.2454  143.1961 H   0  0  0  0  0  0  0  0  0  0  0  0  # atno 7974 bound_to 7965
  154.7702  140.2800  155.6144 H   0  0  0  0  0  0  0  0  0  0  0  0  # atno 8008 bound_to 7997
  156.2932  140.2643  156.2430 H   0  0  0  0  0  0  0  0  0  0  0  0  # atno 8009 bound_to 7997
  154.9909  140.0373  157.2309 H   0  0  0  0  0  0  0  0  0  0  0  0  # atno 8010 bound_to 7997
  140.3622  143.2836  151.9601 H   0  0  0  0  0  0  0  0  0  0  0  0  # atno 10167 bound_to 10162
  157.6691  130.9796  150.1563 H   0  0  0  0  0  0  0  0  0  0  0  0  # atno 10718 bound_to 10713
  152.9824  135.5694  154.5146 H   0  0  0  0  0  0  0  0  0  0  0  0  # atno 10763 bound_to 10752
  154.4644  135.2782  155.1691 H   0  0  0  0  0  0  0  0  0  0  0  0  # atno 10764 bound_to 10752
  154.3265  135.6258  153.5585 H   0  0  0  0  0  0  0  0  0  0  0  0  # atno 10765 bound_to 10752
  140.9793  134.0696  157.3783 H   0  0  0  0  0  0  0  0  0  0  0  0  # atno 11005 bound_to 11000
  146.1181  140.7343  142.9470 LP  0  0  0  0  0  0  0  0  0  0  0  0  # atno 17320 bound_to 7965
  144.7113  140.4048  143.7078 LP  0  0  0  0  0  0  0  0  0  0  0  0  # atno 17321 bound_to 7965
  139.4813  144.5982  151.7652 LP  0  0  0  0  0  0  0  0  0  0  0  0  # atno 17342 bound_to 10162
  140.5116  144.1017  150.5996 LP  0  0  0  0  0  0  0  0  0  0  0  0  # atno 17343 bound_to 10162
  156.2350  130.3685  149.8401 LP  0  0  0  0  0  0  0  0  0  0  0  0  # atno 17370 bound_to 10713
  156.6217  130.8629  151.3477 LP  0  0  0  0  0  0  0  0  0  0  0  0  # atno 17371 bound_to 10713
  139.8943  135.0135  156.6946 LP  0  0  0  0  0  0  0  0  0  0  0  0  # atno 17394 bound_to 11000
  140.7211  133.9140  155.8147 LP  0  0  0  0  0  0  0  0  0  0  0  0  # atno 17395 bound_to 11000

$$$$
