AV-unprocessed.smi:1538|AV-procd|sdf|6194|dock10
  -GOLD-   22720 6363D 1   1.00000     0.00000
 Structure written by MMmdl.
 36 37  0  0  0  0  0  0  0  0  1 V2000
  149.2639  130.7969  158.6601 C   0  0  0  0  0  0  0  0  0  0  0  0
  149.4980  131.4676  157.3799 N   0  0  0  0  0  0  0  0  0  0  0  0
  149.5776  130.5730  156.2185 C   0  0  0  0  0  0  0  0  0  0  0  0
  150.2861  131.2099  155.0157 C   0  0  0  0  0  0  0  0  0  0  0  0
  149.7422  132.6137  154.7139 C   0  0  1  0  0  0  0  0  0  0  0  0
  148.3346  132.5736  154.0955 C   0  0  0  0  0  0  0  0  0  0  0  0
  147.5218  131.7190  154.4499 O   0  0  0  0  0  0  0  0  0  0  0  0
  148.0670  133.4957  153.1573 N   0  0  0  0  0  0  0  0  0  0  0  0
  146.8375  133.5637  152.3723 C   0  0  0  0  0  0  0  0  0  0  0  0
  146.4397  132.1851  151.8110 C   0  0  0  0  0  0  0  0  0  0  0  0
  145.4962  132.2789  150.7117 N   0  0  0  0  0  0  0  0  0  0  0  0
  144.2380  132.8659  150.7334 C   0  0  0  0  0  0  0  0  0  0  0  0
  143.7058  132.7006  149.4744 C   0  0  0  0  0  0  0  0  0  0  0  0
  144.6165  132.0262  148.6645 N   0  0  0  0  0  0  0  0  0  0  0  0
  145.6532  131.8136  149.4645 C   0  0  0  0  0  0  0  0  0  0  0  0
  149.8124  133.5190  155.9652 C   0  0  0  0  0  0  0  0  0  0  0  0
  149.5724  132.8196  157.3175 C   0  0  0  0  0  0  0  0  0  0  0  0
  149.4694  133.5297  158.3184 O   0  0  0  0  0  0  0  0  0  0  0  0
  148.3864  131.2089  159.1612 H   0  0  0  0  0  0  0  0  0  0  0  0
  150.1244  130.9226  159.3184 H   0  0  0  0  0  0  0  0  0  0  0  0
  149.0909  129.7271  158.5392 H   0  0  0  0  0  0  0  0  0  0  0  0
  150.1029  129.6557  156.4878 H   0  0  0  0  0  0  0  0  0  0  0  0
  148.5643  130.2762  155.9456 H   0  0  0  0  0  0  0  0  0  0  0  0
  151.3545  131.2800  155.2250 H   0  0  0  0  0  0  0  0  0  0  0  0
  150.1916  130.5622  154.1428 H   0  0  0  0  0  0  0  0  0  0  0  0
  150.3971  133.0592  153.9631 H   0  0  0  0  0  0  0  0  0  0  0  0
  148.7874  134.1673  152.9348 H   0  0  0  0  0  0  0  0  0  0  0  0
  146.0194  133.9929  152.9532 H   0  0  0  0  0  0  0  0  0  0  0  0
  147.0125  134.2512  151.5447 H   0  0  0  0  0  0  0  0  0  0  0  0
  147.3260  131.6618  151.4511 H   0  0  0  0  0  0  0  0  0  0  0  0
  146.0074  131.5641  152.5968 H   0  0  0  0  0  0  0  0  0  0  0  0
  143.8334  133.3310  151.6201 H   0  0  0  0  0  0  0  0  0  0  0  0
  142.7452  133.0130  149.0923 H   0  0  0  0  0  0  0  0  0  0  0  0
  146.5437  131.2967  149.1381 H   0  0  0  0  0  0  0  0  0  0  0  0
  150.8073  133.9628  156.0160 H   0  0  0  0  0  0  0  0  0  0  0  0
  149.1229  134.3600  155.8761 H   0  0  0  0  0  0  0  0  0  0  0  0
  1  2  1  0  0  0  0
  1 19  1  0  0  0  0
  1 20  1  0  0  0  0
  1 21  1  0  0  0  0
  2 17  1  0  0  0  0
  2  3  1  0  0  0  0
  3  4  1  0  0  0  0
  3 22  1  0  0  0  0
  3 23  1  0  0  0  0
  4  5  1  0  0  0  0
  4 24  1  0  0  0  0
  4 25  1  0  0  0  0
  5  6  1  0  0  0  0
  5 16  1  0  0  0  0
  5 26  1  0  0  0  0
  6  7  2  0  0  0  0
  6  8  1  0  0  0  0
  8  9  1  0  0  0  0
  8 27  1  0  0  0  0
  9 10  1  0  0  0  0
  9 28  1  0  0  0  0
  9 29  1  0  0  0  0
 10 11  1  0  0  0  0
 10 30  1  0  0  0  0
 10 31  1  0  0  0  0
 11 15  1  0  0  0  0
 11 12  1  0  0  0  0
 12 13  2  0  0  0  0
 12 32  1  0  0  0  0
 13 14  1  0  0  0  0
 13 33  1  0  0  0  0
 14 15  2  0  0  0  0
 15 34  1  0  0  0  0
 16 17  1  0  0  0  0
 16 35  1  0  0  0  0
 16 36  1  0  0  0  0
 17 18  2  0  0  0  0
M  END
> <s_m_source_file>
AV-unprocessed.smi

> <i_m_source_file_index>
1538

> <i_lp_mmshare_version>
43012

> <i_f3d_flags>
0

> <s_epik_input>
W0NIM11OMVtDSDJdW0NIMl1bQ0BIXShbQ0gyXUMxPU8pQyg9TylbTkhdW0NIMl1bQ0gyXW4yW2NIXVtjSF1uW2NIXTI=

> <s_epik_cmdline>
J2VwaWtfcHl0aG9uJywgJy1waCcsICc3LjAnLCAnLXRuJywgJzgnLCAnLW1hJywgJzIwMCcsICctbWV0YWxfYmluZGluZycsICctaW1hZScsICc8aW5maWxlLm1hZT4nLCAnLW9tYWUnLCAnPG91dGZpbGUubWFlPic=

> <r_lp_tautomer_probability>
1

> <r_epik_Ionization_Penalty>
0.590576

> <r_epik_Ionization_Penalty_Charging>
0.590576

> <r_epik_Ionization_Penalty_Neutral>
2.97775e-08

> <r_epik_State_Penalty>
0.604111

> <r_epik_Charging_Adjusted_Penalty>
1.19469

> <i_epik_Tot_Q>
0

> <i_epik_Tot_abs_Q>
0

> <r_epik_Metal_State_Penalty>
0.298544

> <b_epik_Metal_Only>
0

> <s_lp_Force_Field>
OPLS_2005

> <r_lp_Energy>
13.4422

> <b_lp_Chiralities_Consistent>
1

> <s_lp_Variant>
AV-unprocessed.smi:1538-3

> <Gold.Version>
5.8.1

> <Gold.Id.Protein>
6NUR|6NUR_protein|mol2

> <Gold.PLP.Fitness>
41.9581

> <Gold.PLP.PLP>
-31.9320

> <Gold.PLP.part.hbond>
-3.8245

> <Gold.PLP.part.metal>
0.0000

> <Gold.PLP.part.buried>
-3.2191

> <Gold.PLP.part.nonpolar>
-24.1675

> <Gold.PLP.part.repulsive>
0.5396

> <Gold.PLP.ligand.clash>
0.0000

> <Gold.PLP.ligand.torsion>
0.8733

> <Gold.PLP.Chemscore.Hbond>
1.9440

> <Gold.PLP.Chemscore.CHOScore>
1.9653

> <Gold.PLP.Chemscore.Metal>
0.0000

> <Gold.Chemscore.Hbonds>
donor molecule, donor type, donor heavy atom, donor atom, acceptor molecule, acceptor atom, score
      L1  H     8    27       P1  7948  0.15
      P1  H  6896  6909       L1    18  1.00
      P1  H 10785 10796       L1    14  0.04
      L1  C    13    33       P1 10186  1.00
      L1  C    15    34       P1 10747  0.60

> <Gold.PLP.Chemscore.Internal.Correction>
0.0448

> <Gold.Rescore>
     Score         DG    S(hbond)    S(metal)    S(lipo)     H(rot)  DE(clash)    DE(int)     intcor
      8.76     -12.66       1.86        0.00      51.50       1.98       0.41       3.49       ----

> <Gold.Chemscore.Fitness>
8.7586

> <Gold.Chemscore.DG>
-12.6567

> <Gold.Chemscore.ZeroCoef>
-5.4800

> <Gold.Chemscore.Hbond>
1.8610

> <Gold.Chemscore.Metal>
0.0000

> <Gold.Chemscore.Lipo>
51.4991

> <Gold.Chemscore.Internal_Hbond>
0.0000

> <Gold.Chemscore.DEClash>
0.4106

> <Gold.Chemscore.DEInternal>
3.4875

> <Gold.Chemscore.Rot>
1.9782

> <Gold.Chemscore.Internal.Correction>
   9.000000E+99

> <Gold.Chemscore.Hbonds>
donor molecule, donor type, donor heavy atom, donor atom, acceptor molecule, acceptor atom, score
      L1  H     8    27       P1  7948  0.01
      P1  H  6896  6909       L1    18  0.98

> <Gold.Chemscore.Hbond.Weighted>
-6.2156

> <Gold.Chemscore.Metal.Weighted>
-0.0000

> <Gold.Chemscore.Lipo.Weighted>
-6.0254

> <Gold.Chemscore.Internal_Hbond.Weighted>
0.0000

> <Gold.Chemscore.DEClash.Weighted>
0.4106

> <Gold.Chemscore.DEInternal.Weighted>
3.4875

> <Gold.Chemscore.Rot.Weighted>
5.0643

> <Gold.Chemscore.Internal.Correction.Weighted>
   9.000000E+99

> <Gold.Protein.RotatedTorsions>
[ 6907 6896 6895 6894 ] final    3.73 input  -60.11 | X-H torsion
[ 7974 7965 7964 7962 ] final  -19.48 input  175.53 | X-H torsion
[ 8008 7997 7996 7995 ] final   72.11 input   59.86 | X-H torsion
[ 10167 10162 10161 10158 ] final -145.11 input  -65.29 | X-H torsion
[ 10718 10713 10712 10709 ] final -116.81 input   66.30 | X-H torsion
[ 10763 10752 10751 10750 ] final   -4.71 input  -60.55 | X-H torsion
[ 11005 11000 10999 10996 ] final  -77.32 input  -57.11 | X-H torsion

> <Gold.Protein.ActiveResidues>
 VAL166  LYS551  ARG553  GLY616  TRP617  ASP618  TYR619  PRO620  LYS621  CYS622 
 ASP623  PHE694  ASN695  SER759  ASP760  ASP761  ALA762  ILE779  LEU786  VAL792 
 PHE793  MET794  SER795  GLU796  ALA797  LYS798  CYS799  TRP800  GLU811  SER814 

> <Gold.Protein.RotatedAtoms>
  151.6298  135.1024  160.0119 H   0  0  0  0  0  0  0  0  0  0  0  0  # atno 6907 bound_to 6896
  152.4112  133.6963  159.6408 H   0  0  0  0  0  0  0  0  0  0  0  0  # atno 6908 bound_to 6896
  150.8003  133.8537  159.3253 H   0  0  0  0  0  0  0  0  0  0  0  0  # atno 6909 bound_to 6896
  146.1839  140.4068  142.8484 H   0  0  0  0  0  0  0  0  0  0  0  0  # atno 7974 bound_to 7965
  155.7639  140.3486  155.5212 H   0  0  0  0  0  0  0  0  0  0  0  0  # atno 8008 bound_to 7997
  155.8887  140.1014  157.1455 H   0  0  0  0  0  0  0  0  0  0  0  0  # atno 8009 bound_to 7997
  154.4031  140.1308  156.4276 H   0  0  0  0  0  0  0  0  0  0  0  0  # atno 8010 bound_to 7997
  139.7836  143.8065  152.2642 H   0  0  0  0  0  0  0  0  0  0  0  0  # atno 10167 bound_to 10162
  156.0989  130.6156  150.9083 H   0  0  0  0  0  0  0  0  0  0  0  0  # atno 10718 bound_to 10713
  153.3885  135.7001  153.6512 H   0  0  0  0  0  0  0  0  0  0  0  0  # atno 10763 bound_to 10752
  153.5094  135.3635  155.2580 H   0  0  0  0  0  0  0  0  0  0  0  0  # atno 10764 bound_to 10752
  154.8700  135.4131  154.3197 H   0  0  0  0  0  0  0  0  0  0  0  0  # atno 10765 bound_to 10752
  141.1659  133.7018  156.7802 H   0  0  0  0  0  0  0  0  0  0  0  0  # atno 11005 bound_to 11000
  144.8363  140.6786  143.6258 LP  0  0  0  0  0  0  0  0  0  0  0  0  # atno 17320 bound_to 7965
  145.3996  139.1600  143.4184 LP  0  0  0  0  0  0  0  0  0  0  0  0  # atno 17321 bound_to 7965
  139.8135  144.7326  150.9665 LP  0  0  0  0  0  0  0  0  0  0  0  0  # atno 17342 bound_to 10162
  140.7819  143.4227  151.0816 LP  0  0  0  0  0  0  0  0  0  0  0  0  # atno 17343 bound_to 10162
  157.6156  131.0933  150.8717 LP  0  0  0  0  0  0  0  0  0  0  0  0  # atno 17370 bound_to 10713
  156.8849  130.5192  149.5289 LP  0  0  0  0  0  0  0  0  0  0  0  0  # atno 17371 bound_to 10713
  140.2400  134.8621  157.3563 LP  0  0  0  0  0  0  0  0  0  0  0  0  # atno 17394 bound_to 11000
  140.1806  134.4495  155.7775 LP  0  0  0  0  0  0  0  0  0  0  0  0  # atno 17395 bound_to 11000

$$$$
