AV-unprocessed.smi:674|AV-procd|sdf|3300|dock2
  -GOLD-   22720 0263D 1   1.00000     0.00000
 Structure written by MMmdl.
 47 48  0  0  0  0  0  0  0  0  1 V2000
  146.7062  128.6962  152.8803 C   0  0  0  0  0  0  0  0  0  0  0  0
  147.8715  129.3710  153.6128 C   0  0  0  0  0  0  0  0  0  0  0  0
  147.9346  130.8470  153.3356 C   0  0  0  0  0  0  0  0  0  0  0  0
  148.8767  131.7910  153.8379 C   0  0  0  0  0  0  0  0  0  0  0  0
  148.4606  132.9649  153.2715 C   0  0  0  0  0  0  0  0  0  0  0  0
  148.9895  134.2100  153.4072 N   0  0  0  0  0  0  0  0  0  0  0  0
  149.8333  134.6674  154.3484 C   0  0  0  0  0  0  0  0  0  0  0  0
  150.3233  133.9972  155.2576 O   0  0  0  0  0  0  0  0  0  0  0  0
  150.0867  135.9716  154.1768 N   0  0  0  0  0  0  0  0  0  0  0  0
  150.9586  136.7615  155.0396 C   0  0  1  0  0  0  0  0  0  0  0  0
  151.8424  137.7295  154.2561 C   0  0  0  0  0  0  0  0  0  0  0  0
  151.6484  138.7127  155.4253 C   0  0  1  0  0  0  0  0  0  0  0  0
  152.7127  138.7319  156.5334 C   0  0  0  0  0  0  0  0  0  0  0  0
  151.3882  140.0444  154.9782 O   0  0  0  0  0  0  0  0  0  0  0  0
  151.1159  141.0071  155.9884 C   0  0  0  0  0  0  0  0  0  0  0  0
  150.2865  137.9943  155.6976 C   0  0  0  0  0  0  0  0  0  0  0  0
  149.0546  138.5808  154.9789 C   0  0  0  0  0  0  0  0  0  0  0  0
  149.8753  137.8281  157.1641 C   0  0  0  0  0  0  0  0  0  0  0  0
  147.3482  132.7147  152.4968 N   0  0  0  0  0  0  0  0  0  0  0  0
  146.5425  133.6171  151.6968 C   0  0  0  0  0  0  0  0  0  0  0  0
  147.0288  131.4037  152.5385 N   0  0  0  0  0  0  0  0  0  0  0  0
  146.6723  127.6297  153.1029 H   0  0  0  0  0  0  0  0  0  0  0  0
  146.8017  128.8074  151.7997 H   0  0  0  0  0  0  0  0  0  0  0  0
  145.7510  129.1292  153.1787 H   0  0  0  0  0  0  0  0  0  0  0  0
  147.7690  129.2009  154.6850 H   0  0  0  0  0  0  0  0  0  0  0  0
  148.8086  128.8951  153.3210 H   0  0  0  0  0  0  0  0  0  0  0  0
  149.7081  131.6143  154.5034 H   0  0  0  0  0  0  0  0  0  0  0  0
  148.6967  134.8793  152.7108 H   0  0  0  0  0  0  0  0  0  0  0  0
  149.6449  136.4519  153.4066 H   0  0  0  0  0  0  0  0  0  0  0  0
  151.5397  136.1634  155.7449 H   0  0  0  0  0  0  0  0  0  0  0  0
  152.8676  137.3878  154.1113 H   0  0  0  0  0  0  0  0  0  0  0  0
  151.3989  138.0692  153.3181 H   0  0  0  0  0  0  0  0  0  0  0  0
  152.8381  137.7522  156.9939 H   0  0  0  0  0  0  0  0  0  0  0  0
  152.4476  139.4331  157.3249 H   0  0  0  0  0  0  0  0  0  0  0  0
  153.6924  139.0177  156.1516 H   0  0  0  0  0  0  0  0  0  0  0  0
  151.0194  141.9896  155.5268 H   0  0  0  0  0  0  0  0  0  0  0  0
  151.9190  141.0665  156.7229 H   0  0  0  0  0  0  0  0  0  0  0  0
  150.1800  140.8012  156.5070 H   0  0  0  0  0  0  0  0  0  0  0  0
  148.7672  139.5432  155.4036 H   0  0  0  0  0  0  0  0  0  0  0  0
  148.1888  137.9229  155.0602 H   0  0  0  0  0  0  0  0  0  0  0  0
  149.2328  138.7423  153.9157 H   0  0  0  0  0  0  0  0  0  0  0  0
  149.7165  138.7937  157.6448 H   0  0  0  0  0  0  0  0  0  0  0  0
  150.6304  137.2964  157.7426 H   0  0  0  0  0  0  0  0  0  0  0  0
  148.9512  137.2570  157.2598 H   0  0  0  0  0  0  0  0  0  0  0  0
  146.8078  134.6543  151.9006 H   0  0  0  0  0  0  0  0  0  0  0  0
  145.4866  133.4747  151.9294 H   0  0  0  0  0  0  0  0  0  0  0  0
  146.7059  133.4115  150.6386 H   0  0  0  0  0  0  0  0  0  0  0  0
  1  2  1  0  0  0  0
  1 22  1  0  0  0  0
  1 23  1  0  0  0  0
  1 24  1  0  0  0  0
  2  3  1  0  0  0  0
  2 25  1  0  0  0  0
  2 26  1  0  0  0  0
  3 21  2  0  0  0  0
  3  4  1  0  0  0  0
  4  5  2  0  0  0  0
  4 27  1  0  0  0  0
  5  6  1  0  0  0  0
  5 19  1  0  0  0  0
  6  7  1  0  0  0  0
  6 28  1  0  0  0  0
  7  8  2  0  0  0  0
  7  9  1  0  0  0  0
  9 10  1  0  0  0  0
  9 29  1  0  0  0  0
 10 16  1  0  0  0  0
 10 11  1  0  0  0  0
 10 30  1  0  0  0  0
 11 12  1  0  0  0  0
 11 31  1  0  0  0  0
 11 32  1  0  0  0  0
 12 13  1  0  0  0  0
 12 14  1  0  0  0  0
 12 16  1  0  0  0  0
 13 33  1  0  0  0  0
 13 34  1  0  0  0  0
 13 35  1  0  0  0  0
 14 15  1  0  0  0  0
 15 36  1  0  0  0  0
 15 37  1  0  0  0  0
 15 38  1  0  0  0  0
 16 17  1  0  0  0  0
 16 18  1  0  0  0  0
 17 39  1  0  0  0  0
 17 40  1  0  0  0  0
 17 41  1  0  0  0  0
 18 42  1  0  0  0  0
 18 43  1  0  0  0  0
 18 44  1  0  0  0  0
 19 20  1  0  0  0  0
 19 21  1  0  0  0  0
 20 45  1  0  0  0  0
 20 46  1  0  0  0  0
 20 47  1  0  0  0  0
M  END
> <s_m_source_file>
AV-unprocessed.smi

> <i_m_source_file_index>
674

> <i_lp_mmshare_version>
43012

> <i_f3d_flags>
0

> <s_epik_input>
W0NIM11bQ0gyXWMxW2NIXWMobihuMSlbQ0gzXSlbTkhdQyg9TylbTkhdW0NAQEhdKEMyKFtDSDNdKVtDSDNdKVtDSDJdW0NAQF0yKFtDSDNdKU9bQ0gzXQ==

> <s_epik_cmdline>
J2VwaWtfcHl0aG9uJywgJy1waCcsICc3LjAnLCAnLXRuJywgJzgnLCAnLW1hJywgJzIwMCcsICctbWV0YWxfYmluZGluZycsICctaW1hZScsICc8aW5maWxlLm1hZT4nLCAnLW9tYWUnLCAnPG91dGZpbGUubWFlPic=

> <r_lp_tautomer_probability>
1

> <r_epik_Ionization_Penalty>
0.000101626

> <r_epik_Ionization_Penalty_Charging>
0

> <r_epik_Ionization_Penalty_Neutral>
0.000101626

> <r_epik_State_Penalty>
-0

> <r_epik_Charging_Adjusted_Penalty>
0

> <i_epik_Tot_Q>
0

> <i_epik_Tot_abs_Q>
0

> <r_epik_Metal_State_Penalty>
-0

> <b_epik_Metal_Only>
0

> <s_lp_Force_Field>
OPLS_2005

> <r_lp_Energy>
22.8754

> <b_lp_Chiralities_Consistent>
1

> <s_lp_Variant>
AV-unprocessed.smi:674-2

> <Gold.Version>
5.8.1

> <Gold.Id.Protein>
6NUR|6NUR_protein|mol2

> <Gold.PLP.Fitness>
39.8418

> <Gold.PLP.PLP>
-31.4450

> <Gold.PLP.part.hbond>
-4.0000

> <Gold.PLP.part.metal>
0.0000

> <Gold.PLP.part.buried>
-0.5471

> <Gold.PLP.part.nonpolar>
-27.1064

> <Gold.PLP.part.repulsive>
0.2885

> <Gold.PLP.ligand.clash>
0.0000

> <Gold.PLP.ligand.torsion>
0.3372

> <Gold.PLP.Chemscore.Hbond>
2.8960

> <Gold.PLP.Chemscore.CHOScore>
0.0000

> <Gold.PLP.Chemscore.Metal>
0.0000

> <Gold.Chemscore.Hbonds>
donor molecule, donor type, donor heavy atom, donor atom, acceptor molecule, acceptor atom, score
      L1  H     6    28       P1  7948  0.85
      L1  H     9    29       P1  7948  0.86
      P1  H  7989  7998       L1    14  1.00

> <Gold.PLP.Chemscore.Internal.Correction>
0.3833

> <Gold.Rescore>
     Score         DG    S(hbond)    S(metal)    S(lipo)     H(rot)  DE(clash)    DE(int)     intcor
     15.97     -17.30       2.40        0.00      62.42       1.37       0.02       1.32       ----

> <Gold.Chemscore.Fitness>
15.9664

> <Gold.Chemscore.DG>
-17.3012

> <Gold.Chemscore.ZeroCoef>
-5.4800

> <Gold.Chemscore.Hbond>
2.3994

> <Gold.Chemscore.Metal>
0.0000

> <Gold.Chemscore.Lipo>
62.4234

> <Gold.Chemscore.Internal_Hbond>
0.0000

> <Gold.Chemscore.DEClash>
0.0186

> <Gold.Chemscore.DEInternal>
1.3163

> <Gold.Chemscore.Rot>
1.3658

> <Gold.Chemscore.Internal.Correction>
   9.000000E+99

> <Gold.Chemscore.Hbonds>
donor molecule, donor type, donor heavy atom, donor atom, acceptor molecule, acceptor atom, score
      L1  H     6    28       P1  7948  0.13
      L1  H     9    29       P1  7948  0.38
      P1  H  7989  7998       L1    14  0.65

> <Gold.Chemscore.Hbond.Weighted>
-8.0140

> <Gold.Chemscore.Metal.Weighted>
-0.0000

> <Gold.Chemscore.Lipo.Weighted>
-7.3035

> <Gold.Chemscore.Internal_Hbond.Weighted>
0.0000

> <Gold.Chemscore.DEClash.Weighted>
0.0186

> <Gold.Chemscore.DEInternal.Weighted>
1.3163

> <Gold.Chemscore.Rot.Weighted>
3.4963

> <Gold.Chemscore.Internal.Correction.Weighted>
   9.000000E+99

> <Gold.Protein.RotatedTorsions>
[ 6907 6896 6895 6894 ] final   89.95 input  -60.11 | X-H torsion
[ 7974 7965 7964 7962 ] final  149.89 input  175.53 | X-H torsion
[ 8008 7997 7996 7995 ] final  -50.66 input   59.86 | X-H torsion
[ 10167 10162 10161 10158 ] final  172.86 input  -65.29 | X-H torsion
[ 10718 10713 10712 10709 ] final -165.52 input   66.30 | X-H torsion
[ 10763 10752 10751 10750 ] final -151.65 input  -60.55 | X-H torsion
[ 11005 11000 10999 10996 ] final  100.13 input  -57.11 | X-H torsion

> <Gold.Protein.ActiveResidues>
 VAL166  LYS551  ARG553  GLY616  TRP617  ASP618  TYR619  PRO620  LYS621  CYS622 
 ASP623  PHE694  ASN695  SER759  ASP760  ASP761  ALA762  ILE779  LEU786  VAL792 
 PHE793  MET794  SER795  GLU796  ALA797  LYS798  CYS799  TRP800  GLU811  SER814 

> <Gold.Protein.RotatedAtoms>
  152.5441  134.1887  159.8664 H   0  0  0  0  0  0  0  0  0  0  0  0  # atno 6907 bound_to 6896
  151.1884  133.4675  159.2602 H   0  0  0  0  0  0  0  0  0  0  0  0  # atno 6908 bound_to 6896
  151.1108  135.0037  159.8548 H   0  0  0  0  0  0  0  0  0  0  0  0  # atno 6909 bound_to 6896
  144.8405  139.6338  143.6019 H   0  0  0  0  0  0  0  0  0  0  0  0  # atno 7974 bound_to 7965
  154.4066  140.1267  156.4701 H   0  0  0  0  0  0  0  0  0  0  0  0  # atno 8008 bound_to 7997
  155.7187  140.3493  155.4986 H   0  0  0  0  0  0  0  0  0  0  0  0  # atno 8009 bound_to 7997
  155.9234  140.1056  157.1179 H   0  0  0  0  0  0  0  0  0  0  0  0  # atno 8010 bound_to 7997
  139.5090  144.3326  152.0096 H   0  0  0  0  0  0  0  0  0  0  0  0  # atno 10167 bound_to 10162
  156.6547  130.9021  151.3019 H   0  0  0  0  0  0  0  0  0  0  0  0  # atno 10718 bound_to 10713
  154.8044  135.3255  154.7468 H   0  0  0  0  0  0  0  0  0  0  0  0  # atno 10763 bound_to 10752
  153.8130  135.6894  153.4842 H   0  0  0  0  0  0  0  0  0  0  0  0  # atno 10764 bound_to 10752
  153.1780  135.4597  154.9935 H   0  0  0  0  0  0  0  0  0  0  0  0  # atno 10765 bound_to 10752
  139.8771  134.9126  156.4709 H   0  0  0  0  0  0  0  0  0  0  0  0  # atno 11005 bound_to 11000
  146.2698  139.6607  142.9304 LP  0  0  0  0  0  0  0  0  0  0  0  0  # atno 17320 bound_to 7965
  145.4705  141.0436  143.2701 LP  0  0  0  0  0  0  0  0  0  0  0  0  # atno 17321 bound_to 7965
  140.2765  144.3906  150.6133 LP  0  0  0  0  0  0  0  0  0  0  0  0  # atno 17342 bound_to 10162
  140.6049  143.2167  151.6999 LP  0  0  0  0  0  0  0  0  0  0  0  0  # atno 17343 bound_to 10162
  157.7129  130.9462  150.1153 LP  0  0  0  0  0  0  0  0  0  0  0  0  # atno 17370 bound_to 10713
  156.2057  130.3663  149.8732 LP  0  0  0  0  0  0  0  0  0  0  0  0  # atno 17371 bound_to 10713
  140.8796  133.7927  155.9452 LP  0  0  0  0  0  0  0  0  0  0  0  0  # atno 17394 bound_to 11000
  140.8868  134.2545  157.5116 LP  0  0  0  0  0  0  0  0  0  0  0  0  # atno 17395 bound_to 11000

$$$$
