AV-unprocessed.smi:2083|AV-procd|sdf|8498|dock4
  -GOLD-   2272011203D 1   1.00000     0.00000
 Structure written by MMmdl.
 44 45  0  0  0  0  0  0  0  0  3 V2000
  146.9367  136.3803  162.5821 C   0  0  0  0  0  0  0  0  0  0  0  0
  147.5656  135.9590  161.2980 C   0  0  0  0  0  0  0  0  0  0  0  0
  147.7029  134.7449  160.6869 C   0  0  0  0  0  0  0  0  0  0  0  0
  148.3983  135.0612  159.4879 C   0  0  0  0  0  0  0  0  0  0  0  0
  148.7879  134.1891  158.5453 N   0  5  0  0  0  0  0  0  0  0  0  0
  149.1356  134.6246  157.3131 C   0  0  0  0  0  0  0  0  0  0  0  0
  150.2687  134.9287  156.9340 O   0  0  0  0  0  0  0  0  0  0  0  0
  148.1029  134.7134  156.4653 N   0  0  0  0  0  0  0  0  0  0  0  0
  148.1862  135.1402  155.0737 C   0  0  0  0  0  0  0  0  0  0  0  0
  147.9078  133.9753  154.0940 C   0  0  2  0  0  0  0  0  0  0  0  0
  149.2225  133.2233  153.7695 C   0  0  0  0  0  0  0  0  0  0  0  0
  147.1848  134.4928  152.8856 N   0  3  1  0  0  0  0  0  0  0  0  0
  146.7581  133.4686  151.8878 C   0  0  0  0  0  0  0  0  0  0  0  0
  146.1520  134.1203  150.6339 C   0  0  0  0  0  0  0  0  0  0  0  0
  144.9802  135.0381  150.9937 C   0  0  0  0  0  0  0  0  0  0  0  0
  145.4308  136.0795  152.0283 C   0  0  1  0  0  0  0  0  0  0  0  0
  144.2740  137.0067  152.4276 C   0  0  0  0  0  0  0  0  0  0  0  0
  146.0403  135.3748  153.2563 C   0  0  0  0  0  0  0  0  0  0  0  0
  148.6723  136.3508  159.3879 N   0  0  0  0  0  0  0  0  0  0  0  0
  148.1366  136.9347  160.5420 O   0  0  0  0  0  0  0  0  0  0  0  0
  147.4257  135.8965  163.4277 H   0  0  0  0  0  0  0  0  0  0  0  0
  145.8811  136.1094  162.6011 H   0  0  0  0  0  0  0  0  0  0  0  0
  147.0107  137.4592  162.7216 H   0  0  0  0  0  0  0  0  0  0  0  0
  147.3585  133.7842  161.0385 H   0  0  0  0  0  0  0  0  0  0  0  0
  147.1920  134.4547  156.8154 H   0  0  0  0  0  0  0  0  0  0  0  0
  147.4779  135.9570  154.9414 H   0  0  0  0  0  0  0  0  0  0  0  0
  149.1779  135.5512  154.8761 H   0  0  0  0  0  0  0  0  0  0  0  0
  147.2544  133.2546  154.5887 H   0  0  0  0  0  0  0  0  0  0  0  0
  149.7216  132.8743  154.6735 H   0  0  0  0  0  0  0  0  0  0  0  0
  149.9284  133.8627  153.2382 H   0  0  0  0  0  0  0  0  0  0  0  0
  149.0459  132.3311  153.1687 H   0  0  0  0  0  0  0  0  0  0  0  0
  147.6061  132.8725  151.5531 H   0  0  0  0  0  0  0  0  0  0  0  0
  146.0399  132.7864  152.3459 H   0  0  0  0  0  0  0  0  0  0  0  0
  146.9199  134.6944  150.1136 H   0  0  0  0  0  0  0  0  0  0  0  0
  145.8194  133.3496  149.9380 H   0  0  0  0  0  0  0  0  0  0  0  0
  144.6051  135.5307  150.0959 H   0  0  0  0  0  0  0  0  0  0  0  0
  144.1564  134.4446  151.3927 H   0  0  0  0  0  0  0  0  0  0  0  0
  146.2060  136.6987  151.5738 H   0  0  0  0  0  0  0  0  0  0  0  0
  143.4614  136.4499  152.8956 H   0  0  0  0  0  0  0  0  0  0  0  0
  143.8657  137.5220  151.5576 H   0  0  0  0  0  0  0  0  0  0  0  0
  144.6061  137.7676  153.1343 H   0  0  0  0  0  0  0  0  0  0  0  0
  145.2773  134.7801  153.7617 H   0  0  0  0  0  0  0  0  0  0  0  0
  146.3587  136.1343  153.9688 H   0  0  0  0  0  0  0  0  0  0  0  0
  147.8534  135.0744  152.4010 H   0  0  0  0  0  0  0  0  0  0  0  0
  1  2  1  0  0  0  0
  1 21  1  0  0  0  0
  1 22  1  0  0  0  0
  1 23  1  0  0  0  0
  2 20  1  0  0  0  0
  2  3  2  0  0  0  0
  3  4  1  0  0  0  0
  3 24  1  0  0  0  0
  4  5  1  0  0  0  0
  4 19  2  0  0  0  0
  5  6  1  0  0  0  0
  6  7  2  0  0  0  0
  6  8  1  0  0  0  0
  8  9  1  0  0  0  0
  8 25  1  0  0  0  0
  9 10  1  0  0  0  0
  9 26  1  0  0  0  0
  9 27  1  0  0  0  0
 10 11  1  0  0  0  0
 10 12  1  0  0  0  0
 10 28  1  0  0  0  0
 11 29  1  0  0  0  0
 11 30  1  0  0  0  0
 11 31  1  0  0  0  0
 12 18  1  0  0  0  0
 12 13  1  0  0  0  0
 12 44  1  0  0  0  0
 13 14  1  0  0  0  0
 13 32  1  0  0  0  0
 13 33  1  0  0  0  0
 14 15  1  0  0  0  0
 14 34  1  0  0  0  0
 14 35  1  0  0  0  0
 15 16  1  0  0  0  0
 15 36  1  0  0  0  0
 15 37  1  0  0  0  0
 16 17  1  0  0  0  0
 16 18  1  0  0  0  0
 16 38  1  0  0  0  0
 17 39  1  0  0  0  0
 17 40  1  0  0  0  0
 17 41  1  0  0  0  0
 18 42  1  0  0  0  0
 18 43  1  0  0  0  0
 19 20  1  0  0  0  0
M  CHG  1   5  -1
M  CHG  1  12   1
M  END
> <s_m_source_file>
AV-unprocessed.smi

> <i_m_source_file_index>
2083

> <i_lp_mmshare_version>
43012

> <i_f3d_flags>
0

> <s_epik_input>
W0NIM11jMVtjSF1jKG5vMSlbTkhdQyg9TylbTkhdW0NIMl1bQ0BIXShbQ0gzXSlOMltDSDJdW0NIMl1bQ0gyXVtDQEBIXShbQ0gzXSlbQ0gyXTI=

> <s_epik_cmdline>
J2VwaWtfcHl0aG9uJywgJy1waCcsICc3LjAnLCAnLXRuJywgJzgnLCAnLW1hJywgJzIwMCcsICctbWV0YWxfYmluZGluZycsICctaW1hZScsICc8aW5maWxlLm1hZT4nLCAnLW9tYWUnLCAnPG91dGZpbGUubWFlPic=

> <r_epik_Ionization_Penalty>
6.22434

> <r_epik_Ionization_Penalty_Charging>
6.22425

> <r_epik_Ionization_Penalty_Neutral>
9.62407e-05

> <r_epik_State_Penalty>
6.22423

> <r_epik_Charging_Adjusted_Penalty>
12.4485

> <i_epik_Tot_Q>
0

> <i_epik_Tot_abs_Q>
2

> <r_epik_Metal_State_Penalty>
2.16764

> <b_epik_Metal_Only>
1

> <s_lp_Force_Field>
OPLS_2005

> <r_lp_Energy>
12.4443

> <b_lp_Chiralities_Consistent>
1

> <s_lp_Variant>
AV-unprocessed.smi:2083-9

> <Gold.Version>
5.8.1

> <Gold.Id.Protein>
6NUR|6NUR_protein|mol2

> <Gold.PLP.Fitness>
45.5059

> <Gold.PLP.PLP>
-31.4575

> <Gold.PLP.part.hbond>
-4.0868

> <Gold.PLP.part.metal>
0.0000

> <Gold.PLP.part.buried>
-4.8262

> <Gold.PLP.part.nonpolar>
-23.3607

> <Gold.PLP.part.repulsive>
0.0100

> <Gold.PLP.ligand.clash>
0.0000

> <Gold.PLP.ligand.torsion>
1.3196

> <Gold.PLP.Chemscore.Hbond>
5.5360

> <Gold.PLP.Chemscore.CHOScore>
0.0000

> <Gold.PLP.Chemscore.Metal>
0.0000

> <Gold.Chemscore.Hbonds>
donor molecule, donor type, donor heavy atom, donor atom, acceptor molecule, acceptor atom, score
      L1  H    12    44       P1  7948  2.00
      P1  H  6896  6907       L1     5  1.17
      P1  H  6931  6943       L1    20  0.74
      P1  H  6934  6947       L1    20  0.21

> <Gold.PLP.Chemscore.Internal.Correction>
0.0796

> <Gold.Rescore>
     Score         DG    S(hbond)    S(metal)    S(lipo)     H(rot)  DE(clash)    DE(int)     intcor
     17.54     -18.98       2.87        0.00      66.66       1.52       0.10       1.34       ----

> <Gold.Chemscore.Fitness>
17.5382

> <Gold.Chemscore.DG>
-18.9759

> <Gold.Chemscore.ZeroCoef>
-5.4800

> <Gold.Chemscore.Hbond>
2.8699

> <Gold.Chemscore.Metal>
0.0000

> <Gold.Chemscore.Lipo>
66.6604

> <Gold.Chemscore.Internal_Hbond>
0.0000

> <Gold.Chemscore.DEClash>
0.0990

> <Gold.Chemscore.DEInternal>
1.3388

> <Gold.Chemscore.Rot>
1.5190

> <Gold.Chemscore.Internal.Correction>
   9.000000E+99

> <Gold.Chemscore.Hbonds>
donor molecule, donor type, donor heavy atom, donor atom, acceptor molecule, acceptor atom, score
      L1  H    12    44       P1  7948  0.94
      P1  H  6896  6907       L1     5  0.01
      P1  H  6931  6943       L1    20  0.40
      P1  H  6934  6947       L1    20  0.17

> <Gold.Chemscore.Hbond.Weighted>
-9.5853

> <Gold.Chemscore.Metal.Weighted>
-0.0000

> <Gold.Chemscore.Lipo.Weighted>
-7.7993

> <Gold.Chemscore.Internal_Hbond.Weighted>
0.0000

> <Gold.Chemscore.DEClash.Weighted>
0.0990

> <Gold.Chemscore.DEInternal.Weighted>
1.3388

> <Gold.Chemscore.Rot.Weighted>
3.8886

> <Gold.Chemscore.Internal.Correction.Weighted>
   9.000000E+99

> <Gold.Protein.RotatedTorsions>
[ 6907 6896 6895 6894 ] final -107.96 input  -60.11 | X-H torsion
[ 7974 7965 7964 7962 ] final  -41.96 input  175.53 | X-H torsion
[ 8008 7997 7996 7995 ] final  168.96 input   59.86 | X-H torsion
[ 10167 10162 10161 10158 ] final  -22.55 input  -65.29 | X-H torsion
[ 10718 10713 10712 10709 ] final   85.61 input   66.30 | X-H torsion
[ 10763 10752 10751 10750 ] final  -49.51 input  -60.55 | X-H torsion
[ 11005 11000 10999 10996 ] final  -76.38 input  -57.11 | X-H torsion

> <Gold.Protein.ActiveResidues>
 VAL166  LYS551  ARG553  GLY616  TRP617  ASP618  TYR619  PRO620  LYS621  CYS622 
 ASP623  PHE694  ASN695  SER759  ASP760  ASP761  ALA762  ILE779  LEU786  VAL792 
 PHE793  MET794  SER795  GLU796  ALA797  LYS798  CYS799  TRP800  GLU811  SER814 

> <Gold.Protein.RotatedAtoms>
  150.7474  133.9748  159.3557 H   0  0  0  0  0  0  0  0  0  0  0  0  # atno 6907 bound_to 6896
  151.7685  135.0790  160.0365 H   0  0  0  0  0  0  0  0  0  0  0  0  # atno 6908 bound_to 6896
  152.3355  133.5970  159.5876 H   0  0  0  0  0  0  0  0  0  0  0  0  # atno 6909 bound_to 6896
  146.0162  140.6905  142.9200 H   0  0  0  0  0  0  0  0  0  0  0  0  # atno 7974 bound_to 7965
  156.1500  140.1576  156.8785 H   0  0  0  0  0  0  0  0  0  0  0  0  # atno 8008 bound_to 7997
  154.5062  140.0812  156.7936 H   0  0  0  0  0  0  0  0  0  0  0  0  # atno 8009 bound_to 7997
  155.3915  140.3410  155.4254 H   0  0  0  0  0  0  0  0  0  0  0  0  # atno 8010 bound_to 7997
  140.7286  143.4524  151.0497 H   0  0  0  0  0  0  0  0  0  0  0  0  # atno 10167 bound_to 10162
  157.6917  131.0182  150.2848 H   0  0  0  0  0  0  0  0  0  0  0  0  # atno 10718 bound_to 10713
  154.0953  135.6571  153.4859 H   0  0  0  0  0  0  0  0  0  0  0  0  # atno 10763 bound_to 10752
  153.0307  135.5212  154.7340 H   0  0  0  0  0  0  0  0  0  0  0  0  # atno 10764 bound_to 10752
  154.6476  135.2997  154.9995 H   0  0  0  0  0  0  0  0  0  0  0  0  # atno 10765 bound_to 10752
  141.1653  133.6981  156.7660 H   0  0  0  0  0  0  0  0  0  0  0  0  # atno 11005 bound_to 11000
  144.6972  140.3485  143.7186 LP  0  0  0  0  0  0  0  0  0  0  0  0  # atno 17320 bound_to 7965
  145.7265  139.1724  143.2454 LP  0  0  0  0  0  0  0  0  0  0  0  0  # atno 17321 bound_to 7965
  139.8201  143.7831  152.3176 LP  0  0  0  0  0  0  0  0  0  0  0  0  # atno 17342 bound_to 10162
  139.7911  144.7410  150.9954 LP  0  0  0  0  0  0  0  0  0  0  0  0  # atno 17343 bound_to 10162
  156.3389  130.3812  149.7426 LP  0  0  0  0  0  0  0  0  0  0  0  0  # atno 17370 bound_to 10713
  156.4941  130.8099  151.3106 LP  0  0  0  0  0  0  0  0  0  0  0  0  # atno 17371 bound_to 10713
  140.2499  134.8548  157.3657 LP  0  0  0  0  0  0  0  0  0  0  0  0  # atno 17394 bound_to 11000
  140.1713  134.4605  155.7830 LP  0  0  0  0  0  0  0  0  0  0  0  0  # atno 17395 bound_to 11000

$$$$
