AV-unprocessed.smi:34|AV-procd|sdf|217|dock1
  -GOLD-   2262015523D 1   1.00000     0.00000
 Structure written by MMmdl.
 55 59  0  0  0  0  0  0  0  0  1 V2000
  151.9096  139.6163  159.1927 O   0  0  0  0  0  0  0  0  0  0  0  0
  151.6218  140.3738  158.2656 C   0  0  0  0  0  0  0  0  0  0  0  0
  151.0850  139.8852  157.0073 N   0  0  0  0  0  0  0  0  0  0  0  0
  150.7593  138.6137  156.6747 C   0  0  0  0  0  0  0  0  0  0  0  0
  151.0926  138.0645  155.4771 N   0  0  0  0  0  0  0  0  0  0  0  0
  150.7452  136.8059  155.1943 C   0  0  0  0  0  0  0  0  0  0  0  0
  150.0738  135.9369  155.9522 N   0  0  0  0  0  0  0  0  0  0  0  0
  149.7367  136.4780  157.1575 C   0  0  0  0  0  0  0  0  0  0  0  0
  150.0425  137.7989  157.5897 C   0  0  0  0  0  0  0  0  0  0  0  0
  149.5462  138.0011  158.8706 N   0  0  0  0  0  0  0  0  0  0  0  0
  148.9818  136.8630  159.1736 C   0  0  0  0  0  0  0  0  0  0  0  0
  149.0430  135.8929  158.1976 N   0  0  0  0  0  0  0  0  0  0  0  0
  148.4884  134.5067  158.2641 C   0  0  2  0  0  0  0  0  0  0  0  0
  149.5326  133.6047  158.0453 O   0  0  0  0  0  0  0  0  0  0  0  0
  149.1062  132.5448  157.1853 C   0  0  2  0  0  0  0  0  0  0  0  0
  149.9017  132.6034  155.8734 C   0  0  0  0  0  0  0  0  0  0  0  0
  149.3895  131.6415  154.9653 O   0  0  0  0  0  0  0  0  0  0  0  0
  149.5802  130.3277  155.1974 C   0  0  0  0  0  0  0  0  0  0  0  0
  150.2722  129.8912  156.1194 O   0  0  0  0  0  0  0  0  0  0  0  0
  148.8674  129.4556  154.2195 C   0  0  0  0  0  0  0  0  0  0  0  0
  149.4120  128.1915  153.8931 C   0  0  0  0  0  0  0  0  0  0  0  0
  148.7628  127.3468  152.9715 C   0  0  0  0  0  0  0  0  0  0  0  0
  147.5613  127.7563  152.3647 C   0  0  0  0  0  0  0  0  0  0  0  0
  147.0095  129.0115  152.6805 C   0  0  0  0  0  0  0  0  0  0  0  0
  147.6570  129.8574  153.6022 C   0  0  0  0  0  0  0  0  0  0  0  0
  147.6021  132.7583  156.9899 C   0  0  1  0  0  0  0  0  0  0  0  0
  146.9694  132.1014  157.9666 F   0  0  0  0  0  0  0  0  0  0  0  0
  147.4560  134.2605  157.1647 C   0  0  1  0  0  0  0  0  0  0  0  0
  146.1339  134.5936  157.5376 O   0  0  0  0  0  0  0  0  0  0  0  0
  151.8837  141.8501  158.3436 C   0  0  0  0  0  0  0  0  0  0  0  0
  151.4271  142.7038  157.3141 C   0  0  0  0  0  0  0  0  0  0  0  0
  151.6841  144.0874  157.3681 C   0  0  0  0  0  0  0  0  0  0  0  0
  152.4051  144.6290  158.4489 C   0  0  0  0  0  0  0  0  0  0  0  0
  152.8730  143.7849  159.4736 C   0  0  0  0  0  0  0  0  0  0  0  0
  152.6176  142.4006  159.4201 C   0  0  0  0  0  0  0  0  0  0  0  0
  150.9202  140.5836  156.2972 H   0  0  0  0  0  0  0  0  0  0  0  0
  151.0471  136.4441  154.2225 H   0  0  0  0  0  0  0  0  0  0  0  0
  148.4973  136.7002  160.1253 H   0  0  0  0  0  0  0  0  0  0  0  0
  148.0938  134.3866  159.2743 H   0  0  0  0  0  0  0  0  0  0  0  0
  149.3060  131.5931  157.6801 H   0  0  0  0  0  0  0  0  0  0  0  0
  149.8475  133.5991  155.4329 H   0  0  0  0  0  0  0  0  0  0  0  0
  150.9526  132.3842  156.0669 H   0  0  0  0  0  0  0  0  0  0  0  0
  150.3338  127.8557  154.3460 H   0  0  0  0  0  0  0  0  0  0  0  0
  149.1882  126.3838  152.7301 H   0  0  0  0  0  0  0  0  0  0  0  0
  147.0636  127.1084  151.6580 H   0  0  0  0  0  0  0  0  0  0  0  0
  146.0874  129.3273  152.2150 H   0  0  0  0  0  0  0  0  0  0  0  0
  147.2065  130.8144  153.8215 H   0  0  0  0  0  0  0  0  0  0  0  0
  147.2190  132.3858  156.0391 H   0  0  0  0  0  0  0  0  0  0  0  0
  147.7430  134.7799  156.2498 H   0  0  0  0  0  0  0  0  0  0  0  0
  146.0983  134.6678  158.4792 H   0  0  0  0  0  0  0  0  0  0  0  0
  150.8729  142.3039  156.4768 H   0  0  0  0  0  0  0  0  0  0  0  0
  151.3282  144.7333  156.5791 H   0  0  0  0  0  0  0  0  0  0  0  0
  152.6022  145.6901  158.4903 H   0  0  0  0  0  0  0  0  0  0  0  0
  153.4320  144.1990  160.2999 H   0  0  0  0  0  0  0  0  0  0  0  0
  152.9950  141.7702  160.2120 H   0  0  0  0  0  0  0  0  0  0  0  0
  1  2  2  0  0  0  0
  2  3  1  0  0  0  0
  2 30  1  0  0  0  0
  3  4  1  0  0  0  0
  3 36  1  0  0  0  0
  4  9  1  0  0  0  0
  4  5  2  0  0  0  0
  5  6  1  0  0  0  0
  6  7  2  0  0  0  0
  6 37  1  0  0  0  0
  7  8  1  0  0  0  0
  8 12  1  0  0  0  0
  8  9  2  0  0  0  0
  9 10  1  0  0  0  0
 10 11  2  0  0  0  0
 11 12  1  0  0  0  0
 11 38  1  0  0  0  0
 12 13  1  0  0  0  0
 13 28  1  0  0  0  0
 13 14  1  0  0  0  0
 13 39  1  0  0  0  0
 14 15  1  0  0  0  0
 15 16  1  0  0  0  0
 15 26  1  0  0  0  0
 15 40  1  0  0  0  0
 16 17  1  0  0  0  0
 16 41  1  0  0  0  0
 16 42  1  0  0  0  0
 17 18  1  0  0  0  0
 18 19  2  0  0  0  0
 18 20  1  0  0  0  0
 20 25  1  0  0  0  0
 20 21  2  0  0  0  0
 21 22  1  0  0  0  0
 21 43  1  0  0  0  0
 22 23  2  0  0  0  0
 22 44  1  0  0  0  0
 23 24  1  0  0  0  0
 23 45  1  0  0  0  0
 24 25  2  0  0  0  0
 24 46  1  0  0  0  0
 25 47  1  0  0  0  0
 26 27  1  0  0  0  0
 26 28  1  0  0  0  0
 26 48  1  0  0  0  0
 28 29  1  0  0  0  0
 28 49  1  0  0  0  0
 29 50  1  0  0  0  0
 30 35  1  0  0  0  0
 30 31  2  0  0  0  0
 31 32  1  0  0  0  0
 31 51  1  0  0  0  0
 32 33  2  0  0  0  0
 32 52  1  0  0  0  0
 33 34  1  0  0  0  0
 33 53  1  0  0  0  0
 34 35  2  0  0  0  0
 34 54  1  0  0  0  0
 35 55  1  0  0  0  0
M  END
> <s_m_source_file>
AV-unprocessed.smi

> <i_m_source_file_index>
34

> <i_lp_mmshare_version>
43012

> <i_f3d_flags>
0

> <s_epik_input>
W2NIXTFbY0hdW2NIXVtjSF1bY0hdYzFDKD1PKVtOSF1jKG5bY0hdbjIpYyhjMjMpbltjSF1uM1tDQEBIXTRPW0NASF0oW0NAQEhdKEYpW0NASF00W09IXSlbQ0gyXU9DKD1PKWM1W2NIXVtjSF1bY0hdW2NIXVtjSF01

> <s_epik_cmdline>
J2VwaWtfcHl0aG9uJywgJy1waCcsICc3LjAnLCAnLXRuJywgJzgnLCAnLW1hJywgJzIwMCcsICctbWV0YWxfYmluZGluZycsICctaW1hZScsICc8aW5maWxlLm1hZT4nLCAnLW9tYWUnLCAnPG91dGZpbGUubWFlPic=

> <r_lp_tautomer_probability>
1

> <r_epik_Ionization_Penalty>
0.00257489

> <r_epik_Ionization_Penalty_Charging>
0

> <r_epik_Ionization_Penalty_Neutral>
0.00257489

> <r_epik_State_Penalty>
0.00519398

> <r_epik_Charging_Adjusted_Penalty>
0.00519398

> <i_epik_Tot_Q>
0

> <i_epik_Tot_abs_Q>
0

> <r_epik_Metal_State_Penalty>
0.335891

> <b_epik_Metal_Only>
0

> <s_epik_Chemistry_Notes>
This compound has an ester and may undergo hydrolysis at high or low pH. This compound contains an acetal/aminal-like group ( X-CH(R)-Y where X, Y are N, S, or O) that may be acid/base labile, releasing an aldehyde.

> <s_lp_Force_Field>
OPLS_2005

> <r_lp_Energy>
51.1648

> <b_lp_Chiralities_Consistent>
1

> <s_lp_Variant>
AV-unprocessed.smi:34-3

> <Gold.Version>
5.8.1

> <Gold.Id.Protein>
6NUR|6NUR_protein|mol2

> <Gold.PLP.Fitness>
55.0033

> <Gold.PLP.PLP>
-50.5118

> <Gold.PLP.part.hbond>
-1.0000

> <Gold.PLP.part.metal>
0.0000

> <Gold.PLP.part.buried>
-8.0933

> <Gold.PLP.part.nonpolar>
-42.3377

> <Gold.PLP.part.repulsive>
0.2833

> <Gold.PLP.ligand.clash>
0.0000

> <Gold.PLP.ligand.torsion>
0.8487

> <Gold.PLP.Chemscore.Hbond>
0.9913

> <Gold.PLP.Chemscore.CHOScore>
0.9457

> <Gold.PLP.Chemscore.Metal>
0.0000

> <Gold.Chemscore.Hbonds>
donor molecule, donor type, donor heavy atom, donor atom, acceptor molecule, acceptor atom, score
      P1  H  6896  6907       L1    14  1.00
      L1  C     6    37       P1  7949  0.41

> <Gold.PLP.Chemscore.Internal.Correction>
0.3782

> <Gold.Rescore>
     Score         DG    S(hbond)    S(metal)    S(lipo)     H(rot)  DE(clash)    DE(int)     intcor
     11.17     -13.79       0.00        0.00     130.55       2.72       0.02       2.60       ----

> <Gold.Chemscore.Fitness>
11.1680

> <Gold.Chemscore.DG>
-13.7881

> <Gold.Chemscore.ZeroCoef>
-5.4800

> <Gold.Chemscore.Hbond>
0.0004

> <Gold.Chemscore.Metal>
0.0000

> <Gold.Chemscore.Lipo>
130.5458

> <Gold.Chemscore.Internal_Hbond>
0.0000

> <Gold.Chemscore.DEClash>
0.0174

> <Gold.Chemscore.DEInternal>
2.6028

> <Gold.Chemscore.Rot>
2.7215

> <Gold.Chemscore.Internal.Correction>
   9.000000E+99

> <Gold.Chemscore.Hbonds>
donor molecule, donor type, donor heavy atom, donor atom, acceptor molecule, acceptor atom, score
      P1  H  6896  6907       L1    14  0.78

> <Gold.Chemscore.Hbond.Weighted>
-0.0013

> <Gold.Chemscore.Metal.Weighted>
-0.0000

> <Gold.Chemscore.Lipo.Weighted>
-15.2739

> <Gold.Chemscore.Internal_Hbond.Weighted>
0.0000

> <Gold.Chemscore.DEClash.Weighted>
0.0174

> <Gold.Chemscore.DEInternal.Weighted>
2.6028

> <Gold.Chemscore.Rot.Weighted>
6.9670

> <Gold.Chemscore.Internal.Correction.Weighted>
   9.000000E+99

> <Gold.Protein.RotatedTorsions>
[ 6907 6896 6895 6894 ] final -119.75 input  -60.11 | X-H torsion
[ 7974 7965 7964 7962 ] final  -19.25 input  175.53 | X-H torsion
[ 8008 7997 7996 7995 ] final  151.53 input   59.86 | X-H torsion
[ 10167 10162 10161 10158 ] final  116.46 input  -65.29 | X-H torsion
[ 10718 10713 10712 10709 ] final   95.96 input   66.30 | X-H torsion
[ 10763 10752 10751 10750 ] final -108.31 input  -60.55 | X-H torsion
[ 11005 11000 10999 10996 ] final   48.88 input  -57.11 | X-H torsion

> <Gold.Protein.ActiveResidues>
 VAL166  LYS551  ARG553  GLY616  TRP617  ASP618  TYR619  PRO620  LYS621  CYS622 
 ASP623  PHE694  ASN695  SER759  ASP760  ASP761  ALA762  ILE779  LEU786  VAL792 
 PHE793  MET794  SER795  GLU796  ALA797  LYS798  CYS799  TRP800  GLU811  SER814 

> <Gold.Protein.RotatedAtoms>
  150.8332  133.8056  159.3089 H   0  0  0  0  0  0  0  0  0  0  0  0  # atno 6907 bound_to 6896
  151.5780  135.1058  160.0020 H   0  0  0  0  0  0  0  0  0  0  0  0  # atno 6908 bound_to 6896
  152.4408  133.7404  159.6694 H   0  0  0  0  0  0  0  0  0  0  0  0  # atno 6909 bound_to 6896
  146.1851  140.4036  142.8479 H   0  0  0  0  0  0  0  0  0  0  0  0  # atno 7974 bound_to 7965
  156.2670  140.2045  156.6190 H   0  0  0  0  0  0  0  0  0  0  0  0  # atno 8008 bound_to 7997
  154.6772  140.0544  157.0252 H   0  0  0  0  0  0  0  0  0  0  0  0  # atno 8009 bound_to 7997
  155.1052  140.3210  155.4539 H   0  0  0  0  0  0  0  0  0  0  0  0  # atno 8010 bound_to 7997
  139.6246  144.7106  151.2561 H   0  0  0  0  0  0  0  0  0  0  0  0  # atno 10167 bound_to 10162
  157.6933  131.0562  150.4419 H   0  0  0  0  0  0  0  0  0  0  0  0  # atno 10718 bound_to 10713
  154.8128  135.4642  154.0561 H   0  0  0  0  0  0  0  0  0  0  0  0  # atno 10763 bound_to 10752
  153.1978  135.6864  153.8276 H   0  0  0  0  0  0  0  0  0  0  0  0  # atno 10764 bound_to 10752
  153.7771  135.3262  155.3337 H   0  0  0  0  0  0  0  0  0  0  0  0  # atno 10765 bound_to 10752
  140.1152  134.4902  155.8644 H   0  0  0  0  0  0  0  0  0  0  0  0  # atno 11005 bound_to 11000
  144.8382  140.6816  143.6246 LP  0  0  0  0  0  0  0  0  0  0  0  0  # atno 17320 bound_to 7965
  145.3964  139.1606  143.4201 LP  0  0  0  0  0  0  0  0  0  0  0  0  # atno 17321 bound_to 7965
  140.7403  143.6592  150.8179 LP  0  0  0  0  0  0  0  0  0  0  0  0  # atno 17342 bound_to 10162
  140.0208  143.5544  152.2801 LP  0  0  0  0  0  0  0  0  0  0  0  0  # atno 17343 bound_to 10162
  156.4777  130.4066  149.6480 LP  0  0  0  0  0  0  0  0  0  0  0  0  # atno 17370 bound_to 10713
  156.3537  130.7445  151.2408 LP  0  0  0  0  0  0  0  0  0  0  0  0  # atno 17371 bound_to 10713
  141.2139  133.6741  156.6781 LP  0  0  0  0  0  0  0  0  0  0  0  0  # atno 17394 bound_to 11000
  140.3038  134.8142  157.4120 LP  0  0  0  0  0  0  0  0  0  0  0  0  # atno 17395 bound_to 11000

$$$$
