AV-unprocessed.smi:1659|AV-procd|sdf|6650|dock6
  -GOLD-   22720 7353D 1   1.00000     0.00000
 Structure written by MMmdl.
 43 44  0  0  0  0  0  0  0  0  1 V2000
  149.7839  130.5436  154.9032 C   0  0  0  0  0  0  0  0  0  0  0  0
  149.8799  132.0232  155.0531 C   0  0  0  0  0  0  0  0  0  0  0  0
  149.6387  133.0621  154.1988 C   0  0  0  0  0  0  0  0  0  0  0  0
  149.9293  134.2032  154.9929 C   0  0  0  0  0  0  0  0  0  0  0  0
  149.7992  135.5119  154.4617 N   0  0  0  0  0  0  0  0  0  0  0  0
  150.0118  136.6779  155.0955 C   0  0  0  0  0  0  0  0  0  0  0  0
  150.3629  136.7931  156.2700 O   0  0  0  0  0  0  0  0  0  0  0  0
  149.7935  137.7219  154.2825 N   0  0  0  0  0  0  0  0  0  0  0  0
  149.9406  139.1225  154.6614 C   0  0  0  0  0  0  0  0  0  0  0  0
  151.1592  139.3362  155.5731 C   0  0  0  0  0  0  0  0  0  0  0  0
  151.3350  140.8082  155.9831 C   0  0  0  0  0  0  0  0  0  0  0  0
  151.4969  140.9435  157.4388 N   0  0  0  0  0  0  0  0  0  0  0  0
  150.6747  141.9825  158.0779 C   0  0  0  0  0  0  0  0  0  0  0  0
  151.5206  143.1254  158.6715 C   0  0  0  0  0  0  0  0  0  0  0  0
  152.1134  142.8109  160.0532 C   0  0  0  0  0  0  0  0  0  0  0  0
  153.1065  141.6398  160.0652 C   0  0  0  0  0  0  0  0  0  0  0  0
  152.4749  140.3029  159.6424 C   0  0  0  0  0  0  0  0  0  0  0  0
  152.3650  140.1566  158.1192 C   0  0  0  0  0  0  0  0  0  0  0  0
  153.0682  139.3103  157.5657 O   0  0  0  0  0  0  0  0  0  0  0  0
  150.3143  133.8891  156.2205 N   0  0  0  0  0  0  0  0  0  0  0  0
  150.2835  132.4902  156.2656 O   0  0  0  0  0  0  0  0  0  0  0  0
  149.6893  130.2637  153.8540 H   0  0  0  0  0  0  0  0  0  0  0  0
  148.9152  130.1576  155.4365 H   0  0  0  0  0  0  0  0  0  0  0  0
  150.6725  130.0552  155.3036 H   0  0  0  0  0  0  0  0  0  0  0  0
  149.3071  133.0102  153.1725 H   0  0  0  0  0  0  0  0  0  0  0  0
  149.5124  135.5658  153.4957 H   0  0  0  0  0  0  0  0  0  0  0  0
  149.5066  137.5353  153.3327 H   0  0  0  0  0  0  0  0  0  0  0  0
  150.0532  139.7086  153.7490 H   0  0  0  0  0  0  0  0  0  0  0  0
  149.0309  139.4776  155.1485 H   0  0  0  0  0  0  0  0  0  0  0  0
  151.0594  138.7174  156.4657 H   0  0  0  0  0  0  0  0  0  0  0  0
  152.0587  138.9932  155.0603 H   0  0  0  0  0  0  0  0  0  0  0  0
  152.1863  141.2392  155.4555 H   0  0  0  0  0  0  0  0  0  0  0  0
  150.4765  141.3905  155.6431 H   0  0  0  0  0  0  0  0  0  0  0  0
  149.9901  142.4211  157.3515 H   0  0  0  0  0  0  0  0  0  0  0  0
  150.0321  141.5390  158.8397 H   0  0  0  0  0  0  0  0  0  0  0  0
  152.3106  143.4123  157.9762 H   0  0  0  0  0  0  0  0  0  0  0  0
  150.8836  144.0045  158.7755 H   0  0  0  0  0  0  0  0  0  0  0  0
  152.6195  143.7013  160.4274 H   0  0  0  0  0  0  0  0  0  0  0  0
  151.3054  142.6096  160.7577 H   0  0  0  0  0  0  0  0  0  0  0  0
  153.9641  141.8725  159.4319 H   0  0  0  0  0  0  0  0  0  0  0  0
  153.5046  141.5339  161.0748 H   0  0  0  0  0  0  0  0  0  0  0  0
  153.1019  139.4899  160.0110 H   0  0  0  0  0  0  0  0  0  0  0  0
  151.5007  140.1588  160.1109 H   0  0  0  0  0  0  0  0  0  0  0  0
  1  2  1  0  0  0  0
  1 22  1  0  0  0  0
  1 23  1  0  0  0  0
  1 24  1  0  0  0  0
  2 21  1  0  0  0  0
  2  3  2  0  0  0  0
  3  4  1  0  0  0  0
  3 25  1  0  0  0  0
  4  5  1  0  0  0  0
  4 20  2  0  0  0  0
  5  6  1  0  0  0  0
  5 26  1  0  0  0  0
  6  7  2  0  0  0  0
  6  8  1  0  0  0  0
  8  9  1  0  0  0  0
  8 27  1  0  0  0  0
  9 10  1  0  0  0  0
  9 28  1  0  0  0  0
  9 29  1  0  0  0  0
 10 11  1  0  0  0  0
 10 30  1  0  0  0  0
 10 31  1  0  0  0  0
 11 12  1  0  0  0  0
 11 32  1  0  0  0  0
 11 33  1  0  0  0  0
 12 18  1  0  0  0  0
 12 13  1  0  0  0  0
 13 14  1  0  0  0  0
 13 34  1  0  0  0  0
 13 35  1  0  0  0  0
 14 15  1  0  0  0  0
 14 36  1  0  0  0  0
 14 37  1  0  0  0  0
 15 16  1  0  0  0  0
 15 38  1  0  0  0  0
 15 39  1  0  0  0  0
 16 17  1  0  0  0  0
 16 40  1  0  0  0  0
 16 41  1  0  0  0  0
 17 18  1  0  0  0  0
 17 42  1  0  0  0  0
 17 43  1  0  0  0  0
 18 19  2  0  0  0  0
 20 21  1  0  0  0  0
M  END
> <s_m_source_file>
AV-unprocessed.smi

> <i_m_source_file_index>
1659

> <i_lp_mmshare_version>
43012

> <i_f3d_flags>
0

> <s_epik_input>
W0NIM11jMVtjSF1jKG5vMSlbTkhdQyg9TylbTkhdW0NIMl1bQ0gyXVtDSDJdTjJbQ0gyXVtDSDJdW0NIMl1bQ0gyXVtDSDJdQzI9Tw==

> <s_epik_cmdline>
J2VwaWtfcHl0aG9uJywgJy1waCcsICc3LjAnLCAnLXRuJywgJzgnLCAnLW1hJywgJzIwMCcsICctbWV0YWxfYmluZGluZycsICctaW1hZScsICc8aW5maWxlLm1hZT4nLCAnLW9tYWUnLCAnPG91dGZpbGUubWFlPic=

> <r_lp_tautomer_probability>
1

> <r_epik_Ionization_Penalty>
2.8543e-05

> <r_epik_Ionization_Penalty_Charging>
0

> <r_epik_Ionization_Penalty_Neutral>
2.8543e-05

> <r_epik_State_Penalty>
-0

> <r_epik_Charging_Adjusted_Penalty>
0

> <i_epik_Tot_Q>
0

> <i_epik_Tot_abs_Q>
0

> <r_epik_Metal_State_Penalty>
0.00845548

> <b_epik_Metal_Only>
0

> <s_lp_Force_Field>
OPLS_2005

> <r_lp_Energy>
16.7735

> <b_lp_Chiralities_Consistent>
1

> <s_lp_Variant>
AV-unprocessed.smi:1659-1

> <Gold.Version>
5.8.1

> <Gold.Id.Protein>
6NUR|6NUR_protein|mol2

> <Gold.PLP.Fitness>
47.7618

> <Gold.PLP.PLP>
-40.1830

> <Gold.PLP.part.hbond>
-3.2114

> <Gold.PLP.part.metal>
0.0000

> <Gold.PLP.part.buried>
-3.8436

> <Gold.PLP.part.nonpolar>
-32.8176

> <Gold.PLP.part.repulsive>
0.0876

> <Gold.PLP.ligand.clash>
0.0000

> <Gold.PLP.ligand.torsion>
0.6402

> <Gold.PLP.Chemscore.Hbond>
2.9440

> <Gold.PLP.Chemscore.CHOScore>
0.0000

> <Gold.PLP.Chemscore.Metal>
0.0000

> <Gold.Chemscore.Hbonds>
donor molecule, donor type, donor heavy atom, donor atom, acceptor molecule, acceptor atom, score
      L1  H     5    26       P1  7948  0.85
      L1  H     8    27       P1  7948  1.00
      P1  H  7997  8009       L1    19  1.00

> <Gold.PLP.Chemscore.Internal.Correction>
0.0272

> <Gold.Rescore>
     Score         DG    S(hbond)    S(metal)    S(lipo)     H(rot)  DE(clash)    DE(int)     intcor
     14.00     -18.48       2.68        0.00      75.91       1.88       0.03       4.45       ----

> <Gold.Chemscore.Fitness>
14.0027

> <Gold.Chemscore.DG>
-18.4823

> <Gold.Chemscore.ZeroCoef>
-5.4800

> <Gold.Chemscore.Hbond>
2.6761

> <Gold.Chemscore.Metal>
0.0000

> <Gold.Chemscore.Lipo>
75.9065

> <Gold.Chemscore.Internal_Hbond>
0.0000

> <Gold.Chemscore.DEClash>
0.0270

> <Gold.Chemscore.DEInternal>
4.4526

> <Gold.Chemscore.Rot>
1.8816

> <Gold.Chemscore.Internal.Correction>
   9.000000E+99

> <Gold.Chemscore.Hbonds>
donor molecule, donor type, donor heavy atom, donor atom, acceptor molecule, acceptor atom, score
      L1  H     5    26       P1  7948  0.15
      L1  H     8    27       P1  7948  0.82
      P1  H  7997  8009       L1    19  0.78

> <Gold.Chemscore.Hbond.Weighted>
-8.9381

> <Gold.Chemscore.Metal.Weighted>
-0.0000

> <Gold.Chemscore.Lipo.Weighted>
-8.8811

> <Gold.Chemscore.Internal_Hbond.Weighted>
0.0000

> <Gold.Chemscore.DEClash.Weighted>
0.0270

> <Gold.Chemscore.DEInternal.Weighted>
4.4526

> <Gold.Chemscore.Rot.Weighted>
4.8169

> <Gold.Chemscore.Internal.Correction.Weighted>
   9.000000E+99

> <Gold.Protein.RotatedTorsions>
[ 6907 6896 6895 6894 ] final -123.17 input  -60.11 | X-H torsion
[ 7974 7965 7964 7962 ] final   14.00 input  175.53 | X-H torsion
[ 8008 7997 7996 7995 ] final  160.48 input   59.86 | X-H torsion
[ 10167 10162 10161 10158 ] final  -86.64 input  -65.29 | X-H torsion
[ 10718 10713 10712 10709 ] final -171.37 input   66.30 | X-H torsion
[ 10763 10752 10751 10750 ] final  119.48 input  -60.55 | X-H torsion
[ 11005 11000 10999 10996 ] final -157.42 input  -57.11 | X-H torsion

> <Gold.Protein.ActiveResidues>
 VAL166  LYS551  ARG553  GLY616  TRP617  ASP618  TYR619  PRO620  LYS621  CYS622 
 ASP623  PHE694  ASN695  SER759  ASP760  ASP761  ALA762  ILE779  LEU786  VAL792 
 PHE793  MET794  SER795  GLU796  ALA797  LYS798  CYS799  TRP800  GLU811  SER814 

> <Gold.Protein.RotatedAtoms>
  150.8645  133.7594  159.2981 H   0  0  0  0  0  0  0  0  0  0  0  0  # atno 6907 bound_to 6896
  151.5226  135.1066  159.9892 H   0  0  0  0  0  0  0  0  0  0  0  0  # atno 6908 bound_to 6896
  152.4651  133.7861  159.6932 H   0  0  0  0  0  0  0  0  0  0  0  0  # atno 6909 bound_to 6896
  146.2316  139.9106  142.8525 H   0  0  0  0  0  0  0  0  0  0  0  0  # atno 7974 bound_to 7965
  156.2169  140.1803  156.7567 H   0  0  0  0  0  0  0  0  0  0  0  0  # atno 8008 bound_to 7997
  154.5805  140.0667  156.9127 H   0  0  0  0  0  0  0  0  0  0  0  0  # atno 8009 bound_to 7997
  155.2510  140.3329  155.4284 H   0  0  0  0  0  0  0  0  0  0  0  0  # atno 8010 bound_to 7997
  140.3921  143.2700  151.9250 H   0  0  0  0  0  0  0  0  0  0  0  0  # atno 10167 bound_to 10162
  156.7398  130.9338  151.3109 H   0  0  0  0  0  0  0  0  0  0  0  0  # atno 10718 bound_to 10713
  153.5837  135.3479  155.2885 H   0  0  0  0  0  0  0  0  0  0  0  0  # atno 10763 bound_to 10752
  154.8664  135.4188  154.2592 H   0  0  0  0  0  0  0  0  0  0  0  0  # atno 10764 bound_to 10752
  153.3384  135.7048  153.6959 H   0  0  0  0  0  0  0  0  0  0  0  0  # atno 10765 bound_to 10752
  140.6648  134.4310  157.5233 H   0  0  0  0  0  0  0  0  0  0  0  0  # atno 11005 bound_to 11000
  145.2234  140.9944  143.4032 LP  0  0  0  0  0  0  0  0  0  0  0  0  # atno 17320 bound_to 7965
  144.9591  139.3999  143.6364 LP  0  0  0  0  0  0  0  0  0  0  0  0  # atno 17321 bound_to 7965
  139.4788  144.5717  151.8078 LP  0  0  0  0  0  0  0  0  0  0  0  0  # atno 17342 bound_to 10162
  140.4828  144.1424  150.5935 LP  0  0  0  0  0  0  0  0  0  0  0  0  # atno 17343 bound_to 10162
  157.6823  130.9152  150.0298 LP  0  0  0  0  0  0  0  0  0  0  0  0  # atno 17370 bound_to 10713
  156.1472  130.3642  149.9492 LP  0  0  0  0  0  0  0  0  0  0  0  0  # atno 17371 bound_to 10713
  139.9001  134.8577  156.1934 LP  0  0  0  0  0  0  0  0  0  0  0  0  # atno 17394 bound_to 11000
  141.0437  133.6924  156.1645 LP  0  0  0  0  0  0  0  0  0  0  0  0  # atno 17395 bound_to 11000

$$$$
