AV-unprocessed.smi:196|AV-procd|sdf|1537|dock10
  -GOLD-   2262019393D 1   1.00000     0.00000
 Structure written by MMmdl.
 47 50  0  0  0  0  0  0  0  0  1 V2000
  152.9616  138.6683  154.4805 C   0  0  0  0  0  0  0  0  0  0  0  0
  151.6047  138.5651  155.1949 C   0  0  1  0  0  0  0  0  0  0  0  0
  150.6718  139.4959  154.6470 O   0  0  0  0  0  0  0  0  0  0  0  0
  149.4943  138.8206  154.2265 C   0  0  0  0  0  0  0  0  0  0  0  0
  149.4499  137.5623  155.0832 C   0  0  0  0  0  0  0  0  0  0  0  0
  150.9195  137.1794  155.1827 C   0  0  1  0  0  0  0  0  0  0  0  0
  151.2713  136.4499  154.0170 O   0  0  0  0  0  0  0  0  0  0  0  0
  151.2680  136.3224  156.4225 C   0  0  0  0  0  0  0  0  0  0  0  0
  150.4539  136.6313  157.5874 N   0  0  0  0  0  0  0  0  0  0  0  0
  150.4681  137.8004  158.3147 C   0  0  0  0  0  0  0  0  0  0  0  0
  149.6418  137.8387  159.3244 N   0  0  0  0  0  0  0  0  0  0  0  0
  149.0030  136.6060  159.2827 C   0  0  0  0  0  0  0  0  0  0  0  0
  147.9949  135.9926  160.0726 C   0  0  0  0  0  0  0  0  0  0  0  0
  147.4566  136.6322  161.1449 N   0  0  0  0  0  0  0  0  0  0  0  0
  147.7980  135.9582  162.3931 C   0  0  0  0  0  0  0  0  0  0  0  0
  146.5613  135.1392  162.7986 C   0  0  2  0  0  0  0  0  0  0  0  0
  146.7685  133.8341  162.6203 F   0  0  0  0  0  0  0  0  0  0  0  0
  145.4328  135.6310  161.8833 C   0  0  0  0  0  0  0  0  0  0  0  0
  146.0145  136.9011  161.2406 C   0  0  2  0  0  0  0  0  0  0  0  0
  145.2972  137.3973  159.9668 C   0  0  0  0  0  0  0  0  0  0  0  0
  144.2347  136.6997  159.5566 N   0  0  0  0  0  0  0  0  0  0  0  0
  145.6611  138.4174  159.3836 O   0  0  0  0  0  0  0  0  0  0  0  0
  147.6167  134.7293  159.7394 N   0  0  0  0  0  0  0  0  0  0  0  0
  148.1675  134.1183  158.6865 C   0  0  0  0  0  0  0  0  0  0  0  0
  149.1041  134.5752  157.8528 N   0  0  0  0  0  0  0  0  0  0  0  0
  149.5003  135.8342  158.1961 C   0  0  0  0  0  0  0  0  0  0  0  0
  146.3244  135.2865  163.8527 H   0  0  0  0  0  0  0  0  0  0  0  0
  145.9147  137.7170  161.9589 H   0  0  0  0  0  0  0  0  0  0  0  0
  153.6735  137.9486  154.8851 H   0  0  0  0  0  0  0  0  0  0  0  0
  153.3881  139.6634  154.6055 H   0  0  0  0  0  0  0  0  0  0  0  0
  152.8670  138.4861  153.4097 H   0  0  0  0  0  0  0  0  0  0  0  0
  151.7447  138.8755  156.2314 H   0  0  0  0  0  0  0  0  0  0  0  0
  148.6095  139.4454  154.3487 H   0  0  0  0  0  0  0  0  0  0  0  0
  149.5879  138.5638  153.1705 H   0  0  0  0  0  0  0  0  0  0  0  0
  149.0604  137.8190  156.0691 H   0  0  0  0  0  0  0  0  0  0  0  0
  148.8160  136.7788  154.6657 H   0  0  0  0  0  0  0  0  0  0  0  0
  150.8264  136.8355  153.2780 H   0  0  0  0  0  0  0  0  0  0  0  0
  151.1501  135.2627  156.1925 H   0  0  0  0  0  0  0  0  0  0  0  0
  152.3151  136.4591  156.6956 H   0  0  0  0  0  0  0  0  0  0  0  0
  151.1191  138.6280  158.0730 H   0  0  0  0  0  0  0  0  0  0  0  0
  148.6926  135.3351  162.3243 H   0  0  0  0  0  0  0  0  0  0  0  0
  148.0054  136.7235  163.1421 H   0  0  0  0  0  0  0  0  0  0  0  0
  145.1984  134.8804  161.1271 H   0  0  0  0  0  0  0  0  0  0  0  0
  144.5172  135.8329  162.4400 H   0  0  0  0  0  0  0  0  0  0  0  0
  143.7292  136.9874  158.7316 H   0  0  0  0  0  0  0  0  0  0  0  0
  143.9383  135.8876  160.0785 H   0  0  0  0  0  0  0  0  0  0  0  0
  147.8071  133.1207  158.4838 H   0  0  0  0  0  0  0  0  0  0  0  0
  1  2  1  0  0  0  0
  1 29  1  0  0  0  0
  1 30  1  0  0  0  0
  1 31  1  0  0  0  0
  2  6  1  0  0  0  0
  2  3  1  0  0  0  0
  2 32  1  0  0  0  0
  3  4  1  0  0  0  0
  4  5  1  0  0  0  0
  4 33  1  0  0  0  0
  4 34  1  0  0  0  0
  5  6  1  0  0  0  0
  5 35  1  0  0  0  0
  5 36  1  0  0  0  0
  6  7  1  0  0  0  0
  6  8  1  0  0  0  0
  7 37  1  0  0  0  0
  8  9  1  0  0  0  0
  8 38  1  0  0  0  0
  8 39  1  0  0  0  0
  9 26  1  0  0  0  0
  9 10  1  0  0  0  0
 10 11  2  0  0  0  0
 10 40  1  0  0  0  0
 11 12  1  0  0  0  0
 12 26  2  0  0  0  0
 12 13  1  0  0  0  0
 13 14  1  0  0  0  0
 13 23  2  0  0  0  0
 14 19  1  0  0  0  0
 14 15  1  0  0  0  0
 15 16  1  0  0  0  0
 15 41  1  0  0  0  0
 15 42  1  0  0  0  0
 16 27  1  0  0  0  0
 16 17  1  0  0  0  0
 16 18  1  0  0  0  0
 18 19  1  0  0  0  0
 18 43  1  0  0  0  0
 18 44  1  0  0  0  0
 19 28  1  0  0  0  0
 19 20  1  0  0  0  0
 20 21  1  0  0  0  0
 20 22  2  0  0  0  0
 21 45  1  0  0  0  0
 21 46  1  0  0  0  0
 23 24  1  0  0  0  0
 24 25  2  0  0  0  0
 24 47  1  0  0  0  0
 25 26  1  0  0  0  0
M  END
> <s_m_source_file>
AV-unprocessed.smi

> <i_m_source_file_index>
196

> <i_lp_mmshare_version>
43012

> <i_f3d_flags>
0

> <s_epik_input>
W0NIMl0xW0NIMl1PW0NAQEhdKFtDSDNdKVtDQEBdMShbT0hdKVtDSDJdbihbY0hdbjIpYyhjMjMpbltjSF1uYzNONFtDSDJdW0NASF0oRilbQ0gyXVtDQEhdNEMoPU8pW05IMl0=

> <s_epik_cmdline>
J2VwaWtfcHl0aG9uJywgJy1waCcsICc3LjAnLCAnLXRuJywgJzgnLCAnLW1hJywgJzIwMCcsICctbWV0YWxfYmluZGluZycsICctaW1hZScsICc8aW5maWxlLm1hZT4nLCAnLW9tYWUnLCAnPG91dGZpbGUubWFlPic=

> <r_lp_tautomer_probability>
1

> <r_epik_Ionization_Penalty>
0.000857933

> <r_epik_Ionization_Penalty_Charging>
0

> <r_epik_Ionization_Penalty_Neutral>
0.000857933

> <r_epik_State_Penalty>
0.000462053

> <r_epik_Charging_Adjusted_Penalty>
0.000462053

> <i_epik_Tot_Q>
0

> <i_epik_Tot_abs_Q>
0

> <r_epik_Metal_State_Penalty>
-0

> <b_epik_Metal_Only>
0

> <s_lp_Force_Field>
OPLS_2005

> <r_lp_Energy>
51.2848

> <b_lp_Chiralities_Consistent>
1

> <s_lp_Variant>
AV-unprocessed.smi:196-10

> <Gold.Version>
5.8.1

> <Gold.Id.Protein>
6NUR|6NUR_protein|mol2

> <Gold.PLP.Fitness>
47.5878

> <Gold.PLP.PLP>
-40.6685

> <Gold.PLP.part.hbond>
-5.9600

> <Gold.PLP.part.metal>
0.0000

> <Gold.PLP.part.buried>
-5.6101

> <Gold.PLP.part.nonpolar>
-30.7888

> <Gold.PLP.part.repulsive>
0.0757

> <Gold.PLP.ligand.clash>
0.0000

> <Gold.PLP.ligand.torsion>
0.5394

> <Gold.PLP.Chemscore.Hbond>
2.6465

> <Gold.PLP.Chemscore.CHOScore>
0.0000

> <Gold.PLP.Chemscore.Metal>
0.0000

> <Gold.Chemscore.Hbonds>
donor molecule, donor type, donor heavy atom, donor atom, acceptor molecule, acceptor atom, score
      L1  H     7    37       P1  7949  0.27
      P1  H  6896  6909       L1    25  0.04
      P1  H  6931  6943       L1    14  0.02
      P1  H  6934  6947       L1    22  0.25
      P1  H  7989  7998       L1     3  1.00
      P1  H 10752 10763       L1     7  1.00

> <Gold.PLP.Chemscore.Internal.Correction>
0.0588

> <Gold.Rescore>
     Score         DG    S(hbond)    S(metal)    S(lipo)     H(rot)  DE(clash)    DE(int)     intcor
     12.71     -13.25       2.14        0.00      71.72       3.04       0.06       0.47       ----

> <Gold.Chemscore.Fitness>
12.7108

> <Gold.Chemscore.DG>
-13.2458

> <Gold.Chemscore.ZeroCoef>
-5.4800

> <Gold.Chemscore.Hbond>
2.1439

> <Gold.Chemscore.Metal>
0.0000

> <Gold.Chemscore.Lipo>
71.7158

> <Gold.Chemscore.Internal_Hbond>
0.0000

> <Gold.Chemscore.DEClash>
0.0645

> <Gold.Chemscore.DEInternal>
0.4705

> <Gold.Chemscore.Rot>
3.0413

> <Gold.Chemscore.Internal.Correction>
   9.000000E+99

> <Gold.Chemscore.Hbonds>
donor molecule, donor type, donor heavy atom, donor atom, acceptor molecule, acceptor atom, score
      L1  H     7    37       P1  7949  0.04
      P1  H  6934  6947       L1    22  0.04
      P1  H  7989  7998       L1     3  0.69
      P1  H 10752 10763       L1     7  0.50

> <Gold.Chemscore.Hbond.Weighted>
-7.1607

> <Gold.Chemscore.Metal.Weighted>
-0.0000

> <Gold.Chemscore.Lipo.Weighted>
-8.3907

> <Gold.Chemscore.Internal_Hbond.Weighted>
0.0000

> <Gold.Chemscore.DEClash.Weighted>
0.0645

> <Gold.Chemscore.DEInternal.Weighted>
0.4705

> <Gold.Chemscore.Rot.Weighted>
7.7856

> <Gold.Chemscore.Internal.Correction.Weighted>
   9.000000E+99

> <Gold.Protein.RotatedTorsions>
[ 6907 6896 6895 6894 ] final    6.50 input  -60.11 | X-H torsion
[ 7974 7965 7964 7962 ] final  132.43 input  175.53 | X-H torsion
[ 8008 7997 7996 7995 ] final -125.24 input   59.86 | X-H torsion
[ 10167 10162 10161 10158 ] final  131.83 input  -65.29 | X-H torsion
[ 10718 10713 10712 10709 ] final  115.48 input   66.30 | X-H torsion
[ 10763 10752 10751 10750 ] final   52.92 input  -60.55 | X-H torsion
[ 11005 11000 10999 10996 ] final   78.13 input  -57.11 | X-H torsion

> <Gold.Protein.ActiveResidues>
 VAL166  LYS551  ARG553  GLY616  TRP617  ASP618  TYR619  PRO620  LYS621  CYS622 
 ASP623  PHE694  ASN695  SER759  ASP760  ASP761  ALA762  ILE779  LEU786  VAL792 
 PHE793  MET794  SER795  GLU796  ALA797  LYS798  CYS799  TRP800  GLU811  SER814 

> <Gold.Protein.RotatedAtoms>
  151.6747  135.0971  160.0204 H   0  0  0  0  0  0  0  0  0  0  0  0  # atno 6907 bound_to 6896
  152.3871  133.6622  159.6216 H   0  0  0  0  0  0  0  0  0  0  0  0  # atno 6908 bound_to 6896
  150.7794  133.8934  159.3361 H   0  0  0  0  0  0  0  0  0  0  0  0  # atno 6909 bound_to 6896
  144.9969  139.4350  143.5311 H   0  0  0  0  0  0  0  0  0  0  0  0  # atno 7974 bound_to 7965
  155.2100  140.0418  157.2932 H   0  0  0  0  0  0  0  0  0  0  0  0  # atno 8008 bound_to 7997
  154.6018  140.2454  155.7754 H   0  0  0  0  0  0  0  0  0  0  0  0  # atno 8009 bound_to 7997
  156.2325  140.2933  156.0236 H   0  0  0  0  0  0  0  0  0  0  0  0  # atno 8010 bound_to 7997
  139.5366  144.6689  151.4764 H   0  0  0  0  0  0  0  0  0  0  0  0  # atno 10167 bound_to 10162
  157.6219  131.1013  150.7336 H   0  0  0  0  0  0  0  0  0  0  0  0  # atno 10718 bound_to 10713
  152.9791  135.5796  154.4657 H   0  0  0  0  0  0  0  0  0  0  0  0  # atno 10763 bound_to 10752
  154.4226  135.2772  155.1967 H   0  0  0  0  0  0  0  0  0  0  0  0  # atno 10764 bound_to 10752
  154.3709  135.6168  153.5793 H   0  0  0  0  0  0  0  0  0  0  0  0  # atno 10765 bound_to 10752
  139.9225  134.7739  156.1610 H   0  0  0  0  0  0  0  0  0  0  0  0  # atno 11005 bound_to 11000
  146.3444  139.9335  142.8750 LP  0  0  0  0  0  0  0  0  0  0  0  0  # atno 17320 bound_to 7965
  145.2207  140.9934  143.4047 LP  0  0  0  0  0  0  0  0  0  0  0  0  # atno 17321 bound_to 7965
  140.6576  143.8566  150.6852 LP  0  0  0  0  0  0  0  0  0  0  0  0  # atno 17342 bound_to 10162
  140.1951  143.4005  152.1834 LP  0  0  0  0  0  0  0  0  0  0  0  0  # atno 17343 bound_to 10162
  156.7692  130.4823  149.5421 LP  0  0  0  0  0  0  0  0  0  0  0  0  # atno 17370 bound_to 10713
  156.1369  130.6217  151.0413 LP  0  0  0  0  0  0  0  0  0  0  0  0  # atno 17371 bound_to 10713
  141.0758  133.6776  156.2233 LP  0  0  0  0  0  0  0  0  0  0  0  0  # atno 17394 bound_to 11000
  140.6432  134.5144  157.5571 LP  0  0  0  0  0  0  0  0  0  0  0  0  # atno 17395 bound_to 11000

$$$$
