AV-unprocessed.smi:2753|AV-procd|sdf|10610|dock4
  -GOLD-   2272015 63D 1   1.00000     0.00000
 Structure written by MMmdl.
 28 29  0  0  0  0  0  0  0  0  2 V2000
  146.2934  134.8026  156.9654 F   0  0  0  0  0  0  0  0  0  0  0  0
  145.5367  134.1230  156.1048 C   0  0  0  0  0  0  0  0  0  0  0  0
  145.6265  132.8310  156.4221 F   0  0  0  0  0  0  0  0  0  0  0  0
  144.2723  134.4974  156.2945 F   0  0  0  0  0  0  0  0  0  0  0  0
  145.9668  134.3824  154.6904 C   0  0  0  0  0  0  0  0  0  0  0  0
  146.9986  135.1774  154.2439 C   0  0  0  0  0  0  0  0  0  0  0  0
  146.9737  135.0782  152.8641 N   0  0  0  0  0  0  0  0  0  0  0  0
  145.9688  134.2600  152.5288 C   0  0  0  0  0  0  0  0  0  0  0  0
  145.6479  133.9189  151.1062 C   0  0  1  0  0  0  0  0  0  0  0  0
  145.8364  132.4173  150.8160 C   0  0  0  0  0  0  0  0  0  0  0  0
  145.4819  132.1013  149.3548 C   0  0  0  0  0  0  0  0  0  0  0  0
  144.0669  132.5966  149.0126 C   0  0  0  0  0  0  0  0  0  0  0  0
  143.9354  134.0416  149.2999 N   0  3  0  0  0  0  0  0  0  0  0  0
  144.2303  134.3806  150.7096 C   0  0  0  0  0  0  0  0  0  0  0  0
  145.3171  133.8047  153.5952 N   0  0  0  0  0  0  0  0  0  0  0  0
  147.6044  135.5412  152.2250 H   0  0  0  0  0  0  0  0  0  0  0  0
  147.7199  135.7806  154.7752 H   0  0  0  0  0  0  0  0  0  0  0  0
  146.3562  134.4629  150.4783 H   0  0  0  0  0  0  0  0  0  0  0  0
  146.8645  132.1179  151.0228 H   0  0  0  0  0  0  0  0  0  0  0  0
  145.2009  131.8272  151.4782 H   0  0  0  0  0  0  0  0  0  0  0  0
  146.2073  132.5745  148.6916 H   0  0  0  0  0  0  0  0  0  0  0  0
  145.5547  131.0278  149.1771 H   0  0  0  0  0  0  0  0  0  0  0  0
  143.8488  132.4217  147.9589 H   0  0  0  0  0  0  0  0  0  0  0  0
  143.3214  132.0462  149.5883 H   0  0  0  0  0  0  0  0  0  0  0  0
  144.5779  134.5468  148.7065 H   0  0  0  0  0  0  0  0  0  0  0  0
  143.4807  133.9134  151.3501 H   0  0  0  0  0  0  0  0  0  0  0  0
  144.1321  135.4589  150.8393 H   0  0  0  0  0  0  0  0  0  0  0  0
  142.9933  134.3347  149.0829 H   0  0  0  0  0  0  0  0  0  0  0  0
  1  2  1  0  0  0  0
  2  3  1  0  0  0  0
  2  4  1  0  0  0  0
  2  5  1  0  0  0  0
  5 15  1  0  0  0  0
  5  6  2  0  0  0  0
  6  7  1  0  0  0  0
  6 17  1  0  0  0  0
  7 16  1  0  0  0  0
  7  8  1  0  0  0  0
  8  9  1  0  0  0  0
  8 15  2  0  0  0  0
  9 14  1  0  0  0  0
  9 10  1  0  0  0  0
  9 18  1  0  0  0  0
 10 11  1  0  0  0  0
 10 19  1  0  0  0  0
 10 20  1  0  0  0  0
 11 12  1  0  0  0  0
 11 21  1  0  0  0  0
 11 22  1  0  0  0  0
 12 13  1  0  0  0  0
 12 23  1  0  0  0  0
 12 24  1  0  0  0  0
 13 14  1  0  0  0  0
 13 25  1  0  0  0  0
 13 28  1  0  0  0  0
 14 26  1  0  0  0  0
 14 27  1  0  0  0  0
M  CHG  1  13   1
M  END
> <s_m_source_file>
AV-unprocessed.smi

> <i_m_source_file_index>
2753

> <i_lp_mmshare_version>
43012

> <i_f3d_flags>
0

> <s_epik_input>
RkMoRikoRiljMVtjSF1bbkhdYyhuMSlbQ0BASF0yW0NIMl1bQ0gyXVtDSDJdW05IXVtDSDJdMg==

> <s_epik_cmdline>
J2VwaWtfcHl0aG9uJywgJy1waCcsICc3LjAnLCAnLXRuJywgJzgnLCAnLW1hJywgJzIwMCcsICctbWV0YWxfYmluZGluZycsICctaW1hZScsICc8aW5maWxlLm1hZT4nLCAnLW9tYWUnLCAnPG91dGZpbGUubWFlPic=

> <r_lp_tautomer_probability>
0.5

> <r_epik_Ionization_Penalty>
0.00052307

> <r_epik_Ionization_Penalty_Charging>
0.000431517

> <r_epik_Ionization_Penalty_Neutral>
9.15529e-05

> <r_epik_State_Penalty>
0.103148

> <r_epik_Charging_Adjusted_Penalty>
0.103579

> <i_epik_Tot_Q>
1

> <i_epik_Tot_abs_Q>
1

> <r_epik_Metal_State_Penalty>
0.166025

> <b_epik_Metal_Only>
0

> <s_lp_Force_Field>
OPLS_2005

> <r_lp_Energy>
16.8068

> <b_lp_Chiralities_Consistent>
1

> <s_lp_Variant>
AV-unprocessed.smi:2753-2

> <Gold.Version>
5.8.1

> <Gold.Id.Protein>
6NUR|6NUR_protein|mol2

> <Gold.PLP.Fitness>
33.9969

> <Gold.PLP.PLP>
-22.0038

> <Gold.PLP.part.hbond>
-2.8300

> <Gold.PLP.part.metal>
0.0000

> <Gold.PLP.part.buried>
-3.8741

> <Gold.PLP.part.nonpolar>
-15.6779

> <Gold.PLP.part.repulsive>
0.2056

> <Gold.PLP.ligand.clash>
0.0000

> <Gold.PLP.ligand.torsion>
0.0172

> <Gold.PLP.Chemscore.Hbond>
4.0000

> <Gold.PLP.Chemscore.CHOScore>
0.0000

> <Gold.PLP.Chemscore.Metal>
0.0000

> <Gold.Chemscore.Hbonds>
donor molecule, donor type, donor heavy atom, donor atom, acceptor molecule, acceptor atom, score
      L1  H     7    16       P1  7948  1.00
      L1  H    13    25       P1  7921  1.00
      L1  H    13    28       P1 10186  2.00

> <Gold.PLP.Chemscore.Internal.Correction>
0.0275

> <Gold.Rescore>
     Score         DG    S(hbond)    S(metal)    S(lipo)     H(rot)  DE(clash)    DE(int)     intcor
     18.30     -18.43       2.81        0.00      52.34       1.00       0.09       0.04       ----

> <Gold.Chemscore.Fitness>
18.3037

> <Gold.Chemscore.DG>
-18.4336

> <Gold.Chemscore.ZeroCoef>
-5.4800

> <Gold.Chemscore.Hbond>
2.8115

> <Gold.Chemscore.Metal>
0.0000

> <Gold.Chemscore.Lipo>
52.3358

> <Gold.Chemscore.Internal_Hbond>
0.0000

> <Gold.Chemscore.DEClash>
0.0920

> <Gold.Chemscore.DEInternal>
0.0378

> <Gold.Chemscore.Rot>
1.0000

> <Gold.Chemscore.Internal.Correction>
   9.000000E+99

> <Gold.Chemscore.Hbonds>
donor molecule, donor type, donor heavy atom, donor atom, acceptor molecule, acceptor atom, score
      L1  H     7    16       P1  7948  0.91
      L1  H    13    25       P1  7921  0.99
      L1  H    13    28       P1 10186  0.90

> <Gold.Chemscore.Hbond.Weighted>
-9.3903

> <Gold.Chemscore.Metal.Weighted>
-0.0000

> <Gold.Chemscore.Lipo.Weighted>
-6.1233

> <Gold.Chemscore.Internal_Hbond.Weighted>
0.0000

> <Gold.Chemscore.DEClash.Weighted>
0.0920

> <Gold.Chemscore.DEInternal.Weighted>
0.0378

> <Gold.Chemscore.Rot.Weighted>
2.5600

> <Gold.Chemscore.Internal.Correction.Weighted>
   9.000000E+99

> <Gold.Protein.RotatedTorsions>
[ 6907 6896 6895 6894 ] final  -31.90 input  -60.11 | X-H torsion
[ 7974 7965 7964 7962 ] final   58.63 input  175.53 | X-H torsion
[ 8008 7997 7996 7995 ] final  101.25 input   59.86 | X-H torsion
[ 10167 10162 10161 10158 ] final  -88.79 input  -65.29 | X-H torsion
[ 10718 10713 10712 10709 ] final  -47.75 input   66.30 | X-H torsion
[ 10763 10752 10751 10750 ] final   -9.27 input  -60.55 | X-H torsion
[ 11005 11000 10999 10996 ] final  -85.04 input  -57.11 | X-H torsion

> <Gold.Protein.ActiveResidues>
 VAL166  LYS551  ARG553  GLY616  TRP617  ASP618  TYR619  PRO620  LYS621  CYS622 
 ASP623  PHE694  ASN695  SER759  ASP760  ASP761  ALA762  ILE779  LEU786  VAL792 
 PHE793  MET794  SER795  GLU796  ALA797  LYS798  CYS799  TRP800  GLU811  SER814 

> <Gold.Protein.RotatedAtoms>
  151.0859  134.9887  159.8378 H   0  0  0  0  0  0  0  0  0  0  0  0  # atno 6907 bound_to 6896
  152.5424  134.2125  159.8765 H   0  0  0  0  0  0  0  0  0  0  0  0  # atno 6908 bound_to 6896
  151.2158  133.4486  159.2633 H   0  0  0  0  0  0  0  0  0  0  0  0  # atno 6909 bound_to 6896
  145.9161  139.3692  143.0506 H   0  0  0  0  0  0  0  0  0  0  0  0  # atno 7974 bound_to 7965
  156.1281  140.3200  155.8308 H   0  0  0  0  0  0  0  0  0  0  0  0  # atno 8008 bound_to 7997
  155.4382  140.0523  157.3030 H   0  0  0  0  0  0  0  0  0  0  0  0  # atno 8009 bound_to 7997
  154.4878  140.2080  155.9629 H   0  0  0  0  0  0  0  0  0  0  0  0  # atno 8010 bound_to 7997
  140.3712  143.2793  151.9498 H   0  0  0  0  0  0  0  0  0  0  0  0  # atno 10167 bound_to 10162
  156.2054  130.4158  149.9184 H   0  0  0  0  0  0  0  0  0  0  0  0  # atno 10718 bound_to 10713
  153.4523  135.7015  153.6101 H   0  0  0  0  0  0  0  0  0  0  0  0  # atno 10763 bound_to 10752
  153.4430  135.3775  155.2240 H   0  0  0  0  0  0  0  0  0  0  0  0  # atno 10764 bound_to 10752
  154.8728  135.3978  154.3937 H   0  0  0  0  0  0  0  0  0  0  0  0  # atno 10765 bound_to 10752
  141.1645  133.7378  156.8956 H   0  0  0  0  0  0  0  0  0  0  0  0  # atno 11005 bound_to 11000
  145.8610  140.9475  143.0700 LP  0  0  0  0  0  0  0  0  0  0  0  0  # atno 17320 bound_to 7965
  144.6748  140.0530  143.7478 LP  0  0  0  0  0  0  0  0  0  0  0  0  # atno 17321 bound_to 7965
  139.4803  144.5905  151.7780 LP  0  0  0  0  0  0  0  0  0  0  0  0  # atno 17342 bound_to 10162
  140.5031  144.1139  150.5976 LP  0  0  0  0  0  0  0  0  0  0  0  0  # atno 17343 bound_to 10162
  156.6880  130.8884  151.3584 LP  0  0  0  0  0  0  0  0  0  0  0  0  # atno 17370 bound_to 10713
  157.7009  130.9332  150.0784 LP  0  0  0  0  0  0  0  0  0  0  0  0  # atno 17371 bound_to 10713
  140.1618  134.9160  157.2724 LP  0  0  0  0  0  0  0  0  0  0  0  0  # atno 17394 bound_to 11000
  140.2602  134.3580  155.7409 LP  0  0  0  0  0  0  0  0  0  0  0  0  # atno 17395 bound_to 11000

$$$$
