AV-unprocessed.smi:276|AV-procd|sdf|2083|dock4
  -GOLD-   2262021353D 1   1.00000     0.00000
 Structure written by MMmdl.
 57 61  0  0  0  0  0  0  0  0  1 V2000
  143.7056  135.7159  158.9269 C   0  0  0  0  0  0  0  0  0  0  0  0
  144.8929  136.0959  159.6003 O   0  0  0  0  0  0  0  0  0  0  0  0
  145.6120  134.9868  160.1218 C   0  0  1  0  0  0  0  0  0  0  0  0
  146.4130  134.2443  159.0424 C   0  0  0  0  0  0  0  0  0  0  0  0
  147.6242  135.1467  159.3530 C   0  0  1  0  0  0  0  0  0  0  0  0
  147.6887  136.2975  158.4421 N   0  0  0  0  0  0  0  0  0  0  0  0
  147.4074  136.0391  157.0323 C   0  0  0  0  0  0  0  0  0  0  0  0
  148.7404  137.1378  158.5766 C   0  0  0  0  0  0  0  0  0  0  0  0
  149.8413  136.6465  159.1986 N   0  0  0  0  0  0  0  0  0  0  0  0
  150.9171  137.4202  159.3678 C   0  0  0  0  0  0  0  0  0  0  0  0
  151.0947  138.6928  159.0082 N   0  0  0  0  0  0  0  0  0  0  0  0
  149.9836  139.1963  158.3985 C   0  0  0  0  0  0  0  0  0  0  0  0
  148.7713  138.4951  158.1426 C   0  0  0  0  0  0  0  0  0  0  0  0
  147.8689  139.3355  157.5009 N   0  0  0  0  0  0  0  0  0  0  0  0
  148.5136  140.4623  157.3742 C   0  0  0  0  0  0  0  0  0  0  0  0
  149.7818  140.4751  157.9087 N   0  0  0  0  0  0  0  0  0  0  0  0
  150.7105  141.5918  157.9138 C   0  0  0  0  0  0  0  0  0  0  0  0
  151.6323  141.6442  159.1556 C   0  0  1  0  0  0  0  0  0  0  0  0
  152.8295  141.0032  158.7633 O   0  0  0  0  0  0  0  0  0  0  0  0
  152.0139  143.0597  159.6488 C   0  0  1  0  0  0  0  0  0  0  0  0
  152.5474  144.0259  158.5853 C   0  0  0  0  0  0  0  0  0  0  0  0
  152.1647  145.4052  159.0990 C   0  0  0  0  0  0  0  0  0  0  0  0
  151.1775  145.1150  160.2283 C   0  0  0  0  0  0  0  0  0  0  0  0
  150.8404  143.7469  160.0607 O   0  0  0  0  0  0  0  0  0  0  0  0
  146.9585  135.4192  160.7284 C   0  0  0  0  0  0  0  0  0  0  0  0
  147.4682  134.6725  161.9733 C   0  0  0  0  0  0  0  0  0  0  0  0
  146.9680  135.8453  162.8199 C   0  0  0  0  0  0  0  0  0  0  0  0
  147.0836  136.7104  161.5639 C   0  0  0  0  0  0  0  0  0  0  0  0
  143.2011  136.6045  158.5480 H   0  0  0  0  0  0  0  0  0  0  0  0
  143.0201  135.2018  159.6016 H   0  0  0  0  0  0  0  0  0  0  0  0
  143.9157  135.0632  158.0792 H   0  0  0  0  0  0  0  0  0  0  0  0
  145.0191  134.3461  160.7764 H   0  0  0  0  0  0  0  0  0  0  0  0
  146.5972  133.2032  159.3125 H   0  0  0  0  0  0  0  0  0  0  0  0
  146.0050  134.3149  158.0342 H   0  0  0  0  0  0  0  0  0  0  0  0
  148.5503  134.5756  159.4164 H   0  0  0  0  0  0  0  0  0  0  0  0
  148.0683  136.5870  156.3577 H   0  0  0  0  0  0  0  0  0  0  0  0
  146.3829  136.3339  156.8042 H   0  0  0  0  0  0  0  0  0  0  0  0
  147.5123  134.9779  156.8039 H   0  0  0  0  0  0  0  0  0  0  0  0
  151.7553  136.9530  159.8634 H   0  0  0  0  0  0  0  0  0  0  0  0
  148.0711  141.3260  156.8997 H   0  0  0  0  0  0  0  0  0  0  0  0
  151.3128  141.5079  157.0079 H   0  0  0  0  0  0  0  0  0  0  0  0
  150.1451  142.5204  157.8229 H   0  0  0  0  0  0  0  0  0  0  0  0
  151.1940  141.0709  159.9729 H   0  0  0  0  0  0  0  0  0  0  0  0
  153.2420  140.6388  159.5314 H   0  0  0  0  0  0  0  0  0  0  0  0
  152.7169  143.0049  160.4827 H   0  0  0  0  0  0  0  0  0  0  0  0
  153.6220  143.9296  158.4338 H   0  0  0  0  0  0  0  0  0  0  0  0
  152.0514  143.8500  157.6298 H   0  0  0  0  0  0  0  0  0  0  0  0
  153.0297  145.9558  159.4699 H   0  0  0  0  0  0  0  0  0  0  0  0
  151.7040  145.9958  158.3065 H   0  0  0  0  0  0  0  0  0  0  0  0
  151.6525  145.2518  161.2011 H   0  0  0  0  0  0  0  0  0  0  0  0
  150.2920  145.7497  160.1876 H   0  0  0  0  0  0  0  0  0  0  0  0
  146.9782  133.7198  162.1762 H   0  0  0  0  0  0  0  0  0  0  0  0
  148.5552  134.5758  161.9903 H   0  0  0  0  0  0  0  0  0  0  0  0
  145.9367  135.7184  163.1532 H   0  0  0  0  0  0  0  0  0  0  0  0
  147.6283  136.1345  163.6377 H   0  0  0  0  0  0  0  0  0  0  0  0
  148.0604  137.1885  161.5067 H   0  0  0  0  0  0  0  0  0  0  0  0
  146.2771  137.4317  161.4305 H   0  0  0  0  0  0  0  0  0  0  0  0
  1  2  1  0  0  0  0
  1 29  1  0  0  0  0
  1 30  1  0  0  0  0
  1 31  1  0  0  0  0
  2  3  1  0  0  0  0
  3 25  1  0  0  0  0
  3  4  1  0  0  0  0
  3 32  1  0  0  0  0
  4  5  1  0  0  0  0
  4 33  1  0  0  0  0
  4 34  1  0  0  0  0
  5  6  1  0  0  0  0
  5 25  1  0  0  0  0
  5 35  1  0  0  0  0
  6  7  1  0  0  0  0
  6  8  1  0  0  0  0
  7 36  1  0  0  0  0
  7 37  1  0  0  0  0
  7 38  1  0  0  0  0
  8 13  1  0  0  0  0
  8  9  2  0  0  0  0
  9 10  1  0  0  0  0
 10 11  2  0  0  0  0
 10 39  1  0  0  0  0
 11 12  1  0  0  0  0
 12 16  1  0  0  0  0
 12 13  2  0  0  0  0
 13 14  1  0  0  0  0
 14 15  2  0  0  0  0
 15 16  1  0  0  0  0
 15 40  1  0  0  0  0
 16 17  1  0  0  0  0
 17 18  1  0  0  0  0
 17 41  1  0  0  0  0
 17 42  1  0  0  0  0
 18 19  1  0  0  0  0
 18 20  1  0  0  0  0
 18 43  1  0  0  0  0
 19 44  1  0  0  0  0
 20 24  1  0  0  0  0
 20 21  1  0  0  0  0
 20 45  1  0  0  0  0
 21 22  1  0  0  0  0
 21 46  1  0  0  0  0
 21 47  1  0  0  0  0
 22 23  1  0  0  0  0
 22 48  1  0  0  0  0
 22 49  1  0  0  0  0
 23 24  1  0  0  0  0
 23 50  1  0  0  0  0
 23 51  1  0  0  0  0
 25 28  1  0  0  0  0
 25 26  1  0  0  0  0
 26 27  1  0  0  0  0
 26 52  1  0  0  0  0
 26 53  1  0  0  0  0
 27 28  1  0  0  0  0
 27 54  1  0  0  0  0
 27 55  1  0  0  0  0
 28 56  1  0  0  0  0
 28 57  1  0  0  0  0
M  END
> <s_m_source_file>
AV-unprocessed.smi

> <i_m_source_file_index>
276

> <i_lp_mmshare_version>
43012

> <i_f3d_flags>
0

> <s_epik_input>
W0NIMl0xW0NIMl1bQ0gyXUMxMltDQEhdKE9bQ0gzXSlbQ0gyXVtDQEhdMk4oW0NIM10pYyhuW2NIXW4zKWMoYzM0KW5bY0hdbjRbQ0gyXVtDQEhdKFtPSF0pW0NAQEhdNVtDSDJdW0NIMl1bQ0gyXU81

> <s_epik_cmdline>
J2VwaWtfcHl0aG9uJywgJy1waCcsICc3LjAnLCAnLXRuJywgJzgnLCAnLW1hJywgJzIwMCcsICctbWV0YWxfYmluZGluZycsICctaW1hZScsICc8aW5maWxlLm1hZT4nLCAnLW9tYWUnLCAnPG91dGZpbGUubWFlPic=

> <r_lp_tautomer_probability>
1

> <r_epik_Ionization_Penalty>
0.00204117

> <r_epik_Ionization_Penalty_Charging>
0

> <r_epik_Ionization_Penalty_Neutral>
0.00204117

> <r_epik_State_Penalty>
0.00127401

> <r_epik_Charging_Adjusted_Penalty>
0.00127401

> <i_epik_Tot_Q>
0

> <i_epik_Tot_abs_Q>
0

> <r_epik_Metal_State_Penalty>
-0

> <b_epik_Metal_Only>
0

> <s_lp_Force_Field>
OPLS_2005

> <r_lp_Energy>
58.3472

> <b_lp_Chiralities_Consistent>
1

> <s_lp_Variant>
AV-unprocessed.smi:276-14

> <Gold.Version>
5.8.1

> <Gold.Id.Protein>
6NUR|6NUR_protein|mol2

> <Gold.PLP.Fitness>
42.4055

> <Gold.PLP.PLP>
-42.6326

> <Gold.PLP.part.hbond>
-1.0354

> <Gold.PLP.part.metal>
0.0000

> <Gold.PLP.part.buried>
-6.3791

> <Gold.PLP.part.nonpolar>
-34.6208

> <Gold.PLP.part.repulsive>
0.0876

> <Gold.PLP.ligand.clash>
0.0000

> <Gold.PLP.ligand.torsion>
1.7873

> <Gold.PLP.Chemscore.Hbond>
0.7500

> <Gold.PLP.Chemscore.CHOScore>
0.0000

> <Gold.PLP.Chemscore.Metal>
0.0000

> <Gold.Chemscore.Hbonds>
donor molecule, donor type, donor heavy atom, donor atom, acceptor molecule, acceptor atom, score
      P1  H  6896  6907       L1     9  0.15

> <Gold.PLP.Chemscore.Internal.Correction>
1.0976

> <Gold.Rescore>
     Score         DG    S(hbond)    S(metal)    S(lipo)     H(rot)  DE(clash)    DE(int)     intcor
     12.01     -14.92       0.83        0.00     116.31       2.72       0.22       2.69       ----

> <Gold.Chemscore.Fitness>
12.0078

> <Gold.Chemscore.DG>
-14.9184

> <Gold.Chemscore.ZeroCoef>
-5.4800

> <Gold.Chemscore.Hbond>
0.8343

> <Gold.Chemscore.Metal>
0.0000

> <Gold.Chemscore.Lipo>
116.3075

> <Gold.Chemscore.Internal_Hbond>
0.0000

> <Gold.Chemscore.DEClash>
0.2174

> <Gold.Chemscore.DEInternal>
2.6933

> <Gold.Chemscore.Rot>
2.7172

> <Gold.Chemscore.Internal.Correction>
   9.000000E+99

> <Gold.Chemscore.Hbond.Weighted>
-2.7864

> <Gold.Chemscore.Metal.Weighted>
-0.0000

> <Gold.Chemscore.Lipo.Weighted>
-13.6080

> <Gold.Chemscore.Internal_Hbond.Weighted>
0.0000

> <Gold.Chemscore.DEClash.Weighted>
0.2174

> <Gold.Chemscore.DEInternal.Weighted>
2.6933

> <Gold.Chemscore.Rot.Weighted>
6.9560

> <Gold.Chemscore.Internal.Correction.Weighted>
   9.000000E+99

> <Gold.Protein.RotatedTorsions>
[ 6907 6896 6895 6894 ] final  -25.01 input  -60.11 | X-H torsion
[ 7974 7965 7964 7962 ] final  129.36 input  175.53 | X-H torsion
[ 8008 7997 7996 7995 ] final -100.25 input   59.86 | X-H torsion
[ 10167 10162 10161 10158 ] final  127.19 input  -65.29 | X-H torsion
[ 10718 10713 10712 10709 ] final  -80.98 input   66.30 | X-H torsion
[ 10763 10752 10751 10750 ] final   32.21 input  -60.55 | X-H torsion
[ 11005 11000 10999 10996 ] final  136.36 input  -57.11 | X-H torsion

> <Gold.Protein.ActiveResidues>
 VAL166  LYS551  ARG553  GLY616  TRP617  ASP618  TYR619  PRO620  LYS621  CYS622 
 ASP623  PHE694  ASN695  SER759  ASP760  ASP761  ALA762  ILE779  LEU786  VAL792 
 PHE793  MET794  SER795  GLU796  ALA797  LYS798  CYS799  TRP800  GLU811  SER814 

> <Gold.Protein.RotatedAtoms>
  151.1814  135.0362  159.8793 H   0  0  0  0  0  0  0  0  0  0  0  0  # atno 6907 bound_to 6896
  152.5444  134.1059  159.8348 H   0  0  0  0  0  0  0  0  0  0  0  0  # atno 6908 bound_to 6896
  151.1176  133.5080  159.2635 H   0  0  0  0  0  0  0  0  0  0  0  0  # atno 6909 bound_to 6896
  145.0295  139.4059  143.5157 H   0  0  0  0  0  0  0  0  0  0  0  0  # atno 7974 bound_to 7965
  154.8261  140.0442  157.1444 H   0  0  0  0  0  0  0  0  0  0  0  0  # atno 8008 bound_to 7997
  154.9205  140.3026  155.5198 H   0  0  0  0  0  0  0  0  0  0  0  0  # atno 8009 bound_to 7997
  156.2984  140.2341  156.4255 H   0  0  0  0  0  0  0  0  0  0  0  0  # atno 8010 bound_to 7997
  139.5591  144.6869  151.4095 H   0  0  0  0  0  0  0  0  0  0  0  0  # atno 10167 bound_to 10162
  156.0059  130.4590  150.3882 H   0  0  0  0  0  0  0  0  0  0  0  0  # atno 10718 bound_to 10713
  153.0274  135.6419  154.1319 H   0  0  0  0  0  0  0  0  0  0  0  0  # atno 10763 bound_to 10752
  154.1046  135.2857  155.3245 H   0  0  0  0  0  0  0  0  0  0  0  0  # atno 10764 bound_to 10752
  154.6374  135.5471  153.7813 H   0  0  0  0  0  0  0  0  0  0  0  0  # atno 10765 bound_to 10752
  140.0041  134.9466  157.0137 H   0  0  0  0  0  0  0  0  0  0  0  0  # atno 11005 bound_to 11000
  146.3496  139.9837  142.8693 LP  0  0  0  0  0  0  0  0  0  0  0  0  # atno 17320 bound_to 7965
  145.1790  140.9758  143.4277 LP  0  0  0  0  0  0  0  0  0  0  0  0  # atno 17321 bound_to 7965
  140.6868  143.7954  150.7198 LP  0  0  0  0  0  0  0  0  0  0  0  0  # atno 17342 bound_to 10162
  140.1424  143.4429  152.2185 LP  0  0  0  0  0  0  0  0  0  0  0  0  # atno 17343 bound_to 10162
  157.1958  131.0426  151.2676 LP  0  0  0  0  0  0  0  0  0  0  0  0  # atno 17370 bound_to 10713
  157.4020  130.7338  149.6774 LP  0  0  0  0  0  0  0  0  0  0  0  0  # atno 17371 bound_to 10713
  140.4673  134.1422  155.7198 LP  0  0  0  0  0  0  0  0  0  0  0  0  # atno 17394 bound_to 11000
  141.1664  133.8695  157.1702 LP  0  0  0  0  0  0  0  0  0  0  0  0  # atno 17395 bound_to 11000

$$$$
