AV-unprocessed.smi:45|AV-procd|sdf|417|dock6
  -GOLD-   2262016293D 1   1.00000     0.00000
 Structure written by MMmdl.
 60 63  0  0  0  0  0  0  0  0  3 V2000
  155.2094  125.5968  155.7387 C   0  0  0  0  0  0  0  0  0  0  0  0
  155.0917  126.9549  155.3418 O   0  0  0  0  0  0  0  0  0  0  0  0
  153.8290  127.5062  155.2709 C   0  0  0  0  0  0  0  0  0  0  0  0
  152.6406  126.7991  155.5849 C   0  0  0  0  0  0  0  0  0  0  0  0
  151.3850  127.4271  155.4784 C   0  0  0  0  0  0  0  0  0  0  0  0
  151.2934  128.7682  155.0550 C   0  0  0  0  0  0  0  0  0  0  0  0
  149.9415  129.4399  154.9100 C   0  0  0  0  0  0  0  0  0  0  0  0
  149.8785  130.7193  155.5986 N   0  0  0  0  0  0  0  0  0  0  0  0
  149.1412  131.7487  154.9958 C   0  0  0  0  0  0  0  0  0  0  0  0
  148.2450  131.4214  154.0278 N   0  3  0  0  0  0  0  0  0  0  0  0
  147.4911  132.3694  153.4452 C   0  0  0  0  0  0  0  0  0  0  0  0
  146.5911  131.9854  152.4524 N   0  0  0  0  0  0  0  0  0  0  0  0
  146.0329  130.6385  152.4087 C   0  0  0  0  0  0  0  0  0  0  0  0
  145.8114  130.3240  150.9303 C   0  0  0  0  0  0  0  0  0  0  0  0
  145.5569  131.6981  150.3247 C   0  0  0  0  0  0  0  0  0  0  0  0
  146.4682  132.6264  151.1418 C   0  0  1  0  0  0  0  0  0  0  0  0
  145.9258  134.0692  151.2187 C   0  0  0  0  0  0  0  0  0  0  0  0
  145.3612  134.4430  149.9799 O   0  0  0  0  0  0  0  0  0  0  0  0
  147.5871  133.6633  153.7820 N   0  0  0  0  0  0  0  0  0  0  0  0
  148.4591  134.0356  154.7395 C   0  0  0  0  0  0  0  0  0  0  0  0
  149.2825  133.1000  155.3918 C   0  0  0  0  0  0  0  0  0  0  0  0
  150.2491  133.5242  156.4599 C   0  0  0  0  0  0  0  0  0  0  0  0
  150.1604  132.9955  157.5732 O   0  0  0  0  0  0  0  0  0  0  0  0
  151.0713  134.5152  156.0203 N   0  5  0  0  0  0  0  0  0  0  0  0
  151.3951  135.7041  156.8120 C   0  0  0  0  0  0  0  0  0  0  0  0
  151.8613  136.8688  155.9406 C   0  0  0  0  0  0  0  0  0  0  0  0
  152.2472  137.9836  156.5752 N   0  0  0  0  0  0  0  0  0  0  0  0
  152.6917  139.0038  155.8096 C   0  0  0  0  0  0  0  0  0  0  0  0
  152.7489  138.9067  154.4051 C   0  0  0  0  0  0  0  0  0  0  0  0
  152.3209  137.6860  153.8468 C   0  0  0  0  0  0  0  0  0  0  0  0
  151.8758  136.6693  154.6166 N   0  0  0  0  0  0  0  0  0  0  0  0
  152.4701  129.4778  154.7465 C   0  0  0  0  0  0  0  0  0  0  0  0
  153.7273  128.8520  154.8530 C   0  0  0  0  0  0  0  0  0  0  0  0
  155.1482  129.7469  154.4488 Cl  0  0  0  0  0  0  0  0  0  0  0  0
  147.4614  132.6324  150.6903 H   0  0  0  0  0  0  0  0  0  0  0  0
  156.2607  125.3092  155.7274 H   0  0  0  0  0  0  0  0  0  0  0  0
  154.6792  124.9341  155.0529 H   0  0  0  0  0  0  0  0  0  0  0  0
  154.8366  125.4434  156.7523 H   0  0  0  0  0  0  0  0  0  0  0  0
  152.6640  125.7695  155.9076 H   0  0  0  0  0  0  0  0  0  0  0  0
  150.4897  126.8713  155.7158 H   0  0  0  0  0  0  0  0  0  0  0  0
  149.7370  129.5957  153.8503 H   0  0  0  0  0  0  0  0  0  0  0  0
  149.1674  128.7723  155.2918 H   0  0  0  0  0  0  0  0  0  0  0  0
  149.7825  130.6565  156.6030 H   0  0  0  0  0  0  0  0  0  0  0  0
  146.6909  129.9005  152.8695 H   0  0  0  0  0  0  0  0  0  0  0  0
  145.0863  130.6356  152.9501 H   0  0  0  0  0  0  0  0  0  0  0  0
  146.7185  129.8945  150.5025 H   0  0  0  0  0  0  0  0  0  0  0  0
  144.9930  129.6233  150.7627 H   0  0  0  0  0  0  0  0  0  0  0  0
  145.7653  131.7359  149.2552 H   0  0  0  0  0  0  0  0  0  0  0  0
  144.5092  131.9662  150.4699 H   0  0  0  0  0  0  0  0  0  0  0  0
  145.1695  134.1588  151.9993 H   0  0  0  0  0  0  0  0  0  0  0  0
  146.7115  134.7856  151.4547 H   0  0  0  0  0  0  0  0  0  0  0  0
  146.0316  134.3943  149.3151 H   0  0  0  0  0  0  0  0  0  0  0  0
  148.4993  135.0882  154.9793 H   0  0  0  0  0  0  0  0  0  0  0  0
  150.5482  136.0274  157.4202 H   0  0  0  0  0  0  0  0  0  0  0  0
  152.1866  135.4881  157.5305 H   0  0  0  0  0  0  0  0  0  0  0  0
  153.0073  139.9016  156.3202 H   0  0  0  0  0  0  0  0  0  0  0  0
  153.1067  139.7202  153.7917 H   0  0  0  0  0  0  0  0  0  0  0  0
  152.3362  137.5249  152.7792 H   0  0  0  0  0  0  0  0  0  0  0  0
  152.4123  130.5044  154.4151 H   0  0  0  0  0  0  0  0  0  0  0  0
  148.1491  130.4444  153.7534 H   0  0  0  0  0  0  0  0  0  0  0  0
  1  2  1  0  0  0  0
  1 36  1  0  0  0  0
  1 37  1  0  0  0  0
  1 38  1  0  0  0  0
  2  3  1  0  0  0  0
  3 33  1  0  0  0  0
  3  4  2  0  0  0  0
  4  5  1  0  0  0  0
  4 39  1  0  0  0  0
  5  6  2  0  0  0  0
  5 40  1  0  0  0  0
  6  7  1  0  0  0  0
  6 32  1  0  0  0  0
  7  8  1  0  0  0  0
  7 41  1  0  0  0  0
  7 42  1  0  0  0  0
  8  9  1  0  0  0  0
  8 43  1  0  0  0  0
  9 21  1  0  0  0  0
  9 10  2  0  0  0  0
 10 11  1  0  0  0  0
 10 60  1  0  0  0  0
 11 12  1  0  0  0  0
 11 19  2  0  0  0  0
 12 16  1  0  0  0  0
 12 13  1  0  0  0  0
 13 14  1  0  0  0  0
 13 44  1  0  0  0  0
 13 45  1  0  0  0  0
 14 15  1  0  0  0  0
 14 46  1  0  0  0  0
 14 47  1  0  0  0  0
 15 16  1  0  0  0  0
 15 48  1  0  0  0  0
 15 49  1  0  0  0  0
 16 35  1  0  0  0  0
 16 17  1  0  0  0  0
 17 18  1  0  0  0  0
 17 50  1  0  0  0  0
 17 51  1  0  0  0  0
 18 52  1  0  0  0  0
 19 20  1  0  0  0  0
 20 21  2  0  0  0  0
 20 53  1  0  0  0  0
 21 22  1  0  0  0  0
 22 23  2  0  0  0  0
 22 24  1  0  0  0  0
 24 25  1  0  0  0  0
 25 26  1  0  0  0  0
 25 54  1  0  0  0  0
 25 55  1  0  0  0  0
 26 31  1  0  0  0  0
 26 27  2  0  0  0  0
 27 28  1  0  0  0  0
 28 29  2  0  0  0  0
 28 56  1  0  0  0  0
 29 30  1  0  0  0  0
 29 57  1  0  0  0  0
 30 31  2  0  0  0  0
 30 58  1  0  0  0  0
 32 33  2  0  0  0  0
 32 59  1  0  0  0  0
 33 34  1  0  0  0  0
M  CHG  1  10   1
M  CHG  1  24  -1
M  END
> <s_m_source_file>
AV-unprocessed.smi

> <i_m_source_file_index>
45

> <i_lp_mmshare_version>
43012

> <i_f3d_flags>
0

> <s_epik_input>
W0NIM11PYzFbY0hdW2NIXWMoW2NIXWMxQ2wpW0NIMl1bTkhdYzJuYyhOM1tDSDJdW0NIMl1bQ0gyXVtDQEhdM1tDSDJdW09IXSluW2NIXWMyQyg9TylbTkhdW0NIMl1jNG5bY0hdW2NIXVtjSF1uNA==

> <s_epik_cmdline>
J2VwaWtfcHl0aG9uJywgJy1waCcsICc3LjAnLCAnLXRuJywgJzgnLCAnLW1hJywgJzIwMCcsICctbWV0YWxfYmluZGluZycsICctaW1hZScsICc8aW5maWxlLm1hZT4nLCAnLW9tYWUnLCAnPG91dGZpbGUubWFlPic=

> <r_lp_tautomer_probability>
0.424989

> <r_epik_Ionization_Penalty>
7.51351

> <r_epik_Ionization_Penalty_Charging>
7.51312

> <r_epik_Ionization_Penalty_Neutral>
0.00038389

> <r_epik_State_Penalty>
8.64696

> <r_epik_Charging_Adjusted_Penalty>
16.1601

> <i_epik_Tot_Q>
0

> <i_epik_Tot_abs_Q>
2

> <r_epik_Metal_State_Penalty>
4.61083

> <b_epik_Metal_Only>
1

> <s_epik_Chemistry_Notes>
This compound contains an electron-poor aromatic ring that is susceptible to covalent hydrolysis at low pH, typically resulting in measured values for nitrogen ring protonation that are around two units higher than predicted values.

> <s_lp_Force_Field>
OPLS_2005

> <r_lp_Energy>
39.4565

> <b_lp_Chiralities_Consistent>
1

> <s_lp_Variant>
AV-unprocessed.smi:45-11

> <Gold.Version>
5.8.1

> <Gold.Id.Protein>
6NUR|6NUR_protein|mol2

> <Gold.PLP.Fitness>
56.0557

> <Gold.PLP.PLP>
-49.1571

> <Gold.PLP.part.hbond>
-3.0000

> <Gold.PLP.part.metal>
0.0000

> <Gold.PLP.part.buried>
-5.0924

> <Gold.PLP.part.nonpolar>
-41.6184

> <Gold.PLP.part.repulsive>
0.2546

> <Gold.PLP.ligand.clash>
0.0000

> <Gold.PLP.ligand.torsion>
2.8508

> <Gold.PLP.Chemscore.Hbond>
2.9760

> <Gold.PLP.Chemscore.CHOScore>
0.9168

> <Gold.PLP.Chemscore.Metal>
0.0000

> <Gold.Chemscore.Hbonds>
donor molecule, donor type, donor heavy atom, donor atom, acceptor molecule, acceptor atom, score
      L1  H    18    52       P1  7921  0.72
      P1  H  6896  6907       L1    23  1.00
      P1  H 10752 10763       L1    31  0.89
      L1  C    30    58       P1  7949  1.00

> <Gold.PLP.Chemscore.Internal.Correction>
0.9219

> <Gold.Rescore>
     Score         DG    S(hbond)    S(metal)    S(lipo)     H(rot)  DE(clash)    DE(int)     intcor
     14.20     -20.04       2.44        0.00     123.90       3.16       1.70       4.15       ----

> <Gold.Chemscore.Fitness>
14.1986

> <Gold.Chemscore.DG>
-20.0435

> <Gold.Chemscore.ZeroCoef>
-5.4800

> <Gold.Chemscore.Hbond>
2.4398

> <Gold.Chemscore.Metal>
0.0000

> <Gold.Chemscore.Lipo>
123.9028

> <Gold.Chemscore.Internal_Hbond>
0.0000

> <Gold.Chemscore.DEClash>
1.6961

> <Gold.Chemscore.DEInternal>
4.1487

> <Gold.Chemscore.Rot>
3.1571

> <Gold.Chemscore.Internal.Correction>
   9.000000E+99

> <Gold.Chemscore.Hbonds>
donor molecule, donor type, donor heavy atom, donor atom, acceptor molecule, acceptor atom, score
      L1  H    18    52       P1  7921  0.29
      P1  H  6896  6907       L1    23  0.98
      P1  H 10752 10763       L1    31  0.12

> <Gold.Chemscore.Hbond.Weighted>
-8.1490

> <Gold.Chemscore.Metal.Weighted>
-0.0000

> <Gold.Chemscore.Lipo.Weighted>
-14.4966

> <Gold.Chemscore.Internal_Hbond.Weighted>
0.0000

> <Gold.Chemscore.DEClash.Weighted>
1.6961

> <Gold.Chemscore.DEInternal.Weighted>
4.1487

> <Gold.Chemscore.Rot.Weighted>
8.0822

> <Gold.Chemscore.Internal.Correction.Weighted>
   9.000000E+99

> <Gold.Protein.RotatedTorsions>
[ 6907 6896 6895 6894 ] final -146.25 input  -60.11 | X-H torsion
[ 7974 7965 7964 7962 ] final -117.75 input  175.53 | X-H torsion
[ 8008 7997 7996 7995 ] final -162.93 input   59.86 | X-H torsion
[ 10167 10162 10161 10158 ] final  -60.75 input  -65.29 | X-H torsion
[ 10718 10713 10712 10709 ] final  -27.40 input   66.30 | X-H torsion
[ 10763 10752 10751 10750 ] final   45.54 input  -60.55 | X-H torsion
[ 11005 11000 10999 10996 ] final  112.61 input  -57.11 | X-H torsion

> <Gold.Protein.ActiveResidues>
 VAL166  LYS551  ARG553  GLY616  TRP617  ASP618  TYR619  PRO620  LYS621  CYS622 
 ASP623  PHE694  ASN695  SER759  ASP760  ASP761  ALA762  ILE779  LEU786  VAL792 
 PHE793  MET794  SER795  GLU796  ALA797  LYS798  CYS799  TRP800  GLU811  SER814 

> <Gold.Protein.RotatedAtoms>
  151.1390  133.4984  159.2597 H   0  0  0  0  0  0  0  0  0  0  0  0  # atno 6907 bound_to 6896
  151.1675  135.0302  159.8747 H   0  0  0  0  0  0  0  0  0  0  0  0  # atno 6908 bound_to 6896
  152.5462  134.1257  159.8471 H   0  0  0  0  0  0  0  0  0  0  0  0  # atno 6909 bound_to 6896
  145.0816  140.8430  143.4035 H   0  0  0  0  0  0  0  0  0  0  0  0  # atno 7974 bound_to 7965
  155.8139  140.0909  157.1888 H   0  0  0  0  0  0  0  0  0  0  0  0  # atno 8008 bound_to 7997
  154.3979  140.1449  156.3479 H   0  0  0  0  0  0  0  0  0  0  0  0  # atno 8009 bound_to 7997
  155.8337  140.3441  155.5590 H   0  0  0  0  0  0  0  0  0  0  0  0  # atno 8010 bound_to 7997
  140.6051  143.2371  151.5840 H   0  0  0  0  0  0  0  0  0  0  0  0  # atno 10167 bound_to 10162
  156.4387  130.4460  149.7067 H   0  0  0  0  0  0  0  0  0  0  0  0  # atno 10718 bound_to 10713
  152.9823  135.6036  154.3453 H   0  0  0  0  0  0  0  0  0  0  0  0  # atno 10763 bound_to 10752
  154.3147  135.2770  155.2551 H   0  0  0  0  0  0  0  0  0  0  0  0  # atno 10764 bound_to 10752
  154.4744  135.5933  153.6400 H   0  0  0  0  0  0  0  0  0  0  0  0  # atno 10765 bound_to 10752
  139.8932  134.9533  156.6613 H   0  0  0  0  0  0  0  0  0  0  0  0  # atno 11005 bound_to 11000
  145.1171  139.2718  143.5607 LP  0  0  0  0  0  0  0  0  0  0  0  0  # atno 17320 bound_to 7965
  146.3531  140.0784  142.8619 LP  0  0  0  0  0  0  0  0  0  0  0  0  # atno 17321 bound_to 7965
  139.5319  144.2892  152.1166 LP  0  0  0  0  0  0  0  0  0  0  0  0  # atno 17342 bound_to 10162
  140.2080  144.4591  150.6399 LP  0  0  0  0  0  0  0  0  0  0  0  0  # atno 17343 bound_to 10162
  156.3941  130.7642  151.2645 LP  0  0  0  0  0  0  0  0  0  0  0  0  # atno 17370 bound_to 10713
  157.7507  131.0259  150.3939 LP  0  0  0  0  0  0  0  0  0  0  0  0  # atno 17371 bound_to 10713
  140.7445  133.8949  155.8302 LP  0  0  0  0  0  0  0  0  0  0  0  0  # atno 17394 bound_to 11000
  141.0051  134.1097  157.4279 LP  0  0  0  0  0  0  0  0  0  0  0  0  # atno 17395 bound_to 11000

$$$$
