AV-unprocessed.smi:261|AV-procd|sdf|1990|dock8
  -GOLD-   2262021173D 1   1.00000     0.00000
 Structure written by MMmdl.
 51 54  0  0  0  0  0  0  0  0  1 V2000
  145.7453  132.8869  162.5213 C   0  0  0  0  0  0  0  0  0  0  0  0
  146.0512  134.2481  162.7767 O   0  0  0  0  0  0  0  0  0  0  0  0
  147.4020  134.5994  162.5013 C   0  0  2  0  0  0  0  0  0  0  0  0
  147.6144  136.1192  162.4842 C   0  0  0  0  0  0  0  0  0  0  0  0
  147.1875  136.5648  161.0761 C   0  0  2  0  0  0  0  0  0  0  0  0
  145.6993  136.9735  161.0367 C   0  0  0  0  0  0  0  0  0  0  0  0
  144.7787  136.1041  161.4671 N   0  0  0  0  0  0  0  0  0  0  0  0
  145.3841  138.0792  160.6026 O   0  0  0  0  0  0  0  0  0  0  0  0
  147.5141  135.3994  160.2527 N   0  0  0  0  0  0  0  0  0  0  0  0
  147.7286  135.4208  158.9074 C   0  0  0  0  0  0  0  0  0  0  0  0
  146.7298  134.9737  158.1003 N   0  0  0  0  0  0  0  0  0  0  0  0
  146.8714  134.9697  156.7725 C   0  0  0  0  0  0  0  0  0  0  0  0
  147.9156  135.3655  156.0455 N   0  0  0  0  0  0  0  0  0  0  0  0
  148.9251  135.8178  156.8415 C   0  0  0  0  0  0  0  0  0  0  0  0
  148.9197  135.8815  158.2662 C   0  0  0  0  0  0  0  0  0  0  0  0
  150.1324  136.4043  158.7051 N   0  0  0  0  0  0  0  0  0  0  0  0
  150.8092  136.6316  157.6140 C   0  0  0  0  0  0  0  0  0  0  0  0
  150.1602  136.3005  156.4483 N   0  0  0  0  0  0  0  0  0  0  0  0
  150.6749  136.4336  155.0977 C   0  0  0  0  0  0  0  0  0  0  0  0
  150.6703  137.8907  154.5881 C   0  0  1  0  0  0  0  0  0  0  0  0
  149.4631  138.0825  153.8782 O   0  0  0  0  0  0  0  0  0  0  0  0
  150.7785  138.9576  155.7006 C   0  0  2  0  0  0  0  0  0  0  0  0
  149.5080  139.1364  156.5348 C   0  0  0  0  0  0  0  0  0  0  0  0
  149.6262  140.5521  157.0769 C   0  0  0  0  0  0  0  0  0  0  0  0
  150.6969  141.1976  156.1949 C   0  0  0  0  0  0  0  0  0  0  0  0
  150.9295  140.2598  155.1548 O   0  0  0  0  0  0  0  0  0  0  0  0
  147.7133  134.1968  161.0564 C   0  0  0  0  0  0  0  0  0  0  0  0
  148.0732  134.0936  163.1977 H   0  0  0  0  0  0  0  0  0  0  0  0
  147.7939  137.4242  160.7906 H   0  0  0  0  0  0  0  0  0  0  0  0
  144.6927  132.7059  162.7389 H   0  0  0  0  0  0  0  0  0  0  0  0
  146.3330  132.2131  163.1445 H   0  0  0  0  0  0  0  0  0  0  0  0
  145.9177  132.6347  161.4743 H   0  0  0  0  0  0  0  0  0  0  0  0
  147.0960  136.6443  163.2866 H   0  0  0  0  0  0  0  0  0  0  0  0
  148.6773  136.3286  162.6123 H   0  0  0  0  0  0  0  0  0  0  0  0
  143.8007  136.3532  161.4370 H   0  0  0  0  0  0  0  0  0  0  0  0
  145.0648  135.1987  161.8098 H   0  0  0  0  0  0  0  0  0  0  0  0
  146.0267  134.5956  156.2131 H   0  0  0  0  0  0  0  0  0  0  0  0
  151.8092  137.0398  157.6319 H   0  0  0  0  0  0  0  0  0  0  0  0
  151.6887  136.0312  155.0812 H   0  0  0  0  0  0  0  0  0  0  0  0
  150.0779  135.8014  154.4388 H   0  0  0  0  0  0  0  0  0  0  0  0
  151.4888  138.0291  153.8804 H   0  0  0  0  0  0  0  0  0  0  0  0
  149.3702  137.3838  153.2488 H   0  0  0  0  0  0  0  0  0  0  0  0
  151.6254  138.7424  156.3554 H   0  0  0  0  0  0  0  0  0  0  0  0
  148.6266  139.0640  155.8959 H   0  0  0  0  0  0  0  0  0  0  0  0
  149.4126  138.3894  157.3231 H   0  0  0  0  0  0  0  0  0  0  0  0
  148.6730  141.0770  157.0088 H   0  0  0  0  0  0  0  0  0  0  0  0
  149.9385  140.5544  158.1216 H   0  0  0  0  0  0  0  0  0  0  0  0
  150.3839  142.1600  155.7901 H   0  0  0  0  0  0  0  0  0  0  0  0
  151.6197  141.3474  156.7567 H   0  0  0  0  0  0  0  0  0  0  0  0
  148.7559  133.8864  160.9724 H   0  0  0  0  0  0  0  0  0  0  0  0
  147.0857  133.3700  160.7206 H   0  0  0  0  0  0  0  0  0  0  0  0
  1  2  1  0  0  0  0
  1 30  1  0  0  0  0
  1 31  1  0  0  0  0
  1 32  1  0  0  0  0
  2  3  1  0  0  0  0
  3 28  1  0  0  0  0
  3 27  1  0  0  0  0
  3  4  1  0  0  0  0
  4  5  1  0  0  0  0
  4 33  1  0  0  0  0
  4 34  1  0  0  0  0
  5 29  1  0  0  0  0
  5  6  1  0  0  0  0
  5  9  1  0  0  0  0
  6  7  1  0  0  0  0
  6  8  2  0  0  0  0
  7 35  1  0  0  0  0
  7 36  1  0  0  0  0
  9 10  1  0  0  0  0
  9 27  1  0  0  0  0
 10 15  1  0  0  0  0
 10 11  2  0  0  0  0
 11 12  1  0  0  0  0
 12 13  2  0  0  0  0
 12 37  1  0  0  0  0
 13 14  1  0  0  0  0
 14 18  1  0  0  0  0
 14 15  2  0  0  0  0
 15 16  1  0  0  0  0
 16 17  2  0  0  0  0
 17 18  1  0  0  0  0
 17 38  1  0  0  0  0
 18 19  1  0  0  0  0
 19 20  1  0  0  0  0
 19 39  1  0  0  0  0
 19 40  1  0  0  0  0
 20 21  1  0  0  0  0
 20 22  1  0  0  0  0
 20 41  1  0  0  0  0
 21 42  1  0  0  0  0
 22 26  1  0  0  0  0
 22 23  1  0  0  0  0
 22 43  1  0  0  0  0
 23 24  1  0  0  0  0
 23 44  1  0  0  0  0
 23 45  1  0  0  0  0
 24 25  1  0  0  0  0
 24 46  1  0  0  0  0
 24 47  1  0  0  0  0
 25 26  1  0  0  0  0
 25 48  1  0  0  0  0
 25 49  1  0  0  0  0
 27 50  1  0  0  0  0
 27 51  1  0  0  0  0
M  END
> <s_m_source_file>
AV-unprocessed.smi

> <i_m_source_file_index>
261

> <i_lp_mmshare_version>
43012

> <i_f3d_flags>
0

> <s_epik_input>
W0NIM11PW0NASF0xW0NIMl1bQ0BASF0oQyg9TylbTkgyXSlOKFtDSDJdMSljKG5bY0hdbjIpYyhjMjMpbltjSF1uM1tDSDJdW0NASF0oW09IXSlbQ0BASF00W0NIMl1bQ0gyXVtDSDJdTzQ=

> <s_epik_cmdline>
J2VwaWtfcHl0aG9uJywgJy1waCcsICc3LjAnLCAnLXRuJywgJzgnLCAnLW1hJywgJzIwMCcsICctbWV0YWxfYmluZGluZycsICctaW1hZScsICc8aW5maWxlLm1hZT4nLCAnLW9tYWUnLCAnPG91dGZpbGUubWFlPic=

> <r_lp_tautomer_probability>
1

> <r_epik_Ionization_Penalty>
0.000713824

> <r_epik_Ionization_Penalty_Charging>
0

> <r_epik_Ionization_Penalty_Neutral>
0.000713824

> <r_epik_State_Penalty>
0.000402132

> <r_epik_Charging_Adjusted_Penalty>
0.000402132

> <i_epik_Tot_Q>
0

> <i_epik_Tot_abs_Q>
0

> <r_epik_Metal_State_Penalty>
-0

> <b_epik_Metal_Only>
0

> <s_lp_Force_Field>
OPLS_2005

> <r_lp_Energy>
44.1373

> <b_lp_Chiralities_Consistent>
1

> <s_lp_Variant>
AV-unprocessed.smi:261-8

> <Gold.Version>
5.8.1

> <Gold.Id.Protein>
6NUR|6NUR_protein|mol2

> <Gold.PLP.Fitness>
44.2747

> <Gold.PLP.PLP>
-37.5419

> <Gold.PLP.part.hbond>
-4.2728

> <Gold.PLP.part.metal>
0.0000

> <Gold.PLP.part.buried>
-7.2533

> <Gold.PLP.part.nonpolar>
-26.8196

> <Gold.PLP.part.repulsive>
0.1140

> <Gold.PLP.ligand.clash>
0.0000

> <Gold.PLP.ligand.torsion>
2.2846

> <Gold.PLP.Chemscore.Hbond>
3.7200

> <Gold.PLP.Chemscore.CHOScore>
0.0000

> <Gold.PLP.Chemscore.Metal>
0.0000

> <Gold.Chemscore.Hbonds>
donor molecule, donor type, donor heavy atom, donor atom, acceptor molecule, acceptor atom, score
      L1  H    21    42       P1  7948  1.00
      P1  H  6896  6909       L1    16  0.90
      P1  H  6934  6947       L1     8  0.74
      P1  H  7989  7998       L1    26  1.00

> <Gold.PLP.Chemscore.Internal.Correction>
0.1420

> <Gold.Rescore>
     Score         DG    S(hbond)    S(metal)    S(lipo)     H(rot)  DE(clash)    DE(int)     intcor
     15.31     -17.92       3.70        0.00      70.32       3.18       0.00       2.61       ----

> <Gold.Chemscore.Fitness>
15.3131

> <Gold.Chemscore.DG>
-17.9240

> <Gold.Chemscore.ZeroCoef>
-5.4800

> <Gold.Chemscore.Hbond>
3.7021

> <Gold.Chemscore.Metal>
0.0000

> <Gold.Chemscore.Lipo>
70.3209

> <Gold.Chemscore.Internal_Hbond>
0.0000

> <Gold.Chemscore.DEClash>
0.0000

> <Gold.Chemscore.DEInternal>
2.6109

> <Gold.Chemscore.Rot>
3.1831

> <Gold.Chemscore.Internal.Correction>
   9.000000E+99

> <Gold.Chemscore.Hbonds>
donor molecule, donor type, donor heavy atom, donor atom, acceptor molecule, acceptor atom, score
      L1  H    21    42       P1  7948  0.96
      P1  H  6896  6909       L1    16  0.14
      P1  H  6934  6947       L1     8  0.16
      P1  H  7989  7998       L1    26  0.95

> <Gold.Chemscore.Hbond.Weighted>
-12.3651

> <Gold.Chemscore.Metal.Weighted>
-0.0000

> <Gold.Chemscore.Lipo.Weighted>
-8.2275

> <Gold.Chemscore.Internal_Hbond.Weighted>
0.0000

> <Gold.Chemscore.DEClash.Weighted>
0.0000

> <Gold.Chemscore.DEInternal.Weighted>
2.6109

> <Gold.Chemscore.Rot.Weighted>
8.1486

> <Gold.Chemscore.Internal.Correction.Weighted>
   9.000000E+99

> <Gold.Protein.RotatedTorsions>
[ 6907 6896 6895 6894 ] final   63.32 input  -60.11 | X-H torsion
[ 7974 7965 7964 7962 ] final  -32.91 input  175.53 | X-H torsion
[ 8008 7997 7996 7995 ] final  -55.57 input   59.86 | X-H torsion
[ 10167 10162 10161 10158 ] final  135.57 input  -65.29 | X-H torsion
[ 10718 10713 10712 10709 ] final -112.39 input   66.30 | X-H torsion
[ 10763 10752 10751 10750 ] final -139.50 input  -60.55 | X-H torsion
[ 11005 11000 10999 10996 ] final  155.83 input  -57.11 | X-H torsion

> <Gold.Protein.ActiveResidues>
 VAL166  LYS551  ARG553  GLY616  TRP617  ASP618  TYR619  PRO620  LYS621  CYS622 
 ASP623  PHE694  ASN695  SER759  ASP760  ASP761  ALA762  ILE779  LEU786  VAL792 
 PHE793  MET794  SER795  GLU796  ALA797  LYS798  CYS799  TRP800  GLU811  SER814 

> <Gold.Protein.RotatedAtoms>
  152.4244  134.5896  159.9970 H   0  0  0  0  0  0  0  0  0  0  0  0  # atno 6907 bound_to 6896
  151.6037  133.3348  159.3060 H   0  0  0  0  0  0  0  0  0  0  0  0  # atno 6908 bound_to 6896
  150.8133  134.7337  159.6772 H   0  0  0  0  0  0  0  0  0  0  0  0  # atno 6909 bound_to 6896
  146.0952  140.5851  142.8846 H   0  0  0  0  0  0  0  0  0  0  0  0  # atno 7974 bound_to 7965
  154.4199  140.1150  156.5497 H   0  0  0  0  0  0  0  0  0  0  0  0  # atno 8008 bound_to 7997
  155.6422  140.3496  155.4700 H   0  0  0  0  0  0  0  0  0  0  0  0  # atno 8009 bound_to 7997
  155.9861  140.1170  157.0671 H   0  0  0  0  0  0  0  0  0  0  0  0  # atno 8010 bound_to 7997
  139.5212  144.6510  151.5302 H   0  0  0  0  0  0  0  0  0  0  0  0  # atno 10167 bound_to 10162
  156.0703  130.5917  150.8502 H   0  0  0  0  0  0  0  0  0  0  0  0  # atno 10718 bound_to 10713
  154.8607  135.3580  154.5557 H   0  0  0  0  0  0  0  0  0  0  0  0  # atno 10763 bound_to 10752
  153.6173  135.7007  153.5328 H   0  0  0  0  0  0  0  0  0  0  0  0  # atno 10764 bound_to 10752
  153.3158  135.4165  155.1335 H   0  0  0  0  0  0  0  0  0  0  0  0  # atno 10765 bound_to 10752
  140.1618  134.8604  157.2584 H   0  0  0  0  0  0  0  0  0  0  0  0  # atno 11005 bound_to 11000
  144.7390  140.4889  143.6883 LP  0  0  0  0  0  0  0  0  0  0  0  0  # atno 17320 bound_to 7965
  145.5962  139.1499  143.3155 LP  0  0  0  0  0  0  0  0  0  0  0  0  # atno 17321 bound_to 7965
  140.6315  143.9067  150.6609 LP  0  0  0  0  0  0  0  0  0  0  0  0  # atno 17342 bound_to 10162
  140.2372  143.3691  152.1516 LP  0  0  0  0  0  0  0  0  0  0  0  0  # atno 17343 bound_to 10162
  157.5770  131.0946  150.9331 LP  0  0  0  0  0  0  0  0  0  0  0  0  # atno 17370 bound_to 10713
  156.9535  130.5428  149.5283 LP  0  0  0  0  0  0  0  0  0  0  0  0  # atno 17371 bound_to 10713
  140.2480  134.3716  155.7453 LP  0  0  0  0  0  0  0  0  0  0  0  0  # atno 17394 bound_to 11000
  141.2210  133.7301  156.8892 LP  0  0  0  0  0  0  0  0  0  0  0  0  # atno 17395 bound_to 11000

$$$$
