AV-unprocessed.smi:1721|AV-procd|sdf|6940|dock5
  -GOLD-   22720 8143D 1   1.00000     0.00000
 Structure written by MMmdl.
 44 46  0  0  0  0  0  0  0  0  2 V2000
  151.7178  138.2886  154.5156 C   0  0  0  0  0  0  0  0  0  0  0  0
  150.3301  138.1354  154.2373 O   0  0  0  0  0  0  0  0  0  0  0  0
  149.5207  139.2550  154.2779 C   0  0  0  0  0  0  0  0  0  0  0  0
  150.0829  140.4430  154.6145 N   0  0  0  0  0  0  0  0  0  0  0  0
  149.2965  141.5372  154.6569 C   0  0  0  0  0  0  0  0  0  0  0  0
  147.9203  141.5066  154.3693 C   0  0  0  0  0  0  0  0  0  0  0  0
  147.3344  140.2761  154.0192 C   0  0  0  0  0  0  0  0  0  0  0  0
  148.1467  139.1156  153.9687 C   0  0  0  0  0  0  0  0  0  0  0  0
  147.6766  137.8131  153.6325 N   0  0  0  0  0  0  0  0  0  0  0  0
  146.5034  137.2202  153.9129 C   0  0  0  0  0  0  0  0  0  0  0  0
  145.5748  137.7223  154.5444 O   0  0  0  0  0  0  0  0  0  0  0  0
  146.4611  135.9781  153.4104 N   0  0  0  0  0  0  0  0  0  0  0  0
  145.3313  135.0608  153.5310 C   0  0  1  0  0  0  0  0  0  0  0  0
  143.9701  135.7649  153.3942 C   0  0  0  0  0  0  0  0  0  0  0  0
  143.0720  134.7730  152.6286 C   0  0  0  0  0  0  0  0  0  0  0  0
  143.8962  133.5639  152.4399 N   0  3  1  0  0  0  0  0  0  0  0  0
  143.5503  132.6821  151.3039 C   0  0  0  0  0  0  0  0  0  0  0  0
  144.4622  131.4390  151.3299 C   0  0  0  0  0  0  0  0  0  0  0  0
  145.9545  131.8252  151.3785 C   0  0  0  0  0  0  0  0  0  0  0  0
  146.2356  132.8168  152.5242 C   0  0  0  0  0  0  0  0  0  0  0  0
  145.2923  134.0258  152.4035 C   0  0  2  0  0  0  0  0  0  0  0  0
  152.2090  137.3187  154.4407 H   0  0  0  0  0  0  0  0  0  0  0  0
  151.8830  138.6657  155.5260 H   0  0  0  0  0  0  0  0  0  0  0  0
  152.1978  138.9578  153.8003 H   0  0  0  0  0  0  0  0  0  0  0  0
  149.7785  142.4643  154.9299 H   0  0  0  0  0  0  0  0  0  0  0  0
  147.3260  142.4072  154.4170 H   0  0  0  0  0  0  0  0  0  0  0  0
  146.2791  140.2605  153.8025 H   0  0  0  0  0  0  0  0  0  0  0  0
  148.3280  137.2591  153.0954 H   0  0  0  0  0  0  0  0  0  0  0  0
  147.2682  135.6443  152.9038 H   0  0  0  0  0  0  0  0  0  0  0  0
  145.3550  134.5475  154.4948 H   0  0  0  0  0  0  0  0  0  0  0  0
  143.5572  136.0161  154.3717 H   0  0  0  0  0  0  0  0  0  0  0  0
  144.0576  136.6934  152.8276 H   0  0  0  0  0  0  0  0  0  0  0  0
  142.1587  134.5342  153.1739 H   0  0  0  0  0  0  0  0  0  0  0  0
  142.7901  135.1924  151.6615 H   0  0  0  0  0  0  0  0  0  0  0  0
  142.5042  132.3832  151.3774 H   0  0  0  0  0  0  0  0  0  0  0  0
  143.6674  133.2230  150.3635 H   0  0  0  0  0  0  0  0  0  0  0  0
  144.2204  130.8335  152.2045 H   0  0  0  0  0  0  0  0  0  0  0  0
  144.2661  130.8127  150.4592 H   0  0  0  0  0  0  0  0  0  0  0  0
  146.5704  130.9330  151.4947 H   0  0  0  0  0  0  0  0  0  0  0  0
  146.2424  132.2780  150.4288 H   0  0  0  0  0  0  0  0  0  0  0  0
  146.0943  132.3234  153.4868 H   0  0  0  0  0  0  0  0  0  0  0  0
  147.2760  133.1398  152.4861 H   0  0  0  0  0  0  0  0  0  0  0  0
  145.4676  134.5285  151.4493 H   0  0  0  0  0  0  0  0  0  0  0  0
  143.7999  133.0178  153.2843 H   0  0  0  0  0  0  0  0  0  0  0  0
  1  2  1  0  0  0  0
  1 22  1  0  0  0  0
  1 23  1  0  0  0  0
  1 24  1  0  0  0  0
  2  3  1  0  0  0  0
  3  8  1  0  0  0  0
  3  4  2  0  0  0  0
  4  5  1  0  0  0  0
  5  6  2  0  0  0  0
  5 25  1  0  0  0  0
  6  7  1  0  0  0  0
  6 26  1  0  0  0  0
  7  8  2  0  0  0  0
  7 27  1  0  0  0  0
  8  9  1  0  0  0  0
  9 10  1  0  0  0  0
  9 28  1  0  0  0  0
 10 11  2  0  0  0  0
 10 12  1  0  0  0  0
 12 13  1  0  0  0  0
 12 29  1  0  0  0  0
 13 21  1  0  0  0  0
 13 14  1  0  0  0  0
 13 30  1  0  0  0  0
 14 15  1  0  0  0  0
 14 31  1  0  0  0  0
 14 32  1  0  0  0  0
 15 16  1  0  0  0  0
 15 33  1  0  0  0  0
 15 34  1  0  0  0  0
 16 21  1  0  0  0  0
 16 17  1  0  0  0  0
 16 44  1  0  0  0  0
 17 18  1  0  0  0  0
 17 35  1  0  0  0  0
 17 36  1  0  0  0  0
 18 19  1  0  0  0  0
 18 37  1  0  0  0  0
 18 38  1  0  0  0  0
 19 20  1  0  0  0  0
 19 39  1  0  0  0  0
 19 40  1  0  0  0  0
 20 21  1  0  0  0  0
 20 41  1  0  0  0  0
 20 42  1  0  0  0  0
 21 43  1  0  0  0  0
M  CHG  1  16   1
M  END
> <s_m_source_file>
AV-unprocessed.smi

> <i_m_source_file_index>
1721

> <i_lp_mmshare_version>
43012

> <i_f3d_flags>
0

> <s_epik_input>
W0NIM11PYzFuW2NIXVtjSF1bY0hdYzFbTkhdQyg9TylbTkhdW0NASF0oW0NIMl1bQ0gyXTIpW0NAQEhdKE4yMylbQ0gyXVtDSDJdW0NIMl1bQ0gyXTM=

> <s_epik_cmdline>
J2VwaWtfcHl0aG9uJywgJy1waCcsICc3LjAnLCAnLXRuJywgJzgnLCAnLW1hJywgJzIwMCcsICctbWV0YWxfYmluZGluZycsICctaW1hZScsICc8aW5maWxlLm1hZT4nLCAnLW9tYWUnLCAnPG91dGZpbGUubWFlPic=

> <r_lp_tautomer_probability>
1

> <r_epik_Ionization_Penalty>
0.00104793

> <r_epik_Ionization_Penalty_Charging>
0.000974069

> <r_epik_Ionization_Penalty_Neutral>
7.38649e-05

> <r_epik_State_Penalty>
0.000633842

> <r_epik_Charging_Adjusted_Penalty>
0.00160791

> <i_epik_Tot_Q>
1

> <i_epik_Tot_abs_Q>
1

> <r_epik_Metal_State_Penalty>
-0

> <b_epik_Metal_Only>
0

> <s_lp_Force_Field>
OPLS_2005

> <r_lp_Energy>
37.3569

> <b_lp_Chiralities_Consistent>
1

> <s_lp_Variant>
AV-unprocessed.smi:1721-6

> <Gold.Version>
5.8.1

> <Gold.Id.Protein>
6NUR|6NUR_protein|mol2

> <Gold.PLP.Fitness>
46.6566

> <Gold.PLP.PLP>
-33.9320

> <Gold.PLP.part.hbond>
-3.3898

> <Gold.PLP.part.metal>
0.0000

> <Gold.PLP.part.buried>
-6.5972

> <Gold.PLP.part.nonpolar>
-25.9959

> <Gold.PLP.part.repulsive>
0.4292

> <Gold.PLP.ligand.clash>
0.0000

> <Gold.PLP.ligand.torsion>
0.5896

> <Gold.PLP.Chemscore.Hbond>
3.6309

> <Gold.PLP.Chemscore.CHOScore>
1.0000

> <Gold.PLP.Chemscore.Metal>
0.0000

> <Gold.Chemscore.Hbonds>
donor molecule, donor type, donor heavy atom, donor atom, acceptor molecule, acceptor atom, score
      L1  H     9    28       P1  7948  1.00
      L1  H    12    29       P1  7948  0.84
      L1  H    16    44       P1 10957  0.91
      P1  H  7989  7998       L1     4  0.93
      L1  C     5    25       P1  8028  1.00

> <Gold.PLP.Chemscore.Internal.Correction>
0.0113

> <Gold.Rescore>
     Score         DG    S(hbond)    S(metal)    S(lipo)     H(rot)  DE(clash)    DE(int)     intcor
     19.15     -21.13       2.99        0.00      75.68       1.25       0.27       1.71       ----

> <Gold.Chemscore.Fitness>
19.1471

> <Gold.Chemscore.DG>
-21.1277

> <Gold.Chemscore.ZeroCoef>
-5.4800

> <Gold.Chemscore.Hbond>
2.9902

> <Gold.Chemscore.Metal>
0.0000

> <Gold.Chemscore.Lipo>
75.6753

> <Gold.Chemscore.Internal_Hbond>
0.0000

> <Gold.Chemscore.DEClash>
0.2700

> <Gold.Chemscore.DEInternal>
1.7106

> <Gold.Chemscore.Rot>
1.2474

> <Gold.Chemscore.Internal.Correction>
   9.000000E+99

> <Gold.Chemscore.Hbonds>
donor molecule, donor type, donor heavy atom, donor atom, acceptor molecule, acceptor atom, score
      L1  H     9    28       P1  7948  1.00
      L1  H    12    29       P1  7948  0.79
      L1  H    16    44       P1 10957  0.33
      P1  H  7989  7998       L1     4  0.45

> <Gold.Chemscore.Hbond.Weighted>
-9.9871

> <Gold.Chemscore.Metal.Weighted>
-0.0000

> <Gold.Chemscore.Lipo.Weighted>
-8.8540

> <Gold.Chemscore.Internal_Hbond.Weighted>
0.0000

> <Gold.Chemscore.DEClash.Weighted>
0.2700

> <Gold.Chemscore.DEInternal.Weighted>
1.7106

> <Gold.Chemscore.Rot.Weighted>
3.1934

> <Gold.Chemscore.Internal.Correction.Weighted>
   9.000000E+99

> <Gold.Protein.RotatedTorsions>
[ 6907 6896 6895 6894 ] final  167.93 input  -60.11 | X-H torsion
[ 7974 7965 7964 7962 ] final -126.19 input  175.53 | X-H torsion
[ 8008 7997 7996 7995 ] final   58.87 input   59.86 | X-H torsion
[ 10167 10162 10161 10158 ] final -150.63 input  -65.29 | X-H torsion
[ 10718 10713 10712 10709 ] final   83.10 input   66.30 | X-H torsion
[ 10763 10752 10751 10750 ] final  -38.09 input  -60.55 | X-H torsion
[ 11005 11000 10999 10996 ] final  -31.98 input  -57.11 | X-H torsion

> <Gold.Protein.ActiveResidues>
 VAL166  LYS551  ARG553  GLY616  TRP617  ASP618  TYR619  PRO620  LYS621  CYS622 
 ASP623  PHE694  ASN695  SER759  ASP760  ASP761  ALA762  ILE779  LEU786  VAL792 
 PHE793  MET794  SER795  GLU796  ALA797  LYS798  CYS799  TRP800  GLU811  SER814 

> <Gold.Protein.RotatedAtoms>
  151.8556  133.3447  159.3686 H   0  0  0  0  0  0  0  0  0  0  0  0  # atno 6907 bound_to 6896
  150.7194  134.5257  159.5685 H   0  0  0  0  0  0  0  0  0  0  0  0  # atno 6908 bound_to 6896
  152.2759  134.7882  160.0456 H   0  0  0  0  0  0  0  0  0  0  0  0  # atno 6909 bound_to 6896
  144.9898  140.7721  143.4561 H   0  0  0  0  0  0  0  0  0  0  0  0  # atno 7974 bound_to 7965
  155.5571  140.3487  155.4482 H   0  0  0  0  0  0  0  0  0  0  0  0  # atno 8008 bound_to 7997
  156.0541  140.1324  157.0042 H   0  0  0  0  0  0  0  0  0  0  0  0  # atno 8009 bound_to 7997
  154.4448  140.0998  156.6405 H   0  0  0  0  0  0  0  0  0  0  0  0  # atno 8010 bound_to 7997
  139.7337  143.8768  152.2542 H   0  0  0  0  0  0  0  0  0  0  0  0  # atno 10167 bound_to 10162
  157.6872  131.0076  150.2474 H   0  0  0  0  0  0  0  0  0  0  0  0  # atno 10718 bound_to 10713
  153.9071  135.6796  153.4752 H   0  0  0  0  0  0  0  0  0  0  0  0  # atno 10763 bound_to 10752
  153.1098  135.4788  154.9013 H   0  0  0  0  0  0  0  0  0  0  0  0  # atno 10764 bound_to 10752
  154.7546  135.3194  154.8449 H   0  0  0  0  0  0  0  0  0  0  0  0  # atno 10765 bound_to 10752
  140.9513  133.7219  156.1225 H   0  0  0  0  0  0  0  0  0  0  0  0  # atno 11005 bound_to 11000
  145.2302  139.2118  143.5047 LP  0  0  0  0  0  0  0  0  0  0  0  0  # atno 17320 bound_to 7965
  146.3428  140.2177  142.8591 LP  0  0  0  0  0  0  0  0  0  0  0  0  # atno 17321 bound_to 7965
  139.8698  144.7074  150.9000 LP  0  0  0  0  0  0  0  0  0  0  0  0  # atno 17342 bound_to 10162
  140.7775  143.3747  151.1584 LP  0  0  0  0  0  0  0  0  0  0  0  0  # atno 17343 bound_to 10162
  156.3077  130.3767  149.7691 LP  0  0  0  0  0  0  0  0  0  0  0  0  # atno 17370 bound_to 10713
  156.5301  130.8254  151.3234 LP  0  0  0  0  0  0  0  0  0  0  0  0  # atno 17371 bound_to 10713
  140.7598  134.3952  157.5527 LP  0  0  0  0  0  0  0  0  0  0  0  0  # atno 17394 bound_to 11000
  139.8848  134.8954  156.2679 LP  0  0  0  0  0  0  0  0  0  0  0  0  # atno 17395 bound_to 11000

$$$$
