AV-unprocessed.smi:862|AV-procd|sdf|3978|dock9
  -GOLD-   22720 1453D 1   1.00000     0.00000
 Structure written by MMmdl.
 44 46  0  0  0  0  0  0  0  0  2 V2000
  149.5765  130.2102  157.0289 N   0  0  0  0  0  0  0  0  0  0  0  0
  150.1272  131.3850  156.7090 C   0  0  0  0  0  0  0  0  0  0  0  0
  150.5954  132.1209  157.5758 O   0  0  0  0  0  0  0  0  0  0  0  0
  150.1611  131.6674  155.3822 N   0  0  0  0  0  0  0  0  0  0  0  0
  149.4331  130.9493  154.3229 C   0  0  0  0  0  0  0  0  0  0  0  0
  148.2381  131.8087  153.8703 C   0  0  0  0  0  0  0  0  0  0  0  0
  148.7003  133.2081  153.4002 C   0  0  0  0  0  0  0  0  0  0  0  0
  147.5507  134.0966  153.1198 N   0  3  0  0  0  0  0  0  0  0  0  0
  146.4098  133.4847  152.3971 C   0  0  2  0  0  0  0  0  0  0  0  0
  146.7340  133.1019  150.9483 C   0  0  0  0  0  0  0  0  0  0  0  0
  145.3765  133.0494  150.2342 C   0  0  0  0  0  0  0  0  0  0  0  0
  144.3750  133.7979  151.1314 C   0  0  0  0  0  0  0  0  0  0  0  0
  145.1863  134.4133  152.2843 C   0  0  2  0  0  0  0  0  0  0  0  0
  145.5374  135.8105  152.0345 N   0  0  0  0  0  0  0  0  0  0  0  0
  145.3246  136.9201  152.8481 C   0  0  0  0  0  0  0  0  0  0  0  0
  145.7946  138.0146  152.1587 C   0  0  0  0  0  0  0  0  0  0  0  0
  146.2859  137.6115  150.9208 N   0  0  0  0  0  0  0  0  0  0  0  0
  146.1015  136.2984  150.9198 C   0  0  0  0  0  0  0  0  0  0  0  0
  149.6211  133.8629  154.4511 C   0  0  0  0  0  0  0  0  0  0  0  0
  150.7536  132.9087  154.8702 C   0  0  0  0  0  0  0  0  0  0  0  0
  149.5292  129.9290  157.9977 H   0  0  0  0  0  0  0  0  0  0  0  0
  149.2220  129.6034  156.3047 H   0  0  0  0  0  0  0  0  0  0  0  0
  150.1059  130.7753  153.4821 H   0  0  0  0  0  0  0  0  0  0  0  0
  149.0832  129.9609  154.6206 H   0  0  0  0  0  0  0  0  0  0  0  0
  147.7072  131.2903  153.0721 H   0  0  0  0  0  0  0  0  0  0  0  0
  147.5332  131.9092  154.6972 H   0  0  0  0  0  0  0  0  0  0  0  0
  149.2849  133.0924  152.4869 H   0  0  0  0  0  0  0  0  0  0  0  0
  147.2185  134.4620  154.0009 H   0  0  0  0  0  0  0  0  0  0  0  0
  146.0881  132.5883  152.9279 H   0  0  0  0  0  0  0  0  0  0  0  0
  147.3614  133.8655  150.4868 H   0  0  0  0  0  0  0  0  0  0  0  0
  147.2689  132.1544  150.8768 H   0  0  0  0  0  0  0  0  0  0  0  0
  145.4425  133.5024  149.2444 H   0  0  0  0  0  0  0  0  0  0  0  0
  145.0539  132.0168  150.0951 H   0  0  0  0  0  0  0  0  0  0  0  0
  143.7939  134.5375  150.5792 H   0  0  0  0  0  0  0  0  0  0  0  0
  143.6610  133.0808  151.5383 H   0  0  0  0  0  0  0  0  0  0  0  0
  144.6037  134.3834  153.2066 H   0  0  0  0  0  0  0  0  0  0  0  0
  144.8727  136.8490  153.8260 H   0  0  0  0  0  0  0  0  0  0  0  0
  145.8111  139.0534  152.4539 H   0  0  0  0  0  0  0  0  0  0  0  0
  146.3764  135.6762  150.0807 H   0  0  0  0  0  0  0  0  0  0  0  0
  150.0441  134.7867  154.0542 H   0  0  0  0  0  0  0  0  0  0  0  0
  149.0419  134.1417  155.3330 H   0  0  0  0  0  0  0  0  0  0  0  0
  151.4032  133.3952  155.5993 H   0  0  0  0  0  0  0  0  0  0  0  0
  151.3906  132.6809  154.0143 H   0  0  0  0  0  0  0  0  0  0  0  0
  147.8794  134.8715  152.5611 H   0  0  0  0  0  0  0  0  0  0  0  0
  1  2  1  0  0  0  0
  1 21  1  0  0  0  0
  1 22  1  0  0  0  0
  2  3  2  0  0  0  0
  2  4  1  0  0  0  0
  4 20  1  0  0  0  0
  4  5  1  0  0  0  0
  5  6  1  0  0  0  0
  5 23  1  0  0  0  0
  5 24  1  0  0  0  0
  6  7  1  0  0  0  0
  6 25  1  0  0  0  0
  6 26  1  0  0  0  0
  7  8  1  0  0  0  0
  7 19  1  0  0  0  0
  7 27  1  0  0  0  0
  8  9  1  0  0  0  0
  8 28  1  0  0  0  0
  8 44  1  0  0  0  0
  9 13  1  0  0  0  0
  9 10  1  0  0  0  0
  9 29  1  0  0  0  0
 10 11  1  0  0  0  0
 10 30  1  0  0  0  0
 10 31  1  0  0  0  0
 11 12  1  0  0  0  0
 11 32  1  0  0  0  0
 11 33  1  0  0  0  0
 12 13  1  0  0  0  0
 12 34  1  0  0  0  0
 12 35  1  0  0  0  0
 13 14  1  0  0  0  0
 13 36  1  0  0  0  0
 14 18  1  0  0  0  0
 14 15  1  0  0  0  0
 15 16  2  0  0  0  0
 15 37  1  0  0  0  0
 16 17  1  0  0  0  0
 16 38  1  0  0  0  0
 17 18  2  0  0  0  0
 18 39  1  0  0  0  0
 19 20  1  0  0  0  0
 19 40  1  0  0  0  0
 19 41  1  0  0  0  0
 20 42  1  0  0  0  0
 20 43  1  0  0  0  0
M  CHG  1   8   1
M  END
> <s_m_source_file>
AV-unprocessed.smi

> <i_m_source_file_index>
862

> <i_lp_mmshare_version>
43012

> <i_f3d_flags>
0

> <s_epik_input>
W05IMl1DKD1PKU4xW0NIMl1bQ0gyXVtDSF0oW0NIMl1bQ0gyXTEpW05IXVtDQEBIXTJbQ0gyXVtDSDJdW0NIMl1bQ0BIXTJuM1tjSF1bY0hdbltjSF0z

> <s_epik_cmdline>
J2VwaWtfcHl0aG9uJywgJy1waCcsICc3LjAnLCAnLXRuJywgJzgnLCAnLW1hJywgJzIwMCcsICctbWV0YWxfYmluZGluZycsICctaW1hZScsICc8aW5maWxlLm1hZT4nLCAnLW9tYWUnLCAnPG91dGZpbGUubWFlPic=

> <r_lp_tautomer_probability>
1

> <r_epik_Ionization_Penalty>
0.0731506

> <r_epik_Ionization_Penalty_Charging>
0.0731

> <r_epik_Ionization_Penalty_Neutral>
5.05966e-05

> <r_epik_State_Penalty>
0.128895

> <r_epik_Charging_Adjusted_Penalty>
0.201995

> <i_epik_Tot_Q>
1

> <i_epik_Tot_abs_Q>
1

> <r_epik_Metal_State_Penalty>
0.113934

> <b_epik_Metal_Only>
0

> <s_lp_Force_Field>
OPLS_2005

> <r_lp_Energy>
57.2527

> <b_lp_Chiralities_Consistent>
1

> <s_lp_Variant>
AV-unprocessed.smi:862-3

> <Gold.Version>
5.8.1

> <Gold.Id.Protein>
6NUR|6NUR_protein|mol2

> <Gold.PLP.Fitness>
44.0004

> <Gold.PLP.PLP>
-27.0248

> <Gold.PLP.part.hbond>
-3.0000

> <Gold.PLP.part.metal>
0.0000

> <Gold.PLP.part.buried>
-0.0419

> <Gold.PLP.part.nonpolar>
-27.3644

> <Gold.PLP.part.repulsive>
2.5488

> <Gold.PLP.ligand.clash>
0.0000

> <Gold.PLP.ligand.torsion>
0.2944

> <Gold.PLP.Chemscore.Hbond>
4.0000

> <Gold.PLP.Chemscore.CHOScore>
1.8341

> <Gold.PLP.Chemscore.Metal>
0.0000

> <Gold.Chemscore.Hbonds>
donor molecule, donor type, donor heavy atom, donor atom, acceptor molecule, acceptor atom, score
      L1  H     8    44       P1  7948  2.00
      P1  H  6896  6909       L1     3  0.65
      P1  H  7954  7966       L1    17  0.70
      L1  C    16    38       P1 10175  0.78
      L1  C    18    39       P1  7921  0.86

> <Gold.PLP.Chemscore.Internal.Correction>
0.0620

> <Gold.Rescore>
     Score         DG    S(hbond)    S(metal)    S(lipo)     H(rot)  DE(clash)    DE(int)     intcor
     15.51     -17.86       2.55        0.00      68.84       1.64       1.88       0.47       ----

> <Gold.Chemscore.Fitness>
15.5150

> <Gold.Chemscore.DG>
-17.8626

> <Gold.Chemscore.ZeroCoef>
-5.4800

> <Gold.Chemscore.Hbond>
2.5539

> <Gold.Chemscore.Metal>
0.0000

> <Gold.Chemscore.Lipo>
68.8366

> <Gold.Chemscore.Internal_Hbond>
0.0000

> <Gold.Chemscore.DEClash>
1.8774

> <Gold.Chemscore.DEInternal>
0.4702

> <Gold.Chemscore.Rot>
1.6411

> <Gold.Chemscore.Internal.Correction>
   9.000000E+99

> <Gold.Chemscore.Hbonds>
donor molecule, donor type, donor heavy atom, donor atom, acceptor molecule, acceptor atom, score
      L1  H     8    44       P1  7948  0.88
      P1  H  6896  6909       L1     3  0.65
      P1  H  7954  7966       L1    17  0.30

> <Gold.Chemscore.Hbond.Weighted>
-8.5301

> <Gold.Chemscore.Metal.Weighted>
-0.0000

> <Gold.Chemscore.Lipo.Weighted>
-8.0539

> <Gold.Chemscore.Internal_Hbond.Weighted>
0.0000

> <Gold.Chemscore.DEClash.Weighted>
1.8774

> <Gold.Chemscore.DEInternal.Weighted>
0.4702

> <Gold.Chemscore.Rot.Weighted>
4.2013

> <Gold.Chemscore.Internal.Correction.Weighted>
   9.000000E+99

> <Gold.Protein.RotatedTorsions>
[ 6907 6896 6895 6894 ] final  -27.55 input  -60.11 | X-H torsion
[ 7974 7965 7964 7962 ] final  -12.18 input  175.53 | X-H torsion
[ 8008 7997 7996 7995 ] final   85.97 input   59.86 | X-H torsion
[ 10167 10162 10161 10158 ] final  140.66 input  -65.29 | X-H torsion
[ 10718 10713 10712 10709 ] final   72.14 input   66.30 | X-H torsion
[ 10763 10752 10751 10750 ] final   67.58 input  -60.55 | X-H torsion
[ 11005 11000 10999 10996 ] final   -4.94 input  -57.11 | X-H torsion

> <Gold.Protein.ActiveResidues>
 VAL166  LYS551  ARG553  GLY616  TRP617  ASP618  TYR619  PRO620  LYS621  CYS622 
 ASP623  PHE694  ASN695  SER759  ASP760  ASP761  ALA762  ILE779  LEU786  VAL792 
 PHE793  MET794  SER795  GLU796  ALA797  LYS798  CYS799  TRP800  GLU811  SER814 

> <Gold.Protein.RotatedAtoms>
  151.1454  135.0200  159.8643 H   0  0  0  0  0  0  0  0  0  0  0  0  # atno 6907 bound_to 6896
  152.5453  134.1451  159.8505 H   0  0  0  0  0  0  0  0  0  0  0  0  # atno 6908 bound_to 6896
  151.1530  133.4849  159.2628 H   0  0  0  0  0  0  0  0  0  0  0  0  # atno 6909 bound_to 6896
  146.2161  140.3020  142.8376 H   0  0  0  0  0  0  0  0  0  0  0  0  # atno 7974 bound_to 7965
  155.9568  140.3396  155.6456 H   0  0  0  0  0  0  0  0  0  0  0  0  # atno 8008 bound_to 7997
  155.6849  140.0742  157.2489 H   0  0  0  0  0  0  0  0  0  0  0  0  # atno 8009 bound_to 7997
  154.4134  140.1667  156.2010 H   0  0  0  0  0  0  0  0  0  0  0  0  # atno 8010 bound_to 7997
  139.5042  144.6220  151.6027 H   0  0  0  0  0  0  0  0  0  0  0  0  # atno 10167 bound_to 10162
  157.6486  130.9564  150.0887 H   0  0  0  0  0  0  0  0  0  0  0  0  # atno 10718 bound_to 10713
  153.0193  135.5278  154.7002 H   0  0  0  0  0  0  0  0  0  0  0  0  # atno 10763 bound_to 10752
  154.6113  135.2878  155.0431 H   0  0  0  0  0  0  0  0  0  0  0  0  # atno 10764 bound_to 10752
  154.1452  135.6572  153.5003 H   0  0  0  0  0  0  0  0  0  0  0  0  # atno 10765 bound_to 10752
  140.6858  133.9114  155.8585 H   0  0  0  0  0  0  0  0  0  0  0  0  # atno 11005 bound_to 11000
  144.9050  140.7689  143.5843 LP  0  0  0  0  0  0  0  0  0  0  0  0  # atno 17320 bound_to 7965
  145.2948  139.1871  143.4721 LP  0  0  0  0  0  0  0  0  0  0  0  0  # atno 17321 bound_to 7965
  140.5926  143.9753  150.6334 LP  0  0  0  0  0  0  0  0  0  0  0  0  # atno 17342 bound_to 10162
  140.2938  143.3306  152.1037 LP  0  0  0  0  0  0  0  0  0  0  0  0  # atno 17343 bound_to 10162
  156.1842  130.3651  149.8994 LP  0  0  0  0  0  0  0  0  0  0  0  0  # atno 17370 bound_to 10713
  156.6939  130.8906  151.3591 LP  0  0  0  0  0  0  0  0  0  0  0  0  # atno 17371 bound_to 10713
  141.0281  134.0794  157.4045 LP  0  0  0  0  0  0  0  0  0  0  0  0  # atno 17394 bound_to 11000
  139.8938  135.0132  156.6918 LP  0  0  0  0  0  0  0  0  0  0  0  0  # atno 17395 bound_to 11000

$$$$
