AV-unprocessed.smi:2082|AV-procd|sdf|8489|dock4
  -GOLD-   2272011193D 1   1.00000     0.00000
 Structure written by MMmdl.
 39 40  0  0  0  0  0  0  0  0  1 V2000
  156.0596  144.4004  168.2282 C   0  0  0  0  0  0  0  0  0  0  0  0
  154.8827  143.6905  167.8852 O   0  0  0  0  0  0  0  0  0  0  0  0
  155.1522  142.5330  167.1117 C   0  0  0  0  0  0  0  0  0  0  0  0
  155.8367  142.9501  165.8069 C   0  0  0  0  0  0  0  0  0  0  0  0
  155.7651  141.8650  164.8869 O   0  0  0  0  0  0  0  0  0  0  0  0
  154.8725  141.9463  163.8383 C   0  0  0  0  0  0  0  0  0  0  0  0
  153.8784  142.9442  163.8769 C   0  0  0  0  0  0  0  0  0  0  0  0
  152.9619  143.0349  162.8118 C   0  0  0  0  0  0  0  0  0  0  0  0
  153.0646  142.1142  161.7420 C   0  0  0  0  0  0  0  0  0  0  0  0
  152.2186  142.1162  160.6008 N   0  0  0  0  0  0  0  0  0  0  0  0
  152.0787  141.1712  159.6498 C   0  0  0  0  0  0  0  0  0  0  0  0
  152.7624  140.1477  159.6154 O   0  0  0  0  0  0  0  0  0  0  0  0
  151.1531  141.4669  158.6998 N   0  0  0  0  0  0  0  0  0  0  0  0
  150.4838  142.7656  158.5300 C   0  0  0  0  0  0  0  0  0  0  0  0
  151.0074  143.4102  157.2349 C   0  0  0  0  0  0  0  0  0  0  0  0
  151.0213  142.4649  156.1171 N   0  0  0  0  0  0  0  0  0  0  0  0
  150.9293  141.1265  156.2294 C   0  0  0  0  0  0  0  0  0  0  0  0
  150.9351  140.3952  155.2420 O   0  0  0  0  0  0  0  0  0  0  0  0
  150.8139  140.5069  157.6360 C   0  0  0  0  0  0  0  0  0  0  0  0
  154.1041  141.1628  161.7918 C   0  0  0  0  0  0  0  0  0  0  0  0
  154.9850  141.0698  162.8099 N   0  0  0  0  0  0  0  0  0  0  0  0
  155.7983  145.2800  168.8166 H   0  0  0  0  0  0  0  0  0  0  0  0
  156.5925  144.7368  167.3379 H   0  0  0  0  0  0  0  0  0  0  0  0
  156.7312  143.7832  168.8264 H   0  0  0  0  0  0  0  0  0  0  0  0
  155.8129  141.8723  167.6748 H   0  0  0  0  0  0  0  0  0  0  0  0
  154.2361  141.9791  166.9006 H   0  0  0  0  0  0  0  0  0  0  0  0
  155.3641  143.8475  165.4037 H   0  0  0  0  0  0  0  0  0  0  0  0
  156.8829  143.1839  166.0104 H   0  0  0  0  0  0  0  0  0  0  0  0
  153.8230  143.6325  164.7071 H   0  0  0  0  0  0  0  0  0  0  0  0
  152.2143  143.8126  162.8300 H   0  0  0  0  0  0  0  0  0  0  0  0
  151.6824  142.9604  160.4621 H   0  0  0  0  0  0  0  0  0  0  0  0
  149.4110  142.5865  158.4410 H   0  0  0  0  0  0  0  0  0  0  0  0
  150.5895  143.4532  159.3693 H   0  0  0  0  0  0  0  0  0  0  0  0
  150.3984  144.2740  156.9680 H   0  0  0  0  0  0  0  0  0  0  0  0
  152.0246  143.7735  157.3852 H   0  0  0  0  0  0  0  0  0  0  0  0
  151.1015  142.8554  155.1893 H   0  0  0  0  0  0  0  0  0  0  0  0
  151.4330  139.6088  157.6553 H   0  0  0  0  0  0  0  0  0  0  0  0
  149.7866  140.1721  157.7835 H   0  0  0  0  0  0  0  0  0  0  0  0
  154.2323  140.4485  160.9916 H   0  0  0  0  0  0  0  0  0  0  0  0
  1  2  1  0  0  0  0
  1 22  1  0  0  0  0
  1 23  1  0  0  0  0
  1 24  1  0  0  0  0
  2  3  1  0  0  0  0
  3  4  1  0  0  0  0
  3 25  1  0  0  0  0
  3 26  1  0  0  0  0
  4  5  1  0  0  0  0
  4 27  1  0  0  0  0
  4 28  1  0  0  0  0
  5  6  1  0  0  0  0
  6 21  1  0  0  0  0
  6  7  2  0  0  0  0
  7  8  1  0  0  0  0
  7 29  1  0  0  0  0
  8  9  2  0  0  0  0
  8 30  1  0  0  0  0
  9 10  1  0  0  0  0
  9 20  1  0  0  0  0
 10 11  1  0  0  0  0
 10 31  1  0  0  0  0
 11 12  2  0  0  0  0
 11 13  1  0  0  0  0
 13 19  1  0  0  0  0
 13 14  1  0  0  0  0
 14 15  1  0  0  0  0
 14 32  1  0  0  0  0
 14 33  1  0  0  0  0
 15 16  1  0  0  0  0
 15 34  1  0  0  0  0
 15 35  1  0  0  0  0
 16 17  1  0  0  0  0
 16 36  1  0  0  0  0
 17 18  2  0  0  0  0
 17 19  1  0  0  0  0
 19 37  1  0  0  0  0
 19 38  1  0  0  0  0
 20 21  2  0  0  0  0
 20 39  1  0  0  0  0
M  END
> <s_m_source_file>
AV-unprocessed.smi

> <i_m_source_file_index>
2082

> <i_lp_mmshare_version>
43012

> <i_f3d_flags>
0

> <s_epik_input>
W0NIM11PW0NIMl1bQ0gyXU9jMVtjSF1bY0hdYyhbY0hdbjEpW05IXUMoPU8pTjJbQ0gyXVtDSDJdW05IXUMoPU8pW0NIMl0y

> <s_epik_cmdline>
J2VwaWtfcHl0aG9uJywgJy1waCcsICc3LjAnLCAnLXRuJywgJzgnLCAnLW1hJywgJzIwMCcsICctbWV0YWxfYmluZGluZycsICctaW1hZScsICc8aW5maWxlLm1hZT4nLCAnLW9tYWUnLCAnPG91dGZpbGUubWFlPic=

> <r_lp_tautomer_probability>
1

> <r_epik_Ionization_Penalty>
5.92413e-05

> <r_epik_Ionization_Penalty_Charging>
0

> <r_epik_Ionization_Penalty_Neutral>
5.92413e-05

> <r_epik_State_Penalty>
-0

> <r_epik_Charging_Adjusted_Penalty>
0

> <i_epik_Tot_Q>
0

> <i_epik_Tot_abs_Q>
0

> <r_epik_Metal_State_Penalty>
-0

> <b_epik_Metal_Only>
0

> <s_lp_Force_Field>
OPLS_2005

> <r_lp_Energy>
31.1837

> <b_lp_Chiralities_Consistent>
1

> <s_lp_Variant>
AV-unprocessed.smi:2082-1

> <Gold.Version>
5.8.1

> <Gold.Id.Protein>
6NUR|6NUR_protein|mol2

> <Gold.PLP.Fitness>
41.1803

> <Gold.PLP.PLP>
-39.4099

> <Gold.PLP.part.hbond>
-3.8094

> <Gold.PLP.part.metal>
0.0000

> <Gold.PLP.part.buried>
1.3507

> <Gold.PLP.part.nonpolar>
-36.1483

> <Gold.PLP.part.repulsive>
0.4098

> <Gold.PLP.ligand.clash>
0.0162

> <Gold.PLP.ligand.torsion>
0.6198

> <Gold.PLP.Chemscore.Hbond>
0.9920

> <Gold.PLP.Chemscore.CHOScore>
0.0000

> <Gold.PLP.Chemscore.Metal>
0.0000

> <Gold.Chemscore.Hbonds>
donor molecule, donor type, donor heavy atom, donor atom, acceptor molecule, acceptor atom, score
      P1  H  7989  7998       L1    18  1.00

> <Gold.PLP.Chemscore.Internal.Correction>
0.0502

> <Gold.Rescore>
     Score         DG    S(hbond)    S(metal)    S(lipo)     H(rot)  DE(clash)    DE(int)     intcor
      9.41     -14.37       0.92        0.00      89.40       1.81       3.03       1.93       ----

> <Gold.Chemscore.Fitness>
9.4061

> <Gold.Chemscore.DG>
-14.3672

> <Gold.Chemscore.ZeroCoef>
-5.4800

> <Gold.Chemscore.Hbond>
0.9161

> <Gold.Chemscore.Metal>
0.0000

> <Gold.Chemscore.Lipo>
89.3996

> <Gold.Chemscore.Internal_Hbond>
0.0000

> <Gold.Chemscore.DEClash>
3.0335

> <Gold.Chemscore.DEInternal>
1.9276

> <Gold.Chemscore.Rot>
1.8095

> <Gold.Chemscore.Internal.Correction>
   9.000000E+99

> <Gold.Chemscore.Hbonds>
donor molecule, donor type, donor heavy atom, donor atom, acceptor molecule, acceptor atom, score
      P1  H  7989  7998       L1    18  0.95

> <Gold.Chemscore.Hbond.Weighted>
-3.0597

> <Gold.Chemscore.Metal.Weighted>
-0.0000

> <Gold.Chemscore.Lipo.Weighted>
-10.4598

> <Gold.Chemscore.Internal_Hbond.Weighted>
0.0000

> <Gold.Chemscore.DEClash.Weighted>
3.0335

> <Gold.Chemscore.DEInternal.Weighted>
1.9276

> <Gold.Chemscore.Rot.Weighted>
4.6322

> <Gold.Chemscore.Internal.Correction.Weighted>
   9.000000E+99

> <Gold.Protein.RotatedTorsions>
[ 6907 6896 6895 6894 ] final   80.93 input  -60.11 | X-H torsion
[ 7974 7965 7964 7962 ] final  -63.97 input  175.53 | X-H torsion
[ 8008 7997 7996 7995 ] final   72.77 input   59.86 | X-H torsion
[ 10167 10162 10161 10158 ] final -123.35 input  -65.29 | X-H torsion
[ 10718 10713 10712 10709 ] final  113.38 input   66.30 | X-H torsion
[ 10763 10752 10751 10750 ] final  157.90 input  -60.55 | X-H torsion
[ 11005 11000 10999 10996 ] final  129.48 input  -57.11 | X-H torsion

> <Gold.Protein.ActiveResidues>
 VAL166  LYS551  ARG553  GLY616  TRP617  ASP618  TYR619  PRO620  LYS621  CYS622 
 ASP623  PHE694  ASN695  SER759  ASP760  ASP761  ALA762  ILE779  LEU786  VAL792 
 PHE793  MET794  SER795  GLU796  ALA797  LYS798  CYS799  TRP800  GLU811  SER814 

> <Gold.Protein.RotatedAtoms>
  152.5251  134.3283  159.9173 H   0  0  0  0  0  0  0  0  0  0  0  0  # atno 6907 bound_to 6896
  151.3232  133.4025  159.2664 H   0  0  0  0  0  0  0  0  0  0  0  0  # atno 6908 bound_to 6896
  150.9942  134.9287  159.7974 H   0  0  0  0  0  0  0  0  0  0  0  0  # atno 6909 bound_to 6896
  145.7725  140.8805  143.0373 H   0  0  0  0  0  0  0  0  0  0  0  0  # atno 7974 bound_to 7965
  155.7738  140.3483  155.5261 H   0  0  0  0  0  0  0  0  0  0  0  0  # atno 8008 bound_to 7997
  155.8795  140.1000  157.1515 H   0  0  0  0  0  0  0  0  0  0  0  0  # atno 8009 bound_to 7997
  154.4023  140.1325  156.4166 H   0  0  0  0  0  0  0  0  0  0  0  0  # atno 8010 bound_to 7997
  140.0045  143.5506  152.2289 H   0  0  0  0  0  0  0  0  0  0  0  0  # atno 10167 bound_to 10162
  157.6341  131.0982  150.7032 H   0  0  0  0  0  0  0  0  0  0  0  0  # atno 10718 bound_to 10713
  154.2076  135.2787  155.2969 H   0  0  0  0  0  0  0  0  0  0  0  0  # atno 10763 bound_to 10752
  154.5804  135.5591  153.7184 H   0  0  0  0  0  0  0  0  0  0  0  0  # atno 10764 bound_to 10752
  153.0072  135.6343  154.2214 H   0  0  0  0  0  0  0  0  0  0  0  0  # atno 10765 bound_to 10752
  139.9618  134.9600  156.9154 H   0  0  0  0  0  0  0  0  0  0  0  0  # atno 11005 bound_to 11000
  144.6810  139.9875  143.7484 LP  0  0  0  0  0  0  0  0  0  0  0  0  # atno 17320 bound_to 7965
  146.0156  139.3206  143.0844 LP  0  0  0  0  0  0  0  0  0  0  0  0  # atno 17321 bound_to 7965
  139.6248  144.7635  151.2661 LP  0  0  0  0  0  0  0  0  0  0  0  0  # atno 17342 bound_to 10162
  140.7406  143.6583  150.8187 LP  0  0  0  0  0  0  0  0  0  0  0  0  # atno 17343 bound_to 10162
  156.7366  130.4726  149.5487 LP  0  0  0  0  0  0  0  0  0  0  0  0  # atno 17370 bound_to 10713
  156.1567  130.6346  151.0666 LP  0  0  0  0  0  0  0  0  0  0  0  0  # atno 17371 bound_to 10713
  140.5484  134.0651  155.7362 LP  0  0  0  0  0  0  0  0  0  0  0  0  # atno 17394 bound_to 11000
  141.1295  133.9326  157.2565 LP  0  0  0  0  0  0  0  0  0  0  0  0  # atno 17395 bound_to 11000

$$$$
