AV-unprocessed.smi:2781|AV-procd|sdf|10720|dock6
  -GOLD-   2272015153D 1   1.00000     0.00000
 Structure written by MMmdl.
 35 38  0  0  0  0  0  0  0  0  1 V2000
  150.5293  140.1197  156.3963 O   0  0  0  0  0  0  0  0  0  0  0  0
  150.4442  141.3482  156.3886 C   0  0  0  0  0  0  0  0  0  0  0  0
  151.0409  142.1739  157.2668 N   0  0  0  0  0  0  0  0  0  0  0  0
  151.8778  141.8347  158.3632 C   0  0  0  0  0  0  0  0  0  0  0  0
  152.1851  142.9047  159.2343 C   0  0  0  0  0  0  0  0  0  0  0  0
  153.0086  142.6733  160.3532 C   0  0  0  0  0  0  0  0  0  0  0  0
  153.5032  141.3753  160.5711 C   0  0  0  0  0  0  0  0  0  0  0  0
  154.2975  141.1045  161.6337 F   0  0  0  0  0  0  0  0  0  0  0  0
  153.1507  140.3655  159.6569 C   0  0  0  0  0  0  0  0  0  0  0  0
  152.3618  140.5863  158.5837 N   0  0  0  0  0  0  0  0  0  0  0  0
  149.7317  142.0376  155.4869 N   0  0  0  0  0  0  0  0  0  0  0  0
  148.9728  141.4746  154.4162 C   0  0  2  0  0  0  0  0  0  0  0  0
  147.5766  141.9940  154.0923 C   0  0  2  0  0  0  0  0  0  0  0  0
  146.5688  142.6785  155.0189 C   0  0  1  0  0  0  0  0  0  0  0  0
  145.1911  142.0350  154.7507 C   0  0  0  0  0  0  0  0  0  0  0  0
  145.3553  140.6255  155.3758 C   0  0  0  0  0  0  0  0  0  0  0  0
  146.8032  140.6673  155.9107 C   0  0  2  0  0  0  0  0  0  0  0  0
  146.8380  142.1108  156.4125 C   0  0  0  0  0  0  0  0  0  0  0  0
  147.7359  140.6293  154.6975 C   0  0  2  0  0  0  0  0  0  0  0  0
  150.8770  143.1611  157.1351 H   0  0  0  0  0  0  0  0  0  0  0  0
  151.7955  143.8956  159.0511 H   0  0  0  0  0  0  0  0  0  0  0  0
  153.2548  143.4773  161.0309 H   0  0  0  0  0  0  0  0  0  0  0  0
  153.5094  139.3553  159.7894 H   0  0  0  0  0  0  0  0  0  0  0  0
  149.7215  143.0441  155.5622 H   0  0  0  0  0  0  0  0  0  0  0  0
  149.5498  141.1571  153.5488 H   0  0  0  0  0  0  0  0  0  0  0  0
  147.3320  142.0529  153.0332 H   0  0  0  0  0  0  0  0  0  0  0  0
  146.5895  143.7656  154.9403 H   0  0  0  0  0  0  0  0  0  0  0  0
  144.3953  142.5893  155.2502 H   0  0  0  0  0  0  0  0  0  0  0  0
  144.9525  141.9931  153.6872 H   0  0  0  0  0  0  0  0  0  0  0  0
  144.6411  140.4765  156.1868 H   0  0  0  0  0  0  0  0  0  0  0  0
  145.2047  139.8274  154.6477 H   0  0  0  0  0  0  0  0  0  0  0  0
  147.0394  139.9042  156.6525 H   0  0  0  0  0  0  0  0  0  0  0  0
  147.7728  142.4224  156.8689 H   0  0  0  0  0  0  0  0  0  0  0  0
  146.0461  142.3366  157.1301 H   0  0  0  0  0  0  0  0  0  0  0  0
  147.5989  139.7674  154.0466 H   0  0  0  0  0  0  0  0  0  0  0  0
  1  2  2  0  0  0  0
  2  3  1  0  0  0  0
  2 11  1  0  0  0  0
  3  4  1  0  0  0  0
  3 20  1  0  0  0  0
  4 10  1  0  0  0  0
  4  5  2  0  0  0  0
  5  6  1  0  0  0  0
  5 21  1  0  0  0  0
  6  7  2  0  0  0  0
  6 22  1  0  0  0  0
  7  8  1  0  0  0  0
  7  9  1  0  0  0  0
  9 10  2  0  0  0  0
  9 23  1  0  0  0  0
 11 12  1  0  0  0  0
 11 24  1  0  0  0  0
 12 19  1  0  0  0  0
 12 13  1  0  0  0  0
 12 25  1  0  0  0  0
 13 19  1  0  0  0  0
 13 14  1  0  0  0  0
 13 26  1  0  0  0  0
 14 18  1  0  0  0  0
 14 15  1  0  0  0  0
 14 27  1  0  0  0  0
 15 16  1  0  0  0  0
 15 28  1  0  0  0  0
 15 29  1  0  0  0  0
 16 17  1  0  0  0  0
 16 30  1  0  0  0  0
 16 31  1  0  0  0  0
 17 18  1  0  0  0  0
 17 19  1  0  0  0  0
 17 32  1  0  0  0  0
 18 33  1  0  0  0  0
 18 34  1  0  0  0  0
 19 35  1  0  0  0  0
M  END
> <s_m_source_file>
AV-unprocessed.smi

> <i_m_source_file_index>
2781

> <i_lp_mmshare_version>
43012

> <i_f3d_flags>
0

> <s_epik_input>
bjFbY0hdYyhGKVtjSF1bY0hdYzFbTkhdQyg9TylbTkhdW0NASF0yW0NAQEhdM1tDQEhdKFtDSDJdNClbQ0gyXVtDSDJdW0NASF00W0NASF0yMw==

> <s_epik_cmdline>
J2VwaWtfcHl0aG9uJywgJy1waCcsICc3LjAnLCAnLXRuJywgJzgnLCAnLW1hJywgJzIwMCcsICctbWV0YWxfYmluZGluZycsICctaW1hZScsICc8aW5maWxlLm1hZT4nLCAnLW9tYWUnLCAnPG91dGZpbGUubWFlPic=

> <r_lp_tautomer_probability>
1

> <r_epik_Ionization_Penalty>
4.05776e-05

> <r_epik_Ionization_Penalty_Charging>
0

> <r_epik_Ionization_Penalty_Neutral>
4.05776e-05

> <r_epik_State_Penalty>
-0

> <r_epik_Charging_Adjusted_Penalty>
0

> <i_epik_Tot_Q>
0

> <i_epik_Tot_abs_Q>
0

> <r_epik_Metal_State_Penalty>
-0

> <b_epik_Metal_Only>
0

> <s_lp_Force_Field>
OPLS_2005

> <r_lp_Energy>
83.3371

> <b_lp_Chiralities_Consistent>
1

> <s_lp_Variant>
AV-unprocessed.smi:2781-4

> <Gold.Version>
5.8.1

> <Gold.Id.Protein>
6NUR|6NUR_protein|mol2

> <Gold.PLP.Fitness>
37.3286

> <Gold.PLP.PLP>
-34.5810

> <Gold.PLP.part.hbond>
-1.0000

> <Gold.PLP.part.metal>
0.0000

> <Gold.PLP.part.buried>
-2.1452

> <Gold.PLP.part.nonpolar>
-31.5940

> <Gold.PLP.part.repulsive>
0.2149

> <Gold.PLP.ligand.clash>
0.0000

> <Gold.PLP.ligand.torsion>
0.1511

> <Gold.PLP.Chemscore.Hbond>
1.0000

> <Gold.PLP.Chemscore.CHOScore>
0.0000

> <Gold.PLP.Chemscore.Metal>
0.0000

> <Gold.Chemscore.Hbonds>
donor molecule, donor type, donor heavy atom, donor atom, acceptor molecule, acceptor atom, score
      L1  H    11    24       P1  8028  1.00

> <Gold.PLP.Chemscore.Internal.Correction>
0.0498

> <Gold.Rescore>
     Score         DG    S(hbond)    S(metal)    S(lipo)     H(rot)  DE(clash)    DE(int)     intcor
     13.63     -15.17       0.98        0.00      76.61       1.00       0.12       1.42       ----

> <Gold.Chemscore.Fitness>
13.6319

> <Gold.Chemscore.DG>
-15.1726

> <Gold.Chemscore.ZeroCoef>
-5.4800

> <Gold.Chemscore.Hbond>
0.9849

> <Gold.Chemscore.Metal>
0.0000

> <Gold.Chemscore.Lipo>
76.6071

> <Gold.Chemscore.Internal_Hbond>
0.0000

> <Gold.Chemscore.DEClash>
0.1187

> <Gold.Chemscore.DEInternal>
1.4220

> <Gold.Chemscore.Rot>
1.0000

> <Gold.Chemscore.Internal.Correction>
   9.000000E+99

> <Gold.Chemscore.Hbonds>
donor molecule, donor type, donor heavy atom, donor atom, acceptor molecule, acceptor atom, score
      L1  H    11    24       P1  8028  0.98

> <Gold.Chemscore.Hbond.Weighted>
-3.2896

> <Gold.Chemscore.Metal.Weighted>
-0.0000

> <Gold.Chemscore.Lipo.Weighted>
-8.9630

> <Gold.Chemscore.Internal_Hbond.Weighted>
0.0000

> <Gold.Chemscore.DEClash.Weighted>
0.1187

> <Gold.Chemscore.DEInternal.Weighted>
1.4220

> <Gold.Chemscore.Rot.Weighted>
2.5600

> <Gold.Chemscore.Internal.Correction.Weighted>
   9.000000E+99

> <Gold.Protein.RotatedTorsions>
[ 6907 6896 6895 6894 ] final  -32.64 input  -60.11 | X-H torsion
[ 7974 7965 7964 7962 ] final    6.15 input  175.53 | X-H torsion
[ 8008 7997 7996 7995 ] final   -0.39 input   59.86 | X-H torsion
[ 10167 10162 10161 10158 ] final   68.44 input  -65.29 | X-H torsion
[ 10718 10713 10712 10709 ] final  -22.48 input   66.30 | X-H torsion
[ 10763 10752 10751 10750 ] final  -66.49 input  -60.55 | X-H torsion
[ 11005 11000 10999 10996 ] final  101.44 input  -57.11 | X-H torsion

> <Gold.Protein.ActiveResidues>
 VAL166  LYS551  ARG553  GLY616  TRP617  ASP618  TYR619  PRO620  LYS621  CYS622 
 ASP623  PHE694  ASN695  SER759  ASP760  ASP761  ALA762  ILE779  LEU786  VAL792 
 PHE793  MET794  SER795  GLU796  ALA797  LYS798  CYS799  TRP800  GLU811  SER814 

> <Gold.Protein.RotatedAtoms>
  151.0762  134.9829  159.8332 H   0  0  0  0  0  0  0  0  0  0  0  0  # atno 6907 bound_to 6896
  152.5414  134.2238  159.8808 H   0  0  0  0  0  0  0  0  0  0  0  0  # atno 6908 bound_to 6896
  151.2266  133.4429  159.2636 H   0  0  0  0  0  0  0  0  0  0  0  0  # atno 6909 bound_to 6896
  146.2436  140.0276  142.8392 H   0  0  0  0  0  0  0  0  0  0  0  0  # atno 7974 bound_to 7965
  154.6586  140.2585  155.7134 H   0  0  0  0  0  0  0  0  0  0  0  0  # atno 8008 bound_to 7997
  156.2608  140.2853  156.0971 H   0  0  0  0  0  0  0  0  0  0  0  0  # atno 8009 bound_to 7997
  155.1342  140.0379  157.2772 H   0  0  0  0  0  0  0  0  0  0  0  0  # atno 8010 bound_to 7997
  140.0786  144.5090  150.7177 H   0  0  0  0  0  0  0  0  0  0  0  0  # atno 10167 bound_to 10162
  156.5040  130.4594  149.6685 H   0  0  0  0  0  0  0  0  0  0  0  0  # atno 10718 bound_to 10713
  154.3606  135.6117  153.5688 H   0  0  0  0  0  0  0  0  0  0  0  0  # atno 10763 bound_to 10752
  152.9794  135.5814  154.4637 H   0  0  0  0  0  0  0  0  0  0  0  0  # atno 10764 bound_to 10752
  154.4374  135.2849  155.1848 H   0  0  0  0  0  0  0  0  0  0  0  0  # atno 10765 bound_to 10752
  139.8773  134.9183  156.4907 H   0  0  0  0  0  0  0  0  0  0  0  0  # atno 11005 bound_to 11000
  145.1184  140.9447  143.4615 LP  0  0  0  0  0  0  0  0  0  0  0  0  # atno 17320 bound_to 7965
  145.0506  139.3185  143.5930 LP  0  0  0  0  0  0  0  0  0  0  0  0  # atno 17321 bound_to 7965
  140.7089  143.2489  151.4641 LP  0  0  0  0  0  0  0  0  0  0  0  0  # atno 17342 bound_to 10162
  139.5793  144.1747  152.1946 LP  0  0  0  0  0  0  0  0  0  0  0  0  # atno 17343 bound_to 10162
  156.3305  130.7329  151.2257 LP  0  0  0  0  0  0  0  0  0  0  0  0  # atno 17370 bound_to 10713
  157.7459  131.0431  150.4727 LP  0  0  0  0  0  0  0  0  0  0  0  0  # atno 17371 bound_to 10713
  140.8660  133.8024  155.9315 LP  0  0  0  0  0  0  0  0  0  0  0  0  # atno 17394 bound_to 11000
  140.9001  134.2389  157.5046 LP  0  0  0  0  0  0  0  0  0  0  0  0  # atno 17395 bound_to 11000

$$$$
