AV-unprocessed.smi:3155|AV-procd|sdf|12027|dock4
  -GOLD-   2272017443D 1   1.00000     0.00000
 Structure written by MMmdl.
 37 38  0  0  0  0  0  0  0  0  1 V2000
  151.5922  137.8638  155.1246 C   0  0  0  0  0  0  0  0  0  0  0  0
  150.6116  139.0426  155.2019 C   0  0  2  0  0  0  0  0  0  0  0  0
  149.5683  138.9580  154.0628 C   0  0  0  0  0  0  0  0  0  0  0  0
  148.5524  139.9951  154.1129 N   0  0  0  0  0  0  0  0  0  0  0  0
  147.1904  139.8514  154.2751 C   0  0  0  0  0  0  0  0  0  0  0  0
  146.6456  141.1032  154.2732 C   0  0  0  0  0  0  0  0  0  0  0  0
  147.7707  141.9607  154.1210 C   0  0  0  0  0  0  0  0  0  0  0  0
  148.9110  141.2953  154.0346 N   0  0  0  0  0  0  0  0  0  0  0  0
  151.4063  140.2636  155.0979 N   0  0  0  0  0  0  0  0  0  0  0  0
  151.1673  141.2027  156.2013 C   0  0  0  0  0  0  0  0  0  0  0  0
  152.0041  140.8479  157.4350 C   0  0  0  0  0  0  0  0  0  0  0  0
  152.5725  139.7563  157.4698 O   0  0  0  0  0  0  0  0  0  0  0  0
  152.0916  141.7387  158.4459 N   0  0  0  0  0  0  0  0  0  0  0  0
  152.8452  141.4913  159.6735 C   0  0  0  0  0  0  0  0  0  0  0  0
  152.4544  142.6154  160.6329 C   0  0  0  0  0  0  0  0  0  0  0  0
  152.0383  143.7573  159.7166 C   0  0  0  0  0  0  0  0  0  0  0  0
  151.4614  143.0580  158.4860 C   0  0  0  0  0  0  0  0  0  0  0  0
  151.0673  136.9127  155.2182 H   0  0  0  0  0  0  0  0  0  0  0  0
  152.3288  137.9095  155.9277 H   0  0  0  0  0  0  0  0  0  0  0  0
  152.1320  137.8519  154.1770 H   0  0  0  0  0  0  0  0  0  0  0  0
  150.1169  138.9864  156.1731 H   0  0  0  0  0  0  0  0  0  0  0  0
  150.0616  138.9970  153.0904 H   0  0  0  0  0  0  0  0  0  0  0  0
  149.0531  137.9974  154.1057 H   0  0  0  0  0  0  0  0  0  0  0  0
  146.7265  138.8807  154.3705 H   0  0  0  0  0  0  0  0  0  0  0  0
  145.6029  141.3667  154.3704 H   0  0  0  0  0  0  0  0  0  0  0  0
  147.7926  143.0395  154.0744 H   0  0  0  0  0  0  0  0  0  0  0  0
  151.2547  140.6910  154.1957 H   0  0  0  0  0  0  0  0  0  0  0  0
  151.3750  142.2259  155.8932 H   0  0  0  0  0  0  0  0  0  0  0  0
  150.1131  141.1721  156.4812 H   0  0  0  0  0  0  0  0  0  0  0  0
  152.6255  140.5117  160.1012 H   0  0  0  0  0  0  0  0  0  0  0  0
  153.9120  141.5317  159.4485 H   0  0  0  0  0  0  0  0  0  0  0  0
  151.6005  142.3014  161.2346 H   0  0  0  0  0  0  0  0  0  0  0  0
  153.2602  142.8900  161.3142 H   0  0  0  0  0  0  0  0  0  0  0  0
  151.3299  144.4407  160.1854 H   0  0  0  0  0  0  0  0  0  0  0  0
  152.9190  144.3335  159.4302 H   0  0  0  0  0  0  0  0  0  0  0  0
  151.6569  143.6374  157.5833 H   0  0  0  0  0  0  0  0  0  0  0  0
  150.3824  142.9355  158.5892 H   0  0  0  0  0  0  0  0  0  0  0  0
  1  2  1  0  0  0  0
  1 18  1  0  0  0  0
  1 19  1  0  0  0  0
  1 20  1  0  0  0  0
  2  3  1  0  0  0  0
  2  9  1  0  0  0  0
  2 21  1  0  0  0  0
  3  4  1  0  0  0  0
  3 22  1  0  0  0  0
  3 23  1  0  0  0  0
  4  8  1  0  0  0  0
  4  5  1  0  0  0  0
  5  6  2  0  0  0  0
  5 24  1  0  0  0  0
  6  7  1  0  0  0  0
  6 25  1  0  0  0  0
  7  8  2  0  0  0  0
  7 26  1  0  0  0  0
  9 10  1  0  0  0  0
  9 27  1  0  0  0  0
 10 11  1  0  0  0  0
 10 28  1  0  0  0  0
 10 29  1  0  0  0  0
 11 12  2  0  0  0  0
 11 13  1  0  0  0  0
 13 17  1  0  0  0  0
 13 14  1  0  0  0  0
 14 15  1  0  0  0  0
 14 30  1  0  0  0  0
 14 31  1  0  0  0  0
 15 16  1  0  0  0  0
 15 32  1  0  0  0  0
 15 33  1  0  0  0  0
 16 17  1  0  0  0  0
 16 34  1  0  0  0  0
 16 35  1  0  0  0  0
 17 36  1  0  0  0  0
 17 37  1  0  0  0  0
M  END
> <s_m_source_file>
AV-unprocessed.smi

> <i_m_source_file_index>
3155

> <i_lp_mmshare_version>
43012

> <i_f3d_flags>
0

> <s_epik_input>
bjFbY0hdW2NIXVtjSF1uMVtDSDJdW0NAQEhdKFtDSDNdKVtOSF1bQ0gyXUMoPU8pTjJbQ0gyXVtDSDJdW0NIMl1bQ0gyXTI=

> <s_epik_cmdline>
J2VwaWtfcHl0aG9uJywgJy1waCcsICc3LjAnLCAnLXRuJywgJzgnLCAnLW1hJywgJzIwMCcsICctbWV0YWxfYmluZGluZycsICctaW1hZScsICc8aW5maWxlLm1hZT4nLCAnLW9tYWUnLCAnPG91dGZpbGUubWFlPic=

> <r_lp_tautomer_probability>
1

> <r_epik_Ionization_Penalty>
1.00455

> <r_epik_Ionization_Penalty_Charging>
0

> <r_epik_Ionization_Penalty_Neutral>
1.00455

> <r_epik_State_Penalty>
1.05336

> <r_epik_Charging_Adjusted_Penalty>
1.05336

> <i_epik_Tot_Q>
0

> <i_epik_Tot_abs_Q>
0

> <r_epik_Metal_State_Penalty>
1.05331

> <b_epik_Metal_Only>
0

> <s_lp_Force_Field>
OPLS_2005

> <r_lp_Energy>
30.8586

> <b_lp_Chiralities_Consistent>
1

> <s_lp_Variant>
AV-unprocessed.smi:3155-3

> <Gold.Version>
5.8.1

> <Gold.Id.Protein>
6NUR|6NUR_protein|mol2

> <Gold.PLP.Fitness>
42.0988

> <Gold.PLP.PLP>
-36.7691

> <Gold.PLP.part.hbond>
-3.1329

> <Gold.PLP.part.metal>
0.0000

> <Gold.PLP.part.buried>
-3.3920

> <Gold.PLP.part.nonpolar>
-29.6728

> <Gold.PLP.part.repulsive>
0.1671

> <Gold.PLP.ligand.clash>
0.0000

> <Gold.PLP.ligand.torsion>
0.9960

> <Gold.PLP.Chemscore.Hbond>
1.4137

> <Gold.PLP.Chemscore.CHOScore>
1.0000

> <Gold.PLP.Chemscore.Metal>
0.0000

> <Gold.Chemscore.Hbonds>
donor molecule, donor type, donor heavy atom, donor atom, acceptor molecule, acceptor atom, score
      P1  H  7997  8009       L1    12  1.00
      P1  H  8011  8017       L1     8  0.36
      L1  C     7    26       P1  8028  1.00

> <Gold.PLP.Chemscore.Internal.Correction>
0.0805

> <Gold.Rescore>
     Score         DG    S(hbond)    S(metal)    S(lipo)     H(rot)  DE(clash)    DE(int)     intcor
     13.65     -14.71       1.04        0.00      87.94       1.77       0.14       0.93       ----

> <Gold.Chemscore.Fitness>
13.6482

> <Gold.Chemscore.DG>
-14.7120

> <Gold.Chemscore.ZeroCoef>
-5.4800

> <Gold.Chemscore.Hbond>
1.0398

> <Gold.Chemscore.Metal>
0.0000

> <Gold.Chemscore.Lipo>
87.9351

> <Gold.Chemscore.Internal_Hbond>
0.0000

> <Gold.Chemscore.DEClash>
0.1386

> <Gold.Chemscore.DEInternal>
0.9253

> <Gold.Chemscore.Rot>
1.7693

> <Gold.Chemscore.Internal.Correction>
   9.000000E+99

> <Gold.Chemscore.Hbonds>
donor molecule, donor type, donor heavy atom, donor atom, acceptor molecule, acceptor atom, score
      P1  H  7997  8009       L1    12  0.48
      P1  H  8011  8017       L1     8  0.07

> <Gold.Chemscore.Hbond.Weighted>
-3.4730

> <Gold.Chemscore.Metal.Weighted>
-0.0000

> <Gold.Chemscore.Lipo.Weighted>
-10.2884

> <Gold.Chemscore.Internal_Hbond.Weighted>
0.0000

> <Gold.Chemscore.DEClash.Weighted>
0.1386

> <Gold.Chemscore.DEInternal.Weighted>
0.9253

> <Gold.Chemscore.Rot.Weighted>
4.5294

> <Gold.Chemscore.Internal.Correction.Weighted>
   9.000000E+99

> <Gold.Protein.RotatedTorsions>
[ 6907 6896 6895 6894 ] final -161.04 input  -60.11 | X-H torsion
[ 7974 7965 7964 7962 ] final  165.51 input  175.53 | X-H torsion
[ 8008 7997 7996 7995 ] final  176.46 input   59.86 | X-H torsion
[ 10167 10162 10161 10158 ] final  -51.50 input  -65.29 | X-H torsion
[ 10718 10713 10712 10709 ] final -109.28 input   66.30 | X-H torsion
[ 10763 10752 10751 10750 ] final  -28.61 input  -60.55 | X-H torsion
[ 11005 11000 10999 10996 ] final  178.25 input  -57.11 | X-H torsion

> <Gold.Protein.ActiveResidues>
 VAL166  LYS551  ARG553  GLY616  TRP617  ASP618  TYR619  PRO620  LYS621  CYS622 
 ASP623  PHE694  ASN695  SER759  ASP760  ASP761  ALA762  ILE779  LEU786  VAL792 
 PHE793  MET794  SER795  GLU796  ALA797  LYS798  CYS799  TRP800  GLU811  SER814 

> <Gold.Protein.RotatedAtoms>
  151.3585  133.3898  159.2687 H   0  0  0  0  0  0  0  0  0  0  0  0  # atno 6907 bound_to 6896
  150.9744  134.9112  159.7818 H   0  0  0  0  0  0  0  0  0  0  0  0  # atno 6908 bound_to 6896
  152.5196  134.3548  159.9316 H   0  0  0  0  0  0  0  0  0  0  0  0  # atno 6909 bound_to 6896
  144.7499  139.8481  143.6369 H   0  0  0  0  0  0  0  0  0  0  0  0  # atno 7974 bound_to 7965
  156.0762  140.1383  156.9769 H   0  0  0  0  0  0  0  0  0  0  0  0  # atno 8008 bound_to 7997
  154.4559  140.0961  156.6805 H   0  0  0  0  0  0  0  0  0  0  0  0  # atno 8009 bound_to 7997
  155.5149  140.3454  155.4398 H   0  0  0  0  0  0  0  0  0  0  0  0  # atno 8010 bound_to 7997
  140.6585  143.2617  151.4513 H   0  0  0  0  0  0  0  0  0  0  0  0  # atno 10167 bound_to 10162
  156.0529  130.5756  150.8078 H   0  0  0  0  0  0  0  0  0  0  0  0  # atno 10718 bound_to 10713
  153.7512  135.6926  153.4945 H   0  0  0  0  0  0  0  0  0  0  0  0  # atno 10763 bound_to 10752
  153.2002  135.4439  155.0256 H   0  0  0  0  0  0  0  0  0  0  0  0  # atno 10764 bound_to 10752
  154.8186  135.3411  154.7033 H   0  0  0  0  0  0  0  0  0  0  0  0  # atno 10765 bound_to 10752
  140.3930  134.6845  157.4518 H   0  0  0  0  0  0  0  0  0  0  0  0  # atno 11005 bound_to 11000
  146.1435  139.4498  143.0094 LP  0  0  0  0  0  0  0  0  0  0  0  0  # atno 17320 bound_to 7965
  145.6981  141.0144  143.1519 LP  0  0  0  0  0  0  0  0  0  0  0  0  # atno 17321 bound_to 7965
  139.5813  144.1703  152.1971 LP  0  0  0  0  0  0  0  0  0  0  0  0  # atno 17342 bound_to 10162
  140.1030  144.5523  150.6976 LP  0  0  0  0  0  0  0  0  0  0  0  0  # atno 17343 bound_to 10162
  157.5472  131.0943  150.9746 LP  0  0  0  0  0  0  0  0  0  0  0  0  # atno 17370 bound_to 10713
  157.0015  130.5601  149.5312 LP  0  0  0  0  0  0  0  0  0  0  0  0  # atno 17371 bound_to 10713
  140.0392  134.6292  155.9002 LP  0  0  0  0  0  0  0  0  0  0  0  0  # atno 17394 bound_to 11000
  141.1884  133.6562  156.5323 LP  0  0  0  0  0  0  0  0  0  0  0  0  # atno 17395 bound_to 11000

$$$$
