AV-unprocessed.smi:3245|AV-procd|sdf|12405|dock5
  -GOLD-   2272018283D 1   1.00000     0.00000
 Structure written by MMmdl.
 35 36  0  0  0  0  0  0  0  0  1 V2000
  148.6879  140.2568  157.5458 C   0  0  0  0  0  0  0  0  0  0  0  0
  149.1476  141.7154  157.7462 C   0  0  1  0  0  0  0  0  0  0  0  0
  150.4541  142.0366  156.9907 C   0  0  0  0  0  0  0  0  0  0  0  0
  151.3109  142.9647  157.7068 N   0  0  0  0  0  0  0  0  0  0  0  0
  151.6159  144.2711  157.3868 C   0  0  0  0  0  0  0  0  0  0  0  0
  152.4529  144.7425  158.3572 C   0  0  0  0  0  0  0  0  0  0  0  0
  152.5990  143.6383  159.2427 C   0  0  0  0  0  0  0  0  0  0  0  0
  151.9110  142.5771  158.8534 N   0  0  0  0  0  0  0  0  0  0  0  0
  148.1273  142.6386  157.2647 N   0  0  0  0  0  0  0  0  0  0  0  0
  147.0299  142.7911  158.2105 C   0  0  0  0  0  0  0  0  0  0  0  0
  147.4487  143.7207  159.3636 C   0  0  0  0  0  0  0  0  0  0  0  0
  146.3107  144.0944  160.2118 N   0  0  0  0  0  0  0  0  0  0  0  0
  145.3863  143.2349  160.6612 C   0  0  0  0  0  0  0  0  0  0  0  0
  145.3157  142.0259  160.4425 O   0  0  0  0  0  0  0  0  0  0  0  0
  144.3999  143.9968  161.5192 C   0  0  0  0  0  0  0  0  0  0  0  0
  144.9748  145.3206  161.4187 N   0  0  0  0  0  0  0  0  0  0  0  0
  146.0778  145.3422  160.6593 C   0  0  0  0  0  0  0  0  0  0  0  0
  146.7547  146.3417  160.4227 O   0  0  0  0  0  0  0  0  0  0  0  0
  149.4414  139.5525  157.8981 H   0  0  0  0  0  0  0  0  0  0  0  0
  148.5025  140.0424  156.4928 H   0  0  0  0  0  0  0  0  0  0  0  0
  147.7742  140.0350  158.0957 H   0  0  0  0  0  0  0  0  0  0  0  0
  149.3174  141.8979  158.8085 H   0  0  0  0  0  0  0  0  0  0  0  0
  151.0201  141.1218  156.8078 H   0  0  0  0  0  0  0  0  0  0  0  0
  150.2323  142.4662  156.0125 H   0  0  0  0  0  0  0  0  0  0  0  0
  151.2192  144.7501  156.5037 H   0  0  0  0  0  0  0  0  0  0  0  0
  152.8928  145.7264  158.4247 H   0  0  0  0  0  0  0  0  0  0  0  0
  153.1797  143.5771  160.1514 H   0  0  0  0  0  0  0  0  0  0  0  0
  148.5448  143.5448  157.1068 H   0  0  0  0  0  0  0  0  0  0  0  0
  146.1368  143.1785  157.7213 H   0  0  0  0  0  0  0  0  0  0  0  0
  146.7749  141.8097  158.6120 H   0  0  0  0  0  0  0  0  0  0  0  0
  148.1915  143.2122  159.9801 H   0  0  0  0  0  0  0  0  0  0  0  0
  147.9545  144.6060  158.9737 H   0  0  0  0  0  0  0  0  0  0  0  0
  143.3923  143.9626  161.1037 H   0  0  0  0  0  0  0  0  0  0  0  0
  144.3980  143.6353  162.5480 H   0  0  0  0  0  0  0  0  0  0  0  0
  144.5810  146.1283  161.8795 H   0  0  0  0  0  0  0  0  0  0  0  0
  1  2  1  0  0  0  0
  1 19  1  0  0  0  0
  1 20  1  0  0  0  0
  1 21  1  0  0  0  0
  2  3  1  0  0  0  0
  2  9  1  0  0  0  0
  2 22  1  0  0  0  0
  3  4  1  0  0  0  0
  3 23  1  0  0  0  0
  3 24  1  0  0  0  0
  4  8  1  0  0  0  0
  4  5  1  0  0  0  0
  5  6  2  0  0  0  0
  5 25  1  0  0  0  0
  6  7  1  0  0  0  0
  6 26  1  0  0  0  0
  7  8  2  0  0  0  0
  7 27  1  0  0  0  0
  9 10  1  0  0  0  0
  9 28  1  0  0  0  0
 10 11  1  0  0  0  0
 10 29  1  0  0  0  0
 10 30  1  0  0  0  0
 11 12  1  0  0  0  0
 11 31  1  0  0  0  0
 11 32  1  0  0  0  0
 12 17  1  0  0  0  0
 12 13  1  0  0  0  0
 13 14  2  0  0  0  0
 13 15  1  0  0  0  0
 15 16  1  0  0  0  0
 15 33  1  0  0  0  0
 15 34  1  0  0  0  0
 16 17  1  0  0  0  0
 16 35  1  0  0  0  0
 17 18  2  0  0  0  0
M  END
> <s_m_source_file>
AV-unprocessed.smi

> <i_m_source_file_index>
3245

> <i_lp_mmshare_version>
43012

> <i_f3d_flags>
0

> <s_epik_input>
bjFbY0hdW2NIXVtjSF1uMVtDSDJdW0NAQEhdKFtDSDNdKVtOSF1bQ0gyXVtDSDJdTjJDKD1PKVtDSDJdW05IXUMyPU8=

> <s_epik_cmdline>
J2VwaWtfcHl0aG9uJywgJy1waCcsICc3LjAnLCAnLXRuJywgJzgnLCAnLW1hJywgJzIwMCcsICctbWV0YWxfYmluZGluZycsICctaW1hZScsICc8aW5maWxlLm1hZT4nLCAnLW9tYWUnLCAnPG91dGZpbGUubWFlPic=

> <r_lp_tautomer_probability>
1

> <r_epik_Ionization_Penalty>
2.14948

> <r_epik_Ionization_Penalty_Charging>
0

> <r_epik_Ionization_Penalty_Neutral>
2.14948

> <r_epik_State_Penalty>
2.28912

> <r_epik_Charging_Adjusted_Penalty>
2.28912

> <i_epik_Tot_Q>
0

> <i_epik_Tot_abs_Q>
0

> <r_epik_Metal_State_Penalty>
2.36471

> <b_epik_Metal_Only>
0

> <s_lp_Force_Field>
OPLS_2005

> <r_lp_Energy>
25.1449

> <b_lp_Chiralities_Consistent>
1

> <s_lp_Variant>
AV-unprocessed.smi:3245-4

> <Gold.Version>
5.8.1

> <Gold.Id.Protein>
6NUR|6NUR_protein|mol2

> <Gold.PLP.Fitness>
43.4111

> <Gold.PLP.PLP>
-37.6193

> <Gold.PLP.part.hbond>
-3.4140

> <Gold.PLP.part.metal>
0.0000

> <Gold.PLP.part.buried>
-6.3359

> <Gold.PLP.part.nonpolar>
-29.2500

> <Gold.PLP.part.repulsive>
0.4142

> <Gold.PLP.ligand.clash>
0.0000

> <Gold.PLP.ligand.torsion>
1.0172

> <Gold.PLP.Chemscore.Hbond>
1.5760

> <Gold.PLP.Chemscore.CHOScore>
1.0000

> <Gold.PLP.Chemscore.Metal>
0.0000

> <Gold.Chemscore.Hbonds>
donor molecule, donor type, donor heavy atom, donor atom, acceptor molecule, acceptor atom, score
      L1  H     9    28       P1  8028  0.63
      P1  H  6934  6946       L1    14  1.00
      L1  C     5    25       P1  8028  0.98

> <Gold.PLP.Chemscore.Internal.Correction>
0.0983

> <Gold.Rescore>
     Score         DG    S(hbond)    S(metal)    S(lipo)     H(rot)  DE(clash)    DE(int)     intcor
      7.44      -9.71       1.10        0.00      63.12       2.66       0.35       1.92       ----

> <Gold.Chemscore.Fitness>
7.4447

> <Gold.Chemscore.DG>
-9.7124

> <Gold.Chemscore.ZeroCoef>
-5.4800

> <Gold.Chemscore.Hbond>
1.0955

> <Gold.Chemscore.Metal>
0.0000

> <Gold.Chemscore.Lipo>
63.1218

> <Gold.Chemscore.Internal_Hbond>
0.0000

> <Gold.Chemscore.DEClash>
0.3461

> <Gold.Chemscore.DEInternal>
1.9216

> <Gold.Chemscore.Rot>
2.6609

> <Gold.Chemscore.Internal.Correction>
   9.000000E+99

> <Gold.Chemscore.Hbonds>
donor molecule, donor type, donor heavy atom, donor atom, acceptor molecule, acceptor atom, score
      L1  H     9    28       P1  8028  0.09
      P1  H  6934  6946       L1    14  0.95

> <Gold.Chemscore.Hbond.Weighted>
-3.6590

> <Gold.Chemscore.Metal.Weighted>
-0.0000

> <Gold.Chemscore.Lipo.Weighted>
-7.3852

> <Gold.Chemscore.Internal_Hbond.Weighted>
0.0000

> <Gold.Chemscore.DEClash.Weighted>
0.3461

> <Gold.Chemscore.DEInternal.Weighted>
1.9216

> <Gold.Chemscore.Rot.Weighted>
6.8118

> <Gold.Chemscore.Internal.Correction.Weighted>
   9.000000E+99

> <Gold.Protein.RotatedTorsions>
[ 6907 6896 6895 6894 ] final  -98.88 input  -60.11 | X-H torsion
[ 7974 7965 7964 7962 ] final -148.72 input  175.53 | X-H torsion
[ 8008 7997 7996 7995 ] final -161.79 input   59.86 | X-H torsion
[ 10167 10162 10161 10158 ] final  -32.51 input  -65.29 | X-H torsion
[ 10718 10713 10712 10709 ] final   42.10 input   66.30 | X-H torsion
[ 10763 10752 10751 10750 ] final  141.74 input  -60.55 | X-H torsion
[ 11005 11000 10999 10996 ] final   68.13 input  -57.11 | X-H torsion

> <Gold.Protein.ActiveResidues>
 VAL166  LYS551  ARG553  GLY616  TRP617  ASP618  TYR619  PRO620  LYS621  CYS622 
 ASP623  PHE694  ASN695  SER759  ASP760  ASP761  ALA762  ILE779  LEU786  VAL792 
 PHE793  MET794  SER795  GLU796  ALA797  LYS798  CYS799  TRP800  GLU811  SER814 

> <Gold.Protein.RotatedAtoms>
  150.7061  134.1127  159.4005 H   0  0  0  0  0  0  0  0  0  0  0  0  # atno 6907 bound_to 6896
  151.9113  135.0335  160.0524 H   0  0  0  0  0  0  0  0  0  0  0  0  # atno 6908 bound_to 6896
  152.2333  133.5040  159.5265 H   0  0  0  0  0  0  0  0  0  0  0  0  # atno 6909 bound_to 6896
  144.8012  140.5159  143.5706 H   0  0  0  0  0  0  0  0  0  0  0  0  # atno 7974 bound_to 7965
  155.7973  140.0887  157.1976 H   0  0  0  0  0  0  0  0  0  0  0  0  # atno 8008 bound_to 7997
  154.3983  140.1479  156.3292 H   0  0  0  0  0  0  0  0  0  0  0  0  # atno 8009 bound_to 7997
  155.8498  140.3435  155.5688 H   0  0  0  0  0  0  0  0  0  0  0  0  # atno 8010 bound_to 7997
  140.7220  143.3689  151.1816 H   0  0  0  0  0  0  0  0  0  0  0  0  # atno 10167 bound_to 10162
  157.4010  130.7860  149.7349 H   0  0  0  0  0  0  0  0  0  0  0  0  # atno 10718 bound_to 10713
  153.9442  135.2976  155.3441 H   0  0  0  0  0  0  0  0  0  0  0  0  # atno 10763 bound_to 10752
  154.7460  135.5002  153.9209 H   0  0  0  0  0  0  0  0  0  0  0  0  # atno 10764 bound_to 10752
  153.1026  135.6738  153.9751 H   0  0  0  0  0  0  0  0  0  0  0  0  # atno 10765 bound_to 10752
  139.9730  134.6869  156.0410 H   0  0  0  0  0  0  0  0  0  0  0  0  # atno 11005 bound_to 11000
  145.5549  139.1477  143.3373 LP  0  0  0  0  0  0  0  0  0  0  0  0  # atno 17320 bound_to 7965
  146.2293  140.5686  142.8982 LP  0  0  0  0  0  0  0  0  0  0  0  0  # atno 17321 bound_to 7965
  139.7257  143.9153  152.3001 LP  0  0  0  0  0  0  0  0  0  0  0  0  # atno 17342 bound_to 10162
  139.8925  144.6958  150.8755 LP  0  0  0  0  0  0  0  0  0  0  0  0  # atno 17343 bound_to 10162
  155.9823  130.4011  150.3423 LP  0  0  0  0  0  0  0  0  0  0  0  0  # atno 17370 bound_to 10713
  157.1550  131.0330  151.2867 LP  0  0  0  0  0  0  0  0  0  0  0  0  # atno 17371 bound_to 10713
  141.1408  133.6565  156.3725 LP  0  0  0  0  0  0  0  0  0  0  0  0  # atno 17394 bound_to 11000
  140.5254  134.6264  157.5332 LP  0  0  0  0  0  0  0  0  0  0  0  0  # atno 17395 bound_to 11000

$$$$
