AV-unprocessed.smi:3058|AV-procd|sdf|11673|dock7
  -GOLD-   2272017 73D 1   1.00000     0.00000
 Structure written by MMmdl.
 39 41  0  0  0  0  0  0  0  0  2 V2000
  153.3283  140.3569  160.0001 O   0  0  0  0  0  0  0  0  0  0  0  0
  152.7764  141.1426  159.2294 C   0  0  0  0  0  0  0  0  0  0  0  0
  152.0708  140.7383  158.1615 N   0  0  0  0  0  0  0  0  0  0  0  0
  151.8557  139.3477  157.7793 C   0  0  0  0  0  0  0  0  0  0  0  0
  152.2452  139.0919  156.3131 C   0  0  0  0  0  0  0  0  0  0  0  0
  151.0871  139.3265  155.3630 C   0  0  0  0  0  0  0  0  0  0  0  0
  150.3705  140.5433  155.3944 C   0  0  0  0  0  0  0  0  0  0  0  0
  149.2977  140.7373  154.4993 C   0  0  0  0  0  0  0  0  0  0  0  0
  148.9650  139.7092  153.5937 C   0  0  0  0  0  0  0  0  0  0  0  0
  149.6732  138.5585  153.5929 N   0  3  0  0  0  0  0  0  0  0  0  0
  150.7076  138.3344  154.4330 C   0  0  0  0  0  0  0  0  0  0  0  0
  152.8664  142.6632  159.4497 C   0  0  2  0  0  0  0  0  0  0  0  0
  152.2408  143.1259  160.7889 C   0  0  0  0  0  0  0  0  0  0  0  0
  151.2139  144.1892  160.3517 C   0  0  1  0  0  0  0  0  0  0  0  0
  151.9548  145.4328  159.8239 C   0  0  0  0  0  0  0  0  0  0  0  0
  152.5089  144.9486  158.4699 C   0  0  0  0  0  0  0  0  0  0  0  0
  152.0434  143.4806  158.4213 C   0  0  2  0  0  0  0  0  0  0  0  0
  150.6620  143.5880  159.0671 C   0  0  0  0  0  0  0  0  0  0  0  0
  151.6457  141.4453  157.5790 H   0  0  0  0  0  0  0  0  0  0  0  0
  152.4167  138.6915  158.4472 H   0  0  0  0  0  0  0  0  0  0  0  0
  150.8010  139.1151  157.9295 H   0  0  0  0  0  0  0  0  0  0  0  0
  153.0792  139.7360  156.0310 H   0  0  0  0  0  0  0  0  0  0  0  0
  152.5930  138.0660  156.1845 H   0  0  0  0  0  0  0  0  0  0  0  0
  150.6403  141.3202  156.0952 H   0  0  0  0  0  0  0  0  0  0  0  0
  148.7381  141.6613  154.5081 H   0  0  0  0  0  0  0  0  0  0  0  0
  148.1602  139.7720  152.8759 H   0  0  0  0  0  0  0  0  0  0  0  0
  151.1955  137.3753  154.3354 H   0  0  0  0  0  0  0  0  0  0  0  0
  153.9162  142.9591  159.4048 H   0  0  0  0  0  0  0  0  0  0  0  0
  151.7411  142.3107  161.3149 H   0  0  0  0  0  0  0  0  0  0  0  0
  152.9881  143.5382  161.4678 H   0  0  0  0  0  0  0  0  0  0  0  0
  150.4671  144.4153  161.1131 H   0  0  0  0  0  0  0  0  0  0  0  0
  151.2651  146.2654  159.6797 H   0  0  0  0  0  0  0  0  0  0  0  0
  152.7420  145.7636  160.5025 H   0  0  0  0  0  0  0  0  0  0  0  0
  152.0703  145.5203  157.6509 H   0  0  0  0  0  0  0  0  0  0  0  0
  153.5927  145.0484  158.4017 H   0  0  0  0  0  0  0  0  0  0  0  0
  152.0424  143.0608  157.4145 H   0  0  0  0  0  0  0  0  0  0  0  0
  150.1591  142.6328  159.2188 H   0  0  0  0  0  0  0  0  0  0  0  0
  149.9863  144.2584  158.5329 H   0  0  0  0  0  0  0  0  0  0  0  0
  149.4156  137.8275  152.9292 H   0  0  0  0  0  0  0  0  0  0  0  0
  1  2  2  0  0  0  0
  2  3  1  0  0  0  0
  2 12  1  0  0  0  0
  3  4  1  0  0  0  0
  3 19  1  0  0  0  0
  4  5  1  0  0  0  0
  4 20  1  0  0  0  0
  4 21  1  0  0  0  0
  5  6  1  0  0  0  0
  5 22  1  0  0  0  0
  5 23  1  0  0  0  0
  6 11  1  0  0  0  0
  6  7  2  0  0  0  0
  7  8  1  0  0  0  0
  7 24  1  0  0  0  0
  8  9  2  0  0  0  0
  8 25  1  0  0  0  0
  9 10  1  0  0  0  0
  9 26  1  0  0  0  0
 10 11  2  0  0  0  0
 10 39  1  0  0  0  0
 11 27  1  0  0  0  0
 12 17  1  0  0  0  0
 12 13  1  0  0  0  0
 12 28  1  0  0  0  0
 13 14  1  0  0  0  0
 13 29  1  0  0  0  0
 13 30  1  0  0  0  0
 14 18  1  0  0  0  0
 14 15  1  0  0  0  0
 14 31  1  0  0  0  0
 15 16  1  0  0  0  0
 15 32  1  0  0  0  0
 15 33  1  0  0  0  0
 16 17  1  0  0  0  0
 16 34  1  0  0  0  0
 16 35  1  0  0  0  0
 17 18  1  0  0  0  0
 17 36  1  0  0  0  0
 18 37  1  0  0  0  0
 18 38  1  0  0  0  0
M  CHG  1  10   1
M  END
> <s_m_source_file>
AV-unprocessed.smi

> <i_m_source_file_index>
3058

> <i_lp_mmshare_version>
43012

> <i_f3d_flags>
0

> <s_epik_input>
W0NIMl0xW0NIMl1bQ0BIXShbQ0gyXTIpW0NAQEhdKFtDSDJdW0NAQEhdMTIpQyg9TylbTkhdW0NIMl1bQ0gyXWMzW2NIXVtjSF1bY0hdbltjSF0z

> <s_epik_cmdline>
J2VwaWtfcHl0aG9uJywgJy1waCcsICc3LjAnLCAnLXRuJywgJzgnLCAnLW1hJywgJzIwMCcsICctbWV0YWxfYmluZGluZycsICctaW1hZScsICc8aW5maWxlLm1hZT4nLCAnLW9tYWUnLCAnPG91dGZpbGUubWFlPic=

> <r_epik_Ionization_Penalty>
2.24375

> <r_epik_Ionization_Penalty_Charging>
2.24375

> <r_epik_Ionization_Penalty_Neutral>
1.89995e-08

> <r_epik_State_Penalty>
2.39035

> <r_epik_Charging_Adjusted_Penalty>
4.63411

> <i_epik_Tot_Q>
1

> <i_epik_Tot_abs_Q>
1

> <r_epik_Metal_State_Penalty>
2.40369

> <b_epik_Metal_Only>
0

> <s_lp_Force_Field>
OPLS_2005

> <r_lp_Energy>
53.6325

> <b_lp_Chiralities_Consistent>
1

> <s_lp_Variant>
AV-unprocessed.smi:3058-5

> <Gold.Version>
5.8.1

> <Gold.Id.Protein>
6NUR|6NUR_protein|mol2

> <Gold.PLP.Fitness>
50.2740

> <Gold.PLP.PLP>
-44.7981

> <Gold.PLP.part.hbond>
-1.9988

> <Gold.PLP.part.metal>
0.0000

> <Gold.PLP.part.buried>
-1.8331

> <Gold.PLP.part.nonpolar>
-42.3847

> <Gold.PLP.part.repulsive>
0.1723

> <Gold.PLP.ligand.clash>
0.0000

> <Gold.PLP.ligand.torsion>
0.2758

> <Gold.PLP.Chemscore.Hbond>
2.0000

> <Gold.PLP.Chemscore.CHOScore>
0.0000

> <Gold.PLP.Chemscore.Metal>
0.0000

> <Gold.Chemscore.Hbonds>
donor molecule, donor type, donor heavy atom, donor atom, acceptor molecule, acceptor atom, score
      L1  H    10    39       P1  7948  2.00

> <Gold.PLP.Chemscore.Internal.Correction>
0.0275

> <Gold.Rescore>
     Score         DG    S(hbond)    S(metal)    S(lipo)     H(rot)  DE(clash)    DE(int)     intcor
     19.72     -20.37       0.99        0.00     130.86       1.45       0.36       0.30       ----

> <Gold.Chemscore.Fitness>
19.7173

> <Gold.Chemscore.DG>
-20.3745

> <Gold.Chemscore.ZeroCoef>
-5.4800

> <Gold.Chemscore.Hbond>
0.9905

> <Gold.Chemscore.Metal>
0.0000

> <Gold.Chemscore.Lipo>
130.8581

> <Gold.Chemscore.Internal_Hbond>
0.0000

> <Gold.Chemscore.DEClash>
0.3600

> <Gold.Chemscore.DEInternal>
0.2973

> <Gold.Chemscore.Rot>
1.4548

> <Gold.Chemscore.Internal.Correction>
   9.000000E+99

> <Gold.Chemscore.Hbonds>
donor molecule, donor type, donor heavy atom, donor atom, acceptor molecule, acceptor atom, score
      L1  H    10    39       P1  7948  0.90

> <Gold.Chemscore.Hbond.Weighted>
-3.3084

> <Gold.Chemscore.Metal.Weighted>
-0.0000

> <Gold.Chemscore.Lipo.Weighted>
-15.3104

> <Gold.Chemscore.Internal_Hbond.Weighted>
0.0000

> <Gold.Chemscore.DEClash.Weighted>
0.3600

> <Gold.Chemscore.DEInternal.Weighted>
0.2973

> <Gold.Chemscore.Rot.Weighted>
3.7242

> <Gold.Chemscore.Internal.Correction.Weighted>
   9.000000E+99

> <Gold.Protein.RotatedTorsions>
[ 6907 6896 6895 6894 ] final   12.97 input  -60.11 | X-H torsion
[ 7974 7965 7964 7962 ] final   -5.73 input  175.53 | X-H torsion
[ 8008 7997 7996 7995 ] final   50.05 input   59.86 | X-H torsion
[ 10167 10162 10161 10158 ] final   16.90 input  -65.29 | X-H torsion
[ 10718 10713 10712 10709 ] final  112.31 input   66.30 | X-H torsion
[ 10763 10752 10751 10750 ] final  -96.83 input  -60.55 | X-H torsion
[ 11005 11000 10999 10996 ] final   62.20 input  -57.11 | X-H torsion

> <Gold.Protein.ActiveResidues>
 VAL166  LYS551  ARG553  GLY616  TRP617  ASP618  TYR619  PRO620  LYS621  CYS622 
 ASP623  PHE694  ASN695  SER759  ASP760  ASP761  ALA762  ILE779  LEU786  VAL792 
 PHE793  MET794  SER795  GLU796  ALA797  LYS798  CYS799  TRP800  GLU811  SER814 

> <Gold.Protein.RotatedAtoms>
  151.7789  135.0767  160.0370 H   0  0  0  0  0  0  0  0  0  0  0  0  # atno 6907 bound_to 6896
  152.3237  133.5877  159.5770 H   0  0  0  0  0  0  0  0  0  0  0  0  # atno 6908 bound_to 6896
  150.7383  133.9889  159.3642 H   0  0  0  0  0  0  0  0  0  0  0  0  # atno 6909 bound_to 6896
  146.2346  140.2065  142.8334 H   0  0  0  0  0  0  0  0  0  0  0  0  # atno 7974 bound_to 7965
  155.4123  140.3443  155.4264 H   0  0  0  0  0  0  0  0  0  0  0  0  # atno 8008 bound_to 7997
  156.1441  140.1551  156.8906 H   0  0  0  0  0  0  0  0  0  0  0  0  # atno 8009 bound_to 7997
  154.4996  140.0818  156.7750 H   0  0  0  0  0  0  0  0  0  0  0  0  # atno 8010 bound_to 7997
  140.5764  143.9064  150.6754 H   0  0  0  0  0  0  0  0  0  0  0  0  # atno 10167 bound_to 10162
  157.6399  131.0965  150.6877 H   0  0  0  0  0  0  0  0  0  0  0  0  # atno 10718 bound_to 10713
  154.7274  135.5069  153.8909 H   0  0  0  0  0  0  0  0  0  0  0  0  # atno 10763 bound_to 10752
  153.0918  135.6661  153.9848 H   0  0  0  0  0  0  0  0  0  0  0  0  # atno 10764 bound_to 10752
  153.9657  135.3043  155.3410 H   0  0  0  0  0  0  0  0  0  0  0  0  # atno 10765 bound_to 10752
  140.0108  134.6299  155.9783 H   0  0  0  0  0  0  0  0  0  0  0  0  # atno 11005 bound_to 11000
  144.9741  140.8396  143.5437 LP  0  0  0  0  0  0  0  0  0  0  0  0  # atno 17320 bound_to 7965
  145.2050  139.2233  143.5173 LP  0  0  0  0  0  0  0  0  0  0  0  0  # atno 17321 bound_to 7965
  140.2552  143.3564  152.1371 LP  0  0  0  0  0  0  0  0  0  0  0  0  # atno 17342 bound_to 10162
  139.5145  144.6949  151.5658 LP  0  0  0  0  0  0  0  0  0  0  0  0  # atno 17343 bound_to 10162
  156.7202  130.4678  149.5525 LP  0  0  0  0  0  0  0  0  0  0  0  0  # atno 17370 bound_to 10713
  156.1670  130.6412  151.0791 LP  0  0  0  0  0  0  0  0  0  0  0  0  # atno 17371 bound_to 10713
  141.1710  133.6537  156.4650 LP  0  0  0  0  0  0  0  0  0  0  0  0  # atno 17394 bound_to 11000
  140.4557  134.6887  157.5061 LP  0  0  0  0  0  0  0  0  0  0  0  0  # atno 17395 bound_to 11000

$$$$
