AV-unprocessed.smi:94|AV-procd|sdf|854|dock8
  -GOLD-   2262017303D 1   1.00000     0.00000
 Structure written by MMmdl.
 53 55  0  0  0  0  0  0  0  0  1 V2000
  146.6917  127.9186  153.0728 C   0  0  0  0  0  0  0  0  0  0  0  0
  147.0205  129.2382  153.4816 O   0  0  0  0  0  0  0  0  0  0  0  0
  146.5616  130.2969  152.7235 C   0  0  0  0  0  0  0  0  0  0  0  0
  145.5818  130.1559  151.7074 C   0  0  0  0  0  0  0  0  0  0  0  0
  145.1608  131.2669  150.9540 C   0  0  0  0  0  0  0  0  0  0  0  0
  145.7155  132.5361  151.1979 C   0  0  0  0  0  0  0  0  0  0  0  0
  145.2735  133.7345  150.3835 C   0  0  0  0  0  0  0  0  0  0  0  0
  146.6849  132.6884  152.2069 C   0  0  0  0  0  0  0  0  0  0  0  0
  147.1072  131.5810  152.9799 C   0  0  0  0  0  0  0  0  0  0  0  0
  148.1718  131.7610  154.0637 C   0  0  1  0  0  0  0  0  0  0  0  0
  149.3421  130.7875  153.8463 C   0  0  0  0  0  0  0  0  0  0  0  0
  148.6639  133.1367  154.1398 N   0  0  0  0  0  0  0  0  0  0  0  0
  148.9447  133.8096  155.2665 C   0  0  0  0  0  0  0  0  0  0  0  0
  148.8274  133.3224  156.3919 O   0  0  0  0  0  0  0  0  0  0  0  0
  149.4177  135.2589  155.0775 C   0  0  0  0  0  0  0  0  0  0  0  0
  149.7351  135.9457  156.3487 N   0  0  0  0  0  0  0  0  0  0  0  0
  148.6679  136.2829  157.2182 C   0  0  0  0  0  0  0  0  0  0  0  0
  147.5013  136.0077  156.9337 O   0  0  0  0  0  0  0  0  0  0  0  0
  149.0486  136.9734  158.4452 C   0  0  0  0  0  0  0  0  0  0  0  0
  148.1011  137.3370  159.3261 F   0  0  0  0  0  0  0  0  0  0  0  0
  150.3401  137.2578  158.7097 C   0  0  0  0  0  0  0  0  0  0  0  0
  151.3716  136.9202  157.8533 N   0  0  0  0  0  0  0  0  0  0  0  0
  152.8037  137.2769  158.1804 C   0  0  1  0  0  0  0  0  0  0  0  0
  152.9400  138.7905  158.3849 C   0  0  0  0  0  0  0  0  0  0  0  0
  152.8750  138.9132  159.8925 C   0  0  0  0  0  0  0  0  0  0  0  0
  153.5626  137.6270  160.3338 C   0  0  0  0  0  0  0  0  0  0  0  0
  153.1641  136.6495  159.3776 O   0  0  0  0  0  0  0  0  0  0  0  0
  151.0839  136.2652  156.6359 C   0  0  0  0  0  0  0  0  0  0  0  0
  151.9843  135.9901  155.8398 O   0  0  0  0  0  0  0  0  0  0  0  0
  147.1300  127.2067  153.7719 H   0  0  0  0  0  0  0  0  0  0  0  0
  147.0915  127.6956  152.0827 H   0  0  0  0  0  0  0  0  0  0  0  0
  145.6128  127.7579  153.0735 H   0  0  0  0  0  0  0  0  0  0  0  0
  145.1351  129.2000  151.4808 H   0  0  0  0  0  0  0  0  0  0  0  0
  144.4139  131.1381  150.1842 H   0  0  0  0  0  0  0  0  0  0  0  0
  146.1240  134.3762  150.1517 H   0  0  0  0  0  0  0  0  0  0  0  0
  144.5431  134.3197  150.9423 H   0  0  0  0  0  0  0  0  0  0  0  0
  144.8186  133.4248  149.4421 H   0  0  0  0  0  0  0  0  0  0  0  0
  147.1083  133.6673  152.3774 H   0  0  0  0  0  0  0  0  0  0  0  0
  147.7094  131.5339  155.0256 H   0  0  0  0  0  0  0  0  0  0  0  0
  148.9950  129.7537  153.8431 H   0  0  0  0  0  0  0  0  0  0  0  0
  150.0888  130.8776  154.6356 H   0  0  0  0  0  0  0  0  0  0  0  0
  149.8400  130.9736  152.8942 H   0  0  0  0  0  0  0  0  0  0  0  0
  148.7878  133.6194  153.2618 H   0  0  0  0  0  0  0  0  0  0  0  0
  150.2825  135.2672  154.4115 H   0  0  0  0  0  0  0  0  0  0  0  0
  148.6502  135.7955  154.5180 H   0  0  0  0  0  0  0  0  0  0  0  0
  150.5648  137.7758  159.6301 H   0  0  0  0  0  0  0  0  0  0  0  0
  153.4175  136.8851  157.3679 H   0  0  0  0  0  0  0  0  0  0  0  0
  153.9183  139.1037  158.0185 H   0  0  0  0  0  0  0  0  0  0  0  0
  152.1680  139.3530  157.8579 H   0  0  0  0  0  0  0  0  0  0  0  0
  153.3651  139.8102  160.2716 H   0  0  0  0  0  0  0  0  0  0  0  0
  151.8370  138.9229  160.2272 H   0  0  0  0  0  0  0  0  0  0  0  0
  154.6465  137.7411  160.2890 H   0  0  0  0  0  0  0  0  0  0  0  0
  153.2923  137.3302  161.3473 H   0  0  0  0  0  0  0  0  0  0  0  0
  1  2  1  0  0  0  0
  1 30  1  0  0  0  0
  1 31  1  0  0  0  0
  1 32  1  0  0  0  0
  2  3  1  0  0  0  0
  3  9  1  0  0  0  0
  3  4  2  0  0  0  0
  4  5  1  0  0  0  0
  4 33  1  0  0  0  0
  5  6  2  0  0  0  0
  5 34  1  0  0  0  0
  6  7  1  0  0  0  0
  6  8  1  0  0  0  0
  7 35  1  0  0  0  0
  7 36  1  0  0  0  0
  7 37  1  0  0  0  0
  8  9  2  0  0  0  0
  8 38  1  0  0  0  0
  9 10  1  0  0  0  0
 10 11  1  0  0  0  0
 10 12  1  0  0  0  0
 10 39  1  0  0  0  0
 11 40  1  0  0  0  0
 11 41  1  0  0  0  0
 11 42  1  0  0  0  0
 12 13  1  0  0  0  0
 12 43  1  0  0  0  0
 13 14  2  0  0  0  0
 13 15  1  0  0  0  0
 15 16  1  0  0  0  0
 15 44  1  0  0  0  0
 15 45  1  0  0  0  0
 16 28  1  0  0  0  0
 16 17  1  0  0  0  0
 17 18  2  0  0  0  0
 17 19  1  0  0  0  0
 19 20  1  0  0  0  0
 19 21  2  0  0  0  0
 21 22  1  0  0  0  0
 21 46  1  0  0  0  0
 22 23  1  0  0  0  0
 22 28  1  0  0  0  0
 23 27  1  0  0  0  0
 23 24  1  0  0  0  0
 23 47  1  0  0  0  0
 24 25  1  0  0  0  0
 24 48  1  0  0  0  0
 24 49  1  0  0  0  0
 25 26  1  0  0  0  0
 25 50  1  0  0  0  0
 25 51  1  0  0  0  0
 26 27  1  0  0  0  0
 26 52  1  0  0  0  0
 26 53  1  0  0  0  0
 28 29  2  0  0  0  0
M  END
> <s_m_source_file>
AV-unprocessed.smi

> <i_m_source_file_index>
94

> <i_lp_mmshare_version>
43012

> <i_f3d_flags>
0

> <s_epik_input>
W0NIM11PYzFbY0hdW2NIXWMoW0NIM10pW2NIXWMxW0NASF0oW0NIM10pW05IXUMoPU8pW0NIMl1uMmMoPU8pYyhGKVtjSF1uKGMyPU8pW0NAQEhdM1tDSDJdW0NIMl1bQ0gyXU8z

> <s_epik_cmdline>
J2VwaWtfcHl0aG9uJywgJy1waCcsICc3LjAnLCAnLXRuJywgJzgnLCAnLW1hJywgJzIwMCcsICctbWV0YWxfYmluZGluZycsICctaW1hZScsICc8aW5maWxlLm1hZT4nLCAnLW9tYWUnLCAnPG91dGZpbGUubWFlPic=

> <r_lp_tautomer_probability>
1

> <r_epik_Ionization_Penalty>
3.37009e-08

> <r_epik_Ionization_Penalty_Charging>
3.59856e-09

> <r_epik_Ionization_Penalty_Neutral>
3.01024e-08

> <r_epik_State_Penalty>
-0

> <r_epik_Charging_Adjusted_Penalty>
3.59856e-09

> <i_epik_Tot_Q>
0

> <i_epik_Tot_abs_Q>
0

> <r_epik_Metal_State_Penalty>
-0

> <b_epik_Metal_Only>
0

> <s_epik_Chemistry_Notes>
This compound contains an acetal/aminal-like group ( X-CH(R)-Y where X, Y are N, S, or O) that may be acid/base labile, releasing an aldehyde.

> <s_lp_Force_Field>
OPLS_2005

> <r_lp_Energy>
32.8189

> <b_lp_Chiralities_Consistent>
1

> <s_lp_Variant>
AV-unprocessed.smi:94-4

> <Gold.Version>
5.8.1

> <Gold.Id.Protein>
6NUR|6NUR_protein|mol2

> <Gold.PLP.Fitness>
42.4608

> <Gold.PLP.PLP>
-37.5889

> <Gold.PLP.part.hbond>
-2.0000

> <Gold.PLP.part.metal>
0.0000

> <Gold.PLP.part.buried>
-6.5170

> <Gold.PLP.part.nonpolar>
-30.2976

> <Gold.PLP.part.repulsive>
0.1284

> <Gold.PLP.ligand.clash>
0.0000

> <Gold.PLP.ligand.torsion>
0.5832

> <Gold.PLP.Chemscore.Hbond>
1.9913

> <Gold.PLP.Chemscore.CHOScore>
0.0000

> <Gold.PLP.Chemscore.Metal>
0.0000

> <Gold.Chemscore.Hbonds>
donor molecule, donor type, donor heavy atom, donor atom, acceptor molecule, acceptor atom, score
      P1  H  6896  6909       L1    27  0.93
      P1  H 10752 10763       L1    29  0.88

> <Gold.PLP.Chemscore.Internal.Correction>
0.0646

> <Gold.Rescore>
     Score         DG    S(hbond)    S(metal)    S(lipo)     H(rot)  DE(clash)    DE(int)     intcor
     15.80     -17.92       1.96        0.00     101.51       2.34       0.10       2.02       ----

> <Gold.Chemscore.Fitness>
15.8028

> <Gold.Chemscore.DG>
-17.9237

> <Gold.Chemscore.ZeroCoef>
-5.4800

> <Gold.Chemscore.Hbond>
1.9608

> <Gold.Chemscore.Metal>
0.0000

> <Gold.Chemscore.Lipo>
101.5143

> <Gold.Chemscore.Internal_Hbond>
0.0000

> <Gold.Chemscore.DEClash>
0.1000

> <Gold.Chemscore.DEInternal>
2.0209

> <Gold.Chemscore.Rot>
2.3370

> <Gold.Chemscore.Internal.Correction>
   9.000000E+99

> <Gold.Chemscore.Hbonds>
donor molecule, donor type, donor heavy atom, donor atom, acceptor molecule, acceptor atom, score
      P1  H  6896  6909       L1    27  0.82
      P1  H 10752 10763       L1    29  0.86

> <Gold.Chemscore.Hbond.Weighted>
-6.5492

> <Gold.Chemscore.Metal.Weighted>
-0.0000

> <Gold.Chemscore.Lipo.Weighted>
-11.8772

> <Gold.Chemscore.Internal_Hbond.Weighted>
0.0000

> <Gold.Chemscore.DEClash.Weighted>
0.1000

> <Gold.Chemscore.DEInternal.Weighted>
2.0209

> <Gold.Chemscore.Rot.Weighted>
5.9827

> <Gold.Chemscore.Internal.Correction.Weighted>
   9.000000E+99

> <Gold.Protein.RotatedTorsions>
[ 6907 6896 6895 6894 ] final  152.34 input  -60.11 | X-H torsion
[ 7974 7965 7964 7962 ] final    0.62 input  175.53 | X-H torsion
[ 8008 7997 7996 7995 ] final   46.73 input   59.86 | X-H torsion
[ 10167 10162 10161 10158 ] final   65.10 input  -65.29 | X-H torsion
[ 10718 10713 10712 10709 ] final   28.46 input   66.30 | X-H torsion
[ 10763 10752 10751 10750 ] final   83.14 input  -60.55 | X-H torsion
[ 11005 11000 10999 10996 ] final   93.01 input  -57.11 | X-H torsion

> <Gold.Protein.ActiveResidues>
 VAL166  LYS551  ARG553  GLY616  TRP617  ASP618  TYR619  PRO620  LYS621  CYS622 
 ASP623  PHE694  ASN695  SER759  ASP760  ASP761  ALA762  ILE779  LEU786  VAL792 
 PHE793  MET794  SER795  GLU796  ALA797  LYS798  CYS799  TRP800  GLU811  SER814 

> <Gold.Protein.RotatedAtoms>
  152.0880  133.4186  159.4530 H   0  0  0  0  0  0  0  0  0  0  0  0  # atno 6907 bound_to 6896
  150.6862  134.2904  159.4673 H   0  0  0  0  0  0  0  0  0  0  0  0  # atno 6908 bound_to 6896
  152.0753  134.9506  160.0625 H   0  0  0  0  0  0  0  0  0  0  0  0  # atno 6909 bound_to 6896
  146.2435  140.1110  142.8344 H   0  0  0  0  0  0  0  0  0  0  0  0  # atno 7974 bound_to 7965
  155.3573  140.3417  155.4240 H   0  0  0  0  0  0  0  0  0  0  0  0  # atno 8008 bound_to 7997
  156.1732  140.1639  156.8444 H   0  0  0  0  0  0  0  0  0  0  0  0  # atno 8009 bound_to 7997
  154.5255  140.0757  156.8233 H   0  0  0  0  0  0  0  0  0  0  0  0  # atno 8010 bound_to 7997
  140.1150  144.4783  150.6955 H   0  0  0  0  0  0  0  0  0  0  0  0  # atno 10167 bound_to 10162
  157.2337  130.7036  149.6326 H   0  0  0  0  0  0  0  0  0  0  0  0  # atno 10718 bound_to 10713
  153.1265  135.4702  154.9280 H   0  0  0  0  0  0  0  0  0  0  0  0  # atno 10763 bound_to 10752
  154.7624  135.3135  154.8354 H   0  0  0  0  0  0  0  0  0  0  0  0  # atno 10764 bound_to 10752
  153.8906  135.6885  153.4814 H   0  0  0  0  0  0  0  0  0  0  0  0  # atno 10765 bound_to 10752
  139.8815  134.8765  156.3655 H   0  0  0  0  0  0  0  0  0  0  0  0  # atno 11005 bound_to 11000
  145.0487  140.9001  143.5008 LP  0  0  0  0  0  0  0  0  0  0  0  0  # atno 17320 bound_to 7965
  145.1203  139.2698  143.5591 LP  0  0  0  0  0  0  0  0  0  0  0  0  # atno 17321 bound_to 7965
  140.6904  143.2373  151.5146 LP  0  0  0  0  0  0  0  0  0  0  0  0  # atno 17342 bound_to 10162
  139.5599  144.2183  152.1674 LP  0  0  0  0  0  0  0  0  0  0  0  0  # atno 17343 bound_to 10162
  155.9674  130.4480  150.5603 LP  0  0  0  0  0  0  0  0  0  0  0  0  # atno 17370 bound_to 10713
  157.3451  131.0723  151.1758 LP  0  0  0  0  0  0  0  0  0  0  0  0  # atno 17371 bound_to 10713
  140.9500  133.7457  156.0259 LP  0  0  0  0  0  0  0  0  0  0  0  0  # atno 17394 bound_to 11000
  140.8117  134.3391  157.5409 LP  0  0  0  0  0  0  0  0  0  0  0  0  # atno 17395 bound_to 11000

$$$$
