AV-unprocessed.smi:3267|AV-procd|sdf|12504|dock1
  -GOLD-   2272018413D 1   1.00000     0.00000
 Structure written by MMmdl.
 38 39  0  0  0  0  0  0  0  0  1 V2000
  147.1081  140.3848  154.2709 C   0  0  0  0  0  0  0  0  0  0  0  0
  146.6273  141.7814  154.6894 C   0  0  2  0  0  0  0  0  0  0  0  0
  146.3385  142.6844  153.4655 C   0  0  0  0  0  0  0  0  0  0  0  0
  145.3947  143.7410  153.7774 N   0  0  0  0  0  0  0  0  0  0  0  0
  144.9611  144.7703  152.9690 C   0  0  0  0  0  0  0  0  0  0  0  0
  144.0805  145.5161  153.6990 C   0  0  0  0  0  0  0  0  0  0  0  0
  144.0420  144.8557  154.9589 C   0  0  0  0  0  0  0  0  0  0  0  0
  144.8312  143.7942  155.0033 N   0  0  0  0  0  0  0  0  0  0  0  0
  147.6303  142.3907  155.5595 N   0  0  0  0  0  0  0  0  0  0  0  0
  148.1777  141.8097  156.6365 C   0  0  0  0  0  0  0  0  0  0  0  0
  147.9053  140.6729  157.0226 O   0  0  0  0  0  0  0  0  0  0  0  0
  149.0549  142.6193  157.2449 N   0  0  0  0  0  0  0  0  0  0  0  0
  149.8255  142.2730  158.4336 C   0  0  0  0  0  0  0  0  0  0  0  0
  151.2843  142.7431  158.3144 C   0  0  2  0  0  0  0  0  0  0  0  0
  152.0475  142.7124  159.6370 C   0  0  0  0  0  0  0  0  0  0  0  0
  153.1266  143.7413  159.3908 C   0  0  0  0  0  0  0  0  0  0  0  0
  152.3716  144.7987  158.5910 C   0  0  0  0  0  0  0  0  0  0  0  0
  151.3414  144.1040  157.8920 O   0  0  0  0  0  0  0  0  0  0  0  0
  146.3620  139.8861  153.6513 H   0  0  0  0  0  0  0  0  0  0  0  0
  147.2869  139.7527  155.1416 H   0  0  0  0  0  0  0  0  0  0  0  0
  148.0354  140.4365  153.6991 H   0  0  0  0  0  0  0  0  0  0  0  0
  145.7123  141.6410  155.2690 H   0  0  0  0  0  0  0  0  0  0  0  0
  147.2513  143.1463  153.0856 H   0  0  0  0  0  0  0  0  0  0  0  0
  145.9368  142.1017  152.6349 H   0  0  0  0  0  0  0  0  0  0  0  0
  145.3138  144.8857  151.9546 H   0  0  0  0  0  0  0  0  0  0  0  0
  143.5462  146.3992  153.3819 H   0  0  0  0  0  0  0  0  0  0  0  0
  143.4685  145.1141  155.8366 H   0  0  0  0  0  0  0  0  0  0  0  0
  147.9265  143.3266  155.3239 H   0  0  0  0  0  0  0  0  0  0  0  0
  149.2134  143.5353  156.8511 H   0  0  0  0  0  0  0  0  0  0  0  0
  149.3517  142.7351  159.3002 H   0  0  0  0  0  0  0  0  0  0  0  0
  149.7889  141.1950  158.6001 H   0  0  0  0  0  0  0  0  0  0  0  0
  151.8238  142.1397  157.5825 H   0  0  0  0  0  0  0  0  0  0  0  0
  151.4076  143.0336  160.4602 H   0  0  0  0  0  0  0  0  0  0  0  0
  152.4437  141.7252  159.8758 H   0  0  0  0  0  0  0  0  0  0  0  0
  153.5659  144.1330  160.3088 H   0  0  0  0  0  0  0  0  0  0  0  0
  153.9243  143.3094  158.7850 H   0  0  0  0  0  0  0  0  0  0  0  0
  151.9064  145.5229  159.2604 H   0  0  0  0  0  0  0  0  0  0  0  0
  153.0221  145.3417  157.9052 H   0  0  0  0  0  0  0  0  0  0  0  0
  1  2  1  0  0  0  0
  1 19  1  0  0  0  0
  1 20  1  0  0  0  0
  1 21  1  0  0  0  0
  2  3  1  0  0  0  0
  2  9  1  0  0  0  0
  2 22  1  0  0  0  0
  3  4  1  0  0  0  0
  3 23  1  0  0  0  0
  3 24  1  0  0  0  0
  4  8  1  0  0  0  0
  4  5  1  0  0  0  0
  5  6  2  0  0  0  0
  5 25  1  0  0  0  0
  6  7  1  0  0  0  0
  6 26  1  0  0  0  0
  7  8  2  0  0  0  0
  7 27  1  0  0  0  0
  9 10  1  0  0  0  0
  9 28  1  0  0  0  0
 10 11  2  0  0  0  0
 10 12  1  0  0  0  0
 12 13  1  0  0  0  0
 12 29  1  0  0  0  0
 13 14  1  0  0  0  0
 13 30  1  0  0  0  0
 13 31  1  0  0  0  0
 14 18  1  0  0  0  0
 14 15  1  0  0  0  0
 14 32  1  0  0  0  0
 15 16  1  0  0  0  0
 15 33  1  0  0  0  0
 15 34  1  0  0  0  0
 16 17  1  0  0  0  0
 16 35  1  0  0  0  0
 16 36  1  0  0  0  0
 17 18  1  0  0  0  0
 17 37  1  0  0  0  0
 17 38  1  0  0  0  0
M  END
> <s_m_source_file>
AV-unprocessed.smi

> <i_m_source_file_index>
3267

> <i_lp_mmshare_version>
43012

> <i_f3d_flags>
0

> <s_epik_input>
bjFbY0hdW2NIXVtjSF1uMVtDSDJdW0NAQEhdKFtDSDNdKVtOSF1DKD1PKVtOSF1bQ0gyXVtDQEBIXTJbQ0gyXVtDSDJdW0NIMl1PMg==

> <s_epik_cmdline>
J2VwaWtfcHl0aG9uJywgJy1waCcsICc3LjAnLCAnLXRuJywgJzgnLCAnLW1hJywgJzIwMCcsICctbWV0YWxfYmluZGluZycsICctaW1hZScsICc8aW5maWxlLm1hZT4nLCAnLW9tYWUnLCAnPG91dGZpbGUubWFlPic=

> <r_lp_tautomer_probability>
1

> <r_epik_Ionization_Penalty>
6.24796e-05

> <r_epik_Ionization_Penalty_Charging>
0

> <r_epik_Ionization_Penalty_Neutral>
6.24796e-05

> <r_epik_State_Penalty>
-0

> <r_epik_Charging_Adjusted_Penalty>
0

> <i_epik_Tot_Q>
0

> <i_epik_Tot_abs_Q>
0

> <r_epik_Metal_State_Penalty>
-0

> <b_epik_Metal_Only>
0

> <s_lp_Force_Field>
OPLS_2005

> <r_lp_Energy>
17.87

> <b_lp_Chiralities_Consistent>
1

> <s_lp_Variant>
AV-unprocessed.smi:3267-1

> <Gold.Version>
5.8.1

> <Gold.Id.Protein>
6NUR|6NUR_protein|mol2

> <Gold.PLP.Fitness>
43.2516

> <Gold.PLP.PLP>
-38.2562

> <Gold.PLP.part.hbond>
-2.0000

> <Gold.PLP.part.metal>
0.0000

> <Gold.PLP.part.buried>
-6.9716

> <Gold.PLP.part.nonpolar>
-29.9606

> <Gold.PLP.part.repulsive>
0.4359

> <Gold.PLP.ligand.clash>
0.0000

> <Gold.PLP.ligand.torsion>
0.5155

> <Gold.PLP.Chemscore.Hbond>
2.0000

> <Gold.PLP.Chemscore.CHOScore>
0.0000

> <Gold.PLP.Chemscore.Metal>
0.0000

> <Gold.Chemscore.Hbonds>
donor molecule, donor type, donor heavy atom, donor atom, acceptor molecule, acceptor atom, score
      L1  H     9    28       P1  8028  1.00
      L1  H    12    29       P1  8028  1.00

> <Gold.PLP.Chemscore.Internal.Correction>
0.0265

> <Gold.Rescore>
     Score         DG    S(hbond)    S(metal)    S(lipo)     H(rot)  DE(clash)    DE(int)     intcor
     15.50     -17.36       1.72        0.00      93.32       1.87       0.01       1.85       ----

> <Gold.Chemscore.Fitness>
15.4989

> <Gold.Chemscore.DG>
-17.3604

> <Gold.Chemscore.ZeroCoef>
-5.4800

> <Gold.Chemscore.Hbond>
1.7231

> <Gold.Chemscore.Metal>
0.0000

> <Gold.Chemscore.Lipo>
93.3194

> <Gold.Chemscore.Internal_Hbond>
0.0000

> <Gold.Chemscore.DEClash>
0.0126

> <Gold.Chemscore.DEInternal>
1.8489

> <Gold.Chemscore.Rot>
1.8724

> <Gold.Chemscore.Internal.Correction>
   9.000000E+99

> <Gold.Chemscore.Hbonds>
donor molecule, donor type, donor heavy atom, donor atom, acceptor molecule, acceptor atom, score
      L1  H     9    28       P1  8028  0.58
      L1  H    12    29       P1  8028  0.84

> <Gold.Chemscore.Hbond.Weighted>
-5.7553

> <Gold.Chemscore.Metal.Weighted>
-0.0000

> <Gold.Chemscore.Lipo.Weighted>
-10.9184

> <Gold.Chemscore.Internal_Hbond.Weighted>
0.0000

> <Gold.Chemscore.DEClash.Weighted>
0.0126

> <Gold.Chemscore.DEInternal.Weighted>
1.8489

> <Gold.Chemscore.Rot.Weighted>
4.7933

> <Gold.Chemscore.Internal.Correction.Weighted>
   9.000000E+99

> <Gold.Protein.RotatedTorsions>
[ 6907 6896 6895 6894 ] final   41.40 input  -60.11 | X-H torsion
[ 7974 7965 7964 7962 ] final   22.41 input  175.53 | X-H torsion
[ 8008 7997 7996 7995 ] final   19.08 input   59.86 | X-H torsion
[ 10167 10162 10161 10158 ] final   41.36 input  -65.29 | X-H torsion
[ 10718 10713 10712 10709 ] final  -20.47 input   66.30 | X-H torsion
[ 10763 10752 10751 10750 ] final  101.48 input  -60.55 | X-H torsion
[ 11005 11000 10999 10996 ] final  171.65 input  -57.11 | X-H torsion

> <Gold.Protein.ActiveResidues>
 VAL166  LYS551  ARG553  GLY616  TRP617  ASP618  TYR619  PRO620  LYS621  CYS622 
 ASP623  PHE694  ASN695  SER759  ASP760  ASP761  ALA762  ILE779  LEU786  VAL792 
 PHE793  MET794  SER795  GLU796  ALA797  LYS798  CYS799  TRP800  GLU811  SER814 

> <Gold.Protein.RotatedAtoms>
  152.1948  134.8640  160.0513 H   0  0  0  0  0  0  0  0  0  0  0  0  # atno 6907 bound_to 6896
  151.9515  133.3662  159.4010 H   0  0  0  0  0  0  0  0  0  0  0  0  # atno 6908 bound_to 6896
  150.6942  134.4259  159.5270 H   0  0  0  0  0  0  0  0  0  0  0  0  # atno 6909 bound_to 6896
  146.2030  139.7889  142.8747 H   0  0  0  0  0  0  0  0  0  0  0  0  # atno 7974 bound_to 7965
  154.9154  140.3020  155.5244 H   0  0  0  0  0  0  0  0  0  0  0  0  # atno 8008 bound_to 7997
  156.3013  140.2381  156.4134 H   0  0  0  0  0  0  0  0  0  0  0  0  # atno 8009 bound_to 7997
  154.8383  140.0415  157.1513 H   0  0  0  0  0  0  0  0  0  0  0  0  # atno 8010 bound_to 7997
  140.3650  144.2179  150.6136 H   0  0  0  0  0  0  0  0  0  0  0  0  # atno 10167 bound_to 10162
  156.5314  130.4656  149.6545 H   0  0  0  0  0  0  0  0  0  0  0  0  # atno 10718 bound_to 10713
  153.3272  135.4043  155.1466 H   0  0  0  0  0  0  0  0  0  0  0  0  # atno 10763 bound_to 10752
  154.8614  135.3602  154.5518 H   0  0  0  0  0  0  0  0  0  0  0  0  # atno 10764 bound_to 10752
  153.5954  135.7072  153.5465 H   0  0  0  0  0  0  0  0  0  0  0  0  # atno 10765 bound_to 10752
  140.3213  134.7435  157.4066 H   0  0  0  0  0  0  0  0  0  0  0  0  # atno 11005 bound_to 11000
  145.3419  141.0289  143.3388 LP  0  0  0  0  0  0  0  0  0  0  0  0  # atno 17320 bound_to 7965
  144.8726  139.5016  143.6760 LP  0  0  0  0  0  0  0  0  0  0  0  0  # atno 17321 bound_to 7965
  140.5089  143.2296  151.8565 LP  0  0  0  0  0  0  0  0  0  0  0  0  # atno 17342 bound_to 10162
  139.4810  144.4973  151.9107 LP  0  0  0  0  0  0  0  0  0  0  0  0  # atno 17343 bound_to 10162
  156.3056  130.7201  151.2082 LP  0  0  0  0  0  0  0  0  0  0  0  0  # atno 17370 bound_to 10713
  157.7421  131.0495  150.5049 LP  0  0  0  0  0  0  0  0  0  0  0  0  # atno 17371 bound_to 10713
  140.0939  134.5563  155.8417 LP  0  0  0  0  0  0  0  0  0  0  0  0  # atno 17394 bound_to 11000
  141.2086  133.6675  156.6381 LP  0  0  0  0  0  0  0  0  0  0  0  0  # atno 17395 bound_to 11000

$$$$
