AV-unprocessed.smi:2284|AV-procd|sdf|9201|dock6
  -GOLD-   2272012413D 1   1.00000     0.00000
 Structure written by MMmdl.
 44 45  0  0  0  0  0  0  0  0  1 V2000
  151.1091  145.1081  159.0330 C   0  0  0  0  0  0  0  0  0  0  0  0
  151.8171  143.8481  159.4868 C   0  0  0  0  0  0  0  0  0  0  0  0
  152.5348  143.8318  160.6983 C   0  0  0  0  0  0  0  0  0  0  0  0
  153.1913  142.6580  161.1098 C   0  0  0  0  0  0  0  0  0  0  0  0
  153.1347  141.4948  160.3145 C   0  0  0  0  0  0  0  0  0  0  0  0
  153.8487  140.2370  160.7731 C   0  0  0  0  0  0  0  0  0  0  0  0
  152.4185  141.4977  159.0952 C   0  0  0  0  0  0  0  0  0  0  0  0
  152.4058  140.3273  158.3652 O   0  0  0  0  0  0  0  0  0  0  0  0
  151.6881  140.2972  157.1376 C   0  0  0  0  0  0  0  0  0  0  0  0
  151.9802  138.9828  156.3944 C   0  0  2  0  0  0  0  0  0  0  0  0
  153.3593  138.7053  156.5330 O   0  0  0  0  0  0  0  0  0  0  0  0
  151.5845  139.0321  154.9013 C   0  0  0  0  0  0  0  0  0  0  0  0
  150.1355  138.8607  154.7033 N   0  0  0  0  0  0  0  0  0  0  0  0
  149.6041  137.6085  155.0523 C   0  0  0  0  0  0  0  0  0  0  0  0
  148.3446  137.3460  154.9247 N   0  0  0  0  0  0  0  0  0  0  0  0
  147.4749  138.3232  154.4321 C   0  0  0  0  0  0  0  0  0  0  0  0
  146.0169  137.9121  154.3287 C   0  0  0  0  0  0  0  0  0  0  0  0
  147.9259  139.5579  154.0792 C   0  0  0  0  0  0  0  0  0  0  0  0
  147.0241  140.6646  153.5463 C   0  0  0  0  0  0  0  0  0  0  0  0
  149.3573  139.8711  154.2182 C   0  0  0  0  0  0  0  0  0  0  0  0
  149.8330  140.9695  153.9244 O   0  0  0  0  0  0  0  0  0  0  0  0
  151.7602  142.6868  158.6900 C   0  0  0  0  0  0  0  0  0  0  0  0
  151.1002  145.8643  159.8186 H   0  0  0  0  0  0  0  0  0  0  0  0
  150.0760  144.8875  158.7633 H   0  0  0  0  0  0  0  0  0  0  0  0
  151.6104  145.5279  158.1605 H   0  0  0  0  0  0  0  0  0  0  0  0
  152.5858  144.7170  161.3154 H   0  0  0  0  0  0  0  0  0  0  0  0
  153.7401  142.6555  162.0401 H   0  0  0  0  0  0  0  0  0  0  0  0
  153.1379  139.4177  160.8857 H   0  0  0  0  0  0  0  0  0  0  0  0
  154.3481  140.3865  161.7308 H   0  0  0  0  0  0  0  0  0  0  0  0
  154.6008  139.9414  160.0410 H   0  0  0  0  0  0  0  0  0  0  0  0
  150.6155  140.4116  157.3045 H   0  0  0  0  0  0  0  0  0  0  0  0
  152.0176  141.1298  156.5138 H   0  0  0  0  0  0  0  0  0  0  0  0
  151.4370  138.1868  156.9052 H   0  0  0  0  0  0  0  0  0  0  0  0
  153.6565  138.2591  155.7550 H   0  0  0  0  0  0  0  0  0  0  0  0
  151.8762  139.9979  154.4841 H   0  0  0  0  0  0  0  0  0  0  0  0
  152.1670  138.3074  154.3281 H   0  0  0  0  0  0  0  0  0  0  0  0
  150.3228  136.8839  155.4389 H   0  0  0  0  0  0  0  0  0  0  0  0
  145.6776  137.9661  153.2940 H   0  0  0  0  0  0  0  0  0  0  0  0
  145.3910  138.5669  154.9357 H   0  0  0  0  0  0  0  0  0  0  0  0
  145.8663  136.8895  154.6769 H   0  0  0  0  0  0  0  0  0  0  0  0
  147.0388  141.5188  154.2238 H   0  0  0  0  0  0  0  0  0  0  0  0
  145.9869  140.3548  153.4305 H   0  0  0  0  0  0  0  0  0  0  0  0
  147.3750  141.0005  152.5700 H   0  0  0  0  0  0  0  0  0  0  0  0
  151.2026  142.7331  157.7671 H   0  0  0  0  0  0  0  0  0  0  0  0
  1  2  1  0  0  0  0
  1 23  1  0  0  0  0
  1 24  1  0  0  0  0
  1 25  1  0  0  0  0
  2 22  1  0  0  0  0
  2  3  2  0  0  0  0
  3  4  1  0  0  0  0
  3 26  1  0  0  0  0
  4  5  2  0  0  0  0
  4 27  1  0  0  0  0
  5  6  1  0  0  0  0
  5  7  1  0  0  0  0
  6 28  1  0  0  0  0
  6 29  1  0  0  0  0
  6 30  1  0  0  0  0
  7  8  1  0  0  0  0
  7 22  2  0  0  0  0
  8  9  1  0  0  0  0
  9 10  1  0  0  0  0
  9 31  1  0  0  0  0
  9 32  1  0  0  0  0
 10 11  1  0  0  0  0
 10 12  1  0  0  0  0
 10 33  1  0  0  0  0
 11 34  1  0  0  0  0
 12 13  1  0  0  0  0
 12 35  1  0  0  0  0
 12 36  1  0  0  0  0
 13 20  1  0  0  0  0
 13 14  1  0  0  0  0
 14 15  2  0  0  0  0
 14 37  1  0  0  0  0
 15 16  1  0  0  0  0
 16 17  1  0  0  0  0
 16 18  2  0  0  0  0
 17 38  1  0  0  0  0
 17 39  1  0  0  0  0
 17 40  1  0  0  0  0
 18 19  1  0  0  0  0
 18 20  1  0  0  0  0
 19 41  1  0  0  0  0
 19 42  1  0  0  0  0
 19 43  1  0  0  0  0
 20 21  2  0  0  0  0
 22 44  1  0  0  0  0
M  END
> <s_m_source_file>
AV-unprocessed.smi

> <i_m_source_file_index>
2284

> <i_lp_mmshare_version>
43012

> <i_f3d_flags>
0

> <s_epik_input>
W0NIM11jMVtjSF1bY0hdYyhbQ0gzXSljKFtjSF0xKU9bQ0gyXVtDQEhdKFtPSF0pW0NIMl1uMltjSF1uYyhbQ0gzXSljKFtDSDNdKWMyPU8=

> <s_epik_cmdline>
J2VwaWtfcHl0aG9uJywgJy1waCcsICc3LjAnLCAnLXRuJywgJzgnLCAnLW1hJywgJzIwMCcsICctbWV0YWxfYmluZGluZycsICctaW1hZScsICc8aW5maWxlLm1hZT4nLCAnLW9tYWUnLCAnPG91dGZpbGUubWFlPic=

> <r_lp_tautomer_probability>
1

> <r_epik_Ionization_Penalty>
3.7476e-05

> <r_epik_Ionization_Penalty_Charging>
8.44705e-08

> <r_epik_Ionization_Penalty_Neutral>
3.73915e-05

> <r_epik_State_Penalty>
-0

> <r_epik_Charging_Adjusted_Penalty>
8.44705e-08

> <i_epik_Tot_Q>
0

> <i_epik_Tot_abs_Q>
0

> <r_epik_Metal_State_Penalty>
-0

> <b_epik_Metal_Only>
0

> <s_lp_Force_Field>
OPLS_2005

> <r_lp_Energy>
24.4024

> <b_lp_Chiralities_Consistent>
1

> <s_lp_Variant>
AV-unprocessed.smi:2284-1

> <Gold.Version>
5.8.1

> <Gold.Id.Protein>
6NUR|6NUR_protein|mol2

> <Gold.PLP.Fitness>
48.9151

> <Gold.PLP.PLP>
-43.1416

> <Gold.PLP.part.hbond>
-2.8655

> <Gold.PLP.part.metal>
0.0000

> <Gold.PLP.part.buried>
-3.1748

> <Gold.PLP.part.nonpolar>
-38.8394

> <Gold.PLP.part.repulsive>
1.1954

> <Gold.PLP.ligand.clash>
0.0000

> <Gold.PLP.ligand.torsion>
0.3800

> <Gold.PLP.Chemscore.Hbond>
2.1636

> <Gold.PLP.Chemscore.CHOScore>
0.0000

> <Gold.PLP.Chemscore.Metal>
0.0000

> <Gold.Chemscore.Hbonds>
donor molecule, donor type, donor heavy atom, donor atom, acceptor molecule, acceptor atom, score
      P1  H  7989  7998       L1    21  0.45
      P1  H  7997  8009       L1    11  1.00
      P1  H  8011  8017       L1    21  0.63

> <Gold.PLP.Chemscore.Internal.Correction>
0.0428

> <Gold.Rescore>
     Score         DG    S(hbond)    S(metal)    S(lipo)     H(rot)  DE(clash)    DE(int)     intcor
     18.59     -20.55       1.99        0.00     122.75       2.32       1.62       0.34       ----

> <Gold.Chemscore.Fitness>
18.5852

> <Gold.Chemscore.DG>
-20.5525

> <Gold.Chemscore.ZeroCoef>
-5.4800

> <Gold.Chemscore.Hbond>
1.9937

> <Gold.Chemscore.Metal>
0.0000

> <Gold.Chemscore.Lipo>
122.7502

> <Gold.Chemscore.Internal_Hbond>
0.0000

> <Gold.Chemscore.DEClash>
1.6227

> <Gold.Chemscore.DEInternal>
0.3446

> <Gold.Chemscore.Rot>
2.3236

> <Gold.Chemscore.Internal.Correction>
   9.000000E+99

> <Gold.Chemscore.Hbonds>
donor molecule, donor type, donor heavy atom, donor atom, acceptor molecule, acceptor atom, score
      P1  H  7989  7998       L1    21  0.39
      P1  H  7997  8009       L1    11  0.26
      P1  H  8011  8017       L1    21  0.61

> <Gold.Chemscore.Hbond.Weighted>
-6.6591

> <Gold.Chemscore.Metal.Weighted>
-0.0000

> <Gold.Chemscore.Lipo.Weighted>
-14.3618

> <Gold.Chemscore.Internal_Hbond.Weighted>
0.0000

> <Gold.Chemscore.DEClash.Weighted>
1.6227

> <Gold.Chemscore.DEInternal.Weighted>
0.3446

> <Gold.Chemscore.Rot.Weighted>
5.9484

> <Gold.Chemscore.Internal.Correction.Weighted>
   9.000000E+99

> <Gold.Protein.RotatedTorsions>
[ 6907 6896 6895 6894 ] final   68.59 input  -60.11 | X-H torsion
[ 7974 7965 7964 7962 ] final -171.86 input  175.53 | X-H torsion
[ 8008 7997 7996 7995 ] final -173.90 input   59.86 | X-H torsion
[ 10167 10162 10161 10158 ] final  172.15 input  -65.29 | X-H torsion
[ 10718 10713 10712 10709 ] final  -76.53 input   66.30 | X-H torsion
[ 10763 10752 10751 10750 ] final  -47.60 input  -60.55 | X-H torsion
[ 11005 11000 10999 10996 ] final   69.86 input  -57.11 | X-H torsion

> <Gold.Protein.ActiveResidues>
 VAL166  LYS551  ARG553  GLY616  TRP617  ASP618  TYR619  PRO620  LYS621  CYS622 
 ASP623  PHE694  ASN695  SER759  ASP760  ASP761  ALA762  ILE779  LEU786  VAL792 
 PHE793  MET794  SER795  GLU796  ALA797  LYS798  CYS799  TRP800  GLU811  SER814 

> <Gold.Protein.RotatedAtoms>
  152.4631  134.5139  159.9761 H   0  0  0  0  0  0  0  0  0  0  0  0  # atno 6907 bound_to 6896
  151.5183  133.3465  159.2905 H   0  0  0  0  0  0  0  0  0  0  0  0  # atno 6908 bound_to 6896
  150.8602  134.7981  159.7139 H   0  0  0  0  0  0  0  0  0  0  0  0  # atno 6909 bound_to 6896
  144.7152  140.1859  143.6353 H   0  0  0  0  0  0  0  0  0  0  0  0  # atno 7974 bound_to 7965
  155.9632  140.1148  157.0877 H   0  0  0  0  0  0  0  0  0  0  0  0  # atno 8008 bound_to 7997
  154.4137  140.1178  156.5274 H   0  0  0  0  0  0  0  0  0  0  0  0  # atno 8009 bound_to 7997
  155.6693  140.3473  155.4814 H   0  0  0  0  0  0  0  0  0  0  0  0  # atno 8010 bound_to 7997
  139.5068  144.3406  152.0022 H   0  0  0  0  0  0  0  0  0  0  0  0  # atno 10167 bound_to 10162
  156.0172  130.4468  150.3207 H   0  0  0  0  0  0  0  0  0  0  0  0  # atno 10718 bound_to 10713
  154.0640  135.6614  153.4815 H   0  0  0  0  0  0  0  0  0  0  0  0  # atno 10763 bound_to 10752
  153.0416  135.5141  154.7632 H   0  0  0  0  0  0  0  0  0  0  0  0  # atno 10764 bound_to 10752
  154.6677  135.3024  154.9751 H   0  0  0  0  0  0  0  0  0  0  0  0  # atno 10765 bound_to 10752
  139.9630  134.7029  156.0606 H   0  0  0  0  0  0  0  0  0  0  0  0  # atno 11005 bound_to 11000
  145.8813  139.2324  143.1603 LP  0  0  0  0  0  0  0  0  0  0  0  0  # atno 17320 bound_to 7965
  145.9992  140.8535  143.0027 LP  0  0  0  0  0  0  0  0  0  0  0  0  # atno 17321 bound_to 7965
  140.2844  144.3824  150.6108 LP  0  0  0  0  0  0  0  0  0  0  0  0  # atno 17342 bound_to 10162
  140.5994  143.2167  151.7101 LP  0  0  0  0  0  0  0  0  0  0  0  0  # atno 17343 bound_to 10162
  157.1307  131.0271  151.2970 LP  0  0  0  0  0  0  0  0  0  0  0  0  # atno 17370 bound_to 10713
  157.4553  130.7622  149.7187 LP  0  0  0  0  0  0  0  0  0  0  0  0  # atno 17371 bound_to 10713
  141.1308  133.6587  156.3459 LP  0  0  0  0  0  0  0  0  0  0  0  0  # atno 17394 bound_to 11000
  140.5459  134.6075  157.5393 LP  0  0  0  0  0  0  0  0  0  0  0  0  # atno 17395 bound_to 11000

$$$$
