AV-unprocessed.smi:454|AV-procd|sdf|2613|dock5
  -GOLD-   2262023 13D 1   1.00000     0.00000
 Structure written by MMmdl.
 44 45  0  0  0  0  0  0  0  0  2 V2000
  145.9213  143.1187  153.8962 C   0  0  0  0  0  0  0  0  0  0  0  0
  147.0059  142.5361  154.5961 O   0  0  0  0  0  0  0  0  0  0  0  0
  147.7051  141.5758  153.8214 C   0  0  0  0  0  0  0  0  0  0  0  0
  146.8009  140.3652  153.5421 C   0  0  0  0  0  0  0  0  0  0  0  0
  147.1483  139.6835  152.3001 N   0  0  0  0  0  0  0  0  0  0  0  0
  146.5948  138.4343  151.9841 C   0  0  0  0  0  0  0  0  0  0  0  0
  146.1371  137.6141  153.0388 C   0  0  0  0  0  0  0  0  0  0  0  0
  145.5616  136.3657  152.7313 C   0  0  0  0  0  0  0  0  0  0  0  0
  145.4718  135.9892  151.3779 C   0  0  0  0  0  0  0  0  0  0  0  0
  144.7036  134.4494  150.9022 S   0  0  0  0  0  0  0  0  0  0  0  0
  144.0673  133.8844  152.1020 O   0  0  0  0  0  0  0  0  0  0  0  0
  143.9197  134.6508  149.6737 O   0  0  0  0  0  0  0  0  0  0  0  0
  146.0757  133.4585  150.5105 N   0  0  0  0  0  0  0  0  0  0  0  0
  147.1321  133.3008  151.5248 C   0  0  0  0  0  0  0  0  0  0  0  0
  146.7786  132.1520  152.4854 C   0  0  0  0  0  0  0  0  0  0  0  0
  146.5902  130.8887  151.7328 N   0  3  0  0  0  0  0  0  0  0  0  0
  146.3640  129.7271  152.6190 C   0  0  0  0  0  0  0  0  0  0  0  0
  145.5263  131.0415  150.7119 C   0  0  0  0  0  0  0  0  0  0  0  0
  145.8425  132.2114  149.7582 C   0  0  0  0  0  0  0  0  0  0  0  0
  145.9661  136.8626  150.3905 C   0  0  0  0  0  0  0  0  0  0  0  0
  146.5187  138.0582  150.6842 N   0  0  0  0  0  0  0  0  0  0  0  0
  145.4212  143.8450  154.5365 H   0  0  0  0  0  0  0  0  0  0  0  0
  145.1886  142.3647  153.6057 H   0  0  0  0  0  0  0  0  0  0  0  0
  146.2641  143.6390  153.0007 H   0  0  0  0  0  0  0  0  0  0  0  0
  147.9945  142.0316  152.8734 H   0  0  0  0  0  0  0  0  0  0  0  0
  148.6226  141.2627  154.3230 H   0  0  0  0  0  0  0  0  0  0  0  0
  146.7941  139.6780  154.3887 H   0  0  0  0  0  0  0  0  0  0  0  0
  145.7741  140.7138  153.4312 H   0  0  0  0  0  0  0  0  0  0  0  0
  148.0091  139.9519  151.8458 H   0  0  0  0  0  0  0  0  0  0  0  0
  146.2152  137.9376  154.0666 H   0  0  0  0  0  0  0  0  0  0  0  0
  145.1924  135.7246  153.5176 H   0  0  0  0  0  0  0  0  0  0  0  0
  148.0770  133.0898  151.0219 H   0  0  0  0  0  0  0  0  0  0  0  0
  147.2764  134.2325  152.0714 H   0  0  0  0  0  0  0  0  0  0  0  0
  147.5818  132.0262  153.2121 H   0  0  0  0  0  0  0  0  0  0  0  0
  145.8744  132.3898  153.0484 H   0  0  0  0  0  0  0  0  0  0  0  0
  145.4494  129.8503  153.2008 H   0  0  0  0  0  0  0  0  0  0  0  0
  147.1969  129.6046  153.3121 H   0  0  0  0  0  0  0  0  0  0  0  0
  146.2780  128.8094  152.0361 H   0  0  0  0  0  0  0  0  0  0  0  0
  145.4421  130.1190  150.1361 H   0  0  0  0  0  0  0  0  0  0  0  0
  144.5641  131.1898  151.2029 H   0  0  0  0  0  0  0  0  0  0  0  0
  145.0311  132.3527  149.0438 H   0  0  0  0  0  0  0  0  0  0  0  0
  146.7342  131.9831  149.1729 H   0  0  0  0  0  0  0  0  0  0  0  0
  145.9076  136.6040  149.3435 H   0  0  0  0  0  0  0  0  0  0  0  0
  147.4512  130.7130  151.2346 H   0  0  0  0  0  0  0  0  0  0  0  0
  1  2  1  0  0  0  0
  1 22  1  0  0  0  0
  1 23  1  0  0  0  0
  1 24  1  0  0  0  0
  2  3  1  0  0  0  0
  3  4  1  0  0  0  0
  3 25  1  0  0  0  0
  3 26  1  0  0  0  0
  4  5  1  0  0  0  0
  4 27  1  0  0  0  0
  4 28  1  0  0  0  0
  5  6  1  0  0  0  0
  5 29  1  0  0  0  0
  6 21  1  0  0  0  0
  6  7  2  0  0  0  0
  7  8  1  0  0  0  0
  7 30  1  0  0  0  0
  8  9  2  0  0  0  0
  8 31  1  0  0  0  0
  9 10  1  0  0  0  0
  9 20  1  0  0  0  0
 10 11  2  0  0  0  0
 10 12  2  0  0  0  0
 10 13  1  0  0  0  0
 13 19  1  0  0  0  0
 13 14  1  0  0  0  0
 14 15  1  0  0  0  0
 14 32  1  0  0  0  0
 14 33  1  0  0  0  0
 15 16  1  0  0  0  0
 15 34  1  0  0  0  0
 15 35  1  0  0  0  0
 16 17  1  0  0  0  0
 16 18  1  0  0  0  0
 16 44  1  0  0  0  0
 17 36  1  0  0  0  0
 17 37  1  0  0  0  0
 17 38  1  0  0  0  0
 18 19  1  0  0  0  0
 18 39  1  0  0  0  0
 18 40  1  0  0  0  0
 19 41  1  0  0  0  0
 19 42  1  0  0  0  0
 20 21  2  0  0  0  0
 20 43  1  0  0  0  0
M  CHG  1  16   1
M  END
> <s_m_source_file>
AV-unprocessed.smi

> <i_m_source_file_index>
454

> <i_lp_mmshare_version>
43012

> <i_f3d_flags>
0

> <s_epik_input>
W0NIM11PW0NIMl1bQ0gyXVtOSF1jMVtjSF1bY0hdYyhbY0hdbjEpUyg9TykoPU8pTjJbQ0gyXVtDSDJdTihbQ0gzXSlbQ0gyXVtDSDJdMg==

> <s_epik_cmdline>
J2VwaWtfcHl0aG9uJywgJy1waCcsICc3LjAnLCAnLXRuJywgJzgnLCAnLW1hJywgJzIwMCcsICctbWV0YWxfYmluZGluZycsICctaW1hZScsICc8aW5maWxlLm1hZT4nLCAnLW9tYWUnLCAnPG91dGZpbGUubWFlPic=

> <r_lp_tautomer_probability>
1

> <r_epik_Ionization_Penalty>
1.23801

> <r_epik_Ionization_Penalty_Charging>
1.23786

> <r_epik_Ionization_Penalty_Neutral>
0.00015121

> <r_epik_State_Penalty>
1.30655

> <r_epik_Charging_Adjusted_Penalty>
2.54442

> <i_epik_Tot_Q>
1

> <i_epik_Tot_abs_Q>
1

> <r_epik_Metal_State_Penalty>
1.30672

> <b_epik_Metal_Only>
0

> <s_lp_Force_Field>
OPLS_2005

> <r_lp_Energy>
1.84277

> <b_lp_Chiralities_Consistent>
1

> <s_lp_Variant>
AV-unprocessed.smi:454-2

> <Gold.Version>
5.8.1

> <Gold.Id.Protein>
6NUR|6NUR_protein|mol2

> <Gold.PLP.Fitness>
46.0465

> <Gold.PLP.PLP>
-34.8036

> <Gold.PLP.part.hbond>
-3.0000

> <Gold.PLP.part.metal>
0.0000

> <Gold.PLP.part.buried>
-6.2060

> <Gold.PLP.part.nonpolar>
-32.8400

> <Gold.PLP.part.repulsive>
5.3665

> <Gold.PLP.ligand.clash>
0.0000

> <Gold.PLP.ligand.torsion>
1.7284

> <Gold.PLP.Chemscore.Hbond>
3.0000

> <Gold.PLP.Chemscore.CHOScore>
1.0000

> <Gold.PLP.Chemscore.Metal>
0.0000

> <Gold.Chemscore.Hbonds>
donor molecule, donor type, donor heavy atom, donor atom, acceptor molecule, acceptor atom, score
      L1  H     5    29       P1  7957  1.00
      L1  H    16    44       P1 10747  1.00
      P1  H  7954  7966       L1    21  1.00
      L1  C    20    43       P1  7921  1.00

> <Gold.PLP.Chemscore.Internal.Correction>
2.6998

> <Gold.Rescore>
     Score         DG    S(hbond)    S(metal)    S(lipo)     H(rot)  DE(clash)    DE(int)     intcor
     15.56     -19.87       2.61        0.00      84.44       1.65       2.44       1.87       ----

> <Gold.Chemscore.Fitness>
15.5556

> <Gold.Chemscore.DG>
-19.8701

> <Gold.Chemscore.ZeroCoef>
-5.4800

> <Gold.Chemscore.Hbond>
2.6145

> <Gold.Chemscore.Metal>
0.0000

> <Gold.Chemscore.Lipo>
84.4380

> <Gold.Chemscore.Internal_Hbond>
0.0000

> <Gold.Chemscore.DEClash>
2.4438

> <Gold.Chemscore.DEInternal>
1.8707

> <Gold.Chemscore.Rot>
1.6491

> <Gold.Chemscore.Internal.Correction>
   9.000000E+99

> <Gold.Chemscore.Hbonds>
donor molecule, donor type, donor heavy atom, donor atom, acceptor molecule, acceptor atom, score
      L1  H     5    29       P1  7957  1.00
      L1  H    16    44       P1 10747  1.00
      P1  H  7954  7966       L1    21  0.22

> <Gold.Chemscore.Hbond.Weighted>
-8.7326

> <Gold.Chemscore.Metal.Weighted>
-0.0000

> <Gold.Chemscore.Lipo.Weighted>
-9.8792

> <Gold.Chemscore.Internal_Hbond.Weighted>
0.0000

> <Gold.Chemscore.DEClash.Weighted>
2.4438

> <Gold.Chemscore.DEInternal.Weighted>
1.8707

> <Gold.Chemscore.Rot.Weighted>
4.2218

> <Gold.Chemscore.Internal.Correction.Weighted>
   9.000000E+99

> <Gold.Protein.RotatedTorsions>
[ 6907 6896 6895 6894 ] final    5.77 input  -60.11 | X-H torsion
[ 7974 7965 7964 7962 ] final  -46.29 input  175.53 | X-H torsion
[ 8008 7997 7996 7995 ] final -129.35 input   59.86 | X-H torsion
[ 10167 10162 10161 10158 ] final   66.61 input  -65.29 | X-H torsion
[ 10718 10713 10712 10709 ] final   64.72 input   66.30 | X-H torsion
[ 10763 10752 10751 10750 ] final  -28.81 input  -60.55 | X-H torsion
[ 11005 11000 10999 10996 ] final  -29.45 input  -57.11 | X-H torsion

> <Gold.Protein.ActiveResidues>
 VAL166  LYS551  ARG553  GLY616  TRP617  ASP618  TYR619  PRO620  LYS621  CYS622 
 ASP623  PHE694  ASN695  SER759  ASP760  ASP761  ALA762  ILE779  LEU786  VAL792 
 PHE793  MET794  SER795  GLU796  ALA797  LYS798  CYS799  TRP800  GLU811  SER814 

> <Gold.Protein.RotatedAtoms>
  151.6628  135.0987  160.0182 H   0  0  0  0  0  0  0  0  0  0  0  0  # atno 6907 bound_to 6896
  152.3936  133.6711  159.6267 H   0  0  0  0  0  0  0  0  0  0  0  0  # atno 6908 bound_to 6896
  150.7847  133.8828  159.3332 H   0  0  0  0  0  0  0  0  0  0  0  0  # atno 6909 bound_to 6896
  145.9734  140.7360  142.9399 H   0  0  0  0  0  0  0  0  0  0  0  0  # atno 7974 bound_to 7965
  155.2777  140.0442  157.3013 H   0  0  0  0  0  0  0  0  0  0  0  0  # atno 8008 bound_to 7997
  154.5615  140.2347  155.8296 H   0  0  0  0  0  0  0  0  0  0  0  0  # atno 8009 bound_to 7997
  156.2051  140.3015  155.9617 H   0  0  0  0  0  0  0  0  0  0  0  0  # atno 8010 bound_to 7997
  140.0985  144.4925  150.7052 H   0  0  0  0  0  0  0  0  0  0  0  0  # atno 10167 bound_to 10162
  157.6058  130.9175  149.9883 H   0  0  0  0  0  0  0  0  0  0  0  0  # atno 10718 bound_to 10713
  153.7544  135.6923  153.4939 H   0  0  0  0  0  0  0  0  0  0  0  0  # atno 10763 bound_to 10752
  153.1981  135.4446  155.0231 H   0  0  0  0  0  0  0  0  0  0  0  0  # atno 10764 bound_to 10752
  154.8176  135.3406  154.7063 H   0  0  0  0  0  0  0  0  0  0  0  0  # atno 10765 bound_to 10752
  140.9297  133.7346  156.0919 H   0  0  0  0  0  0  0  0  0  0  0  0  # atno 11005 bound_to 11000
  144.6842  140.2786  143.7295 LP  0  0  0  0  0  0  0  0  0  0  0  0  # atno 17320 bound_to 7965
  145.7874  139.1914  143.2123 LP  0  0  0  0  0  0  0  0  0  0  0  0  # atno 17321 bound_to 7965
  140.6990  143.2422  151.4918 LP  0  0  0  0  0  0  0  0  0  0  0  0  # atno 17342 bound_to 10162
  139.5684  144.1986  152.1800 LP  0  0  0  0  0  0  0  0  0  0  0  0  # atno 17343 bound_to 10162
  156.1144  130.3648  149.9993 LP  0  0  0  0  0  0  0  0  0  0  0  0  # atno 17370 bound_to 10713
  156.8085  130.9316  151.3644 LP  0  0  0  0  0  0  0  0  0  0  0  0  # atno 17371 bound_to 10713
  140.7879  134.3651  157.5472 LP  0  0  0  0  0  0  0  0  0  0  0  0  # atno 17394 bound_to 11000
  139.8793  134.9122  156.3054 LP  0  0  0  0  0  0  0  0  0  0  0  0  # atno 17395 bound_to 11000

$$$$
