AV-unprocessed.smi:1768|AV-procd|sdf|7143|dock4
  -GOLD-   22720 8383D 1   1.00000     0.00000
 Structure written by MMmdl.
 33 34  0  0  0  0  0  0  0  0  1 V2000
  147.2197  139.2568  152.9880 C   0  0  0  0  0  0  0  0  0  0  0  0
  148.2325  139.9880  153.8012 C   0  0  0  0  0  0  0  0  0  0  0  0
  149.4832  139.5432  153.9737 N   0  0  0  0  0  0  0  0  0  0  0  0
  150.2392  140.3933  154.7689 N   0  0  0  0  0  0  0  0  0  0  0  0
  149.5331  141.4574  155.1750 C   0  0  0  0  0  0  0  0  0  0  0  0
  150.0585  142.4862  156.0008 N   0  0  0  0  0  0  0  0  0  0  0  0
  150.3724  142.4288  157.3069 C   0  0  0  0  0  0  0  0  0  0  0  0
  150.2616  141.4328  158.0220 O   0  0  0  0  0  0  0  0  0  0  0  0
  150.8379  143.6091  157.7424 N   0  0  0  0  0  0  0  0  0  0  0  0
  151.2786  143.9094  159.1040 C   0  0  2  0  0  0  0  0  0  0  0  0
  152.1529  145.1716  159.0730 C   0  0  0  0  0  0  0  0  0  0  0  0
  152.0320  142.7040  159.7029 C   0  0  2  0  0  0  0  0  0  0  0  0
  152.6481  142.9467  161.0827 C   0  0  0  0  0  0  0  0  0  0  0  0
  153.7490  141.9122  161.1121 C   0  0  0  0  0  0  0  0  0  0  0  0
  154.2544  141.9583  159.6739 C   0  0  0  0  0  0  0  0  0  0  0  0
  153.1365  142.3407  158.8764 O   0  0  0  0  0  0  0  0  0  0  0  0
  147.8703  141.5057  154.6139 S   0  0  0  0  0  0  0  0  0  0  0  0
  147.6950  138.4758  152.3934 H   0  0  0  0  0  0  0  0  0  0  0  0
  146.7126  139.9473  152.3138 H   0  0  0  0  0  0  0  0  0  0  0  0
  146.4789  138.7971  153.6423 H   0  0  0  0  0  0  0  0  0  0  0  0
  150.2138  143.3715  155.5418 H   0  0  0  0  0  0  0  0  0  0  0  0
  150.8940  144.3665  157.0775 H   0  0  0  0  0  0  0  0  0  0  0  0
  150.4152  144.1230  159.7369 H   0  0  0  0  0  0  0  0  0  0  0  0
  152.4709  145.4553  160.0765 H   0  0  0  0  0  0  0  0  0  0  0  0
  151.6076  146.0175  158.6527 H   0  0  0  0  0  0  0  0  0  0  0  0
  153.0491  145.0197  158.4707 H   0  0  0  0  0  0  0  0  0  0  0  0
  151.3680  141.8395  159.7624 H   0  0  0  0  0  0  0  0  0  0  0  0
  153.0773  143.9482  161.1427 H   0  0  0  0  0  0  0  0  0  0  0  0
  151.9324  142.8314  161.8972 H   0  0  0  0  0  0  0  0  0  0  0  0
  154.5260  142.1293  161.8453 H   0  0  0  0  0  0  0  0  0  0  0  0
  153.3320  140.9289  161.3339 H   0  0  0  0  0  0  0  0  0  0  0  0
  155.0301  142.7175  159.5666 H   0  0  0  0  0  0  0  0  0  0  0  0
  154.6680  141.0035  159.3488 H   0  0  0  0  0  0  0  0  0  0  0  0
  1  2  1  0  0  0  0
  1 18  1  0  0  0  0
  1 19  1  0  0  0  0
  1 20  1  0  0  0  0
  2 17  1  0  0  0  0
  2  3  2  0  0  0  0
  3  4  1  0  0  0  0
  4  5  2  0  0  0  0
  5  6  1  0  0  0  0
  5 17  1  0  0  0  0
  6  7  1  0  0  0  0
  6 21  1  0  0  0  0
  7  8  2  0  0  0  0
  7  9  1  0  0  0  0
  9 10  1  0  0  0  0
  9 22  1  0  0  0  0
 10 11  1  0  0  0  0
 10 12  1  0  0  0  0
 10 23  1  0  0  0  0
 11 24  1  0  0  0  0
 11 25  1  0  0  0  0
 11 26  1  0  0  0  0
 12 16  1  0  0  0  0
 12 13  1  0  0  0  0
 12 27  1  0  0  0  0
 13 14  1  0  0  0  0
 13 28  1  0  0  0  0
 13 29  1  0  0  0  0
 14 15  1  0  0  0  0
 14 30  1  0  0  0  0
 14 31  1  0  0  0  0
 15 16  1  0  0  0  0
 15 32  1  0  0  0  0
 15 33  1  0  0  0  0
M  END
> <s_m_source_file>
AV-unprocessed.smi

> <i_m_source_file_index>
1768

> <i_lp_mmshare_version>
43012

> <i_f3d_flags>
0

> <s_epik_input>
W0NIM11jMW5uYyhzMSlbTkhdQyg9TylbTkhdW0NASF0oW0NIM10pW0NAQEhdMltDSDJdW0NIMl1bQ0gyXU8y

> <s_epik_cmdline>
J2VwaWtfcHl0aG9uJywgJy1waCcsICc3LjAnLCAnLXRuJywgJzgnLCAnLW1hJywgJzIwMCcsICctbWV0YWxfYmluZGluZycsICctaW1hZScsICc8aW5maWxlLm1hZT4nLCAnLW9tYWUnLCAnPG91dGZpbGUubWFlPic=

> <r_lp_tautomer_probability>
1

> <r_epik_Ionization_Penalty>
0.000523083

> <r_epik_Ionization_Penalty_Charging>
0

> <r_epik_Ionization_Penalty_Neutral>
0.000523083

> <r_epik_State_Penalty>
-0

> <r_epik_Charging_Adjusted_Penalty>
0

> <i_epik_Tot_Q>
0

> <i_epik_Tot_abs_Q>
0

> <r_epik_Metal_State_Penalty>
0.223408

> <b_epik_Metal_Only>
0

> <s_lp_Force_Field>
OPLS_2005

> <r_lp_Energy>
16.8922

> <b_lp_Chiralities_Consistent>
1

> <s_lp_Variant>
AV-unprocessed.smi:1768-1

> <Gold.Version>
5.8.1

> <Gold.Id.Protein>
6NUR|6NUR_protein|mol2

> <Gold.PLP.Fitness>
38.6720

> <Gold.PLP.PLP>
-36.5765

> <Gold.PLP.part.hbond>
-2.8506

> <Gold.PLP.part.metal>
0.0000

> <Gold.PLP.part.buried>
-3.2037

> <Gold.PLP.part.nonpolar>
-31.2129

> <Gold.PLP.part.repulsive>
1.3576

> <Gold.PLP.ligand.clash>
0.0000

> <Gold.PLP.ligand.torsion>
0.9841

> <Gold.PLP.Chemscore.Hbond>
1.3520

> <Gold.PLP.Chemscore.CHOScore>
0.0000

> <Gold.PLP.Chemscore.Metal>
0.0000

> <Gold.Chemscore.Hbonds>
donor molecule, donor type, donor heavy atom, donor atom, acceptor molecule, acceptor atom, score
      L1  H     6    21       P1  8028  0.40
      P1  H  7989  7998       L1     4  0.95

> <Gold.PLP.Chemscore.Internal.Correction>
0.0077

> <Gold.Rescore>
     Score         DG    S(hbond)    S(metal)    S(lipo)     H(rot)  DE(clash)    DE(int)     intcor
     14.28     -16.69       1.52        0.00      80.80       1.29       0.15       2.27       ----

> <Gold.Chemscore.Fitness>
14.2761

> <Gold.Chemscore.DG>
-16.6907

> <Gold.Chemscore.ZeroCoef>
-5.4800

> <Gold.Chemscore.Hbond>
1.5162

> <Gold.Chemscore.Metal>
0.0000

> <Gold.Chemscore.Lipo>
80.8012

> <Gold.Chemscore.Internal_Hbond>
0.0000

> <Gold.Chemscore.DEClash>
0.1462

> <Gold.Chemscore.DEInternal>
2.2684

> <Gold.Chemscore.Rot>
1.2919

> <Gold.Chemscore.Internal.Correction>
   9.000000E+99

> <Gold.Chemscore.Hbonds>
donor molecule, donor type, donor heavy atom, donor atom, acceptor molecule, acceptor atom, score
      L1  H     6    21       P1  8028  0.40
      L1  H     9    22       P1  8028  0.01
      P1  H  7989  7998       L1     4  0.17

> <Gold.Chemscore.Hbond.Weighted>
-5.0641

> <Gold.Chemscore.Metal.Weighted>
-0.0000

> <Gold.Chemscore.Lipo.Weighted>
-9.4537

> <Gold.Chemscore.Internal_Hbond.Weighted>
0.0000

> <Gold.Chemscore.DEClash.Weighted>
0.1462

> <Gold.Chemscore.DEInternal.Weighted>
2.2684

> <Gold.Chemscore.Rot.Weighted>
3.3072

> <Gold.Chemscore.Internal.Correction.Weighted>
   9.000000E+99

> <Gold.Protein.RotatedTorsions>
[ 6907 6896 6895 6894 ] final    5.41 input  -60.11 | X-H torsion
[ 7974 7965 7964 7962 ] final -131.50 input  175.53 | X-H torsion
[ 8008 7997 7996 7995 ] final  -99.42 input   59.86 | X-H torsion
[ 10167 10162 10161 10158 ] final  -86.02 input  -65.29 | X-H torsion
[ 10718 10713 10712 10709 ] final -108.21 input   66.30 | X-H torsion
[ 10763 10752 10751 10750 ] final -135.07 input  -60.55 | X-H torsion
[ 11005 11000 10999 10996 ] final   83.46 input  -57.11 | X-H torsion

> <Gold.Protein.ActiveResidues>
 VAL166  LYS551  ARG553  GLY616  TRP617  ASP618  TYR619  PRO620  LYS621  CYS622 
 ASP623  PHE694  ASN695  SER759  ASP760  ASP761  ALA762  ILE779  LEU786  VAL792 
 PHE793  MET794  SER795  GLU796  ALA797  LYS798  CYS799  TRP800  GLU811  SER814 

> <Gold.Protein.RotatedAtoms>
  151.6571  135.0994  160.0171 H   0  0  0  0  0  0  0  0  0  0  0  0  # atno 6907 bound_to 6896
  152.3968  133.6754  159.6291 H   0  0  0  0  0  0  0  0  0  0  0  0  # atno 6908 bound_to 6896
  150.7874  133.8777  159.3318 H   0  0  0  0  0  0  0  0  0  0  0  0  # atno 6909 bound_to 6896
  144.9373  140.7198  143.4868 H   0  0  0  0  0  0  0  0  0  0  0  0  # atno 7974 bound_to 7965
  154.8146  140.0448  157.1367 H   0  0  0  0  0  0  0  0  0  0  0  0  # atno 8008 bound_to 7997
  154.9329  140.3042  155.5139 H   0  0  0  0  0  0  0  0  0  0  0  0  # atno 8009 bound_to 7997
  156.2975  140.2319  156.4391 H   0  0  0  0  0  0  0  0  0  0  0  0  # atno 8010 bound_to 7997
  140.3982  143.2674  151.9177 H   0  0  0  0  0  0  0  0  0  0  0  0  # atno 10167 bound_to 10162
  156.0474  130.5701  150.7930 H   0  0  0  0  0  0  0  0  0  0  0  0  # atno 10718 bound_to 10713
  154.8709  135.3715  154.4838 H   0  0  0  0  0  0  0  0  0  0  0  0  # atno 10763 bound_to 10752
  153.5489  135.7025  153.5605 H   0  0  0  0  0  0  0  0  0  0  0  0  # atno 10764 bound_to 10752
  153.3733  135.4015  155.1768 H   0  0  0  0  0  0  0  0  0  0  0  0  # atno 10765 bound_to 10752
  139.9030  134.8146  156.2313 H   0  0  0  0  0  0  0  0  0  0  0  0  # atno 11005 bound_to 11000
  145.3046  139.1839  143.4671 LP  0  0  0  0  0  0  0  0  0  0  0  0  # atno 17320 bound_to 7965
  146.3272  140.3042  142.8622 LP  0  0  0  0  0  0  0  0  0  0  0  0  # atno 17321 bound_to 7965
  139.4786  144.5660  151.8163 LP  0  0  0  0  0  0  0  0  0  0  0  0  # atno 17342 bound_to 10162
  140.4768  144.1507  150.5926 LP  0  0  0  0  0  0  0  0  0  0  0  0  # atno 17343 bound_to 10162
  157.5365  131.0939  150.9885 LP  0  0  0  0  0  0  0  0  0  0  0  0  # atno 17370 bound_to 10713
  157.0178  130.5662  149.5328 LP  0  0  0  0  0  0  0  0  0  0  0  0  # atno 17371 bound_to 10713
  141.0344  133.6971  156.1486 LP  0  0  0  0  0  0  0  0  0  0  0  0  # atno 17394 bound_to 11000
  140.7049  134.4524  157.5584 LP  0  0  0  0  0  0  0  0  0  0  0  0  # atno 17395 bound_to 11000

$$$$
