AV-unprocessed.smi:203|AV-procd|sdf|1588|dock7
  -GOLD-   2262019483D 1   1.00000     0.00000
 Structure written by MMmdl.
 57 61  0  0  0  0  0  0  0  0  1 V2000
  149.9833  140.8824  153.8291 O   0  0  0  0  0  0  0  0  0  0  0  0
  149.9196  140.9925  155.0511 C   0  0  0  0  0  0  0  0  0  0  0  0
  150.7793  140.1883  156.0110 C   0  0  0  0  0  0  0  0  0  0  0  0
  150.5057  140.8411  157.3803 C   0  0  1  0  0  0  0  0  0  0  0  0
  151.7299  141.6077  157.9747 C   0  0  1  0  0  0  0  0  0  0  0  0
  151.4706  143.1309  158.1205 C   0  0  0  0  0  0  0  0  0  0  0  0
  152.6830  143.8620  158.7114 C   0  0  0  0  0  0  0  0  0  0  0  0
  153.0720  143.2267  160.0502 C   0  0  0  0  0  0  0  0  0  0  0  0
  153.3361  141.7262  159.8701 C   0  0  0  0  0  0  0  0  0  0  0  0
  152.1887  141.0532  159.2616 N   0  0  0  0  0  0  0  0  0  0  0  0
  152.3511  139.7122  159.3098 C   0  0  0  0  0  0  0  0  0  0  0  0
  151.2299  138.9561  159.4044 N   0  0  0  0  0  0  0  0  0  0  0  0
  151.3259  137.6235  159.4427 C   0  0  0  0  0  0  0  0  0  0  0  0
  152.4225  136.8632  159.4012 N   0  0  0  0  0  0  0  0  0  0  0  0
  153.5514  137.6243  159.3150 C   0  0  0  0  0  0  0  0  0  0  0  0
  153.6077  139.0449  159.2660 C   0  0  0  0  0  0  0  0  0  0  0  0
  154.9297  139.4657  159.1828 N   0  0  0  0  0  0  0  0  0  0  0  0
  155.6167  138.3559  159.1847 C   0  0  0  0  0  0  0  0  0  0  0  0
  154.8682  137.2034  159.2606 N   0  0  0  0  0  0  0  0  0  0  0  0
  155.3724  135.8420  159.2835 C   0  0  0  0  0  0  0  0  0  0  0  0
  154.9903  135.0977  160.5810 C   0  0  1  0  0  0  0  0  0  0  0  0
  155.7437  133.9089  160.7147 O   0  0  0  0  0  0  0  0  0  0  0  0
  155.1562  135.9334  161.8671 C   0  0  2  0  0  0  0  0  0  0  0  0
  154.8424  135.1732  163.1597 C   0  0  0  0  0  0  0  0  0  0  0  0
  154.3353  136.2483  164.1117 C   0  0  0  0  0  0  0  0  0  0  0  0
  154.2465  137.5066  163.2471 C   0  0  0  0  0  0  0  0  0  0  0  0
  154.2434  137.0203  161.9144 O   0  0  0  0  0  0  0  0  0  0  0  0
  149.2594  141.7275  157.1570 C   0  0  0  0  0  0  0  0  0  0  0  0
  149.1060  141.8086  155.7175 N   0  0  0  0  0  0  0  0  0  0  0  0
  150.4459  139.1499  155.9978 H   0  0  0  0  0  0  0  0  0  0  0  0
  151.8305  140.2061  155.7232 H   0  0  0  0  0  0  0  0  0  0  0  0
  150.2326  140.0317  158.0580 H   0  0  0  0  0  0  0  0  0  0  0  0
  152.5544  141.4943  157.2701 H   0  0  0  0  0  0  0  0  0  0  0  0
  151.2288  143.5783  157.1571 H   0  0  0  0  0  0  0  0  0  0  0  0
  150.6081  143.3090  158.7628 H   0  0  0  0  0  0  0  0  0  0  0  0
  153.5225  143.8079  158.0170 H   0  0  0  0  0  0  0  0  0  0  0  0
  152.4555  144.9196  158.8479 H   0  0  0  0  0  0  0  0  0  0  0  0
  153.9572  143.7166  160.4563 H   0  0  0  0  0  0  0  0  0  0  0  0
  152.2711  143.3749  160.7758 H   0  0  0  0  0  0  0  0  0  0  0  0
  154.2176  141.5818  159.2435 H   0  0  0  0  0  0  0  0  0  0  0  0
  153.5591  141.2784  160.8398 H   0  0  0  0  0  0  0  0  0  0  0  0
  150.3900  137.0898  159.5170 H   0  0  0  0  0  0  0  0  0  0  0  0
  156.6958  138.3467  159.1323 H   0  0  0  0  0  0  0  0  0  0  0  0
  154.9878  135.3172  158.4080 H   0  0  0  0  0  0  0  0  0  0  0  0
  156.4556  135.8817  159.1688 H   0  0  0  0  0  0  0  0  0  0  0  0
  153.9480  134.7833  160.5135 H   0  0  0  0  0  0  0  0  0  0  0  0
  156.6616  134.1335  160.6915 H   0  0  0  0  0  0  0  0  0  0  0  0
  156.1739  136.3241  161.9362 H   0  0  0  0  0  0  0  0  0  0  0  0
  154.0596  134.4314  163.0002 H   0  0  0  0  0  0  0  0  0  0  0  0
  155.7178  134.6510  163.5466 H   0  0  0  0  0  0  0  0  0  0  0  0
  153.3547  135.9741  164.5023 H   0  0  0  0  0  0  0  0  0  0  0  0
  155.0045  136.3978  164.9597 H   0  0  0  0  0  0  0  0  0  0  0  0
  153.3575  138.1014  163.4582 H   0  0  0  0  0  0  0  0  0  0  0  0
  155.1235  138.1384  163.3965 H   0  0  0  0  0  0  0  0  0  0  0  0
  148.3704  141.2602  157.5825 H   0  0  0  0  0  0  0  0  0  0  0  0
  149.3511  142.7205  157.5970 H   0  0  0  0  0  0  0  0  0  0  0  0
  148.4472  142.4338  155.2760 H   0  0  0  0  0  0  0  0  0  0  0  0
  1  2  2  0  0  0  0
  2 29  1  0  0  0  0
  2  3  1  0  0  0  0
  3  4  1  0  0  0  0
  3 30  1  0  0  0  0
  3 31  1  0  0  0  0
  4  5  1  0  0  0  0
  4 28  1  0  0  0  0
  4 32  1  0  0  0  0
  5 10  1  0  0  0  0
  5  6  1  0  0  0  0
  5 33  1  0  0  0  0
  6  7  1  0  0  0  0
  6 34  1  0  0  0  0
  6 35  1  0  0  0  0
  7  8  1  0  0  0  0
  7 36  1  0  0  0  0
  7 37  1  0  0  0  0
  8  9  1  0  0  0  0
  8 38  1  0  0  0  0
  8 39  1  0  0  0  0
  9 10  1  0  0  0  0
  9 40  1  0  0  0  0
  9 41  1  0  0  0  0
 10 11  1  0  0  0  0
 11 16  1  0  0  0  0
 11 12  2  0  0  0  0
 12 13  1  0  0  0  0
 13 14  2  0  0  0  0
 13 42  1  0  0  0  0
 14 15  1  0  0  0  0
 15 19  1  0  0  0  0
 15 16  2  0  0  0  0
 16 17  1  0  0  0  0
 17 18  2  0  0  0  0
 18 19  1  0  0  0  0
 18 43  1  0  0  0  0
 19 20  1  0  0  0  0
 20 21  1  0  0  0  0
 20 44  1  0  0  0  0
 20 45  1  0  0  0  0
 21 22  1  0  0  0  0
 21 23  1  0  0  0  0
 21 46  1  0  0  0  0
 22 47  1  0  0  0  0
 23 27  1  0  0  0  0
 23 24  1  0  0  0  0
 23 48  1  0  0  0  0
 24 25  1  0  0  0  0
 24 49  1  0  0  0  0
 24 50  1  0  0  0  0
 25 26  1  0  0  0  0
 25 51  1  0  0  0  0
 25 52  1  0  0  0  0
 26 27  1  0  0  0  0
 26 53  1  0  0  0  0
 26 54  1  0  0  0  0
 28 29  1  0  0  0  0
 28 55  1  0  0  0  0
 28 56  1  0  0  0  0
 29 57  1  0  0  0  0
M  END
> <s_m_source_file>
AV-unprocessed.smi

> <i_m_source_file_index>
203

> <i_lp_mmshare_version>
43012

> <i_f3d_flags>
0

> <s_epik_input>
Tz1DMVtDSDJdW0NASF0oW0NIMl1bTkhdMSlbQ0BASF0yW0NIMl1bQ0gyXVtDSDJdW0NIMl1OMmMobltjSF1uMyljKGMzNCluW2NIXW40W0NIMl1bQ0BIXShbT0hdKVtDQEBIXTVbQ0gyXVtDSDJdW0NIMl1PNQ==

> <s_epik_cmdline>
J2VwaWtfcHl0aG9uJywgJy1waCcsICc3LjAnLCAnLXRuJywgJzgnLCAnLW1hJywgJzIwMCcsICctbWV0YWxfYmluZGluZycsICctaW1hZScsICc8aW5maWxlLm1hZT4nLCAnLW9tYWUnLCAnPG91dGZpbGUubWFlPic=

> <r_lp_tautomer_probability>
1

> <r_epik_Ionization_Penalty>
0.00175146

> <r_epik_Ionization_Penalty_Charging>
0

> <r_epik_Ionization_Penalty_Neutral>
0.00175146

> <r_epik_State_Penalty>
0.00109045

> <r_epik_Charging_Adjusted_Penalty>
0.00109045

> <i_epik_Tot_Q>
0

> <i_epik_Tot_abs_Q>
0

> <r_epik_Metal_State_Penalty>
-0

> <b_epik_Metal_Only>
0

> <s_lp_Force_Field>
OPLS_2005

> <r_lp_Energy>
57.1274

> <b_lp_Chiralities_Consistent>
1

> <s_lp_Variant>
AV-unprocessed.smi:203-7

> <Gold.Version>
5.8.1

> <Gold.Id.Protein>
6NUR|6NUR_protein|mol2

> <Gold.PLP.Fitness>
51.1165

> <Gold.PLP.PLP>
-45.1323

> <Gold.PLP.part.hbond>
-5.7506

> <Gold.PLP.part.metal>
0.0000

> <Gold.PLP.part.buried>
-4.9899

> <Gold.PLP.part.nonpolar>
-36.2043

> <Gold.PLP.part.repulsive>
1.1454

> <Gold.PLP.ligand.clash>
0.0000

> <Gold.PLP.ligand.torsion>
2.2483

> <Gold.PLP.Chemscore.Hbond>
3.3959

> <Gold.PLP.Chemscore.CHOScore>
0.0000

> <Gold.PLP.Chemscore.Metal>
0.0000

> <Gold.Chemscore.Hbonds>
donor molecule, donor type, donor heavy atom, donor atom, acceptor molecule, acceptor atom, score
      L1  H    29    57       P1  8028  0.06
      P1  H  6896  6909       L1    14  1.00
      P1  H  7989  7998       L1     1  0.46
      P1  H  7997  8009       L1    17  0.84
      P1  H  8011  8017       L1     1  0.64

> <Gold.PLP.Chemscore.Internal.Correction>
0.2930

> <Gold.Rescore>
     Score         DG    S(hbond)    S(metal)    S(lipo)     H(rot)  DE(clash)    DE(int)     intcor
     10.00     -17.59       2.26        0.00      98.46       2.72       0.12       7.47       ----

> <Gold.Chemscore.Fitness>
9.9952

> <Gold.Chemscore.DG>
-17.5882

> <Gold.Chemscore.ZeroCoef>
-5.4800

> <Gold.Chemscore.Hbond>
2.2588

> <Gold.Chemscore.Metal>
0.0000

> <Gold.Chemscore.Lipo>
98.4574

> <Gold.Chemscore.Internal_Hbond>
0.0000

> <Gold.Chemscore.DEClash>
0.1185

> <Gold.Chemscore.DEInternal>
7.4745

> <Gold.Chemscore.Rot>
2.7171

> <Gold.Chemscore.Internal.Correction>
   9.000000E+99

> <Gold.Chemscore.Hbonds>
donor molecule, donor type, donor heavy atom, donor atom, acceptor molecule, acceptor atom, score
      L1  H    29    57       P1  8028  0.07
      P1  H  6896  6909       L1    14  0.49
      P1  H  7989  7998       L1     1  0.25
      P1  H  7997  8009       L1    17  0.06
      P1  H  8011  8017       L1     1  0.62

> <Gold.Chemscore.Hbond.Weighted>
-7.5444

> <Gold.Chemscore.Metal.Weighted>
-0.0000

> <Gold.Chemscore.Lipo.Weighted>
-11.5195

> <Gold.Chemscore.Internal_Hbond.Weighted>
0.0000

> <Gold.Chemscore.DEClash.Weighted>
0.1185

> <Gold.Chemscore.DEInternal.Weighted>
7.4745

> <Gold.Chemscore.Rot.Weighted>
6.9557

> <Gold.Chemscore.Internal.Correction.Weighted>
   9.000000E+99

> <Gold.Protein.RotatedTorsions>
[ 6907 6896 6895 6894 ] final  135.34 input  -60.11 | X-H torsion
[ 7974 7965 7964 7962 ] final  -33.68 input  175.53 | X-H torsion
[ 8008 7997 7996 7995 ] final  134.93 input   59.86 | X-H torsion
[ 10167 10162 10161 10158 ] final -117.59 input  -65.29 | X-H torsion
[ 10718 10713 10712 10709 ] final -103.22 input   66.30 | X-H torsion
[ 10763 10752 10751 10750 ] final  154.65 input  -60.55 | X-H torsion
[ 11005 11000 10999 10996 ] final  -79.75 input  -57.11 | X-H torsion

> <Gold.Protein.ActiveResidues>
 VAL166  LYS551  ARG553  GLY616  TRP617  ASP618  TYR619  PRO620  LYS621  CYS622 
 ASP623  PHE694  ASN695  SER759  ASP760  ASP761  ALA762  ILE779  LEU786  VAL792 
 PHE793  MET794  SER795  GLU796  ALA797  LYS798  CYS799  TRP800  GLU811  SER814 

> <Gold.Protein.RotatedAtoms>
  152.3015  133.5660  159.5621 H   0  0  0  0  0  0  0  0  0  0  0  0  # atno 6907 bound_to 6896
  150.7280  134.0284  159.3734 H   0  0  0  0  0  0  0  0  0  0  0  0  # atno 6908 bound_to 6896
  151.8183  135.0660  160.0473 H   0  0  0  0  0  0  0  0  0  0  0  0  # atno 6909 bound_to 6896
  146.0891  140.5946  142.8873 H   0  0  0  0  0  0  0  0  0  0  0  0  # atno 7974 bound_to 7965
  156.3001  140.2483  156.3499 H   0  0  0  0  0  0  0  0  0  0  0  0  # atno 8008 bound_to 7997
  154.8976  140.0407  157.1894 H   0  0  0  0  0  0  0  0  0  0  0  0  # atno 8009 bound_to 7997
  154.8534  140.2909  155.5588 H   0  0  0  0  0  0  0  0  0  0  0  0  # atno 8010 bound_to 7997
  140.0667  143.4916  152.2002 H   0  0  0  0  0  0  0  0  0  0  0  0  # atno 10167 bound_to 10162
  156.0257  130.5457  150.7222 H   0  0  0  0  0  0  0  0  0  0  0  0  # atno 10718 bound_to 10713
  154.1558  135.2812  155.3123 H   0  0  0  0  0  0  0  0  0  0  0  0  # atno 10763 bound_to 10752
  154.6184  135.5475  153.7551 H   0  0  0  0  0  0  0  0  0  0  0  0  # atno 10764 bound_to 10752
  153.0207  135.6433  154.1701 H   0  0  0  0  0  0  0  0  0  0  0  0  # atno 10765 bound_to 10752
  141.1667  133.7119  156.8170 H   0  0  0  0  0  0  0  0  0  0  0  0  # atno 11005 bound_to 11000
  144.7347  140.4773  143.6912 LP  0  0  0  0  0  0  0  0  0  0  0  0  # atno 17320 bound_to 7965
  145.6074  139.1509  143.3095 LP  0  0  0  0  0  0  0  0  0  0  0  0  # atno 17321 bound_to 7965
  139.5861  144.7531  151.3518 LP  0  0  0  0  0  0  0  0  0  0  0  0  # atno 17342 bound_to 10162
  140.7145  143.7302  150.7630 LP  0  0  0  0  0  0  0  0  0  0  0  0  # atno 17343 bound_to 10162
  157.4835  131.0904  151.0509 LP  0  0  0  0  0  0  0  0  0  0  0  0  # atno 17370 bound_to 10713
  157.0936  130.5952  149.5445 LP  0  0  0  0  0  0  0  0  0  0  0  0  # atno 17371 bound_to 10713
  140.2147  134.8802  157.3312 LP  0  0  0  0  0  0  0  0  0  0  0  0  # atno 17394 bound_to 11000
  140.2050  134.4208  155.7642 LP  0  0  0  0  0  0  0  0  0  0  0  0  # atno 17395 bound_to 11000

$$$$
