AV-unprocessed.smi:2934|AV-procd|sdf|11255|dock8
  -GOLD-   2272016143D 1   1.00000     0.00000
 Structure written by MMmdl.
 44 45  0  0  0  0  0  0  0  0  2 V2000
  149.8977  141.6834  156.0044 C   0  0  0  0  0  0  0  0  0  0  0  0
  151.1671  141.5204  156.7190 N   0  0  0  0  0  0  0  0  0  0  0  0
  151.9474  140.4497  156.4130 C   0  0  0  0  0  0  0  0  0  0  0  0
  152.8391  140.0392  157.1579 O   0  0  0  0  0  0  0  0  0  0  0  0
  151.6914  139.8787  155.2198 N   0  0  0  0  0  0  0  0  0  0  0  0
  152.3563  138.6966  154.6745 C   0  0  0  0  0  0  0  0  0  0  0  0
  151.3830  137.7537  153.9378 C   0  0  0  0  0  0  0  0  0  0  0  0
  151.0763  136.4623  154.7037 C   0  0  0  0  0  0  0  0  0  0  0  0
  151.7400  136.1598  155.6957 O   0  0  0  0  0  0  0  0  0  0  0  0
  150.0591  135.7194  154.2428 N   0  0  0  0  0  0  0  0  0  0  0  0
  149.6128  134.4552  154.8221 C   0  0  0  0  0  0  0  0  0  0  0  0
  150.7988  133.4899  155.0099 C   0  0  0  0  0  0  0  0  0  0  0  0
  150.3420  132.1447  154.4435 C   0  0  0  0  0  0  0  0  0  0  0  0
  149.3573  132.5174  153.3403 C   0  0  0  0  0  0  0  0  0  0  0  0
  148.6129  133.7312  153.8979 C   0  0  0  0  0  0  0  0  0  0  0  0
  151.4896  142.4948  157.7121 C   0  0  0  0  0  0  0  0  0  0  0  0
  152.3682  142.2067  158.7851 C   0  0  0  0  0  0  0  0  0  0  0  0
  152.6619  143.2074  159.7338 C   0  0  0  0  0  0  0  0  0  0  0  0
  152.0774  144.4822  159.5952 C   0  0  0  0  0  0  0  0  0  0  0  0
  151.2162  144.7245  158.5069 C   0  0  0  0  0  0  0  0  0  0  0  0
  150.9607  143.7387  157.6187 N   0  3  0  0  0  0  0  0  0  0  0  0
  149.3845  142.6040  156.2855 H   0  0  0  0  0  0  0  0  0  0  0  0
  149.2262  140.8507  156.2184 H   0  0  0  0  0  0  0  0  0  0  0  0
  150.0590  141.7258  154.9261 H   0  0  0  0  0  0  0  0  0  0  0  0
  150.9587  140.2815  154.6538 H   0  0  0  0  0  0  0  0  0  0  0  0
  153.1157  139.0430  153.9732 H   0  0  0  0  0  0  0  0  0  0  0  0
  152.8957  138.1452  155.4467 H   0  0  0  0  0  0  0  0  0  0  0  0
  150.4422  138.2717  153.7466 H   0  0  0  0  0  0  0  0  0  0  0  0
  151.7932  137.5046  152.9582 H   0  0  0  0  0  0  0  0  0  0  0  0
  149.5621  136.0470  153.4271 H   0  0  0  0  0  0  0  0  0  0  0  0
  149.1431  134.6399  155.7902 H   0  0  0  0  0  0  0  0  0  0  0  0
  151.6679  133.8331  154.4459 H   0  0  0  0  0  0  0  0  0  0  0  0
  151.1045  133.4109  156.0537 H   0  0  0  0  0  0  0  0  0  0  0  0
  151.1715  131.5374  154.0803 H   0  0  0  0  0  0  0  0  0  0  0  0
  149.8259  131.5755  155.2178 H   0  0  0  0  0  0  0  0  0  0  0  0
  149.9043  132.8023  152.4406 H   0  0  0  0  0  0  0  0  0  0  0  0
  148.6882  131.6971  153.0788 H   0  0  0  0  0  0  0  0  0  0  0  0
  147.7621  133.3896  154.4888 H   0  0  0  0  0  0  0  0  0  0  0  0
  148.2150  134.3647  153.1040 H   0  0  0  0  0  0  0  0  0  0  0  0
  152.8200  141.2300  158.8803 H   0  0  0  0  0  0  0  0  0  0  0  0
  153.3299  142.9995  160.5566 H   0  0  0  0  0  0  0  0  0  0  0  0
  152.2893  145.2634  160.3107 H   0  0  0  0  0  0  0  0  0  0  0  0
  150.7281  145.6702  158.3207 H   0  0  0  0  0  0  0  0  0  0  0  0
  150.3339  143.9427  156.8397 H   0  0  0  0  0  0  0  0  0  0  0  0
  1  2  1  0  0  0  0
  1 22  1  0  0  0  0
  1 23  1  0  0  0  0
  1 24  1  0  0  0  0
  2  3  1  0  0  0  0
  2 16  1  0  0  0  0
  3  4  2  0  0  0  0
  3  5  1  0  0  0  0
  5  6  1  0  0  0  0
  5 25  1  0  0  0  0
  6  7  1  0  0  0  0
  6 26  1  0  0  0  0
  6 27  1  0  0  0  0
  7  8  1  0  0  0  0
  7 28  1  0  0  0  0
  7 29  1  0  0  0  0
  8  9  2  0  0  0  0
  8 10  1  0  0  0  0
 10 11  1  0  0  0  0
 10 30  1  0  0  0  0
 11 15  1  0  0  0  0
 11 12  1  0  0  0  0
 11 31  1  0  0  0  0
 12 13  1  0  0  0  0
 12 32  1  0  0  0  0
 12 33  1  0  0  0  0
 13 14  1  0  0  0  0
 13 34  1  0  0  0  0
 13 35  1  0  0  0  0
 14 15  1  0  0  0  0
 14 36  1  0  0  0  0
 14 37  1  0  0  0  0
 15 38  1  0  0  0  0
 15 39  1  0  0  0  0
 16 21  1  0  0  0  0
 16 17  2  0  0  0  0
 17 18  1  0  0  0  0
 17 40  1  0  0  0  0
 18 19  2  0  0  0  0
 18 41  1  0  0  0  0
 19 20  1  0  0  0  0
 19 42  1  0  0  0  0
 20 21  2  0  0  0  0
 20 43  1  0  0  0  0
 21 44  1  0  0  0  0
M  CHG  1  21   1
M  END
> <s_m_source_file>
AV-unprocessed.smi

> <i_m_source_file_index>
2934

> <i_lp_mmshare_version>
43012

> <i_f3d_flags>
0

> <s_epik_input>
bjFbY0hdW2NIXVtjSF1bY0hdYzFOKFtDSDNdKUMoPU8pW05IXVtDSDJdW0NIMl1DKD1PKVtOSF1bQ0hdMltDSDJdW0NIMl1bQ0gyXVtDSDJdMg==

> <s_epik_cmdline>
J2VwaWtfcHl0aG9uJywgJy1waCcsICc3LjAnLCAnLXRuJywgJzgnLCAnLW1hJywgJzIwMCcsICctbWV0YWxfYmluZGluZycsICctaW1hZScsICc8aW5maWxlLm1hZT4nLCAnLW9tYWUnLCAnPG91dGZpbGUubWFlPic=

> <r_epik_Ionization_Penalty>
0.416827

> <r_epik_Ionization_Penalty_Charging>
0.416808

> <r_epik_Ionization_Penalty_Neutral>
1.8964e-05

> <r_epik_State_Penalty>
0.417222

> <r_epik_Charging_Adjusted_Penalty>
0.83403

> <i_epik_Tot_Q>
1

> <i_epik_Tot_abs_Q>
1

> <r_epik_Metal_State_Penalty>
0.655167

> <b_epik_Metal_Only>
0

> <s_lp_Force_Field>
OPLS_2005

> <r_lp_Energy>
36.0061

> <b_lp_Chiralities_Consistent>
1

> <s_lp_Variant>
AV-unprocessed.smi:2934-2

> <Gold.Version>
5.8.1

> <Gold.Id.Protein>
6NUR|6NUR_protein|mol2

> <Gold.PLP.Fitness>
58.2736

> <Gold.PLP.PLP>
-46.5641

> <Gold.PLP.part.hbond>
-4.2805

> <Gold.PLP.part.metal>
0.0000

> <Gold.PLP.part.buried>
-3.7719

> <Gold.PLP.part.nonpolar>
-39.2373

> <Gold.PLP.part.repulsive>
0.7018

> <Gold.PLP.ligand.clash>
3.1244

> <Gold.PLP.ligand.torsion>
1.1082

> <Gold.PLP.Chemscore.Hbond>
5.0000

> <Gold.PLP.Chemscore.CHOScore>
0.0000

> <Gold.PLP.Chemscore.Metal>
0.0000

> <Gold.Chemscore.Hbonds>
donor molecule, donor type, donor heavy atom, donor atom, acceptor molecule, acceptor atom, score
      L1  H    10    30       P1  7948  1.00
      L1  H    21    44       P1  8028  2.00
      P1  H  7997  8010       L1     4  1.00
      P1  H 10752 10764       L1     9  1.00

> <Gold.PLP.Chemscore.Internal.Correction>
2.0504

> <Gold.Rescore>
     Score         DG    S(hbond)    S(metal)    S(lipo)     H(rot)  DE(clash)    DE(int)     intcor
     21.11     -23.80       3.48        0.00      95.90       1.76       0.16       2.52       ----

> <Gold.Chemscore.Fitness>
21.1121

> <Gold.Chemscore.DG>
-23.7960

> <Gold.Chemscore.ZeroCoef>
-5.4800

> <Gold.Chemscore.Hbond>
3.4757

> <Gold.Chemscore.Metal>
0.0000

> <Gold.Chemscore.Lipo>
95.9037

> <Gold.Chemscore.Internal_Hbond>
0.0000

> <Gold.Chemscore.DEClash>
0.1645

> <Gold.Chemscore.DEInternal>
2.5195

> <Gold.Chemscore.Rot>
1.7631

> <Gold.Chemscore.Internal.Correction>
   9.000000E+99

> <Gold.Chemscore.Hbonds>
donor molecule, donor type, donor heavy atom, donor atom, acceptor molecule, acceptor atom, score
      L1  H    10    30       P1  7948  0.30
      L1  H    21    44       P1  8028  0.95
      P1  H  7997  8010       L1     4  0.90
      P1  H 10752 10764       L1     9  0.54

> <Gold.Chemscore.Hbond.Weighted>
-11.6088

> <Gold.Chemscore.Metal.Weighted>
-0.0000

> <Gold.Chemscore.Lipo.Weighted>
-11.2207

> <Gold.Chemscore.Internal_Hbond.Weighted>
0.0000

> <Gold.Chemscore.DEClash.Weighted>
0.1645

> <Gold.Chemscore.DEInternal.Weighted>
2.5195

> <Gold.Chemscore.Rot.Weighted>
4.5135

> <Gold.Chemscore.Internal.Correction.Weighted>
   9.000000E+99

> <Gold.Protein.RotatedTorsions>
[ 6907 6896 6895 6894 ] final  103.43 input  -60.11 | X-H torsion
[ 7974 7965 7964 7962 ] final  -81.38 input  175.53 | X-H torsion
[ 8008 7997 7996 7995 ] final   64.81 input   59.86 | X-H torsion
[ 10167 10162 10161 10158 ] final    7.07 input  -65.29 | X-H torsion
[ 10718 10713 10712 10709 ] final -161.12 input   66.30 | X-H torsion
[ 10763 10752 10751 10750 ] final  -23.92 input  -60.55 | X-H torsion
[ 11005 11000 10999 10996 ] final  -79.91 input  -57.11 | X-H torsion

> <Gold.Protein.ActiveResidues>
 VAL166  LYS551  ARG553  GLY616  TRP617  ASP618  TYR619  PRO620  LYS621  CYS622 
 ASP623  PHE694  ASN695  SER759  ASP760  ASP761  ALA762  ILE779  LEU786  VAL792 
 PHE793  MET794  SER795  GLU796  ALA797  LYS798  CYS799  TRP800  GLU811  SER814 

> <Gold.Protein.RotatedAtoms>
  152.5295  133.9826  159.7813 H   0  0  0  0  0  0  0  0  0  0  0  0  # atno 6907 bound_to 6896
  151.0077  133.5987  159.2694 H   0  0  0  0  0  0  0  0  0  0  0  0  # atno 6908 bound_to 6896
  151.3073  135.0791  159.9313 H   0  0  0  0  0  0  0  0  0  0  0  0  # atno 6909 bound_to 6896
  145.5474  140.9501  143.1518 H   0  0  0  0  0  0  0  0  0  0  0  0  # atno 7974 bound_to 7965
  155.6519  140.3497  155.4751 H   0  0  0  0  0  0  0  0  0  0  0  0  # atno 8008 bound_to 7997
  155.9841  140.1180  157.0723 H   0  0  0  0  0  0  0  0  0  0  0  0  # atno 8009 bound_to 7997
  154.4200  140.1132  156.5461 H   0  0  0  0  0  0  0  0  0  0  0  0  # atno 8010 bound_to 7997
  140.6392  143.7814  150.7403 H   0  0  0  0  0  0  0  0  0  0  0  0  # atno 10167 bound_to 10162
  156.5918  130.8773  151.2892 H   0  0  0  0  0  0  0  0  0  0  0  0  # atno 10718 bound_to 10713
  153.6754  135.6969  153.5134 H   0  0  0  0  0  0  0  0  0  0  0  0  # atno 10763 bound_to 10752
  153.2525  135.4270  155.0811 H   0  0  0  0  0  0  0  0  0  0  0  0  # atno 10764 bound_to 10752
  154.8415  135.3535  154.6298 H   0  0  0  0  0  0  0  0  0  0  0  0  # atno 10765 bound_to 10752
  141.1668  133.7126  156.8193 H   0  0  0  0  0  0  0  0  0  0  0  0  # atno 11005 bound_to 11000
  144.7546  139.7106  143.7259 LP  0  0  0  0  0  0  0  0  0  0  0  0  # atno 17320 bound_to 7965
  146.1940  139.5196  142.9787 LP  0  0  0  0  0  0  0  0  0  0  0  0  # atno 17321 bound_to 7965
  140.1442  143.4414  152.2174 LP  0  0  0  0  0  0  0  0  0  0  0  0  # atno 17342 bound_to 10162
  139.5602  144.7400  151.4178 LP  0  0  0  0  0  0  0  0  0  0  0  0  # atno 17343 bound_to 10162
  157.7302  130.9681  150.1820 LP  0  0  0  0  0  0  0  0  0  0  0  0  # atno 17370 bound_to 10713
  156.2543  130.3704  149.8198 LP  0  0  0  0  0  0  0  0  0  0  0  0  # atno 17371 bound_to 10713
  140.2131  134.8813  157.3296 LP  0  0  0  0  0  0  0  0  0  0  0  0  # atno 17394 bound_to 11000
  140.2066  134.4189  155.7634 LP  0  0  0  0  0  0  0  0  0  0  0  0  # atno 17395 bound_to 11000

$$$$
