AV-unprocessed.smi:1756|AV-procd|sdf|7072|dock3
  -GOLD-   22720 8293D 1   1.00000     0.00000
 Structure written by MMmdl.
 38 39  0  0  0  0  0  0  0  0  1 V2000
  152.9054  139.5102  156.5395 O   0  0  0  0  0  0  0  0  0  0  0  0
  152.1858  139.2164  157.4936 C   0  0  0  0  0  0  0  0  0  0  0  0
  152.2028  139.8783  158.6591 N   0  0  0  0  0  0  0  0  0  0  0  0
  153.0431  141.0318  158.9677 C   0  0  0  0  0  0  0  0  0  0  0  0
  152.2215  142.2372  159.4606 C   0  0  1  0  0  0  0  0  0  0  0  0
  152.6073  142.7075  160.8798 C   0  0  0  0  0  0  0  0  0  0  0  0
  151.8321  143.9732  161.2625 C   0  0  0  0  0  0  0  0  0  0  0  0
  152.0093  145.0381  160.1760 C   0  0  0  0  0  0  0  0  0  0  0  0
  151.6498  144.4576  158.7999 C   0  0  0  0  0  0  0  0  0  0  0  0
  152.4418  143.3030  158.5392 O   0  0  0  0  0  0  0  0  0  0  0  0
  151.3040  138.2005  157.5340 N   0  0  0  0  0  0  0  0  0  0  0  0
  150.9625  137.2730  156.5347 C   0  0  0  0  0  0  0  0  0  0  0  0
  150.9111  135.9257  156.7054 C   0  0  0  0  0  0  0  0  0  0  0  0
  150.5584  135.0232  155.6222 C   0  0  0  0  0  0  0  0  0  0  0  0
  150.4208  133.5254  155.8460 C   0  0  0  0  0  0  0  0  0  0  0  0
  150.0803  132.8979  154.7195 F   0  0  0  0  0  0  0  0  0  0  0  0
  151.5801  133.0222  156.2669 F   0  0  0  0  0  0  0  0  0  0  0  0
  149.4950  133.2620  156.7683 F   0  0  0  0  0  0  0  0  0  0  0  0
  150.2765  135.5913  154.4353 C   0  0  0  0  0  0  0  0  0  0  0  0
  150.3495  136.9728  154.2449 N   0  0  0  0  0  0  0  0  0  0  0  0
  150.6746  137.8574  155.2143 C   0  0  0  0  0  0  0  0  0  0  0  0
  150.7150  139.0620  154.9664 O   0  0  0  0  0  0  0  0  0  0  0  0
  150.1401  137.3202  153.3201 H   0  0  0  0  0  0  0  0  0  0  0  0
  151.5839  139.5622  159.3914 H   0  0  0  0  0  0  0  0  0  0  0  0
  153.8178  140.7761  159.6925 H   0  0  0  0  0  0  0  0  0  0  0  0
  153.5668  141.3043  158.0512 H   0  0  0  0  0  0  0  0  0  0  0  0
  151.1631  141.9709  159.4389 H   0  0  0  0  0  0  0  0  0  0  0  0
  152.4086  141.9256  161.6125 H   0  0  0  0  0  0  0  0  0  0  0  0
  153.6786  142.9091  160.9207 H   0  0  0  0  0  0  0  0  0  0  0  0
  150.7737  143.7352  161.3749 H   0  0  0  0  0  0  0  0  0  0  0  0
  152.1732  144.3518  162.2263 H   0  0  0  0  0  0  0  0  0  0  0  0
  151.3891  145.9079  160.3939 H   0  0  0  0  0  0  0  0  0  0  0  0
  153.0436  145.3844  160.1662 H   0  0  0  0  0  0  0  0  0  0  0  0
  150.5897  144.2051  158.7476 H   0  0  0  0  0  0  0  0  0  0  0  0
  151.8390  145.1965  158.0210 H   0  0  0  0  0  0  0  0  0  0  0  0
  150.8349  138.0532  158.4159 H   0  0  0  0  0  0  0  0  0  0  0  0
  151.1512  135.4753  157.6542 H   0  0  0  0  0  0  0  0  0  0  0  0
  149.9719  135.0434  153.5555 H   0  0  0  0  0  0  0  0  0  0  0  0
  1  2  2  0  0  0  0
  2  3  1  0  0  0  0
  2 11  1  0  0  0  0
  3  4  1  0  0  0  0
  3 24  1  0  0  0  0
  4  5  1  0  0  0  0
  4 25  1  0  0  0  0
  4 26  1  0  0  0  0
  5 10  1  0  0  0  0
  5  6  1  0  0  0  0
  5 27  1  0  0  0  0
  6  7  1  0  0  0  0
  6 28  1  0  0  0  0
  6 29  1  0  0  0  0
  7  8  1  0  0  0  0
  7 30  1  0  0  0  0
  7 31  1  0  0  0  0
  8  9  1  0  0  0  0
  8 32  1  0  0  0  0
  8 33  1  0  0  0  0
  9 10  1  0  0  0  0
  9 34  1  0  0  0  0
  9 35  1  0  0  0  0
 11 12  1  0  0  0  0
 11 36  1  0  0  0  0
 12 21  1  0  0  0  0
 12 13  2  0  0  0  0
 13 14  1  0  0  0  0
 13 37  1  0  0  0  0
 14 15  1  0  0  0  0
 14 19  2  0  0  0  0
 15 16  1  0  0  0  0
 15 17  1  0  0  0  0
 15 18  1  0  0  0  0
 19 20  1  0  0  0  0
 19 38  1  0  0  0  0
 20 23  1  0  0  0  0
 20 21  1  0  0  0  0
 21 22  2  0  0  0  0
M  END
> <s_m_source_file>
AV-unprocessed.smi

> <i_m_source_file_index>
1756

> <i_lp_mmshare_version>
43012

> <i_f3d_flags>
0

> <s_epik_input>
Tz1jMVtuSF1bY0hdYyhDKEYpKEYpRilbY0hdYzFbTkhdQyg9TylbTkhdW0NIMl1bQ0BASF0yW0NIMl1bQ0gyXVtDSDJdW0NIMl1PMg==

> <s_epik_cmdline>
J2VwaWtfcHl0aG9uJywgJy1waCcsICc3LjAnLCAnLXRuJywgJzgnLCAnLW1hJywgJzIwMCcsICctbWV0YWxfYmluZGluZycsICctaW1hZScsICc8aW5maWxlLm1hZT4nLCAnLW9tYWUnLCAnPG91dGZpbGUubWFlPic=

> <r_lp_tautomer_probability>
1

> <r_epik_Ionization_Penalty>
0.00380944

> <r_epik_Ionization_Penalty_Charging>
0.00379057

> <r_epik_Ionization_Penalty_Neutral>
1.88732e-05

> <r_epik_State_Penalty>
-0

> <r_epik_Charging_Adjusted_Penalty>
0.00379057

> <i_epik_Tot_Q>
0

> <i_epik_Tot_abs_Q>
0

> <r_epik_Metal_State_Penalty>
0.371099

> <b_epik_Metal_Only>
0

> <s_lp_Force_Field>
OPLS_2005

> <r_lp_Energy>
19.4394

> <b_lp_Chiralities_Consistent>
1

> <s_lp_Variant>
AV-unprocessed.smi:1756-2

> <Gold.Version>
5.8.1

> <Gold.Id.Protein>
6NUR|6NUR_protein|mol2

> <Gold.PLP.Fitness>
39.1994

> <Gold.PLP.PLP>
-37.2637

> <Gold.PLP.part.hbond>
-2.3093

> <Gold.PLP.part.metal>
0.0000

> <Gold.PLP.part.buried>
-5.9840

> <Gold.PLP.part.nonpolar>
-29.6044

> <Gold.PLP.part.repulsive>
0.2896

> <Gold.PLP.ligand.clash>
1.2479

> <Gold.PLP.ligand.torsion>
1.2085

> <Gold.PLP.Chemscore.Hbond>
1.5526

> <Gold.PLP.Chemscore.CHOScore>
0.2996

> <Gold.PLP.Chemscore.Metal>
0.0000

> <Gold.Chemscore.Hbonds>
donor molecule, donor type, donor heavy atom, donor atom, acceptor molecule, acceptor atom, score
      L1  H    20    23       P1  7948  0.34
      P1  H  7997  8008       L1     1  0.94
      L1  C    19    38       P1  7948  0.12

> <Gold.PLP.Chemscore.Internal.Correction>
0.0440

> <Gold.Rescore>
     Score         DG    S(hbond)    S(metal)    S(lipo)     H(rot)  DE(clash)    DE(int)     intcor
     16.81     -18.28       1.76        0.00      88.33       1.33       0.01       1.46       ----

> <Gold.Chemscore.Fitness>
16.8125

> <Gold.Chemscore.DG>
-18.2782

> <Gold.Chemscore.ZeroCoef>
-5.4800

> <Gold.Chemscore.Hbond>
1.7605

> <Gold.Chemscore.Metal>
0.0000

> <Gold.Chemscore.Lipo>
88.3252

> <Gold.Chemscore.Internal_Hbond>
0.0000

> <Gold.Chemscore.DEClash>
0.0060

> <Gold.Chemscore.DEInternal>
1.4597

> <Gold.Chemscore.Rot>
1.3344

> <Gold.Chemscore.Internal.Correction>
   9.000000E+99

> <Gold.Chemscore.Hbonds>
donor molecule, donor type, donor heavy atom, donor atom, acceptor molecule, acceptor atom, score
      L1  H    20    23       P1  7948  0.07
      P1  H  7989  7998       L1    22  0.01
      P1  H  7997  8008       L1     1  0.89

> <Gold.Chemscore.Hbond.Weighted>
-5.8801

> <Gold.Chemscore.Metal.Weighted>
-0.0000

> <Gold.Chemscore.Lipo.Weighted>
-10.3341

> <Gold.Chemscore.Internal_Hbond.Weighted>
0.0000

> <Gold.Chemscore.DEClash.Weighted>
0.0060

> <Gold.Chemscore.DEInternal.Weighted>
1.4597

> <Gold.Chemscore.Rot.Weighted>
3.4160

> <Gold.Chemscore.Internal.Correction.Weighted>
   9.000000E+99

> <Gold.Protein.RotatedTorsions>
[ 6907 6896 6895 6894 ] final  150.60 input  -60.11 | X-H torsion
[ 7974 7965 7964 7962 ] final   29.28 input  175.53 | X-H torsion
[ 8008 7997 7996 7995 ] final  -72.10 input   59.86 | X-H torsion
[ 10167 10162 10161 10158 ] final  -19.57 input  -65.29 | X-H torsion
[ 10718 10713 10712 10709 ] final -122.06 input   66.30 | X-H torsion
[ 10763 10752 10751 10750 ] final  172.45 input  -60.55 | X-H torsion
[ 11005 11000 10999 10996 ] final  -89.60 input  -57.11 | X-H torsion

> <Gold.Protein.ActiveResidues>
 VAL166  LYS551  ARG553  GLY616  TRP617  ASP618  TYR619  PRO620  LYS621  CYS622 
 ASP623  PHE694  ASN695  SER759  ASP760  ASP761  ALA762  ILE779  LEU786  VAL792 
 PHE793  MET794  SER795  GLU796  ALA797  LYS798  CYS799  TRP800  GLU811  SER814 

> <Gold.Protein.RotatedAtoms>
  152.1122  133.4307  159.4635 H   0  0  0  0  0  0  0  0  0  0  0  0  # atno 6907 bound_to 6896
  150.6868  134.2635  159.4568 H   0  0  0  0  0  0  0  0  0  0  0  0  # atno 6908 bound_to 6896
  152.0504  134.9656  160.0625 H   0  0  0  0  0  0  0  0  0  0  0  0  # atno 6909 bound_to 6896
  146.1680  139.6942  142.8987 H   0  0  0  0  0  0  0  0  0  0  0  0  # atno 7974 bound_to 7965
  154.5140  140.0803  156.8044 H   0  0  0  0  0  0  0  0  0  0  0  0  # atno 8008 bound_to 7997
  155.3722  140.3423  155.4225 H   0  0  0  0  0  0  0  0  0  0  0  0  # atno 8009 bound_to 7997
  156.1606  140.1587  156.8606 H   0  0  0  0  0  0  0  0  0  0  0  0  # atno 8010 bound_to 7997
  140.7269  143.4806  151.0123 H   0  0  0  0  0  0  0  0  0  0  0  0  # atno 10167 bound_to 10162
  156.1388  130.6450  150.9738 H   0  0  0  0  0  0  0  0  0  0  0  0  # atno 10718 bound_to 10713
  154.4262  135.2759  155.1943 H   0  0  0  0  0  0  0  0  0  0  0  0  # atno 10763 bound_to 10752
  154.3868  135.6075  153.5824 H   0  0  0  0  0  0  0  0  0  0  0  0  # atno 10764 bound_to 10752
  152.9834  135.5893  154.4566 H   0  0  0  0  0  0  0  0  0  0  0  0  # atno 10765 bound_to 10752
  141.1581  133.7640  156.9619 H   0  0  0  0  0  0  0  0  0  0  0  0  # atno 11005 bound_to 11000
  145.4415  141.0422  143.2855 LP  0  0  0  0  0  0  0  0  0  0  0  0  # atno 17320 bound_to 7965
  144.8121  139.5943  143.7025 LP  0  0  0  0  0  0  0  0  0  0  0  0  # atno 17321 bound_to 7965
  139.8504  143.7446  152.3178 LP  0  0  0  0  0  0  0  0  0  0  0  0  # atno 17342 bound_to 10162
  139.7626  144.7502  151.0342 LP  0  0  0  0  0  0  0  0  0  0  0  0  # atno 17343 bound_to 10162
  157.6556  131.0890  150.7953 LP  0  0  0  0  0  0  0  0  0  0  0  0  # atno 17370 bound_to 10713
  156.8031  130.4927  149.5367 LP  0  0  0  0  0  0  0  0  0  0  0  0  # atno 17371 bound_to 10713
  140.1187  134.9430  157.2172 LP  0  0  0  0  0  0  0  0  0  0  0  0  # atno 17394 bound_to 11000
  140.3099  134.3035  155.7269 LP  0  0  0  0  0  0  0  0  0  0  0  0  # atno 17395 bound_to 11000

$$$$
