AV-unprocessed.smi:415|AV-procd|sdf|2521|dock7
  -GOLD-   2262022473D 1   1.00000     0.00000
 Structure written by MMmdl.
 53 54  0  0  0  0  0  0  0  0  1 V2000
  150.8092  134.6120  156.4226 C   0  0  0  0  0  0  0  0  0  0  0  0
  151.1104  135.7195  155.5919 O   0  0  0  0  0  0  0  0  0  0  0  0
  150.1687  136.7700  155.7243 C   0  0  0  0  0  0  0  0  0  0  0  0
  150.3523  137.7473  154.5538 C   0  0  0  0  0  0  0  0  0  0  0  0
  149.5268  138.9324  154.6799 N   0  0  0  0  0  0  0  0  0  0  0  0
  148.5268  139.2688  153.7720 C   0  0  0  0  0  0  0  0  0  0  0  0
  148.2746  138.4402  152.6934 N   0  0  0  0  0  0  0  0  0  0  0  0
  147.7816  140.3859  153.9270 C   0  0  0  0  0  0  0  0  0  0  0  0
  147.9765  141.2912  155.0509 C   0  0  0  0  0  0  0  0  0  0  0  0
  147.3242  142.3254  155.1968 O   0  0  0  0  0  0  0  0  0  0  0  0
  148.9753  140.9131  155.9774 N   0  0  0  0  0  0  0  0  0  0  0  0
  149.2348  141.7879  157.1423 C   0  0  0  0  0  0  0  0  0  0  0  0
  150.7041  142.2187  157.2657 C   0  0  0  0  0  0  0  0  0  0  0  0
  151.5603  141.7848  156.4934 O   0  0  0  0  0  0  0  0  0  0  0  0
  150.9740  143.0921  158.2471 N   0  0  0  0  0  0  0  0  0  0  0  0
  152.2930  143.6450  158.5584 C   0  0  1  0  0  0  0  0  0  0  0  0
  152.2201  145.1768  158.7158 C   0  0  0  0  0  0  0  0  0  0  0  0
  151.4663  145.5833  159.9898 C   0  0  0  0  0  0  0  0  0  0  0  0
  152.0940  144.9322  161.2293 C   0  0  0  0  0  0  0  0  0  0  0  0
  152.1551  143.3949  161.1121 C   0  0  2  0  0  0  0  0  0  0  0  0
  152.7820  142.8014  162.3865 C   0  0  0  0  0  0  0  0  0  0  0  0
  152.9017  142.9710  159.8159 C   0  0  1  0  0  0  0  0  0  0  0  0
  152.9905  141.4410  159.6410 C   0  0  0  0  0  0  0  0  0  0  0  0
  149.7567  139.7459  155.8190 C   0  0  0  0  0  0  0  0  0  0  0  0
  150.6157  139.4534  156.6560 O   0  0  0  0  0  0  0  0  0  0  0  0
  151.5621  133.8359  156.2853 H   0  0  0  0  0  0  0  0  0  0  0  0
  149.8365  134.1855  156.1743 H   0  0  0  0  0  0  0  0  0  0  0  0
  150.8085  134.8967  157.4757 H   0  0  0  0  0  0  0  0  0  0  0  0
  149.1553  136.3653  155.7197 H   0  0  0  0  0  0  0  0  0  0  0  0
  150.3149  137.2826  156.6765 H   0  0  0  0  0  0  0  0  0  0  0  0
  151.3901  138.0663  154.4412 H   0  0  0  0  0  0  0  0  0  0  0  0
  150.0985  137.2783  153.6038 H   0  0  0  0  0  0  0  0  0  0  0  0
  148.7974  137.5895  152.5403 H   0  0  0  0  0  0  0  0  0  0  0  0
  147.5388  138.6379  152.0305 H   0  0  0  0  0  0  0  0  0  0  0  0
  147.0154  140.6222  153.2024 H   0  0  0  0  0  0  0  0  0  0  0  0
  148.6194  142.6880  157.1110 H   0  0  0  0  0  0  0  0  0  0  0  0
  148.9310  141.2950  158.0676 H   0  0  0  0  0  0  0  0  0  0  0  0
  150.2074  143.3989  158.8286 H   0  0  0  0  0  0  0  0  0  0  0  0
  152.9574  143.4282  157.7194 H   0  0  0  0  0  0  0  0  0  0  0  0
  153.2322  145.5811  158.7557 H   0  0  0  0  0  0  0  0  0  0  0  0
  151.7495  145.6290  157.8420 H   0  0  0  0  0  0  0  0  0  0  0  0
  151.4770  146.6684  160.0958 H   0  0  0  0  0  0  0  0  0  0  0  0
  150.4178  145.2929  159.9115 H   0  0  0  0  0  0  0  0  0  0  0  0
  153.0995  145.3294  161.3750 H   0  0  0  0  0  0  0  0  0  0  0  0
  151.5218  145.2163  162.1131 H   0  0  0  0  0  0  0  0  0  0  0  0
  151.1300  143.0260  161.0535 H   0  0  0  0  0  0  0  0  0  0  0  0
  153.8351  143.0705  162.4735 H   0  0  0  0  0  0  0  0  0  0  0  0
  152.7099  141.7144  162.4044 H   0  0  0  0  0  0  0  0  0  0  0  0
  152.2728  143.1662  163.2788 H   0  0  0  0  0  0  0  0  0  0  0  0
  153.9270  143.3353  159.8994 H   0  0  0  0  0  0  0  0  0  0  0  0
  152.0067  140.9724  159.6797 H   0  0  0  0  0  0  0  0  0  0  0  0
  153.6073  140.9832  160.4138 H   0  0  0  0  0  0  0  0  0  0  0  0
  153.4429  141.1836  158.6829 H   0  0  0  0  0  0  0  0  0  0  0  0
  1  2  1  0  0  0  0
  1 26  1  0  0  0  0
  1 27  1  0  0  0  0
  1 28  1  0  0  0  0
  2  3  1  0  0  0  0
  3  4  1  0  0  0  0
  3 29  1  0  0  0  0
  3 30  1  0  0  0  0
  4  5  1  0  0  0  0
  4 31  1  0  0  0  0
  4 32  1  0  0  0  0
  5 24  1  0  0  0  0
  5  6  1  0  0  0  0
  6  7  1  0  0  0  0
  6  8  2  0  0  0  0
  7 33  1  0  0  0  0
  7 34  1  0  0  0  0
  8  9  1  0  0  0  0
  8 35  1  0  0  0  0
  9 10  2  0  0  0  0
  9 11  1  0  0  0  0
 11 12  1  0  0  0  0
 11 24  1  0  0  0  0
 12 13  1  0  0  0  0
 12 36  1  0  0  0  0
 12 37  1  0  0  0  0
 13 14  2  0  0  0  0
 13 15  1  0  0  0  0
 15 16  1  0  0  0  0
 15 38  1  0  0  0  0
 16 22  1  0  0  0  0
 16 17  1  0  0  0  0
 16 39  1  0  0  0  0
 17 18  1  0  0  0  0
 17 40  1  0  0  0  0
 17 41  1  0  0  0  0
 18 19  1  0  0  0  0
 18 42  1  0  0  0  0
 18 43  1  0  0  0  0
 19 20  1  0  0  0  0
 19 44  1  0  0  0  0
 19 45  1  0  0  0  0
 20 21  1  0  0  0  0
 20 22  1  0  0  0  0
 20 46  1  0  0  0  0
 21 47  1  0  0  0  0
 21 48  1  0  0  0  0
 21 49  1  0  0  0  0
 22 23  1  0  0  0  0
 22 50  1  0  0  0  0
 23 51  1  0  0  0  0
 23 52  1  0  0  0  0
 23 53  1  0  0  0  0
 24 25  2  0  0  0  0
M  END
> <s_m_source_file>
AV-unprocessed.smi

> <i_m_source_file_index>
415

> <i_lp_mmshare_version>
43012

> <i_f3d_flags>
0

> <s_epik_input>
W0NIM11PW0NIMl1bQ0gyXW4xYyhbTkgyXSlbY0hdYyg9TyluKGMxPU8pW0NIMl1DKD1PKVtOSF1bQ0BASF0yW0NIMl1bQ0gyXVtDSDJdW0NAQEhdKFtDSDNdKVtDQEhdMltDSDNd

> <s_epik_cmdline>
J2VwaWtfcHl0aG9uJywgJy1waCcsICc3LjAnLCAnLXRuJywgJzgnLCAnLW1hJywgJzIwMCcsICctbWV0YWxfYmluZGluZycsICctaW1hZScsICc8aW5maWxlLm1hZT4nLCAnLW9tYWUnLCAnPG91dGZpbGUubWFlPic=

> <r_lp_tautomer_probability>
1

> <r_epik_Ionization_Penalty>
8.6647e-06

> <r_epik_Ionization_Penalty_Charging>
1.81162e-08

> <r_epik_Ionization_Penalty_Neutral>
8.64658e-06

> <r_epik_State_Penalty>
-0

> <r_epik_Charging_Adjusted_Penalty>
1.81162e-08

> <i_epik_Tot_Q>
0

> <i_epik_Tot_abs_Q>
0

> <r_epik_Metal_State_Penalty>
-0

> <b_epik_Metal_Only>
0

> <s_lp_Force_Field>
OPLS_2005

> <r_lp_Energy>
19.0862

> <b_lp_Chiralities_Consistent>
1

> <s_lp_Variant>
AV-unprocessed.smi:415-4

> <Gold.Version>
5.8.1

> <Gold.Id.Protein>
6NUR|6NUR_protein|mol2

> <Gold.PLP.Fitness>
54.6842

> <Gold.PLP.PLP>
-49.2014

> <Gold.PLP.part.hbond>
-2.5626

> <Gold.PLP.part.metal>
0.0000

> <Gold.PLP.part.buried>
-2.0512

> <Gold.PLP.part.nonpolar>
-46.4666

> <Gold.PLP.part.repulsive>
1.8382

> <Gold.PLP.ligand.clash>
0.0000

> <Gold.PLP.ligand.torsion>
0.2887

> <Gold.PLP.Chemscore.Hbond>
2.0000

> <Gold.PLP.Chemscore.CHOScore>
0.0000

> <Gold.PLP.Chemscore.Metal>
0.0000

> <Gold.Chemscore.Hbonds>
donor molecule, donor type, donor heavy atom, donor atom, acceptor molecule, acceptor atom, score
      L1  H     7    33       P1  7948  0.93
      P1  H 10752 10765       L1     2  0.94

> <Gold.PLP.Chemscore.Internal.Correction>
0.0602

> <Gold.Rescore>
     Score         DG    S(hbond)    S(metal)    S(lipo)     H(rot)  DE(clash)    DE(int)     intcor
     11.90     -19.83       1.67        0.00     124.49       2.26       2.92       5.01       ----

> <Gold.Chemscore.Fitness>
11.9025

> <Gold.Chemscore.DG>
-19.8289

> <Gold.Chemscore.ZeroCoef>
-5.4800

> <Gold.Chemscore.Hbond>
1.6710

> <Gold.Chemscore.Metal>
0.0000

> <Gold.Chemscore.Lipo>
124.4871

> <Gold.Chemscore.Internal_Hbond>
0.0000

> <Gold.Chemscore.DEClash>
2.9156

> <Gold.Chemscore.DEInternal>
5.0108

> <Gold.Chemscore.Rot>
2.2645

> <Gold.Chemscore.Internal.Correction>
   9.000000E+99

> <Gold.Chemscore.Hbonds>
donor molecule, donor type, donor heavy atom, donor atom, acceptor molecule, acceptor atom, score
      L1  H     7    33       P1  7948  0.84
      P1  H 10752 10765       L1     2  0.74

> <Gold.Chemscore.Hbond.Weighted>
-5.5811

> <Gold.Chemscore.Metal.Weighted>
-0.0000

> <Gold.Chemscore.Lipo.Weighted>
-14.5650

> <Gold.Chemscore.Internal_Hbond.Weighted>
0.0000

> <Gold.Chemscore.DEClash.Weighted>
2.9156

> <Gold.Chemscore.DEInternal.Weighted>
5.0108

> <Gold.Chemscore.Rot.Weighted>
5.7972

> <Gold.Chemscore.Internal.Correction.Weighted>
   9.000000E+99

> <Gold.Protein.RotatedTorsions>
[ 6907 6896 6895 6894 ] final   45.75 input  -60.11 | X-H torsion
[ 7974 7965 7964 7962 ] final  148.51 input  175.53 | X-H torsion
[ 8008 7997 7996 7995 ] final   -8.08 input   59.86 | X-H torsion
[ 10167 10162 10161 10158 ] final  -19.18 input  -65.29 | X-H torsion
[ 10718 10713 10712 10709 ] final  -79.80 input   66.30 | X-H torsion
[ 10763 10752 10751 10750 ] final -174.65 input  -60.55 | X-H torsion
[ 11005 11000 10999 10996 ] final   31.46 input  -57.11 | X-H torsion

> <Gold.Protein.ActiveResidues>
 VAL166  LYS551  ARG553  GLY616  TRP617  ASP618  TYR619  PRO620  LYS621  CYS622 
 ASP623  PHE694  ASN695  SER759  ASP760  ASP761  ALA762  ILE779  LEU786  VAL792 
 PHE793  MET794  SER795  GLU796  ALA797  LYS798  CYS799  TRP800  GLU811  SER814 

> <Gold.Protein.RotatedAtoms>
  152.2483  134.8159  160.0449 H   0  0  0  0  0  0  0  0  0  0  0  0  # atno 6907 bound_to 6896
  151.8848  133.3498  159.3786 H   0  0  0  0  0  0  0  0  0  0  0  0  # atno 6908 bound_to 6896
  150.7075  134.4909  159.5559 H   0  0  0  0  0  0  0  0  0  0  0  0  # atno 6909 bound_to 6896
  144.8508  139.6163  143.5974 H   0  0  0  0  0  0  0  0  0  0  0  0  # atno 7974 bound_to 7965
  154.5776  140.2390  155.8100 H   0  0  0  0  0  0  0  0  0  0  0  0  # atno 8008 bound_to 7997
  156.2155  140.3013  155.9785 H   0  0  0  0  0  0  0  0  0  0  0  0  # atno 8009 bound_to 7997
  155.2599  140.0414  157.2986 H   0  0  0  0  0  0  0  0  0  0  0  0  # atno 8010 bound_to 7997
  140.7266  143.4844  151.0074 H   0  0  0  0  0  0  0  0  0  0  0  0  # atno 10167 bound_to 10162
  156.0084  130.4556  150.3703 H   0  0  0  0  0  0  0  0  0  0  0  0  # atno 10718 bound_to 10713
  154.5937  135.2847  155.0608 H   0  0  0  0  0  0  0  0  0  0  0  0  # atno 10763 bound_to 10752
  154.1899  135.6442  153.5061 H   0  0  0  0  0  0  0  0  0  0  0  0  # atno 10764 bound_to 10752
  153.0131  135.5443  154.6632 H   0  0  0  0  0  0  0  0  0  0  0  0  # atno 10765 bound_to 10752
  140.2836  134.2944  155.7794 H   0  0  0  0  0  0  0  0  0  0  0  0  # atno 11005 bound_to 11000
  146.2783  139.6811  142.9247 LP  0  0  0  0  0  0  0  0  0  0  0  0  # atno 17320 bound_to 7965
  145.4503  141.0428  143.2808 LP  0  0  0  0  0  0  0  0  0  0  0  0  # atno 17321 bound_to 7965
  139.8545  143.7395  152.3176 LP  0  0  0  0  0  0  0  0  0  0  0  0  # atno 17342 bound_to 10162
  139.7589  144.7512  151.0394 LP  0  0  0  0  0  0  0  0  0  0  0  0  # atno 17343 bound_to 10162
  157.1788  131.0387  151.2759 LP  0  0  0  0  0  0  0  0  0  0  0  0  # atno 17370 bound_to 10713
  157.4164  130.7413  149.6879 LP  0  0  0  0  0  0  0  0  0  0  0  0  # atno 17371 bound_to 10713
  141.2158  133.7541  156.9518 LP  0  0  0  0  0  0  0  0  0  0  0  0  # atno 17394 bound_to 11000
  140.1260  134.9386  157.2271 LP  0  0  0  0  0  0  0  0  0  0  0  0  # atno 17395 bound_to 11000

$$$$
