AV-unprocessed.smi:2945|AV-procd|sdf|11278|dock8
  -GOLD-   2272016173D 1   1.00000     0.00000
 Structure written by MMmdl.
 36 37  0  0  0  0  0  0  0  0  1 V2000
  144.7117  137.3498  158.7632 C   0  0  0  0  0  0  0  0  0  0  0  0
  144.3784  136.1788  157.9034 C   0  0  0  0  0  0  0  0  0  0  0  0
  144.8674  135.7333  156.7078 C   0  0  0  0  0  0  0  0  0  0  0  0
  144.1012  134.5623  156.4651 C   0  0  0  0  0  0  0  0  0  0  0  0
  144.3111  133.7860  155.2973 N   0  0  0  0  0  0  0  0  0  0  0  0
  145.2224  133.9871  154.3307 C   0  0  0  0  0  0  0  0  0  0  0  0
  146.0530  134.8960  154.3174 O   0  0  0  0  0  0  0  0  0  0  0  0
  145.1163  133.0583  153.3688 N   0  0  0  0  0  0  0  0  0  0  0  0
  145.9345  132.9678  152.1575 C   0  0  2  0  0  0  0  0  0  0  0  0
  145.8719  134.3017  151.3861 C   0  0  0  0  0  0  0  0  0  0  0  0
  144.4900  134.5437  150.7545 C   0  0  0  0  0  0  0  0  0  0  0  0
  144.0747  133.3676  149.8582 C   0  0  0  0  0  0  0  0  0  0  0  0
  144.1133  132.0366  150.6265 C   0  0  0  0  0  0  0  0  0  0  0  0
  145.4992  131.7841  151.2560 C   0  0  2  0  0  0  0  0  0  0  0  0
  145.5551  130.4260  151.9759 C   0  0  0  0  0  0  0  0  0  0  0  0
  143.2224  134.3163  157.4246 N   0  0  0  0  0  0  0  0  0  0  0  0
  143.3952  135.3514  158.3511 O   0  0  0  0  0  0  0  0  0  0  0  0
  145.5694  137.8932  158.3664 H   0  0  0  0  0  0  0  0  0  0  0  0
  144.9549  137.0295  159.7763 H   0  0  0  0  0  0  0  0  0  0  0  0
  143.8698  138.0401  158.8185 H   0  0  0  0  0  0  0  0  0  0  0  0
  145.6490  136.1748  156.1073 H   0  0  0  0  0  0  0  0  0  0  0  0
  143.6940  132.9964  155.1804 H   0  0  0  0  0  0  0  0  0  0  0  0
  144.4036  132.3518  153.4771 H   0  0  0  0  0  0  0  0  0  0  0  0
  146.9770  132.8096  152.4391 H   0  0  0  0  0  0  0  0  0  0  0  0
  146.1326  135.1312  152.0445 H   0  0  0  0  0  0  0  0  0  0  0  0
  146.6256  134.2940  150.5978 H   0  0  0  0  0  0  0  0  0  0  0  0
  143.7447  134.6883  151.5374 H   0  0  0  0  0  0  0  0  0  0  0  0
  144.5053  135.4656  150.1727 H   0  0  0  0  0  0  0  0  0  0  0  0
  143.0737  133.5389  149.4613 H   0  0  0  0  0  0  0  0  0  0  0  0
  144.7424  133.3117  148.9976 H   0  0  0  0  0  0  0  0  0  0  0  0
  143.3458  132.0399  151.4015 H   0  0  0  0  0  0  0  0  0  0  0  0
  143.8588  131.2209  149.9490 H   0  0  0  0  0  0  0  0  0  0  0  0
  146.2176  131.7297  150.4364 H   0  0  0  0  0  0  0  0  0  0  0  0
  144.8206  130.3629  152.7791 H   0  0  0  0  0  0  0  0  0  0  0  0
  146.5401  130.2539  152.4104 H   0  0  0  0  0  0  0  0  0  0  0  0
  145.3539  129.6086  151.2831 H   0  0  0  0  0  0  0  0  0  0  0  0
  1  2  1  0  0  0  0
  1 18  1  0  0  0  0
  1 19  1  0  0  0  0
  1 20  1  0  0  0  0
  2 17  1  0  0  0  0
  2  3  2  0  0  0  0
  3  4  1  0  0  0  0
  3 21  1  0  0  0  0
  4  5  1  0  0  0  0
  4 16  2  0  0  0  0
  5  6  1  0  0  0  0
  5 22  1  0  0  0  0
  6  7  2  0  0  0  0
  6  8  1  0  0  0  0
  8  9  1  0  0  0  0
  8 23  1  0  0  0  0
  9 14  1  0  0  0  0
  9 10  1  0  0  0  0
  9 24  1  0  0  0  0
 10 11  1  0  0  0  0
 10 25  1  0  0  0  0
 10 26  1  0  0  0  0
 11 12  1  0  0  0  0
 11 27  1  0  0  0  0
 11 28  1  0  0  0  0
 12 13  1  0  0  0  0
 12 29  1  0  0  0  0
 12 30  1  0  0  0  0
 13 14  1  0  0  0  0
 13 31  1  0  0  0  0
 13 32  1  0  0  0  0
 14 15  1  0  0  0  0
 14 33  1  0  0  0  0
 15 34  1  0  0  0  0
 15 35  1  0  0  0  0
 15 36  1  0  0  0  0
 16 17  1  0  0  0  0
M  END
> <s_m_source_file>
AV-unprocessed.smi

> <i_m_source_file_index>
2945

> <i_lp_mmshare_version>
43012

> <i_f3d_flags>
0

> <s_epik_input>
W0NIM11jMVtjSF1jKG5vMSlbTkhdQyg9TylbTkhdW0NAQEhdMltDSDJdW0NIMl1bQ0gyXVtDSDJdW0NASF0yW0NIM10=

> <s_epik_cmdline>
J2VwaWtfcHl0aG9uJywgJy1waCcsICc3LjAnLCAnLXRuJywgJzgnLCAnLW1hJywgJzIwMCcsICctbWV0YWxfYmluZGluZycsICctaW1hZScsICc8aW5maWxlLm1hZT4nLCAnLW9tYWUnLCAnPG91dGZpbGUubWFlPic=

> <r_lp_tautomer_probability>
1

> <r_epik_Ionization_Penalty>
2.357e-05

> <r_epik_Ionization_Penalty_Charging>
0

> <r_epik_Ionization_Penalty_Neutral>
2.357e-05

> <r_epik_State_Penalty>
-0

> <r_epik_Charging_Adjusted_Penalty>
0

> <i_epik_Tot_Q>
0

> <i_epik_Tot_abs_Q>
0

> <r_epik_Metal_State_Penalty>
-0

> <b_epik_Metal_Only>
0

> <s_lp_Force_Field>
OPLS_2005

> <r_lp_Energy>
7.46694

> <b_lp_Chiralities_Consistent>
1

> <s_lp_Variant>
AV-unprocessed.smi:2945-3

> <Gold.Version>
5.8.1

> <Gold.Id.Protein>
6NUR|6NUR_protein|mol2

> <Gold.PLP.Fitness>
29.0009

> <Gold.PLP.PLP>
-22.7630

> <Gold.PLP.part.hbond>
-2.8422

> <Gold.PLP.part.metal>
0.0000

> <Gold.PLP.part.buried>
-4.9138

> <Gold.PLP.part.nonpolar>
-16.0497

> <Gold.PLP.part.repulsive>
0.1382

> <Gold.PLP.ligand.clash>
0.0000

> <Gold.PLP.ligand.torsion>
0.0154

> <Gold.PLP.Chemscore.Hbond>
2.0874

> <Gold.PLP.Chemscore.CHOScore>
0.0000

> <Gold.PLP.Chemscore.Metal>
0.0000

> <Gold.Chemscore.Hbonds>
donor molecule, donor type, donor heavy atom, donor atom, acceptor molecule, acceptor atom, score
      L1  H     5    22       P1 10957  1.00
      L1  H     8    23       P1 10957  0.34
      P1  H 11000 11005       L1    16  0.77

> <Gold.PLP.Chemscore.Internal.Correction>
0.0067

> <Gold.Rescore>
     Score         DG    S(hbond)    S(metal)    S(lipo)     H(rot)  DE(clash)    DE(int)     intcor
     14.02     -15.47       1.86        0.00      54.10       1.00       0.01       1.44       ----

> <Gold.Chemscore.Fitness>
14.0184

> <Gold.Chemscore.DG>
-15.4668

> <Gold.Chemscore.ZeroCoef>
-5.4800

> <Gold.Chemscore.Hbond>
1.8613

> <Gold.Chemscore.Metal>
0.0000

> <Gold.Chemscore.Lipo>
54.1028

> <Gold.Chemscore.Internal_Hbond>
0.0000

> <Gold.Chemscore.DEClash>
0.0073

> <Gold.Chemscore.DEInternal>
1.4411

> <Gold.Chemscore.Rot>
1.0000

> <Gold.Chemscore.Internal.Correction>
   9.000000E+99

> <Gold.Chemscore.Hbonds>
donor molecule, donor type, donor heavy atom, donor atom, acceptor molecule, acceptor atom, score
      L1  H     5    22       P1 10957  1.00
      L1  H     8    23       P1 10957  0.05
      P1  H 11000 11005       L1    16  0.59

> <Gold.Chemscore.Hbond.Weighted>
-6.2168

> <Gold.Chemscore.Metal.Weighted>
-0.0000

> <Gold.Chemscore.Lipo.Weighted>
-6.3300

> <Gold.Chemscore.Internal_Hbond.Weighted>
0.0000

> <Gold.Chemscore.DEClash.Weighted>
0.0073

> <Gold.Chemscore.DEInternal.Weighted>
1.4411

> <Gold.Chemscore.Rot.Weighted>
2.5600

> <Gold.Chemscore.Internal.Correction.Weighted>
   9.000000E+99

> <Gold.Protein.RotatedTorsions>
[ 6907 6896 6895 6894 ] final -162.79 input  -60.11 | X-H torsion
[ 7974 7965 7964 7962 ] final  163.77 input  175.53 | X-H torsion
[ 8008 7997 7996 7995 ] final -139.62 input   59.86 | X-H torsion
[ 10167 10162 10161 10158 ] final -155.67 input  -65.29 | X-H torsion
[ 10718 10713 10712 10709 ] final   15.93 input   66.30 | X-H torsion
[ 10763 10752 10751 10750 ] final  -89.24 input  -60.55 | X-H torsion
[ 11005 11000 10999 10996 ] final  -99.97 input  -57.11 | X-H torsion

> <Gold.Protein.ActiveResidues>
 VAL166  LYS551  ARG553  GLY616  TRP617  ASP618  TYR619  PRO620  LYS621  CYS622 
 ASP623  PHE694  ASN695  SER759  ASP760  ASP761  ALA762  ILE779  LEU786  VAL792 
 PHE793  MET794  SER795  GLU796  ALA797  LYS798  CYS799  TRP800  GLU811  SER814 

> <Gold.Protein.RotatedAtoms>
  151.3858  133.3805  159.2715 H   0  0  0  0  0  0  0  0  0  0  0  0  # atno 6907 bound_to 6896
  150.9542  134.8940  159.7701 H   0  0  0  0  0  0  0  0  0  0  0  0  # atno 6908 bound_to 6896
  152.5124  134.3815  159.9405 H   0  0  0  0  0  0  0  0  0  0  0  0  # atno 6909 bound_to 6896
  144.7575  139.8230  143.6344 H   0  0  0  0  0  0  0  0  0  0  0  0  # atno 7974 bound_to 7965
  155.4478  140.0536  157.3004 H   0  0  0  0  0  0  0  0  0  0  0  0  # atno 8008 bound_to 7997
  154.4790  140.2073  155.9765 H   0  0  0  0  0  0  0  0  0  0  0  0  # atno 8009 bound_to 7997
  156.1177  140.3193  155.8167 H   0  0  0  0  0  0  0  0  0  0  0  0  # atno 8010 bound_to 7997
  139.6912  143.9417  152.2386 H   0  0  0  0  0  0  0  0  0  0  0  0  # atno 10167 bound_to 10162
  157.0606  130.6307  149.5785 H   0  0  0  0  0  0  0  0  0  0  0  0  # atno 10718 bound_to 10713
  154.6532  135.5348  153.7927 H   0  0  0  0  0  0  0  0  0  0  0  0  # atno 10763 bound_to 10752
  153.0398  135.6487  154.0985 H   0  0  0  0  0  0  0  0  0  0  0  0  # atno 10764 bound_to 10752
  154.0900  135.2940  155.3253 H   0  0  0  0  0  0  0  0  0  0  0  0  # atno 10765 bound_to 10752
  141.1289  133.8362  157.1041 H   0  0  0  0  0  0  0  0  0  0  0  0  # atno 11005 bound_to 11000
  146.1601  139.4713  142.9993 LP  0  0  0  0  0  0  0  0  0  0  0  0  # atno 17320 bound_to 7965
  145.6731  141.0211  143.1647 LP  0  0  0  0  0  0  0  0  0  0  0  0  # atno 17321 bound_to 7965
  139.9234  144.6786  150.8438 LP  0  0  0  0  0  0  0  0  0  0  0  0  # atno 17342 bound_to 10162
  140.7683  143.3359  151.2310 LP  0  0  0  0  0  0  0  0  0  0  0  0  # atno 17343 bound_to 10162
  155.9979  130.5052  150.7553 LP  0  0  0  0  0  0  0  0  0  0  0  0  # atno 17370 bound_to 10713
  157.4958  131.0914  151.0374 LP  0  0  0  0  0  0  0  0  0  0  0  0  # atno 17371 bound_to 10713
  140.0315  134.9899  157.0790 LP  0  0  0  0  0  0  0  0  0  0  0  0  # atno 17394 bound_to 11000
  140.4277  134.1813  155.7167 LP  0  0  0  0  0  0  0  0  0  0  0  0  # atno 17395 bound_to 11000

$$$$
