AV-unprocessed.smi:1917|AV-procd|sdf|7768|dock4
  -GOLD-   22720 9513D 1   1.00000     0.00000
 Structure written by MMmdl.
 44 45  0  0  0  0  0  0  0  0  1 V2000
  147.6079  136.6094  162.8805 C   0  0  0  0  0  0  0  0  0  0  0  0
  147.4239  135.1990  162.3127 C   0  0  0  0  0  0  0  0  0  0  0  0
  147.2810  134.2684  163.1069 O   0  0  0  0  0  0  0  0  0  0  0  0
  147.4228  135.0157  160.9696 N   0  0  0  0  0  0  0  0  0  0  0  0
  147.2744  133.6638  160.4221 C   0  0  0  0  0  0  0  0  0  0  0  0
  147.5894  136.0966  159.9850 C   0  0  0  0  0  0  0  0  0  0  0  0
  148.8744  135.9508  159.1594 C   0  0  0  0  0  0  0  0  0  0  0  0
  149.0749  134.9474  158.4742 O   0  0  0  0  0  0  0  0  0  0  0  0
  149.7425  136.9711  159.2357 N   0  0  0  0  0  0  0  0  0  0  0  0
  150.9931  137.0633  158.4878 C   0  0  0  0  0  0  0  0  0  0  0  0
  151.3047  138.4414  157.9127 C   0  0  0  0  0  0  0  0  0  0  0  0
  151.5060  138.5800  156.5260 C   0  0  0  0  0  0  0  0  0  0  0  0
  151.7936  139.8575  156.0128 C   0  0  0  0  0  0  0  0  0  0  0  0
  151.8846  140.9610  156.7831 N   0  0  0  0  0  0  0  0  0  0  0  0
  151.6950  140.8480  158.1198 C   0  0  0  0  0  0  0  0  0  0  0  0
  151.7775  142.0403  158.8736 N   0  0  0  0  0  0  0  0  0  0  0  0
  150.7030  143.0228  158.7561 C   0  0  0  0  0  0  0  0  0  0  0  0
  151.1350  144.3697  159.3591 C   0  0  0  0  0  0  0  0  0  0  0  0
  151.5720  144.1782  160.7000 O   0  0  0  0  0  0  0  0  0  0  0  0
  152.7055  143.3194  160.7664 C   0  0  0  0  0  0  0  0  0  0  0  0
  152.3412  141.9289  160.2180 C   0  0  0  0  0  0  0  0  0  0  0  0
  151.4124  139.5961  158.7224 C   0  0  0  0  0  0  0  0  0  0  0  0
  148.5131  137.0756  162.4914 H   0  0  0  0  0  0  0  0  0  0  0  0
  147.6950  136.5760  163.9669 H   0  0  0  0  0  0  0  0  0  0  0  0
  146.7520  137.2383  162.6348 H   0  0  0  0  0  0  0  0  0  0  0  0
  146.2990  133.2492  160.6807 H   0  0  0  0  0  0  0  0  0  0  0  0
  148.0452  132.9999  160.8170 H   0  0  0  0  0  0  0  0  0  0  0  0
  147.3627  133.6474  159.3353 H   0  0  0  0  0  0  0  0  0  0  0  0
  146.7293  136.0985  159.3134 H   0  0  0  0  0  0  0  0  0  0  0  0
  147.5802  137.0822  160.4499 H   0  0  0  0  0  0  0  0  0  0  0  0
  149.5059  137.7544  159.8272 H   0  0  0  0  0  0  0  0  0  0  0  0
  151.8068  136.7822  159.1566 H   0  0  0  0  0  0  0  0  0  0  0  0
  150.9900  136.3283  157.6809 H   0  0  0  0  0  0  0  0  0  0  0  0
  151.4403  137.7270  155.8666 H   0  0  0  0  0  0  0  0  0  0  0  0
  151.9527  139.9982  154.9539 H   0  0  0  0  0  0  0  0  0  0  0  0
  150.4417  143.1747  157.7084 H   0  0  0  0  0  0  0  0  0  0  0  0
  149.8152  142.6499  159.2686 H   0  0  0  0  0  0  0  0  0  0  0  0
  151.9306  144.8238  158.7662 H   0  0  0  0  0  0  0  0  0  0  0  0
  150.2977  145.0678  159.3536 H   0  0  0  0  0  0  0  0  0  0  0  0
  153.5364  143.7519  160.2065 H   0  0  0  0  0  0  0  0  0  0  0  0
  153.0298  143.2391  161.8040 H   0  0  0  0  0  0  0  0  0  0  0  0
  151.6065  141.4516  160.8676 H   0  0  0  0  0  0  0  0  0  0  0  0
  153.2330  141.3022  160.2307 H   0  0  0  0  0  0  0  0  0  0  0  0
  151.2803  139.5118  159.7895 H   0  0  0  0  0  0  0  0  0  0  0  0
  1  2  1  0  0  0  0
  1 23  1  0  0  0  0
  1 24  1  0  0  0  0
  1 25  1  0  0  0  0
  2  3  2  0  0  0  0
  2  4  1  0  0  0  0
  4  5  1  0  0  0  0
  4  6  1  0  0  0  0
  5 26  1  0  0  0  0
  5 27  1  0  0  0  0
  5 28  1  0  0  0  0
  6  7  1  0  0  0  0
  6 29  1  0  0  0  0
  6 30  1  0  0  0  0
  7  8  2  0  0  0  0
  7  9  1  0  0  0  0
  9 10  1  0  0  0  0
  9 31  1  0  0  0  0
 10 11  1  0  0  0  0
 10 32  1  0  0  0  0
 10 33  1  0  0  0  0
 11 22  1  0  0  0  0
 11 12  2  0  0  0  0
 12 13  1  0  0  0  0
 12 34  1  0  0  0  0
 13 14  2  0  0  0  0
 13 35  1  0  0  0  0
 14 15  1  0  0  0  0
 15 16  1  0  0  0  0
 15 22  2  0  0  0  0
 16 21  1  0  0  0  0
 16 17  1  0  0  0  0
 17 18  1  0  0  0  0
 17 36  1  0  0  0  0
 17 37  1  0  0  0  0
 18 19  1  0  0  0  0
 18 38  1  0  0  0  0
 18 39  1  0  0  0  0
 19 20  1  0  0  0  0
 20 21  1  0  0  0  0
 20 40  1  0  0  0  0
 20 41  1  0  0  0  0
 21 42  1  0  0  0  0
 21 43  1  0  0  0  0
 22 44  1  0  0  0  0
M  END
> <s_m_source_file>
AV-unprocessed.smi

> <i_m_source_file_index>
1917

> <i_lp_mmshare_version>
43012

> <i_f3d_flags>
0

> <s_epik_input>
W0NIM11DKD1PKU4oW0NIM10pW0NIMl1DKD1PKVtOSF1bQ0gyXWMxW2NIXVtjSF1uYyhbY0hdMSlOMltDSDJdW0NIMl1PW0NIMl1bQ0gyXTI=

> <s_epik_cmdline>
J2VwaWtfcHl0aG9uJywgJy1waCcsICc3LjAnLCAnLXRuJywgJzgnLCAnLW1hJywgJzIwMCcsICctbWV0YWxfYmluZGluZycsICctaW1hZScsICc8aW5maWxlLm1hZT4nLCAnLW9tYWUnLCAnPG91dGZpbGUubWFlPic=

> <r_lp_tautomer_probability>
1

> <r_epik_Ionization_Penalty>
0.00469141

> <r_epik_Ionization_Penalty_Charging>
0

> <r_epik_Ionization_Penalty_Neutral>
0.00469141

> <r_epik_State_Penalty>
0.00339539

> <r_epik_Charging_Adjusted_Penalty>
0.00339539

> <i_epik_Tot_Q>
0

> <i_epik_Tot_abs_Q>
0

> <r_epik_Metal_State_Penalty>
-0

> <b_epik_Metal_Only>
0

> <s_lp_Force_Field>
OPLS_2005

> <r_lp_Energy>
17.0747

> <b_lp_Chiralities_Consistent>
1

> <s_lp_Variant>
AV-unprocessed.smi:1917-1

> <Gold.Version>
5.8.1

> <Gold.Id.Protein>
6NUR|6NUR_protein|mol2

> <Gold.PLP.Fitness>
43.0183

> <Gold.PLP.PLP>
-40.7551

> <Gold.PLP.part.hbond>
-2.7380

> <Gold.PLP.part.metal>
0.0000

> <Gold.PLP.part.buried>
-4.8533

> <Gold.PLP.part.nonpolar>
-32.8574

> <Gold.PLP.part.repulsive>
0.3869

> <Gold.PLP.ligand.clash>
0.0000

> <Gold.PLP.ligand.torsion>
0.6264

> <Gold.PLP.Chemscore.Hbond>
1.0000

> <Gold.PLP.Chemscore.CHOScore>
0.0000

> <Gold.PLP.Chemscore.Metal>
0.0000

> <Gold.Chemscore.Hbonds>
donor molecule, donor type, donor heavy atom, donor atom, acceptor molecule, acceptor atom, score
      P1  H  6896  6907       L1     8  0.90

> <Gold.PLP.Chemscore.Internal.Correction>
0.5161

> <Gold.Rescore>
     Score         DG    S(hbond)    S(metal)    S(lipo)     H(rot)  DE(clash)    DE(int)     intcor
     11.36     -13.36       0.93        0.00      84.58       2.00       0.22       1.78       ----

> <Gold.Chemscore.Fitness>
11.3605

> <Gold.Chemscore.DG>
-13.3607

> <Gold.Chemscore.ZeroCoef>
-5.4800

> <Gold.Chemscore.Hbond>
0.9263

> <Gold.Chemscore.Metal>
0.0000

> <Gold.Chemscore.Lipo>
84.5777

> <Gold.Chemscore.Internal_Hbond>
0.0000

> <Gold.Chemscore.DEClash>
0.2153

> <Gold.Chemscore.DEInternal>
1.7849

> <Gold.Chemscore.Rot>
1.9956

> <Gold.Chemscore.Internal.Correction>
   9.000000E+99

> <Gold.Chemscore.Hbonds>
donor molecule, donor type, donor heavy atom, donor atom, acceptor molecule, acceptor atom, score
      P1  H  6896  6907       L1     8  0.18

> <Gold.Chemscore.Hbond.Weighted>
-3.0938

> <Gold.Chemscore.Metal.Weighted>
-0.0000

> <Gold.Chemscore.Lipo.Weighted>
-9.8956

> <Gold.Chemscore.Internal_Hbond.Weighted>
0.0000

> <Gold.Chemscore.DEClash.Weighted>
0.2153

> <Gold.Chemscore.DEInternal.Weighted>
1.7849

> <Gold.Chemscore.Rot.Weighted>
5.1087

> <Gold.Chemscore.Internal.Correction.Weighted>
   9.000000E+99

> <Gold.Protein.RotatedTorsions>
[ 6907 6896 6895 6894 ] final  -90.54 input  -60.11 | X-H torsion
[ 7974 7965 7964 7962 ] final  -30.10 input  175.53 | X-H torsion
[ 8008 7997 7996 7995 ] final  170.87 input   59.86 | X-H torsion
[ 10167 10162 10161 10158 ] final  167.20 input  -65.29 | X-H torsion
[ 10718 10713 10712 10709 ] final  -90.02 input   66.30 | X-H torsion
[ 10763 10752 10751 10750 ] final  -95.09 input  -60.55 | X-H torsion
[ 11005 11000 10999 10996 ] final -147.29 input  -57.11 | X-H torsion

> <Gold.Protein.ActiveResidues>
 VAL166  LYS551  ARG553  GLY616  TRP617  ASP618  TYR619  PRO620  LYS621  CYS622 
 ASP623  PHE694  ASN695  SER759  ASP760  ASP761  ALA762  ILE779  LEU786  VAL792 
 PHE793  MET794  SER795  GLU796  ALA797  LYS798  CYS799  TRP800  GLU811  SER814 

> <Gold.Protein.RotatedAtoms>
  150.6883  134.2416  159.4474 H   0  0  0  0  0  0  0  0  0  0  0  0  # atno 6907 bound_to 6896
  152.0360  134.9737  160.0582 H   0  0  0  0  0  0  0  0  0  0  0  0  # atno 6908 bound_to 6896
  152.1258  133.4344  159.4734 H   0  0  0  0  0  0  0  0  0  0  0  0  # atno 6909 bound_to 6896
  146.1168  140.5497  142.8753 H   0  0  0  0  0  0  0  0  0  0  0  0  # atno 7974 bound_to 7965
  156.1325  140.1527  156.9044 H   0  0  0  0  0  0  0  0  0  0  0  0  # atno 8008 bound_to 7997
  154.4921  140.0848  156.7656 H   0  0  0  0  0  0  0  0  0  0  0  0  # atno 8009 bound_to 7997
  155.4229  140.3424  155.4275 H   0  0  0  0  0  0  0  0  0  0  0  0  # atno 8010 bound_to 7997
  139.4940  144.3947  151.9478 H   0  0  0  0  0  0  0  0  0  0  0  0  # atno 10167 bound_to 10162
  155.9986  130.4894  150.5260 H   0  0  0  0  0  0  0  0  0  0  0  0  # atno 10718 bound_to 10713
  154.7116  135.5133  153.8675 H   0  0  0  0  0  0  0  0  0  0  0  0  # atno 10763 bound_to 10752
  153.0785  135.6624  154.0103 H   0  0  0  0  0  0  0  0  0  0  0  0  # atno 10764 bound_to 10752
  153.9944  135.3017  155.3388 H   0  0  0  0  0  0  0  0  0  0  0  0  # atno 10765 bound_to 10752
  140.7732  134.3165  157.5068 H   0  0  0  0  0  0  0  0  0  0  0  0  # atno 11005 bound_to 11000
  144.7560  140.5308  143.6769 LP  0  0  0  0  0  0  0  0  0  0  0  0  # atno 17320 bound_to 7965
  145.5551  139.1477  143.3373 LP  0  0  0  0  0  0  0  0  0  0  0  0  # atno 17321 bound_to 7965
  140.3385  144.3232  150.5972 LP  0  0  0  0  0  0  0  0  0  0  0  0  # atno 17342 bound_to 10162
  140.5586  143.2195  151.7805 LP  0  0  0  0  0  0  0  0  0  0  0  0  # atno 17343 bound_to 10162
  157.3215  131.0683  151.1928 LP  0  0  0  0  0  0  0  0  0  0  0  0  # atno 17370 bound_to 10713
  157.2840  130.6763  149.6080 LP  0  0  0  0  0  0  0  0  0  0  0  0  # atno 17371 bound_to 10713
  139.8753  134.9274  156.3423 LP  0  0  0  0  0  0  0  0  0  0  0  0  # atno 17394 bound_to 11000
  140.9553  133.7424  156.0328 LP  0  0  0  0  0  0  0  0  0  0  0  0  # atno 17395 bound_to 11000

$$$$
