AV-unprocessed.smi:1844|AV-procd|sdf|7509|dock6
  -GOLD-   22720 9213D 1   1.00000     0.00000
 Structure written by MMmdl.
 45 46  0  0  0  0  0  0  0  0  1 V2000
  148.9155  133.8074  154.3501 C   0  0  0  0  0  0  0  0  0  0  0  0
  149.3602  135.1788  154.5468 N   0  0  0  0  0  0  0  0  0  0  0  0
  149.8059  135.6745  155.7130 C   0  0  0  0  0  0  0  0  0  0  0  0
  149.8701  134.9801  156.7287 O   0  0  0  0  0  0  0  0  0  0  0  0
  150.1921  137.0862  155.6475 C   0  0  0  0  0  0  0  0  0  0  0  0
  150.5139  137.7673  154.4024 C   0  0  0  0  0  0  0  0  0  0  0  0
  150.8362  139.0757  154.4003 C   0  0  0  0  0  0  0  0  0  0  0  0
  150.8765  139.8631  155.6356 C   0  0  0  0  0  0  0  0  0  0  0  0
  151.1420  141.0651  155.6356 O   0  0  0  0  0  0  0  0  0  0  0  0
  150.5872  139.1803  156.7849 N   0  0  0  0  0  0  0  0  0  0  0  0
  150.5574  139.8699  158.0887 C   0  0  0  0  0  0  0  0  0  0  0  0
  151.8435  140.6463  158.4226 C   0  0  0  0  0  0  0  0  0  0  0  0
  152.9300  140.0737  158.3523 O   0  0  0  0  0  0  0  0  0  0  0  0
  151.7178  141.9355  158.7773 N   0  0  0  0  0  0  0  0  0  0  0  0
  152.7968  142.8578  159.1190 C   0  0  1  0  0  0  0  0  0  0  0  0
  152.8362  144.0402  158.1269 C   0  0  0  0  0  0  0  0  0  0  0  0
  151.6098  144.9582  158.2736 C   0  0  0  0  0  0  0  0  0  0  0  0
  151.4609  145.4567  159.7188 C   0  0  0  0  0  0  0  0  0  0  0  0
  151.4064  144.2864  160.7140 C   0  0  0  0  0  0  0  0  0  0  0  0
  152.6352  143.3621  160.5749 C   0  0  1  0  0  0  0  0  0  0  0  0
  152.5937  142.2162  161.6014 C   0  0  0  0  0  0  0  0  0  0  0  0
  150.2465  137.8134  156.7804 C   0  0  0  0  0  0  0  0  0  0  0  0
  148.6120  133.6610  153.3135 H   0  0  0  0  0  0  0  0  0  0  0  0
  148.0624  133.5799  154.9907 H   0  0  0  0  0  0  0  0  0  0  0  0
  149.7174  133.1029  154.5737 H   0  0  0  0  0  0  0  0  0  0  0  0
  149.3277  135.7930  153.7463 H   0  0  0  0  0  0  0  0  0  0  0  0
  150.5038  137.2450  153.4571 H   0  0  0  0  0  0  0  0  0  0  0  0
  151.0713  139.5594  153.4637 H   0  0  0  0  0  0  0  0  0  0  0  0
  149.7219  140.5708  158.1197 H   0  0  0  0  0  0  0  0  0  0  0  0
  150.3596  139.1614  158.8947 H   0  0  0  0  0  0  0  0  0  0  0  0
  150.7833  142.3167  158.8091 H   0  0  0  0  0  0  0  0  0  0  0  0
  153.7428  142.3176  159.0505 H   0  0  0  0  0  0  0  0  0  0  0  0
  153.7410  144.6235  158.3021 H   0  0  0  0  0  0  0  0  0  0  0  0
  152.9079  143.6758  157.1016 H   0  0  0  0  0  0  0  0  0  0  0  0
  151.7000  145.8076  157.5959 H   0  0  0  0  0  0  0  0  0  0  0  0
  150.7077  144.4223  157.9750 H   0  0  0  0  0  0  0  0  0  0  0  0
  152.2999  146.1077  159.9676 H   0  0  0  0  0  0  0  0  0  0  0  0
  150.5605  146.0650  159.8105 H   0  0  0  0  0  0  0  0  0  0  0  0
  151.3498  144.6781  161.7301 H   0  0  0  0  0  0  0  0  0  0  0  0
  150.4897  143.7165  160.5556 H   0  0  0  0  0  0  0  0  0  0  0  0
  153.5183  143.9596  160.8066 H   0  0  0  0  0  0  0  0  0  0  0  0
  151.7055  141.5948  161.4806 H   0  0  0  0  0  0  0  0  0  0  0  0
  152.5845  142.6055  162.6196 H   0  0  0  0  0  0  0  0  0  0  0  0
  153.4677  141.5716  161.5042 H   0  0  0  0  0  0  0  0  0  0  0  0
  150.0166  137.4108  157.7573 H   0  0  0  0  0  0  0  0  0  0  0  0
  1  2  1  0  0  0  0
  1 23  1  0  0  0  0
  1 24  1  0  0  0  0
  1 25  1  0  0  0  0
  2  3  1  0  0  0  0
  2 26  1  0  0  0  0
  3  4  2  0  0  0  0
  3  5  1  0  0  0  0
  5 22  2  0  0  0  0
  5  6  1  0  0  0  0
  6  7  2  0  0  0  0
  6 27  1  0  0  0  0
  7  8  1  0  0  0  0
  7 28  1  0  0  0  0
  8  9  2  0  0  0  0
  8 10  1  0  0  0  0
 10 11  1  0  0  0  0
 10 22  1  0  0  0  0
 11 12  1  0  0  0  0
 11 29  1  0  0  0  0
 11 30  1  0  0  0  0
 12 13  2  0  0  0  0
 12 14  1  0  0  0  0
 14 15  1  0  0  0  0
 14 31  1  0  0  0  0
 15 20  1  0  0  0  0
 15 16  1  0  0  0  0
 15 32  1  0  0  0  0
 16 17  1  0  0  0  0
 16 33  1  0  0  0  0
 16 34  1  0  0  0  0
 17 18  1  0  0  0  0
 17 35  1  0  0  0  0
 17 36  1  0  0  0  0
 18 19  1  0  0  0  0
 18 37  1  0  0  0  0
 18 38  1  0  0  0  0
 19 20  1  0  0  0  0
 19 39  1  0  0  0  0
 19 40  1  0  0  0  0
 20 21  1  0  0  0  0
 20 41  1  0  0  0  0
 21 42  1  0  0  0  0
 21 43  1  0  0  0  0
 21 44  1  0  0  0  0
 22 45  1  0  0  0  0
M  END
> <s_m_source_file>
AV-unprocessed.smi

> <i_m_source_file_index>
1844

> <i_lp_mmshare_version>
43012

> <i_f3d_flags>
0

> <s_epik_input>
W0NIM11bTkhdQyg9TyljMVtjSF1bY0hdYyg9TyluKFtjSF0xKVtDSDJdQyg9TylbTkhdW0NAQEhdMltDSDJdW0NIMl1bQ0gyXVtDSDJdW0NASF0yW0NIM10=

> <s_epik_cmdline>
J2VwaWtfcHl0aG9uJywgJy1waCcsICc3LjAnLCAnLXRuJywgJzgnLCAnLW1hJywgJzIwMCcsICctbWV0YWxfYmluZGluZycsICctaW1hZScsICc8aW5maWxlLm1hZT4nLCAnLW9tYWUnLCAnPG91dGZpbGUubWFlPic=

> <r_lp_tautomer_probability>
1

> <r_epik_Ionization_Penalty>
3.66612e-07

> <r_epik_Ionization_Penalty_Charging>
5.18929e-08

> <r_epik_Ionization_Penalty_Neutral>
3.14719e-07

> <r_epik_State_Penalty>
-0

> <r_epik_Charging_Adjusted_Penalty>
5.18929e-08

> <i_epik_Tot_Q>
0

> <i_epik_Tot_abs_Q>
0

> <r_epik_Metal_State_Penalty>
-0

> <b_epik_Metal_Only>
0

> <s_lp_Force_Field>
OPLS_2005

> <r_lp_Energy>
21.2081

> <b_lp_Chiralities_Consistent>
1

> <s_lp_Variant>
AV-unprocessed.smi:1844-2

> <Gold.Version>
5.8.1

> <Gold.Id.Protein>
6NUR|6NUR_protein|mol2

> <Gold.PLP.Fitness>
53.1940

> <Gold.PLP.PLP>
-47.6867

> <Gold.PLP.part.hbond>
-2.8002

> <Gold.PLP.part.metal>
0.0000

> <Gold.PLP.part.buried>
-4.8197

> <Gold.PLP.part.nonpolar>
-40.6214

> <Gold.PLP.part.repulsive>
0.1877

> <Gold.PLP.ligand.clash>
0.0000

> <Gold.PLP.ligand.torsion>
0.2972

> <Gold.PLP.Chemscore.Hbond>
2.0300

> <Gold.PLP.Chemscore.CHOScore>
0.0000

> <Gold.PLP.Chemscore.Metal>
0.0000

> <Gold.Chemscore.Hbonds>
donor molecule, donor type, donor heavy atom, donor atom, acceptor molecule, acceptor atom, score
      L1  H     2    26       P1  7948  1.00
      P1  H  7989  7998       L1     9  0.17
      P1  H  7997  8008       L1    13  0.76

> <Gold.PLP.Chemscore.Internal.Correction>
0.0115

> <Gold.Rescore>
     Score         DG    S(hbond)    S(metal)    S(lipo)     H(rot)  DE(clash)    DE(int)     intcor
     19.31     -20.84       1.67        0.00     116.09       1.49       0.01       1.51       ----

> <Gold.Chemscore.Fitness>
19.3096

> <Gold.Chemscore.DG>
-20.8352

> <Gold.Chemscore.ZeroCoef>
-5.4800

> <Gold.Chemscore.Hbond>
1.6745

> <Gold.Chemscore.Metal>
0.0000

> <Gold.Chemscore.Lipo>
116.0930

> <Gold.Chemscore.Internal_Hbond>
0.0000

> <Gold.Chemscore.DEClash>
0.0141

> <Gold.Chemscore.DEInternal>
1.5115

> <Gold.Chemscore.Rot>
1.4923

> <Gold.Chemscore.Internal.Correction>
   9.000000E+99

> <Gold.Chemscore.Hbonds>
donor molecule, donor type, donor heavy atom, donor atom, acceptor molecule, acceptor atom, score
      L1  H     2    26       P1  7948  0.58
      P1  H  7989  7998       L1     9  0.01
      P1  H  7997  8008       L1    13  0.74

> <Gold.Chemscore.Hbond.Weighted>
-5.5927

> <Gold.Chemscore.Metal.Weighted>
-0.0000

> <Gold.Chemscore.Lipo.Weighted>
-13.5829

> <Gold.Chemscore.Internal_Hbond.Weighted>
0.0000

> <Gold.Chemscore.DEClash.Weighted>
0.0141

> <Gold.Chemscore.DEInternal.Weighted>
1.5115

> <Gold.Chemscore.Rot.Weighted>
3.8204

> <Gold.Chemscore.Internal.Correction.Weighted>
   9.000000E+99

> <Gold.Protein.RotatedTorsions>
[ 6907 6896 6895 6894 ] final   65.51 input  -60.11 | X-H torsion
[ 7974 7965 7964 7962 ] final -110.36 input  175.53 | X-H torsion
[ 8008 7997 7996 7995 ] final  -86.33 input   59.86 | X-H torsion
[ 10167 10162 10161 10158 ] final  168.40 input  -65.29 | X-H torsion
[ 10718 10713 10712 10709 ] final   61.71 input   66.30 | X-H torsion
[ 10763 10752 10751 10750 ] final  -99.15 input  -60.55 | X-H torsion
[ 11005 11000 10999 10996 ] final   87.41 input  -57.11 | X-H torsion

> <Gold.Protein.ActiveResidues>
 VAL166  LYS551  ARG553  GLY616  TRP617  ASP618  TYR619  PRO620  LYS621  CYS622 
 ASP623  PHE694  ASN695  SER759  ASP760  ASP761  ALA762  ILE779  LEU786  VAL792 
 PHE793  MET794  SER795  GLU796  ALA797  LYS798  CYS799  TRP800  GLU811  SER814 

> <Gold.Protein.RotatedAtoms>
  152.4413  134.5585  159.9887 H   0  0  0  0  0  0  0  0  0  0  0  0  # atno 6907 bound_to 6896
  151.5682  133.3388  159.2992 H   0  0  0  0  0  0  0  0  0  0  0  0  # atno 6908 bound_to 6896
  150.8320  134.7610  159.6925 H   0  0  0  0  0  0  0  0  0  0  0  0  # atno 6909 bound_to 6896
  145.1692  140.8917  143.3545 H   0  0  0  0  0  0  0  0  0  0  0  0  # atno 7974 bound_to 7965
  154.6506  140.0580  156.9951 H   0  0  0  0  0  0  0  0  0  0  0  0  # atno 8008 bound_to 7997
  155.1376  140.3262  155.4441 H   0  0  0  0  0  0  0  0  0  0  0  0  # atno 8009 bound_to 7997
  156.2574  140.1969  156.6493 H   0  0  0  0  0  0  0  0  0  0  0  0  # atno 8010 bound_to 7997
  139.4967  144.3818  151.9614 H   0  0  0  0  0  0  0  0  0  0  0  0  # atno 10167 bound_to 10162
  157.5848  130.9010  149.9496 H   0  0  0  0  0  0  0  0  0  0  0  0  # atno 10718 bound_to 10713
  154.7474  135.4983  153.9229 H   0  0  0  0  0  0  0  0  0  0  0  0  # atno 10763 bound_to 10752
  153.1107  135.6708  153.9514 H   0  0  0  0  0  0  0  0  0  0  0  0  # atno 10764 bound_to 10752
  153.9274  135.3081  155.3425 H   0  0  0  0  0  0  0  0  0  0  0  0  # atno 10765 bound_to 10752
  139.8920  134.8420  156.2856 H   0  0  0  0  0  0  0  0  0  0  0  0  # atno 11005 bound_to 11000
  145.0250  139.3390  143.6053 LP  0  0  0  0  0  0  0  0  0  0  0  0  # atno 17320 bound_to 7965
  146.3471  139.9566  142.8722 LP  0  0  0  0  0  0  0  0  0  0  0  0  # atno 17321 bound_to 7965
  140.3254  144.3378  150.5999 LP  0  0  0  0  0  0  0  0  0  0  0  0  # atno 17342 bound_to 10162
  140.5688  143.2183  151.7636 LP  0  0  0  0  0  0  0  0  0  0  0  0  # atno 17343 bound_to 10162
  156.0896  130.3664  150.0420 LP  0  0  0  0  0  0  0  0  0  0  0  0  # atno 17370 bound_to 10713
  156.8553  130.9473  151.3622 LP  0  0  0  0  0  0  0  0  0  0  0  0  # atno 17371 bound_to 10713
  141.0010  133.7151  156.0961 LP  0  0  0  0  0  0  0  0  0  0  0  0  # atno 17394 bound_to 11000
  140.7497  134.4058  157.5543 LP  0  0  0  0  0  0  0  0  0  0  0  0  # atno 17395 bound_to 11000

$$$$
