AV-unprocessed.smi:1|AV-procd|sdf|1|dock2
  -GOLD-   2262015 83D 1   1.00000     0.00000
 Structure written by MMmdl.
 57 62  0  0  0  0  0  0  0  0  1 V2000
  152.1226  140.3890  159.1572 O   0  0  0  0  0  0  0  0  0  0  0  0
  151.8510  141.4138  158.5310 C   0  0  0  0  0  0  0  0  0  0  0  0
  151.5762  141.3978  157.1048 N   0  0  0  0  0  0  0  0  0  0  0  0
  151.4829  140.3262  156.2828 C   0  0  0  0  0  0  0  0  0  0  0  0
  152.5094  139.9256  155.4875 N   0  0  0  0  0  0  0  0  0  0  0  0
  152.3696  138.8588  154.6956 C   0  0  0  0  0  0  0  0  0  0  0  0
  151.3089  138.0630  154.5499 N   0  0  0  0  0  0  0  0  0  0  0  0
  150.2726  138.4562  155.3454 C   0  0  0  0  0  0  0  0  0  0  0  0
  150.2834  139.5689  156.2325 C   0  0  0  0  0  0  0  0  0  0  0  0
  149.0583  139.6673  156.8783 N   0  0  0  0  0  0  0  0  0  0  0  0
  148.3646  138.6734  156.3928 C   0  0  0  0  0  0  0  0  0  0  0  0
  149.0154  137.8953  155.4612 N   0  0  0  0  0  0  0  0  0  0  0  0
  148.4694  136.7039  154.7363 C   0  0  2  0  0  0  0  0  0  0  0  0
  147.0968  136.6112  154.9744 O   0  0  0  0  0  0  0  0  0  0  0  0
  146.7736  135.3578  155.5688 C   0  0  1  0  0  0  0  0  0  0  0  0
  145.3990  134.8671  155.0965 C   0  0  0  0  0  0  0  0  0  0  0  0
  145.4560  134.5016  153.7261 O   0  0  0  0  0  0  0  0  0  0  0  0
  144.3245  134.4014  153.0029 C   0  0  0  0  0  0  0  0  0  0  0  0
  143.2406  134.8647  153.3634 O   0  0  0  0  0  0  0  0  0  0  0  0
  144.5203  133.6650  151.7208 C   0  0  0  0  0  0  0  0  0  0  0  0
  145.8336  133.4173  151.2573 C   0  0  0  0  0  0  0  0  0  0  0  0
  146.0496  132.7246  150.0501 C   0  0  0  0  0  0  0  0  0  0  0  0
  144.9549  132.2690  149.2927 C   0  0  0  0  0  0  0  0  0  0  0  0
  143.6436  132.5086  149.7431 C   0  0  0  0  0  0  0  0  0  0  0  0
  143.4254  133.2027  150.9492 C   0  0  0  0  0  0  0  0  0  0  0  0
  147.9448  134.4212  155.2539 C   0  0  2  0  0  0  0  0  0  0  0  0
  148.1797  133.4957  156.3020 O   0  0  0  0  0  0  0  0  0  0  0  0
  149.3011  134.1476  157.3573 S   0  0  0  0  0  0  0  0  0  0  0  0
  148.5942  134.5962  158.5665 O   0  0  0  0  0  0  0  0  0  0  0  0
  150.4620  133.2460  157.4069 O   0  0  0  0  0  0  0  0  0  0  0  0
  149.7225  135.4954  156.4678 O   0  0  0  0  0  0  0  0  0  0  0  0
  149.1291  135.3890  155.1840 C   0  0  2  0  0  0  0  0  0  0  0  0
  151.8742  142.7659  159.1824 C   0  0  0  0  0  0  0  0  0  0  0  0
  152.1456  142.8804  160.5645 C   0  0  0  0  0  0  0  0  0  0  0  0
  152.1526  144.1435  161.1877 C   0  0  0  0  0  0  0  0  0  0  0  0
  151.8812  145.3022  160.4361 C   0  0  0  0  0  0  0  0  0  0  0  0
  151.5982  145.1965  159.0613 C   0  0  0  0  0  0  0  0  0  0  0  0
  151.5910  143.9340  158.4366 C   0  0  0  0  0  0  0  0  0  0  0  0
  151.4211  142.2982  156.6755 H   0  0  0  0  0  0  0  0  0  0  0  0
  153.2298  138.6071  154.0932 H   0  0  0  0  0  0  0  0  0  0  0  0
  147.3468  138.4821  156.7005 H   0  0  0  0  0  0  0  0  0  0  0  0
  148.6319  136.9197  153.6797 H   0  0  0  0  0  0  0  0  0  0  0  0
  146.7291  135.5213  156.6454 H   0  0  0  0  0  0  0  0  0  0  0  0
  145.0940  134.0089  155.6971 H   0  0  0  0  0  0  0  0  0  0  0  0
  144.6502  135.6477  155.2372 H   0  0  0  0  0  0  0  0  0  0  0  0
  146.6900  133.7574  151.8217 H   0  0  0  0  0  0  0  0  0  0  0  0
  147.0569  132.5429  149.7052 H   0  0  0  0  0  0  0  0  0  0  0  0
  145.1209  131.7369  148.3675 H   0  0  0  0  0  0  0  0  0  0  0  0
  142.8029  132.1586  149.1622 H   0  0  0  0  0  0  0  0  0  0  0  0
  142.4062  133.3686  151.2663 H   0  0  0  0  0  0  0  0  0  0  0  0
  147.8169  133.9125  154.2979 H   0  0  0  0  0  0  0  0  0  0  0  0
  149.8843  135.0768  154.4623 H   0  0  0  0  0  0  0  0  0  0  0  0
  152.3545  142.0005  161.1559 H   0  0  0  0  0  0  0  0  0  0  0  0
  152.3654  144.2226  162.2435 H   0  0  0  0  0  0  0  0  0  0  0  0
  151.8855  146.2705  160.9144 H   0  0  0  0  0  0  0  0  0  0  0  0
  151.3829  146.0843  158.4854 H   0  0  0  0  0  0  0  0  0  0  0  0
  151.3617  143.8751  157.3825 H   0  0  0  0  0  0  0  0  0  0  0  0
  1  2  2  0  0  0  0
  2  3  1  0  0  0  0
  2 33  1  0  0  0  0
  3  4  1  0  0  0  0
  3 39  1  0  0  0  0
  4  9  1  0  0  0  0
  4  5  2  0  0  0  0
  5  6  1  0  0  0  0
  6  7  2  0  0  0  0
  6 40  1  0  0  0  0
  7  8  1  0  0  0  0
  8 12  1  0  0  0  0
  8  9  2  0  0  0  0
  9 10  1  0  0  0  0
 10 11  2  0  0  0  0
 11 12  1  0  0  0  0
 11 41  1  0  0  0  0
 12 13  1  0  0  0  0
 13 32  1  0  0  0  0
 13 14  1  0  0  0  0
 13 42  1  0  0  0  0
 14 15  1  0  0  0  0
 15 16  1  0  0  0  0
 15 26  1  0  0  0  0
 15 43  1  0  0  0  0
 16 17  1  0  0  0  0
 16 44  1  0  0  0  0
 16 45  1  0  0  0  0
 17 18  1  0  0  0  0
 18 19  2  0  0  0  0
 18 20  1  0  0  0  0
 20 25  1  0  0  0  0
 20 21  2  0  0  0  0
 21 22  1  0  0  0  0
 21 46  1  0  0  0  0
 22 23  2  0  0  0  0
 22 47  1  0  0  0  0
 23 24  1  0  0  0  0
 23 48  1  0  0  0  0
 24 25  2  0  0  0  0
 24 49  1  0  0  0  0
 25 50  1  0  0  0  0
 26 32  1  0  0  0  0
 26 27  1  0  0  0  0
 26 51  1  0  0  0  0
 27 28  1  0  0  0  0
 28 29  2  0  0  0  0
 28 30  2  0  0  0  0
 28 31  1  0  0  0  0
 31 32  1  0  0  0  0
 32 52  1  0  0  0  0
 33 38  1  0  0  0  0
 33 34  2  0  0  0  0
 34 35  1  0  0  0  0
 34 53  1  0  0  0  0
 35 36  2  0  0  0  0
 35 54  1  0  0  0  0
 36 37  1  0  0  0  0
 36 55  1  0  0  0  0
 37 38  2  0  0  0  0
 37 56  1  0  0  0  0
 38 57  1  0  0  0  0
M  END
> <s_m_source_file>
AV-unprocessed.smi

> <i_m_source_file_index>
1

> <i_lp_mmshare_version>
43012

> <i_f3d_flags>
0

> <s_epik_input>
W2NIXTFbY0hdW2NIXVtjSF1bY0hdYzFDKD1PKVtOSF1jKG5bY0hdbjIpYyhjMjMpbltjSF1uM1tDQEBIXShbQ0BIXShbQ0BIXTQ1KU9TKE81KSg9Tyk9TylPW0NASF00W0NIMl1PQyg9TyljNltjSF1bY0hdW2NIXVtjSF1bY0hdNg==

> <s_epik_cmdline>
J2VwaWtfcHl0aG9uJywgJy1waCcsICc3LjAnLCAnLXRuJywgJzgnLCAnLW1hJywgJzIwMCcsICctbWV0YWxfYmluZGluZycsICctaW1hZScsICc8aW5maWxlLm1hZT4nLCAnLW9tYWUnLCAnPG91dGZpbGUubWFlPic=

> <r_lp_tautomer_probability>
1

> <r_epik_Ionization_Penalty>
0.00195722

> <r_epik_Ionization_Penalty_Charging>
0

> <r_epik_Ionization_Penalty_Neutral>
0.00195722

> <r_epik_State_Penalty>
0.00633741

> <r_epik_Charging_Adjusted_Penalty>
0.00633741

> <i_epik_Tot_Q>
0

> <i_epik_Tot_abs_Q>
0

> <r_epik_Metal_State_Penalty>
0.341185

> <b_epik_Metal_Only>
0

> <s_epik_Chemistry_Notes>
This compound has an ester and may undergo hydrolysis at high or low pH. This compound contains an acetal/aminal-like group ( X-CH(R)-Y where X, Y are N, S, or O) that may be acid/base labile, releasing an aldehyde.

> <s_lp_Force_Field>
OPLS_2005

> <r_lp_Energy>
46.2159

> <b_lp_Chiralities_Consistent>
1

> <s_lp_Variant>
AV-unprocessed.smi:1-1

> <Gold.Version>
5.8.1

> <Gold.Id.Protein>
6NUR|6NUR_protein|mol2

> <Gold.PLP.Fitness>
58.9489

> <Gold.PLP.PLP>
-55.1615

> <Gold.PLP.part.hbond>
-3.1704

> <Gold.PLP.part.metal>
0.0000

> <Gold.PLP.part.buried>
-5.0052

> <Gold.PLP.part.nonpolar>
-48.0490

> <Gold.PLP.part.repulsive>
0.5371

> <Gold.PLP.ligand.clash>
0.0000

> <Gold.PLP.ligand.torsion>
1.3166

> <Gold.PLP.Chemscore.Hbond>
2.0000

> <Gold.PLP.Chemscore.CHOScore>
0.0000

> <Gold.PLP.Chemscore.Metal>
0.0000

> <Gold.Chemscore.Hbonds>
donor molecule, donor type, donor heavy atom, donor atom, acceptor molecule, acceptor atom, score
      P1  H  6896  6907       L1    30  1.00
      P1  H  7997  8009       L1     5  1.00

> <Gold.PLP.Chemscore.Internal.Correction>
0.4206

> <Gold.Rescore>
     Score         DG    S(hbond)    S(metal)    S(lipo)     H(rot)  DE(clash)    DE(int)     intcor
     18.84     -21.11       1.59        0.00     134.98       2.13       1.07       1.20       ----

> <Gold.Chemscore.Fitness>
18.8351

> <Gold.Chemscore.DG>
-21.1071

> <Gold.Chemscore.ZeroCoef>
-5.4800

> <Gold.Chemscore.Hbond>
1.5856

> <Gold.Chemscore.Metal>
0.0000

> <Gold.Chemscore.Lipo>
134.9806

> <Gold.Chemscore.Internal_Hbond>
0.0000

> <Gold.Chemscore.DEClash>
1.0720

> <Gold.Chemscore.DEInternal>
1.2001

> <Gold.Chemscore.Rot>
2.1333

> <Gold.Chemscore.Internal.Correction>
   9.000000E+99

> <Gold.Chemscore.Hbonds>
donor molecule, donor type, donor heavy atom, donor atom, acceptor molecule, acceptor atom, score
      P1  H  6896  6907       L1    30  0.33
      P1  H  7997  8009       L1     5  0.63

> <Gold.Chemscore.Hbond.Weighted>
-5.2957

> <Gold.Chemscore.Metal.Weighted>
-0.0000

> <Gold.Chemscore.Lipo.Weighted>
-15.7927

> <Gold.Chemscore.Internal_Hbond.Weighted>
0.0000

> <Gold.Chemscore.DEClash.Weighted>
1.0720

> <Gold.Chemscore.DEInternal.Weighted>
1.2001

> <Gold.Chemscore.Rot.Weighted>
5.4614

> <Gold.Chemscore.Internal.Correction.Weighted>
   9.000000E+99

> <Gold.Protein.RotatedTorsions>
[ 6907 6896 6895 6894 ] final -144.39 input  -60.11 | X-H torsion
[ 7974 7965 7964 7962 ] final  -40.42 input  175.53 | X-H torsion
[ 8008 7997 7996 7995 ] final -130.24 input   59.86 | X-H torsion
[ 10167 10162 10161 10158 ] final   90.06 input  -65.29 | X-H torsion
[ 10718 10713 10712 10709 ] final   -1.57 input   66.30 | X-H torsion
[ 10763 10752 10751 10750 ] final   32.21 input  -60.55 | X-H torsion
[ 11005 11000 10999 10996 ] final -112.92 input  -57.11 | X-H torsion

> <Gold.Protein.ActiveResidues>
 VAL166  LYS551  ARG553  GLY616  TRP617  ASP618  TYR619  PRO620  LYS621  CYS622 
 ASP623  PHE694  ASN695  SER759  ASP760  ASP761  ALA762  ILE779  LEU786  VAL792 
 PHE793  MET794  SER795  GLU796  ALA797  LYS798  CYS799  TRP800  GLU811  SER814 

> <Gold.Protein.RotatedAtoms>
  151.1134  133.5156  159.2604 H   0  0  0  0  0  0  0  0  0  0  0  0  # atno 6907 bound_to 6896
  151.1941  135.0414  159.8855 H   0  0  0  0  0  0  0  0  0  0  0  0  # atno 6908 bound_to 6896
  152.5451  134.0971  159.8355 H   0  0  0  0  0  0  0  0  0  0  0  0  # atno 6909 bound_to 6896
  146.0306  140.6736  142.9134 H   0  0  0  0  0  0  0  0  0  0  0  0  # atno 7974 bound_to 7965
  155.2925  140.0449  157.3024 H   0  0  0  0  0  0  0  0  0  0  0  0  # atno 8008 bound_to 7997
  154.5533  140.2324  155.8418 H   0  0  0  0  0  0  0  0  0  0  0  0  # atno 8009 bound_to 7997
  156.1985  140.3032  155.9485 H   0  0  0  0  0  0  0  0  0  0  0  0  # atno 8010 bound_to 7997
  139.8510  144.6593  150.9169 H   0  0  0  0  0  0  0  0  0  0  0  0  # atno 10167 bound_to 10162
  156.8036  130.5401  149.5718 H   0  0  0  0  0  0  0  0  0  0  0  0  # atno 10718 bound_to 10713
  153.0274  135.6419  154.1319 H   0  0  0  0  0  0  0  0  0  0  0  0  # atno 10763 bound_to 10752
  154.1046  135.2857  155.3245 H   0  0  0  0  0  0  0  0  0  0  0  0  # atno 10764 bound_to 10752
  154.6374  135.5471  153.7813 H   0  0  0  0  0  0  0  0  0  0  0  0  # atno 10765 bound_to 10752
  141.0646  133.9480  157.2603 H   0  0  0  0  0  0  0  0  0  0  0  0  # atno 11005 bound_to 11000
  144.7029  140.3729  143.7142 LP  0  0  0  0  0  0  0  0  0  0  0  0  # atno 17320 bound_to 7965
  145.7047  139.1669  143.2573 LP  0  0  0  0  0  0  0  0  0  0  0  0  # atno 17321 bound_to 7965
  140.7787  143.3827  151.1448 LP  0  0  0  0  0  0  0  0  0  0  0  0  # atno 17342 bound_to 10162
  139.7465  143.8844  152.3065 LP  0  0  0  0  0  0  0  0  0  0  0  0  # atno 17343 bound_to 10162
  156.1086  130.6023  151.0011 LP  0  0  0  0  0  0  0  0  0  0  0  0  # atno 17370 bound_to 10713
  157.6541  131.0892  150.7986 LP  0  0  0  0  0  0  0  0  0  0  0  0  # atno 17371 bound_to 10713
  139.9464  135.0183  156.8865 LP  0  0  0  0  0  0  0  0  0  0  0  0  # atno 17394 bound_to 11000
  140.5799  134.0362  155.7460 LP  0  0  0  0  0  0  0  0  0  0  0  0  # atno 17395 bound_to 11000

$$$$
