AV-unprocessed.smi:787|AV-procd|sdf|3728|dock1
  -GOLD-   22720 1163D 1   1.00000     0.00000
 Structure written by MMmdl.
 47 49  0  0  0  0  0  0  0  0  2 V2000
  146.7696  137.4636  158.3370 C   0  0  0  0  0  0  0  0  0  0  0  0
  147.0775  138.3986  157.2664 N   0  0  0  0  0  0  0  0  0  0  0  0
  148.3060  139.0741  157.2438 C   0  0  0  0  0  0  0  0  0  0  0  0
  149.1001  139.0581  158.3390 N   0  0  0  0  0  0  0  0  0  0  0  0
  150.2631  139.7193  158.2812 C   0  0  0  0  0  0  0  0  0  0  0  0
  150.7858  140.4205  157.2639 N   0  0  0  0  0  0  0  0  0  0  0  0
  150.0100  140.4389  156.1721 C   0  0  0  0  0  0  0  0  0  0  0  0
  150.3033  141.0806  154.9821 N   0  0  0  0  0  0  0  0  0  0  0  0
  149.2351  140.7871  154.2463 C   0  0  0  0  0  0  0  0  0  0  0  0
  148.2808  140.0191  154.8094 N   0  0  0  0  0  0  0  0  0  0  0  0
  147.0544  139.5643  154.1677 C   0  0  0  0  0  0  0  0  0  0  0  0
  147.2749  138.4034  153.1707 C   0  0  1  0  0  0  0  0  0  0  0  0
  147.6907  137.2620  153.8975 O   0  0  0  0  0  0  0  0  0  0  0  0
  146.0112  138.0437  152.3613 C   0  0  0  0  0  0  0  0  0  0  0  0
  146.1515  136.7490  151.6450 N   0  3  2  0  0  0  0  0  0  0  0  0
  145.6233  136.8052  150.2629 C   0  0  0  0  0  0  0  0  0  0  0  0
  145.6122  135.5927  152.4033 C   0  0  0  0  0  0  0  0  0  0  0  0
  145.4917  134.3559  151.5285 C   0  0  0  0  0  0  0  0  0  0  0  0
  146.6299  133.8500  150.8652 C   0  0  0  0  0  0  0  0  0  0  0  0
  146.5286  132.6946  150.0662 C   0  0  0  0  0  0  0  0  0  0  0  0
  145.2891  132.0411  149.9261 C   0  0  0  0  0  0  0  0  0  0  0  0
  144.1498  132.5447  150.5829 C   0  0  0  0  0  0  0  0  0  0  0  0
  144.2496  133.7015  151.3798 C   0  0  0  0  0  0  0  0  0  0  0  0
  148.7484  139.7728  156.1011 C   0  0  0  0  0  0  0  0  0  0  0  0
  145.7706  137.0518  158.1954 H   0  0  0  0  0  0  0  0  0  0  0  0
  146.7986  137.9624  159.3063 H   0  0  0  0  0  0  0  0  0  0  0  0
  147.4808  136.6369  158.3463 H   0  0  0  0  0  0  0  0  0  0  0  0
  146.3400  138.6783  156.6364 H   0  0  0  0  0  0  0  0  0  0  0  0
  150.8628  139.6839  159.1785 H   0  0  0  0  0  0  0  0  0  0  0  0
  149.1462  141.1418  153.2297 H   0  0  0  0  0  0  0  0  0  0  0  0
  146.3425  139.2678  154.9362 H   0  0  0  0  0  0  0  0  0  0  0  0
  146.5995  140.4144  153.6569 H   0  0  0  0  0  0  0  0  0  0  0  0
  148.0848  138.6812  152.4960 H   0  0  0  0  0  0  0  0  0  0  0  0
  148.2227  136.7157  153.3399 H   0  0  0  0  0  0  0  0  0  0  0  0
  145.1570  138.0186  153.0364 H   0  0  0  0  0  0  0  0  0  0  0  0
  145.7873  138.8270  151.6369 H   0  0  0  0  0  0  0  0  0  0  0  0
  144.5409  136.9414  150.2637 H   0  0  0  0  0  0  0  0  0  0  0  0
  145.8503  135.8838  149.7258 H   0  0  0  0  0  0  0  0  0  0  0  0
  146.0700  137.6285  149.7054 H   0  0  0  0  0  0  0  0  0  0  0  0
  146.2359  135.3907  153.2761 H   0  0  0  0  0  0  0  0  0  0  0  0
  144.6159  135.8284  152.7803 H   0  0  0  0  0  0  0  0  0  0  0  0
  147.5847  134.3440  150.9699 H   0  0  0  0  0  0  0  0  0  0  0  0
  147.4019  132.3087  149.5609 H   0  0  0  0  0  0  0  0  0  0  0  0
  145.2117  131.1549  149.3135 H   0  0  0  0  0  0  0  0  0  0  0  0
  143.1991  132.0434  150.4753 H   0  0  0  0  0  0  0  0  0  0  0  0
  143.3706  134.0786  151.8819 H   0  0  0  0  0  0  0  0  0  0  0  0
  147.1428  136.5748  151.5644 H   0  0  0  0  0  0  0  0  0  0  0  0
  1  2  1  0  0  0  0
  1 25  1  0  0  0  0
  1 26  1  0  0  0  0
  1 27  1  0  0  0  0
  2  3  1  0  0  0  0
  2 28  1  0  0  0  0
  3 24  1  0  0  0  0
  3  4  2  0  0  0  0
  4  5  1  0  0  0  0
  5  6  2  0  0  0  0
  5 29  1  0  0  0  0
  6  7  1  0  0  0  0
  7 24  2  0  0  0  0
  7  8  1  0  0  0  0
  8  9  2  0  0  0  0
  9 10  1  0  0  0  0
  9 30  1  0  0  0  0
 10 11  1  0  0  0  0
 10 24  1  0  0  0  0
 11 12  1  0  0  0  0
 11 31  1  0  0  0  0
 11 32  1  0  0  0  0
 12 13  1  0  0  0  0
 12 14  1  0  0  0  0
 12 33  1  0  0  0  0
 13 34  1  0  0  0  0
 14 15  1  0  0  0  0
 14 35  1  0  0  0  0
 14 36  1  0  0  0  0
 15 16  1  0  0  0  0
 15 17  1  0  0  0  0
 15 47  1  0  0  0  0
 16 37  1  0  0  0  0
 16 38  1  0  0  0  0
 16 39  1  0  0  0  0
 17 18  1  0  0  0  0
 17 40  1  0  0  0  0
 17 41  1  0  0  0  0
 18 23  1  0  0  0  0
 18 19  2  0  0  0  0
 19 20  1  0  0  0  0
 19 42  1  0  0  0  0
 20 21  2  0  0  0  0
 20 43  1  0  0  0  0
 21 22  1  0  0  0  0
 21 44  1  0  0  0  0
 22 23  2  0  0  0  0
 22 45  1  0  0  0  0
 23 46  1  0  0  0  0
M  CHG  1  15   1
M  END
> <s_m_source_file>
AV-unprocessed.smi

> <i_m_source_file_index>
787

> <i_lp_mmshare_version>
43012

> <i_f3d_flags>
0

> <s_epik_input>
bjFbY0hdbmMoW05IXVtDSDNdKWMoYzEyKW4oW2NIXW4yKVtDSDJdW0NASF0oW09IXSlbQ0gyXU4oW0NIM10pW0NIMl1jM1tjSF1bY0hdW2NIXVtjSF1bY0hdMw==

> <s_epik_cmdline>
J2VwaWtfcHl0aG9uJywgJy1waCcsICc3LjAnLCAnLXRuJywgJzgnLCAnLW1hJywgJzIwMCcsICctbWV0YWxfYmluZGluZycsICctaW1hZScsICc8aW5maWxlLm1hZT4nLCAnLW9tYWUnLCAnPG91dGZpbGUubWFlPic=

> <r_lp_tautomer_probability>
0.999987

> <r_epik_Ionization_Penalty>
0.0526284

> <r_epik_Ionization_Penalty_Charging>
0.0475377

> <r_epik_Ionization_Penalty_Neutral>
0.00509065

> <r_epik_State_Penalty>
0.0404888

> <r_epik_Charging_Adjusted_Penalty>
0.0880265

> <i_epik_Tot_Q>
1

> <i_epik_Tot_abs_Q>
1

> <r_epik_Metal_State_Penalty>
0.040507

> <b_epik_Metal_Only>
0

> <s_lp_Force_Field>
OPLS_2005

> <r_lp_Energy>
14.9507

> <b_lp_Chiralities_Consistent>
1

> <s_lp_Variant>
AV-unprocessed.smi:787-4

> <Gold.Version>
5.8.1

> <Gold.Id.Protein>
6NUR|6NUR_protein|mol2

> <Gold.PLP.Fitness>
44.1611

> <Gold.PLP.PLP>
-31.6929

> <Gold.PLP.part.hbond>
-3.5891

> <Gold.PLP.part.metal>
0.0000

> <Gold.PLP.part.buried>
2.9550

> <Gold.PLP.part.nonpolar>
-31.0899

> <Gold.PLP.part.repulsive>
0.2045

> <Gold.PLP.ligand.clash>
0.0000

> <Gold.PLP.ligand.torsion>
1.0477

> <Gold.PLP.Chemscore.Hbond>
3.5376

> <Gold.PLP.Chemscore.CHOScore>
1.0000

> <Gold.PLP.Chemscore.Metal>
0.0000

> <Gold.Chemscore.Hbonds>
donor molecule, donor type, donor heavy atom, donor atom, acceptor molecule, acceptor atom, score
      L1  H    13    34       P1  7948  1.00
      L1  H    15    47       P1  7948  2.00
      P1  H  7989  7998       L1     8  0.54
      L1  C     9    30       P1  7957  1.00

> <Gold.PLP.Chemscore.Internal.Correction>
0.9507

> <Gold.Rescore>
     Score         DG    S(hbond)    S(metal)    S(lipo)     H(rot)  DE(clash)    DE(int)     intcor
     10.66     -13.73       1.93        0.00      85.22       3.19       1.59       1.48       ----

> <Gold.Chemscore.Fitness>
10.6621

> <Gold.Chemscore.DG>
-13.7327

> <Gold.Chemscore.ZeroCoef>
-5.4800

> <Gold.Chemscore.Hbond>
1.9328

> <Gold.Chemscore.Metal>
0.0000

> <Gold.Chemscore.Lipo>
85.2216

> <Gold.Chemscore.Internal_Hbond>
0.0000

> <Gold.Chemscore.DEClash>
1.5871

> <Gold.Chemscore.DEInternal>
1.4836

> <Gold.Chemscore.Rot>
3.1928

> <Gold.Chemscore.Internal.Correction>
   9.000000E+99

> <Gold.Chemscore.Hbonds>
donor molecule, donor type, donor heavy atom, donor atom, acceptor molecule, acceptor atom, score
      L1  H    13    34       P1  7948  0.99
      L1  H    15    47       P1  7948  1.00
      P1  H  7989  7998       L1     8  0.08

> <Gold.Chemscore.Hbond.Weighted>
-6.4554

> <Gold.Chemscore.Metal.Weighted>
-0.0000

> <Gold.Chemscore.Lipo.Weighted>
-9.9709

> <Gold.Chemscore.Internal_Hbond.Weighted>
0.0000

> <Gold.Chemscore.DEClash.Weighted>
1.5871

> <Gold.Chemscore.DEInternal.Weighted>
1.4836

> <Gold.Chemscore.Rot.Weighted>
8.1736

> <Gold.Chemscore.Internal.Correction.Weighted>
   9.000000E+99

> <Gold.Protein.RotatedTorsions>
[ 6907 6896 6895 6894 ] final    0.44 input  -60.11 | X-H torsion
[ 7974 7965 7964 7962 ] final  -90.09 input  175.53 | X-H torsion
[ 8008 7997 7996 7995 ] final  164.44 input   59.86 | X-H torsion
[ 10167 10162 10161 10158 ] final  127.22 input  -65.29 | X-H torsion
[ 10718 10713 10712 10709 ] final   55.97 input   66.30 | X-H torsion
[ 10763 10752 10751 10750 ] final   52.34 input  -60.55 | X-H torsion
[ 11005 11000 10999 10996 ] final   81.45 input  -57.11 | X-H torsion

> <Gold.Protein.ActiveResidues>
 VAL166  LYS551  ARG553  GLY616  TRP617  ASP618  TYR619  PRO620  LYS621  CYS622 
 ASP623  PHE694  ASN695  SER759  ASP760  ASP761  ALA762  ILE779  LEU786  VAL792 
 PHE793  MET794  SER795  GLU796  ALA797  LYS798  CYS799  TRP800  GLU811  SER814 

> <Gold.Protein.RotatedAtoms>
  151.5765  135.1060  160.0007 H   0  0  0  0  0  0  0  0  0  0  0  0  # atno 6907 bound_to 6896
  152.4375  133.7383  159.6637 H   0  0  0  0  0  0  0  0  0  0  0  0  # atno 6908 bound_to 6896
  150.8275  133.8077  159.3135 H   0  0  0  0  0  0  0  0  0  0  0  0  # atno 6909 bound_to 6896
  145.4311  140.9556  143.2127 H   0  0  0  0  0  0  0  0  0  0  0  0  # atno 7974 bound_to 7965
  156.1879  140.1696  156.8149 H   0  0  0  0  0  0  0  0  0  0  0  0  # atno 8008 bound_to 7997
  154.5436  140.0731  156.8584 H   0  0  0  0  0  0  0  0  0  0  0  0  # atno 8009 bound_to 7997
  155.3166  140.3371  155.4244 H   0  0  0  0  0  0  0  0  0  0  0  0  # atno 8010 bound_to 7997
  139.5590  144.6868  151.4099 H   0  0  0  0  0  0  0  0  0  0  0  0  # atno 10167 bound_to 10162
  157.5390  130.8684  149.8795 H   0  0  0  0  0  0  0  0  0  0  0  0  # atno 10718 bound_to 10713
  152.9788  135.5816  154.4562 H   0  0  0  0  0  0  0  0  0  0  0  0  # atno 10763 bound_to 10752
  154.4144  135.2770  155.2018 H   0  0  0  0  0  0  0  0  0  0  0  0  # atno 10764 bound_to 10752
  154.3794  135.6150  153.5836 H   0  0  0  0  0  0  0  0  0  0  0  0  # atno 10765 bound_to 10752
  139.9097  134.7998  156.2044 H   0  0  0  0  0  0  0  0  0  0  0  0  # atno 11005 bound_to 11000
  144.8182  139.5838  143.6999 LP  0  0  0  0  0  0  0  0  0  0  0  0  # atno 17320 bound_to 7965
  146.2606  139.6403  142.9364 LP  0  0  0  0  0  0  0  0  0  0  0  0  # atno 17321 bound_to 7965
  140.6867  143.7957  150.7196 LP  0  0  0  0  0  0  0  0  0  0  0  0  # atno 17342 bound_to 10162
  140.1427  143.4427  152.2183 LP  0  0  0  0  0  0  0  0  0  0  0  0  # atno 17343 bound_to 10162
  156.0482  130.3723  150.1266 LP  0  0  0  0  0  0  0  0  0  0  0  0  # atno 17370 bound_to 10713
  156.9447  130.9755  151.3509 LP  0  0  0  0  0  0  0  0  0  0  0  0  # atno 17371 bound_to 10713
  141.0505  133.6891  156.1763 LP  0  0  0  0  0  0  0  0  0  0  0  0  # atno 17394 bound_to 11000
  140.6818  134.4759  157.5589 LP  0  0  0  0  0  0  0  0  0  0  0  0  # atno 17395 bound_to 11000

$$$$
