AV-unprocessed.smi:153|AV-procd|sdf|1259|dock5
  -GOLD-   2262018503D 1   1.00000     0.00000
 Structure written by MMmdl.
 59 62  0  0  0  0  0  0  0  0  1 V2000
  146.7943  132.8748  152.2214 C   0  0  0  0  0  0  0  0  0  0  0  0
  145.7195  133.1360  151.1541 C   0  0  1  0  0  0  0  0  0  0  0  0
  145.4550  131.9359  150.4378 O   0  0  0  0  0  0  0  0  0  0  0  0
  144.1615  132.0464  149.8726 C   0  0  0  0  0  0  0  0  0  0  0  0
  143.3597  132.6452  151.0178 C   0  0  0  0  0  0  0  0  0  0  0  0
  144.3374  133.6382  151.6554 C   0  0  1  0  0  0  0  0  0  0  0  0
  144.2102  133.5374  153.0645 O   0  0  0  0  0  0  0  0  0  0  0  0
  144.0959  135.1140  151.2426 C   0  0  0  0  0  0  0  0  0  0  0  0
  144.3687  136.0795  152.2971 N   0  0  0  0  0  0  0  0  0  0  0  0
  145.5965  136.5828  152.6543 C   0  0  0  0  0  0  0  0  0  0  0  0
  145.5778  137.4307  153.6434 N   0  0  0  0  0  0  0  0  0  0  0  0
  144.2353  137.5412  153.9947 C   0  0  0  0  0  0  0  0  0  0  0  0
  143.5056  138.2754  154.9842 C   0  0  0  0  0  0  0  0  0  0  0  0
  144.0566  139.0993  155.9272 N   0  0  0  0  0  0  0  0  0  0  0  0
  145.5070  139.2831  155.9355 C   0  0  0  0  0  0  0  0  0  0  0  0
  143.2553  140.1496  156.5547 C   0  0  0  0  0  0  0  0  0  0  0  0
  143.8328  140.6233  157.9089 C   0  0  2  0  0  0  0  0  0  0  0  0
  143.5807  139.6636  158.9148 O   0  0  0  0  0  0  0  0  0  0  0  0
  143.3029  142.0009  158.3662 C   0  0  0  0  0  0  0  0  0  0  0  0
  144.0804  142.7011  159.3922 N   0  0  0  0  0  0  0  0  0  0  0  0
  145.4900  142.7655  159.0201 C   0  0  0  0  0  0  0  0  0  0  0  0
  146.3330  143.4996  160.0766 C   0  0  0  0  0  0  0  0  0  0  0  0
  146.1751  142.8602  161.3384 O   0  0  0  0  0  0  0  0  0  0  0  0
  144.8175  142.8165  161.7642 C   0  0  0  0  0  0  0  0  0  0  0  0
  143.9675  142.0838  160.7117 C   0  0  0  0  0  0  0  0  0  0  0  0
  142.1528  138.1209  154.9764 N   0  0  0  0  0  0  0  0  0  0  0  0
  141.5540  137.3092  154.1023 C   0  0  0  0  0  0  0  0  0  0  0  0
  142.1071  136.5566  153.1528 N   0  0  0  0  0  0  0  0  0  0  0  0
  143.4614  136.7061  153.1345 C   0  0  0  0  0  0  0  0  0  0  0  0
  147.0146  133.7798  152.7880 H   0  0  0  0  0  0  0  0  0  0  0  0
  147.7232  132.5403  151.7590 H   0  0  0  0  0  0  0  0  0  0  0  0
  146.4811  132.1017  152.9239 H   0  0  0  0  0  0  0  0  0  0  0  0
  146.1226  133.8448  150.4288 H   0  0  0  0  0  0  0  0  0  0  0  0
  144.1845  132.7186  149.0133 H   0  0  0  0  0  0  0  0  0  0  0  0
  143.7785  131.0784  149.5494 H   0  0  0  0  0  0  0  0  0  0  0  0
  142.4198  133.0819  150.6843 H   0  0  0  0  0  0  0  0  0  0  0  0
  143.1112  131.8449  151.7175 H   0  0  0  0  0  0  0  0  0  0  0  0
  143.5902  132.8516  153.2596 H   0  0  0  0  0  0  0  0  0  0  0  0
  144.7183  135.3680  150.3832 H   0  0  0  0  0  0  0  0  0  0  0  0
  143.0633  135.2487  150.9182 H   0  0  0  0  0  0  0  0  0  0  0  0
  146.5138  136.2942  152.1615 H   0  0  0  0  0  0  0  0  0  0  0  0
  146.0188  138.3294  156.0685 H   0  0  0  0  0  0  0  0  0  0  0  0
  145.8166  139.9368  156.7511 H   0  0  0  0  0  0  0  0  0  0  0  0
  145.8441  139.7336  155.0011 H   0  0  0  0  0  0  0  0  0  0  0  0
  143.1500  140.9793  155.8595 H   0  0  0  0  0  0  0  0  0  0  0  0
  142.2334  139.7954  156.6952 H   0  0  0  0  0  0  0  0  0  0  0  0
  144.9173  140.7142  157.8393 H   0  0  0  0  0  0  0  0  0  0  0  0
  144.4086  139.3808  159.2713 H   0  0  0  0  0  0  0  0  0  0  0  0
  143.1455  142.6490  157.5026 H   0  0  0  0  0  0  0  0  0  0  0  0
  142.3067  141.8212  158.7726 H   0  0  0  0  0  0  0  0  0  0  0  0
  145.8830  141.7569  158.8830 H   0  0  0  0  0  0  0  0  0  0  0  0
  145.5968  143.2745  158.0614 H   0  0  0  0  0  0  0  0  0  0  0  0
  147.3870  143.4850  159.7986 H   0  0  0  0  0  0  0  0  0  0  0  0
  146.0343  144.5464  160.1506 H   0  0  0  0  0  0  0  0  0  0  0  0
  144.7603  142.3016  162.7231 H   0  0  0  0  0  0  0  0  0  0  0  0
  144.4456  143.8302  161.9218 H   0  0  0  0  0  0  0  0  0  0  0  0
  142.9305  142.0878  161.0439 H   0  0  0  0  0  0  0  0  0  0  0  0
  144.2780  141.0392  160.6596 H   0  0  0  0  0  0  0  0  0  0  0  0
  140.4783  137.2508  154.1794 H   0  0  0  0  0  0  0  0  0  0  0  0
  1  2  1  0  0  0  0
  1 30  1  0  0  0  0
  1 31  1  0  0  0  0
  1 32  1  0  0  0  0
  2  6  1  0  0  0  0
  2  3  1  0  0  0  0
  2 33  1  0  0  0  0
  3  4  1  0  0  0  0
  4  5  1  0  0  0  0
  4 34  1  0  0  0  0
  4 35  1  0  0  0  0
  5  6  1  0  0  0  0
  5 36  1  0  0  0  0
  5 37  1  0  0  0  0
  6  7  1  0  0  0  0
  6  8  1  0  0  0  0
  7 38  1  0  0  0  0
  8  9  1  0  0  0  0
  8 39  1  0  0  0  0
  8 40  1  0  0  0  0
  9 29  1  0  0  0  0
  9 10  1  0  0  0  0
 10 11  2  0  0  0  0
 10 41  1  0  0  0  0
 11 12  1  0  0  0  0
 12 29  2  0  0  0  0
 12 13  1  0  0  0  0
 13 14  1  0  0  0  0
 13 26  2  0  0  0  0
 14 15  1  0  0  0  0
 14 16  1  0  0  0  0
 15 42  1  0  0  0  0
 15 43  1  0  0  0  0
 15 44  1  0  0  0  0
 16 17  1  0  0  0  0
 16 45  1  0  0  0  0
 16 46  1  0  0  0  0
 17 18  1  0  0  0  0
 17 19  1  0  0  0  0
 17 47  1  0  0  0  0
 18 48  1  0  0  0  0
 19 20  1  0  0  0  0
 19 49  1  0  0  0  0
 19 50  1  0  0  0  0
 20 25  1  0  0  0  0
 20 21  1  0  0  0  0
 21 22  1  0  0  0  0
 21 51  1  0  0  0  0
 21 52  1  0  0  0  0
 22 23  1  0  0  0  0
 22 53  1  0  0  0  0
 22 54  1  0  0  0  0
 23 24  1  0  0  0  0
 24 25  1  0  0  0  0
 24 55  1  0  0  0  0
 24 56  1  0  0  0  0
 25 57  1  0  0  0  0
 25 58  1  0  0  0  0
 26 27  1  0  0  0  0
 27 28  2  0  0  0  0
 27 59  1  0  0  0  0
 28 29  1  0  0  0  0
M  END
> <s_m_source_file>
AV-unprocessed.smi

> <i_m_source_file_index>
153

> <i_lp_mmshare_version>
43012

> <i_f3d_flags>
0

> <s_epik_input>
W0NIMl0xW0NIMl1PW0NAQEhdKFtDSDNdKVtDQEBdMShbT0hdKVtDSDJdbihbY0hdbjIpYyhjMjMpbltjSF1uYzNOKFtDSDNdKVtDSDJdW0NASF0oW09IXSlbQ0gyXU40W0NIMl1bQ0gyXU9bQ0gyXVtDSDJdNA==

> <s_epik_cmdline>
J2VwaWtfcHl0aG9uJywgJy1waCcsICc3LjAnLCAnLXRuJywgJzgnLCAnLW1hJywgJzIwMCcsICctbWV0YWxfYmluZGluZycsICctaW1hZScsICc8aW5maWxlLm1hZT4nLCAnLW9tYWUnLCAnPG91dGZpbGUubWFlPic=

> <r_lp_tautomer_probability>
1

> <r_epik_Ionization_Penalty>
0.424123

> <r_epik_Ionization_Penalty_Charging>
0

> <r_epik_Ionization_Penalty_Neutral>
0.424123

> <r_epik_State_Penalty>
0.421495

> <r_epik_Charging_Adjusted_Penalty>
0.421495

> <i_epik_Tot_Q>
0

> <i_epik_Tot_abs_Q>
0

> <r_epik_Metal_State_Penalty>
0.421223

> <b_epik_Metal_Only>
0

> <s_lp_Force_Field>
OPLS_2005

> <r_lp_Energy>
57.6451

> <b_lp_Chiralities_Consistent>
1

> <s_lp_Variant>
AV-unprocessed.smi:153-10

> <Gold.Version>
5.8.1

> <Gold.Id.Protein>
6NUR|6NUR_protein|mol2

> <Gold.PLP.Fitness>
40.1406

> <Gold.PLP.PLP>
-32.8912

> <Gold.PLP.part.hbond>
-3.0000

> <Gold.PLP.part.metal>
0.0000

> <Gold.PLP.part.buried>
-6.9700

> <Gold.PLP.part.nonpolar>
-25.7141

> <Gold.PLP.part.repulsive>
0.5160

> <Gold.PLP.ligand.clash>
0.0000

> <Gold.PLP.ligand.torsion>
1.7309

> <Gold.PLP.Chemscore.Hbond>
2.3516

> <Gold.PLP.Chemscore.CHOScore>
1.0000

> <Gold.PLP.Chemscore.Metal>
0.0000

> <Gold.Chemscore.Hbonds>
donor molecule, donor type, donor heavy atom, donor atom, acceptor molecule, acceptor atom, score
      L1  H     7    38       P1 10957  0.80
      P1  H  6933  6944       L1    23  0.08
      P1  H  6934  6946       L1    23  0.43
      L1  C    10    41       P1  7948  1.00

> <Gold.PLP.Chemscore.Internal.Correction>
0.6563

> <Gold.Rescore>
     Score         DG    S(hbond)    S(metal)    S(lipo)     H(rot)  DE(clash)    DE(int)     intcor
      6.60      -9.49       1.90        0.00      56.83       3.52       0.00       2.89       ----

> <Gold.Chemscore.Fitness>
6.5992

> <Gold.Chemscore.DG>
-9.4867

> <Gold.Chemscore.ZeroCoef>
-5.4800

> <Gold.Chemscore.Hbond>
1.9044

> <Gold.Chemscore.Metal>
0.0000

> <Gold.Chemscore.Lipo>
56.8339

> <Gold.Chemscore.Internal_Hbond>
0.0000

> <Gold.Chemscore.DEClash>
0.0004

> <Gold.Chemscore.DEInternal>
2.8871

> <Gold.Chemscore.Rot>
3.5170

> <Gold.Chemscore.Internal.Correction>
   9.000000E+99

> <Gold.Chemscore.Hbonds>
donor molecule, donor type, donor heavy atom, donor atom, acceptor molecule, acceptor atom, score
      L1  H     7    38       P1 10957  0.42
      P1  H  6933  6944       L1    23  0.01
      P1  H  6934  6946       L1    23  0.07

> <Gold.Chemscore.Hbond.Weighted>
-6.3608

> <Gold.Chemscore.Metal.Weighted>
-0.0000

> <Gold.Chemscore.Lipo.Weighted>
-6.6496

> <Gold.Chemscore.Internal_Hbond.Weighted>
0.0000

> <Gold.Chemscore.DEClash.Weighted>
0.0004

> <Gold.Chemscore.DEInternal.Weighted>
2.8871

> <Gold.Chemscore.Rot.Weighted>
9.0036

> <Gold.Chemscore.Internal.Correction.Weighted>
   9.000000E+99

> <Gold.Protein.RotatedTorsions>
[ 6907 6896 6895 6894 ] final   65.28 input  -60.11 | X-H torsion
[ 7974 7965 7964 7962 ] final   23.37 input  175.53 | X-H torsion
[ 8008 7997 7996 7995 ] final   -6.31 input   59.86 | X-H torsion
[ 10167 10162 10161 10158 ] final  128.75 input  -65.29 | X-H torsion
[ 10718 10713 10712 10709 ] final  139.21 input   66.30 | X-H torsion
[ 10763 10752 10751 10750 ] final   50.58 input  -60.55 | X-H torsion
[ 11005 11000 10999 10996 ] final -101.02 input  -57.11 | X-H torsion

> <Gold.Protein.ActiveResidues>
 VAL166  LYS551  ARG553  GLY616  TRP617  ASP618  TYR619  PRO620  LYS621  CYS622 
 ASP623  PHE694  ASN695  SER759  ASP760  ASP761  ALA762  ILE779  LEU786  VAL792 
 PHE793  MET794  SER795  GLU796  ALA797  LYS798  CYS799  TRP800  GLU811  SER814 

> <Gold.Protein.RotatedAtoms>
  152.4396  134.5618  159.9896 H   0  0  0  0  0  0  0  0  0  0  0  0  # atno 6907 bound_to 6896
  151.5719  133.3383  159.2999 H   0  0  0  0  0  0  0  0  0  0  0  0  # atno 6908 bound_to 6896
  150.8300  134.7582  159.6909 H   0  0  0  0  0  0  0  0  0  0  0  0  # atno 6909 bound_to 6896
  146.1987  139.7754  142.8778 H   0  0  0  0  0  0  0  0  0  0  0  0  # atno 7974 bound_to 7965
  154.5951  140.2436  155.7868 H   0  0  0  0  0  0  0  0  0  0  0  0  # atno 8008 bound_to 7997
  156.2273  140.2978  156.0053 H   0  0  0  0  0  0  0  0  0  0  0  0  # atno 8009 bound_to 7997
  155.2307  140.0403  157.2952 H   0  0  0  0  0  0  0  0  0  0  0  0  # atno 8010 bound_to 7997
  139.5511  144.6814  151.4320 H   0  0  0  0  0  0  0  0  0  0  0  0  # atno 10167 bound_to 10162
  157.4168  131.1034  151.0396 H   0  0  0  0  0  0  0  0  0  0  0  0  # atno 10718 bound_to 10713
  152.9784  135.5874  154.4275 H   0  0  0  0  0  0  0  0  0  0  0  0  # atno 10763 bound_to 10752
  154.3892  135.2767  155.2167 H   0  0  0  0  0  0  0  0  0  0  0  0  # atno 10764 bound_to 10752
  154.4046  135.6095  153.5971 H   0  0  0  0  0  0  0  0  0  0  0  0  # atno 10765 bound_to 10752
  141.1247  133.8445  157.1178 H   0  0  0  0  0  0  0  0  0  0  0  0  # atno 11005 bound_to 11000
  145.3556  141.0316  143.3313 LP  0  0  0  0  0  0  0  0  0  0  0  0  # atno 17320 bound_to 7965
  144.8636  139.5140  143.6800 LP  0  0  0  0  0  0  0  0  0  0  0  0  # atno 17321 bound_to 7965
  140.6774  143.8159  150.7076 LP  0  0  0  0  0  0  0  0  0  0  0  0  # atno 17342 bound_to 10162
  140.1602  143.4282  152.2072 LP  0  0  0  0  0  0  0  0  0  0  0  0  # atno 17343 bound_to 10162
  157.1340  130.6114  149.5537 LP  0  0  0  0  0  0  0  0  0  0  0  0  # atno 17370 bound_to 10713
  155.9868  130.4904  150.7095 LP  0  0  0  0  0  0  0  0  0  0  0  0  # atno 17371 bound_to 10713
  140.0235  134.9934  157.0640 LP  0  0  0  0  0  0  0  0  0  0  0  0  # atno 17394 bound_to 11000
  140.4400  134.1691  155.7173 LP  0  0  0  0  0  0  0  0  0  0  0  0  # atno 17395 bound_to 11000

$$$$
