AV-unprocessed.smi:1464|AV-procd|sdf|5948|dock2
  -GOLD-   22720 6 33D 1   1.00000     0.00000
 Structure written by MMmdl.
 41 42  0  0  0  0  0  0  0  0  1 V2000
  151.5920  145.8631  160.2511 C   0  0  0  0  0  0  0  0  0  0  0  0
  152.3336  144.5198  160.1178 C   0  0  1  0  0  0  0  0  0  0  0  0
  152.1183  143.6847  161.3956 C   0  0  0  0  0  0  0  0  0  0  0  0
  152.8634  142.3471  161.3358 C   0  0  0  0  0  0  0  0  0  0  0  0
  152.4272  141.5419  160.1086 C   0  0  0  0  0  0  0  0  0  0  0  0
  152.6387  142.3396  158.8070 C   0  0  1  0  0  0  0  0  0  0  0  0
  152.1590  141.5458  157.6767 N   0  0  0  0  0  0  0  0  0  0  0  0
  152.5260  140.2862  157.3958 C   0  0  0  0  0  0  0  0  0  0  0  0
  153.3380  139.6521  158.0713 O   0  0  0  0  0  0  0  0  0  0  0  0
  151.8825  139.6646  156.1477 C   0  0  0  0  0  0  0  0  0  0  0  0
  150.5707  140.2396  155.8156 N   0  0  0  0  0  0  0  0  0  0  0  0
  150.4558  140.6675  154.5016 N   0  0  0  0  0  0  0  0  0  0  0  0
  149.3485  141.1830  154.0859 C   0  0  0  0  0  0  0  0  0  0  0  0
  149.2779  141.5920  152.7769 O   0  0  0  0  0  0  0  0  0  0  0  0
  148.2122  141.3281  154.9690 C   0  0  0  0  0  0  0  0  0  0  0  0
  148.3353  140.9131  156.2488 C   0  0  0  0  0  0  0  0  0  0  0  0
  149.5778  140.3258  156.7538 C   0  0  0  0  0  0  0  0  0  0  0  0
  149.7197  139.9439  157.9154 O   0  0  0  0  0  0  0  0  0  0  0  0
  151.9248  143.7185  158.8486 C   0  0  2  0  0  0  0  0  0  0  0  0
  152.1877  144.5170  157.5526 C   0  0  0  0  0  0  0  0  0  0  0  0
  149.4883  140.8271  152.2636 H   0  0  0  0  0  0  0  0  0  0  0  0
  150.5108  145.7230  160.2345 H   0  0  0  0  0  0  0  0  0  0  0  0
  151.8551  146.5549  159.4515 H   0  0  0  0  0  0  0  0  0  0  0  0
  151.8461  146.3587  161.1886 H   0  0  0  0  0  0  0  0  0  0  0  0
  153.3997  144.7415  160.0470 H   0  0  0  0  0  0  0  0  0  0  0  0
  152.4558  144.2441  162.2690 H   0  0  0  0  0  0  0  0  0  0  0  0
  151.0527  143.5014  161.5414 H   0  0  0  0  0  0  0  0  0  0  0  0
  153.9394  142.5229  161.3001 H   0  0  0  0  0  0  0  0  0  0  0  0
  152.6719  141.7738  162.2434 H   0  0  0  0  0  0  0  0  0  0  0  0
  152.9865  140.6062  160.0722 H   0  0  0  0  0  0  0  0  0  0  0  0
  151.3758  141.2689  160.2099 H   0  0  0  0  0  0  0  0  0  0  0  0
  153.7083  142.5230  158.6858 H   0  0  0  0  0  0  0  0  0  0  0  0
  151.4907  141.9903  157.0639 H   0  0  0  0  0  0  0  0  0  0  0  0
  152.5588  139.7715  155.2973 H   0  0  0  0  0  0  0  0  0  0  0  0
  151.7923  138.5900  156.3161 H   0  0  0  0  0  0  0  0  0  0  0  0
  147.2917  141.7597  154.6044 H   0  0  0  0  0  0  0  0  0  0  0  0
  147.4949  141.0155  156.9194 H   0  0  0  0  0  0  0  0  0  0  0  0
  150.8506  143.5339  158.9064 H   0  0  0  0  0  0  0  0  0  0  0  0
  153.2414  144.7815  157.4595 H   0  0  0  0  0  0  0  0  0  0  0  0
  151.6070  145.4379  157.5184 H   0  0  0  0  0  0  0  0  0  0  0  0
  151.9109  143.9521  156.6627 H   0  0  0  0  0  0  0  0  0  0  0  0
  1  2  1  0  0  0  0
  1 22  1  0  0  0  0
  1 23  1  0  0  0  0
  1 24  1  0  0  0  0
  2 19  1  0  0  0  0
  2  3  1  0  0  0  0
  2 25  1  0  0  0  0
  3  4  1  0  0  0  0
  3 26  1  0  0  0  0
  3 27  1  0  0  0  0
  4  5  1  0  0  0  0
  4 28  1  0  0  0  0
  4 29  1  0  0  0  0
  5  6  1  0  0  0  0
  5 30  1  0  0  0  0
  5 31  1  0  0  0  0
  6  7  1  0  0  0  0
  6 19  1  0  0  0  0
  6 32  1  0  0  0  0
  7  8  1  0  0  0  0
  7 33  1  0  0  0  0
  8  9  2  0  0  0  0
  8 10  1  0  0  0  0
 10 34  1  0  0  0  0
 10 35  1  0  0  0  0
 10 11  1  0  0  0  0
 11 12  1  0  0  0  0
 11 17  1  0  0  0  0
 12 13  2  0  0  0  0
 13 14  1  0  0  0  0
 13 15  1  0  0  0  0
 14 21  1  0  0  0  0
 15 36  1  0  0  0  0
 15 16  2  0  0  0  0
 16 37  1  0  0  0  0
 16 17  1  0  0  0  0
 17 18  2  0  0  0  0
 19 20  1  0  0  0  0
 19 38  1  0  0  0  0
 20 39  1  0  0  0  0
 20 40  1  0  0  0  0
 20 41  1  0  0  0  0
M  END
> <s_m_source_file>
AV-unprocessed.smi

> <i_m_source_file_index>
1464

> <i_lp_mmshare_version>
43012

> <i_f3d_flags>
0

> <s_epik_input>
W0NIM11bQ0BASF0xW0NIMl1bQ0gyXVtDSDJdW0NASF0oW0NASF0xW0NIM10pW05IXUMoPU8pW0NIMl1uMltuSF1jKD1PKVtjSF1bY0hdYzI9Tw==

> <s_epik_cmdline>
J2VwaWtfcHl0aG9uJywgJy1waCcsICc3LjAnLCAnLXRuJywgJzgnLCAnLW1hJywgJzIwMCcsICctbWV0YWxfYmluZGluZycsICctaW1hZScsICc8aW5maWxlLm1hZT4nLCAnLW9tYWUnLCAnPG91dGZpbGUubWFlPic=

> <r_lp_tautomer_probability>
0.9996

> <r_epik_Ionization_Penalty>
2.10335

> <r_epik_Ionization_Penalty_Charging>
3.98079e-08

> <r_epik_Ionization_Penalty_Neutral>
2.10335

> <r_epik_State_Penalty>
1.67957

> <r_epik_Charging_Adjusted_Penalty>
1.67957

> <i_epik_Tot_Q>
0

> <i_epik_Tot_abs_Q>
0

> <r_epik_Metal_State_Penalty>
1.67957

> <b_epik_Metal_Only>
0

> <s_lp_Force_Field>
OPLS_2005

> <r_lp_Energy>
24.139

> <b_lp_Chiralities_Consistent>
1

> <s_lp_Variant>
AV-unprocessed.smi:1464-14

> <Gold.Version>
5.8.1

> <Gold.Id.Protein>
6NUR|6NUR_protein|mol2

> <Gold.PLP.Fitness>
51.2355

> <Gold.PLP.PLP>
-40.7356

> <Gold.PLP.part.hbond>
-3.8645

> <Gold.PLP.part.metal>
0.0000

> <Gold.PLP.part.buried>
-0.7963

> <Gold.PLP.part.nonpolar>
-35.8110

> <Gold.PLP.part.repulsive>
0.1759

> <Gold.PLP.ligand.clash>
0.0000

> <Gold.PLP.ligand.torsion>
0.4537

> <Gold.PLP.Chemscore.Hbond>
3.8000

> <Gold.PLP.Chemscore.CHOScore>
0.0000

> <Gold.PLP.Chemscore.Metal>
0.0000

> <Gold.Chemscore.Hbonds>
donor molecule, donor type, donor heavy atom, donor atom, acceptor molecule, acceptor atom, score
      L1  H    14    21       P1  7957  0.54
      P1  H  7989  7998       L1    12  0.88
      P1  H  7997  8010       L1     9  0.75

> <Gold.PLP.Chemscore.Internal.Correction>
0.0073

> <Gold.Rescore>
     Score         DG    S(hbond)    S(metal)    S(lipo)     H(rot)  DE(clash)    DE(int)     intcor
     15.70     -19.82       2.34        0.00     104.39       2.22       1.50       2.62       ----

> <Gold.Chemscore.Fitness>
15.6997

> <Gold.Chemscore.DG>
-19.8206

> <Gold.Chemscore.ZeroCoef>
-5.4800

> <Gold.Chemscore.Hbond>
2.3400

> <Gold.Chemscore.Metal>
0.0000

> <Gold.Chemscore.Lipo>
104.3948

> <Gold.Chemscore.Internal_Hbond>
0.0000

> <Gold.Chemscore.DEClash>
1.4999

> <Gold.Chemscore.DEInternal>
2.6209

> <Gold.Chemscore.Rot>
2.2224

> <Gold.Chemscore.Internal.Correction>
   9.000000E+99

> <Gold.Chemscore.Hbonds>
donor molecule, donor type, donor heavy atom, donor atom, acceptor molecule, acceptor atom, score
      L1  H    14    21       P1  7957  0.54
      P1  H  7989  7998       L1    12  0.68
      P1  H  7997  8010       L1     9  0.09
      P1  H  8011  8017       L1    14  0.01

> <Gold.Chemscore.Hbond.Weighted>
-7.8157

> <Gold.Chemscore.Metal.Weighted>
-0.0000

> <Gold.Chemscore.Lipo.Weighted>
-12.2142

> <Gold.Chemscore.Internal_Hbond.Weighted>
0.0000

> <Gold.Chemscore.DEClash.Weighted>
1.4999

> <Gold.Chemscore.DEInternal.Weighted>
2.6209

> <Gold.Chemscore.Rot.Weighted>
5.6893

> <Gold.Chemscore.Internal.Correction.Weighted>
   9.000000E+99

> <Gold.Protein.RotatedTorsions>
[ 6907 6896 6895 6894 ] final  158.43 input  -60.11 | X-H torsion
[ 7974 7965 7964 7962 ] final  134.22 input  175.53 | X-H torsion
[ 8008 7997 7996 7995 ] final   29.05 input   59.86 | X-H torsion
[ 10167 10162 10161 10158 ] final   53.67 input  -65.29 | X-H torsion
[ 10718 10713 10712 10709 ] final   20.29 input   66.30 | X-H torsion
[ 10763 10752 10751 10750 ] final -155.40 input  -60.55 | X-H torsion
[ 11005 11000 10999 10996 ] final   24.00 input  -57.11 | X-H torsion

> <Gold.Protein.ActiveResidues>
 VAL166  LYS551  ARG553  GLY616  TRP617  ASP618  TYR619  PRO620  LYS621  CYS622 
 ASP623  PHE694  ASN695  SER759  ASP760  ASP761  ALA762  ILE779  LEU786  VAL792 
 PHE793  MET794  SER795  GLU796  ALA797  LYS798  CYS799  TRP800  GLU811  SER814 

> <Gold.Protein.RotatedAtoms>
  152.0004  133.3823  159.4179 H   0  0  0  0  0  0  0  0  0  0  0  0  # atno 6907 bound_to 6896
  150.6910  134.3839  159.5056 H   0  0  0  0  0  0  0  0  0  0  0  0  # atno 6908 bound_to 6896
  152.1586  134.8930  160.0594 H   0  0  0  0  0  0  0  0  0  0  0  0  # atno 6909 bound_to 6896
  144.9785  139.4529  143.5398 H   0  0  0  0  0  0  0  0  0  0  0  0  # atno 7974 bound_to 7965
  155.0684  140.3197  155.4638 H   0  0  0  0  0  0  0  0  0  0  0  0  # atno 8008 bound_to 7997
  156.2796  140.2116  156.5756 H   0  0  0  0  0  0  0  0  0  0  0  0  # atno 8009 bound_to 7997
  154.7075  140.0501  157.0505 H   0  0  0  0  0  0  0  0  0  0  0  0  # atno 8010 bound_to 7997
  140.2383  144.3612  150.6389 H   0  0  0  0  0  0  0  0  0  0  0  0  # atno 10167 bound_to 10162
  157.1225  130.6556  149.5928 H   0  0  0  0  0  0  0  0  0  0  0  0  # atno 10718 bound_to 10713
  154.7789  135.3168  154.8032 H   0  0  0  0  0  0  0  0  0  0  0  0  # atno 10763 bound_to 10752
  153.8748  135.6840  153.4776 H   0  0  0  0  0  0  0  0  0  0  0  0  # atno 10764 bound_to 10752
  153.1420  135.4735  154.9447 H   0  0  0  0  0  0  0  0  0  0  0  0  # atno 10765 bound_to 10752
  140.3635  134.2100  155.7671 H   0  0  0  0  0  0  0  0  0  0  0  0  # atno 11005 bound_to 11000
  146.3402  139.9043  142.8789 LP  0  0  0  0  0  0  0  0  0  0  0  0  # atno 17320 bound_to 7965
  145.2455  141.0025  143.3911 LP  0  0  0  0  0  0  0  0  0  0  0  0  # atno 17321 bound_to 7965
  140.6133  143.2171  151.6842 LP  0  0  0  0  0  0  0  0  0  0  0  0  # atno 17342 bound_to 10162
  139.5086  144.3605  152.0566 LP  0  0  0  0  0  0  0  0  0  0  0  0  # atno 17343 bound_to 10162
  155.9825  130.4839  150.6886 LP  0  0  0  0  0  0  0  0  0  0  0  0  # atno 17370 bound_to 10713
  157.4464  131.0867  151.0891 LP  0  0  0  0  0  0  0  0  0  0  0  0  # atno 17371 bound_to 10713
  141.1977  133.8053  157.0616 LP  0  0  0  0  0  0  0  0  0  0  0  0  # atno 17394 bound_to 11000
  140.0608  134.9756  157.1301 LP  0  0  0  0  0  0  0  0  0  0  0  0  # atno 17395 bound_to 11000

$$$$
