AV-unprocessed.smi:1577|AV-procd|sdf|6349|dock2
  -GOLD-   22720 6563D 1   1.00000     0.00000
 Structure written by MMmdl.
 39 40  0  0  0  0  0  0  0  0  1 V2000
  150.7611  144.3999  160.2933 C   0  0  0  0  0  0  0  0  0  0  0  0
  151.4612  144.7653  158.9778 C   0  0  0  0  0  0  0  0  0  0  0  0
  150.8636  144.0769  157.8400 N   0  0  0  0  0  0  0  0  0  0  0  0
  151.0048  142.7718  157.5699 C   0  0  0  0  0  0  0  0  0  0  0  0
  151.6526  141.9880  158.2640 O   0  0  0  0  0  0  0  0  0  0  0  0
  150.3617  142.4265  156.4466 N   0  0  0  0  0  0  0  0  0  0  0  0
  150.3542  141.0905  155.8597 C   0  0  0  0  0  0  0  0  0  0  0  0
  149.1825  140.8309  154.9171 C   0  0  0  0  0  0  0  0  0  0  0  0
  148.2603  141.8678  154.6601 C   0  0  0  0  0  0  0  0  0  0  0  0
  147.1837  141.6305  153.7867 C   0  0  0  0  0  0  0  0  0  0  0  0
  147.0703  140.3576  153.1987 C   0  0  0  0  0  0  0  0  0  0  0  0
  147.9428  139.3556  153.4324 N   0  0  0  0  0  0  0  0  0  0  0  0
  148.9809  139.5813  154.2739 C   0  0  0  0  0  0  0  0  0  0  0  0
  149.8668  138.5160  154.5000 N   0  0  0  0  0  0  0  0  0  0  0  0
  151.2405  138.8140  154.1157 C   0  0  0  0  0  0  0  0  0  0  0  0
  152.0992  137.5433  154.2281 C   0  0  0  0  0  0  0  0  0  0  0  0
  152.0080  137.0219  155.5514 O   0  0  0  0  0  0  0  0  0  0  0  0
  150.6710  136.6739  155.9021 C   0  0  0  0  0  0  0  0  0  0  0  0
  149.7739  137.9218  155.8271 C   0  0  0  0  0  0  0  0  0  0  0  0
  151.1946  144.9515  161.1276 H   0  0  0  0  0  0  0  0  0  0  0  0
  150.8606  143.3366  160.5139 H   0  0  0  0  0  0  0  0  0  0  0  0
  149.6975  144.6370  160.2536 H   0  0  0  0  0  0  0  0  0  0  0  0
  151.3818  145.8388  158.8052 H   0  0  0  0  0  0  0  0  0  0  0  0
  152.5269  144.5389  159.0386 H   0  0  0  0  0  0  0  0  0  0  0  0
  150.3110  144.6368  157.2075 H   0  0  0  0  0  0  0  0  0  0  0  0
  149.8554  143.1433  155.9480 H   0  0  0  0  0  0  0  0  0  0  0  0
  151.3006  140.9181  155.3442 H   0  0  0  0  0  0  0  0  0  0  0  0
  150.3129  140.3621  156.6697 H   0  0  0  0  0  0  0  0  0  0  0  0
  148.3724  142.8350  155.1277 H   0  0  0  0  0  0  0  0  0  0  0  0
  146.4624  142.4054  153.5733 H   0  0  0  0  0  0  0  0  0  0  0  0
  146.2571  140.1380  152.5228 H   0  0  0  0  0  0  0  0  0  0  0  0
  151.2685  139.1980  153.0953 H   0  0  0  0  0  0  0  0  0  0  0  0
  151.6433  139.5930  154.7645 H   0  0  0  0  0  0  0  0  0  0  0  0
  151.7761  136.7918  153.5058 H   0  0  0  0  0  0  0  0  0  0  0  0
  153.1414  137.7720  154.0057 H   0  0  0  0  0  0  0  0  0  0  0  0
  150.3030  135.8901  155.2381 H   0  0  0  0  0  0  0  0  0  0  0  0
  150.6634  136.2652  156.9126 H   0  0  0  0  0  0  0  0  0  0  0  0
  150.0852  138.6470  156.5805 H   0  0  0  0  0  0  0  0  0  0  0  0
  148.7385  137.6550  156.0414 H   0  0  0  0  0  0  0  0  0  0  0  0
  1  2  1  0  0  0  0
  1 20  1  0  0  0  0
  1 21  1  0  0  0  0
  1 22  1  0  0  0  0
  2  3  1  0  0  0  0
  2 23  1  0  0  0  0
  2 24  1  0  0  0  0
  3  4  1  0  0  0  0
  3 25  1  0  0  0  0
  4  5  2  0  0  0  0
  4  6  1  0  0  0  0
  6  7  1  0  0  0  0
  6 26  1  0  0  0  0
  7  8  1  0  0  0  0
  7 27  1  0  0  0  0
  7 28  1  0  0  0  0
  8 13  1  0  0  0  0
  8  9  2  0  0  0  0
  9 10  1  0  0  0  0
  9 29  1  0  0  0  0
 10 11  2  0  0  0  0
 10 30  1  0  0  0  0
 11 12  1  0  0  0  0
 11 31  1  0  0  0  0
 12 13  2  0  0  0  0
 13 14  1  0  0  0  0
 14 19  1  0  0  0  0
 14 15  1  0  0  0  0
 15 16  1  0  0  0  0
 15 32  1  0  0  0  0
 15 33  1  0  0  0  0
 16 17  1  0  0  0  0
 16 34  1  0  0  0  0
 16 35  1  0  0  0  0
 17 18  1  0  0  0  0
 18 19  1  0  0  0  0
 18 36  1  0  0  0  0
 18 37  1  0  0  0  0
 19 38  1  0  0  0  0
 19 39  1  0  0  0  0
M  END
> <s_m_source_file>
AV-unprocessed.smi

> <i_m_source_file_index>
1577

> <i_lp_mmshare_version>
43012

> <i_f3d_flags>
0

> <s_epik_input>
W0NIM11bQ0gyXVtOSF1DKD1PKVtOSF1bQ0gyXWMxW2NIXVtjSF1bY0hdbmMxTjJbQ0gyXVtDSDJdT1tDSDJdW0NIMl0y

> <s_epik_cmdline>
J2VwaWtfcHl0aG9uJywgJy1waCcsICc3LjAnLCAnLXRuJywgJzgnLCAnLW1hJywgJzIwMCcsICctbWV0YWxfYmluZGluZycsICctaW1hZScsICc8aW5maWxlLm1hZT4nLCAnLW9tYWUnLCAnPG91dGZpbGUubWFlPic=

> <r_lp_tautomer_probability>
1

> <r_epik_Ionization_Penalty>
0.00610239

> <r_epik_Ionization_Penalty_Charging>
0

> <r_epik_Ionization_Penalty_Neutral>
0.00610239

> <r_epik_State_Penalty>
0.00445678

> <r_epik_Charging_Adjusted_Penalty>
0.00445678

> <i_epik_Tot_Q>
0

> <i_epik_Tot_abs_Q>
0

> <r_epik_Metal_State_Penalty>
-0

> <b_epik_Metal_Only>
0

> <s_lp_Force_Field>
OPLS_2005

> <r_lp_Energy>
16.2097

> <b_lp_Chiralities_Consistent>
1

> <s_lp_Variant>
AV-unprocessed.smi:1577-1

> <Gold.Version>
5.8.1

> <Gold.Id.Protein>
6NUR|6NUR_protein|mol2

> <Gold.PLP.Fitness>
43.2422

> <Gold.PLP.PLP>
-33.7051

> <Gold.PLP.part.hbond>
-3.0000

> <Gold.PLP.part.metal>
0.0000

> <Gold.PLP.part.buried>
-1.9303

> <Gold.PLP.part.nonpolar>
-29.3658

> <Gold.PLP.part.repulsive>
1.1300

> <Gold.PLP.ligand.clash>
0.0000

> <Gold.PLP.ligand.torsion>
0.3406

> <Gold.PLP.Chemscore.Hbond>
2.3625

> <Gold.PLP.Chemscore.CHOScore>
1.0000

> <Gold.PLP.Chemscore.Metal>
0.0000

> <Gold.Chemscore.Hbonds>
donor molecule, donor type, donor heavy atom, donor atom, acceptor molecule, acceptor atom, score
      L1  H     3    25       P1  8028  0.91
      L1  H     6    26       P1  8028  1.00
      P1  H 10752 10764       L1    17  0.44
      L1  C    11    31       P1 10175  0.85

> <Gold.PLP.Chemscore.Internal.Correction>
0.1307

> <Gold.Rescore>
     Score         DG    S(hbond)    S(metal)    S(lipo)     H(rot)  DE(clash)    DE(int)     intcor
     14.37     -16.36       1.68        0.00      82.87       1.73       0.80       1.19       ----

> <Gold.Chemscore.Fitness>
14.3661

> <Gold.Chemscore.DG>
-16.3624

> <Gold.Chemscore.ZeroCoef>
-5.4800

> <Gold.Chemscore.Hbond>
1.6793

> <Gold.Chemscore.Metal>
0.0000

> <Gold.Chemscore.Lipo>
82.8682

> <Gold.Chemscore.Internal_Hbond>
0.0000

> <Gold.Chemscore.DEClash>
0.8046

> <Gold.Chemscore.DEInternal>
1.1917

> <Gold.Chemscore.Rot>
1.7274

> <Gold.Chemscore.Internal.Correction>
   9.000000E+99

> <Gold.Chemscore.Hbonds>
donor molecule, donor type, donor heavy atom, donor atom, acceptor molecule, acceptor atom, score
      L1  H     3    25       P1  8028  0.41
      L1  H     6    26       P1  8028  0.99
      P1  H 10752 10764       L1    17  0.03

> <Gold.Chemscore.Hbond.Weighted>
-5.6089

> <Gold.Chemscore.Metal.Weighted>
-0.0000

> <Gold.Chemscore.Lipo.Weighted>
-9.6956

> <Gold.Chemscore.Internal_Hbond.Weighted>
0.0000

> <Gold.Chemscore.DEClash.Weighted>
0.8046

> <Gold.Chemscore.DEInternal.Weighted>
1.1917

> <Gold.Chemscore.Rot.Weighted>
4.4221

> <Gold.Chemscore.Internal.Correction.Weighted>
   9.000000E+99

> <Gold.Protein.RotatedTorsions>
[ 6907 6896 6895 6894 ] final   72.33 input  -60.11 | X-H torsion
[ 7974 7965 7964 7962 ] final  -32.60 input  175.53 | X-H torsion
[ 8008 7997 7996 7995 ] final -156.13 input   59.86 | X-H torsion
[ 10167 10162 10161 10158 ] final   -3.20 input  -65.29 | X-H torsion
[ 10718 10713 10712 10709 ] final  152.02 input   66.30 | X-H torsion
[ 10763 10752 10751 10750 ] final  -19.52 input  -60.55 | X-H torsion
[ 11005 11000 10999 10996 ] final  -32.42 input  -57.11 | X-H torsion

> <Gold.Protein.ActiveResidues>
 VAL166  LYS551  ARG553  GLY616  TRP617  ASP618  TYR619  PRO620  LYS621  CYS622 
 ASP623  PHE694  ASN695  SER759  ASP760  ASP761  ALA762  ILE779  LEU786  VAL792 
 PHE793  MET794  SER795  GLU796  ALA797  LYS798  CYS799  TRP800  GLU811  SER814 

> <Gold.Protein.RotatedAtoms>
  152.4862  134.4587  159.9597 H   0  0  0  0  0  0  0  0  0  0  0  0  # atno 6907 bound_to 6896
  151.4582  133.3593  159.2813 H   0  0  0  0  0  0  0  0  0  0  0  0  # atno 6908 bound_to 6896
  150.8974  134.8408  159.7397 H   0  0  0  0  0  0  0  0  0  0  0  0  # atno 6909 bound_to 6896
  146.0977  140.5813  142.8835 H   0  0  0  0  0  0  0  0  0  0  0  0  # atno 7974 bound_to 7965
  155.7125  140.0780  157.2365 H   0  0  0  0  0  0  0  0  0  0  0  0  # atno 8008 bound_to 7997
  154.4056  140.1627  156.2365 H   0  0  0  0  0  0  0  0  0  0  0  0  # atno 8009 bound_to 7997
  155.9270  140.3394  155.6221 H   0  0  0  0  0  0  0  0  0  0  0  0  # atno 8010 bound_to 7997
  140.6881  143.6568  150.8302 H   0  0  0  0  0  0  0  0  0  0  0  0  # atno 10167 bound_to 10162
  157.2632  131.0802  151.1651 H   0  0  0  0  0  0  0  0  0  0  0  0  # atno 10718 bound_to 10713
  153.6061  135.6998  153.5365 H   0  0  0  0  0  0  0  0  0  0  0  0  # atno 10763 bound_to 10752
  153.3056  135.4116  155.1291 H   0  0  0  0  0  0  0  0  0  0  0  0  # atno 10764 bound_to 10752
  154.8573  135.3659  154.5598 H   0  0  0  0  0  0  0  0  0  0  0  0  # atno 10765 bound_to 10752
  140.9551  133.7198  156.1280 H   0  0  0  0  0  0  0  0  0  0  0  0  # atno 11005 bound_to 11000
  144.7408  140.4936  143.6870 LP  0  0  0  0  0  0  0  0  0  0  0  0  # atno 17320 bound_to 7965
  145.5916  139.1496  143.3179 LP  0  0  0  0  0  0  0  0  0  0  0  0  # atno 17321 bound_to 7965
  140.0277  143.5476  152.2773 LP  0  0  0  0  0  0  0  0  0  0  0  0  # atno 17342 bound_to 10162
  139.6257  144.7637  151.2643 LP  0  0  0  0  0  0  0  0  0  0  0  0  # atno 17343 bound_to 10162
  157.3153  130.6910  149.6238 LP  0  0  0  0  0  0  0  0  0  0  0  0  # atno 17370 bound_to 10713
  155.9664  130.4351  150.5079 LP  0  0  0  0  0  0  0  0  0  0  0  0  # atno 17371 bound_to 10713
  140.7548  134.4005  157.5535 LP  0  0  0  0  0  0  0  0  0  0  0  0  # atno 17394 bound_to 11000
  139.8859  134.8923  156.2613 LP  0  0  0  0  0  0  0  0  0  0  0  0  # atno 17395 bound_to 11000

$$$$
