AV-unprocessed.smi:1952|AV-procd|sdf|7891|dock8
  -GOLD-   2272010 43D 1   1.00000     0.00000
 Structure written by MMmdl.
 39 40  0  0  0  0  0  0  0  0  3 V2000
  152.0112  143.9329  159.8493 C   0  0  0  0  0  0  0  0  0  0  0  0
  151.3822  143.1814  158.7262 C   0  0  0  0  0  0  0  0  0  0  0  0
  150.5307  143.5528  157.7242 C   0  0  0  0  0  0  0  0  0  0  0  0
  150.3328  142.3441  157.0055 C   0  0  0  0  0  0  0  0  0  0  0  0
  149.4814  142.3079  155.8701 N   0  0  0  0  0  0  0  0  0  0  0  0
  149.4247  141.3881  154.8907 C   0  0  0  0  0  0  0  0  0  0  0  0
  150.2280  140.4480  154.8681 O   0  0  0  0  0  0  0  0  0  0  0  0
  148.4150  141.6313  154.0092 N   0  5  0  0  0  0  0  0  0  0  0  0
  147.4994  140.6197  153.4651 C   0  0  2  0  0  0  0  0  0  0  0  0
  146.1618  140.7128  154.2126 C   0  0  0  0  0  0  0  0  0  0  0  0
  148.1216  139.2077  153.5998 C   0  0  0  0  0  0  0  0  0  0  0  0
  147.2334  138.1470  153.0534 N   0  3  0  0  0  0  0  0  0  0  0  0
  146.2313  137.6500  154.0240 C   0  0  0  0  0  0  0  0  0  0  0  0
  145.4592  136.4649  153.4204 C   0  0  0  0  0  0  0  0  0  0  0  0
  144.8478  136.8626  152.1987 O   0  0  0  0  0  0  0  0  0  0  0  0
  145.8068  137.2750  151.2314 C   0  0  0  0  0  0  0  0  0  0  0  0
  146.5839  138.4897  151.7633 C   0  0  0  0  0  0  0  0  0  0  0  0
  151.0004  141.3249  157.5257 N   0  0  0  0  0  0  0  0  0  0  0  0
  151.6781  141.8567  158.6290 O   0  0  0  0  0  0  0  0  0  0  0  0
  151.2686  144.5315  160.3770 H   0  0  0  0  0  0  0  0  0  0  0  0
  152.7848  144.6046  159.4771 H   0  0  0  0  0  0  0  0  0  0  0  0
  152.4701  143.2546  160.5688 H   0  0  0  0  0  0  0  0  0  0  0  0
  150.1168  144.5324  157.5372 H   0  0  0  0  0  0  0  0  0  0  0  0
  148.8137  143.0615  155.8019 H   0  0  0  0  0  0  0  0  0  0  0  0
  147.2883  140.7960  152.4094 H   0  0  0  0  0  0  0  0  0  0  0  0
  145.4488  139.9821  153.8299 H   0  0  0  0  0  0  0  0  0  0  0  0
  145.7128  141.6997  154.0954 H   0  0  0  0  0  0  0  0  0  0  0  0
  146.2857  140.5270  155.2802 H   0  0  0  0  0  0  0  0  0  0  0  0
  149.0786  139.1999  153.0748 H   0  0  0  0  0  0  0  0  0  0  0  0
  148.3550  138.9876  154.6424 H   0  0  0  0  0  0  0  0  0  0  0  0
  146.7308  137.3298  154.9393 H   0  0  0  0  0  0  0  0  0  0  0  0
  145.5459  138.4555  154.2917 H   0  0  0  0  0  0  0  0  0  0  0  0
  146.1233  135.6159  153.2491 H   0  0  0  0  0  0  0  0  0  0  0  0
  144.6852  136.1297  154.1111 H   0  0  0  0  0  0  0  0  0  0  0  0
  146.4841  136.4518  150.9980 H   0  0  0  0  0  0  0  0  0  0  0  0
  145.2895  137.5342  150.3077 H   0  0  0  0  0  0  0  0  0  0  0  0
  145.9105  139.3367  151.9030 H   0  0  0  0  0  0  0  0  0  0  0  0
  147.3335  138.7924  151.0316 H   0  0  0  0  0  0  0  0  0  0  0  0
  147.8485  137.3656  152.8697 H   0  0  0  0  0  0  0  0  0  0  0  0
  1  2  1  0  0  0  0
  1 20  1  0  0  0  0
  1 21  1  0  0  0  0
  1 22  1  0  0  0  0
  2 19  1  0  0  0  0
  2  3  2  0  0  0  0
  3  4  1  0  0  0  0
  3 23  1  0  0  0  0
  4  5  1  0  0  0  0
  4 18  2  0  0  0  0
  5  6  1  0  0  0  0
  5 24  1  0  0  0  0
  6  7  2  0  0  0  0
  6  8  1  0  0  0  0
  8  9  1  0  0  0  0
  9 10  1  0  0  0  0
  9 11  1  0  0  0  0
  9 25  1  0  0  0  0
 10 26  1  0  0  0  0
 10 27  1  0  0  0  0
 10 28  1  0  0  0  0
 11 12  1  0  0  0  0
 11 29  1  0  0  0  0
 11 30  1  0  0  0  0
 12 17  1  0  0  0  0
 12 13  1  0  0  0  0
 12 39  1  0  0  0  0
 13 14  1  0  0  0  0
 13 31  1  0  0  0  0
 13 32  1  0  0  0  0
 14 15  1  0  0  0  0
 14 33  1  0  0  0  0
 14 34  1  0  0  0  0
 15 16  1  0  0  0  0
 16 17  1  0  0  0  0
 16 35  1  0  0  0  0
 16 36  1  0  0  0  0
 17 37  1  0  0  0  0
 17 38  1  0  0  0  0
 18 19  1  0  0  0  0
M  CHG  1   8  -1
M  CHG  1  12   1
M  END
> <s_m_source_file>
AV-unprocessed.smi

> <i_m_source_file_index>
1952

> <i_lp_mmshare_version>
43012

> <i_f3d_flags>
0

> <s_epik_input>
W0NIM11jMVtjSF1jKG5vMSlbTkhdQyg9TylbTkhdW0NASF0oW0NIM10pW0NIMl1OMltDSDJdW0NIMl1PW0NIMl1bQ0gyXTI=

> <s_epik_cmdline>
J2VwaWtfcHl0aG9uJywgJy1waCcsICc3LjAnLCAnLXRuJywgJzgnLCAnLW1hJywgJzIwMCcsICctbWV0YWxfYmluZGluZycsICctaW1hZScsICc8aW5maWxlLm1hZT4nLCAnLW9tYWUnLCAnPG91dGZpbGUubWFlPic=

> <r_epik_Ionization_Penalty>
6.76648

> <r_epik_Ionization_Penalty_Charging>
6.76648

> <r_epik_Ionization_Penalty_Neutral>
5.6208e-06

> <r_epik_State_Penalty>
7.45901

> <r_epik_Charging_Adjusted_Penalty>
14.2255

> <i_epik_Tot_Q>
0

> <i_epik_Tot_abs_Q>
2

> <r_epik_Metal_State_Penalty>
3.38802

> <b_epik_Metal_Only>
1

> <s_lp_Force_Field>
OPLS_2005

> <r_lp_Energy>
9.23167

> <b_lp_Chiralities_Consistent>
1

> <s_lp_Variant>
AV-unprocessed.smi:1952-9

> <Gold.Version>
5.8.1

> <Gold.Id.Protein>
6NUR|6NUR_protein|mol2

> <Gold.PLP.Fitness>
42.8081

> <Gold.PLP.PLP>
-31.1613

> <Gold.PLP.part.hbond>
-4.0000

> <Gold.PLP.part.metal>
0.0000

> <Gold.PLP.part.buried>
1.9676

> <Gold.PLP.part.nonpolar>
-28.9759

> <Gold.PLP.part.repulsive>
0.6669

> <Gold.PLP.ligand.clash>
0.0000

> <Gold.PLP.ligand.torsion>
0.9192

> <Gold.PLP.Chemscore.Hbond>
4.4243

> <Gold.PLP.Chemscore.CHOScore>
0.0000

> <Gold.PLP.Chemscore.Metal>
0.0000

> <Gold.Chemscore.Hbonds>
donor molecule, donor type, donor heavy atom, donor atom, acceptor molecule, acceptor atom, score
      L1  H     5    24       P1  8028  0.74
      L1  H    12    39       P1  7948  2.00
      P1  H  7989  7998       L1     7  0.99
      P1  H  8011  8017       L1     8  0.14

> <Gold.PLP.Chemscore.Internal.Correction>
0.2123

> <Gold.Rescore>
     Score         DG    S(hbond)    S(metal)    S(lipo)     H(rot)  DE(clash)    DE(int)     intcor
     13.79     -19.43       2.65        0.00      78.16       1.58       1.96       3.68       ----

> <Gold.Chemscore.Fitness>
13.7941

> <Gold.Chemscore.DG>
-19.4266

> <Gold.Chemscore.ZeroCoef>
-5.4800

> <Gold.Chemscore.Hbond>
2.6486

> <Gold.Chemscore.Metal>
0.0000

> <Gold.Chemscore.Lipo>
78.1579

> <Gold.Chemscore.Internal_Hbond>
0.0000

> <Gold.Chemscore.DEClash>
1.9563

> <Gold.Chemscore.DEInternal>
3.6762

> <Gold.Chemscore.Rot>
1.5798

> <Gold.Chemscore.Internal.Correction>
   9.000000E+99

> <Gold.Chemscore.Hbonds>
donor molecule, donor type, donor heavy atom, donor atom, acceptor molecule, acceptor atom, score
      L1  H     5    24       P1  8028  0.74
      L1  H    12    39       P1  7948  0.98
      P1  H  7989  7998       L1     7  0.55
      P1  H  8011  8017       L1     8  0.01

> <Gold.Chemscore.Hbond.Weighted>
-8.8463

> <Gold.Chemscore.Metal.Weighted>
-0.0000

> <Gold.Chemscore.Lipo.Weighted>
-9.1445

> <Gold.Chemscore.Internal_Hbond.Weighted>
0.0000

> <Gold.Chemscore.DEClash.Weighted>
1.9563

> <Gold.Chemscore.DEInternal.Weighted>
3.6762

> <Gold.Chemscore.Rot.Weighted>
4.0442

> <Gold.Chemscore.Internal.Correction.Weighted>
   9.000000E+99

> <Gold.Protein.RotatedTorsions>
[ 6907 6896 6895 6894 ] final    1.36 input  -60.11 | X-H torsion
[ 7974 7965 7964 7962 ] final  176.69 input  175.53 | X-H torsion
[ 8008 7997 7996 7995 ] final -100.94 input   59.86 | X-H torsion
[ 10167 10162 10161 10158 ] final -104.78 input  -65.29 | X-H torsion
[ 10718 10713 10712 10709 ] final  115.52 input   66.30 | X-H torsion
[ 10763 10752 10751 10750 ] final  -87.29 input  -60.55 | X-H torsion
[ 11005 11000 10999 10996 ] final  126.82 input  -57.11 | X-H torsion

> <Gold.Protein.ActiveResidues>
 VAL166  LYS551  ARG553  GLY616  TRP617  ASP618  TYR619  PRO620  LYS621  CYS622 
 ASP623  PHE694  ASN695  SER759  ASP760  ASP761  ALA762  ILE779  LEU786  VAL792 
 PHE793  MET794  SER795  GLU796  ALA797  LYS798  CYS799  TRP800  GLU811  SER814 

> <Gold.Protein.RotatedAtoms>
  151.5914  135.1053  160.0039 H   0  0  0  0  0  0  0  0  0  0  0  0  # atno 6907 bound_to 6896
  152.4304  133.7264  159.6573 H   0  0  0  0  0  0  0  0  0  0  0  0  # atno 6908 bound_to 6896
  150.8196  133.8205  159.3167 H   0  0  0  0  0  0  0  0  0  0  0  0  # atno 6909 bound_to 6896
  144.7180  140.0135  143.6440 H   0  0  0  0  0  0  0  0  0  0  0  0  # atno 7974 bound_to 7965
  154.8357  140.0437  157.1507 H   0  0  0  0  0  0  0  0  0  0  0  0  # atno 8008 bound_to 7997
  154.9103  140.3012  155.5249 H   0  0  0  0  0  0  0  0  0  0  0  0  # atno 8009 bound_to 7997
  156.2989  140.2359  156.4142 H   0  0  0  0  0  0  0  0  0  0  0  0  # atno 8010 bound_to 7997
  140.2056  143.3785  152.1093 H   0  0  0  0  0  0  0  0  0  0  0  0  # atno 10167 bound_to 10162
  157.6217  131.1013  150.7341 H   0  0  0  0  0  0  0  0  0  0  0  0  # atno 10718 bound_to 10713
  154.6319  135.5418  153.7691 H   0  0  0  0  0  0  0  0  0  0  0  0  # atno 10763 bound_to 10752
  153.0289  135.6438  154.1288 H   0  0  0  0  0  0  0  0  0  0  0  0  # atno 10764 bound_to 10752
  154.1217  135.2920  155.3187 H   0  0  0  0  0  0  0  0  0  0  0  0  # atno 10765 bound_to 10752
  139.9476  134.9627  156.8764 H   0  0  0  0  0  0  0  0  0  0  0  0  # atno 11005 bound_to 11000
  146.0239  139.3275  143.0796 LP  0  0  0  0  0  0  0  0  0  0  0  0  # atno 17320 bound_to 7965
  145.8535  140.9515  143.0737 LP  0  0  0  0  0  0  0  0  0  0  0  0  # atno 17321 bound_to 7965
  139.5200  144.7027  151.5447 LP  0  0  0  0  0  0  0  0  0  0  0  0  # atno 17342 bound_to 10162
  140.6359  143.8984  150.6647 LP  0  0  0  0  0  0  0  0  0  0  0  0  # atno 17343 bound_to 10162
  156.7697  130.4825  149.5421 LP  0  0  0  0  0  0  0  0  0  0  0  0  # atno 17370 bound_to 10713
  156.1366  130.6215  151.0409 LP  0  0  0  0  0  0  0  0  0  0  0  0  # atno 17371 bound_to 10713
  140.5797  134.0364  155.7460 LP  0  0  0  0  0  0  0  0  0  0  0  0  # atno 17394 bound_to 11000
  141.1130  133.9585  157.2874 LP  0  0  0  0  0  0  0  0  0  0  0  0  # atno 17395 bound_to 11000

$$$$
