AV-unprocessed.smi:1278|AV-procd|sdf|5348|dock4
  -GOLD-   22720 4483D 1   1.00000     0.00000
 Structure written by MMmdl.
 39 40  0  0  0  0  0  0  0  0  2 V2000
  143.7120  132.6549  148.6359 C   0  0  0  0  0  0  0  0  0  0  0  0
  143.8574  132.6513  150.1680 C   0  0  1  0  0  0  0  0  0  0  0  0
  145.0336  131.7847  150.6547 C   0  0  0  0  0  0  0  0  0  0  0  0
  146.3805  132.4699  150.3846 C   0  0  0  0  0  0  0  0  0  0  0  0
  146.4029  133.8928  150.9651 C   0  0  0  0  0  0  0  0  0  0  0  0
  145.2756  134.7042  150.4380 N   0  3  2  0  0  0  0  0  0  0  0  0
  145.3612  136.1253  150.8577 C   0  0  0  0  0  0  0  0  0  0  0  0
  145.4893  136.2776  152.3858 C   0  0  0  0  0  0  0  0  0  0  0  0
  146.7747  136.8555  152.7608 N   0  0  0  0  0  0  0  0  0  0  0  0
  146.9278  137.9838  153.4690 C   0  0  0  0  0  0  0  0  0  0  0  0
  145.9813  138.6615  153.8708 O   0  0  0  0  0  0  0  0  0  0  0  0
  148.2273  138.2636  153.6709 N   0  0  0  0  0  0  0  0  0  0  0  0
  148.7881  139.3662  154.3675 C   0  0  0  0  0  0  0  0  0  0  0  0
  148.0774  140.3879  154.8594 N   0  0  0  0  0  0  0  0  0  0  0  0
  148.8877  141.3314  155.4963 C   0  0  0  0  0  0  0  0  0  0  0  0
  150.2223  141.0102  155.4785 C   0  0  0  0  0  0  0  0  0  0  0  0
  150.5167  139.5016  154.6556 S   0  0  0  0  0  0  0  0  0  0  0  0
  143.9607  134.0780  150.7455 C   0  0  0  0  0  0  0  0  0  0  0  0
  144.5725  133.1095  148.1449 H   0  0  0  0  0  0  0  0  0  0  0  0
  142.8271  133.2134  148.3293 H   0  0  0  0  0  0  0  0  0  0  0  0
  143.6076  131.6405  148.2503 H   0  0  0  0  0  0  0  0  0  0  0  0
  142.9427  132.2054  150.5611 H   0  0  0  0  0  0  0  0  0  0  0  0
  144.9322  131.6118  151.7271 H   0  0  0  0  0  0  0  0  0  0  0  0
  145.0072  130.8010  150.1842 H   0  0  0  0  0  0  0  0  0  0  0  0
  147.1886  131.8802  150.8182 H   0  0  0  0  0  0  0  0  0  0  0  0
  146.5725  132.5069  149.3119 H   0  0  0  0  0  0  0  0  0  0  0  0
  146.3507  133.8587  152.0545 H   0  0  0  0  0  0  0  0  0  0  0  0
  147.3519  134.3649  150.7075 H   0  0  0  0  0  0  0  0  0  0  0  0
  146.1918  136.6144  150.3463 H   0  0  0  0  0  0  0  0  0  0  0  0
  144.4562  136.6432  150.5370 H   0  0  0  0  0  0  0  0  0  0  0  0
  144.6772  136.8927  152.7778 H   0  0  0  0  0  0  0  0  0  0  0  0
  145.4123  135.3109  152.8817 H   0  0  0  0  0  0  0  0  0  0  0  0
  147.6037  136.3577  152.4697 H   0  0  0  0  0  0  0  0  0  0  0  0
  148.8941  137.6115  153.2850 H   0  0  0  0  0  0  0  0  0  0  0  0
  148.4297  142.2049  155.9363 H   0  0  0  0  0  0  0  0  0  0  0  0
  151.0466  141.5677  155.8978 H   0  0  0  0  0  0  0  0  0  0  0  0
  143.1443  134.6830  150.3526 H   0  0  0  0  0  0  0  0  0  0  0  0
  143.8275  134.0475  151.8282 H   0  0  0  0  0  0  0  0  0  0  0  0
  145.3765  134.6996  149.4327 H   0  0  0  0  0  0  0  0  0  0  0  0
  1  2  1  0  0  0  0
  1 19  1  0  0  0  0
  1 20  1  0  0  0  0
  1 21  1  0  0  0  0
  2 18  1  0  0  0  0
  2  3  1  0  0  0  0
  2 22  1  0  0  0  0
  3  4  1  0  0  0  0
  3 23  1  0  0  0  0
  3 24  1  0  0  0  0
  4  5  1  0  0  0  0
  4 25  1  0  0  0  0
  4 26  1  0  0  0  0
  5  6  1  0  0  0  0
  5 27  1  0  0  0  0
  5 28  1  0  0  0  0
  6  7  1  0  0  0  0
  6 18  1  0  0  0  0
  6 39  1  0  0  0  0
  7  8  1  0  0  0  0
  7 29  1  0  0  0  0
  7 30  1  0  0  0  0
  8  9  1  0  0  0  0
  8 31  1  0  0  0  0
  8 32  1  0  0  0  0
  9 10  1  0  0  0  0
  9 33  1  0  0  0  0
 10 11  2  0  0  0  0
 10 12  1  0  0  0  0
 12 13  1  0  0  0  0
 12 34  1  0  0  0  0
 13 17  1  0  0  0  0
 13 14  2  0  0  0  0
 14 15  1  0  0  0  0
 15 16  2  0  0  0  0
 15 35  1  0  0  0  0
 16 17  1  0  0  0  0
 16 36  1  0  0  0  0
 18 37  1  0  0  0  0
 18 38  1  0  0  0  0
M  CHG  1   6   1
M  END
> <s_m_source_file>
AV-unprocessed.smi

> <i_m_source_file_index>
1278

> <i_lp_mmshare_version>
43012

> <i_f3d_flags>
0

> <s_epik_input>
W0NIM11bQ0BASF0xW0NIMl1bQ0gyXVtDSDJdTihbQ0gyXTEpW0NIMl1bQ0gyXVtOSF1DKD1PKVtOSF1jMm5bY0hdW2NIXXMy

> <s_epik_cmdline>
J2VwaWtfcHl0aG9uJywgJy1waCcsICc3LjAnLCAnLXRuJywgJzgnLCAnLW1hJywgJzIwMCcsICctbWV0YWxfYmluZGluZycsICctaW1hZScsICc8aW5maWxlLm1hZT4nLCAnLW9tYWUnLCAnPG91dGZpbGUubWFlPic=

> <r_lp_tautomer_probability>
0.999

> <r_epik_Ionization_Penalty>
0.00222194

> <r_epik_Ionization_Penalty_Charging>
0.00208169

> <r_epik_Ionization_Penalty_Neutral>
0.000140251

> <r_epik_State_Penalty>
0.00142585

> <r_epik_Charging_Adjusted_Penalty>
0.00350754

> <i_epik_Tot_Q>
1

> <i_epik_Tot_abs_Q>
1

> <r_epik_Metal_State_Penalty>
0.0570424

> <b_epik_Metal_Only>
0

> <s_lp_Force_Field>
OPLS_2005

> <r_lp_Energy>
16.7193

> <b_lp_Chiralities_Consistent>
1

> <s_lp_Variant>
AV-unprocessed.smi:1278-2

> <Gold.Version>
5.8.1

> <Gold.Id.Protein>
6NUR|6NUR_protein|mol2

> <Gold.PLP.Fitness>
43.7965

> <Gold.PLP.PLP>
-33.3085

> <Gold.PLP.part.hbond>
-2.8194

> <Gold.PLP.part.metal>
0.0000

> <Gold.PLP.part.buried>
-1.0154

> <Gold.PLP.part.nonpolar>
-30.2176

> <Gold.PLP.part.repulsive>
0.3744

> <Gold.PLP.ligand.clash>
0.0000

> <Gold.PLP.ligand.torsion>
0.4333

> <Gold.PLP.Chemscore.Hbond>
2.7753

> <Gold.PLP.Chemscore.CHOScore>
1.0000

> <Gold.PLP.Chemscore.Metal>
0.0000

> <Gold.Chemscore.Hbonds>
donor molecule, donor type, donor heavy atom, donor atom, acceptor molecule, acceptor atom, score
      L1  H     6    39       P1  7921  1.00
      L1  H     9    33       P1  7948  0.86
      L1  H    12    34       P1  7948  0.78
      L1  C    15    35       P1  8028  0.92

> <Gold.PLP.Chemscore.Internal.Correction>
0.0288

> <Gold.Rescore>
     Score         DG    S(hbond)    S(metal)    S(lipo)     H(rot)  DE(clash)    DE(int)     intcor
     18.71     -20.75       2.71        0.00      88.29       1.60       0.34       1.71       ----

> <Gold.Chemscore.Fitness>
18.7059

> <Gold.Chemscore.DG>
-20.7524

> <Gold.Chemscore.ZeroCoef>
-5.4800

> <Gold.Chemscore.Hbond>
2.7064

> <Gold.Chemscore.Metal>
0.0000

> <Gold.Chemscore.Lipo>
88.2859

> <Gold.Chemscore.Internal_Hbond>
0.0000

> <Gold.Chemscore.DEClash>
0.3414

> <Gold.Chemscore.DEInternal>
1.7051

> <Gold.Chemscore.Rot>
1.6001

> <Gold.Chemscore.Internal.Correction>
   9.000000E+99

> <Gold.Chemscore.Hbonds>
donor molecule, donor type, donor heavy atom, donor atom, acceptor molecule, acceptor atom, score
      L1  H     6    39       P1  7921  0.98
      L1  H     9    33       P1  7948  0.82
      L1  H    12    34       P1  7948  0.76

> <Gold.Chemscore.Hbond.Weighted>
-9.0392

> <Gold.Chemscore.Metal.Weighted>
-0.0000

> <Gold.Chemscore.Lipo.Weighted>
-10.3294

> <Gold.Chemscore.Internal_Hbond.Weighted>
0.0000

> <Gold.Chemscore.DEClash.Weighted>
0.3414

> <Gold.Chemscore.DEInternal.Weighted>
1.7051

> <Gold.Chemscore.Rot.Weighted>
4.0963

> <Gold.Chemscore.Internal.Correction.Weighted>
   9.000000E+99

> <Gold.Protein.RotatedTorsions>
[ 6907 6896 6895 6894 ] final    8.37 input  -60.11 | X-H torsion
[ 7974 7965 7964 7962 ] final -115.23 input  175.53 | X-H torsion
[ 8008 7997 7996 7995 ] final  -50.18 input   59.86 | X-H torsion
[ 10167 10162 10161 10158 ] final   70.85 input  -65.29 | X-H torsion
[ 10718 10713 10712 10709 ] final  -20.51 input   66.30 | X-H torsion
[ 10763 10752 10751 10750 ] final  137.21 input  -60.55 | X-H torsion
[ 11005 11000 10999 10996 ] final -143.39 input  -57.11 | X-H torsion

> <Gold.Protein.ActiveResidues>
 VAL166  LYS551  ARG553  GLY616  TRP617  ASP618  TYR619  PRO620  LYS621  CYS622 
 ASP623  PHE694  ASN695  SER759  ASP760  ASP761  ALA762  ILE779  LEU786  VAL792 
 PHE793  MET794  SER795  GLU796  ALA797  LYS798  CYS799  TRP800  GLU811  SER814 

> <Gold.Protein.RotatedAtoms>
  151.7050  135.0923  160.0257 H   0  0  0  0  0  0  0  0  0  0  0  0  # atno 6907 bound_to 6896
  152.3697  133.6398  159.6086 H   0  0  0  0  0  0  0  0  0  0  0  0  # atno 6908 bound_to 6896
  150.7664  133.9206  159.3438 H   0  0  0  0  0  0  0  0  0  0  0  0  # atno 6909 bound_to 6896
  145.1109  140.8610  143.3871 H   0  0  0  0  0  0  0  0  0  0  0  0  # atno 7974 bound_to 7965
  154.4057  140.1278  156.4624 H   0  0  0  0  0  0  0  0  0  0  0  0  # atno 8008 bound_to 7997
  155.7259  140.3492  155.5017 H   0  0  0  0  0  0  0  0  0  0  0  0  # atno 8009 bound_to 7997
  155.9171  140.1046  157.1225 H   0  0  0  0  0  0  0  0  0  0  0  0  # atno 8010 bound_to 7997
  140.0524  144.5300  150.7353 H   0  0  0  0  0  0  0  0  0  0  0  0  # atno 10167 bound_to 10162
  156.5308  130.4654  149.6548 H   0  0  0  0  0  0  0  0  0  0  0  0  # atno 10718 bound_to 10713
  153.8692  135.3058  155.3441 H   0  0  0  0  0  0  0  0  0  0  0  0  # atno 10763 bound_to 10752
  154.7813  135.4834  153.9854 H   0  0  0  0  0  0  0  0  0  0  0  0  # atno 10764 bound_to 10752
  153.1416  135.6825  153.9114 H   0  0  0  0  0  0  0  0  0  0  0  0  # atno 10765 bound_to 10752
  140.8130  134.2721  157.4933 H   0  0  0  0  0  0  0  0  0  0  0  0  # atno 11005 bound_to 11000
  145.0848  139.2933  143.5765 LP  0  0  0  0  0  0  0  0  0  0  0  0  # atno 17320 bound_to 7965
  146.3526  140.0367  142.8646 LP  0  0  0  0  0  0  0  0  0  0  0  0  # atno 17321 bound_to 7965
  140.7210  143.2589  151.4278 LP  0  0  0  0  0  0  0  0  0  0  0  0  # atno 17342 bound_to 10162
  139.5944  144.1428  152.2127 LP  0  0  0  0  0  0  0  0  0  0  0  0  # atno 17343 bound_to 10162
  156.3062  130.7204  151.2086 LP  0  0  0  0  0  0  0  0  0  0  0  0  # atno 17370 bound_to 10713
  157.7422  131.0493  150.5042 LP  0  0  0  0  0  0  0  0  0  0  0  0  # atno 17371 bound_to 10713
  139.8713  134.9494  156.4023 LP  0  0  0  0  0  0  0  0  0  0  0  0  # atno 17394 bound_to 11000
  140.9178  133.7666  155.9869 LP  0  0  0  0  0  0  0  0  0  0  0  0  # atno 17395 bound_to 11000

$$$$
