AV-unprocessed.smi:2499|AV-procd|sdf|9840|dock6
  -GOLD-   2272013463D 1   1.00000     0.00000
 Structure written by MMmdl.
 26 27  0  0  0  0  0  0  0  0  2 V2000
  151.4427  143.9926  158.8603 C   0  0  0  0  0  0  0  0  0  0  0  0
  151.9648  142.6543  159.4006 C   0  0  1  0  0  0  0  0  0  0  0  0
  152.3987  141.8354  158.2721 N   0  0  0  0  0  0  0  0  0  0  0  0
  151.8852  140.6520  157.9047 C   0  0  0  0  0  0  0  0  0  0  0  0
  150.9517  140.1598  158.5425 O   0  0  0  0  0  0  0  0  0  0  0  0
  152.4862  140.1122  156.8202 N   0  5  0  0  0  0  0  0  0  0  0  0
  151.7720  139.3651  155.9631 C   0  0  0  0  0  0  0  0  0  0  0  0
  151.6244  138.0397  156.0021 N   0  0  0  0  0  0  0  0  0  0  0  0
  150.8043  137.7178  154.9318 C   0  0  0  0  0  0  0  0  0  0  0  0
  150.4800  138.8802  154.2874 C   0  0  0  0  0  0  0  0  0  0  0  0
  151.0818  139.9264  154.9303 O   0  0  0  0  0  0  0  0  0  0  0  0
  153.0506  142.8780  160.4405 C   0  0  0  0  0  0  0  0  0  0  0  0
  153.5050  141.7664  161.3574 C   0  0  0  0  0  0  0  0  0  0  0  0
  152.7173  142.9298  161.9131 C   0  0  0  0  0  0  0  0  0  0  0  0
  151.0534  144.6166  159.6651 H   0  0  0  0  0  0  0  0  0  0  0  0
  150.6343  143.8391  158.1447 H   0  0  0  0  0  0  0  0  0  0  0  0
  152.2318  144.5526  158.3571 H   0  0  0  0  0  0  0  0  0  0  0  0
  151.1259  142.1542  159.8884 H   0  0  0  0  0  0  0  0  0  0  0  0
  153.1601  142.1970  157.7170 H   0  0  0  0  0  0  0  0  0  0  0  0
  150.5184  136.6990  154.7172 H   0  0  0  0  0  0  0  0  0  0  0  0
  149.8789  139.1198  153.4233 H   0  0  0  0  0  0  0  0  0  0  0  0
  153.8250  143.5703  160.1149 H   0  0  0  0  0  0  0  0  0  0  0  0
  152.9965  140.8070  161.2861 H   0  0  0  0  0  0  0  0  0  0  0  0
  154.5657  141.7149  161.5934 H   0  0  0  0  0  0  0  0  0  0  0  0
  153.2522  143.6544  162.5237 H   0  0  0  0  0  0  0  0  0  0  0  0
  151.6866  142.7422  162.2072 H   0  0  0  0  0  0  0  0  0  0  0  0
  1  2  1  0  0  0  0
  1 15  1  0  0  0  0
  1 16  1  0  0  0  0
  1 17  1  0  0  0  0
  2  3  1  0  0  0  0
  2 12  1  0  0  0  0
  2 18  1  0  0  0  0
  3 19  1  0  0  0  0
  3  4  1  0  0  0  0
  4  6  1  0  0  0  0
  4  5  2  0  0  0  0
  6  7  1  0  0  0  0
  7 11  1  0  0  0  0
  7  8  2  0  0  0  0
  8  9  1  0  0  0  0
  9 20  1  0  0  0  0
  9 10  2  0  0  0  0
 10 21  1  0  0  0  0
 10 11  1  0  0  0  0
 12 14  1  0  0  0  0
 12 13  1  0  0  0  0
 12 22  1  0  0  0  0
 13 14  1  0  0  0  0
 13 23  1  0  0  0  0
 13 24  1  0  0  0  0
 14 25  1  0  0  0  0
 14 26  1  0  0  0  0
M  CHG  1   6  -1
M  END
> <s_m_source_file>
AV-unprocessed.smi

> <i_m_source_file_index>
2499

> <i_lp_mmshare_version>
43012

> <i_f3d_flags>
0

> <s_epik_input>
W0NIMl0xW0NIMl1bQ0hdMVtDQEhdKFtDSDNdKVtOSF1DKD1PKVtOSF1jMm5bY0hdW2NIXW8y

> <s_epik_cmdline>
J2VwaWtfcHl0aG9uJywgJy1waCcsICc3LjAnLCAnLXRuJywgJzgnLCAnLW1hJywgJzIwMCcsICctbWV0YWxfYmluZGluZycsICctaW1hZScsICc8aW5maWxlLm1hZT4nLCAnLW9tYWUnLCAnPG91dGZpbGUubWFlPic=

> <r_lp_tautomer_probability>
0.107061

> <r_epik_Ionization_Penalty>
11.2144

> <r_epik_Ionization_Penalty_Charging>
7.87172

> <r_epik_Ionization_Penalty_Neutral>
3.3427

> <r_epik_State_Penalty>
5.96777

> <r_epik_Charging_Adjusted_Penalty>
13.8395

> <i_epik_Tot_Q>
-1

> <i_epik_Tot_abs_Q>
1

> <r_epik_Metal_State_Penalty>
1.88989

> <b_epik_Metal_Only>
1

> <s_lp_Force_Field>
OPLS_2005

> <r_lp_Energy>
7.96156

> <b_lp_Chiralities_Consistent>
1

> <s_lp_Variant>
AV-unprocessed.smi:2499-10

> <Gold.Version>
5.8.1

> <Gold.Id.Protein>
6NUR|6NUR_protein|mol2

> <Gold.PLP.Fitness>
40.7453

> <Gold.PLP.PLP>
-30.7283

> <Gold.PLP.part.hbond>
-2.0000

> <Gold.PLP.part.metal>
0.0000

> <Gold.PLP.part.buried>
-2.5504

> <Gold.PLP.part.nonpolar>
-25.7117

> <Gold.PLP.part.repulsive>
0.1336

> <Gold.PLP.ligand.clash>
0.0000

> <Gold.PLP.ligand.torsion>
1.5306

> <Gold.PLP.Chemscore.Hbond>
3.0000

> <Gold.PLP.Chemscore.CHOScore>
1.0000

> <Gold.PLP.Chemscore.Metal>
0.0000

> <Gold.Chemscore.Hbonds>
donor molecule, donor type, donor heavy atom, donor atom, acceptor molecule, acceptor atom, score
      P1  H  7989  7998       L1    11  0.95
      P1  H  7997  8008       L1     6  2.00
      L1  C    10    21       P1  7957  1.00

> <Gold.PLP.Chemscore.Internal.Correction>
1.0783

> <Gold.Rescore>
     Score         DG    S(hbond)    S(metal)    S(lipo)     H(rot)  DE(clash)    DE(int)     intcor
     15.05     -16.53       1.83        0.00      70.20       1.28       0.01       1.47       ----

> <Gold.Chemscore.Fitness>
15.0520

> <Gold.Chemscore.DG>
-16.5264

> <Gold.Chemscore.ZeroCoef>
-5.4800

> <Gold.Chemscore.Hbond>
1.8276

> <Gold.Chemscore.Metal>
0.0000

> <Gold.Chemscore.Lipo>
70.1991

> <Gold.Chemscore.Internal_Hbond>
0.0000

> <Gold.Chemscore.DEClash>
0.0060

> <Gold.Chemscore.DEInternal>
1.4684

> <Gold.Chemscore.Rot>
1.2778

> <Gold.Chemscore.Internal.Correction>
   9.000000E+99

> <Gold.Chemscore.Hbonds>
donor molecule, donor type, donor heavy atom, donor atom, acceptor molecule, acceptor atom, score
      P1  H  7989  7998       L1    11  0.22
      P1  H  7997  8008       L1     6  0.89

> <Gold.Chemscore.Hbond.Weighted>
-6.1043

> <Gold.Chemscore.Metal.Weighted>
-0.0000

> <Gold.Chemscore.Lipo.Weighted>
-8.2133

> <Gold.Chemscore.Internal_Hbond.Weighted>
0.0000

> <Gold.Chemscore.DEClash.Weighted>
0.0060

> <Gold.Chemscore.DEInternal.Weighted>
1.4684

> <Gold.Chemscore.Rot.Weighted>
3.2711

> <Gold.Chemscore.Internal.Correction.Weighted>
   9.000000E+99

> <Gold.Protein.RotatedTorsions>
[ 6907 6896 6895 6894 ] final -150.54 input  -60.11 | X-H torsion
[ 7974 7965 7964 7962 ] final -168.90 input  175.53 | X-H torsion
[ 8008 7997 7996 7995 ] final  -65.43 input   59.86 | X-H torsion
[ 10167 10162 10161 10158 ] final    6.21 input  -65.29 | X-H torsion
[ 10718 10713 10712 10709 ] final -159.06 input   66.30 | X-H torsion
[ 10763 10752 10751 10750 ] final  159.90 input  -60.55 | X-H torsion
[ 11005 11000 10999 10996 ] final   -9.23 input  -57.11 | X-H torsion

> <Gold.Protein.ActiveResidues>
 VAL166  LYS551  ARG553  GLY616  TRP617  ASP618  TYR619  PRO620  LYS621  CYS622 
 ASP623  PHE694  ASN695  SER759  ASP760  ASP761  ALA762  ILE779  LEU786  VAL792 
 PHE793  MET794  SER795  GLU796  ALA797  LYS798  CYS799  TRP800  GLU811  SER814 

> <Gold.Protein.RotatedAtoms>
  151.2001  133.4616  159.2595 H   0  0  0  0  0  0  0  0  0  0  0  0  # atno 6907 bound_to 6896
  151.1078  135.0009  159.8490 H   0  0  0  0  0  0  0  0  0  0  0  0  # atno 6908 bound_to 6896
  152.5448  134.1922  159.8731 H   0  0  0  0  0  0  0  0  0  0  0  0  # atno 6909 bound_to 6896
  144.7195  140.2301  143.6305 H   0  0  0  0  0  0  0  0  0  0  0  0  # atno 7974 bound_to 7965
  154.4671  140.0933  156.7049 H   0  0  0  0  0  0  0  0  0  0  0  0  # atno 8008 bound_to 7997
  155.4827  140.3468  155.4324 H   0  0  0  0  0  0  0  0  0  0  0  0  # atno 8009 bound_to 7997
  156.0976  140.1413  156.9499 H   0  0  0  0  0  0  0  0  0  0  0  0  # atno 8010 bound_to 7997
  140.6440  143.7706  150.7471 H   0  0  0  0  0  0  0  0  0  0  0  0  # atno 10167 bound_to 10162
  156.5628  130.8654  151.2815 H   0  0  0  0  0  0  0  0  0  0  0  0  # atno 10718 bound_to 10713
  154.2391  135.2775  155.2861 H   0  0  0  0  0  0  0  0  0  0  0  0  # atno 10763 bound_to 10752
  154.5560  135.5661  153.6968 H   0  0  0  0  0  0  0  0  0  0  0  0  # atno 10764 bound_to 10752
  153.0004  135.6286  154.2534 H   0  0  0  0  0  0  0  0  0  0  0  0  # atno 10765 bound_to 10752
  140.7320  133.8741  155.8900 H   0  0  0  0  0  0  0  0  0  0  0  0  # atno 11005 bound_to 11000
  145.8419  139.2134  143.1823 LP  0  0  0  0  0  0  0  0  0  0  0  0  # atno 17320 bound_to 7965
  146.0339  140.8231  142.9862 LP  0  0  0  0  0  0  0  0  0  0  0  0  # atno 17321 bound_to 7965
  140.1343  143.4498  152.2234 LP  0  0  0  0  0  0  0  0  0  0  0  0  # atno 17342 bound_to 10162
  139.5650  144.7429  151.4047 LP  0  0  0  0  0  0  0  0  0  0  0  0  # atno 17343 bound_to 10162
  157.7365  130.9779  150.2139 LP  0  0  0  0  0  0  0  0  0  0  0  0  # atno 17370 bound_to 10713
  156.2783  130.3730  149.7961 LP  0  0  0  0  0  0  0  0  0  0  0  0  # atno 17371 bound_to 10713
  140.9913  134.1275  157.4405 LP  0  0  0  0  0  0  0  0  0  0  0  0  # atno 17394 bound_to 11000
  139.8824  135.0041  156.6228 LP  0  0  0  0  0  0  0  0  0  0  0  0  # atno 17395 bound_to 11000

$$$$
