AV-unprocessed.smi:1011|AV-procd|sdf|4419|dock8
  -GOLD-   22720 2363D 1   1.00000     0.00000
 Structure written by MMmdl.
 44 46  0  0  0  0  0  0  0  0  2 V2000
  151.3314  140.2545  158.7717 C   0  0  0  0  0  0  0  0  0  0  0  0
  151.1791  140.0356  157.2939 C   0  0  0  0  0  0  0  0  0  0  0  0
  151.7743  140.7797  156.2361 C   0  0  0  0  0  0  0  0  0  0  0  0
  151.4410  140.3267  155.0385 N   0  0  0  0  0  0  0  0  0  0  0  0
  150.6216  139.2828  155.2882 N   0  0  0  0  0  0  0  0  0  0  0  0
  150.0662  138.5184  154.1847 C   0  0  0  0  0  0  0  0  0  0  0  0
  148.5396  138.6710  154.0961 C   0  0  0  0  0  0  0  0  0  0  0  0
  148.0875  138.6993  152.6920 N   0  3  0  0  0  0  0  0  0  0  0  0
  146.6762  139.0850  152.5137 C   0  0  0  0  0  0  0  0  0  0  0  0
  146.0122  137.7865  152.1718 C   0  0  0  0  0  0  0  0  0  0  0  0
  146.3334  137.1041  151.0725 N   0  0  0  0  0  0  0  0  0  0  0  0
  145.5049  136.0010  151.1458 C   0  0  0  0  0  0  0  0  0  0  0  0
  145.3628  134.8995  150.2721 C   0  0  0  0  0  0  0  0  0  0  0  0
  144.4361  133.8755  150.5589 C   0  0  0  0  0  0  0  0  0  0  0  0
  144.2746  132.5383  149.4809 Cl  0  0  0  0  0  0  0  0  0  0  0  0
  143.6410  133.9388  151.7219 C   0  0  0  0  0  0  0  0  0  0  0  0
  143.7677  135.0271  152.6065 C   0  0  0  0  0  0  0  0  0  0  0  0
  144.6935  136.0463  152.3148 C   0  0  0  0  0  0  0  0  0  0  0  0
  145.0571  137.2252  152.9583 N   0  0  0  0  0  0  0  0  0  0  0  0
  144.5036  137.7164  154.2150 C   0  0  0  0  0  0  0  0  0  0  0  0
  142.9848  137.5005  154.3132 C   0  0  0  0  0  0  0  0  0  0  0  0
  142.3031  138.2303  153.3147 O   0  0  0  0  0  0  0  0  0  0  0  0
  150.4467  139.0847  156.6413 C   0  0  0  0  0  0  0  0  0  0  0  0
  151.3589  141.3153  159.0212 H   0  0  0  0  0  0  0  0  0  0  0  0
  152.2525  139.8109  159.1500 H   0  0  0  0  0  0  0  0  0  0  0  0
  150.5076  139.8148  159.3344 H   0  0  0  0  0  0  0  0  0  0  0  0
  152.4369  141.6301  156.3032 H   0  0  0  0  0  0  0  0  0  0  0  0
  150.5277  138.8704  153.2613 H   0  0  0  0  0  0  0  0  0  0  0  0
  150.3481  137.4702  154.2960 H   0  0  0  0  0  0  0  0  0  0  0  0
  148.0614  137.8439  154.6229 H   0  0  0  0  0  0  0  0  0  0  0  0
  148.2203  139.5902  154.5879 H   0  0  0  0  0  0  0  0  0  0  0  0
  148.6740  139.3274  152.1612 H   0  0  0  0  0  0  0  0  0  0  0  0
  146.2512  139.5112  153.4225 H   0  0  0  0  0  0  0  0  0  0  0  0
  146.5664  139.8059  151.7025 H   0  0  0  0  0  0  0  0  0  0  0  0
  145.9677  134.8431  149.3791 H   0  0  0  0  0  0  0  0  0  0  0  0
  142.9328  133.1512  151.9354 H   0  0  0  0  0  0  0  0  0  0  0  0
  143.1587  135.0775  153.4970 H   0  0  0  0  0  0  0  0  0  0  0  0
  145.0017  137.1933  155.0321 H   0  0  0  0  0  0  0  0  0  0  0  0
  144.7459  138.7708  154.3444 H   0  0  0  0  0  0  0  0  0  0  0  0
  142.7397  136.4430  154.2098 H   0  0  0  0  0  0  0  0  0  0  0  0
  142.6228  137.8195  155.2909 H   0  0  0  0  0  0  0  0  0  0  0  0
  142.8497  138.9532  153.0456 H   0  0  0  0  0  0  0  0  0  0  0  0
  149.8245  138.2892  157.0249 H   0  0  0  0  0  0  0  0  0  0  0  0
  148.1972  137.7674  152.3168 H   0  0  0  0  0  0  0  0  0  0  0  0
  1  2  1  0  0  0  0
  1 24  1  0  0  0  0
  1 25  1  0  0  0  0
  1 26  1  0  0  0  0
  2 23  2  0  0  0  0
  2  3  1  0  0  0  0
  3  4  2  0  0  0  0
  3 27  1  0  0  0  0
  4  5  1  0  0  0  0
  5  6  1  0  0  0  0
  5 23  1  0  0  0  0
  6  7  1  0  0  0  0
  6 28  1  0  0  0  0
  6 29  1  0  0  0  0
  7  8  1  0  0  0  0
  7 30  1  0  0  0  0
  7 31  1  0  0  0  0
  8  9  1  0  0  0  0
  8 32  1  0  0  0  0
  8 44  1  0  0  0  0
  9 10  1  0  0  0  0
  9 33  1  0  0  0  0
  9 34  1  0  0  0  0
 10 19  1  0  0  0  0
 10 11  2  0  0  0  0
 11 12  1  0  0  0  0
 12 18  2  0  0  0  0
 12 13  1  0  0  0  0
 13 14  2  0  0  0  0
 13 35  1  0  0  0  0
 14 15  1  0  0  0  0
 14 16  1  0  0  0  0
 16 17  2  0  0  0  0
 16 36  1  0  0  0  0
 17 18  1  0  0  0  0
 17 37  1  0  0  0  0
 18 19  1  0  0  0  0
 19 20  1  0  0  0  0
 20 21  1  0  0  0  0
 20 38  1  0  0  0  0
 20 39  1  0  0  0  0
 21 22  1  0  0  0  0
 21 40  1  0  0  0  0
 21 41  1  0  0  0  0
 22 42  1  0  0  0  0
 23 43  1  0  0  0  0
M  CHG  1   8   1
M  END
> <s_m_source_file>
AV-unprocessed.smi

> <i_m_source_file_index>
1011

> <i_lp_mmshare_version>
43012

> <i_f3d_flags>
0

> <s_epik_input>
W0NIM11jMVtjSF1ubihbY0hdMSlbQ0gyXVtDSDJdW05IXVtDSDJdYyhuMiluKFtDSDJdW0NIMl1bT0hdKWMoYzIzKVtjSF1bY0hdYyhDbClbY0hdMw==

> <s_epik_cmdline>
J2VwaWtfcHl0aG9uJywgJy1waCcsICc3LjAnLCAnLXRuJywgJzgnLCAnLW1hJywgJzIwMCcsICctbWV0YWxfYmluZGluZycsICctaW1hZScsICc8aW5maWxlLm1hZT4nLCAnLW9tYWUnLCAnPG91dGZpbGUubWFlPic=

> <r_lp_tautomer_probability>
1

> <r_epik_Ionization_Penalty>
0.234823

> <r_epik_Ionization_Penalty_Charging>
0.2345

> <r_epik_Ionization_Penalty_Neutral>
0.00032281

> <r_epik_State_Penalty>
0.238632

> <r_epik_Charging_Adjusted_Penalty>
0.473132

> <i_epik_Tot_Q>
1

> <i_epik_Tot_abs_Q>
1

> <r_epik_Metal_State_Penalty>
0.25397

> <b_epik_Metal_Only>
0

> <s_lp_Force_Field>
OPLS_2005

> <r_lp_Energy>
6.60255

> <b_lp_Chiralities_Consistent>
1

> <s_lp_Variant>
AV-unprocessed.smi:1011-1

> <Gold.Version>
5.8.1

> <Gold.Id.Protein>
6NUR|6NUR_protein|mol2

> <Gold.PLP.Fitness>
52.7914

> <Gold.PLP.PLP>
-38.4616

> <Gold.PLP.part.hbond>
-4.2006

> <Gold.PLP.part.metal>
0.0000

> <Gold.PLP.part.buried>
-3.5759

> <Gold.PLP.part.nonpolar>
-33.3572

> <Gold.PLP.part.repulsive>
2.6725

> <Gold.PLP.ligand.clash>
0.0000

> <Gold.PLP.ligand.torsion>
0.9311

> <Gold.PLP.Chemscore.Hbond>
5.3650

> <Gold.PLP.Chemscore.CHOScore>
0.0000

> <Gold.PLP.Chemscore.Metal>
0.0000

> <Gold.Chemscore.Hbonds>
donor molecule, donor type, donor heavy atom, donor atom, acceptor molecule, acceptor atom, score
      L1  H     8    32       P1  7957  0.99
      L1  H     8    44       P1  7948  2.00
      L1  H    22    42       P1 10175  1.00
      P1  H  7954  7966       L1    11  0.32
      P1  H  7989  7998       L1     4  0.99

> <Gold.PLP.Chemscore.Internal.Correction>
0.0970

> <Gold.Rescore>
     Score         DG    S(hbond)    S(metal)    S(lipo)     H(rot)  DE(clash)    DE(int)     intcor
     19.98     -23.86       4.59        0.00      90.38       2.94       2.97       0.91       ----

> <Gold.Chemscore.Fitness>
19.9754

> <Gold.Chemscore.DG>
-23.8566

> <Gold.Chemscore.ZeroCoef>
-5.4800

> <Gold.Chemscore.Hbond>
4.5878

> <Gold.Chemscore.Metal>
0.0000

> <Gold.Chemscore.Lipo>
90.3772

> <Gold.Chemscore.Internal_Hbond>
0.0000

> <Gold.Chemscore.DEClash>
2.9731

> <Gold.Chemscore.DEInternal>
0.9081

> <Gold.Chemscore.Rot>
2.9378

> <Gold.Chemscore.Internal.Correction>
   9.000000E+99

> <Gold.Chemscore.Hbonds>
donor molecule, donor type, donor heavy atom, donor atom, acceptor molecule, acceptor atom, score
      L1  H     8    32       P1  7957  0.92
      L1  H     8    44       P1  7948  1.00
      L1  H    22    42       P1 10175  1.00
      P1  H  7954  7966       L1    11  0.31
      P1  H  7989  7998       L1     4  0.92

> <Gold.Chemscore.Hbond.Weighted>
-15.3233

> <Gold.Chemscore.Metal.Weighted>
-0.0000

> <Gold.Chemscore.Lipo.Weighted>
-10.5741

> <Gold.Chemscore.Internal_Hbond.Weighted>
0.0000

> <Gold.Chemscore.DEClash.Weighted>
2.9731

> <Gold.Chemscore.DEInternal.Weighted>
0.9081

> <Gold.Chemscore.Rot.Weighted>
7.5209

> <Gold.Chemscore.Internal.Correction.Weighted>
   9.000000E+99

> <Gold.Protein.RotatedTorsions>
[ 6907 6896 6895 6894 ] final   89.12 input  -60.11 | X-H torsion
[ 7974 7965 7964 7962 ] final   63.21 input  175.53 | X-H torsion
[ 8008 7997 7996 7995 ] final   50.19 input   59.86 | X-H torsion
[ 10167 10162 10161 10158 ] final  -48.48 input  -65.29 | X-H torsion
[ 10718 10713 10712 10709 ] final   14.52 input   66.30 | X-H torsion
[ 10763 10752 10751 10750 ] final   34.66 input  -60.55 | X-H torsion
[ 11005 11000 10999 10996 ] final  172.25 input  -57.11 | X-H torsion

> <Gold.Protein.ActiveResidues>
 VAL166  LYS551  ARG553  GLY616  TRP617  ASP618  TYR619  PRO620  LYS621  CYS622 
 ASP623  PHE694  ASN695  SER759  ASP760  ASP761  ALA762  ILE779  LEU786  VAL792 
 PHE793  MET794  SER795  GLU796  ALA797  LYS798  CYS799  TRP800  GLU811  SER814 

> <Gold.Protein.RotatedAtoms>
  152.5433  134.2016  159.8713 H   0  0  0  0  0  0  0  0  0  0  0  0  # atno 6907 bound_to 6896
  151.2004  133.4607  159.2603 H   0  0  0  0  0  0  0  0  0  0  0  0  # atno 6908 bound_to 6896
  151.0995  134.9976  159.8497 H   0  0  0  0  0  0  0  0  0  0  0  0  # atno 6909 bound_to 6896
  145.8645  139.3336  143.0799 H   0  0  0  0  0  0  0  0  0  0  0  0  # atno 7974 bound_to 7965
  155.4147  140.3444  155.4266 H   0  0  0  0  0  0  0  0  0  0  0  0  # atno 8008 bound_to 7997
  156.1428  140.1547  156.8925 H   0  0  0  0  0  0  0  0  0  0  0  0  # atno 8009 bound_to 7997
  154.4985  140.0821  156.7729 H   0  0  0  0  0  0  0  0  0  0  0  0  # atno 8010 bound_to 7997
  140.6729  143.2738  151.4078 H   0  0  0  0  0  0  0  0  0  0  0  0  # atno 10167 bound_to 10162
  157.0403  130.6228  149.5750 H   0  0  0  0  0  0  0  0  0  0  0  0  # atno 10718 bound_to 10713
  153.0154  135.6354  154.1704 H   0  0  0  0  0  0  0  0  0  0  0  0  # atno 10763 bound_to 10752
  154.1443  135.2833  155.3154 H   0  0  0  0  0  0  0  0  0  0  0  0  # atno 10764 bound_to 10752
  154.6101  135.5559  153.7525 H   0  0  0  0  0  0  0  0  0  0  0  0  # atno 10765 bound_to 10752
  140.3277  134.7384  157.4111 H   0  0  0  0  0  0  0  0  0  0  0  0  # atno 11005 bound_to 11000
  145.9209  140.9115  143.0405 LP  0  0  0  0  0  0  0  0  0  0  0  0  # atno 17320 bound_to 7965
  144.6726  140.1288  143.7445 LP  0  0  0  0  0  0  0  0  0  0  0  0  # atno 17321 bound_to 7965
  139.6006  144.1304  152.2193 LP  0  0  0  0  0  0  0  0  0  0  0  0  # atno 17342 bound_to 10162
  140.0687  144.5797  150.7208 LP  0  0  0  0  0  0  0  0  0  0  0  0  # atno 17343 bound_to 10162
  156.0040  130.5124  150.7765 LP  0  0  0  0  0  0  0  0  0  0  0  0  # atno 17370 bound_to 10713
  157.5109  131.0925  151.0199 LP  0  0  0  0  0  0  0  0  0  0  0  0  # atno 17371 bound_to 10713
  140.0887  134.5630  155.8466 LP  0  0  0  0  0  0  0  0  0  0  0  0  # atno 17394 bound_to 11000
  141.2071  133.6661  156.6285 LP  0  0  0  0  0  0  0  0  0  0  0  0  # atno 17395 bound_to 11000

$$$$
