AV-unprocessed.smi:49|AV-procd|sdf|477|dock3
  -GOLD-   2262016343D 1   1.00000     0.00000
 Structure written by MMmdl.
 27 28  0  0  0  0  0  0  0  0  1 V2000
  153.5796  142.0847  160.5488 C   0  0  0  0  0  0  0  0  0  0  0  0
  153.2160  143.4248  159.8996 C   0  0  0  0  0  0  0  0  0  0  0  0
  152.1343  143.2841  158.8802 C   0  0  0  0  0  0  0  0  0  0  0  0
  151.6052  142.0741  158.5273 N   0  0  0  0  0  0  0  0  0  0  0  0
  150.7444  142.4567  157.5880 C   0  0  0  0  0  0  0  0  0  0  0  0
  149.8298  141.5535  156.8197 C   0  0  2  0  0  0  0  0  0  0  0  0
  150.5825  140.4828  156.0172 C   0  0  0  0  0  0  0  0  0  0  0  0
  149.6484  140.2270  154.8432 C   0  0  2  0  0  0  0  0  0  0  0  0
  150.3065  139.6697  153.7255 O   0  0  0  0  0  0  0  0  0  0  0  0
  149.1056  141.6244  154.5606 C   0  0  0  0  0  0  0  0  0  0  0  0
  148.9739  142.2685  155.8652 N   0  0  0  0  0  0  0  0  0  0  0  0
  150.7600  143.7773  157.3937 N   0  0  0  0  0  0  0  0  0  0  0  0
  151.6681  144.3415  158.2175 N   0  0  0  0  0  0  0  0  0  0  0  0
  149.1823  141.0439  157.5346 H   0  0  0  0  0  0  0  0  0  0  0  0
  148.8355  139.5676  155.1510 H   0  0  0  0  0  0  0  0  0  0  0  0
  150.2049  144.3087  156.7385 H   0  0  0  0  0  0  0  0  0  0  0  0
  154.3700  142.2135  161.2884 H   0  0  0  0  0  0  0  0  0  0  0  0
  153.9320  141.3698  159.8048 H   0  0  0  0  0  0  0  0  0  0  0  0
  152.7185  141.6463  161.0542 H   0  0  0  0  0  0  0  0  0  0  0  0
  152.8933  144.1308  160.6656 H   0  0  0  0  0  0  0  0  0  0  0  0
  154.0988  143.8609  159.4300 H   0  0  0  0  0  0  0  0  0  0  0  0
  151.5265  140.8865  155.6461 H   0  0  0  0  0  0  0  0  0  0  0  0
  150.8067  139.5892  156.6003 H   0  0  0  0  0  0  0  0  0  0  0  0
  149.7158  139.6885  152.9882 H   0  0  0  0  0  0  0  0  0  0  0  0
  149.8232  142.1818  153.9568 H   0  0  0  0  0  0  0  0  0  0  0  0
  148.1608  141.6058  154.0169 H   0  0  0  0  0  0  0  0  0  0  0  0
  148.0100  142.1830  156.1712 H   0  0  0  0  0  0  0  0  0  0  0  0
  1  2  1  0  0  0  0
  1 17  1  0  0  0  0
  1 18  1  0  0  0  0
  1 19  1  0  0  0  0
  2 20  1  0  0  0  0
  2 21  1  0  0  0  0
  2  3  1  0  0  0  0
  3  4  1  0  0  0  0
  3 13  2  0  0  0  0
  4  5  2  0  0  0  0
  5  6  1  0  0  0  0
  5 12  1  0  0  0  0
  6 14  1  0  0  0  0
  6 11  1  0  0  0  0
  6  7  1  0  0  0  0
  7  8  1  0  0  0  0
  7 22  1  0  0  0  0
  7 23  1  0  0  0  0
  8 15  1  0  0  0  0
  8  9  1  0  0  0  0
  8 10  1  0  0  0  0
  9 24  1  0  0  0  0
 10 11  1  0  0  0  0
 10 25  1  0  0  0  0
 10 26  1  0  0  0  0
 11 27  1  0  0  0  0
 12 13  1  0  0  0  0
 12 16  1  0  0  0  0
M  END
> <s_m_source_file>
AV-unprocessed.smi

> <i_m_source_file_index>
49

> <i_lp_mmshare_version>
43012

> <i_f3d_flags>
0

> <s_epik_input>
W0NIM11bQ0gyXWMxbmMobltuSF0xKVtDQEBIXTJbQ0gyXVtDQEBIXShbT0hdKVtDSDJdW05IXTI=

> <s_epik_cmdline>
J2VwaWtfcHl0aG9uJywgJy1waCcsICc3LjAnLCAnLXRuJywgJzgnLCAnLW1hJywgJzIwMCcsICctbWV0YWxfYmluZGluZycsICctaW1hZScsICc8aW5maWxlLm1hZT4nLCAnLW9tYWUnLCAnPG91dGZpbGUubWFlPic=

> <r_epik_Ionization_Penalty>
1.31544

> <r_epik_Ionization_Penalty_Charging>
0

> <r_epik_Ionization_Penalty_Neutral>
1.31544

> <r_epik_State_Penalty>
2.06074

> <r_epik_Charging_Adjusted_Penalty>
2.06074

> <i_epik_Tot_Q>
0

> <i_epik_Tot_abs_Q>
0

> <r_epik_Metal_State_Penalty>
2.32913

> <b_epik_Metal_Only>
0

> <s_lp_Force_Field>
OPLS_2005

> <r_lp_Energy>
18.1318

> <b_lp_Chiralities_Consistent>
1

> <s_lp_Variant>
AV-unprocessed.smi:49-15

> <Gold.Version>
5.8.1

> <Gold.Id.Protein>
6NUR|6NUR_protein|mol2

> <Gold.PLP.Fitness>
37.2153

> <Gold.PLP.PLP>
-28.3697

> <Gold.PLP.part.hbond>
-3.6959

> <Gold.PLP.part.metal>
0.0000

> <Gold.PLP.part.buried>
-2.8739

> <Gold.PLP.part.nonpolar>
-21.4446

> <Gold.PLP.part.repulsive>
0.1231

> <Gold.PLP.ligand.clash>
0.0000

> <Gold.PLP.ligand.torsion>
0.0086

> <Gold.PLP.Chemscore.Hbond>
2.9520

> <Gold.PLP.Chemscore.CHOScore>
0.0000

> <Gold.PLP.Chemscore.Metal>
0.0000

> <Gold.Chemscore.Hbonds>
donor molecule, donor type, donor heavy atom, donor atom, acceptor molecule, acceptor atom, score
      L1  H     9    24       P1  7957  0.86
      L1  H    12    16       P1  8028  1.00
      P1  H  7989  7998       L1     9  0.93

> <Gold.PLP.Chemscore.Internal.Correction>
0.0068

> <Gold.Rescore>
     Score         DG    S(hbond)    S(metal)    S(lipo)     H(rot)  DE(clash)    DE(int)     intcor
     13.42     -13.49       2.11        0.00      48.73       1.86       0.03       0.04       ----

> <Gold.Chemscore.Fitness>
13.4168

> <Gold.Chemscore.DG>
-13.4886

> <Gold.Chemscore.ZeroCoef>
-5.4800

> <Gold.Chemscore.Hbond>
2.1132

> <Gold.Chemscore.Metal>
0.0000

> <Gold.Chemscore.Lipo>
48.7294

> <Gold.Chemscore.Internal_Hbond>
0.0000

> <Gold.Chemscore.DEClash>
0.0314

> <Gold.Chemscore.DEInternal>
0.0404

> <Gold.Chemscore.Rot>
1.8558

> <Gold.Chemscore.Internal.Correction>
   9.000000E+99

> <Gold.Chemscore.Hbonds>
donor molecule, donor type, donor heavy atom, donor atom, acceptor molecule, acceptor atom, score
      L1  H     9    24       P1  7957  0.85
      L1  H    12    16       P1  8028  0.95
      P1  H  7989  7998       L1     9  0.19

> <Gold.Chemscore.Hbond.Weighted>
-7.0580

> <Gold.Chemscore.Metal.Weighted>
-0.0000

> <Gold.Chemscore.Lipo.Weighted>
-5.7013

> <Gold.Chemscore.Internal_Hbond.Weighted>
0.0000

> <Gold.Chemscore.DEClash.Weighted>
0.0314

> <Gold.Chemscore.DEInternal.Weighted>
0.0404

> <Gold.Chemscore.Rot.Weighted>
4.7507

> <Gold.Chemscore.Internal.Correction.Weighted>
   9.000000E+99

> <Gold.Protein.RotatedTorsions>
[ 6907 6896 6895 6894 ] final  117.50 input  -60.11 | X-H torsion
[ 7974 7965 7964 7962 ] final -145.08 input  175.53 | X-H torsion
[ 8008 7997 7996 7995 ] final  -32.07 input   59.86 | X-H torsion
[ 10167 10162 10161 10158 ] final   13.17 input  -65.29 | X-H torsion
[ 10718 10713 10712 10709 ] final   27.94 input   66.30 | X-H torsion
[ 10763 10752 10751 10750 ] final   11.82 input  -60.55 | X-H torsion
[ 11005 11000 10999 10996 ] final  -29.64 input  -57.11 | X-H torsion

> <Gold.Protein.ActiveResidues>
 VAL166  LYS551  ARG553  GLY616  TRP617  ASP618  TYR619  PRO620  LYS621  CYS622 
 ASP623  PHE694  ASN695  SER759  ASP760  ASP761  ALA762  ILE779  LEU786  VAL792 
 PHE793  MET794  SER795  GLU796  ALA797  LYS798  CYS799  TRP800  GLU811  SER814 

> <Gold.Protein.RotatedAtoms>
  152.4607  133.7817  159.6853 H   0  0  0  0  0  0  0  0  0  0  0  0  # atno 6907 bound_to 6896
  150.8550  133.7719  159.3018 H   0  0  0  0  0  0  0  0  0  0  0  0  # atno 6908 bound_to 6896
  151.5302  135.1071  159.9952 H   0  0  0  0  0  0  0  0  0  0  0  0  # atno 6909 bound_to 6896
  144.8252  140.5629  143.5552 H   0  0  0  0  0  0  0  0  0  0  0  0  # atno 7974 bound_to 7965
  154.4192  140.1747  156.1668 H   0  0  0  0  0  0  0  0  0  0  0  0  # atno 8008 bound_to 7997
  155.9793  140.3379  155.6623 H   0  0  0  0  0  0  0  0  0  0  0  0  # atno 8009 bound_to 7997
  155.6522  140.0691  157.2574 H   0  0  0  0  0  0  0  0  0  0  0  0  # atno 8010 bound_to 7997
  140.6020  143.8584  150.6975 H   0  0  0  0  0  0  0  0  0  0  0  0  # atno 10167 bound_to 10162
  157.2269  130.7005  149.6295 H   0  0  0  0  0  0  0  0  0  0  0  0  # atno 10718 bound_to 10713
  153.1887  135.6839  153.8382 H   0  0  0  0  0  0  0  0  0  0  0  0  # atno 10763 bound_to 10752
  153.7688  135.3199  155.3350 H   0  0  0  0  0  0  0  0  0  0  0  0  # atno 10764 bound_to 10752
  154.8104  135.4721  154.0599 H   0  0  0  0  0  0  0  0  0  0  0  0  # atno 10765 bound_to 10752
  140.9313  133.7336  156.0941 H   0  0  0  0  0  0  0  0  0  0  0  0  # atno 11005 bound_to 11000
  145.5016  139.1483  143.3654 LP  0  0  0  0  0  0  0  0  0  0  0  0  # atno 17320 bound_to 7965
  146.2557  140.5156  142.8874 LP  0  0  0  0  0  0  0  0  0  0  0  0  # atno 17321 bound_to 7965
  140.2133  143.3866  152.1701 LP  0  0  0  0  0  0  0  0  0  0  0  0  # atno 17342 bound_to 10162
  139.5298  144.7146  151.5097 LP  0  0  0  0  0  0  0  0  0  0  0  0  # atno 17343 bound_to 10162
  155.9678  130.4501  150.5686 LP  0  0  0  0  0  0  0  0  0  0  0  0  # atno 17370 bound_to 10713
  157.3518  131.0735  151.1707 LP  0  0  0  0  0  0  0  0  0  0  0  0  # atno 17371 bound_to 10713
  140.7858  134.3674  157.5476 LP  0  0  0  0  0  0  0  0  0  0  0  0  # atno 17394 bound_to 11000
  139.8797  134.9110  156.3026 LP  0  0  0  0  0  0  0  0  0  0  0  0  # atno 17395 bound_to 11000

$$$$
