AV-unprocessed.smi:2559|AV-procd|sdf|10035|dock2
  -GOLD-   2272014 83D 1   1.00000     0.00000
 Structure written by MMmdl.
 44 46  0  0  0  0  0  0  0  0  1 V2000
  153.8461  137.3116  159.2485 C   0  0  0  0  0  0  0  0  0  0  0  0
  152.9975  137.8199  158.1689 N   0  0  0  0  0  0  0  0  0  0  0  0
  152.5084  136.9634  157.2165 C   0  0  0  0  0  0  0  0  0  0  0  0
  152.7604  135.7587  157.2211 O   0  0  0  0  0  0  0  0  0  0  0  0
  151.7094  137.4900  156.2397 N   0  0  0  0  0  0  0  0  0  0  0  0
  151.3269  138.7816  156.0944 C   0  0  0  0  0  0  0  0  0  0  0  0
  150.5854  139.1646  155.1926 O   0  0  0  0  0  0  0  0  0  0  0  0
  151.8765  139.6683  157.1316 C   0  0  0  0  0  0  0  0  0  0  0  0
  152.6692  139.2050  158.1321 C   0  0  0  0  0  0  0  0  0  0  0  0
  153.0177  140.2273  159.0003 N   0  0  0  0  0  0  0  0  0  0  0  0
  152.4265  141.2973  158.4626 C   0  0  0  0  0  0  0  0  0  0  0  0
  152.5086  142.5733  159.0226 N   0  0  0  0  0  0  0  0  0  0  0  0
  152.9421  142.8262  160.3960 C   0  0  0  0  0  0  0  0  0  0  0  0
  151.9686  143.7655  161.1305 C   0  0  0  0  0  0  0  0  0  0  0  0
  151.8189  145.0947  160.3770 C   0  0  0  0  0  0  0  0  0  0  0  0
  151.4718  144.8297  158.9056 C   0  0  0  0  0  0  0  0  0  0  0  0
  152.4741  143.8387  158.2878 C   0  0  0  0  0  0  0  0  0  0  0  0
  151.6974  141.0393  157.3417 N   0  0  0  0  0  0  0  0  0  0  0  0
  150.8734  141.9660  156.5652 C   0  0  0  0  0  0  0  0  0  0  0  0
  149.3824  141.5706  156.5505 C   0  0  1  0  0  0  0  0  0  0  0  0
  148.6624  142.6229  157.1608 O   0  0  0  0  0  0  0  0  0  0  0  0
  148.8152  141.3310  155.1376 C   0  0  0  0  0  0  0  0  0  0  0  0
  148.9840  142.4836  154.3398 O   0  0  0  0  0  0  0  0  0  0  0  0
  151.3585  136.8396  155.5520 H   0  0  0  0  0  0  0  0  0  0  0  0
  154.6424  136.6764  158.8575 H   0  0  0  0  0  0  0  0  0  0  0  0
  153.2523  136.7227  159.9489 H   0  0  0  0  0  0  0  0  0  0  0  0
  154.3263  138.1119  159.8116 H   0  0  0  0  0  0  0  0  0  0  0  0
  153.0115  141.8815  160.9367 H   0  0  0  0  0  0  0  0  0  0  0  0
  153.9462  143.2522  160.3852 H   0  0  0  0  0  0  0  0  0  0  0  0
  150.9947  143.2833  161.2228 H   0  0  0  0  0  0  0  0  0  0  0  0
  152.3206  143.9498  162.1456 H   0  0  0  0  0  0  0  0  0  0  0  0
  151.0527  145.7141  160.8437 H   0  0  0  0  0  0  0  0  0  0  0  0
  152.7537  145.6536  160.4356 H   0  0  0  0  0  0  0  0  0  0  0  0
  150.4594  144.4321  158.8311 H   0  0  0  0  0  0  0  0  0  0  0  0
  151.4784  145.7657  158.3469 H   0  0  0  0  0  0  0  0  0  0  0  0
  153.4738  144.2748  158.3008 H   0  0  0  0  0  0  0  0  0  0  0  0
  152.2480  143.6643  157.2367 H   0  0  0  0  0  0  0  0  0  0  0  0
  150.9885  142.9694  156.9661 H   0  0  0  0  0  0  0  0  0  0  0  0
  151.2554  142.0384  155.5496 H   0  0  0  0  0  0  0  0  0  0  0  0
  149.2489  140.6714  157.1523 H   0  0  0  0  0  0  0  0  0  0  0  0
  148.6051  143.3418  156.5503 H   0  0  0  0  0  0  0  0  0  0  0  0
  149.2857  140.4708  154.6600 H   0  0  0  0  0  0  0  0  0  0  0  0
  147.7452  141.1300  155.1771 H   0  0  0  0  0  0  0  0  0  0  0  0
  149.0658  143.2341  154.9083 H   0  0  0  0  0  0  0  0  0  0  0  0
  1  2  1  0  0  0  0
  1 25  1  0  0  0  0
  1 26  1  0  0  0  0
  1 27  1  0  0  0  0
  2  9  1  0  0  0  0
  2  3  1  0  0  0  0
  3  4  2  0  0  0  0
  3  5  1  0  0  0  0
  5 24  1  0  0  0  0
  5  6  1  0  0  0  0
  6  7  2  0  0  0  0
  6  8  1  0  0  0  0
  8 18  1  0  0  0  0
  8  9  2  0  0  0  0
  9 10  1  0  0  0  0
 10 11  2  0  0  0  0
 11 12  1  0  0  0  0
 11 18  1  0  0  0  0
 12 17  1  0  0  0  0
 12 13  1  0  0  0  0
 13 14  1  0  0  0  0
 13 28  1  0  0  0  0
 13 29  1  0  0  0  0
 14 15  1  0  0  0  0
 14 30  1  0  0  0  0
 14 31  1  0  0  0  0
 15 16  1  0  0  0  0
 15 32  1  0  0  0  0
 15 33  1  0  0  0  0
 16 17  1  0  0  0  0
 16 34  1  0  0  0  0
 16 35  1  0  0  0  0
 17 36  1  0  0  0  0
 17 37  1  0  0  0  0
 18 19  1  0  0  0  0
 19 20  1  0  0  0  0
 19 38  1  0  0  0  0
 19 39  1  0  0  0  0
 20 21  1  0  0  0  0
 20 22  1  0  0  0  0
 20 40  1  0  0  0  0
 21 41  1  0  0  0  0
 22 23  1  0  0  0  0
 22 42  1  0  0  0  0
 22 43  1  0  0  0  0
 23 44  1  0  0  0  0
M  END
> <s_m_source_file>
AV-unprocessed.smi

> <i_m_source_file_index>
2559

> <i_lp_mmshare_version>
43012

> <i_f3d_flags>
0

> <s_epik_input>
Tz1jMVtuSF1jKD1PKW4oW0NIM10pYyhjMTIpbmMobjJbQ0gyXVtDQEhdKFtPSF0pW0NIMl1bT0hdKU4zW0NIMl1bQ0gyXVtDSDJdW0NIMl1bQ0gyXTM=

> <s_epik_cmdline>
J2VwaWtfcHl0aG9uJywgJy1waCcsICc3LjAnLCAnLXRuJywgJzgnLCAnLW1hJywgJzIwMCcsICctbWV0YWxfYmluZGluZycsICctaW1hZScsICc8aW5maWxlLm1hZT4nLCAnLW9tYWUnLCAnPG91dGZpbGUubWFlPic=

> <r_lp_tautomer_probability>
1

> <r_epik_Ionization_Penalty>
0.0023969

> <r_epik_Ionization_Penalty_Charging>
9.35512e-05

> <r_epik_Ionization_Penalty_Neutral>
0.00230335

> <r_epik_State_Penalty>
-0

> <r_epik_Charging_Adjusted_Penalty>
9.35512e-05

> <i_epik_Tot_Q>
0

> <i_epik_Tot_abs_Q>
0

> <r_epik_Metal_State_Penalty>
0.0757518

> <b_epik_Metal_Only>
0

> <s_lp_Force_Field>
OPLS_2005

> <r_lp_Energy>
42.4748

> <b_lp_Chiralities_Consistent>
1

> <s_lp_Variant>
AV-unprocessed.smi:2559-2

> <Gold.Version>
5.8.1

> <Gold.Id.Protein>
6NUR|6NUR_protein|mol2

> <Gold.PLP.Fitness>
52.9838

> <Gold.PLP.PLP>
-45.2216

> <Gold.PLP.part.hbond>
-3.9707

> <Gold.PLP.part.metal>
0.0000

> <Gold.PLP.part.buried>
-6.5692

> <Gold.PLP.part.nonpolar>
-34.5662

> <Gold.PLP.part.repulsive>
0.1388

> <Gold.PLP.ligand.clash>
0.0000

> <Gold.PLP.ligand.torsion>
1.0248

> <Gold.PLP.Chemscore.Hbond>
3.0749

> <Gold.PLP.Chemscore.CHOScore>
0.0000

> <Gold.PLP.Chemscore.Metal>
0.0000

> <Gold.Chemscore.Hbonds>
donor molecule, donor type, donor heavy atom, donor atom, acceptor molecule, acceptor atom, score
      L1  H    21    41       P1  8028  1.00
      L1  H    23    44       P1  8028  1.00
      P1  H  8011  8017       L1    23  0.09
      P1  H 10752 10764       L1     4  0.91

> <Gold.PLP.Chemscore.Internal.Correction>
0.5871

> <Gold.Rescore>
     Score         DG    S(hbond)    S(metal)    S(lipo)     H(rot)  DE(clash)    DE(int)     intcor
     16.47     -20.57       3.77        0.00      86.32       2.97       0.62       3.47       ----

> <Gold.Chemscore.Fitness>
16.4707

> <Gold.Chemscore.DG>
-20.5689

> <Gold.Chemscore.ZeroCoef>
-5.4800

> <Gold.Chemscore.Hbond>
3.7692

> <Gold.Chemscore.Metal>
0.0000

> <Gold.Chemscore.Lipo>
86.3162

> <Gold.Chemscore.Internal_Hbond>
0.0000

> <Gold.Chemscore.DEClash>
0.6235

> <Gold.Chemscore.DEInternal>
3.4747

> <Gold.Chemscore.Rot>
2.9685

> <Gold.Chemscore.Internal.Correction>
   9.000000E+99

> <Gold.Chemscore.Hbonds>
donor molecule, donor type, donor heavy atom, donor atom, acceptor molecule, acceptor atom, score
      L1  H    21    41       P1  8028  0.70
      L1  H    23    44       P1  8028  1.00
      P1  H  8011  8017       L1    23  0.11
      P1  H 10752 10764       L1     4  0.44

> <Gold.Chemscore.Hbond.Weighted>
-12.5893

> <Gold.Chemscore.Metal.Weighted>
-0.0000

> <Gold.Chemscore.Lipo.Weighted>
-10.0990

> <Gold.Chemscore.Internal_Hbond.Weighted>
0.0000

> <Gold.Chemscore.DEClash.Weighted>
0.6235

> <Gold.Chemscore.DEInternal.Weighted>
3.4747

> <Gold.Chemscore.Rot.Weighted>
7.5994

> <Gold.Chemscore.Internal.Correction.Weighted>
   9.000000E+99

> <Gold.Protein.RotatedTorsions>
[ 6907 6896 6895 6894 ] final  -89.74 input  -60.11 | X-H torsion
[ 7974 7965 7964 7962 ] final  106.88 input  175.53 | X-H torsion
[ 8008 7997 7996 7995 ] final  -60.72 input   59.86 | X-H torsion
[ 10167 10162 10161 10158 ] final  109.41 input  -65.29 | X-H torsion
[ 10718 10713 10712 10709 ] final   43.97 input   66.30 | X-H torsion
[ 10763 10752 10751 10750 ] final   -2.27 input  -60.55 | X-H torsion
[ 11005 11000 10999 10996 ] final  111.43 input  -57.11 | X-H torsion

> <Gold.Protein.ActiveResidues>
 VAL166  LYS551  ARG553  GLY616  TRP617  ASP618  TYR619  PRO620  LYS621  CYS622 
 ASP623  PHE694  ASN695  SER759  ASP760  ASP761  ALA762  ILE779  LEU786  VAL792 
 PHE793  MET794  SER795  GLU796  ALA797  LYS798  CYS799  TRP800  GLU811  SER814 

> <Gold.Protein.RotatedAtoms>
  150.6876  134.2540  159.4521 H   0  0  0  0  0  0  0  0  0  0  0  0  # atno 6907 bound_to 6896
  152.0475  134.9671  160.0583 H   0  0  0  0  0  0  0  0  0  0  0  0  # atno 6908 bound_to 6896
  152.1149  133.4286  159.4685 H   0  0  0  0  0  0  0  0  0  0  0  0  # atno 6909 bound_to 6896
  145.3009  139.2570  143.3814 H   0  0  0  0  0  0  0  0  0  0  0  0  # atno 7974 bound_to 7965
  154.4412  140.1033  156.6318 H   0  0  0  0  0  0  0  0  0  0  0  0  # atno 8008 bound_to 7997
  155.5596  140.3487  155.4469 H   0  0  0  0  0  0  0  0  0  0  0  0  # atno 8009 bound_to 7997
  156.0469  140.1295  157.0083 H   0  0  0  0  0  0  0  0  0  0  0  0  # atno 8010 bound_to 7997
  139.6768  144.7121  151.1587 H   0  0  0  0  0  0  0  0  0  0  0  0  # atno 10167 bound_to 10162
  157.4217  130.7973  149.7521 H   0  0  0  0  0  0  0  0  0  0  0  0  # atno 10718 bound_to 10713
  153.3558  135.6988  153.6752 H   0  0  0  0  0  0  0  0  0  0  0  0  # atno 10763 bound_to 10752
  153.5460  135.3563  155.2739 H   0  0  0  0  0  0  0  0  0  0  0  0  # atno 10764 bound_to 10752
  154.8660  135.4215  154.2804 H   0  0  0  0  0  0  0  0  0  0  0  0  # atno 10765 bound_to 10752
  139.8903  134.9507  156.6430 H   0  0  0  0  0  0  0  0  0  0  0  0  # atno 11005 bound_to 11000
  146.3152  140.3523  142.8657 LP  0  0  0  0  0  0  0  0  0  0  0  0  # atno 17320 bound_to 7965
  144.9094  140.7739  143.5817 LP  0  0  0  0  0  0  0  0  0  0  0  0  # atno 17321 bound_to 7965
  140.7638  143.5759  150.8946 LP  0  0  0  0  0  0  0  0  0  0  0  0  # atno 17342 bound_to 10162
  139.9428  143.6362  152.3049 LP  0  0  0  0  0  0  0  0  0  0  0  0  # atno 17343 bound_to 10162
  155.9883  130.3960  150.3125 LP  0  0  0  0  0  0  0  0  0  0  0  0  # atno 17370 bound_to 10713
  157.1274  131.0263  151.2984 LP  0  0  0  0  0  0  0  0  0  0  0  0  # atno 17371 bound_to 10713
  140.7579  133.8842  155.8396 LP  0  0  0  0  0  0  0  0  0  0  0  0  # atno 17394 bound_to 11000
  140.9947  134.1232  157.4375 LP  0  0  0  0  0  0  0  0  0  0  0  0  # atno 17395 bound_to 11000

$$$$
