AV-unprocessed.smi:2911|AV-procd|sdf|11178|dock8
  -GOLD-   2272016 73D 1   1.00000     0.00000
 Structure written by MMmdl.
 41 42  0  0  0  0  0  0  0  0  1 V2000
  153.6498  136.0078  163.9865 C   0  0  0  0  0  0  0  0  0  0  0  0
  154.4952  136.9565  163.2076 C   0  0  0  0  0  0  0  0  0  0  0  0
  154.9096  138.1027  163.7338 N   0  0  0  0  0  0  0  0  0  0  0  0
  155.6489  138.6864  162.6949 O   0  0  0  0  0  0  0  0  0  0  0  0
  155.6014  137.8052  161.6672 C   0  0  0  0  0  0  0  0  0  0  0  0
  156.2646  138.1638  160.3796 C   0  0  0  0  0  0  0  0  0  0  0  0
  156.5888  139.6632  160.2851 C   0  0  0  0  0  0  0  0  0  0  0  0
  155.3820  140.4796  160.3517 N   0  0  0  0  0  0  0  0  0  0  0  0
  154.3436  140.4053  159.5014 C   0  0  0  0  0  0  0  0  0  0  0  0
  154.3225  139.5929  158.5752 O   0  0  0  0  0  0  0  0  0  0  0  0
  153.3110  141.2443  159.7830 N   0  0  0  0  0  0  0  0  0  0  0  0
  151.9043  141.0207  159.3825 C   0  0  0  0  0  0  0  0  0  0  0  0
  151.3424  142.2487  158.6524 C   0  0  0  0  0  0  0  0  0  0  0  0
  151.4459  143.5030  159.5330 C   0  0  2  0  0  0  0  0  0  0  0  0
  150.9138  144.7479  158.8098 C   0  0  0  0  0  0  0  0  0  0  0  0
  152.8996  143.6945  159.9976 C   0  0  0  0  0  0  0  0  0  0  0  0
  153.5061  142.4301  160.6458 C   0  0  1  0  0  0  0  0  0  0  0  0
  153.0298  142.1717  162.0868 C   0  0  0  0  0  0  0  0  0  0  0  0
  154.8795  136.7172  161.9238 N   0  0  0  0  0  0  0  0  0  0  0  0
  153.8131  136.1337  165.0574 H   0  0  0  0  0  0  0  0  0  0  0  0
  153.8909  134.9779  163.7222 H   0  0  0  0  0  0  0  0  0  0  0  0
  152.5953  136.1830  163.7730 H   0  0  0  0  0  0  0  0  0  0  0  0
  157.1773  137.5746  160.2841 H   0  0  0  0  0  0  0  0  0  0  0  0
  155.6109  137.8634  159.5597 H   0  0  0  0  0  0  0  0  0  0  0  0
  157.2847  139.9554  161.0735 H   0  0  0  0  0  0  0  0  0  0  0  0
  157.0861  139.8756  159.3382 H   0  0  0  0  0  0  0  0  0  0  0  0
  155.3262  141.1495  161.1050 H   0  0  0  0  0  0  0  0  0  0  0  0
  151.7540  140.1467  158.7496 H   0  0  0  0  0  0  0  0  0  0  0  0
  151.3118  140.8205  160.2752 H   0  0  0  0  0  0  0  0  0  0  0  0
  151.8861  142.3992  157.7185 H   0  0  0  0  0  0  0  0  0  0  0  0
  150.3016  142.0700  158.3806 H   0  0  0  0  0  0  0  0  0  0  0  0
  150.8250  143.3474  160.4161 H   0  0  0  0  0  0  0  0  0  0  0  0
  151.4919  144.9618  157.9104 H   0  0  0  0  0  0  0  0  0  0  0  0
  150.9621  145.6264  159.4538 H   0  0  0  0  0  0  0  0  0  0  0  0
  149.8734  144.6138  158.5127 H   0  0  0  0  0  0  0  0  0  0  0  0
  153.5098  143.9665  159.1348 H   0  0  0  0  0  0  0  0  0  0  0  0
  152.9664  144.5357  160.6888 H   0  0  0  0  0  0  0  0  0  0  0  0
  154.5710  142.6531  160.7283 H   0  0  0  0  0  0  0  0  0  0  0  0
  153.2676  143.0185  162.7310 H   0  0  0  0  0  0  0  0  0  0  0  0
  153.5186  141.2931  162.5090 H   0  0  0  0  0  0  0  0  0  0  0  0
  151.9534  142.0132  162.1430 H   0  0  0  0  0  0  0  0  0  0  0  0
  1  2  1  0  0  0  0
  1 20  1  0  0  0  0
  1 21  1  0  0  0  0
  1 22  1  0  0  0  0
  2 19  1  0  0  0  0
  2  3  2  0  0  0  0
  3  4  1  0  0  0  0
  4  5  1  0  0  0  0
  5  6  1  0  0  0  0
  5 19  2  0  0  0  0
  6  7  1  0  0  0  0
  6 23  1  0  0  0  0
  6 24  1  0  0  0  0
  7  8  1  0  0  0  0
  7 25  1  0  0  0  0
  7 26  1  0  0  0  0
  8  9  1  0  0  0  0
  8 27  1  0  0  0  0
  9 10  2  0  0  0  0
  9 11  1  0  0  0  0
 11 17  1  0  0  0  0
 11 12  1  0  0  0  0
 12 13  1  0  0  0  0
 12 28  1  0  0  0  0
 12 29  1  0  0  0  0
 13 14  1  0  0  0  0
 13 30  1  0  0  0  0
 13 31  1  0  0  0  0
 14 15  1  0  0  0  0
 14 16  1  0  0  0  0
 14 32  1  0  0  0  0
 15 33  1  0  0  0  0
 15 34  1  0  0  0  0
 15 35  1  0  0  0  0
 16 17  1  0  0  0  0
 16 36  1  0  0  0  0
 16 37  1  0  0  0  0
 17 18  1  0  0  0  0
 17 38  1  0  0  0  0
 18 39  1  0  0  0  0
 18 40  1  0  0  0  0
 18 41  1  0  0  0  0
M  END
> <s_m_source_file>
AV-unprocessed.smi

> <i_m_source_file_index>
2911

> <i_lp_mmshare_version>
43012

> <i_f3d_flags>
0

> <s_epik_input>
W0NIM11jMW5vYyhuMSlbQ0gyXVtDSDJdW05IXUMoPU8pTjJbQ0gyXVtDSDJdW0NAQEhdKFtDSDNdKVtDSDJdW0NASF0yW0NIM10=

> <s_epik_cmdline>
J2VwaWtfcHl0aG9uJywgJy1waCcsICc3LjAnLCAnLXRuJywgJzgnLCAnLW1hJywgJzIwMCcsICctbWV0YWxfYmluZGluZycsICctaW1hZScsICc8aW5maWxlLm1hZT4nLCAnLW9tYWUnLCAnPG91dGZpbGUubWFlPic=

> <r_lp_tautomer_probability>
1

> <r_epik_Ionization_Penalty>
6.61671e-05

> <r_epik_Ionization_Penalty_Charging>
0

> <r_epik_Ionization_Penalty_Neutral>
6.61671e-05

> <r_epik_State_Penalty>
-0

> <r_epik_Charging_Adjusted_Penalty>
0

> <i_epik_Tot_Q>
0

> <i_epik_Tot_abs_Q>
0

> <r_epik_Metal_State_Penalty>
-0

> <b_epik_Metal_Only>
0

> <s_lp_Force_Field>
OPLS_2005

> <r_lp_Energy>
30.9139

> <b_lp_Chiralities_Consistent>
1

> <s_lp_Variant>
AV-unprocessed.smi:2911-2

> <Gold.Version>
5.8.1

> <Gold.Id.Protein>
6NUR|6NUR_protein|mol2

> <Gold.PLP.Fitness>
38.1391

> <Gold.PLP.PLP>
-36.9916

> <Gold.PLP.part.hbond>
-1.0000

> <Gold.PLP.part.metal>
0.0000

> <Gold.PLP.part.buried>
-4.0536

> <Gold.PLP.part.nonpolar>
-30.7905

> <Gold.PLP.part.repulsive>
0.0727

> <Gold.PLP.ligand.clash>
1.0097

> <Gold.PLP.ligand.torsion>
0.4322

> <Gold.PLP.Chemscore.Hbond>
1.0000

> <Gold.PLP.Chemscore.CHOScore>
0.0000

> <Gold.PLP.Chemscore.Metal>
0.0000

> <Gold.Chemscore.Hbonds>
donor molecule, donor type, donor heavy atom, donor atom, acceptor molecule, acceptor atom, score
      P1  H  7997  8010       L1    10  0.96

> <Gold.PLP.Chemscore.Internal.Correction>
0.0217

> <Gold.Rescore>
     Score         DG    S(hbond)    S(metal)    S(lipo)     H(rot)  DE(clash)    DE(int)     intcor
     14.84     -15.11       0.95        0.00      90.43       1.61       0.01       0.27       ----

> <Gold.Chemscore.Fitness>
14.8402

> <Gold.Chemscore.DG>
-15.1139

> <Gold.Chemscore.ZeroCoef>
-5.4800

> <Gold.Chemscore.Hbond>
0.9497

> <Gold.Chemscore.Metal>
0.0000

> <Gold.Chemscore.Lipo>
90.4331

> <Gold.Chemscore.Internal_Hbond>
0.0000

> <Gold.Chemscore.DEClash>
0.0073

> <Gold.Chemscore.DEInternal>
0.2663

> <Gold.Chemscore.Rot>
1.6088

> <Gold.Chemscore.Internal.Correction>
   9.000000E+99

> <Gold.Chemscore.Hbonds>
donor molecule, donor type, donor heavy atom, donor atom, acceptor molecule, acceptor atom, score
      P1  H  7997  8010       L1    10  0.88

> <Gold.Chemscore.Hbond.Weighted>
-3.1719

> <Gold.Chemscore.Metal.Weighted>
-0.0000

> <Gold.Chemscore.Lipo.Weighted>
-10.5807

> <Gold.Chemscore.Internal_Hbond.Weighted>
0.0000

> <Gold.Chemscore.DEClash.Weighted>
0.0073

> <Gold.Chemscore.DEInternal.Weighted>
0.2663

> <Gold.Chemscore.Rot.Weighted>
4.1186

> <Gold.Chemscore.Internal.Correction.Weighted>
   9.000000E+99

> <Gold.Protein.RotatedTorsions>
[ 6907 6896 6895 6894 ] final -172.85 input  -60.11 | X-H torsion
[ 7974 7965 7964 7962 ] final   -5.48 input  175.53 | X-H torsion
[ 8008 7997 7996 7995 ] final   20.30 input   59.86 | X-H torsion
[ 10167 10162 10161 10158 ] final  151.09 input  -65.29 | X-H torsion
[ 10718 10713 10712 10709 ] final -111.60 input   66.30 | X-H torsion
[ 10763 10752 10751 10750 ] final  159.24 input  -60.55 | X-H torsion
[ 11005 11000 10999 10996 ] final  116.26 input  -57.11 | X-H torsion

> <Gold.Protein.ActiveResidues>
 VAL166  LYS551  ARG553  GLY616  TRP617  ASP618  TYR619  PRO620  LYS621  CYS622 
 ASP623  PHE694  ASN695  SER759  ASP760  ASP761  ALA762  ILE779  LEU786  VAL792 
 PHE793  MET794  SER795  GLU796  ALA797  LYS798  CYS799  TRP800  GLU811  SER814 

> <Gold.Protein.RotatedAtoms>
  151.5467  133.3424  159.2945 H   0  0  0  0  0  0  0  0  0  0  0  0  # atno 6907 bound_to 6896
  150.8503  134.7828  159.7014 H   0  0  0  0  0  0  0  0  0  0  0  0  # atno 6908 bound_to 6896
  152.4551  134.5318  159.9865 H   0  0  0  0  0  0  0  0  0  0  0  0  # atno 6909 bound_to 6896
  146.2352  140.2027  142.8334 H   0  0  0  0  0  0  0  0  0  0  0  0  # atno 7974 bound_to 7965
  154.9335  140.3043  155.5156 H   0  0  0  0  0  0  0  0  0  0  0  0  # atno 8008 bound_to 7997
  156.3001  140.2349  156.4335 H   0  0  0  0  0  0  0  0  0  0  0  0  # atno 8009 bound_to 7997
  154.8214  140.0423  157.1402 H   0  0  0  0  0  0  0  0  0  0  0  0  # atno 8010 bound_to 7997
  139.4844  144.5469  151.7469 H   0  0  0  0  0  0  0  0  0  0  0  0  # atno 10167 bound_to 10162
  156.0656  130.5876  150.8395 H   0  0  0  0  0  0  0  0  0  0  0  0  # atno 10718 bound_to 10713
  154.2286  135.2779  155.2898 H   0  0  0  0  0  0  0  0  0  0  0  0  # atno 10763 bound_to 10752
  154.5643  135.5638  153.7039 H   0  0  0  0  0  0  0  0  0  0  0  0  # atno 10764 bound_to 10752
  153.0025  135.6305  154.2427 H   0  0  0  0  0  0  0  0  0  0  0  0  # atno 10765 bound_to 10752
  139.9036  134.9595  156.7171 H   0  0  0  0  0  0  0  0  0  0  0  0  # atno 11005 bound_to 11000
  144.9769  140.8423  143.5421 LP  0  0  0  0  0  0  0  0  0  0  0  0  # atno 17320 bound_to 7965
  145.2015  139.2250  143.5190 LP  0  0  0  0  0  0  0  0  0  0  0  0  # atno 17321 bound_to 7965
  140.5017  144.1159  150.5972 LP  0  0  0  0  0  0  0  0  0  0  0  0  # atno 17342 bound_to 10162
  140.4055  143.2683  151.9897 LP  0  0  0  0  0  0  0  0  0  0  0  0  # atno 17343 bound_to 10162
  157.5696  131.0946  150.9438 LP  0  0  0  0  0  0  0  0  0  0  0  0  # atno 17370 bound_to 10713
  156.9657  130.5472  149.5288 LP  0  0  0  0  0  0  0  0  0  0  0  0  # atno 17371 bound_to 10713
  140.7030  133.9290  155.8036 LP  0  0  0  0  0  0  0  0  0  0  0  0  # atno 17394 bound_to 11000
  141.0358  134.0692  157.3961 LP  0  0  0  0  0  0  0  0  0  0  0  0  # atno 17395 bound_to 11000

$$$$
