AV-unprocessed.smi:2501|AV-procd|sdf|9844|dock1
  -GOLD-   2272013473D 1   1.00000     0.00000
 Structure written by MMmdl.
 44 45  0  0  0  0  0  0  0  0  2 V2000
  152.2685  145.6230  159.8742 C   0  0  0  0  0  0  0  0  0  0  0  0
  151.8599  144.3520  159.1506 C   0  0  0  0  0  0  0  0  0  0  0  0
  151.0593  144.4444  157.9908 C   0  0  0  0  0  0  0  0  0  0  0  0
  150.6852  143.3269  157.3317 N   0  3  0  0  0  0  0  0  0  0  0  0
  151.0432  142.0886  157.7317 C   0  0  0  0  0  0  0  0  0  0  0  0
  151.8413  141.9278  158.8815 C   0  0  0  0  0  0  0  0  0  0  0  0
  152.2604  143.0675  159.6045 C   0  0  0  0  0  0  0  0  0  0  0  0
  153.1192  142.8810  160.8463 C   0  0  0  0  0  0  0  0  0  0  0  0
  153.0854  141.4368  161.3654 C   0  0  0  0  0  0  0  0  0  0  0  0
  154.2615  140.7041  160.9160 N   0  0  0  0  0  0  0  0  0  0  0  0
  155.2600  140.2907  161.7138 C   0  0  0  0  0  0  0  0  0  0  0  0
  155.2504  140.4946  162.9286 O   0  0  0  0  0  0  0  0  0  0  0  0
  156.2654  139.6389  161.0760 N   0  0  0  0  0  0  0  0  0  0  0  0
  156.5171  139.6221  159.6259 C   0  0  0  0  0  0  0  0  0  0  0  0
  157.7392  140.5105  159.3246 C   0  0  0  0  0  0  0  0  0  0  0  0
  158.9924  140.0838  160.1334 C   0  0  0  0  0  0  0  0  0  0  0  0
  159.4435  138.8478  159.6075 O   0  0  0  0  0  0  0  0  0  0  0  0
  160.1496  141.0981  159.9683 C   0  0  0  0  0  0  0  0  0  0  0  0
  160.3270  141.3867  158.6785 F   0  0  0  0  0  0  0  0  0  0  0  0
  159.8786  142.2329  160.6144 F   0  0  0  0  0  0  0  0  0  0  0  0
  161.2889  140.5892  160.4400 F   0  0  0  0  0  0  0  0  0  0  0  0
  158.6385  139.8580  161.6265 C   0  0  0  0  0  0  0  0  0  0  0  0
  157.3679  139.0042  161.8063 C   0  0  0  0  0  0  0  0  0  0  0  0
  151.7851  146.4978  159.4381 H   0  0  0  0  0  0  0  0  0  0  0  0
  153.3468  145.7692  159.8088 H   0  0  0  0  0  0  0  0  0  0  0  0
  151.9871  145.5797  160.9261 H   0  0  0  0  0  0  0  0  0  0  0  0
  150.7069  145.3753  157.5705 H   0  0  0  0  0  0  0  0  0  0  0  0
  150.6830  141.2705  157.1250 H   0  0  0  0  0  0  0  0  0  0  0  0
  152.1270  140.9372  159.2048 H   0  0  0  0  0  0  0  0  0  0  0  0
  154.1465  143.1602  160.6075 H   0  0  0  0  0  0  0  0  0  0  0  0
  152.8010  143.5720  161.6272 H   0  0  0  0  0  0  0  0  0  0  0  0
  153.0392  141.4345  162.4553 H   0  0  0  0  0  0  0  0  0  0  0  0
  152.1915  140.9253  161.0061 H   0  0  0  0  0  0  0  0  0  0  0  0
  154.3291  140.5002  159.9294 H   0  0  0  0  0  0  0  0  0  0  0  0
  156.7117  138.5966  159.3085 H   0  0  0  0  0  0  0  0  0  0  0  0
  155.6672  139.9463  159.0256 H   0  0  0  0  0  0  0  0  0  0  0  0
  157.9530  140.4964  158.2551 H   0  0  0  0  0  0  0  0  0  0  0  0
  157.4831  141.5427  159.5671 H   0  0  0  0  0  0  0  0  0  0  0  0
  160.0952  139.0243  158.9460 H   0  0  0  0  0  0  0  0  0  0  0  0
  159.4745  139.3924  162.1495 H   0  0  0  0  0  0  0  0  0  0  0  0
  158.4787  140.8216  162.1119 H   0  0  0  0  0  0  0  0  0  0  0  0
  157.1537  138.8787  162.8686 H   0  0  0  0  0  0  0  0  0  0  0  0
  157.5290  137.9966  161.4205 H   0  0  0  0  0  0  0  0  0  0  0  0
  150.1069  143.4229  156.4966 H   0  0  0  0  0  0  0  0  0  0  0  0
  1  2  1  0  0  0  0
  1 24  1  0  0  0  0
  1 25  1  0  0  0  0
  1 26  1  0  0  0  0
  2  7  1  0  0  0  0
  2  3  2  0  0  0  0
  3  4  1  0  0  0  0
  3 27  1  0  0  0  0
  4  5  2  0  0  0  0
  4 44  1  0  0  0  0
  5  6  1  0  0  0  0
  5 28  1  0  0  0  0
  6  7  2  0  0  0  0
  6 29  1  0  0  0  0
  7  8  1  0  0  0  0
  8  9  1  0  0  0  0
  8 30  1  0  0  0  0
  8 31  1  0  0  0  0
  9 10  1  0  0  0  0
  9 32  1  0  0  0  0
  9 33  1  0  0  0  0
 10 11  1  0  0  0  0
 10 34  1  0  0  0  0
 11 12  2  0  0  0  0
 11 13  1  0  0  0  0
 13 23  1  0  0  0  0
 13 14  1  0  0  0  0
 14 15  1  0  0  0  0
 14 35  1  0  0  0  0
 14 36  1  0  0  0  0
 15 16  1  0  0  0  0
 15 37  1  0  0  0  0
 15 38  1  0  0  0  0
 16 17  1  0  0  0  0
 16 18  1  0  0  0  0
 16 22  1  0  0  0  0
 17 39  1  0  0  0  0
 18 19  1  0  0  0  0
 18 20  1  0  0  0  0
 18 21  1  0  0  0  0
 22 23  1  0  0  0  0
 22 40  1  0  0  0  0
 22 41  1  0  0  0  0
 23 42  1  0  0  0  0
 23 43  1  0  0  0  0
M  CHG  1   4   1
M  END
> <s_m_source_file>
AV-unprocessed.smi

> <i_m_source_file_index>
2501

> <i_lp_mmshare_version>
43012

> <i_f3d_flags>
0

> <s_epik_input>
W0NIM11jMVtjSF1uW2NIXVtjSF1jMVtDSDJdW0NIMl1bTkhdQyg9TylOKFtDSDJdW0NIMl0yKVtDSDJdW0NIMl1DMihbT0hdKUMoRikoRilG

> <s_epik_cmdline>
J2VwaWtfcHl0aG9uJywgJy1waCcsICc3LjAnLCAnLXRuJywgJzgnLCAnLW1hJywgJzIwMCcsICctbWV0YWxfYmluZGluZycsICctaW1hZScsICc8aW5maWxlLm1hZT4nLCAnLW9tYWUnLCAnPG91dGZpbGUubWFlPic=

> <r_epik_Ionization_Penalty>
1.07295

> <r_epik_Ionization_Penalty_Charging>
1.07289

> <r_epik_Ionization_Penalty_Neutral>
5.75735e-05

> <r_epik_State_Penalty>
1.12763

> <r_epik_Charging_Adjusted_Penalty>
2.20053

> <i_epik_Tot_Q>
1

> <i_epik_Tot_abs_Q>
1

> <r_epik_Metal_State_Penalty>
1.21871

> <b_epik_Metal_Only>
0

> <s_lp_Force_Field>
OPLS_2005

> <r_lp_Energy>
44.1439

> <b_lp_Chiralities_Consistent>
1

> <s_lp_Variant>
AV-unprocessed.smi:2501-2

> <Gold.Version>
5.8.1

> <Gold.Id.Protein>
6NUR|6NUR_protein|mol2

> <Gold.PLP.Fitness>
45.6688

> <Gold.PLP.PLP>
-41.2098

> <Gold.PLP.part.hbond>
-2.4116

> <Gold.PLP.part.metal>
0.0000

> <Gold.PLP.part.buried>
-3.5596

> <Gold.PLP.part.nonpolar>
-35.5370

> <Gold.PLP.part.repulsive>
0.0306

> <Gold.PLP.ligand.clash>
0.0000

> <Gold.PLP.ligand.torsion>
0.7998

> <Gold.PLP.Chemscore.Hbond>
1.9840

> <Gold.PLP.Chemscore.CHOScore>
0.0000

> <Gold.PLP.Chemscore.Metal>
0.0000

> <Gold.Chemscore.Hbonds>
donor molecule, donor type, donor heavy atom, donor atom, acceptor molecule, acceptor atom, score
      L1  H     4    44       P1  8028  1.57

> <Gold.PLP.Chemscore.Internal.Correction>
0.1067

> <Gold.Rescore>
     Score         DG    S(hbond)    S(metal)    S(lipo)     H(rot)  DE(clash)    DE(int)     intcor
     14.41     -17.95       0.97        0.00     123.02       2.02       2.92       0.62       ----

> <Gold.Chemscore.Fitness>
14.4078

> <Gold.Chemscore.DG>
-17.9466

> <Gold.Chemscore.ZeroCoef>
-5.4800

> <Gold.Chemscore.Hbond>
0.9710

> <Gold.Chemscore.Metal>
0.0000

> <Gold.Chemscore.Lipo>
123.0224

> <Gold.Chemscore.Internal_Hbond>
0.0000

> <Gold.Chemscore.DEClash>
2.9175

> <Gold.Chemscore.DEInternal>
0.6213

> <Gold.Chemscore.Rot>
2.0196

> <Gold.Chemscore.Internal.Correction>
   9.000000E+99

> <Gold.Chemscore.Hbonds>
donor molecule, donor type, donor heavy atom, donor atom, acceptor molecule, acceptor atom, score
      L1  H     4    44       P1  8028  0.77

> <Gold.Chemscore.Hbond.Weighted>
-3.2432

> <Gold.Chemscore.Metal.Weighted>
-0.0000

> <Gold.Chemscore.Lipo.Weighted>
-14.3936

> <Gold.Chemscore.Internal_Hbond.Weighted>
0.0000

> <Gold.Chemscore.DEClash.Weighted>
2.9175

> <Gold.Chemscore.DEInternal.Weighted>
0.6213

> <Gold.Chemscore.Rot.Weighted>
5.1702

> <Gold.Chemscore.Internal.Correction.Weighted>
   9.000000E+99

> <Gold.Protein.RotatedTorsions>
[ 6907 6896 6895 6894 ] final -163.72 input  -60.11 | X-H torsion
[ 7974 7965 7964 7962 ] final -146.75 input  175.53 | X-H torsion
[ 8008 7997 7996 7995 ] final   14.28 input   59.86 | X-H torsion
[ 10167 10162 10161 10158 ] final   69.56 input  -65.29 | X-H torsion
[ 10718 10713 10712 10709 ] final   15.16 input   66.30 | X-H torsion
[ 10763 10752 10751 10750 ] final -103.11 input  -60.55 | X-H torsion
[ 11005 11000 10999 10996 ] final   23.97 input  -57.11 | X-H torsion

> <Gold.Protein.ActiveResidues>
 VAL166  LYS551  ARG553  GLY616  TRP617  ASP618  TYR619  PRO620  LYS621  CYS622 
 ASP623  PHE694  ASN695  SER759  ASP760  ASP761  ALA762  ILE779  LEU786  VAL792 
 PHE793  MET794  SER795  GLU796  ALA797  LYS798  CYS799  TRP800  GLU811  SER814 

> <Gold.Protein.RotatedAtoms>
  151.4004  133.3759  159.2731 H   0  0  0  0  0  0  0  0  0  0  0  0  # atno 6907 bound_to 6896
  150.9437  134.8845  159.7639 H   0  0  0  0  0  0  0  0  0  0  0  0  # atno 6908 bound_to 6896
  152.5082  134.3956  159.9451 H   0  0  0  0  0  0  0  0  0  0  0  0  # atno 6909 bound_to 6896
  144.8138  140.5416  143.5624 H   0  0  0  0  0  0  0  0  0  0  0  0  # atno 7974 bound_to 7965
  154.8463  140.2922  155.5627 H   0  0  0  0  0  0  0  0  0  0  0  0  # atno 8008 bound_to 7997
  156.3014  140.2504  156.3346 H   0  0  0  0  0  0  0  0  0  0  0  0  # atno 8009 bound_to 7997
  154.9070  140.0389  157.1914 H   0  0  0  0  0  0  0  0  0  0  0  0  # atno 8010 bound_to 7997
  140.0665  144.5189  150.7257 H   0  0  0  0  0  0  0  0  0  0  0  0  # atno 10167 bound_to 10162
  157.0495  130.6264  149.5765 H   0  0  0  0  0  0  0  0  0  0  0  0  # atno 10718 bound_to 10713
  154.7783  135.4836  153.9791 H   0  0  0  0  0  0  0  0  0  0  0  0  # atno 10763 bound_to 10752
  153.1459  135.6782  153.8963 H   0  0  0  0  0  0  0  0  0  0  0  0  # atno 10764 bound_to 10752
  153.8623  135.3154  155.3416 H   0  0  0  0  0  0  0  0  0  0  0  0  # atno 10765 bound_to 10752
  140.3638  134.2096  155.7670 H   0  0  0  0  0  0  0  0  0  0  0  0  # atno 11005 bound_to 11000
  145.5261  139.1476  143.3525 LP  0  0  0  0  0  0  0  0  0  0  0  0  # atno 17320 bound_to 7965
  146.2440  140.5401  142.8922 LP  0  0  0  0  0  0  0  0  0  0  0  0  # atno 17321 bound_to 7965
  140.7147  143.2534  151.4473 LP  0  0  0  0  0  0  0  0  0  0  0  0  # atno 17342 bound_to 10162
  139.5862  144.1599  152.2032 LP  0  0  0  0  0  0  0  0  0  0  0  0  # atno 17343 bound_to 10162
  156.0012  130.5091  150.7669 LP  0  0  0  0  0  0  0  0  0  0  0  0  # atno 17370 bound_to 10713
  157.5041  131.0921  151.0278 LP  0  0  0  0  0  0  0  0  0  0  0  0  # atno 17371 bound_to 10713
  141.1976  133.8055  157.0621 LP  0  0  0  0  0  0  0  0  0  0  0  0  # atno 17394 bound_to 11000
  140.0605  134.9757  157.1297 LP  0  0  0  0  0  0  0  0  0  0  0  0  # atno 17395 bound_to 11000

$$$$
