AV-unprocessed.smi:107|AV-procd|sdf|1014|dock6
  -GOLD-   2262018 13D 1   1.00000     0.00000
 Structure written by MMmdl.
 31 32  0  0  0  0  0  0  0  0  1 V2000
  152.0070  138.1024  159.6293 C   0  0  0  0  0  0  0  0  0  0  0  0
  151.7132  138.5650  158.2120 C   0  0  0  0  0  0  0  0  0  0  0  0
  150.4911  139.0192  157.8342 C   0  0  0  0  0  0  0  0  0  0  0  0
  150.1917  139.4522  156.5507 N   0  0  0  0  0  0  0  0  0  0  0  0
  148.8064  139.9562  156.2219 C   0  0  1  0  0  0  0  0  0  0  0  0
  148.8528  141.3775  155.6443 C   0  0  0  0  0  0  0  0  0  0  0  0
  148.2127  141.2169  154.2728 C   0  0  1  0  0  0  0  0  0  0  0  0
  149.2041  141.1772  153.2628 O   0  0  0  0  0  0  0  0  0  0  0  0
  147.4438  139.8913  154.3866 C   0  0  1  0  0  0  0  0  0  0  0  0
  147.1896  139.1536  153.0601 C   0  0  0  0  0  0  0  0  0  0  0  0
  146.5784  140.0230  152.1311 O   0  0  0  0  0  0  0  0  0  0  0  0
  148.2573  139.1159  155.2563 O   0  0  0  0  0  0  0  0  0  0  0  0
  151.1979  139.4346  155.5621 C   0  0  0  0  0  0  0  0  0  0  0  0
  151.0102  139.7960  154.4012 O   0  0  0  0  0  0  0  0  0  0  0  0
  152.4532  138.9680  155.9492 N   0  0  0  0  0  0  0  0  0  0  0  0
  152.7974  138.5199  157.2271 C   0  0  0  0  0  0  0  0  0  0  0  0
  153.9428  138.1283  157.4451 O   0  0  0  0  0  0  0  0  0  0  0  0
  153.1760  138.9501  155.2444 H   0  0  0  0  0  0  0  0  0  0  0  0
  151.1224  138.1591  160.2642 H   0  0  0  0  0  0  0  0  0  0  0  0
  152.7821  138.7237  160.0792 H   0  0  0  0  0  0  0  0  0  0  0  0
  152.3531  137.0683  159.6303 H   0  0  0  0  0  0  0  0  0  0  0  0
  149.7058  139.0483  158.5754 H   0  0  0  0  0  0  0  0  0  0  0  0
  148.1911  139.8903  157.1201 H   0  0  0  0  0  0  0  0  0  0  0  0
  148.2532  142.0273  156.2827 H   0  0  0  0  0  0  0  0  0  0  0  0
  149.8688  141.7744  155.6081 H   0  0  0  0  0  0  0  0  0  0  0  0
  147.5401  142.0452  154.0480 H   0  0  0  0  0  0  0  0  0  0  0  0
  148.9245  140.5762  152.5894 H   0  0  0  0  0  0  0  0  0  0  0  0
  146.4972  140.0918  154.8926 H   0  0  0  0  0  0  0  0  0  0  0  0
  148.1345  138.8269  152.6251 H   0  0  0  0  0  0  0  0  0  0  0  0
  146.5741  138.2659  153.2100 H   0  0  0  0  0  0  0  0  0  0  0  0
  145.6427  139.9915  152.2595 H   0  0  0  0  0  0  0  0  0  0  0  0
  1  2  1  0  0  0  0
  1 19  1  0  0  0  0
  1 20  1  0  0  0  0
  1 21  1  0  0  0  0
  2 16  1  0  0  0  0
  2  3  2  0  0  0  0
  3  4  1  0  0  0  0
  3 22  1  0  0  0  0
  4  5  1  0  0  0  0
  4 13  1  0  0  0  0
  5 12  1  0  0  0  0
  5  6  1  0  0  0  0
  5 23  1  0  0  0  0
  6  7  1  0  0  0  0
  6 24  1  0  0  0  0
  6 25  1  0  0  0  0
  7  8  1  0  0  0  0
  7  9  1  0  0  0  0
  7 26  1  0  0  0  0
  8 27  1  0  0  0  0
  9 10  1  0  0  0  0
  9 12  1  0  0  0  0
  9 28  1  0  0  0  0
 10 11  1  0  0  0  0
 10 29  1  0  0  0  0
 10 30  1  0  0  0  0
 11 31  1  0  0  0  0
 13 14  2  0  0  0  0
 13 15  1  0  0  0  0
 15 18  1  0  0  0  0
 15 16  1  0  0  0  0
 16 17  2  0  0  0  0
M  END
> <s_m_source_file>
AV-unprocessed.smi

> <i_m_source_file_index>
107

> <i_lp_mmshare_version>
43012

> <i_f3d_flags>
0

> <s_epik_input>
Tz1jMVtuSF1jKD1PKW4oW2NIXWMxW0NIM10pW0NAQEhdMltDSDJdW0NAQEhdKFtPSF0pW0NASF0oTzIpW0NIMl1bT0hd

> <s_epik_cmdline>
J2VwaWtfcHl0aG9uJywgJy1waCcsICc3LjAnLCAnLXRuJywgJzgnLCAnLW1hJywgJzIwMCcsICctbWV0YWxfYmluZGluZycsICctaW1hZScsICc8aW5maWxlLm1hZT4nLCAnLW9tYWUnLCAnPG91dGZpbGUubWFlPic=

> <r_lp_tautomer_probability>
0.999537

> <r_epik_Ionization_Penalty>
0.00121888

> <r_epik_Ionization_Penalty_Charging>
0.00121876

> <r_epik_Ionization_Penalty_Neutral>
1.19946e-07

> <r_epik_State_Penalty>
0.000805124

> <r_epik_Charging_Adjusted_Penalty>
0.00202389

> <i_epik_Tot_Q>
0

> <i_epik_Tot_abs_Q>
0

> <r_epik_Metal_State_Penalty>
0.662472

> <b_epik_Metal_Only>
0

> <s_epik_Chemistry_Notes>
This compound contains an acetal/aminal-like group ( X-CH(R)-Y where X, Y are N, S, or O) that may be acid/base labile, releasing an aldehyde.

> <s_lp_Force_Field>
OPLS_2005

> <r_lp_Energy>
28.3693

> <b_lp_Chiralities_Consistent>
1

> <s_lp_Variant>
AV-unprocessed.smi:107-2

> <Gold.Version>
5.8.1

> <Gold.Id.Protein>
6NUR|6NUR_protein|mol2

> <Gold.PLP.Fitness>
35.9299

> <Gold.PLP.PLP>
-23.3139

> <Gold.PLP.part.hbond>
-6.2570

> <Gold.PLP.part.metal>
0.0000

> <Gold.PLP.part.buried>
-4.4549

> <Gold.PLP.part.nonpolar>
-13.6713

> <Gold.PLP.part.repulsive>
0.3471

> <Gold.PLP.ligand.clash>
0.0000

> <Gold.PLP.ligand.torsion>
0.0646

> <Gold.PLP.Chemscore.Hbond>
4.2466

> <Gold.PLP.Chemscore.CHOScore>
0.0000

> <Gold.PLP.Chemscore.Metal>
0.0000

> <Gold.Chemscore.Hbonds>
donor molecule, donor type, donor heavy atom, donor atom, acceptor molecule, acceptor atom, score
      L1  H     8    27       P1  7957  0.67
      L1  H    11    31       P1 10175  1.00
      P1  H  7989  7998       L1    14  1.00
      P1  H  7997  8010       L1    17  0.49
      P1  H  8011  8017       L1     8  1.00

> <Gold.PLP.Chemscore.Internal.Correction>
0.0053

> <Gold.Rescore>
     Score         DG    S(hbond)    S(metal)    S(lipo)     H(rot)  DE(clash)    DE(int)     intcor
     10.29     -14.38       3.45        0.00      37.23       2.73       0.02       4.07       ----

> <Gold.Chemscore.Fitness>
10.2905

> <Gold.Chemscore.DG>
-14.3783

> <Gold.Chemscore.ZeroCoef>
-5.4800

> <Gold.Chemscore.Hbond>
3.4490

> <Gold.Chemscore.Metal>
0.0000

> <Gold.Chemscore.Lipo>
37.2251

> <Gold.Chemscore.Internal_Hbond>
0.0000

> <Gold.Chemscore.DEClash>
0.0159

> <Gold.Chemscore.DEInternal>
4.0719

> <Gold.Chemscore.Rot>
2.7253

> <Gold.Chemscore.Internal.Correction>
   9.000000E+99

> <Gold.Chemscore.Hbonds>
donor molecule, donor type, donor heavy atom, donor atom, acceptor molecule, acceptor atom, score
      L1  H     8    27       P1  7957  0.68
      L1  H    11    31       P1 10175  0.77
      P1  H  7989  7998       L1    14  0.93
      P1  H  7997  8010       L1    17  0.06
      P1  H  8011  8017       L1     8  0.25

> <Gold.Chemscore.Hbond.Weighted>
-11.5198

> <Gold.Chemscore.Metal.Weighted>
-0.0000

> <Gold.Chemscore.Lipo.Weighted>
-4.3553

> <Gold.Chemscore.Internal_Hbond.Weighted>
0.0000

> <Gold.Chemscore.DEClash.Weighted>
0.0159

> <Gold.Chemscore.DEInternal.Weighted>
4.0719

> <Gold.Chemscore.Rot.Weighted>
6.9769

> <Gold.Chemscore.Internal.Correction.Weighted>
   9.000000E+99

> <Gold.Protein.RotatedTorsions>
[ 6907 6896 6895 6894 ] final  100.33 input  -60.11 | X-H torsion
[ 7974 7965 7964 7962 ] final  -52.33 input  175.53 | X-H torsion
[ 8008 7997 7996 7995 ] final   17.41 input   59.86 | X-H torsion
[ 10167 10162 10161 10158 ] final  120.93 input  -65.29 | X-H torsion
[ 10718 10713 10712 10709 ] final  155.46 input   66.30 | X-H torsion
[ 10763 10752 10751 10750 ] final  -80.07 input  -60.55 | X-H torsion
[ 11005 11000 10999 10996 ] final  -89.28 input  -57.11 | X-H torsion

> <Gold.Protein.ActiveResidues>
 VAL166  LYS551  ARG553  GLY616  TRP617  ASP618  TYR619  PRO620  LYS621  CYS622 
 ASP623  PHE694  ASN695  SER759  ASP760  ASP761  ALA762  ILE779  LEU786  VAL792 
 PHE793  MET794  SER795  GLU796  ALA797  LYS798  CYS799  TRP800  GLU811  SER814 

> <Gold.Protein.RotatedAtoms>
  152.5374  134.0293  159.8017 H   0  0  0  0  0  0  0  0  0  0  0  0  # atno 6907 bound_to 6896
  151.0467  133.5652  159.2653 H   0  0  0  0  0  0  0  0  0  0  0  0  # atno 6908 bound_to 6896
  151.2601  135.0659  159.9149 H   0  0  0  0  0  0  0  0  0  0  0  0  # atno 6909 bound_to 6896
  145.9091  140.7930  142.9704 H   0  0  0  0  0  0  0  0  0  0  0  0  # atno 7974 bound_to 7965
  154.8911  140.2987  155.5370 H   0  0  0  0  0  0  0  0  0  0  0  0  # atno 8008 bound_to 7997
  156.3021  140.2424  156.3861 H   0  0  0  0  0  0  0  0  0  0  0  0  # atno 8009 bound_to 7997
  154.8618  140.0405  157.1659 H   0  0  0  0  0  0  0  0  0  0  0  0  # atno 8010 bound_to 7997
  139.5951  144.7039  151.3195 H   0  0  0  0  0  0  0  0  0  0  0  0  # atno 10167 bound_to 10162
  157.2180  131.0712  151.1929 H   0  0  0  0  0  0  0  0  0  0  0  0  # atno 10718 bound_to 10713
  154.5466  135.5674  153.6885 H   0  0  0  0  0  0  0  0  0  0  0  0  # atno 10763 bound_to 10752
  152.9978  135.6240  154.2431 H   0  0  0  0  0  0  0  0  0  0  0  0  # atno 10764 bound_to 10752
  154.2364  135.2864  155.2850 H   0  0  0  0  0  0  0  0  0  0  0  0  # atno 10765 bound_to 10752
  141.1587  133.7621  156.9573 H   0  0  0  0  0  0  0  0  0  0  0  0  # atno 11005 bound_to 11000
  144.6742  140.1798  143.7407 LP  0  0  0  0  0  0  0  0  0  0  0  0  # atno 17320 bound_to 7965
  145.8694  139.2264  143.1670 LP  0  0  0  0  0  0  0  0  0  0  0  0  # atno 17321 bound_to 7965
  140.7205  143.7148  150.7741 LP  0  0  0  0  0  0  0  0  0  0  0  0  # atno 17342 bound_to 10162
  140.0712  143.5059  152.2578 LP  0  0  0  0  0  0  0  0  0  0  0  0  # atno 17343 bound_to 10162
  157.3605  130.7128  149.6498 LP  0  0  0  0  0  0  0  0  0  0  0  0  # atno 17370 bound_to 10713
  155.9684  130.4227  150.4528 LP  0  0  0  0  0  0  0  0  0  0  0  0  # atno 17371 bound_to 10713
  140.1217  134.9413  157.2212 LP  0  0  0  0  0  0  0  0  0  0  0  0  # atno 17394 bound_to 11000
  140.3064  134.3073  155.7277 LP  0  0  0  0  0  0  0  0  0  0  0  0  # atno 17395 bound_to 11000

$$$$
