AV-unprocessed.smi:607|AV-procd|sdf|3043|dock4
  -GOLD-   2262023563D 1   1.00000     0.00000
 Structure written by MMmdl.
 42 43  0  0  0  0  0  0  0  0  1 V2000
  151.9753  139.9264  156.5151 C   0  0  0  0  0  0  0  0  0  0  0  0
  152.3379  140.5891  157.8136 C   0  0  0  0  0  0  0  0  0  0  0  0
  153.2921  140.0627  158.5615 N   0  0  0  0  0  0  0  0  0  0  0  0
  153.3791  140.8774  159.6306 N   0  0  0  0  0  0  0  0  0  0  0  0
  154.3470  140.5837  160.6698 C   0  0  0  0  0  0  0  0  0  0  0  0
  152.4806  141.9242  159.5578 C   0  0  0  0  0  0  0  0  0  0  0  0
  152.4018  142.9632  160.6321 C   0  0  0  0  0  0  0  0  0  0  0  0
  151.7801  141.7706  158.3869 C   0  0  0  0  0  0  0  0  0  0  0  0
  150.6790  142.6266  157.7926 C   0  0  1  0  0  0  0  0  0  0  0  0
  151.1459  143.3527  156.5167 C   0  0  0  0  0  0  0  0  0  0  0  0
  149.4140  141.7780  157.5826 C   0  0  0  0  0  0  0  0  0  0  0  0
  149.3724  140.6032  157.9483 O   0  0  0  0  0  0  0  0  0  0  0  0
  148.3802  142.3982  156.9891 N   0  0  0  0  0  0  0  0  0  0  0  0
  147.0498  141.8396  156.7393 C   0  0  0  0  0  0  0  0  0  0  0  0
  146.3884  141.4730  158.0061 C   0  0  0  0  0  0  0  0  0  0  0  0
  145.8708  141.1850  159.0001 N   0  0  0  0  0  0  0  0  0  0  0  0
  146.2199  142.8776  155.9695 C   0  0  0  0  0  0  0  0  0  0  0  0
  146.5417  142.6780  154.4820 C   0  0  0  0  0  0  0  0  0  0  0  0
  147.1955  141.2957  154.3598 C   0  0  0  0  0  0  0  0  0  0  0  0
  147.1111  140.6623  155.7513 C   0  0  0  0  0  0  0  0  0  0  0  0
  152.2617  140.5503  155.6682 H   0  0  0  0  0  0  0  0  0  0  0  0
  150.9011  139.7527  156.4527 H   0  0  0  0  0  0  0  0  0  0  0  0
  152.4715  138.9620  156.3994 H   0  0  0  0  0  0  0  0  0  0  0  0
  155.0691  141.3977  160.7383 H   0  0  0  0  0  0  0  0  0  0  0  0
  154.8802  139.6574  160.4505 H   0  0  0  0  0  0  0  0  0  0  0  0
  153.8361  140.4776  161.6271 H   0  0  0  0  0  0  0  0  0  0  0  0
  151.7849  143.8088  160.3313 H   0  0  0  0  0  0  0  0  0  0  0  0
  153.3918  143.3521  160.8713 H   0  0  0  0  0  0  0  0  0  0  0  0
  151.9733  142.5437  161.5425 H   0  0  0  0  0  0  0  0  0  0  0  0
  150.3931  143.4042  158.5018 H   0  0  0  0  0  0  0  0  0  0  0  0
  151.4530  142.6561  155.7366 H   0  0  0  0  0  0  0  0  0  0  0  0
  151.9964  144.0003  156.7313 H   0  0  0  0  0  0  0  0  0  0  0  0
  150.3551  143.9819  156.1064 H   0  0  0  0  0  0  0  0  0  0  0  0
  148.5136  143.3633  156.7237 H   0  0  0  0  0  0  0  0  0  0  0  0
  145.1582  142.6796  156.1256 H   0  0  0  0  0  0  0  0  0  0  0  0
  146.4018  143.9007  156.3016 H   0  0  0  0  0  0  0  0  0  0  0  0
  145.6383  142.7506  153.8758 H   0  0  0  0  0  0  0  0  0  0  0  0
  147.2306  143.4480  154.1328 H   0  0  0  0  0  0  0  0  0  0  0  0
  146.7142  140.6761  153.6025 H   0  0  0  0  0  0  0  0  0  0  0  0
  148.2411  141.4103  154.0715 H   0  0  0  0  0  0  0  0  0  0  0  0
  147.9296  139.9679  155.9420 H   0  0  0  0  0  0  0  0  0  0  0  0
  146.1864  140.0873  155.8201 H   0  0  0  0  0  0  0  0  0  0  0  0
  1  2  1  0  0  0  0
  1 21  1  0  0  0  0
  1 22  1  0  0  0  0
  1 23  1  0  0  0  0
  2  8  1  0  0  0  0
  2  3  2  0  0  0  0
  3  4  1  0  0  0  0
  4  5  1  0  0  0  0
  4  6  1  0  0  0  0
  5 24  1  0  0  0  0
  5 25  1  0  0  0  0
  5 26  1  0  0  0  0
  6  7  1  0  0  0  0
  6  8  2  0  0  0  0
  7 27  1  0  0  0  0
  7 28  1  0  0  0  0
  7 29  1  0  0  0  0
  8  9  1  0  0  0  0
  9 10  1  0  0  0  0
  9 11  1  0  0  0  0
  9 30  1  0  0  0  0
 10 31  1  0  0  0  0
 10 32  1  0  0  0  0
 10 33  1  0  0  0  0
 11 12  2  0  0  0  0
 11 13  1  0  0  0  0
 13 14  1  0  0  0  0
 13 34  1  0  0  0  0
 14 20  1  0  0  0  0
 14 15  1  0  0  0  0
 14 17  1  0  0  0  0
 15 16  3  0  0  0  0
 17 18  1  0  0  0  0
 17 35  1  0  0  0  0
 17 36  1  0  0  0  0
 18 19  1  0  0  0  0
 18 37  1  0  0  0  0
 18 38  1  0  0  0  0
 19 20  1  0  0  0  0
 19 39  1  0  0  0  0
 19 40  1  0  0  0  0
 20 41  1  0  0  0  0
 20 42  1  0  0  0  0
M  END
> <s_m_source_file>
AV-unprocessed.smi

> <i_m_source_file_index>
607

> <i_lp_mmshare_version>
43012

> <i_f3d_flags>
0

> <s_epik_input>
W0NIM11jMW5uKFtDSDNdKWMoW0NIM10pYzFbQ0BIXShbQ0gzXSlDKD1PKVtOSF1DMihDI04pW0NIMl1bQ0gyXVtDSDJdW0NIMl0y

> <s_epik_cmdline>
J2VwaWtfcHl0aG9uJywgJy1waCcsICc3LjAnLCAnLXRuJywgJzgnLCAnLW1hJywgJzIwMCcsICctbWV0YWxfYmluZGluZycsICctaW1hZScsICc8aW5maWxlLm1hZT4nLCAnLW9tYWUnLCAnPG91dGZpbGUubWFlPic=

> <r_lp_tautomer_probability>
1

> <r_epik_Ionization_Penalty>
0.00342632

> <r_epik_Ionization_Penalty_Charging>
0

> <r_epik_Ionization_Penalty_Neutral>
0.00342632

> <r_epik_State_Penalty>
0.00242724

> <r_epik_Charging_Adjusted_Penalty>
0.00242724

> <i_epik_Tot_Q>
0

> <i_epik_Tot_abs_Q>
0

> <r_epik_Metal_State_Penalty>
-0

> <b_epik_Metal_Only>
0

> <s_lp_Force_Field>
OPLS_2005

> <r_lp_Energy>
13.7926

> <b_lp_Chiralities_Consistent>
1

> <s_lp_Variant>
AV-unprocessed.smi:607-2

> <Gold.Version>
5.8.1

> <Gold.Id.Protein>
6NUR|6NUR_protein|mol2

> <Gold.PLP.Fitness>
39.7586

> <Gold.PLP.PLP>
-31.9116

> <Gold.PLP.part.hbond>
-3.0000

> <Gold.PLP.part.metal>
0.0000

> <Gold.PLP.part.buried>
-0.6863

> <Gold.PLP.part.nonpolar>
-27.6137

> <Gold.PLP.part.repulsive>
0.0251

> <Gold.PLP.ligand.clash>
0.0000

> <Gold.PLP.ligand.torsion>
0.1812

> <Gold.PLP.Chemscore.Hbond>
2.6960

> <Gold.PLP.Chemscore.CHOScore>
0.0000

> <Gold.PLP.Chemscore.Metal>
0.0000

> <Gold.Chemscore.Hbonds>
donor molecule, donor type, donor heavy atom, donor atom, acceptor molecule, acceptor atom, score
      L1  H    13    34       P1  8028  1.00
      P1  H  6934  6946       L1    16  0.69
      P1  H  7997  8009       L1     3  0.93

> <Gold.PLP.Chemscore.Internal.Correction>
0.1213

> <Gold.Rescore>
     Score         DG    S(hbond)    S(metal)    S(lipo)     H(rot)  DE(clash)    DE(int)     intcor
     15.56     -18.15       1.66        0.00      90.96       1.37       1.31       1.29       ----

> <Gold.Chemscore.Fitness>
15.5592

> <Gold.Chemscore.DG>
-18.1523

> <Gold.Chemscore.ZeroCoef>
-5.4800

> <Gold.Chemscore.Hbond>
1.6593

> <Gold.Chemscore.Metal>
0.0000

> <Gold.Chemscore.Lipo>
90.9613

> <Gold.Chemscore.Internal_Hbond>
0.0000

> <Gold.Chemscore.DEClash>
1.3079

> <Gold.Chemscore.DEInternal>
1.2853

> <Gold.Chemscore.Rot>
1.3720

> <Gold.Chemscore.Internal.Correction>
   9.000000E+99

> <Gold.Chemscore.Hbonds>
donor molecule, donor type, donor heavy atom, donor atom, acceptor molecule, acceptor atom, score
      L1  H    13    34       P1  8028  0.44
      P1  H  6934  6946       L1    16  0.64
      P1  H  7997  8009       L1     3  0.19

> <Gold.Chemscore.Hbond.Weighted>
-5.5421

> <Gold.Chemscore.Metal.Weighted>
-0.0000

> <Gold.Chemscore.Lipo.Weighted>
-10.6425

> <Gold.Chemscore.Internal_Hbond.Weighted>
0.0000

> <Gold.Chemscore.DEClash.Weighted>
1.3079

> <Gold.Chemscore.DEInternal.Weighted>
1.2853

> <Gold.Chemscore.Rot.Weighted>
3.5123

> <Gold.Chemscore.Internal.Correction.Weighted>
   9.000000E+99

> <Gold.Protein.RotatedTorsions>
[ 6907 6896 6895 6894 ] final   90.34 input  -60.11 | X-H torsion
[ 7974 7965 7964 7962 ] final  -80.65 input  175.53 | X-H torsion
[ 8008 7997 7996 7995 ] final  140.04 input   59.86 | X-H torsion
[ 10167 10162 10161 10158 ] final  107.59 input  -65.29 | X-H torsion
[ 10718 10713 10712 10709 ] final  -64.31 input   66.30 | X-H torsion
[ 10763 10752 10751 10750 ] final  162.82 input  -60.55 | X-H torsion
[ 11005 11000 10999 10996 ] final  130.00 input  -57.11 | X-H torsion

> <Gold.Protein.ActiveResidues>
 VAL166  LYS551  ARG553  GLY616  TRP617  ASP618  TYR619  PRO620  LYS621  CYS622 
 ASP623  PHE694  ASN695  SER759  ASP760  ASP761  ALA762  ILE779  LEU786  VAL792 
 PHE793  MET794  SER795  GLU796  ALA797  LYS798  CYS799  TRP800  GLU811  SER814 

> <Gold.Protein.RotatedAtoms>
  152.5444  134.1827  159.8641 H   0  0  0  0  0  0  0  0  0  0  0  0  # atno 6907 bound_to 6896
  151.1828  133.4707  159.2601 H   0  0  0  0  0  0  0  0  0  0  0  0  # atno 6908 bound_to 6896
  151.1161  135.0065  159.8572 H   0  0  0  0  0  0  0  0  0  0  0  0  # atno 6909 bound_to 6896
  145.5572  140.9488  143.1467 H   0  0  0  0  0  0  0  0  0  0  0  0  # atno 7974 bound_to 7965
  156.2983  140.2352  156.4335 H   0  0  0  0  0  0  0  0  0  0  0  0  # atno 8008 bound_to 7997
  154.8249  140.0436  157.1457 H   0  0  0  0  0  0  0  0  0  0  0  0  # atno 8009 bound_to 7997
  154.9273  140.3012  155.5189 H   0  0  0  0  0  0  0  0  0  0  0  0  # atno 8010 bound_to 7997
  139.6915  144.7107  151.1341 H   0  0  0  0  0  0  0  0  0  0  0  0  # atno 10167 bound_to 10162
  156.0737  130.4232  150.1402 H   0  0  0  0  0  0  0  0  0  0  0  0  # atno 10718 bound_to 10713
  154.2843  135.2762  155.2683 H   0  0  0  0  0  0  0  0  0  0  0  0  # atno 10763 bound_to 10752
  154.5190  135.5761  153.6669 H   0  0  0  0  0  0  0  0  0  0  0  0  # atno 10764 bound_to 10752
  152.9924  135.6200  154.3004 H   0  0  0  0  0  0  0  0  0  0  0  0  # atno 10765 bound_to 10752
  139.9647  134.9593  156.9230 H   0  0  0  0  0  0  0  0  0  0  0  0  # atno 11005 bound_to 11000
  144.7500  139.7218  143.7277 LP  0  0  0  0  0  0  0  0  0  0  0  0  # atno 17320 bound_to 7965
  146.1876  139.5100  142.9826 LP  0  0  0  0  0  0  0  0  0  0  0  0  # atno 17321 bound_to 7965
  140.7684  143.5553  150.9159 LP  0  0  0  0  0  0  0  0  0  0  0  0  # atno 17342 bound_to 10162
  139.9230  143.6583  152.3092 LP  0  0  0  0  0  0  0  0  0  0  0  0  # atno 17343 bound_to 10162
  156.9448  130.9756  151.3509 LP  0  0  0  0  0  0  0  0  0  0  0  0  # atno 17370 bound_to 10713
  157.5821  130.8383  149.8537 LP  0  0  0  0  0  0  0  0  0  0  0  0  # atno 17371 bound_to 10713
  140.5423  134.0708  155.7345 LP  0  0  0  0  0  0  0  0  0  0  0  0  # atno 17394 bound_to 11000
  141.1326  133.9276  157.2503 LP  0  0  0  0  0  0  0  0  0  0  0  0  # atno 17395 bound_to 11000

$$$$
