AV-unprocessed.smi:2095|AV-procd|sdf|8554|dock4
  -GOLD-   2272011273D 1   1.00000     0.00000
 Structure written by MMmdl.
 42 43  0  0  0  0  0  0  0  0  2 V2000
  145.2466  133.1021  150.0852 C   0  0  0  0  0  0  0  0  0  0  0  0
  146.1401  133.7013  151.1808 C   0  0  2  0  0  0  0  0  0  0  0  0
  146.2700  132.7475  152.3774 C   0  0  0  0  0  0  0  0  0  0  0  0
  147.1433  133.3851  153.4610 C   0  0  0  0  0  0  0  0  0  0  0  0
  146.5853  134.7556  153.8700 C   0  0  0  0  0  0  0  0  0  0  0  0
  146.4829  135.6787  152.7035 N   0  3  2  0  0  0  0  0  0  0  0  0
  146.1374  137.0777  153.1246 C   0  0  2  0  0  0  0  0  0  0  0  0
  146.2240  138.1213  151.9823 C   0  0  0  0  0  0  0  0  0  0  0  0
  147.0277  137.4989  154.3228 C   0  0  0  0  0  0  0  0  0  0  0  0
  148.4207  137.7001  153.9345 N   0  0  0  0  0  0  0  0  0  0  0  0
  149.3023  138.4920  154.5663 C   0  0  0  0  0  0  0  0  0  0  0  0
  149.0102  139.2101  155.5215 O   0  0  0  0  0  0  0  0  0  0  0  0
  150.7438  138.4422  154.0597 C   0  0  0  0  0  0  0  0  0  0  0  0
  151.6713  138.3363  155.1709 N   0  0  0  0  0  0  0  0  0  0  0  0
  151.9643  139.1913  156.1529 C   0  0  0  0  0  0  0  0  0  0  0  0
  152.9059  138.7145  156.9521 N   0  0  0  0  0  0  0  0  0  0  0  0
  153.1892  137.4761  156.4005 N   0  0  0  0  0  0  0  0  0  0  0  0
  152.4602  137.2463  155.3431 N   0  0  0  0  0  0  0  0  0  0  0  0
  145.6247  135.0832  151.6361 C   0  0  0  0  0  0  0  0  0  0  0  0
  144.2323  132.9341  150.4484 H   0  0  0  0  0  0  0  0  0  0  0  0
  145.6383  132.1453  149.7384 H   0  0  0  0  0  0  0  0  0  0  0  0
  145.1849  133.7643  149.2211 H   0  0  0  0  0  0  0  0  0  0  0  0
  147.1343  133.8394  150.7523 H   0  0  0  0  0  0  0  0  0  0  0  0
  145.2837  132.5204  152.7849 H   0  0  0  0  0  0  0  0  0  0  0  0
  146.7044  131.7982  152.0615 H   0  0  0  0  0  0  0  0  0  0  0  0
  147.1934  132.7287  154.3305 H   0  0  0  0  0  0  0  0  0  0  0  0
  148.1655  133.4961  153.0964 H   0  0  0  0  0  0  0  0  0  0  0  0
  145.5996  134.6338  154.3225 H   0  0  0  0  0  0  0  0  0  0  0  0
  147.2299  135.1698  154.6431 H   0  0  0  0  0  0  0  0  0  0  0  0
  145.0968  137.0745  153.4541 H   0  0  0  0  0  0  0  0  0  0  0  0
  145.9493  139.1191  152.3232 H   0  0  0  0  0  0  0  0  0  0  0  0
  145.5352  137.8975  151.1678 H   0  0  0  0  0  0  0  0  0  0  0  0
  147.2331  138.1843  151.5733 H   0  0  0  0  0  0  0  0  0  0  0  0
  146.6931  138.4407  154.7536 H   0  0  0  0  0  0  0  0  0  0  0  0
  146.9427  136.7604  155.1218 H   0  0  0  0  0  0  0  0  0  0  0  0
  148.7551  137.1560  153.1523 H   0  0  0  0  0  0  0  0  0  0  0  0
  150.8800  137.5850  153.3989 H   0  0  0  0  0  0  0  0  0  0  0  0
  150.9752  139.3384  153.4817 H   0  0  0  0  0  0  0  0  0  0  0  0
  151.5011  140.1597  156.2730 H   0  0  0  0  0  0  0  0  0  0  0  0
  145.6165  135.7219  150.7535 H   0  0  0  0  0  0  0  0  0  0  0  0
  144.5965  135.0086  151.9942 H   0  0  0  0  0  0  0  0  0  0  0  0
  147.4062  135.7374  152.2978 H   0  0  0  0  0  0  0  0  0  0  0  0
  1  2  1  0  0  0  0
  1 20  1  0  0  0  0
  1 21  1  0  0  0  0
  1 22  1  0  0  0  0
  2 19  1  0  0  0  0
  2  3  1  0  0  0  0
  2 23  1  0  0  0  0
  3  4  1  0  0  0  0
  3 24  1  0  0  0  0
  3 25  1  0  0  0  0
  4  5  1  0  0  0  0
  4 26  1  0  0  0  0
  4 27  1  0  0  0  0
  5  6  1  0  0  0  0
  5 28  1  0  0  0  0
  5 29  1  0  0  0  0
  6  7  1  0  0  0  0
  6 19  1  0  0  0  0
  6 42  1  0  0  0  0
  7  8  1  0  0  0  0
  7  9  1  0  0  0  0
  7 30  1  0  0  0  0
  8 31  1  0  0  0  0
  8 32  1  0  0  0  0
  8 33  1  0  0  0  0
  9 10  1  0  0  0  0
  9 34  1  0  0  0  0
  9 35  1  0  0  0  0
 10 11  1  0  0  0  0
 10 36  1  0  0  0  0
 11 12  2  0  0  0  0
 11 13  1  0  0  0  0
 13 14  1  0  0  0  0
 13 37  1  0  0  0  0
 13 38  1  0  0  0  0
 14 18  1  0  0  0  0
 14 15  1  0  0  0  0
 15 16  2  0  0  0  0
 15 39  1  0  0  0  0
 16 17  1  0  0  0  0
 17 18  2  0  0  0  0
 19 40  1  0  0  0  0
 19 41  1  0  0  0  0
M  CHG  1   6   1
M  END
> <s_m_source_file>
AV-unprocessed.smi

> <i_m_source_file_index>
2095

> <i_lp_mmshare_version>
43012

> <i_f3d_flags>
0

> <s_epik_input>
W0NIM11bQ0BASF0xW0NIMl1bQ0gyXVtDSDJdTihbQ0gyXTEpW0NASF0oW0NIM10pW0NIMl1bTkhdQyg9TylbQ0gyXW4yW2NIXW5ubjI=

> <s_epik_cmdline>
J2VwaWtfcHl0aG9uJywgJy1waCcsICc3LjAnLCAnLXRuJywgJzgnLCAnLW1hJywgJzIwMCcsICctbWV0YWxfYmluZGluZycsICctaW1hZScsICc8aW5maWxlLm1hZT4nLCAnLW9tYWUnLCAnPG91dGZpbGUubWFlPic=

> <r_lp_tautomer_probability>
1

> <r_epik_Ionization_Penalty>
0.00268321

> <r_epik_Ionization_Penalty_Charging>
0.00267875

> <r_epik_Ionization_Penalty_Neutral>
4.46125e-06

> <r_epik_State_Penalty>
0.00186642

> <r_epik_Charging_Adjusted_Penalty>
0.00454517

> <i_epik_Tot_Q>
1

> <i_epik_Tot_abs_Q>
1

> <r_epik_Metal_State_Penalty>
-0

> <b_epik_Metal_Only>
0

> <s_lp_Force_Field>
OPLS_2005

> <r_lp_Energy>
25.312

> <b_lp_Chiralities_Consistent>
1

> <s_lp_Variant>
AV-unprocessed.smi:2095-1

> <Gold.Version>
5.8.1

> <Gold.Id.Protein>
6NUR|6NUR_protein|mol2

> <Gold.PLP.Fitness>
42.3553

> <Gold.PLP.PLP>
-29.5509

> <Gold.PLP.part.hbond>
-4.9788

> <Gold.PLP.part.metal>
0.0000

> <Gold.PLP.part.buried>
-4.0850

> <Gold.PLP.part.nonpolar>
-21.4217

> <Gold.PLP.part.repulsive>
0.1149

> <Gold.PLP.ligand.clash>
0.0000

> <Gold.PLP.ligand.torsion>
0.4836

> <Gold.PLP.Chemscore.Hbond>
4.5673

> <Gold.PLP.Chemscore.CHOScore>
0.0000

> <Gold.PLP.Chemscore.Metal>
0.0000

> <Gold.Chemscore.Hbonds>
donor molecule, donor type, donor heavy atom, donor atom, acceptor molecule, acceptor atom, score
      L1  H     6    42       P1  7948  2.00
      L1  H    10    36       P1  7948  1.00
      P1  H  7997  8010       L1    16  0.99
      P1  H 10752 10765       L1    18  0.69

> <Gold.PLP.Chemscore.Internal.Correction>
0.0700

> <Gold.Rescore>
     Score         DG    S(hbond)    S(metal)    S(lipo)     H(rot)  DE(clash)    DE(int)     intcor
     15.80     -16.48       3.52        0.00      51.29       2.64       0.00       0.67       ----

> <Gold.Chemscore.Fitness>
15.8003

> <Gold.Chemscore.DG>
-16.4763

> <Gold.Chemscore.ZeroCoef>
-5.4800

> <Gold.Chemscore.Hbond>
3.5220

> <Gold.Chemscore.Metal>
0.0000

> <Gold.Chemscore.Lipo>
51.2939

> <Gold.Chemscore.Internal_Hbond>
0.0000

> <Gold.Chemscore.DEClash>
0.0038

> <Gold.Chemscore.DEInternal>
0.6722

> <Gold.Chemscore.Rot>
2.6439

> <Gold.Chemscore.Internal.Correction>
   9.000000E+99

> <Gold.Chemscore.Hbonds>
donor molecule, donor type, donor heavy atom, donor atom, acceptor molecule, acceptor atom, score
      L1  H     6    42       P1  7948  1.00
      L1  H    10    36       P1  7948  0.98
      P1  H  7997  8010       L1    16  0.35
      P1  H 10752 10765       L1    18  0.38

> <Gold.Chemscore.Hbond.Weighted>
-11.7634

> <Gold.Chemscore.Metal.Weighted>
-0.0000

> <Gold.Chemscore.Lipo.Weighted>
-6.0014

> <Gold.Chemscore.Internal_Hbond.Weighted>
0.0000

> <Gold.Chemscore.DEClash.Weighted>
0.0038

> <Gold.Chemscore.DEInternal.Weighted>
0.6722

> <Gold.Chemscore.Rot.Weighted>
6.7685

> <Gold.Chemscore.Internal.Correction.Weighted>
   9.000000E+99

> <Gold.Protein.RotatedTorsions>
[ 6907 6896 6895 6894 ] final   47.36 input  -60.11 | X-H torsion
[ 7974 7965 7964 7962 ] final  -52.22 input  175.53 | X-H torsion
[ 8008 7997 7996 7995 ] final   52.00 input   59.86 | X-H torsion
[ 10167 10162 10161 10158 ] final  103.23 input  -65.29 | X-H torsion
[ 10718 10713 10712 10709 ] final -174.15 input   66.30 | X-H torsion
[ 10763 10752 10751 10750 ] final -174.64 input  -60.55 | X-H torsion
[ 11005 11000 10999 10996 ] final   60.12 input  -57.11 | X-H torsion

> <Gold.Protein.ActiveResidues>
 VAL166  LYS551  ARG553  GLY616  TRP617  ASP618  TYR619  PRO620  LYS621  CYS622 
 ASP623  PHE694  ASN695  SER759  ASP760  ASP761  ALA762  ILE779  LEU786  VAL792 
 PHE793  MET794  SER795  GLU796  ALA797  LYS798  CYS799  TRP800  GLU811  SER814 

> <Gold.Protein.RotatedAtoms>
  152.2671  134.7972  160.0420 H   0  0  0  0  0  0  0  0  0  0  0  0  # atno 6907 bound_to 6896
  151.8598  133.3450  159.3708 H   0  0  0  0  0  0  0  0  0  0  0  0  # atno 6908 bound_to 6896
  150.7138  134.5145  159.5668 H   0  0  0  0  0  0  0  0  0  0  0  0  # atno 6909 bound_to 6896
  145.9103  140.7920  142.9698 H   0  0  0  0  0  0  0  0  0  0  0  0  # atno 7974 bound_to 7965
  155.4446  140.3456  155.4293 H   0  0  0  0  0  0  0  0  0  0  0  0  # atno 8008 bound_to 7997
  156.1258  140.1500  156.9168 H   0  0  0  0  0  0  0  0  0  0  0  0  # atno 8009 bound_to 7997
  154.4857  140.0856  156.7460 H   0  0  0  0  0  0  0  0  0  0  0  0  # atno 8010 bound_to 7997
  139.7281  144.7042  151.0765 H   0  0  0  0  0  0  0  0  0  0  0  0  # atno 10167 bound_to 10162
  156.7808  130.9483  151.3120 H   0  0  0  0  0  0  0  0  0  0  0  0  # atno 10718 bound_to 10713
  154.5939  135.2848  155.0607 H   0  0  0  0  0  0  0  0  0  0  0  0  # atno 10763 bound_to 10752
  154.1897  135.6443  153.5060 H   0  0  0  0  0  0  0  0  0  0  0  0  # atno 10764 bound_to 10752
  153.0131  135.5443  154.6634 H   0  0  0  0  0  0  0  0  0  0  0  0  # atno 10765 bound_to 10752
  140.0255  134.6090  155.9579 H   0  0  0  0  0  0  0  0  0  0  0  0  # atno 11005 bound_to 11000
  144.6743  140.1816  143.7405 LP  0  0  0  0  0  0  0  0  0  0  0  0  # atno 17320 bound_to 7965
  145.8679  139.2257  143.1678 LP  0  0  0  0  0  0  0  0  0  0  0  0  # atno 17321 bound_to 7965
  140.7766  143.5079  150.9690 LP  0  0  0  0  0  0  0  0  0  0  0  0  # atno 17342 bound_to 10162
  139.8766  143.7124  152.3161 LP  0  0  0  0  0  0  0  0  0  0  0  0  # atno 17343 bound_to 10162
  157.6647  130.8997  149.9906 LP  0  0  0  0  0  0  0  0  0  0  0  0  # atno 17370 bound_to 10713
  156.1219  130.3645  149.9873 LP  0  0  0  0  0  0  0  0  0  0  0  0  # atno 17371 bound_to 10713
  141.1800  133.6545  156.4981 LP  0  0  0  0  0  0  0  0  0  0  0  0  # atno 17394 bound_to 11000
  140.4314  134.7098  157.4944 LP  0  0  0  0  0  0  0  0  0  0  0  0  # atno 17395 bound_to 11000

$$$$
