AV-unprocessed.smi:2973|AV-procd|sdf|11343|dock4
  -GOLD-   2272016253D 1   1.00000     0.00000
 Structure written by MMmdl.
 50 52  0  0  0  0  0  0  0  0  2 V2000
  152.2904  139.2949  158.5523 C   0  0  0  0  0  0  0  0  0  0  0  0
  152.2610  140.7712  158.1030 C   0  0  2  0  0  0  0  0  0  0  0  0
  152.1752  141.6998  159.3340 C   0  0  0  0  0  0  0  0  0  0  0  0
  152.2076  143.1851  158.9399 C   0  0  0  0  0  0  0  0  0  0  0  0
  151.0912  143.5217  157.9422 C   0  0  0  0  0  0  0  0  0  0  0  0
  151.1753  142.6184  156.7024 C   0  0  0  0  0  0  0  0  0  0  0  0
  151.1399  141.1164  157.0746 C   0  0  2  0  0  0  0  0  0  0  0  0
  149.8191  140.7308  157.5431 N   0  0  0  0  0  0  0  0  0  0  0  0
  149.2053  139.8680  156.7232 C   0  0  0  0  0  0  0  0  0  0  0  0
  148.0730  139.4176  156.8879 O   0  0  0  0  0  0  0  0  0  0  0  0
  150.0359  139.5926  155.7010 N   0  0  0  0  0  0  0  0  0  0  0  0
  149.6999  138.7276  154.5632 C   0  0  0  0  0  0  0  0  0  0  0  0
  148.3775  139.1346  153.8995 C   0  0  0  0  0  0  0  0  0  0  0  0
  147.7364  140.0977  154.3225 O   0  0  0  0  0  0  0  0  0  0  0  0
  147.9818  138.3925  152.8534 N   0  0  0  0  0  0  0  0  0  0  0  0
  146.7829  138.6319  152.0525 C   0  0  0  0  0  0  0  0  0  0  0  0
  145.5396  137.9143  152.6171 C   0  0  0  0  0  0  0  0  0  0  0  0
  145.3138  136.5253  152.0439 C   0  0  0  0  0  0  0  0  0  0  0  0
  144.0212  135.9820  151.8764 C   0  0  0  0  0  0  0  0  0  0  0  0
  143.8837  134.6750  151.3653 C   0  0  0  0  0  0  0  0  0  0  0  0
  145.0391  133.9387  151.0320 C   0  0  0  0  0  0  0  0  0  0  0  0
  146.3050  134.5313  151.2143 C   0  0  0  0  0  0  0  0  0  0  0  0
  146.3957  135.7874  151.7040 N   0  3  0  0  0  0  0  0  0  0  0  0
  151.1917  140.2611  155.8156 C   0  0  0  0  0  0  0  0  0  0  0  0
  152.1506  140.2244  155.0440 O   0  0  0  0  0  0  0  0  0  0  0  0
  151.3654  139.0071  159.0521 H   0  0  0  0  0  0  0  0  0  0  0  0
  153.1072  139.1195  159.2529 H   0  0  0  0  0  0  0  0  0  0  0  0
  152.4414  138.6174  157.7121 H   0  0  0  0  0  0  0  0  0  0  0  0
  153.2193  140.9712  157.6206 H   0  0  0  0  0  0  0  0  0  0  0  0
  151.2618  141.4921  159.8931 H   0  0  0  0  0  0  0  0  0  0  0  0
  153.0021  141.4919  160.0142 H   0  0  0  0  0  0  0  0  0  0  0  0
  152.1098  143.8079  159.8297 H   0  0  0  0  0  0  0  0  0  0  0  0
  153.1760  143.4256  158.4996 H   0  0  0  0  0  0  0  0  0  0  0  0
  150.1192  143.4047  158.4230 H   0  0  0  0  0  0  0  0  0  0  0  0
  151.1635  144.5679  157.6440 H   0  0  0  0  0  0  0  0  0  0  0  0
  150.3620  142.8635  156.0170 H   0  0  0  0  0  0  0  0  0  0  0  0
  152.0996  142.8434  156.1680 H   0  0  0  0  0  0  0  0  0  0  0  0
  149.4109  141.0989  158.3901 H   0  0  0  0  0  0  0  0  0  0  0  0
  150.5085  138.7555  153.8301 H   0  0  0  0  0  0  0  0  0  0  0  0
  149.6219  137.6871  154.8818 H   0  0  0  0  0  0  0  0  0  0  0  0
  148.5636  137.6131  152.5807 H   0  0  0  0  0  0  0  0  0  0  0  0
  146.6011  139.7064  152.0298 H   0  0  0  0  0  0  0  0  0  0  0  0
  146.9508  138.3339  151.0162 H   0  0  0  0  0  0  0  0  0  0  0  0
  145.6265  137.8375  153.7017 H   0  0  0  0  0  0  0  0  0  0  0  0
  144.6515  138.5190  152.4292 H   0  0  0  0  0  0  0  0  0  0  0  0
  143.1447  136.5515  152.1497 H   0  0  0  0  0  0  0  0  0  0  0  0
  142.9033  134.2395  151.2399 H   0  0  0  0  0  0  0  0  0  0  0  0
  144.9551  132.9332  150.6465 H   0  0  0  0  0  0  0  0  0  0  0  0
  147.2406  134.0411  150.9884 H   0  0  0  0  0  0  0  0  0  0  0  0
  147.3228  136.1927  151.8353 H   0  0  0  0  0  0  0  0  0  0  0  0
  1  2  1  0  0  0  0
  1 26  1  0  0  0  0
  1 27  1  0  0  0  0
  1 28  1  0  0  0  0
  2  7  1  0  0  0  0
  2  3  1  0  0  0  0
  2 29  1  0  0  0  0
  3  4  1  0  0  0  0
  3 30  1  0  0  0  0
  3 31  1  0  0  0  0
  4  5  1  0  0  0  0
  4 32  1  0  0  0  0
  4 33  1  0  0  0  0
  5  6  1  0  0  0  0
  5 34  1  0  0  0  0
  5 35  1  0  0  0  0
  6  7  1  0  0  0  0
  6 36  1  0  0  0  0
  6 37  1  0  0  0  0
  7 24  1  0  0  0  0
  7  8  1  0  0  0  0
  8  9  1  0  0  0  0
  8 38  1  0  0  0  0
  9 10  2  0  0  0  0
  9 11  1  0  0  0  0
 11 12  1  0  0  0  0
 11 24  1  0  0  0  0
 12 13  1  0  0  0  0
 12 39  1  0  0  0  0
 12 40  1  0  0  0  0
 13 14  2  0  0  0  0
 13 15  1  0  0  0  0
 15 16  1  0  0  0  0
 15 41  1  0  0  0  0
 16 17  1  0  0  0  0
 16 42  1  0  0  0  0
 16 43  1  0  0  0  0
 17 18  1  0  0  0  0
 17 44  1  0  0  0  0
 17 45  1  0  0  0  0
 18 23  1  0  0  0  0
 18 19  2  0  0  0  0
 19 20  1  0  0  0  0
 19 46  1  0  0  0  0
 20 21  2  0  0  0  0
 20 47  1  0  0  0  0
 21 22  1  0  0  0  0
 21 48  1  0  0  0  0
 22 23  2  0  0  0  0
 22 49  1  0  0  0  0
 23 50  1  0  0  0  0
 24 25  2  0  0  0  0
M  CHG  1  23   1
M  END
> <s_m_source_file>
AV-unprocessed.smi

> <i_m_source_file_index>
2973

> <i_lp_mmshare_version>
43012

> <i_f3d_flags>
0

> <s_epik_input>
W0NIMl0xW0NIMl1bQ0gyXVtDSDJdW0NAQEhdKFtDSDNdKVtDQF0xMltOSF1DKD1PKU4oQzI9TylbQ0gyXUMoPU8pW05IXVtDSDJdW0NIMl1jM1tjSF1bY0hdW2NIXVtjSF1uMw==

> <s_epik_cmdline>
J2VwaWtfcHl0aG9uJywgJy1waCcsICc3LjAnLCAnLXRuJywgJzgnLCAnLW1hJywgJzIwMCcsICctbWV0YWxfYmluZGluZycsICctaW1hZScsICc8aW5maWxlLm1hZT4nLCAnLW9tYWUnLCAnPG91dGZpbGUubWFlPic=

> <r_lp_tautomer_probability>
1

> <r_epik_Ionization_Penalty>
1.90043

> <r_epik_Ionization_Penalty_Charging>
1.90039

> <r_epik_Ionization_Penalty_Neutral>
4.65525e-05

> <r_epik_State_Penalty>
2.02162

> <r_epik_Charging_Adjusted_Penalty>
3.922

> <i_epik_Tot_Q>
1

> <i_epik_Tot_abs_Q>
1

> <r_epik_Metal_State_Penalty>
2.06631

> <b_epik_Metal_Only>
0

> <s_lp_Force_Field>
OPLS_2005

> <r_lp_Energy>
26.4657

> <b_lp_Chiralities_Consistent>
1

> <s_lp_Variant>
AV-unprocessed.smi:2973-7

> <Gold.Version>
5.8.1

> <Gold.Id.Protein>
6NUR|6NUR_protein|mol2

> <Gold.PLP.Fitness>
51.3662

> <Gold.PLP.PLP>
-41.8323

> <Gold.PLP.part.hbond>
-4.0000

> <Gold.PLP.part.metal>
0.0000

> <Gold.PLP.part.buried>
-2.8415

> <Gold.PLP.part.nonpolar>
-35.1653

> <Gold.PLP.part.repulsive>
0.3545

> <Gold.PLP.ligand.clash>
0.0000

> <Gold.PLP.ligand.torsion>
0.8051

> <Gold.PLP.Chemscore.Hbond>
3.7040

> <Gold.PLP.Chemscore.CHOScore>
0.0000

> <Gold.PLP.Chemscore.Metal>
0.0000

> <Gold.Chemscore.Hbonds>
donor molecule, donor type, donor heavy atom, donor atom, acceptor molecule, acceptor atom, score
      L1  H    15    41       P1  7948  1.00
      L1  H    23    50       P1  7948  2.00
      P1  H  7989  7998       L1    25  0.69

> <Gold.PLP.Chemscore.Internal.Correction>
0.0322

> <Gold.Rescore>
     Score         DG    S(hbond)    S(metal)    S(lipo)     H(rot)  DE(clash)    DE(int)     intcor
     18.35     -21.80       2.75        0.00     103.81       1.96       0.12       3.33       ----

> <Gold.Chemscore.Fitness>
18.3459

> <Gold.Chemscore.DG>
-21.7952

> <Gold.Chemscore.ZeroCoef>
-5.4800

> <Gold.Chemscore.Hbond>
2.7534

> <Gold.Chemscore.Metal>
0.0000

> <Gold.Chemscore.Lipo>
103.8146

> <Gold.Chemscore.Internal_Hbond>
0.0000

> <Gold.Chemscore.DEClash>
0.1177

> <Gold.Chemscore.DEInternal>
3.3317

> <Gold.Chemscore.Rot>
1.9638

> <Gold.Chemscore.Internal.Correction>
   9.000000E+99

> <Gold.Chemscore.Hbonds>
donor molecule, donor type, donor heavy atom, donor atom, acceptor molecule, acceptor atom, score
      L1  H    15    41       P1  7948  0.97
      L1  H    23    50       P1  7948  0.97
      P1  H  7989  7998       L1    25  0.48

> <Gold.Chemscore.Hbond.Weighted>
-9.1963

> <Gold.Chemscore.Metal.Weighted>
-0.0000

> <Gold.Chemscore.Lipo.Weighted>
-12.1463

> <Gold.Chemscore.Internal_Hbond.Weighted>
0.0000

> <Gold.Chemscore.DEClash.Weighted>
0.1177

> <Gold.Chemscore.DEInternal.Weighted>
3.3317

> <Gold.Chemscore.Rot.Weighted>
5.0274

> <Gold.Chemscore.Internal.Correction.Weighted>
   9.000000E+99

> <Gold.Protein.RotatedTorsions>
[ 6907 6896 6895 6894 ] final   50.96 input  -60.11 | X-H torsion
[ 7974 7965 7964 7962 ] final -129.77 input  175.53 | X-H torsion
[ 8008 7997 7996 7995 ] final  133.57 input   59.86 | X-H torsion
[ 10167 10162 10161 10158 ] final -121.95 input  -65.29 | X-H torsion
[ 10718 10713 10712 10709 ] final  -76.55 input   66.30 | X-H torsion
[ 10763 10752 10751 10750 ] final  101.84 input  -60.55 | X-H torsion
[ 11005 11000 10999 10996 ] final    3.32 input  -57.11 | X-H torsion

> <Gold.Protein.ActiveResidues>
 VAL166  LYS551  ARG553  GLY616  TRP617  ASP618  TYR619  PRO620  LYS621  CYS622 
 ASP623  PHE694  ASN695  SER759  ASP760  ASP761  ALA762  ILE779  LEU786  VAL792 
 PHE793  MET794  SER795  GLU796  ALA797  LYS798  CYS799  TRP800  GLU811  SER814 

> <Gold.Protein.RotatedAtoms>
  152.3075  134.7538  160.0343 H   0  0  0  0  0  0  0  0  0  0  0  0  # atno 6907 bound_to 6896
  151.8030  133.3367  159.3540 H   0  0  0  0  0  0  0  0  0  0  0  0  # atno 6908 bound_to 6896
  150.7303  134.5666  159.5913 H   0  0  0  0  0  0  0  0  0  0  0  0  # atno 6909 bound_to 6896
  144.9539  140.7375  143.4770 H   0  0  0  0  0  0  0  0  0  0  0  0  # atno 7974 bound_to 7965
  156.2993  140.2518  156.3275 H   0  0  0  0  0  0  0  0  0  0  0  0  # atno 8008 bound_to 7997
  154.9176  140.0401  157.1999 H   0  0  0  0  0  0  0  0  0  0  0  0  # atno 8009 bound_to 7997
  154.8343  140.2880  155.5706 H   0  0  0  0  0  0  0  0  0  0  0  0  # atno 8010 bound_to 7997
  140.0196  143.5358  152.2227 H   0  0  0  0  0  0  0  0  0  0  0  0  # atno 10167 bound_to 10162
  156.0171  130.4468  150.3211 H   0  0  0  0  0  0  0  0  0  0  0  0  # atno 10718 bound_to 10713
  153.3319  135.4031  155.1502 H   0  0  0  0  0  0  0  0  0  0  0  0  # atno 10763 bound_to 10752
  154.8625  135.3612  154.5459 H   0  0  0  0  0  0  0  0  0  0  0  0  # atno 10764 bound_to 10752
  153.5899  135.7074  153.5487 H   0  0  0  0  0  0  0  0  0  0  0  0  # atno 10765 bound_to 10752
  140.5944  133.9894  155.8103 H   0  0  0  0  0  0  0  0  0  0  0  0  # atno 11005 bound_to 11000
  145.2802  139.1921  143.4795 LP  0  0  0  0  0  0  0  0  0  0  0  0  # atno 17320 bound_to 7965
  146.3330  140.2762  142.8608 LP  0  0  0  0  0  0  0  0  0  0  0  0  # atno 17321 bound_to 7965
  139.6149  144.7617  151.2868 LP  0  0  0  0  0  0  0  0  0  0  0  0  # atno 17342 bound_to 10162
  140.7348  143.6755  150.8045 LP  0  0  0  0  0  0  0  0  0  0  0  0  # atno 17343 bound_to 10162
  157.1311  131.0272  151.2969 LP  0  0  0  0  0  0  0  0  0  0  0  0  # atno 17370 bound_to 10713
  157.4550  130.7620  149.7184 LP  0  0  0  0  0  0  0  0  0  0  0  0  # atno 17371 bound_to 10713
  141.0914  133.9911  157.3231 LP  0  0  0  0  0  0  0  0  0  0  0  0  # atno 17394 bound_to 11000
  139.9260  135.0201  156.8234 LP  0  0  0  0  0  0  0  0  0  0  0  0  # atno 17395 bound_to 11000

$$$$
