AV-unprocessed.smi:1506|AV-procd|sdf|6078|dock7
  -GOLD-   22720 6203D 1   1.00000     0.00000
 Structure written by MMmdl.
 40 42  0  0  0  0  0  0  0  0  2 V2000
  153.5645  142.3563  162.7941 C   0  0  0  0  0  0  0  0  0  0  0  0
  152.8921  142.8931  161.5473 C   0  0  0  0  0  0  0  0  0  0  0  0
  152.2246  144.1334  161.5766 C   0  0  0  0  0  0  0  0  0  0  0  0
  151.6024  144.6233  160.4137 C   0  0  0  0  0  0  0  0  0  0  0  0
  151.6428  143.8772  159.2201 C   0  0  0  0  0  0  0  0  0  0  0  0
  152.3086  142.6259  159.1787 C   0  0  0  0  0  0  0  0  0  0  0  0
  152.3941  141.8297  158.0565 O   0  0  0  0  0  0  0  0  0  0  0  0
  152.4926  140.4228  158.2355 C   0  0  0  0  0  0  0  0  0  0  0  0
  151.8565  139.7179  157.0283 C   0  0  2  0  0  0  0  0  0  0  0  0
  152.8884  139.3444  156.1367 O   0  0  0  0  0  0  0  0  0  0  0  0
  150.8251  140.6097  156.3075 C   0  0  0  0  0  0  0  0  0  0  0  0
  150.1075  139.9057  155.2349 N   0  0  0  0  0  0  0  0  0  0  0  0
  150.3352  138.6749  154.7013 C   0  0  0  0  0  0  0  0  0  0  0  0
  149.3970  138.4642  153.7367 N   0  3  0  0  0  0  0  0  0  0  0  0
  148.5586  139.5776  153.6503 C   0  0  0  0  0  0  0  0  0  0  0  0
  147.4670  139.8340  152.8262 C   0  0  0  0  0  0  0  0  0  0  0  0
  146.8280  141.0805  152.9913 C   0  0  0  0  0  0  0  0  0  0  0  0
  147.2780  142.0157  153.9458 C   0  0  0  0  0  0  0  0  0  0  0  0
  148.3844  141.7442  154.7773 C   0  0  0  0  0  0  0  0  0  0  0  0
  149.0104  140.5093  154.6091 C   0  0  0  0  0  0  0  0  0  0  0  0
  152.9294  142.1477  160.3513 C   0  0  0  0  0  0  0  0  0  0  0  0
  153.6718  143.1333  163.5517 H   0  0  0  0  0  0  0  0  0  0  0  0
  154.5582  141.9747  162.5581 H   0  0  0  0  0  0  0  0  0  0  0  0
  152.9755  141.5432  163.2189 H   0  0  0  0  0  0  0  0  0  0  0  0
  152.1871  144.7124  162.4879 H   0  0  0  0  0  0  0  0  0  0  0  0
  151.0919  145.5748  160.4366 H   0  0  0  0  0  0  0  0  0  0  0  0
  151.1541  144.2880  158.3499 H   0  0  0  0  0  0  0  0  0  0  0  0
  153.5349  140.1153  158.3377 H   0  0  0  0  0  0  0  0  0  0  0  0
  151.9649  140.1398  159.1482 H   0  0  0  0  0  0  0  0  0  0  0  0
  151.3705  138.8013  157.3655 H   0  0  0  0  0  0  0  0  0  0  0  0
  152.6348  139.5977  155.2621 H   0  0  0  0  0  0  0  0  0  0  0  0
  150.0740  140.9562  157.0184 H   0  0  0  0  0  0  0  0  0  0  0  0
  151.2923  141.5065  155.8999 H   0  0  0  0  0  0  0  0  0  0  0  0
  151.1173  137.9885  154.9924 H   0  0  0  0  0  0  0  0  0  0  0  0
  147.1209  139.1201  152.0932 H   0  0  0  0  0  0  0  0  0  0  0  0
  145.9771  141.3252  152.3722 H   0  0  0  0  0  0  0  0  0  0  0  0
  146.7652  142.9618  154.0416 H   0  0  0  0  0  0  0  0  0  0  0  0
  148.7241  142.4708  155.5005 H   0  0  0  0  0  0  0  0  0  0  0  0
  153.4402  141.1958  160.3309 H   0  0  0  0  0  0  0  0  0  0  0  0
  149.3356  137.6212  153.1801 H   0  0  0  0  0  0  0  0  0  0  0  0
  1  2  1  0  0  0  0
  1 22  1  0  0  0  0
  1 23  1  0  0  0  0
  1 24  1  0  0  0  0
  2 21  1  0  0  0  0
  2  3  2  0  0  0  0
  3  4  1  0  0  0  0
  3 25  1  0  0  0  0
  4  5  2  0  0  0  0
  4 26  1  0  0  0  0
  5  6  1  0  0  0  0
  5 27  1  0  0  0  0
  6  7  1  0  0  0  0
  6 21  2  0  0  0  0
  7  8  1  0  0  0  0
  8  9  1  0  0  0  0
  8 28  1  0  0  0  0
  8 29  1  0  0  0  0
  9 10  1  0  0  0  0
  9 11  1  0  0  0  0
  9 30  1  0  0  0  0
 10 31  1  0  0  0  0
 11 12  1  0  0  0  0
 11 32  1  0  0  0  0
 11 33  1  0  0  0  0
 12 20  1  0  0  0  0
 12 13  1  0  0  0  0
 13 14  2  0  0  0  0
 13 34  1  0  0  0  0
 14 15  1  0  0  0  0
 14 40  1  0  0  0  0
 15 20  2  0  0  0  0
 15 16  1  0  0  0  0
 16 17  2  0  0  0  0
 16 35  1  0  0  0  0
 17 18  1  0  0  0  0
 17 36  1  0  0  0  0
 18 19  2  0  0  0  0
 18 37  1  0  0  0  0
 19 20  1  0  0  0  0
 19 38  1  0  0  0  0
 21 39  1  0  0  0  0
M  CHG  1  14   1
M  END
> <s_m_source_file>
AV-unprocessed.smi

> <i_m_source_file_index>
1506

> <i_lp_mmshare_version>
43012

> <i_f3d_flags>
0

> <s_epik_input>
W0NIM11jMVtjSF1bY0hdW2NIXWMoW2NIXTEpT1tDSDJdW0NASF0oW09IXSlbQ0gyXW4oW2NIXW4yKWMoYzIzKVtjSF1bY0hdW2NIXVtjSF0z

> <s_epik_cmdline>
J2VwaWtfcHl0aG9uJywgJy1waCcsICc3LjAnLCAnLXRuJywgJzgnLCAnLW1hJywgJzIwMCcsICctbWV0YWxfYmluZGluZycsICctaW1hZScsICc8aW5maWxlLm1hZT4nLCAnLW9tYWUnLCAnPG91dGZpbGUubWFlPic=

> <r_lp_tautomer_probability>
1

> <r_epik_Ionization_Penalty>
1.37864

> <r_epik_Ionization_Penalty_Charging>
1.37864

> <r_epik_Ionization_Penalty_Neutral>
2.3993e-06

> <r_epik_State_Penalty>
1.45896

> <r_epik_Charging_Adjusted_Penalty>
2.8376

> <i_epik_Tot_Q>
1

> <i_epik_Tot_abs_Q>
1

> <r_epik_Metal_State_Penalty>
5.49899

> <b_epik_Metal_Only>
0

> <s_lp_Force_Field>
OPLS_2005

> <r_lp_Energy>
20.022

> <b_lp_Chiralities_Consistent>
1

> <s_lp_Variant>
AV-unprocessed.smi:1506-3

> <Gold.Version>
5.8.1

> <Gold.Id.Protein>
6NUR|6NUR_protein|mol2

> <Gold.PLP.Fitness>
55.3056

> <Gold.PLP.PLP>
-48.5753

> <Gold.PLP.part.hbond>
-2.8954

> <Gold.PLP.part.metal>
0.0000

> <Gold.PLP.part.buried>
2.4593

> <Gold.PLP.part.nonpolar>
-48.4341

> <Gold.PLP.part.repulsive>
0.0529

> <Gold.PLP.ligand.clash>
0.0000

> <Gold.PLP.ligand.torsion>
1.1642

> <Gold.PLP.Chemscore.Hbond>
3.0000

> <Gold.PLP.Chemscore.CHOScore>
0.0000

> <Gold.PLP.Chemscore.Metal>
0.0000

> <Gold.Chemscore.Hbonds>
donor molecule, donor type, donor heavy atom, donor atom, acceptor molecule, acceptor atom, score
      L1  H    14    40       P1  7948  2.00
      P1  H  7997  8009       L1    10  1.00

> <Gold.PLP.Chemscore.Internal.Correction>
0.0586

> <Gold.Rescore>
     Score         DG    S(hbond)    S(metal)    S(lipo)     H(rot)  DE(clash)    DE(int)     intcor
     18.37     -21.75       1.76        0.00     138.39       2.27       1.53       1.84       ----

> <Gold.Chemscore.Fitness>
18.3736

> <Gold.Chemscore.DG>
-21.7477

> <Gold.Chemscore.ZeroCoef>
-5.4800

> <Gold.Chemscore.Hbond>
1.7643

> <Gold.Chemscore.Metal>
0.0000

> <Gold.Chemscore.Lipo>
138.3926

> <Gold.Chemscore.Internal_Hbond>
0.0000

> <Gold.Chemscore.DEClash>
1.5299

> <Gold.Chemscore.DEInternal>
1.8442

> <Gold.Chemscore.Rot>
2.2723

> <Gold.Chemscore.Internal.Correction>
   9.000000E+99

> <Gold.Chemscore.Hbonds>
donor molecule, donor type, donor heavy atom, donor atom, acceptor molecule, acceptor atom, score
      L1  H    14    40       P1  7948  0.96
      P1  H  7997  8009       L1    10  0.37

> <Gold.Chemscore.Hbond.Weighted>
-5.8928

> <Gold.Chemscore.Metal.Weighted>
-0.0000

> <Gold.Chemscore.Lipo.Weighted>
-16.1919

> <Gold.Chemscore.Internal_Hbond.Weighted>
0.0000

> <Gold.Chemscore.DEClash.Weighted>
1.5299

> <Gold.Chemscore.DEInternal.Weighted>
1.8442

> <Gold.Chemscore.Rot.Weighted>
5.8170

> <Gold.Chemscore.Internal.Correction.Weighted>
   9.000000E+99

> <Gold.Protein.RotatedTorsions>
[ 6907 6896 6895 6894 ] final -170.63 input  -60.11 | X-H torsion
[ 7974 7965 7964 7962 ] final  167.29 input  175.53 | X-H torsion
[ 8008 7997 7996 7995 ] final -163.52 input   59.86 | X-H torsion
[ 10167 10162 10161 10158 ] final -136.38 input  -65.29 | X-H torsion
[ 10718 10713 10712 10709 ] final -148.23 input   66.30 | X-H torsion
[ 10763 10752 10751 10750 ] final  176.71 input  -60.55 | X-H torsion
[ 11005 11000 10999 10996 ] final  151.34 input  -57.11 | X-H torsion

> <Gold.Protein.ActiveResidues>
 VAL166  LYS551  ARG553  GLY616  TRP617  ASP618  TYR619  PRO620  LYS621  CYS622 
 ASP623  PHE694  ASN695  SER759  ASP760  ASP761  ALA762  ILE779  LEU786  VAL792 
 PHE793  MET794  SER795  GLU796  ALA797  LYS798  CYS799  TRP800  GLU811  SER814 

> <Gold.Protein.RotatedAtoms>
  151.5107  133.3485  159.2884 H   0  0  0  0  0  0  0  0  0  0  0  0  # atno 6907 bound_to 6896
  150.8714  134.8090  159.7168 H   0  0  0  0  0  0  0  0  0  0  0  0  # atno 6908 bound_to 6896
  152.4701  134.4992  159.9771 H   0  0  0  0  0  0  0  0  0  0  0  0  # atno 6909 bound_to 6896
  144.7430  139.8740  143.6391 H   0  0  0  0  0  0  0  0  0  0  0  0  # atno 7974 bound_to 7965
  155.8224  140.0921  157.1841 H   0  0  0  0  0  0  0  0  0  0  0  0  # atno 8008 bound_to 7997
  154.3979  140.1434  156.3576 H   0  0  0  0  0  0  0  0  0  0  0  0  # atno 8009 bound_to 7997
  155.8252  140.3445  155.5541 H   0  0  0  0  0  0  0  0  0  0  0  0  # atno 8010 bound_to 7997
  139.8684  143.6988  152.2642 H   0  0  0  0  0  0  0  0  0  0  0  0  # atno 10167 bound_to 10162
  156.4177  130.8013  151.2234 H   0  0  0  0  0  0  0  0  0  0  0  0  # atno 10718 bound_to 10713
  154.4848  135.2776  155.1543 H   0  0  0  0  0  0  0  0  0  0  0  0  # atno 10763 bound_to 10752
  154.3239  135.6204  153.5524 H   0  0  0  0  0  0  0  0  0  0  0  0  # atno 10764 bound_to 10752
  152.9880  135.5749  154.5256 H   0  0  0  0  0  0  0  0  0  0  0  0  # atno 10765 bound_to 10752
  140.1210  134.8863  157.2072 H   0  0  0  0  0  0  0  0  0  0  0  0  # atno 11005 bound_to 11000
  146.1260  139.4286  143.0199 LP  0  0  0  0  0  0  0  0  0  0  0  0  # atno 17320 bound_to 7965
  145.7235  141.0067  143.1390 LP  0  0  0  0  0  0  0  0  0  0  0  0  # atno 17321 bound_to 7965
  139.7307  144.7583  151.0807 LP  0  0  0  0  0  0  0  0  0  0  0  0  # atno 17342 bound_to 10162
  140.7764  143.5092  150.9674 LP  0  0  0  0  0  0  0  0  0  0  0  0  # atno 17343 bound_to 10162
  157.7508  131.0238  150.3849 LP  0  0  0  0  0  0  0  0  0  0  0  0  # atno 17370 bound_to 10713
  156.4160  130.3943  149.6858 LP  0  0  0  0  0  0  0  0  0  0  0  0  # atno 17371 bound_to 10713
  140.2965  134.3181  155.7301 LP  0  0  0  0  0  0  0  0  0  0  0  0  # atno 17394 bound_to 11000
  141.2152  133.7566  156.9578 LP  0  0  0  0  0  0  0  0  0  0  0  0  # atno 17395 bound_to 11000

$$$$
