AV-unprocessed.smi:2749|AV-procd|sdf|10585|dock8
  -GOLD-   2272015 33D 1   1.00000     0.00000
 Structure written by MMmdl.
 32 34  0  0  0  0  0  0  0  0  1 V2000
  150.5084  140.7350  156.8741 O   0  0  0  0  0  0  0  0  0  0  0  0
  150.1368  141.8728  156.5916 C   0  0  0  0  0  0  0  0  0  0  0  0
  150.3994  142.9115  157.4140 N   0  0  0  0  0  0  0  0  0  0  0  0
  151.0857  142.9828  158.6626 C   0  0  0  0  0  0  0  0  0  0  0  0
  150.8832  144.1888  159.3724 C   0  0  0  0  0  0  0  0  0  0  0  0
  151.5057  144.3752  160.6222 C   0  0  0  0  0  0  0  0  0  0  0  0
  152.3164  143.3463  161.1329 C   0  0  0  0  0  0  0  0  0  0  0  0
  152.9354  143.4786  162.3299 F   0  0  0  0  0  0  0  0  0  0  0  0
  152.4668  142.1756  160.3679 C   0  0  0  0  0  0  0  0  0  0  0  0
  151.8705  141.9975  159.1698 N   0  0  0  0  0  0  0  0  0  0  0  0
  149.4541  142.1598  155.4714 N   0  0  0  0  0  0  0  0  0  0  0  0
  149.0568  141.2113  154.4351 C   0  0  2  0  0  0  0  0  0  0  0  0
  147.7873  141.6628  153.7056 C   0  0  0  0  0  0  0  0  0  0  0  0
  146.8331  140.4923  153.9792 C   0  0  1  0  0  0  0  0  0  0  0  0
  147.2469  139.2199  153.2251 C   0  0  0  0  0  0  0  0  0  0  0  0
  148.4830  138.7773  154.0088 C   0  0  0  0  0  0  0  0  0  0  0  0
  148.5946  139.8859  155.0637 C   0  0  2  0  0  0  0  0  0  0  0  0
  147.2212  140.1519  155.2978 O   0  0  0  0  0  0  0  0  0  0  0  0
  150.0284  143.7947  157.0951 H   0  0  0  0  0  0  0  0  0  0  0  0
  150.2561  144.9694  158.9661 H   0  0  0  0  0  0  0  0  0  0  0  0
  151.3624  145.2902  161.1776 H   0  0  0  0  0  0  0  0  0  0  0  0
  153.0797  141.3611  160.7249 H   0  0  0  0  0  0  0  0  0  0  0  0
  149.1891  143.1236  155.3234 H   0  0  0  0  0  0  0  0  0  0  0  0
  149.8708  141.0314  153.7306 H   0  0  0  0  0  0  0  0  0  0  0  0
  147.3864  142.5851  154.1291 H   0  0  0  0  0  0  0  0  0  0  0  0
  147.9496  141.8252  152.6395 H   0  0  0  0  0  0  0  0  0  0  0  0
  145.7784  140.7471  153.8725 H   0  0  0  0  0  0  0  0  0  0  0  0
  146.4657  138.4613  153.2839 H   0  0  0  0  0  0  0  0  0  0  0  0
  147.4583  139.4123  152.1728 H   0  0  0  0  0  0  0  0  0  0  0  0
  148.3089  137.8100  154.4814 H   0  0  0  0  0  0  0  0  0  0  0  0
  149.3756  138.6981  153.3875 H   0  0  0  0  0  0  0  0  0  0  0  0
  149.1546  139.5883  155.9513 H   0  0  0  0  0  0  0  0  0  0  0  0
  1  2  2  0  0  0  0
  2  3  1  0  0  0  0
  2 11  1  0  0  0  0
  3  4  1  0  0  0  0
  3 19  1  0  0  0  0
  4 10  1  0  0  0  0
  4  5  2  0  0  0  0
  5  6  1  0  0  0  0
  5 20  1  0  0  0  0
  6  7  2  0  0  0  0
  6 21  1  0  0  0  0
  7  8  1  0  0  0  0
  7  9  1  0  0  0  0
  9 10  2  0  0  0  0
  9 22  1  0  0  0  0
 11 12  1  0  0  0  0
 11 23  1  0  0  0  0
 12 17  1  0  0  0  0
 12 13  1  0  0  0  0
 12 24  1  0  0  0  0
 13 14  1  0  0  0  0
 13 25  1  0  0  0  0
 13 26  1  0  0  0  0
 14 18  1  0  0  0  0
 14 15  1  0  0  0  0
 14 27  1  0  0  0  0
 15 16  1  0  0  0  0
 15 28  1  0  0  0  0
 15 29  1  0  0  0  0
 16 17  1  0  0  0  0
 16 30  1  0  0  0  0
 16 31  1  0  0  0  0
 17 18  1  0  0  0  0
 17 32  1  0  0  0  0
M  END
> <s_m_source_file>
AV-unprocessed.smi

> <i_m_source_file_index>
2749

> <i_lp_mmshare_version>
43012

> <i_f3d_flags>
0

> <s_epik_input>
W0NIMl0xW0NIMl1bQ0BIXShPMilbQ0BASF0oW0NIMl1bQ0BASF0xMilbTkhdQyg9TylbTkhdYzNbY0hdW2NIXWMoRilbY0hdbjM=

> <s_epik_cmdline>
J2VwaWtfcHl0aG9uJywgJy1waCcsICc3LjAnLCAnLXRuJywgJzgnLCAnLW1hJywgJzIwMCcsICctbWV0YWxfYmluZGluZycsICctaW1hZScsICc8aW5maWxlLm1hZT4nLCAnLW9tYWUnLCAnPG91dGZpbGUubWFlPic=

> <r_lp_tautomer_probability>
1

> <r_epik_Ionization_Penalty>
3.37159e-05

> <r_epik_Ionization_Penalty_Charging>
0

> <r_epik_Ionization_Penalty_Neutral>
3.37159e-05

> <r_epik_State_Penalty>
-0

> <r_epik_Charging_Adjusted_Penalty>
0

> <i_epik_Tot_Q>
0

> <i_epik_Tot_abs_Q>
0

> <r_epik_Metal_State_Penalty>
-0

> <b_epik_Metal_Only>
0

> <s_lp_Force_Field>
OPLS_2005

> <r_lp_Energy>
42.1362

> <b_lp_Chiralities_Consistent>
1

> <s_lp_Variant>
AV-unprocessed.smi:2749-1

> <Gold.Version>
5.8.1

> <Gold.Id.Protein>
6NUR|6NUR_protein|mol2

> <Gold.PLP.Fitness>
41.0584

> <Gold.PLP.PLP>
-35.9891

> <Gold.PLP.part.hbond>
-2.0000

> <Gold.PLP.part.metal>
0.0000

> <Gold.PLP.part.buried>
-5.4182

> <Gold.PLP.part.nonpolar>
-28.8080

> <Gold.PLP.part.repulsive>
0.2502

> <Gold.PLP.ligand.clash>
0.0000

> <Gold.PLP.ligand.torsion>
0.3723

> <Gold.PLP.Chemscore.Hbond>
1.9280

> <Gold.PLP.Chemscore.CHOScore>
0.0000

> <Gold.PLP.Chemscore.Metal>
0.0000

> <Gold.Chemscore.Hbonds>
donor molecule, donor type, donor heavy atom, donor atom, acceptor molecule, acceptor atom, score
      L1  H     3    19       P1  8028  0.90
      L1  H    11    23       P1  8028  1.00

> <Gold.PLP.Chemscore.Internal.Correction>
0.0299

> <Gold.Rescore>
     Score         DG    S(hbond)    S(metal)    S(lipo)     H(rot)  DE(clash)    DE(int)     intcor
     15.68     -18.72       1.93        0.00      79.96       1.00       0.11       2.93       ----

> <Gold.Chemscore.Fitness>
15.6846

> <Gold.Chemscore.DG>
-18.7214

> <Gold.Chemscore.ZeroCoef>
-5.4800

> <Gold.Chemscore.Hbond>
1.9298

> <Gold.Chemscore.Metal>
0.0000

> <Gold.Chemscore.Lipo>
79.9644

> <Gold.Chemscore.Internal_Hbond>
0.0000

> <Gold.Chemscore.DEClash>
0.1081

> <Gold.Chemscore.DEInternal>
2.9287

> <Gold.Chemscore.Rot>
1.0000

> <Gold.Chemscore.Internal.Correction>
   9.000000E+99

> <Gold.Chemscore.Hbonds>
donor molecule, donor type, donor heavy atom, donor atom, acceptor molecule, acceptor atom, score
      L1  H     3    19       P1  8028  0.79
      L1  H    11    23       P1  8028  0.99

> <Gold.Chemscore.Hbond.Weighted>
-6.4456

> <Gold.Chemscore.Metal.Weighted>
-0.0000

> <Gold.Chemscore.Lipo.Weighted>
-9.3558

> <Gold.Chemscore.Internal_Hbond.Weighted>
0.0000

> <Gold.Chemscore.DEClash.Weighted>
0.1081

> <Gold.Chemscore.DEInternal.Weighted>
2.9287

> <Gold.Chemscore.Rot.Weighted>
2.5600

> <Gold.Chemscore.Internal.Correction.Weighted>
   9.000000E+99

> <Gold.Protein.RotatedTorsions>
[ 6907 6896 6895 6894 ] final  -88.28 input  -60.11 | X-H torsion
[ 7974 7965 7964 7962 ] final  104.34 input  175.53 | X-H torsion
[ 8008 7997 7996 7995 ] final  142.93 input   59.86 | X-H torsion
[ 10167 10162 10161 10158 ] final -145.61 input  -65.29 | X-H torsion
[ 10718 10713 10712 10709 ] final -113.04 input   66.30 | X-H torsion
[ 10763 10752 10751 10750 ] final -107.97 input  -60.55 | X-H torsion
[ 11005 11000 10999 10996 ] final   -1.79 input  -57.11 | X-H torsion

> <Gold.Protein.ActiveResidues>
 VAL166  LYS551  ARG553  GLY616  TRP617  ASP618  TYR619  PRO620  LYS621  CYS622 
 ASP623  PHE694  ASN695  SER759  ASP760  ASP761  ALA762  ILE779  LEU786  VAL792 
 PHE793  MET794  SER795  GLU796  ALA797  LYS798  CYS799  TRP800  GLU811  SER814 

> <Gold.Protein.RotatedAtoms>
  150.6868  134.2766  159.4609 H   0  0  0  0  0  0  0  0  0  0  0  0  # atno 6907 bound_to 6896
  152.0683  134.9547  160.0584 H   0  0  0  0  0  0  0  0  0  0  0  0  # atno 6908 bound_to 6896
  152.0947  133.4184  159.4596 H   0  0  0  0  0  0  0  0  0  0  0  0  # atno 6909 bound_to 6896
  145.3340  139.2479  143.3645 H   0  0  0  0  0  0  0  0  0  0  0  0  # atno 7974 bound_to 7965
  156.2940  140.2276  156.4808 H   0  0  0  0  0  0  0  0  0  0  0  0  # atno 8008 bound_to 7997
  154.7855  140.0457  157.1181 H   0  0  0  0  0  0  0  0  0  0  0  0  # atno 8009 bound_to 7997
  154.9708  140.3066  155.4992 H   0  0  0  0  0  0  0  0  0  0  0  0  # atno 8010 bound_to 7997
  139.7789  143.8129  152.2636 H   0  0  0  0  0  0  0  0  0  0  0  0  # atno 10167 bound_to 10162
  156.0742  130.5952  150.8589 H   0  0  0  0  0  0  0  0  0  0  0  0  # atno 10718 bound_to 10713
  154.8108  135.4655  154.0510 H   0  0  0  0  0  0  0  0  0  0  0  0  # atno 10763 bound_to 10752
  153.1943  135.6860  153.8319 H   0  0  0  0  0  0  0  0  0  0  0  0  # atno 10764 bound_to 10752
  153.7826  135.3254  155.3345 H   0  0  0  0  0  0  0  0  0  0  0  0  # atno 10765 bound_to 10752
  140.6512  133.9403  155.8381 H   0  0  0  0  0  0  0  0  0  0  0  0  # atno 11005 bound_to 11000
  146.3034  140.3924  142.8696 LP  0  0  0  0  0  0  0  0  0  0  0  0  # atno 17320 bound_to 7965
  144.8842  140.7440  143.5967 LP  0  0  0  0  0  0  0  0  0  0  0  0  # atno 17321 bound_to 7965
  139.8186  144.7305  150.9602 LP  0  0  0  0  0  0  0  0  0  0  0  0  # atno 17342 bound_to 10162
  140.7817  143.4181  151.0885 LP  0  0  0  0  0  0  0  0  0  0  0  0  # atno 17343 bound_to 10162
  157.5829  131.0946  150.9242 LP  0  0  0  0  0  0  0  0  0  0  0  0  # atno 17370 bound_to 10713
  156.9434  130.5393  149.5280 LP  0  0  0  0  0  0  0  0  0  0  0  0  # atno 17371 bound_to 10713
  141.0535  134.0450  157.3752 LP  0  0  0  0  0  0  0  0  0  0  0  0  # atno 17394 bound_to 11000
  139.9045  135.0175  156.7423 LP  0  0  0  0  0  0  0  0  0  0  0  0  # atno 17395 bound_to 11000

$$$$
