AV-unprocessed.smi:525|AV-procd|sdf|2808|dock4
  -GOLD-   2262023283D 1   1.00000     0.00000
 Structure written by MMmdl.
 43 45  0  0  0  0  0  0  0  0  1 V2000
  154.1471  138.9665  159.4188 C   0  0  0  0  0  0  0  0  0  0  0  0
  154.0090  138.8989  158.0079 O   0  0  0  0  0  0  0  0  0  0  0  0
  152.7393  138.4251  157.5831 C   0  0  0  0  0  0  0  0  0  0  0  0
  151.5832  139.1860  158.2559 C   0  0  0  0  0  0  0  0  0  0  0  0
  151.3770  140.5023  157.6671 N   0  0  0  0  0  0  0  0  0  0  0  0
  150.7854  140.8205  156.4879 C   0  0  0  0  0  0  0  0  0  0  0  0
  150.1234  139.5796  155.4147 S   0  0  0  0  0  0  0  0  0  0  0  0
  148.3721  140.0929  155.3423 C   0  0  1  0  0  0  0  0  0  0  0  0
  148.1640  141.5484  154.8942 C   0  0  0  0  0  0  0  0  0  0  0  0
  147.5413  142.3618  155.7511 N   0  0  0  0  0  0  0  0  0  0  0  0
  148.5588  141.9376  153.7969 O   0  0  0  0  0  0  0  0  0  0  0  0
  147.6062  139.1521  154.4181 C   0  0  0  0  0  0  0  0  0  0  0  0
  147.2108  139.5657  153.1247 C   0  0  0  0  0  0  0  0  0  0  0  0
  146.5064  138.6864  152.2800 C   0  0  0  0  0  0  0  0  0  0  0  0
  146.1921  137.3869  152.7206 C   0  0  0  0  0  0  0  0  0  0  0  0
  146.5818  136.9679  154.0070 C   0  0  0  0  0  0  0  0  0  0  0  0
  147.2865  137.8469  154.8523 C   0  0  0  0  0  0  0  0  0  0  0  0
  150.7242  142.1252  156.2120 N   0  0  0  0  0  0  0  0  0  0  0  0
  151.3480  142.7017  157.2994 C   0  0  0  0  0  0  0  0  0  0  0  0
  151.6094  144.0586  157.5965 C   0  0  0  0  0  0  0  0  0  0  0  0
  152.2725  144.4123  158.7900 C   0  0  0  0  0  0  0  0  0  0  0  0
  152.6812  143.4171  159.7013 C   0  0  0  0  0  0  0  0  0  0  0  0
  152.4292  142.0597  159.4240 C   0  0  0  0  0  0  0  0  0  0  0  0
  151.7684  141.7123  158.2306 C   0  0  0  0  0  0  0  0  0  0  0  0
  155.1510  139.3069  159.6722 H   0  0  0  0  0  0  0  0  0  0  0  0
  153.9970  137.9951  159.8893 H   0  0  0  0  0  0  0  0  0  0  0  0
  153.4366  139.6734  159.8484 H   0  0  0  0  0  0  0  0  0  0  0  0
  152.6509  138.4648  156.4963 H   0  0  0  0  0  0  0  0  0  0  0  0
  152.6742  137.3706  157.8525 H   0  0  0  0  0  0  0  0  0  0  0  0
  150.6579  138.6124  158.2201 H   0  0  0  0  0  0  0  0  0  0  0  0
  151.8064  139.3213  159.3145 H   0  0  0  0  0  0  0  0  0  0  0  0
  147.9656  139.9793  156.3483 H   0  0  0  0  0  0  0  0  0  0  0  0
  147.3777  143.3265  155.5026 H   0  0  0  0  0  0  0  0  0  0  0  0
  147.2337  142.0062  156.6446 H   0  0  0  0  0  0  0  0  0  0  0  0
  147.4464  140.5610  152.7766 H   0  0  0  0  0  0  0  0  0  0  0  0
  146.2073  139.0094  151.2937 H   0  0  0  0  0  0  0  0  0  0  0  0
  145.6520  136.7124  152.0728 H   0  0  0  0  0  0  0  0  0  0  0  0
  146.3395  135.9713  154.3459 H   0  0  0  0  0  0  0  0  0  0  0  0
  147.5790  137.5137  155.8371 H   0  0  0  0  0  0  0  0  0  0  0  0
  151.2999  144.8282  156.9051 H   0  0  0  0  0  0  0  0  0  0  0  0
  152.4684  145.4520  159.0072 H   0  0  0  0  0  0  0  0  0  0  0  0
  153.1886  143.6959  160.6132 H   0  0  0  0  0  0  0  0  0  0  0  0
  152.7417  141.2947  160.1191 H   0  0  0  0  0  0  0  0  0  0  0  0
  1  2  1  0  0  0  0
  1 25  1  0  0  0  0
  1 26  1  0  0  0  0
  1 27  1  0  0  0  0
  2  3  1  0  0  0  0
  3  4  1  0  0  0  0
  3 28  1  0  0  0  0
  3 29  1  0  0  0  0
  4  5  1  0  0  0  0
  4 30  1  0  0  0  0
  4 31  1  0  0  0  0
  5 24  1  0  0  0  0
  5  6  1  0  0  0  0
  6  7  1  0  0  0  0
  6 18  2  0  0  0  0
  7  8  1  0  0  0  0
  8  9  1  0  0  0  0
  8 12  1  0  0  0  0
  8 32  1  0  0  0  0
  9 10  1  0  0  0  0
  9 11  2  0  0  0  0
 10 33  1  0  0  0  0
 10 34  1  0  0  0  0
 12 17  1  0  0  0  0
 12 13  2  0  0  0  0
 13 14  1  0  0  0  0
 13 35  1  0  0  0  0
 14 15  2  0  0  0  0
 14 36  1  0  0  0  0
 15 16  1  0  0  0  0
 15 37  1  0  0  0  0
 16 17  2  0  0  0  0
 16 38  1  0  0  0  0
 17 39  1  0  0  0  0
 18 19  1  0  0  0  0
 19 24  2  0  0  0  0
 19 20  1  0  0  0  0
 20 21  2  0  0  0  0
 20 40  1  0  0  0  0
 21 22  1  0  0  0  0
 21 41  1  0  0  0  0
 22 23  2  0  0  0  0
 22 42  1  0  0  0  0
 23 24  1  0  0  0  0
 23 43  1  0  0  0  0
M  END
> <s_m_source_file>
AV-unprocessed.smi

> <i_m_source_file_index>
525

> <i_lp_mmshare_version>
43012

> <i_f3d_flags>
0

> <s_epik_input>
W2NIXTFbY0hdW2NIXVtjSF1jKGMxMiluKFtDSDJdW0NIMl1PW0NIM10pYyhuMilTW0NASF0oQyg9TylbTkgyXSljM1tjSF1bY0hdW2NIXVtjSF1bY0hdMw==

> <s_epik_cmdline>
J2VwaWtfcHl0aG9uJywgJy1waCcsICc3LjAnLCAnLXRuJywgJzgnLCAnLW1hJywgJzIwMCcsICctbWV0YWxfYmluZGluZycsICctaW1hZScsICc8aW5maWxlLm1hZT4nLCAnLW9tYWUnLCAnPG91dGZpbGUubWFlPic=

> <r_epik_Ionization_Penalty>
0.0706634

> <r_epik_Ionization_Penalty_Charging>
0

> <r_epik_Ionization_Penalty_Neutral>
0.0706634

> <r_epik_State_Penalty>
0.0619781

> <r_epik_Charging_Adjusted_Penalty>
0.0619781

> <i_epik_Tot_Q>
0

> <i_epik_Tot_abs_Q>
0

> <r_epik_Metal_State_Penalty>
0.0552401

> <b_epik_Metal_Only>
0

> <s_lp_Force_Field>
OPLS_2005

> <r_lp_Energy>
10.3034

> <b_lp_Chiralities_Consistent>
1

> <s_lp_Variant>
AV-unprocessed.smi:525-2

> <Gold.Version>
5.8.1

> <Gold.Id.Protein>
6NUR|6NUR_protein|mol2

> <Gold.PLP.Fitness>
46.1605

> <Gold.PLP.PLP>
-42.3037

> <Gold.PLP.part.hbond>
-2.9650

> <Gold.PLP.part.metal>
0.0000

> <Gold.PLP.part.buried>
-2.5955

> <Gold.PLP.part.nonpolar>
-37.6419

> <Gold.PLP.part.repulsive>
0.3583

> <Gold.PLP.ligand.clash>
0.0000

> <Gold.PLP.ligand.torsion>
0.7866

> <Gold.PLP.Chemscore.Hbond>
1.7392

> <Gold.PLP.Chemscore.CHOScore>
0.0000

> <Gold.PLP.Chemscore.Metal>
0.0000

> <Gold.Chemscore.Hbonds>
donor molecule, donor type, donor heavy atom, donor atom, acceptor molecule, acceptor atom, score
      L1  H    10    33       P1  8028  0.29
      P1  H  7997  8008       L1     2  1.00
      P1  H  8011  8017       L1    11  0.46

> <Gold.PLP.Chemscore.Internal.Correction>
0.2124

> <Gold.Rescore>
     Score         DG    S(hbond)    S(metal)    S(lipo)     H(rot)  DE(clash)    DE(int)     intcor
     14.79     -17.98       1.51        0.00     117.03       2.44       0.11       3.08       ----

> <Gold.Chemscore.Fitness>
14.7909

> <Gold.Chemscore.DG>
-17.9840

> <Gold.Chemscore.ZeroCoef>
-5.4800

> <Gold.Chemscore.Hbond>
1.5139

> <Gold.Chemscore.Metal>
0.0000

> <Gold.Chemscore.Lipo>
117.0334

> <Gold.Chemscore.Internal_Hbond>
0.0000

> <Gold.Chemscore.DEClash>
0.1135

> <Gold.Chemscore.DEInternal>
3.0796

> <Gold.Chemscore.Rot>
2.4396

> <Gold.Chemscore.Internal.Correction>
   9.000000E+99

> <Gold.Chemscore.Hbonds>
donor molecule, donor type, donor heavy atom, donor atom, acceptor molecule, acceptor atom, score
      L1  H    10    33       P1  8028  0.02
      P1  H  7997  8008       L1     2  0.75
      P1  H  8011  8017       L1    11  0.45

> <Gold.Chemscore.Hbond.Weighted>
-5.0566

> <Gold.Chemscore.Metal.Weighted>
-0.0000

> <Gold.Chemscore.Lipo.Weighted>
-13.6929

> <Gold.Chemscore.Internal_Hbond.Weighted>
0.0000

> <Gold.Chemscore.DEClash.Weighted>
0.1135

> <Gold.Chemscore.DEInternal.Weighted>
3.0796

> <Gold.Chemscore.Rot.Weighted>
6.2454

> <Gold.Chemscore.Internal.Correction.Weighted>
   9.000000E+99

> <Gold.Protein.RotatedTorsions>
[ 6907 6896 6895 6894 ] final -134.84 input  -60.11 | X-H torsion
[ 7974 7965 7964 7962 ] final   29.65 input  175.53 | X-H torsion
[ 8008 7997 7996 7995 ] final -112.29 input   59.86 | X-H torsion
[ 10167 10162 10161 10158 ] final  -14.16 input  -65.29 | X-H torsion
[ 10718 10713 10712 10709 ] final -158.49 input   66.30 | X-H torsion
[ 10763 10752 10751 10750 ] final  -90.29 input  -60.55 | X-H torsion
[ 11005 11000 10999 10996 ] final   99.37 input  -57.11 | X-H torsion

> <Gold.Protein.ActiveResidues>
 VAL166  LYS551  ARG553  GLY616  TRP617  ASP618  TYR619  PRO620  LYS621  CYS622 
 ASP623  PHE694  ASN695  SER759  ASP760  ASP761  ALA762  ILE779  LEU786  VAL792 
 PHE793  MET794  SER795  GLU796  ALA797  LYS798  CYS799  TRP800  GLU811  SER814 

> <Gold.Protein.RotatedAtoms>
  150.9906  133.6153  159.2708 H   0  0  0  0  0  0  0  0  0  0  0  0  # atno 6907 bound_to 6896
  151.3375  135.0855  159.9369 H   0  0  0  0  0  0  0  0  0  0  0  0  # atno 6908 bound_to 6896
  152.5245  133.9524  159.7732 H   0  0  0  0  0  0  0  0  0  0  0  0  # atno 6909 bound_to 6896
  146.1659  139.6893  142.9002 H   0  0  0  0  0  0  0  0  0  0  0  0  # atno 7974 bound_to 7965
  155.0030  140.0394  157.2368 H   0  0  0  0  0  0  0  0  0  0  0  0  # atno 8008 bound_to 7997
  154.7527  140.2770  155.6256 H   0  0  0  0  0  0  0  0  0  0  0  0  # atno 8009 bound_to 7997
  156.2888  140.2644  156.2285 H   0  0  0  0  0  0  0  0  0  0  0  0  # atno 8010 bound_to 7997
  140.7196  143.5351  150.9474 H   0  0  0  0  0  0  0  0  0  0  0  0  # atno 10167 bound_to 10162
  156.5549  130.8622  151.2791 H   0  0  0  0  0  0  0  0  0  0  0  0  # atno 10718 bound_to 10713
  154.6642  135.5310  153.8056 H   0  0  0  0  0  0  0  0  0  0  0  0  # atno 10763 bound_to 10752
  153.0461  135.6513  154.0824 H   0  0  0  0  0  0  0  0  0  0  0  0  # atno 10764 bound_to 10752
  154.0730  135.2953  155.3284 H   0  0  0  0  0  0  0  0  0  0  0  0  # atno 10765 bound_to 10752
  139.8771  134.9092  156.4596 H   0  0  0  0  0  0  0  0  0  0  0  0  # atno 11005 bound_to 11000
  145.4469  141.0426  143.2826 LP  0  0  0  0  0  0  0  0  0  0  0  0  # atno 17320 bound_to 7965
  144.8091  139.5995  143.7037 LP  0  0  0  0  0  0  0  0  0  0  0  0  # atno 17321 bound_to 7965
  139.9072  143.6764  152.3121 LP  0  0  0  0  0  0  0  0  0  0  0  0  # atno 17342 bound_to 10162
  139.7134  144.7616  151.1074 LP  0  0  0  0  0  0  0  0  0  0  0  0  # atno 17343 bound_to 10162
  157.7380  130.9806  150.2227 LP  0  0  0  0  0  0  0  0  0  0  0  0  # atno 17370 bound_to 10713
  156.2851  130.3738  149.7897 LP  0  0  0  0  0  0  0  0  0  0  0  0  # atno 17371 bound_to 10713
  140.8873  133.7874  155.9533 LP  0  0  0  0  0  0  0  0  0  0  0  0  # atno 17394 bound_to 11000
  140.8791  134.2634  157.5153 LP  0  0  0  0  0  0  0  0  0  0  0  0  # atno 17395 bound_to 11000

$$$$
