AV-unprocessed.smi:160|AV-procd|sdf|1357|dock1
  -GOLD-   2262019 63D 1   1.00000     0.00000
 Structure written by MMmdl.
 29 30  0  0  0  0  0  0  0  0  1 V2000
  152.3239  137.9350  154.5006 N   0  0  0  0  0  0  0  0  0  0  0  0
  152.5850  138.7277  155.5451 C   0  0  0  0  0  0  0  0  0  0  0  0
  153.6315  138.6490  156.1865 O   0  0  0  0  0  0  0  0  0  0  0  0
  151.5221  139.7302  155.9000 C   0  0  0  0  0  0  0  0  0  0  0  0
  151.7136  140.6379  156.9028 N   0  0  0  0  0  0  0  0  0  0  0  0
  150.5483  141.2691  156.8380 C   0  0  0  0  0  0  0  0  0  0  0  0
  149.7255  140.8052  155.8919 N   0  0  0  0  0  0  0  0  0  0  0  0
  148.3433  141.2539  155.5194 C   0  0  2  0  0  0  0  0  0  0  0  0
  147.4432  140.2456  155.8735 O   0  0  0  0  0  0  0  0  0  0  0  0
  147.0436  139.5277  154.7102 C   0  0  1  0  0  0  0  0  0  0  0  0
  145.7109  138.8091  154.9701 C   0  0  0  0  0  0  0  0  0  0  0  0
  144.6523  139.7430  154.9850 O   0  0  0  0  0  0  0  0  0  0  0  0
  146.9461  140.6558  153.6823 C   0  0  2  0  0  0  0  0  0  0  0  0
  146.9193  140.1862  152.3472 O   0  0  0  0  0  0  0  0  0  0  0  0
  148.1662  141.5180  154.0041 C   0  0  2  0  0  0  0  0  0  0  0  0
  149.2982  141.1817  153.2153 O   0  0  0  0  0  0  0  0  0  0  0  0
  150.3532  139.7817  155.2594 N   0  0  0  0  0  0  0  0  0  0  0  0
  148.1707  142.1375  156.1349 H   0  0  0  0  0  0  0  0  0  0  0  0
  147.8211  138.8215  154.4126 H   0  0  0  0  0  0  0  0  0  0  0  0
  146.0418  141.2373  153.8689 H   0  0  0  0  0  0  0  0  0  0  0  0
  147.9456  142.5743  153.8473 H   0  0  0  0  0  0  0  0  0  0  0  0
  152.9983  137.2414  154.2134 H   0  0  0  0  0  0  0  0  0  0  0  0
  151.4496  138.0366  154.0052 H   0  0  0  0  0  0  0  0  0  0  0  0
  150.2902  142.0888  157.4922 H   0  0  0  0  0  0  0  0  0  0  0  0
  145.5246  138.0334  154.2268 H   0  0  0  0  0  0  0  0  0  0  0  0
  145.7307  138.3244  155.9466 H   0  0  0  0  0  0  0  0  0  0  0  0
  144.1874  139.6840  154.1644 H   0  0  0  0  0  0  0  0  0  0  0  0
  147.8056  140.1614  152.0207 H   0  0  0  0  0  0  0  0  0  0  0  0
  149.0446  140.5231  152.5868 H   0  0  0  0  0  0  0  0  0  0  0  0
  1  2  1  0  0  0  0
  1 22  1  0  0  0  0
  1 23  1  0  0  0  0
  2  3  2  0  0  0  0
  2  4  1  0  0  0  0
  4 17  2  0  0  0  0
  4  5  1  0  0  0  0
  5  6  2  0  0  0  0
  6  7  1  0  0  0  0
  6 24  1  0  0  0  0
  7  8  1  0  0  0  0
  7 17  1  0  0  0  0
  8 18  1  0  0  0  0
  8 15  1  0  0  0  0
  8  9  1  0  0  0  0
  9 10  1  0  0  0  0
 10 19  1  0  0  0  0
 10 11  1  0  0  0  0
 10 13  1  0  0  0  0
 11 12  1  0  0  0  0
 11 25  1  0  0  0  0
 11 26  1  0  0  0  0
 12 27  1  0  0  0  0
 13 20  1  0  0  0  0
 13 14  1  0  0  0  0
 13 15  1  0  0  0  0
 14 28  1  0  0  0  0
 15 21  1  0  0  0  0
 15 16  1  0  0  0  0
 16 29  1  0  0  0  0
M  END
> <s_m_source_file>
AV-unprocessed.smi

> <i_m_source_file_index>
160

> <i_lp_mmshare_version>
43012

> <i_f3d_flags>
0

> <s_epik_input>
W05IMl1DKD1PKWMxbltjSF1uKG4xKVtDQEBIXTJPW0NASF0oW0NIMl1bT0hdKVtDQEBIXShbT0hdKVtDQEhdMltPSF0=

> <s_epik_cmdline>
J2VwaWtfcHl0aG9uJywgJy1waCcsICc3LjAnLCAnLXRuJywgJzgnLCAnLW1hJywgJzIwMCcsICctbWV0YWxfYmluZGluZycsICctaW1hZScsICc8aW5maWxlLm1hZT4nLCAnLW9tYWUnLCAnPG91dGZpbGUubWFlPic=

> <r_lp_tautomer_probability>
1

> <r_epik_Ionization_Penalty>
1.06932e-05

> <r_epik_Ionization_Penalty_Charging>
0

> <r_epik_Ionization_Penalty_Neutral>
1.06932e-05

> <r_epik_State_Penalty>
-0

> <r_epik_Charging_Adjusted_Penalty>
0

> <i_epik_Tot_Q>
0

> <i_epik_Tot_abs_Q>
0

> <r_epik_Metal_State_Penalty>
0.0142097

> <b_epik_Metal_Only>
0

> <s_epik_Chemistry_Notes>
This compound contains an acetal/aminal-like group ( X-CH(R)-Y where X, Y are N, S, or O) that may be acid/base labile, releasing an aldehyde.

> <s_lp_Force_Field>
OPLS_2005

> <r_lp_Energy>
46.1783

> <b_lp_Chiralities_Consistent>
1

> <s_lp_Variant>
AV-unprocessed.smi:160-15

> <Gold.Version>
5.8.1

> <Gold.Id.Protein>
6NUR|6NUR_protein|mol2

> <Gold.PLP.Fitness>
37.9204

> <Gold.PLP.PLP>
-24.8111

> <Gold.PLP.part.hbond>
-5.5199

> <Gold.PLP.part.metal>
0.0000

> <Gold.PLP.part.buried>
-4.3682

> <Gold.PLP.part.nonpolar>
-15.7585

> <Gold.PLP.part.repulsive>
0.2491

> <Gold.PLP.ligand.clash>
0.0000

> <Gold.PLP.ligand.torsion>
0.3061

> <Gold.PLP.Chemscore.Hbond>
4.5685

> <Gold.PLP.Chemscore.CHOScore>
0.0000

> <Gold.PLP.Chemscore.Metal>
0.0000

> <Gold.Chemscore.Hbonds>
donor molecule, donor type, donor heavy atom, donor atom, acceptor molecule, acceptor atom, score
      L1  H    12    27       P1 10175  1.00
      L1  H    14    28       P1  7957  1.00
      L1  H    16    29       P1  7957  0.69
      P1  H  7989  7998       L1    16  0.03
      P1  H  7997  8009       L1     3  0.78
      P1  H  8011  8017       L1    16  1.00

> <Gold.PLP.Chemscore.Internal.Correction>
0.0161

> <Gold.Rescore>
     Score         DG    S(hbond)    S(metal)    S(lipo)     H(rot)  DE(clash)    DE(int)     intcor
      8.49     -10.24       3.87        0.00      19.04       4.06       0.02       1.73       ----

> <Gold.Chemscore.Fitness>
8.4896

> <Gold.Chemscore.DG>
-10.2446

> <Gold.Chemscore.ZeroCoef>
-5.4800

> <Gold.Chemscore.Hbond>
3.8713

> <Gold.Chemscore.Metal>
0.0000

> <Gold.Chemscore.Lipo>
19.0448

> <Gold.Chemscore.Internal_Hbond>
0.0000

> <Gold.Chemscore.DEClash>
0.0239

> <Gold.Chemscore.DEInternal>
1.7312

> <Gold.Chemscore.Rot>
4.0600

> <Gold.Chemscore.Internal.Correction>
   9.000000E+99

> <Gold.Chemscore.Hbonds>
donor molecule, donor type, donor heavy atom, donor atom, acceptor molecule, acceptor atom, score
      L1  H    12    27       P1 10175  0.94
      L1  H    14    28       P1  7957  0.98
      L1  H    16    29       P1  7957  0.69
      P1  H  7989  7998       L1    16  0.01
      P1  H  7997  8009       L1     3  0.70
      P1  H  8011  8017       L1    16  0.36

> <Gold.Chemscore.Hbond.Weighted>
-12.9300

> <Gold.Chemscore.Metal.Weighted>
-0.0000

> <Gold.Chemscore.Lipo.Weighted>
-2.2282

> <Gold.Chemscore.Internal_Hbond.Weighted>
0.0000

> <Gold.Chemscore.DEClash.Weighted>
0.0239

> <Gold.Chemscore.DEInternal.Weighted>
1.7312

> <Gold.Chemscore.Rot.Weighted>
10.3936

> <Gold.Chemscore.Internal.Correction.Weighted>
   9.000000E+99

> <Gold.Protein.RotatedTorsions>
[ 6907 6896 6895 6894 ] final  -27.10 input  -60.11 | X-H torsion
[ 7974 7965 7964 7962 ] final    6.38 input  175.53 | X-H torsion
[ 8008 7997 7996 7995 ] final -166.79 input   59.86 | X-H torsion
[ 10167 10162 10161 10158 ] final  169.65 input  -65.29 | X-H torsion
[ 10718 10713 10712 10709 ] final -130.17 input   66.30 | X-H torsion
[ 10763 10752 10751 10750 ] final   96.04 input  -60.55 | X-H torsion
[ 11005 11000 10999 10996 ] final  169.00 input  -57.11 | X-H torsion

> <Gold.Protein.ActiveResidues>
 VAL166  LYS551  ARG553  GLY616  TRP617  ASP618  TYR619  PRO620  LYS621  CYS622 
 ASP623  PHE694  ASN695  SER759  ASP760  ASP761  ALA762  ILE779  LEU786  VAL792 
 PHE793  MET794  SER795  GLU796  ALA797  LYS798  CYS799  TRP800  GLU811  SER814 

> <Gold.Protein.RotatedAtoms>
  151.1516  135.0230  159.8670 H   0  0  0  0  0  0  0  0  0  0  0  0  # atno 6907 bound_to 6896
  152.5452  134.1382  159.8478 H   0  0  0  0  0  0  0  0  0  0  0  0  # atno 6908 bound_to 6896
  151.1468  133.4888  159.2628 H   0  0  0  0  0  0  0  0  0  0  0  0  # atno 6909 bound_to 6896
  146.2435  140.0242  142.8395 H   0  0  0  0  0  0  0  0  0  0  0  0  # atno 7974 bound_to 7965
  155.8687  140.0990  157.1565 H   0  0  0  0  0  0  0  0  0  0  0  0  # atno 8008 bound_to 7997
  154.3995  140.1351  156.4113 H   0  0  0  0  0  0  0  0  0  0  0  0  # atno 8009 bound_to 7997
  155.7775  140.3459  155.5282 H   0  0  0  0  0  0  0  0  0  0  0  0  # atno 8010 bound_to 7997
  139.4998  144.3683  151.9752 H   0  0  0  0  0  0  0  0  0  0  0  0  # atno 10167 bound_to 10162
  156.2118  130.6923  151.0658 H   0  0  0  0  0  0  0  0  0  0  0  0  # atno 10718 bound_to 10713
  153.2602  135.4233  155.0886 H   0  0  0  0  0  0  0  0  0  0  0  0  # atno 10763 bound_to 10752
  154.8417  135.3447  154.6388 H   0  0  0  0  0  0  0  0  0  0  0  0  # atno 10764 bound_to 10752
  153.6808  135.7039  153.5175 H   0  0  0  0  0  0  0  0  0  0  0  0  # atno 10765 bound_to 10752
  140.2931  134.7657  157.3855 H   0  0  0  0  0  0  0  0  0  0  0  0  # atno 11005 bound_to 11000
  145.1213  140.9464  143.4599 LP  0  0  0  0  0  0  0  0  0  0  0  0  # atno 17320 bound_to 7965
  145.0478  139.3206  143.5944 LP  0  0  0  0  0  0  0  0  0  0  0  0  # atno 17321 bound_to 7965
  140.3119  144.3528  150.6032 LP  0  0  0  0  0  0  0  0  0  0  0  0  # atno 17342 bound_to 10162
  140.5792  143.2174  151.7459 LP  0  0  0  0  0  0  0  0  0  0  0  0  # atno 17343 bound_to 10162
  157.7042  131.0763  150.6720 LP  0  0  0  0  0  0  0  0  0  0  0  0  # atno 17370 bound_to 10713
  156.6780  130.4559  149.5636 LP  0  0  0  0  0  0  0  0  0  0  0  0  # atno 17371 bound_to 10713
  140.1177  134.5261  155.8210 LP  0  0  0  0  0  0  0  0  0  0  0  0  # atno 17394 bound_to 11000
  141.2142  133.6745  156.6808 LP  0  0  0  0  0  0  0  0  0  0  0  0  # atno 17395 bound_to 11000

$$$$
