AV-unprocessed.smi:896|AV-procd|sdf|4078|dock1
  -GOLD-   22720 1563D 1   1.00000     0.00000
 Structure written by MMmdl.
 49 50  0  0  0  0  0  0  0  0  2 V2000
  155.3601  142.5134  164.8015 C   0  0  0  0  0  0  0  0  0  0  0  0
  154.2340  143.2181  164.2898 O   0  0  0  0  0  0  0  0  0  0  0  0
  153.7311  142.8440  163.0603 C   0  0  0  0  0  0  0  0  0  0  0  0
  152.5711  143.4833  162.5825 C   0  0  0  0  0  0  0  0  0  0  0  0
  152.0551  143.1068  161.3284 C   0  0  0  0  0  0  0  0  0  0  0  0
  152.7215  142.1062  160.5817 C   0  0  0  0  0  0  0  0  0  0  0  0
  152.2589  141.6469  159.3177 N   0  0  0  0  0  0  0  0  0  0  0  0
  151.1182  141.9732  158.6873 C   0  0  0  0  0  0  0  0  0  0  0  0
  150.2654  142.7503  159.1180 O   0  0  0  0  0  0  0  0  0  0  0  0
  151.0283  141.3632  157.4967 N   0  0  0  0  0  0  0  0  0  0  0  0
  149.9300  141.5379  156.5537 C   0  0  0  0  0  0  0  0  0  0  0  0
  149.3403  140.1813  156.1243 C   0  0  0  0  0  0  0  0  0  0  0  0
  149.5260  139.8538  154.6251 C   0  0  2  0  0  0  0  0  0  0  0  0
  148.4533  138.8726  154.1126 C   0  0  0  0  0  0  0  0  0  0  0  0
  148.6797  137.4399  154.6303 C   0  0  0  0  0  0  0  0  0  0  0  0
  150.0370  136.9513  154.2811 N   0  3  2  0  0  0  0  0  0  0  0  0
  150.2462  135.5429  154.6799 C   0  0  0  0  0  0  0  0  0  0  0  0
  151.1057  137.8466  154.7899 C   0  0  0  0  0  0  0  0  0  0  0  0
  150.9166  139.2839  154.2726 C   0  0  0  0  0  0  0  0  0  0  0  0
  153.8716  141.5127  161.1556 C   0  0  0  0  0  0  0  0  0  0  0  0
  154.6411  140.4193  160.4355 C   0  0  0  0  0  0  0  0  0  0  0  0
  154.3673  141.8735  162.3595 N   0  0  0  0  0  0  0  0  0  0  0  0
  155.6359  142.9286  165.7709 H   0  0  0  0  0  0  0  0  0  0  0  0
  156.2245  142.6099  164.1428 H   0  0  0  0  0  0  0  0  0  0  0  0
  155.1364  141.4555  164.9467 H   0  0  0  0  0  0  0  0  0  0  0  0
  152.0818  144.2464  163.1700 H   0  0  0  0  0  0  0  0  0  0  0  0
  151.1534  143.5791  160.9692 H   0  0  0  0  0  0  0  0  0  0  0  0
  152.9078  141.0734  158.7990 H   0  0  0  0  0  0  0  0  0  0  0  0
  151.7737  140.7407  157.2207 H   0  0  0  0  0  0  0  0  0  0  0  0
  149.1614  142.1440  157.0338 H   0  0  0  0  0  0  0  0  0  0  0  0
  150.2836  142.1080  155.6943 H   0  0  0  0  0  0  0  0  0  0  0  0
  149.7644  139.3868  156.7376 H   0  0  0  0  0  0  0  0  0  0  0  0
  148.2733  140.1900  156.3516 H   0  0  0  0  0  0  0  0  0  0  0  0
  149.3990  140.7890  154.0781 H   0  0  0  0  0  0  0  0  0  0  0  0
  147.4575  139.2179  154.3926 H   0  0  0  0  0  0  0  0  0  0  0  0
  148.4707  138.8613  153.0221 H   0  0  0  0  0  0  0  0  0  0  0  0
  148.5395  137.3964  155.7110 H   0  0  0  0  0  0  0  0  0  0  0  0
  147.9335  136.7761  154.1919 H   0  0  0  0  0  0  0  0  0  0  0  0
  150.1937  135.4318  155.7639 H   0  0  0  0  0  0  0  0  0  0  0  0
  151.2224  135.1891  154.3467 H   0  0  0  0  0  0  0  0  0  0  0  0
  149.4887  134.8989  154.2324 H   0  0  0  0  0  0  0  0  0  0  0  0
  151.1160  137.8288  155.8805 H   0  0  0  0  0  0  0  0  0  0  0  0
  152.0764  137.4715  154.4634 H   0  0  0  0  0  0  0  0  0  0  0  0
  151.0328  139.2835  153.1878 H   0  0  0  0  0  0  0  0  0  0  0  0
  151.7126  139.9247  154.6493 H   0  0  0  0  0  0  0  0  0  0  0  0
  154.9818  140.7726  159.4618 H   0  0  0  0  0  0  0  0  0  0  0  0
  154.0060  139.5462  160.2835 H   0  0  0  0  0  0  0  0  0  0  0  0
  155.5172  140.1038  161.0036 H   0  0  0  0  0  0  0  0  0  0  0  0
  150.0991  136.9756  153.2732 H   0  0  0  0  0  0  0  0  0  0  0  0
  1  2  1  0  0  0  0
  1 23  1  0  0  0  0
  1 24  1  0  0  0  0
  1 25  1  0  0  0  0
  2  3  1  0  0  0  0
  3 22  1  0  0  0  0
  3  4  2  0  0  0  0
  4  5  1  0  0  0  0
  4 26  1  0  0  0  0
  5  6  2  0  0  0  0
  5 27  1  0  0  0  0
  6  7  1  0  0  0  0
  6 20  1  0  0  0  0
  7  8  1  0  0  0  0
  7 28  1  0  0  0  0
  8  9  2  0  0  0  0
  8 10  1  0  0  0  0
 10 11  1  0  0  0  0
 10 29  1  0  0  0  0
 11 12  1  0  0  0  0
 11 30  1  0  0  0  0
 11 31  1  0  0  0  0
 12 13  1  0  0  0  0
 12 32  1  0  0  0  0
 12 33  1  0  0  0  0
 13 19  1  0  0  0  0
 13 14  1  0  0  0  0
 13 34  1  0  0  0  0
 14 15  1  0  0  0  0
 14 35  1  0  0  0  0
 14 36  1  0  0  0  0
 15 16  1  0  0  0  0
 15 37  1  0  0  0  0
 15 38  1  0  0  0  0
 16 17  1  0  0  0  0
 16 18  1  0  0  0  0
 16 49  1  0  0  0  0
 17 39  1  0  0  0  0
 17 40  1  0  0  0  0
 17 41  1  0  0  0  0
 18 19  1  0  0  0  0
 18 42  1  0  0  0  0
 18 43  1  0  0  0  0
 19 44  1  0  0  0  0
 19 45  1  0  0  0  0
 20 21  1  0  0  0  0
 20 22  2  0  0  0  0
 21 46  1  0  0  0  0
 21 47  1  0  0  0  0
 21 48  1  0  0  0  0
M  CHG  1  16   1
M  END
> <s_m_source_file>
AV-unprocessed.smi

> <i_m_source_file_index>
896

> <i_lp_mmshare_version>
43012

> <i_f3d_flags>
0

> <s_epik_input>
W0NIM11PYzFbY0hdW2NIXWMoYyhuMSlbQ0gzXSlbTkhdQyg9TylbTkhdW0NIMl1bQ0gyXVtDSF0yW0NIMl1bQ0gyXU4oW0NIM10pW0NIMl1bQ0gyXTI=

> <s_epik_cmdline>
J2VwaWtfcHl0aG9uJywgJy1waCcsICc3LjAnLCAnLXRuJywgJzgnLCAnLW1hJywgJzIwMCcsICctbWV0YWxfYmluZGluZycsICctaW1hZScsICc8aW5maWxlLm1hZT4nLCAnLW9tYWUnLCAnPG91dGZpbGUubWFlPic=

> <r_lp_tautomer_probability>
1

> <r_epik_Ionization_Penalty>
0.000968128

> <r_epik_Ionization_Penalty_Charging>
0.000718523

> <r_epik_Ionization_Penalty_Neutral>
0.000249604

> <r_epik_State_Penalty>
0.00045807

> <r_epik_Charging_Adjusted_Penalty>
0.00117659

> <i_epik_Tot_Q>
1

> <i_epik_Tot_abs_Q>
1

> <r_epik_Metal_State_Penalty>
-0

> <b_epik_Metal_Only>
0

> <s_lp_Force_Field>
OPLS_2005

> <r_lp_Energy>
21.0963

> <b_lp_Chiralities_Consistent>
1

> <s_lp_Variant>
AV-unprocessed.smi:896-2

> <Gold.Version>
5.8.1

> <Gold.Id.Protein>
6NUR|6NUR_protein|mol2

> <Gold.PLP.Fitness>
48.1292

> <Gold.PLP.PLP>
-43.3235

> <Gold.PLP.part.hbond>
-2.0000

> <Gold.PLP.part.metal>
0.0000

> <Gold.PLP.part.buried>
-5.2228

> <Gold.PLP.part.nonpolar>
-35.2083

> <Gold.PLP.part.repulsive>
0.3288

> <Gold.PLP.ligand.clash>
0.0000

> <Gold.PLP.ligand.torsion>
0.6650

> <Gold.PLP.Chemscore.Hbond>
1.9840

> <Gold.PLP.Chemscore.CHOScore>
0.0000

> <Gold.PLP.Chemscore.Metal>
0.0000

> <Gold.Chemscore.Hbonds>
donor molecule, donor type, donor heavy atom, donor atom, acceptor molecule, acceptor atom, score
      L1  H    16    49       P1  7948  1.01

> <Gold.PLP.Chemscore.Internal.Correction>
0.1838

> <Gold.Rescore>
     Score         DG    S(hbond)    S(metal)    S(lipo)     H(rot)  DE(clash)    DE(int)     intcor
     14.86     -16.80       0.99        0.00     104.58       1.65       0.05       1.90       ----

> <Gold.Chemscore.Fitness>
14.8580

> <Gold.Chemscore.DG>
-16.8040

> <Gold.Chemscore.ZeroCoef>
-5.4800

> <Gold.Chemscore.Hbond>
0.9932

> <Gold.Chemscore.Metal>
0.0000

> <Gold.Chemscore.Lipo>
104.5807

> <Gold.Chemscore.Internal_Hbond>
0.0000

> <Gold.Chemscore.DEClash>
0.0499

> <Gold.Chemscore.DEInternal>
1.8961

> <Gold.Chemscore.Rot>
1.6521

> <Gold.Chemscore.Internal.Correction>
   9.000000E+99

> <Gold.Chemscore.Hbonds>
donor molecule, donor type, donor heavy atom, donor atom, acceptor molecule, acceptor atom, score
      L1  H    16    49       P1  7948  0.06

> <Gold.Chemscore.Hbond.Weighted>
-3.3174

> <Gold.Chemscore.Metal.Weighted>
-0.0000

> <Gold.Chemscore.Lipo.Weighted>
-12.2359

> <Gold.Chemscore.Internal_Hbond.Weighted>
0.0000

> <Gold.Chemscore.DEClash.Weighted>
0.0499

> <Gold.Chemscore.DEInternal.Weighted>
1.8961

> <Gold.Chemscore.Rot.Weighted>
4.2294

> <Gold.Chemscore.Internal.Correction.Weighted>
   9.000000E+99

> <Gold.Protein.RotatedTorsions>
[ 6907 6896 6895 6894 ] final  108.23 input  -60.11 | X-H torsion
[ 7974 7965 7964 7962 ] final   29.26 input  175.53 | X-H torsion
[ 8008 7997 7996 7995 ] final  -51.30 input   59.86 | X-H torsion
[ 10167 10162 10161 10158 ] final -177.24 input  -65.29 | X-H torsion
[ 10718 10713 10712 10709 ] final   18.05 input   66.30 | X-H torsion
[ 10763 10752 10751 10750 ] final  -68.55 input  -60.55 | X-H torsion
[ 11005 11000 10999 10996 ] final  108.39 input  -57.11 | X-H torsion

> <Gold.Protein.ActiveResidues>
 VAL166  LYS551  ARG553  GLY616  TRP617  ASP618  TYR619  PRO620  LYS621  CYS622 
 ASP623  PHE694  ASN695  SER759  ASP760  ASP761  ALA762  ILE779  LEU786  VAL792 
 PHE793  MET794  SER795  GLU796  ALA797  LYS798  CYS799  TRP800  GLU811  SER814 

> <Gold.Protein.RotatedAtoms>
  152.5121  133.9119  159.7491 H   0  0  0  0  0  0  0  0  0  0  0  0  # atno 6907 bound_to 6896
  150.9510  133.6541  159.2779 H   0  0  0  0  0  0  0  0  0  0  0  0  # atno 6908 bound_to 6896
  151.3819  135.0946  159.9551 H   0  0  0  0  0  0  0  0  0  0  0  0  # atno 6909 bound_to 6896
  146.1681  139.6945  142.8986 H   0  0  0  0  0  0  0  0  0  0  0  0  # atno 7974 bound_to 7965
  154.4080  140.1251  156.4806 H   0  0  0  0  0  0  0  0  0  0  0  0  # atno 8008 bound_to 7997
  155.7088  140.3494  155.4945 H   0  0  0  0  0  0  0  0  0  0  0  0  # atno 8009 bound_to 7997
  155.9319  140.1071  157.1116 H   0  0  0  0  0  0  0  0  0  0  0  0  # atno 8010 bound_to 7997
  139.5490  144.2160  152.1041 H   0  0  0  0  0  0  0  0  0  0  0  0  # atno 10167 bound_to 10162
  157.0909  130.6427  149.5848 H   0  0  0  0  0  0  0  0  0  0  0  0  # atno 10718 bound_to 10713
  154.3907  135.6053  153.5841 H   0  0  0  0  0  0  0  0  0  0  0  0  # atno 10763 bound_to 10752
  152.9787  135.5883  154.4301 H   0  0  0  0  0  0  0  0  0  0  0  0  # atno 10764 bound_to 10752
  154.4085  135.2844  155.2030 H   0  0  0  0  0  0  0  0  0  0  0  0  # atno 10765 bound_to 10752
  139.8843  134.9429  156.5964 H   0  0  0  0  0  0  0  0  0  0  0  0  # atno 11005 bound_to 11000
  145.4412  141.0422  143.2856 LP  0  0  0  0  0  0  0  0  0  0  0  0  # atno 17320 bound_to 7965
  144.8123  139.5940  143.7024 LP  0  0  0  0  0  0  0  0  0  0  0  0  # atno 17321 bound_to 7965
  140.1652  144.4988  150.6610 LP  0  0  0  0  0  0  0  0  0  0  0  0  # atno 17342 bound_to 10162
  140.6747  143.2300  151.5538 LP  0  0  0  0  0  0  0  0  0  0  0  0  # atno 17343 bound_to 10162
  155.9898  130.4947  150.7231 LP  0  0  0  0  0  0  0  0  0  0  0  0  # atno 17370 bound_to 10713
  157.4722  131.0894  151.0630 LP  0  0  0  0  0  0  0  0  0  0  0  0  # atno 17371 bound_to 10713
  140.7916  133.8577  155.8651 LP  0  0  0  0  0  0  0  0  0  0  0  0  # atno 17394 bound_to 11000
  140.9672  134.1579  157.4606 LP  0  0  0  0  0  0  0  0  0  0  0  0  # atno 17395 bound_to 11000

$$$$
