AV-unprocessed.smi:438|AV-procd|sdf|2563|dock6
  -GOLD-   2262022533D 1   1.00000     0.00000
 Structure written by MMmdl.
 48 49  0  0  0  0  0  0  0  0  1 V2000
  151.8817  139.7937  155.1493 C   0  0  0  0  0  0  0  0  0  0  0  0
  151.8508  138.8285  156.3211 C   0  0  0  0  0  0  0  0  0  0  0  0
  152.9142  138.9398  157.2255 N   0  0  0  0  0  0  0  0  0  0  0  0
  152.9724  138.1621  158.2590 C   0  0  0  0  0  0  0  0  0  0  0  0
  154.2213  138.0936  159.5749 S   0  0  0  0  0  0  0  0  0  0  0  0
  153.5492  139.2930  160.7593 C   0  0  0  0  0  0  0  0  0  0  0  0
  153.6794  140.7316  160.2659 C   0  0  0  0  0  0  0  0  0  0  0  0
  154.7832  141.1774  159.9531 O   0  0  0  0  0  0  0  0  0  0  0  0
  152.5463  141.4480  160.2043 N   0  0  0  0  0  0  0  0  0  0  0  0
  152.4422  142.8353  159.7569 C   0  0  2  0  0  0  0  0  0  0  0  0
  152.1849  143.7551  160.9698 C   0  0  0  0  0  0  0  0  0  0  0  0
  151.9954  145.2180  160.5444 C   0  0  0  0  0  0  0  0  0  0  0  0
  150.8681  145.3483  159.5117 C   0  0  0  0  0  0  0  0  0  0  0  0
  151.1330  144.4519  158.2931 C   0  0  0  0  0  0  0  0  0  0  0  0
  151.3215  142.9753  158.6959 C   0  0  1  0  0  0  0  0  0  0  0  0
  151.5751  142.1054  157.4513 C   0  0  0  0  0  0  0  0  0  0  0  0
  151.9808  137.2058  158.4817 N   0  0  0  0  0  0  0  0  0  0  0  0
  150.9204  137.0133  157.6659 C   0  0  0  0  0  0  0  0  0  0  0  0
  150.0888  136.1430  157.9186 O   0  0  0  0  0  0  0  0  0  0  0  0
  150.8641  137.9054  156.4958 C   0  0  0  0  0  0  0  0  0  0  0  0
  149.6792  137.7580  155.5452 C   0  0  0  0  0  0  0  0  0  0  0  0
  149.7045  136.4197  154.7928 C   0  0  0  0  0  0  0  0  0  0  0  0
  150.9950  136.1883  154.2717 O   0  0  0  0  0  0  0  0  0  0  0  0
  151.7655  139.2598  154.2059 H   0  0  0  0  0  0  0  0  0  0  0  0
  152.8259  140.3381  155.1089 H   0  0  0  0  0  0  0  0  0  0  0  0
  151.0765  140.5233  155.2378 H   0  0  0  0  0  0  0  0  0  0  0  0
  154.0604  139.1749  161.7160 H   0  0  0  0  0  0  0  0  0  0  0  0
  152.4947  139.0739  160.9301 H   0  0  0  0  0  0  0  0  0  0  0  0
  151.6872  140.9971  160.4833 H   0  0  0  0  0  0  0  0  0  0  0  0
  153.3848  143.1307  159.2915 H   0  0  0  0  0  0  0  0  0  0  0  0
  151.2966  143.4188  161.5063 H   0  0  0  0  0  0  0  0  0  0  0  0
  153.0136  143.6882  161.6759 H   0  0  0  0  0  0  0  0  0  0  0  0
  151.7741  145.8335  161.4168 H   0  0  0  0  0  0  0  0  0  0  0  0
  152.9257  145.6006  160.1225 H   0  0  0  0  0  0  0  0  0  0  0  0
  149.9169  145.0740  159.9696 H   0  0  0  0  0  0  0  0  0  0  0  0
  150.7719  146.3874  159.1957 H   0  0  0  0  0  0  0  0  0  0  0  0
  150.3046  144.5432  157.5896 H   0  0  0  0  0  0  0  0  0  0  0  0
  152.0215  144.8070  157.7689 H   0  0  0  0  0  0  0  0  0  0  0  0
  150.3866  142.6366  159.1457 H   0  0  0  0  0  0  0  0  0  0  0  0
  152.5138  142.3745  156.9660 H   0  0  0  0  0  0  0  0  0  0  0  0
  150.7763  142.2282  156.7194 H   0  0  0  0  0  0  0  0  0  0  0  0
  151.6222  141.0453  157.7013 H   0  0  0  0  0  0  0  0  0  0  0  0
  152.0570  136.6141  159.2964 H   0  0  0  0  0  0  0  0  0  0  0  0
  149.6675  138.5797  154.8294 H   0  0  0  0  0  0  0  0  0  0  0  0
  148.7480  137.8555  156.1054 H   0  0  0  0  0  0  0  0  0  0  0  0
  149.4378  135.5978  155.4579 H   0  0  0  0  0  0  0  0  0  0  0  0
  148.9864  136.4224  153.9721 H   0  0  0  0  0  0  0  0  0  0  0  0
  150.9978  136.4292  153.3580 H   0  0  0  0  0  0  0  0  0  0  0  0
  1 24  1  0  0  0  0
  1 25  1  0  0  0  0
  1 26  1  0  0  0  0
  1  2  1  0  0  0  0
  2 20  2  0  0  0  0
  2  3  1  0  0  0  0
  3  4  2  0  0  0  0
  4  5  1  0  0  0  0
  4 17  1  0  0  0  0
  5  6  1  0  0  0  0
  6  7  1  0  0  0  0
  6 27  1  0  0  0  0
  6 28  1  0  0  0  0
  7  8  2  0  0  0  0
  7  9  1  0  0  0  0
  9 10  1  0  0  0  0
  9 29  1  0  0  0  0
 10 15  1  0  0  0  0
 10 11  1  0  0  0  0
 10 30  1  0  0  0  0
 11 12  1  0  0  0  0
 11 31  1  0  0  0  0
 11 32  1  0  0  0  0
 12 13  1  0  0  0  0
 12 33  1  0  0  0  0
 12 34  1  0  0  0  0
 13 14  1  0  0  0  0
 13 35  1  0  0  0  0
 13 36  1  0  0  0  0
 14 15  1  0  0  0  0
 14 37  1  0  0  0  0
 14 38  1  0  0  0  0
 15 16  1  0  0  0  0
 15 39  1  0  0  0  0
 16 40  1  0  0  0  0
 16 41  1  0  0  0  0
 16 42  1  0  0  0  0
 17 43  1  0  0  0  0
 17 18  1  0  0  0  0
 18 19  2  0  0  0  0
 18 20  1  0  0  0  0
 20 21  1  0  0  0  0
 21 22  1  0  0  0  0
 21 44  1  0  0  0  0
 21 45  1  0  0  0  0
 22 23  1  0  0  0  0
 22 46  1  0  0  0  0
 22 47  1  0  0  0  0
 23 48  1  0  0  0  0
M  END
> <s_m_source_file>
AV-unprocessed.smi

> <i_m_source_file_index>
438

> <i_lp_mmshare_version>
43012

> <i_f3d_flags>
0

> <s_epik_input>
W09IXVtDSDJdW0NIMl1jMWMoW09IXSluYyhuYzFbQ0gzXSlTW0NIMl1DKD1PKVtOSF1bQ0BASF0yW0NIMl1bQ0gyXVtDSDJdW0NIMl1bQ0BIXTJbQ0gzXQ==

> <s_epik_cmdline>
J2VwaWtfcHl0aG9uJywgJy1waCcsICc3LjAnLCAnLXRuJywgJzgnLCAnLW1hJywgJzIwMCcsICctbWV0YWxfYmluZGluZycsICctaW1hZScsICc8aW5maWxlLm1hZT4nLCAnLW9tYWUnLCAnPG91dGZpbGUubWFlPic=

> <r_lp_tautomer_probability>
0.660323

> <r_epik_Ionization_Penalty>
0.00860626

> <r_epik_Ionization_Penalty_Charging>
0.00860522

> <r_epik_Ionization_Penalty_Neutral>
1.04215e-06

> <r_epik_State_Penalty>
0.156825

> <r_epik_Charging_Adjusted_Penalty>
0.16543

> <i_epik_Tot_Q>
0

> <i_epik_Tot_abs_Q>
0

> <r_epik_Metal_State_Penalty>
0.752038

> <b_epik_Metal_Only>
0

> <s_lp_Force_Field>
OPLS_2005

> <r_lp_Energy>
14.035

> <b_lp_Chiralities_Consistent>
1

> <s_lp_Variant>
AV-unprocessed.smi:438-1

> <Gold.Version>
5.8.1

> <Gold.Id.Protein>
6NUR|6NUR_protein|mol2

> <Gold.PLP.Fitness>
49.1306

> <Gold.PLP.PLP>
-38.9993

> <Gold.PLP.part.hbond>
-4.1382

> <Gold.PLP.part.metal>
0.0000

> <Gold.PLP.part.buried>
-3.7177

> <Gold.PLP.part.nonpolar>
-30.8704

> <Gold.PLP.part.repulsive>
0.2035

> <Gold.PLP.ligand.clash>
0.0000

> <Gold.PLP.ligand.torsion>
0.6287

> <Gold.PLP.Chemscore.Hbond>
3.7753

> <Gold.PLP.Chemscore.CHOScore>
0.0000

> <Gold.PLP.Chemscore.Metal>
0.0000

> <Gold.Chemscore.Hbonds>
donor molecule, donor type, donor heavy atom, donor atom, acceptor molecule, acceptor atom, score
      L1  H    23    48       P1  7949  0.95
      P1  H  6896  6907       L1    19  0.30
      P1  H  7997  8009       L1     3  1.00
      P1  H 10752 10763       L1    23  0.99

> <Gold.PLP.Chemscore.Internal.Correction>
0.0630

> <Gold.Rescore>
     Score         DG    S(hbond)    S(metal)    S(lipo)     H(rot)  DE(clash)    DE(int)     intcor
     19.96     -20.71       2.90        0.00     109.94       2.86       0.11       0.64       ----

> <Gold.Chemscore.Fitness>
19.9572

> <Gold.Chemscore.DG>
-20.7114

> <Gold.Chemscore.ZeroCoef>
-5.4800

> <Gold.Chemscore.Hbond>
2.9047

> <Gold.Chemscore.Metal>
0.0000

> <Gold.Chemscore.Lipo>
109.9373

> <Gold.Chemscore.Internal_Hbond>
0.0000

> <Gold.Chemscore.DEClash>
0.1100

> <Gold.Chemscore.DEInternal>
0.6442

> <Gold.Chemscore.Rot>
2.8645

> <Gold.Chemscore.Internal.Correction>
   9.000000E+99

> <Gold.Chemscore.Hbonds>
donor molecule, donor type, donor heavy atom, donor atom, acceptor molecule, acceptor atom, score
      L1  H    23    48       P1  7949  0.20
      P1  H  6896  6907       L1    19  0.23
      P1  H  7997  8009       L1     3  0.88
      P1  H 10752 10763       L1    23  0.32

> <Gold.Chemscore.Hbond.Weighted>
-9.7018

> <Gold.Chemscore.Metal.Weighted>
-0.0000

> <Gold.Chemscore.Lipo.Weighted>
-12.8627

> <Gold.Chemscore.Internal_Hbond.Weighted>
0.0000

> <Gold.Chemscore.DEClash.Weighted>
0.1100

> <Gold.Chemscore.DEInternal.Weighted>
0.6442

> <Gold.Chemscore.Rot.Weighted>
7.3331

> <Gold.Chemscore.Internal.Correction.Weighted>
   9.000000E+99

> <Gold.Protein.RotatedTorsions>
[ 6907 6896 6895 6894 ] final  -56.83 input  -60.11 | X-H torsion
[ 7974 7965 7964 7962 ] final  -34.46 input  175.53 | X-H torsion
[ 8008 7997 7996 7995 ] final  160.83 input   59.86 | X-H torsion
[ 10167 10162 10161 10158 ] final  159.64 input  -65.29 | X-H torsion
[ 10718 10713 10712 10709 ] final  171.56 input   66.30 | X-H torsion
[ 10763 10752 10751 10750 ] final   58.04 input  -60.55 | X-H torsion
[ 11005 11000 10999 10996 ] final  -99.82 input  -57.11 | X-H torsion

> <Gold.Protein.ActiveResidues>
 VAL166  LYS551  ARG553  GLY616  TRP617  ASP618  TYR619  PRO620  LYS621  CYS622 
 ASP623  PHE694  ASN695  SER759  ASP760  ASP761  ALA762  ILE779  LEU786  VAL792 
 PHE793  MET794  SER795  GLU796  ALA797  LYS798  CYS799  TRP800  GLU811  SER814 

> <Gold.Protein.RotatedAtoms>
  150.8135  134.7304  159.6708 H   0  0  0  0  0  0  0  0  0  0  0  0  # atno 6907 bound_to 6896
  152.4254  134.5874  159.9974 H   0  0  0  0  0  0  0  0  0  0  0  0  # atno 6908 bound_to 6896
  151.6077  133.3313  159.3097 H   0  0  0  0  0  0  0  0  0  0  0  0  # atno 6909 bound_to 6896
  146.0827  140.6041  142.8900 H   0  0  0  0  0  0  0  0  0  0  0  0  # atno 7974 bound_to 7965
  156.2145  140.1793  156.7620 H   0  0  0  0  0  0  0  0  0  0  0  0  # atno 8008 bound_to 7997
  154.5771  140.0672  156.9079 H   0  0  0  0  0  0  0  0  0  0  0  0  # atno 8009 bound_to 7997
  155.2568  140.3333  155.4279 H   0  0  0  0  0  0  0  0  0  0  0  0  # atno 8010 bound_to 7997
  139.4834  144.4710  151.8576 H   0  0  0  0  0  0  0  0  0  0  0  0  # atno 10167 bound_to 10162
  156.9918  131.0150  151.2854 H   0  0  0  0  0  0  0  0  0  0  0  0  # atno 10718 bound_to 10713
  152.9862  135.5620  154.5488 H   0  0  0  0  0  0  0  0  0  0  0  0  # atno 10763 bound_to 10752
  154.4929  135.2793  155.1484 H   0  0  0  0  0  0  0  0  0  0  0  0  # atno 10764 bound_to 10752
  154.2946  135.6319  153.5452 H   0  0  0  0  0  0  0  0  0  0  0  0  # atno 10765 bound_to 10752
  141.1294  133.8351  157.1022 H   0  0  0  0  0  0  0  0  0  0  0  0  # atno 11005 bound_to 11000
  144.7304  140.4655  143.6942 LP  0  0  0  0  0  0  0  0  0  0  0  0  # atno 17320 bound_to 7965
  145.6187  139.1521  143.3035 LP  0  0  0  0  0  0  0  0  0  0  0  0  # atno 17321 bound_to 7965
  140.4179  144.2282  150.5887 LP  0  0  0  0  0  0  0  0  0  0  0  0  # atno 17342 bound_to 10162
  140.4902  143.2350  151.8829 LP  0  0  0  0  0  0  0  0  0  0  0  0  # atno 17343 bound_to 10162
  157.5453  130.8147  149.8078 LP  0  0  0  0  0  0  0  0  0  0  0  0  # atno 17370 bound_to 10713
  156.0204  130.3797  150.1979 LP  0  0  0  0  0  0  0  0  0  0  0  0  # atno 17371 bound_to 10713
  140.0326  134.9894  157.0810 LP  0  0  0  0  0  0  0  0  0  0  0  0  # atno 17394 bound_to 11000
  140.4261  134.1830  155.7166 LP  0  0  0  0  0  0  0  0  0  0  0  0  # atno 17395 bound_to 11000

$$$$
