AV-unprocessed.smi:2006|AV-procd|sdf|8131|dock3
  -GOLD-   2272010363D 1   1.00000     0.00000
 Structure written by MMmdl.
 32 33  0  0  0  0  0  0  0  0  1 V2000
  151.6699  145.2522  159.5224 C   0  0  0  0  0  0  0  0  0  0  0  0
  152.3932  143.9095  159.3732 C   0  0  2  0  0  0  0  0  0  0  0  0
  151.8321  143.0760  158.2046 C   0  0  0  0  0  0  0  0  0  0  0  0
  152.4811  141.7717  158.1612 N   0  0  0  0  0  0  0  0  0  0  0  0
  152.1051  141.0055  157.0488 C   0  0  0  0  0  0  0  0  0  0  0  0
  150.8439  141.2308  156.4580 C   0  0  0  0  0  0  0  0  0  0  0  0
  150.4671  140.4508  155.3478 C   0  0  0  0  0  0  0  0  0  0  0  0
  151.3627  139.4744  154.8671 C   0  0  0  0  0  0  0  0  0  0  0  0
  151.0004  138.6027  153.6828 C   0  0  0  0  0  0  0  0  0  0  0  0
  149.7217  138.9634  153.1045 N   0  0  0  0  0  0  0  0  0  0  0  0
  152.6006  139.3238  155.5256 C   0  0  0  0  0  0  0  0  0  0  0  0
  152.9696  140.0685  156.5897 N   0  0  0  0  0  0  0  0  0  0  0  0
  152.3801  141.0581  159.4279 C   0  0  0  0  0  0  0  0  0  0  0  0
  152.9284  141.9338  160.5667 C   0  0  0  0  0  0  0  0  0  0  0  0
  152.2344  143.1782  160.5873 O   0  0  0  0  0  0  0  0  0  0  0  0
  151.7713  145.8556  158.6199 H   0  0  0  0  0  0  0  0  0  0  0  0
  152.0810  145.8253  160.3538 H   0  0  0  0  0  0  0  0  0  0  0  0
  150.6055  145.1081  159.7111 H   0  0  0  0  0  0  0  0  0  0  0  0
  153.4550  144.1027  159.2097 H   0  0  0  0  0  0  0  0  0  0  0  0
  150.7553  142.9458  158.3226 H   0  0  0  0  0  0  0  0  0  0  0  0
  151.9924  143.5980  157.2603 H   0  0  0  0  0  0  0  0  0  0  0  0
  150.1757  141.9849  156.8479 H   0  0  0  0  0  0  0  0  0  0  0  0
  149.5066  140.5991  154.8765 H   0  0  0  0  0  0  0  0  0  0  0  0
  151.7734  138.6853  152.9182 H   0  0  0  0  0  0  0  0  0  0  0  0
  150.9696  137.5574  153.9923 H   0  0  0  0  0  0  0  0  0  0  0  0
  149.8665  139.6353  152.3643 H   0  0  0  0  0  0  0  0  0  0  0  0
  149.3110  138.1514  152.6661 H   0  0  0  0  0  0  0  0  0  0  0  0
  153.3143  138.5848  155.1925 H   0  0  0  0  0  0  0  0  0  0  0  0
  151.3386  140.8021  159.6283 H   0  0  0  0  0  0  0  0  0  0  0  0
  152.9390  140.1230  159.3712 H   0  0  0  0  0  0  0  0  0  0  0  0
  152.7907  141.4343  161.5256 H   0  0  0  0  0  0  0  0  0  0  0  0
  153.9994  142.1040  160.4461 H   0  0  0  0  0  0  0  0  0  0  0  0
  1  2  1  0  0  0  0
  1 16  1  0  0  0  0
  1 17  1  0  0  0  0
  1 18  1  0  0  0  0
  2 15  1  0  0  0  0
  2  3  1  0  0  0  0
  2 19  1  0  0  0  0
  3  4  1  0  0  0  0
  3 20  1  0  0  0  0
  3 21  1  0  0  0  0
  4  5  1  0  0  0  0
  4 13  1  0  0  0  0
  5 12  1  0  0  0  0
  5  6  2  0  0  0  0
  6  7  1  0  0  0  0
  6 22  1  0  0  0  0
  7  8  2  0  0  0  0
  7 23  1  0  0  0  0
  8  9  1  0  0  0  0
  8 11  1  0  0  0  0
  9 10  1  0  0  0  0
  9 24  1  0  0  0  0
  9 25  1  0  0  0  0
 10 26  1  0  0  0  0
 10 27  1  0  0  0  0
 11 12  2  0  0  0  0
 11 28  1  0  0  0  0
 13 14  1  0  0  0  0
 13 29  1  0  0  0  0
 13 30  1  0  0  0  0
 14 15  1  0  0  0  0
 14 31  1  0  0  0  0
 14 32  1  0  0  0  0
M  END
> <s_m_source_file>
AV-unprocessed.smi

> <i_m_source_file_index>
2006

> <i_lp_mmshare_version>
43012

> <i_f3d_flags>
0

> <s_epik_input>
W0NIM11bQ0BASF0xW0NIMl1OKFtDSDJdW0NIMl1PMSljMltjSF1bY0hdYyhbY0hdbjIpW0NIMl1bTkgyXQ==

> <s_epik_cmdline>
J2VwaWtfcHl0aG9uJywgJy1waCcsICc3LjAnLCAnLXRuJywgJzgnLCAnLW1hJywgJzIwMCcsICctbWV0YWxfYmluZGluZycsICctaW1hZScsICc8aW5maWxlLm1hZT4nLCAnLW9tYWUnLCAnPG91dGZpbGUubWFlPic=

> <r_lp_tautomer_probability>
1

> <r_epik_Ionization_Penalty>
1.39389

> <r_epik_Ionization_Penalty_Charging>
0

> <r_epik_Ionization_Penalty_Neutral>
1.39389

> <r_epik_State_Penalty>
1.46818

> <r_epik_Charging_Adjusted_Penalty>
1.46818

> <i_epik_Tot_Q>
0

> <i_epik_Tot_abs_Q>
0

> <r_epik_Metal_State_Penalty>
1.46201

> <b_epik_Metal_Only>
0

> <s_lp_Force_Field>
OPLS_2005

> <r_lp_Energy>
16.9161

> <b_lp_Chiralities_Consistent>
1

> <s_lp_Variant>
AV-unprocessed.smi:2006-3

> <Gold.Version>
5.8.1

> <Gold.Id.Protein>
6NUR|6NUR_protein|mol2

> <Gold.PLP.Fitness>
42.7815

> <Gold.PLP.PLP>
-35.7215

> <Gold.PLP.part.hbond>
-3.0000

> <Gold.PLP.part.metal>
0.0000

> <Gold.PLP.part.buried>
-3.9425

> <Gold.PLP.part.nonpolar>
-28.3962

> <Gold.PLP.part.repulsive>
0.0585

> <Gold.PLP.ligand.clash>
0.8614

> <Gold.PLP.ligand.torsion>
0.5892

> <Gold.PLP.Chemscore.Hbond>
3.0000

> <Gold.PLP.Chemscore.CHOScore>
0.0000

> <Gold.PLP.Chemscore.Metal>
0.0000

> <Gold.Chemscore.Hbonds>
donor molecule, donor type, donor heavy atom, donor atom, acceptor molecule, acceptor atom, score
      L1  H    10    26       P1  7957  0.39
      L1  H    10    27       P1  7948  0.89
      P1  H  7997  8008       L1    12  0.62

> <Gold.PLP.Chemscore.Internal.Correction>
0.0998

> <Gold.Rescore>
     Score         DG    S(hbond)    S(metal)    S(lipo)     H(rot)  DE(clash)    DE(int)     intcor
     21.48     -22.31       2.82        0.00      91.28       1.28       0.11       0.71       ----

> <Gold.Chemscore.Fitness>
21.4828

> <Gold.Chemscore.DG>
-22.3079

> <Gold.Chemscore.ZeroCoef>
-5.4800

> <Gold.Chemscore.Hbond>
2.8188

> <Gold.Chemscore.Metal>
0.0000

> <Gold.Chemscore.Lipo>
91.2835

> <Gold.Chemscore.Internal_Hbond>
0.0000

> <Gold.Chemscore.DEClash>
0.1145

> <Gold.Chemscore.DEInternal>
0.7105

> <Gold.Chemscore.Rot>
1.2762

> <Gold.Chemscore.Internal.Correction>
   9.000000E+99

> <Gold.Chemscore.Hbonds>
donor molecule, donor type, donor heavy atom, donor atom, acceptor molecule, acceptor atom, score
      L1  H    10    26       P1  7957  0.36
      L1  H    10    27       P1  7948  0.79
      P1  H  7997  8008       L1    12  0.19

> <Gold.Chemscore.Hbond.Weighted>
-9.4148

> <Gold.Chemscore.Metal.Weighted>
-0.0000

> <Gold.Chemscore.Lipo.Weighted>
-10.6802

> <Gold.Chemscore.Internal_Hbond.Weighted>
0.0000

> <Gold.Chemscore.DEClash.Weighted>
0.1145

> <Gold.Chemscore.DEInternal.Weighted>
0.7105

> <Gold.Chemscore.Rot.Weighted>
3.2671

> <Gold.Chemscore.Internal.Correction.Weighted>
   9.000000E+99

> <Gold.Protein.RotatedTorsions>
[ 6907 6896 6895 6894 ] final   -0.44 input  -60.11 | X-H torsion
[ 7974 7965 7964 7962 ] final  165.64 input  175.53 | X-H torsion
[ 8008 7997 7996 7995 ] final  -45.07 input   59.86 | X-H torsion
[ 10167 10162 10161 10158 ] final -123.81 input  -65.29 | X-H torsion
[ 10718 10713 10712 10709 ] final   42.92 input   66.30 | X-H torsion
[ 10763 10752 10751 10750 ] final   83.00 input  -60.55 | X-H torsion
[ 11005 11000 10999 10996 ] final    3.54 input  -57.11 | X-H torsion

> <Gold.Protein.ActiveResidues>
 VAL166  LYS551  ARG553  GLY616  TRP617  ASP618  TYR619  PRO620  LYS621  CYS622 
 ASP623  PHE694  ASN695  SER759  ASP760  ASP761  ALA762  ILE779  LEU786  VAL792 
 PHE793  MET794  SER795  GLU796  ALA797  LYS798  CYS799  TRP800  GLU811  SER814 

> <Gold.Protein.RotatedAtoms>
  151.5623  135.1065  159.9975 H   0  0  0  0  0  0  0  0  0  0  0  0  # atno 6907 bound_to 6896
  152.4441  133.7498  159.6698 H   0  0  0  0  0  0  0  0  0  0  0  0  # atno 6908 bound_to 6896
  150.8352  133.7957  159.3106 H   0  0  0  0  0  0  0  0  0  0  0  0  # atno 6909 bound_to 6896
  144.7494  139.8499  143.6371 H   0  0  0  0  0  0  0  0  0  0  0  0  # atno 7974 bound_to 7965
  154.3999  140.1406  156.3787 H   0  0  0  0  0  0  0  0  0  0  0  0  # atno 8008 bound_to 7997
  155.8024  140.3475  155.5390 H   0  0  0  0  0  0  0  0  0  0  0  0  # atno 8009 bound_to 7997
  155.8469  140.0935  157.1689 H   0  0  0  0  0  0  0  0  0  0  0  0  # atno 8010 bound_to 7997
  139.9995  143.5555  152.2309 H   0  0  0  0  0  0  0  0  0  0  0  0  # atno 10167 bound_to 10162
  157.4102  130.7910  149.7424 H   0  0  0  0  0  0  0  0  0  0  0  0  # atno 10718 bound_to 10713
  153.1252  135.4707  154.9260 H   0  0  0  0  0  0  0  0  0  0  0  0  # atno 10763 bound_to 10752
  154.7613  135.3132  154.8374 H   0  0  0  0  0  0  0  0  0  0  0  0  # atno 10764 bound_to 10752
  153.8929  135.6883  153.4813 H   0  0  0  0  0  0  0  0  0  0  0  0  # atno 10765 bound_to 10752
  140.5919  133.9916  155.8093 H   0  0  0  0  0  0  0  0  0  0  0  0  # atno 11005 bound_to 11000
  146.1423  139.4483  143.0101 LP  0  0  0  0  0  0  0  0  0  0  0  0  # atno 17320 bound_to 7965
  145.6998  141.0139  143.1510 LP  0  0  0  0  0  0  0  0  0  0  0  0  # atno 17321 bound_to 7965
  139.6282  144.7640  151.2594 LP  0  0  0  0  0  0  0  0  0  0  0  0  # atno 17342 bound_to 10162
  140.7424  143.6527  150.8234 LP  0  0  0  0  0  0  0  0  0  0  0  0  # atno 17343 bound_to 10162
  155.9848  130.3988  150.3291 LP  0  0  0  0  0  0  0  0  0  0  0  0  # atno 17370 bound_to 10713
  157.1429  131.0301  151.2920 LP  0  0  0  0  0  0  0  0  0  0  0  0  # atno 17371 bound_to 10713
  141.0929  133.9888  157.3208 LP  0  0  0  0  0  0  0  0  0  0  0  0  # atno 17394 bound_to 11000
  139.9270  135.0201  156.8269 LP  0  0  0  0  0  0  0  0  0  0  0  0  # atno 17395 bound_to 11000

$$$$
