AV-unprocessed.smi:2027|AV-procd|sdf|8215|dock8
  -GOLD-   2272010483D 1   1.00000     0.00000
 Structure written by MMmdl.
 50 52  0  0  0  0  0  0  0  0  2 V2000
  152.1799  142.2612  159.6542 C   0  0  0  0  0  0  0  0  0  0  0  0
  151.7358  141.5490  158.3879 C   0  0  0  0  0  0  0  0  0  0  0  0
  150.8263  142.2056  157.5285 C   0  0  0  0  0  0  0  0  0  0  0  0
  150.4422  141.5303  156.3760 C   0  0  0  0  0  0  0  0  0  0  0  0
  149.5778  141.8999  155.3429 N   0  3  0  0  0  0  0  0  0  0  0  0
  149.5231  140.9025  154.4170 C   0  0  0  0  0  0  0  0  0  0  0  0
  150.3398  139.9019  154.8442 N   0  0  0  0  0  0  0  0  0  0  0  0
  150.6656  138.6134  154.2179 C   0  0  0  0  0  0  0  0  0  0  0  0
  150.2674  137.4162  155.1015 C   0  0  2  0  0  0  0  0  0  0  0  0
  150.6817  136.2190  154.4725 O   0  0  0  0  0  0  0  0  0  0  0  0
  148.7441  137.3499  155.3411 C   0  0  0  0  0  0  0  0  0  0  0  0
  148.0293  138.6354  155.4036 N   0  0  0  0  0  0  0  0  0  0  0  0
  148.1580  139.1982  156.7428 C   0  0  0  0  0  0  0  0  0  0  0  0
  146.6026  138.5389  155.0627 C   0  0  0  0  0  0  0  0  0  0  0  0
  146.3126  138.0789  153.6599 C   0  0  0  0  0  0  0  0  0  0  0  0
  146.6619  138.7326  152.4440 C   0  0  0  0  0  0  0  0  0  0  0  0
  146.2350  138.0870  151.3715 N   0  0  0  0  0  0  0  0  0  0  0  0
  145.6138  136.9954  151.8616 N   0  0  0  0  0  0  0  0  0  0  0  0
  145.0004  136.0560  150.9481 C   0  0  0  0  0  0  0  0  0  0  0  0
  145.6627  136.9520  153.2385 C   0  0  0  0  0  0  0  0  0  0  0  0
  150.9303  140.2467  156.0649 C   0  0  0  0  0  0  0  0  0  0  0  0
  151.8234  139.5836  156.9029 C   0  0  0  0  0  0  0  0  0  0  0  0
  152.2260  140.2535  158.0801 C   0  0  0  0  0  0  0  0  0  0  0  0
  153.2000  139.5556  159.0140 C   0  0  0  0  0  0  0  0  0  0  0  0
  151.7437  143.2579  159.7256 H   0  0  0  0  0  0  0  0  0  0  0  0
  153.2643  142.3714  159.6722 H   0  0  0  0  0  0  0  0  0  0  0  0
  151.8735  141.6989  160.5366 H   0  0  0  0  0  0  0  0  0  0  0  0
  150.4481  143.1912  157.7571 H   0  0  0  0  0  0  0  0  0  0  0  0
  148.9452  140.9092  153.5040 H   0  0  0  0  0  0  0  0  0  0  0  0
  150.1650  138.5686  153.2499 H   0  0  0  0  0  0  0  0  0  0  0  0
  151.7379  138.6035  154.0170 H   0  0  0  0  0  0  0  0  0  0  0  0
  150.8126  137.5097  156.0332 H   0  0  0  0  0  0  0  0  0  0  0  0
  150.6256  136.3367  153.5367 H   0  0  0  0  0  0  0  0  0  0  0  0
  148.2824  136.7242  154.5759 H   0  0  0  0  0  0  0  0  0  0  0  0
  148.5977  136.8081  156.2771 H   0  0  0  0  0  0  0  0  0  0  0  0
  147.6768  140.1751  156.8034 H   0  0  0  0  0  0  0  0  0  0  0  0
  149.2066  139.3383  157.0072 H   0  0  0  0  0  0  0  0  0  0  0  0
  147.7023  138.5472  157.4904 H   0  0  0  0  0  0  0  0  0  0  0  0
  146.1016  137.8951  155.7871 H   0  0  0  0  0  0  0  0  0  0  0  0
  146.1451  139.5201  155.1970 H   0  0  0  0  0  0  0  0  0  0  0  0
  147.1947  139.6627  152.3110 H   0  0  0  0  0  0  0  0  0  0  0  0
  144.5424  135.2377  151.5043 H   0  0  0  0  0  0  0  0  0  0  0  0
  145.7553  135.6491  150.2747 H   0  0  0  0  0  0  0  0  0  0  0  0
  144.2312  136.5609  150.3625 H   0  0  0  0  0  0  0  0  0  0  0  0
  145.2145  136.1468  153.8018 H   0  0  0  0  0  0  0  0  0  0  0  0
  152.2007  138.6002  156.6656 H   0  0  0  0  0  0  0  0  0  0  0  0
  153.4530  138.5582  158.6534 H   0  0  0  0  0  0  0  0  0  0  0  0
  152.7691  139.4489  160.0095 H   0  0  0  0  0  0  0  0  0  0  0  0
  154.1257  140.1257  159.0942 H   0  0  0  0  0  0  0  0  0  0  0  0
  149.0660  142.7698  155.2694 H   0  0  0  0  0  0  0  0  0  0  0  0
  1  2  1  0  0  0  0
  1 25  1  0  0  0  0
  1 26  1  0  0  0  0
  1 27  1  0  0  0  0
  2 23  1  0  0  0  0
  2  3  2  0  0  0  0
  3  4  1  0  0  0  0
  3 28  1  0  0  0  0
  4 21  2  0  0  0  0
  4  5  1  0  0  0  0
  5  6  2  0  0  0  0
  5 50  1  0  0  0  0
  6  7  1  0  0  0  0
  6 29  1  0  0  0  0
  7  8  1  0  0  0  0
  7 21  1  0  0  0  0
  8  9  1  0  0  0  0
  8 30  1  0  0  0  0
  8 31  1  0  0  0  0
  9 10  1  0  0  0  0
  9 11  1  0  0  0  0
  9 32  1  0  0  0  0
 10 33  1  0  0  0  0
 11 12  1  0  0  0  0
 11 34  1  0  0  0  0
 11 35  1  0  0  0  0
 12 13  1  0  0  0  0
 12 14  1  0  0  0  0
 13 36  1  0  0  0  0
 13 37  1  0  0  0  0
 13 38  1  0  0  0  0
 14 15  1  0  0  0  0
 14 39  1  0  0  0  0
 14 40  1  0  0  0  0
 15 20  2  0  0  0  0
 15 16  1  0  0  0  0
 16 17  2  0  0  0  0
 16 41  1  0  0  0  0
 17 18  1  0  0  0  0
 18 19  1  0  0  0  0
 18 20  1  0  0  0  0
 19 42  1  0  0  0  0
 19 43  1  0  0  0  0
 19 44  1  0  0  0  0
 20 45  1  0  0  0  0
 21 22  1  0  0  0  0
 22 23  2  0  0  0  0
 22 46  1  0  0  0  0
 23 24  1  0  0  0  0
 24 47  1  0  0  0  0
 24 48  1  0  0  0  0
 24 49  1  0  0  0  0
M  CHG  1   5   1
M  END
> <s_m_source_file>
AV-unprocessed.smi

> <i_m_source_file_index>
2027

> <i_lp_mmshare_version>
43012

> <i_f3d_flags>
0

> <s_epik_input>
W0NIM11jKFtjSF0xKWMoW0NIM10pW2NIXWMoYzEyKW4oW2NIXW4yKVtDSDJdW0NASF0oW09IXSlbQ0gyXU4oW0NIM10pW0NIMl1jM1tjSF1ubihbQ0gzXSlbY0hdMw==

> <s_epik_cmdline>
J2VwaWtfcHl0aG9uJywgJy1waCcsICc3LjAnLCAnLXRuJywgJzgnLCAnLW1hJywgJzIwMCcsICctbWV0YWxfYmluZGluZycsICctaW1hZScsICc8aW5maWxlLm1hZT4nLCAnLW9tYWUnLCAnPG91dGZpbGUubWFlPic=

> <r_epik_Ionization_Penalty>
1.48134

> <r_epik_Ionization_Penalty_Charging>
1.21121

> <r_epik_Ionization_Penalty_Neutral>
0.270133

> <r_epik_State_Penalty>
1.53013

> <r_epik_Charging_Adjusted_Penalty>
2.74134

> <i_epik_Tot_Q>
1

> <i_epik_Tot_abs_Q>
1

> <r_epik_Metal_State_Penalty>
1.60443

> <b_epik_Metal_Only>
0

> <s_lp_Force_Field>
OPLS_2005

> <r_lp_Energy>
21.1476

> <b_lp_Chiralities_Consistent>
1

> <s_lp_Variant>
AV-unprocessed.smi:2027-7

> <Gold.Version>
5.8.1

> <Gold.Id.Protein>
6NUR|6NUR_protein|mol2

> <Gold.PLP.Fitness>
57.0740

> <Gold.PLP.PLP>
-38.4041

> <Gold.PLP.part.hbond>
-4.0953

> <Gold.PLP.part.metal>
0.0000

> <Gold.PLP.part.buried>
0.9248

> <Gold.PLP.part.nonpolar>
-36.8139

> <Gold.PLP.part.repulsive>
1.5178

> <Gold.PLP.ligand.clash>
0.0000

> <Gold.PLP.ligand.torsion>
0.5913

> <Gold.PLP.Chemscore.Hbond>
4.6650

> <Gold.PLP.Chemscore.CHOScore>
1.9107

> <Gold.PLP.Chemscore.Metal>
0.0000

> <Gold.Chemscore.Hbonds>
donor molecule, donor type, donor heavy atom, donor atom, acceptor molecule, acceptor atom, score
      L1  H     5    50       P1  8028  2.00
      L1  H    10    33       P1  7949  0.37
      P1  H 10752 10764       L1    10  0.22
      L1  C     6    29       P1  7957  0.85
      L1  C    16    41       P1  7957  0.61

> <Gold.PLP.Chemscore.Internal.Correction>
0.1255

> <Gold.Rescore>
     Score         DG    S(hbond)    S(metal)    S(lipo)     H(rot)  DE(clash)    DE(int)     intcor
     13.32     -19.08       2.51        0.00      99.16       2.50       2.54       3.21       ----

> <Gold.Chemscore.Fitness>
13.3183

> <Gold.Chemscore.DG>
-19.0773

> <Gold.Chemscore.ZeroCoef>
-5.4800

> <Gold.Chemscore.Hbond>
2.5135

> <Gold.Chemscore.Metal>
0.0000

> <Gold.Chemscore.Lipo>
99.1631

> <Gold.Chemscore.Internal_Hbond>
0.0000

> <Gold.Chemscore.DEClash>
2.5446

> <Gold.Chemscore.DEInternal>
3.2145

> <Gold.Chemscore.Rot>
2.5000

> <Gold.Chemscore.Internal.Correction>
   9.000000E+99

> <Gold.Chemscore.Hbonds>
donor molecule, donor type, donor heavy atom, donor atom, acceptor molecule, acceptor atom, score
      L1  H     5    50       P1  8028  0.92
      L1  H    10    33       P1  7949  0.02
      P1  H  7954  7966       L1    17  0.03
      P1  H 10752 10764       L1    10  0.03

> <Gold.Chemscore.Hbond.Weighted>
-8.3951

> <Gold.Chemscore.Metal.Weighted>
-0.0000

> <Gold.Chemscore.Lipo.Weighted>
-11.6021

> <Gold.Chemscore.Internal_Hbond.Weighted>
0.0000

> <Gold.Chemscore.DEClash.Weighted>
2.5446

> <Gold.Chemscore.DEInternal.Weighted>
3.2145

> <Gold.Chemscore.Rot.Weighted>
6.3999

> <Gold.Chemscore.Internal.Correction.Weighted>
   9.000000E+99

> <Gold.Protein.RotatedTorsions>
[ 6907 6896 6895 6894 ] final   98.97 input  -60.11 | X-H torsion
[ 7974 7965 7964 7962 ] final -164.22 input  175.53 | X-H torsion
[ 8008 7997 7996 7995 ] final  162.76 input   59.86 | X-H torsion
[ 10167 10162 10161 10158 ] final -119.34 input  -65.29 | X-H torsion
[ 10718 10713 10712 10709 ] final -106.99 input   66.30 | X-H torsion
[ 10763 10752 10751 10750 ] final  -62.88 input  -60.55 | X-H torsion
[ 11005 11000 10999 10996 ] final  -97.55 input  -57.11 | X-H torsion

> <Gold.Protein.ActiveResidues>
 VAL166  LYS551  ARG553  GLY616  TRP617  ASP618  TYR619  PRO620  LYS621  CYS622 
 ASP623  PHE694  ASN695  SER759  ASP760  ASP761  ALA762  ILE779  LEU786  VAL792 
 PHE793  MET794  SER795  GLU796  ALA797  LYS798  CYS799  TRP800  GLU811  SER814 

> <Gold.Protein.RotatedAtoms>
  152.5400  134.0500  159.8105 H   0  0  0  0  0  0  0  0  0  0  0  0  # atno 6907 bound_to 6896
  151.0643  133.5511  159.2639 H   0  0  0  0  0  0  0  0  0  0  0  0  # atno 6908 bound_to 6896
  151.2398  135.0593  159.9074 H   0  0  0  0  0  0  0  0  0  0  0  0  # atno 6909 bound_to 6896
  144.7303  140.2993  143.6207 H   0  0  0  0  0  0  0  0  0  0  0  0  # atno 7974 bound_to 7965
  156.2007  140.1742  156.7904 H   0  0  0  0  0  0  0  0  0  0  0  0  # atno 8008 bound_to 7997
  154.5588  140.0703  156.8817 H   0  0  0  0  0  0  0  0  0  0  0  0  # atno 8009 bound_to 7997
  155.2887  140.3354  155.4256 H   0  0  0  0  0  0  0  0  0  0  0  0  # atno 8010 bound_to 7997
  140.0477  143.5091  152.2098 H   0  0  0  0  0  0  0  0  0  0  0  0  # atno 10167 bound_to 10162
  156.0416  130.5640  150.7759 H   0  0  0  0  0  0  0  0  0  0  0  0  # atno 10718 bound_to 10713
  154.3067  135.6224  153.5448 H   0  0  0  0  0  0  0  0  0  0  0  0  # atno 10763 bound_to 10752
  152.9834  135.5691  154.5223 H   0  0  0  0  0  0  0  0  0  0  0  0  # atno 10764 bound_to 10752
  154.4865  135.2865  155.1506 H   0  0  0  0  0  0  0  0  0  0  0  0  # atno 10765 bound_to 10752
  141.1375  133.8179  157.0721 H   0  0  0  0  0  0  0  0  0  0  0  0  # atno 11005 bound_to 11000
  145.7777  139.1880  143.2176 LP  0  0  0  0  0  0  0  0  0  0  0  0  # atno 17320 bound_to 7965
  146.0860  140.7710  142.9618 LP  0  0  0  0  0  0  0  0  0  0  0  0  # atno 17321 bound_to 7965
  139.5973  144.7571  151.3256 LP  0  0  0  0  0  0  0  0  0  0  0  0  # atno 17342 bound_to 10162
  140.7231  143.7080  150.7792 LP  0  0  0  0  0  0  0  0  0  0  0  0  # atno 17343 bound_to 10162
  157.5240  131.0933  151.0042 LP  0  0  0  0  0  0  0  0  0  0  0  0  # atno 17370 bound_to 10713
  157.0365  130.5732  149.5350 LP  0  0  0  0  0  0  0  0  0  0  0  0  # atno 17371 bound_to 10713
  140.0504  134.9808  157.1126 LP  0  0  0  0  0  0  0  0  0  0  0  0  # atno 17394 bound_to 11000
  140.3998  134.2095  155.7164 LP  0  0  0  0  0  0  0  0  0  0  0  0  # atno 17395 bound_to 11000

$$$$
