AV-unprocessed.smi:1213|AV-procd|sdf|5090|dock4
  -GOLD-   22720 4143D 1   1.00000     0.00000
 Structure written by MMmdl.
 36 37  0  0  0  0  0  0  0  0  3 V2000
  144.7321  137.7463  153.0130 N   0  0  0  0  0  0  0  0  0  0  0  0
  146.0626  137.7096  152.9112 C   0  0  0  0  0  0  0  0  0  0  0  0
  146.7334  136.8116  153.4170 O   0  0  0  0  0  0  0  0  0  0  0  0
  146.7253  138.8357  152.1104 C   0  0  0  0  0  0  0  0  0  0  0  0
  147.5110  139.7701  152.9572 N   0  3  2  0  0  0  0  0  0  0  0  0
  148.3061  139.0794  154.0080 C   0  0  0  0  0  0  0  0  0  0  0  0
  149.2033  140.0719  154.7653 C   0  0  0  0  0  0  0  0  0  0  0  0
  148.3727  141.2094  155.3800 C   0  0  1  0  0  0  0  0  0  0  0  0
  149.2568  142.1765  156.0229 N   0  0  0  0  0  0  0  0  0  0  0  0
  150.2497  141.8882  156.8764 C   0  0  0  0  0  0  0  0  0  0  0  0
  150.4780  140.7151  157.1811 O   0  0  0  0  0  0  0  0  0  0  0  0
  150.9121  142.9777  157.3250 N   0  5  0  0  0  0  0  0  0  0  0  0
  151.7133  142.8815  158.3983 C   0  0  0  0  0  0  0  0  0  0  0  0
  152.2612  141.7284  158.7983 N   0  0  0  0  0  0  0  0  0  0  0  0
  153.0653  141.8596  159.9320 C   0  0  0  0  0  0  0  0  0  0  0  0
  153.1379  143.1442  160.4014 C   0  0  0  0  0  0  0  0  0  0  0  0
  152.1929  144.2342  159.4275 S   0  0  0  0  0  0  0  0  0  0  0  0
  147.5306  141.8828  154.2813 C   0  0  0  0  0  0  0  0  0  0  0  0
  146.6718  140.8529  153.5309 C   0  0  0  0  0  0  0  0  0  0  0  0
  144.2498  137.0230  153.5278 H   0  0  0  0  0  0  0  0  0  0  0  0
  144.2078  138.4902  152.5750 H   0  0  0  0  0  0  0  0  0  0  0  0
  147.3843  138.3549  151.3861 H   0  0  0  0  0  0  0  0  0  0  0  0
  145.9795  139.3881  151.5362 H   0  0  0  0  0  0  0  0  0  0  0  0
  147.6334  138.5770  154.7049 H   0  0  0  0  0  0  0  0  0  0  0  0
  148.9302  138.3051  153.5610 H   0  0  0  0  0  0  0  0  0  0  0  0
  149.7557  139.5478  155.5462 H   0  0  0  0  0  0  0  0  0  0  0  0
  149.9481  140.4816  154.0812 H   0  0  0  0  0  0  0  0  0  0  0  0
  147.7064  140.7799  156.1307 H   0  0  0  0  0  0  0  0  0  0  0  0
  149.1088  143.1506  155.8025 H   0  0  0  0  0  0  0  0  0  0  0  0
  153.5501  140.9838  160.3370 H   0  0  0  0  0  0  0  0  0  0  0  0
  153.6866  143.5146  161.2541 H   0  0  0  0  0  0  0  0  0  0  0  0
  146.8863  142.6491  154.7140 H   0  0  0  0  0  0  0  0  0  0  0  0
  148.1852  142.3947  153.5739 H   0  0  0  0  0  0  0  0  0  0  0  0
  146.1261  141.3588  152.7337 H   0  0  0  0  0  0  0  0  0  0  0  0
  145.9273  140.4218  154.2021 H   0  0  0  0  0  0  0  0  0  0  0  0
  148.1711  140.2216  152.3396 H   0  0  0  0  0  0  0  0  0  0  0  0
  1  2  1  0  0  0  0
  1 20  1  0  0  0  0
  1 21  1  0  0  0  0
  2  3  2  0  0  0  0
  2  4  1  0  0  0  0
  4  5  1  0  0  0  0
  4 22  1  0  0  0  0
  4 23  1  0  0  0  0
  5 19  1  0  0  0  0
  5  6  1  0  0  0  0
  5 36  1  0  0  0  0
  6  7  1  0  0  0  0
  6 24  1  0  0  0  0
  6 25  1  0  0  0  0
  7  8  1  0  0  0  0
  7 26  1  0  0  0  0
  7 27  1  0  0  0  0
  8  9  1  0  0  0  0
  8 18  1  0  0  0  0
  8 28  1  0  0  0  0
  9 10  1  0  0  0  0
  9 29  1  0  0  0  0
 10 11  2  0  0  0  0
 10 12  1  0  0  0  0
 12 13  1  0  0  0  0
 13 17  1  0  0  0  0
 13 14  2  0  0  0  0
 14 15  1  0  0  0  0
 15 16  2  0  0  0  0
 15 30  1  0  0  0  0
 16 17  1  0  0  0  0
 16 31  1  0  0  0  0
 18 19  1  0  0  0  0
 18 32  1  0  0  0  0
 18 33  1  0  0  0  0
 19 34  1  0  0  0  0
 19 35  1  0  0  0  0
M  CHG  1   5   1
M  CHG  1  12  -1
M  END
> <s_m_source_file>
AV-unprocessed.smi

> <i_m_source_file_index>
1213

> <i_lp_mmshare_version>
43012

> <i_f3d_flags>
0

> <s_epik_input>
W05IMl1DKD1PKVtDSDJdTjFbQ0gyXVtDSDJdW0NIXShbQ0gyXVtDSDJdMSlbTkhdQyg9TylbTkhdYzJuW2NIXVtjSF1zMg==

> <s_epik_cmdline>
J2VwaWtfcHl0aG9uJywgJy1waCcsICc3LjAnLCAnLXRuJywgJzgnLCAnLW1hJywgJzIwMCcsICctbWV0YWxfYmluZGluZycsICctaW1hZScsICc8aW5maWxlLm1hZT4nLCAnLW9tYWUnLCAnPG91dGZpbGUubWFlPic=

> <r_lp_tautomer_probability>
0.999

> <r_epik_Ionization_Penalty>
7.1168

> <r_epik_Ionization_Penalty_Charging>
6.25003

> <r_epik_Ionization_Penalty_Neutral>
0.866763

> <r_epik_State_Penalty>
6.33484

> <r_epik_Charging_Adjusted_Penalty>
12.5849

> <i_epik_Tot_Q>
0

> <i_epik_Tot_abs_Q>
2

> <r_epik_Metal_State_Penalty>
2.3501

> <b_epik_Metal_Only>
1

> <s_lp_Force_Field>
OPLS_2005

> <r_lp_Energy>
2.02951

> <b_lp_Chiralities_Consistent>
1

> <s_lp_Variant>
AV-unprocessed.smi:1213-7

> <Gold.Version>
5.8.1

> <Gold.Id.Protein>
6NUR|6NUR_protein|mol2

> <Gold.PLP.Fitness>
45.3293

> <Gold.PLP.PLP>
-37.8676

> <Gold.PLP.part.hbond>
-3.5118

> <Gold.PLP.part.metal>
0.0000

> <Gold.PLP.part.buried>
-5.7668

> <Gold.PLP.part.nonpolar>
-30.5096

> <Gold.PLP.part.repulsive>
0.9619

> <Gold.PLP.ligand.clash>
0.0000

> <Gold.PLP.ligand.torsion>
0.5885

> <Gold.PLP.Chemscore.Hbond>
2.8640

> <Gold.PLP.Chemscore.CHOScore>
0.0000

> <Gold.PLP.Chemscore.Metal>
0.0000

> <Gold.Chemscore.Hbonds>
donor molecule, donor type, donor heavy atom, donor atom, acceptor molecule, acceptor atom, score
      L1  H     1    21       P1 10175  1.00
      L1  H     5    36       P1  7957  0.96
      L1  H     9    29       P1  8028  1.00

> <Gold.PLP.Chemscore.Internal.Correction>
0.0466

> <Gold.Rescore>
     Score         DG    S(hbond)    S(metal)    S(lipo)     H(rot)  DE(clash)    DE(int)     intcor
     13.76     -19.11       2.87        0.00      79.08       2.04       0.29       5.06       ----

> <Gold.Chemscore.Fitness>
13.7601

> <Gold.Chemscore.DG>
-19.1116

> <Gold.Chemscore.ZeroCoef>
-5.4800

> <Gold.Chemscore.Hbond>
2.8728

> <Gold.Chemscore.Metal>
0.0000

> <Gold.Chemscore.Lipo>
79.0755

> <Gold.Chemscore.Internal_Hbond>
0.0000

> <Gold.Chemscore.DEClash>
0.2870

> <Gold.Chemscore.DEInternal>
5.0646

> <Gold.Chemscore.Rot>
2.0373

> <Gold.Chemscore.Internal.Correction>
   9.000000E+99

> <Gold.Chemscore.Hbonds>
donor molecule, donor type, donor heavy atom, donor atom, acceptor molecule, acceptor atom, score
      L1  H     1    21       P1 10175  0.89
      L1  H     5    36       P1  7957  0.92
      L1  H     9    29       P1  8028  0.98

> <Gold.Chemscore.Hbond.Weighted>
-9.5951

> <Gold.Chemscore.Metal.Weighted>
-0.0000

> <Gold.Chemscore.Lipo.Weighted>
-9.2518

> <Gold.Chemscore.Internal_Hbond.Weighted>
0.0000

> <Gold.Chemscore.DEClash.Weighted>
0.2870

> <Gold.Chemscore.DEInternal.Weighted>
5.0646

> <Gold.Chemscore.Rot.Weighted>
5.2154

> <Gold.Chemscore.Internal.Correction.Weighted>
   9.000000E+99

> <Gold.Protein.RotatedTorsions>
[ 6907 6896 6895 6894 ] final -171.40 input  -60.11 | X-H torsion
[ 7974 7965 7964 7962 ] final   21.47 input  175.53 | X-H torsion
[ 8008 7997 7996 7995 ] final  -43.33 input   59.86 | X-H torsion
[ 10167 10162 10161 10158 ] final   91.27 input  -65.29 | X-H torsion
[ 10718 10713 10712 10709 ] final   83.81 input   66.30 | X-H torsion
[ 10763 10752 10751 10750 ] final    5.69 input  -60.55 | X-H torsion
[ 11005 11000 10999 10996 ] final  138.05 input  -57.11 | X-H torsion

> <Gold.Protein.ActiveResidues>
 VAL166  LYS551  ARG553  GLY616  TRP617  ASP618  TYR619  PRO620  LYS621  CYS622 
 ASP623  PHE694  ASN695  SER759  ASP760  ASP761  ALA762  ILE779  LEU786  VAL792 
 PHE793  MET794  SER795  GLU796  ALA797  LYS798  CYS799  TRP800  GLU811  SER814 

> <Gold.Protein.RotatedAtoms>
  151.5233  133.3462  159.2904 H   0  0  0  0  0  0  0  0  0  0  0  0  # atno 6907 bound_to 6896
  150.8639  134.8000  159.7115 H   0  0  0  0  0  0  0  0  0  0  0  0  # atno 6908 bound_to 6896
  152.4650  134.5106  159.9804 H   0  0  0  0  0  0  0  0  0  0  0  0  # atno 6909 bound_to 6896
  146.2069  139.8022  142.8718 H   0  0  0  0  0  0  0  0  0  0  0  0  # atno 7974 bound_to 7965
  154.3997  140.1450  156.3502 H   0  0  0  0  0  0  0  0  0  0  0  0  # atno 8008 bound_to 7997
  155.8276  140.3467  155.5531 H   0  0  0  0  0  0  0  0  0  0  0  0  # atno 8009 bound_to 7997
  155.8222  140.0899  157.1833 H   0  0  0  0  0  0  0  0  0  0  0  0  # atno 8010 bound_to 7997
  139.8391  144.6650  150.9305 H   0  0  0  0  0  0  0  0  0  0  0  0  # atno 10167 bound_to 10162
  157.6886  131.0107  150.2579 H   0  0  0  0  0  0  0  0  0  0  0  0  # atno 10718 bound_to 10713
  153.2565  135.6919  153.7624 H   0  0  0  0  0  0  0  0  0  0  0  0  # atno 10763 bound_to 10752
  153.6699  135.3346  155.3151 H   0  0  0  0  0  0  0  0  0  0  0  0  # atno 10764 bound_to 10752
  154.8414  135.4497  154.1540 H   0  0  0  0  0  0  0  0  0  0  0  0  # atno 10765 bound_to 10752
  140.0156  134.9419  157.0369 H   0  0  0  0  0  0  0  0  0  0  0  0  # atno 11005 bound_to 11000
  145.3284  141.0261  143.3460 LP  0  0  0  0  0  0  0  0  0  0  0  0  # atno 17320 bound_to 7965
  144.8816  139.4896  143.6720 LP  0  0  0  0  0  0  0  0  0  0  0  0  # atno 17321 bound_to 7965
  140.7800  143.3929  151.1279 LP  0  0  0  0  0  0  0  0  0  0  0  0  # atno 17342 bound_to 10162
  139.7576  143.8683  152.3092 LP  0  0  0  0  0  0  0  0  0  0  0  0  # atno 17343 bound_to 10162
  156.3164  130.3779  149.7615 LP  0  0  0  0  0  0  0  0  0  0  0  0  # atno 17370 bound_to 10713
  156.5199  130.8210  151.3200 LP  0  0  0  0  0  0  0  0  0  0  0  0  # atno 17371 bound_to 10713
  140.4476  134.1615  155.7179 LP  0  0  0  0  0  0  0  0  0  0  0  0  # atno 17394 bound_to 11000
  141.1741  133.8550  157.1479 LP  0  0  0  0  0  0  0  0  0  0  0  0  # atno 17395 bound_to 11000

$$$$
