AV-unprocessed.smi:630|AV-procd|sdf|3118|dock5
  -GOLD-   22720 0 43D 1   1.00000     0.00000
 Structure written by MMmdl.
 37 38  0  0  0  0  0  0  0  0  1 V2000
  149.5947  137.8535  154.1150 N   0  0  0  0  0  0  0  0  0  0  0  0
  150.7454  137.5947  154.7419 C   0  0  0  0  0  0  0  0  0  0  0  0
  151.3149  136.5096  154.6336 O   0  0  0  0  0  0  0  0  0  0  0  0
  151.3314  138.7111  155.6287 C   0  0  1  0  0  0  0  0  0  0  0  0
  150.5341  140.0274  155.4480 C   0  0  0  0  0  0  0  0  0  0  0  0
  151.3498  141.2780  155.8207 C   0  0  0  0  0  0  0  0  0  0  0  0
  151.3191  141.6830  157.3056 C   0  0  0  0  0  0  0  0  0  0  0  0
  151.2929  140.5460  158.3425 C   0  0  0  0  0  0  0  0  0  0  0  0
  152.1585  139.3142  158.0100 C   0  0  0  0  0  0  0  0  0  0  0  0
  151.4733  138.2593  157.1073 C   0  0  1  0  0  0  0  0  0  0  0  0
  150.1934  137.8216  157.6742 N   0  0  0  0  0  0  0  0  0  0  0  0
  150.0032  137.3666  158.9208 C   0  0  0  0  0  0  0  0  0  0  0  0
  150.9021  137.2784  159.7578 O   0  0  0  0  0  0  0  0  0  0  0  0
  148.7177  137.0279  159.1200 N   0  0  0  0  0  0  0  0  0  0  0  0
  148.1190  136.5038  160.2951 C   0  0  0  0  0  0  0  0  0  0  0  0
  147.6875  137.2484  161.3197 N   0  0  0  0  0  0  0  0  0  0  0  0
  147.1451  136.4669  162.3431 C   0  0  0  0  0  0  0  0  0  0  0  0
  147.1706  135.1202  162.0782 C   0  0  0  0  0  0  0  0  0  0  0  0
  147.8819  134.7773  160.5240 S   0  0  0  0  0  0  0  0  0  0  0  0
  149.1802  137.1506  153.5205 H   0  0  0  0  0  0  0  0  0  0  0  0
  149.1456  138.7503  154.2321 H   0  0  0  0  0  0  0  0  0  0  0  0
  152.3397  138.8909  155.2511 H   0  0  0  0  0  0  0  0  0  0  0  0
  150.2564  140.1280  154.3972 H   0  0  0  0  0  0  0  0  0  0  0  0
  149.5922  140.0040  155.9975 H   0  0  0  0  0  0  0  0  0  0  0  0
  152.3842  141.1485  155.5006 H   0  0  0  0  0  0  0  0  0  0  0  0
  150.9808  142.1242  155.2399 H   0  0  0  0  0  0  0  0  0  0  0  0
  152.1838  142.3192  157.4982 H   0  0  0  0  0  0  0  0  0  0  0  0
  150.4495  142.3170  157.4820 H   0  0  0  0  0  0  0  0  0  0  0  0
  151.6324  140.9607  159.2922 H   0  0  0  0  0  0  0  0  0  0  0  0
  150.2607  140.2491  158.5258 H   0  0  0  0  0  0  0  0  0  0  0  0
  153.1094  139.6272  157.5774 H   0  0  0  0  0  0  0  0  0  0  0  0
  152.4196  138.8278  158.9507 H   0  0  0  0  0  0  0  0  0  0  0  0
  152.1336  137.3895  157.0933 H   0  0  0  0  0  0  0  0  0  0  0  0
  149.3955  137.8513  157.0562 H   0  0  0  0  0  0  0  0  0  0  0  0
  148.0938  137.1573  158.3374 H   0  0  0  0  0  0  0  0  0  0  0  0
  146.7615  136.9530  163.2279 H   0  0  0  0  0  0  0  0  0  0  0  0
  146.8153  134.3129  162.7012 H   0  0  0  0  0  0  0  0  0  0  0  0
  1  2  1  0  0  0  0
  1 20  1  0  0  0  0
  1 21  1  0  0  0  0
  2  3  2  0  0  0  0
  2  4  1  0  0  0  0
  4 10  1  0  0  0  0
  4  5  1  0  0  0  0
  4 22  1  0  0  0  0
  5  6  1  0  0  0  0
  5 23  1  0  0  0  0
  5 24  1  0  0  0  0
  6  7  1  0  0  0  0
  6 25  1  0  0  0  0
  6 26  1  0  0  0  0
  7  8  1  0  0  0  0
  7 27  1  0  0  0  0
  7 28  1  0  0  0  0
  8  9  1  0  0  0  0
  8 29  1  0  0  0  0
  8 30  1  0  0  0  0
  9 10  1  0  0  0  0
  9 31  1  0  0  0  0
  9 32  1  0  0  0  0
 10 11  1  0  0  0  0
 10 33  1  0  0  0  0
 11 12  1  0  0  0  0
 11 34  1  0  0  0  0
 12 13  2  0  0  0  0
 12 14  1  0  0  0  0
 14 15  1  0  0  0  0
 14 35  1  0  0  0  0
 15 19  1  0  0  0  0
 15 16  2  0  0  0  0
 16 17  1  0  0  0  0
 17 18  2  0  0  0  0
 17 36  1  0  0  0  0
 18 19  1  0  0  0  0
 18 37  1  0  0  0  0
M  END
> <s_m_source_file>
AV-unprocessed.smi

> <i_m_source_file_index>
630

> <i_lp_mmshare_version>
43012

> <i_f3d_flags>
0

> <s_epik_input>
W05IMl1DKD1PKVtDQEBIXTFbQ0gyXVtDSDJdW0NIMl1bQ0gyXVtDSDJdW0NASF0xW05IXUMoPU8pW05IXWMybltjSF1bY0hdczI=

> <s_epik_cmdline>
J2VwaWtfcHl0aG9uJywgJy1waCcsICc3LjAnLCAnLXRuJywgJzgnLCAnLW1hJywgJzIwMCcsICctbWV0YWxfYmluZGluZycsICctaW1hZScsICc8aW5maWxlLm1hZT4nLCAnLW9tYWUnLCAnPG91dGZpbGUubWFlPic=

> <r_lp_tautomer_probability>
0.999

> <r_epik_Ionization_Penalty>
0.000342689

> <r_epik_Ionization_Penalty_Charging>
0

> <r_epik_Ionization_Penalty_Neutral>
0.000342689

> <r_epik_State_Penalty>
0.000177984

> <r_epik_Charging_Adjusted_Penalty>
0.000177984

> <i_epik_Tot_Q>
0

> <i_epik_Tot_abs_Q>
0

> <r_epik_Metal_State_Penalty>
0.00743087

> <b_epik_Metal_Only>
0

> <s_lp_Force_Field>
OPLS_2005

> <r_lp_Energy>
14.0273

> <b_lp_Chiralities_Consistent>
1

> <s_lp_Variant>
AV-unprocessed.smi:630-2

> <Gold.Version>
5.8.1

> <Gold.Id.Protein>
6NUR|6NUR_protein|mol2

> <Gold.PLP.Fitness>
44.7561

> <Gold.PLP.PLP>
-33.3776

> <Gold.PLP.part.hbond>
-4.9474

> <Gold.PLP.part.metal>
0.0000

> <Gold.PLP.part.buried>
-5.3103

> <Gold.PLP.part.nonpolar>
-22.2161

> <Gold.PLP.part.repulsive>
0.4259

> <Gold.PLP.ligand.clash>
1.1731

> <Gold.PLP.ligand.torsion>
0.8287

> <Gold.PLP.Chemscore.Hbond>
4.7022

> <Gold.PLP.Chemscore.CHOScore>
0.0000

> <Gold.PLP.Chemscore.Metal>
0.0000

> <Gold.Chemscore.Hbonds>
donor molecule, donor type, donor heavy atom, donor atom, acceptor molecule, acceptor atom, score
      L1  H     1    20       P1  7948  1.00
      P1  H  6896  6909       L1    13  0.65
      P1  H  6931  6943       L1    16  0.94
      P1  H  6934  6947       L1    16  0.82
      P1  H 10752 10764       L1     3  1.00

> <Gold.PLP.Chemscore.Internal.Correction>
0.1023

> <Gold.Rescore>
     Score         DG    S(hbond)    S(metal)    S(lipo)     H(rot)  DE(clash)    DE(int)     intcor
     21.30     -23.50       4.37        0.00      62.52       1.52       0.25       1.95       ----

> <Gold.Chemscore.Fitness>
21.3000

> <Gold.Chemscore.DG>
-23.4989

> <Gold.Chemscore.ZeroCoef>
-5.4800

> <Gold.Chemscore.Hbond>
4.3688

> <Gold.Chemscore.Metal>
0.0000

> <Gold.Chemscore.Lipo>
62.5159

> <Gold.Chemscore.Internal_Hbond>
0.0000

> <Gold.Chemscore.DEClash>
0.2469

> <Gold.Chemscore.DEInternal>
1.9520

> <Gold.Chemscore.Rot>
1.5184

> <Gold.Chemscore.Internal.Correction>
   9.000000E+99

> <Gold.Chemscore.Hbonds>
donor molecule, donor type, donor heavy atom, donor atom, acceptor molecule, acceptor atom, score
      L1  H     1    20       P1  7948  0.96
      P1  H  6896  6909       L1    13  0.36
      P1  H  6931  6943       L1    16  0.52
      P1  H  6934  6947       L1    16  0.77
      P1  H 10752 10764       L1     3  0.97

> <Gold.Chemscore.Hbond.Weighted>
-14.5917

> <Gold.Chemscore.Metal.Weighted>
-0.0000

> <Gold.Chemscore.Lipo.Weighted>
-7.3144

> <Gold.Chemscore.Internal_Hbond.Weighted>
0.0000

> <Gold.Chemscore.DEClash.Weighted>
0.2469

> <Gold.Chemscore.DEInternal.Weighted>
1.9520

> <Gold.Chemscore.Rot.Weighted>
3.8872

> <Gold.Chemscore.Internal.Correction.Weighted>
   9.000000E+99

> <Gold.Protein.RotatedTorsions>
[ 6907 6896 6895 6894 ] final  105.90 input  -60.11 | X-H torsion
[ 7974 7965 7964 7962 ] final   97.69 input  175.53 | X-H torsion
[ 8008 7997 7996 7995 ] final -154.67 input   59.86 | X-H torsion
[ 10167 10162 10161 10158 ] final  -55.06 input  -65.29 | X-H torsion
[ 10718 10713 10712 10709 ] final  100.20 input   66.30 | X-H torsion
[ 10763 10752 10751 10750 ] final  -86.44 input  -60.55 | X-H torsion
[ 11005 11000 10999 10996 ] final -103.03 input  -57.11 | X-H torsion

> <Gold.Protein.ActiveResidues>
 VAL166  LYS551  ARG553  GLY616  TRP617  ASP618  TYR619  PRO620  LYS621  CYS622 
 ASP623  PHE694  ASN695  SER759  ASP760  ASP761  ALA762  ILE779  LEU786  VAL792 
 PHE793  MET794  SER795  GLU796  ALA797  LYS798  CYS799  TRP800  GLU811  SER814 

> <Gold.Protein.RotatedAtoms>
  152.5214  133.9460  159.7649 H   0  0  0  0  0  0  0  0  0  0  0  0  # atno 6907 bound_to 6896
  150.9780  133.6266  159.2734 H   0  0  0  0  0  0  0  0  0  0  0  0  # atno 6908 bound_to 6896
  151.3454  135.0878  159.9438 H   0  0  0  0  0  0  0  0  0  0  0  0  # atno 6909 bound_to 6896
  145.4222  139.2320  143.3190 H   0  0  0  0  0  0  0  0  0  0  0  0  # atno 7974 bound_to 7965
  155.6899  140.0754  157.2452 H   0  0  0  0  0  0  0  0  0  0  0  0  # atno 8008 bound_to 7997
  154.4090  140.1666  156.2127 H   0  0  0  0  0  0  0  0  0  0  0  0  # atno 8009 bound_to 7997
  155.9461  140.3381  155.6371 H   0  0  0  0  0  0  0  0  0  0  0  0  # atno 8010 bound_to 7997
  140.6396  143.2500  151.5026 H   0  0  0  0  0  0  0  0  0  0  0  0  # atno 10167 bound_to 10162
  157.6859  131.0691  150.5064 H   0  0  0  0  0  0  0  0  0  0  0  0  # atno 10718 bound_to 10713
  154.6224  135.5449  153.7590 H   0  0  0  0  0  0  0  0  0  0  0  0  # atno 10763 bound_to 10752
  153.0245  135.6416  154.1421 H   0  0  0  0  0  0  0  0  0  0  0  0  # atno 10764 bound_to 10752
  154.1354  135.2911  155.3154 H   0  0  0  0  0  0  0  0  0  0  0  0  # atno 10765 bound_to 10752
  141.1163  133.8607  157.1435 H   0  0  0  0  0  0  0  0  0  0  0  0  # atno 11005 bound_to 11000
  146.2651  140.4948  142.8837 LP  0  0  0  0  0  0  0  0  0  0  0  0  # atno 17320 bound_to 7965
  144.8238  140.6594  143.6336 LP  0  0  0  0  0  0  0  0  0  0  0  0  # atno 17321 bound_to 7965
  139.5605  144.2168  152.1683 LP  0  0  0  0  0  0  0  0  0  0  0  0  # atno 17342 bound_to 10162
  140.1435  144.5180  150.6730 LP  0  0  0  0  0  0  0  0  0  0  0  0  # atno 17343 bound_to 10162
  156.5383  130.4202  149.6167 LP  0  0  0  0  0  0  0  0  0  0  0  0  # atno 17370 bound_to 10713
  156.3008  130.7175  151.2047 LP  0  0  0  0  0  0  0  0  0  0  0  0  # atno 17371 bound_to 10713
  140.0088  134.9997  157.0351 LP  0  0  0  0  0  0  0  0  0  0  0  0  # atno 17394 bound_to 11000
  140.4635  134.1460  155.7194 LP  0  0  0  0  0  0  0  0  0  0  0  0  # atno 17395 bound_to 11000

$$$$
