AV-unprocessed.smi:1056|AV-procd|sdf|4645|dock6
  -GOLD-   22720 3153D 1   1.00000     0.00000
 Structure written by MMmdl.
 44 46  0  0  0  0  0  0  0  0  3 V2000
  153.0901  142.7423  160.6910 C   0  0  0  0  0  0  0  0  0  0  0  0
  152.3601  142.3828  159.4084 C   0  0  0  0  0  0  0  0  0  0  0  0
  152.7726  141.2450  158.6793 C   0  0  0  0  0  0  0  0  0  0  0  0
  152.1180  140.8740  157.4845 C   0  0  0  0  0  0  0  0  0  0  0  0
  152.3531  139.8170  156.6221 N   0  0  0  0  0  0  0  0  0  0  0  0
  151.4154  140.0096  155.6996 C   0  0  0  0  0  0  0  0  0  0  0  0
  150.6017  141.0708  155.8594 N   0  0  0  0  0  0  0  0  0  0  0  0
  149.5164  141.4751  154.9844 C   0  0  0  0  0  0  0  0  0  0  0  0
  148.4249  140.3949  154.8552 C   0  0  1  0  0  0  0  0  0  0  0  0
  148.0436  140.0209  156.1643 O   0  0  0  0  0  0  0  0  0  0  0  0
  147.1767  140.8787  154.0828 C   0  0  0  0  0  0  0  0  0  0  0  0
  146.3861  139.7639  153.5019 N   0  3  1  0  0  0  0  0  0  0  0  0
  147.1399  139.0091  152.4683 C   0  0  0  0  0  0  0  0  0  0  0  0
  146.1906  138.0851  151.6819 C   0  0  0  0  0  0  0  0  0  0  0  0
  145.3344  137.3293  152.6036 N   0  5  0  0  0  0  0  0  0  0  0  0
  145.0207  137.6749  153.8909 C   0  0  0  0  0  0  0  0  0  0  0  0
  144.1985  137.1020  154.6022 O   0  0  0  0  0  0  0  0  0  0  0  0
  145.7988  138.8568  154.5300 C   0  0  0  0  0  0  0  0  0  0  0  0
  151.0293  141.6776  157.0360 C   0  0  0  0  0  0  0  0  0  0  0  0
  150.6111  142.8136  157.7513 C   0  0  0  0  0  0  0  0  0  0  0  0
  151.2778  143.1714  158.9419 C   0  0  0  0  0  0  0  0  0  0  0  0
  150.8190  144.3998  159.7072 C   0  0  0  0  0  0  0  0  0  0  0  0
  153.8564  142.0055  160.9332 H   0  0  0  0  0  0  0  0  0  0  0  0
  152.3943  142.7858  161.5290 H   0  0  0  0  0  0  0  0  0  0  0  0
  153.5774  143.7128  160.5943 H   0  0  0  0  0  0  0  0  0  0  0  0
  153.5974  140.6445  159.0341 H   0  0  0  0  0  0  0  0  0  0  0  0
  151.3146  139.3420  154.8562 H   0  0  0  0  0  0  0  0  0  0  0  0
  149.0889  142.3975  155.3804 H   0  0  0  0  0  0  0  0  0  0  0  0
  149.9300  141.7213  154.0055 H   0  0  0  0  0  0  0  0  0  0  0  0
  148.8648  139.5242  154.3704 H   0  0  0  0  0  0  0  0  0  0  0  0
  147.3673  139.3632  156.1111 H   0  0  0  0  0  0  0  0  0  0  0  0
  146.5544  141.4567  154.7676 H   0  0  0  0  0  0  0  0  0  0  0  0
  147.4519  141.5594  153.2768 H   0  0  0  0  0  0  0  0  0  0  0  0
  147.6224  139.6937  151.7699 H   0  0  0  0  0  0  0  0  0  0  0  0
  147.9332  138.4310  152.9454 H   0  0  0  0  0  0  0  0  0  0  0  0
  145.5872  138.6979  151.0118 H   0  0  0  0  0  0  0  0  0  0  0  0
  146.7763  137.4296  151.0380 H   0  0  0  0  0  0  0  0  0  0  0  0
  146.5886  138.4497  155.1628 H   0  0  0  0  0  0  0  0  0  0  0  0
  145.1173  139.4076  155.1772 H   0  0  0  0  0  0  0  0  0  0  0  0
  149.7844  143.4052  157.3868 H   0  0  0  0  0  0  0  0  0  0  0  0
  150.0142  144.9171  159.1842 H   0  0  0  0  0  0  0  0  0  0  0  0
  151.6423  145.1034  159.8323 H   0  0  0  0  0  0  0  0  0  0  0  0
  150.4510  144.1177  160.6938 H   0  0  0  0  0  0  0  0  0  0  0  0
  145.6106  140.1815  153.0084 H   0  0  0  0  0  0  0  0  0  0  0  0
  1  2  1  0  0  0  0
  1 23  1  0  0  0  0
  1 24  1  0  0  0  0
  1 25  1  0  0  0  0
  2 21  1  0  0  0  0
  2  3  2  0  0  0  0
  3  4  1  0  0  0  0
  3 26  1  0  0  0  0
  4 19  2  0  0  0  0
  4  5  1  0  0  0  0
  5  6  2  0  0  0  0
  6  7  1  0  0  0  0
  6 27  1  0  0  0  0
  7  8  1  0  0  0  0
  7 19  1  0  0  0  0
  8  9  1  0  0  0  0
  8 28  1  0  0  0  0
  8 29  1  0  0  0  0
  9 10  1  0  0  0  0
  9 11  1  0  0  0  0
  9 30  1  0  0  0  0
 10 31  1  0  0  0  0
 11 12  1  0  0  0  0
 11 32  1  0  0  0  0
 11 33  1  0  0  0  0
 12 18  1  0  0  0  0
 12 13  1  0  0  0  0
 12 44  1  0  0  0  0
 13 14  1  0  0  0  0
 13 34  1  0  0  0  0
 13 35  1  0  0  0  0
 14 15  1  0  0  0  0
 14 36  1  0  0  0  0
 14 37  1  0  0  0  0
 15 16  1  0  0  0  0
 16 17  2  0  0  0  0
 16 18  1  0  0  0  0
 18 38  1  0  0  0  0
 18 39  1  0  0  0  0
 19 20  1  0  0  0  0
 20 21  2  0  0  0  0
 20 40  1  0  0  0  0
 21 22  1  0  0  0  0
 22 41  1  0  0  0  0
 22 42  1  0  0  0  0
 22 43  1  0  0  0  0
M  CHG  1  12   1
M  CHG  1  15  -1
M  END
> <s_m_source_file>
AV-unprocessed.smi

> <i_m_source_file_index>
1056

> <i_lp_mmshare_version>
43012

> <i_f3d_flags>
0

> <s_epik_input>
W0NIM11jKFtjSF0xKWMoW0NIM10pW2NIXWMoYzEyKW4oW2NIXW4yKVtDSDJdW0NASF0oW09IXSlbQ0gyXU4zW0NIMl1bQ0gyXVtOSF1DKD1PKVtDSDJdMw==

> <s_epik_cmdline>
J2VwaWtfcHl0aG9uJywgJy1waCcsICc3LjAnLCAnLXRuJywgJzgnLCAnLW1hJywgJzIwMCcsICctbWV0YWxfYmluZGluZycsICctaW1hZScsICc8aW5maWxlLm1hZT4nLCAnLW9tYWUnLCAnPG91dGZpbGUubWFlPic=

> <r_epik_Ionization_Penalty>
5.13411

> <r_epik_Ionization_Penalty_Charging>
5.04792

> <r_epik_Ionization_Penalty_Neutral>
0.0861879

> <r_epik_State_Penalty>
5.18224

> <r_epik_Charging_Adjusted_Penalty>
10.2302

> <i_epik_Tot_Q>
0

> <i_epik_Tot_abs_Q>
2

> <r_epik_Metal_State_Penalty>
1.33873

> <b_epik_Metal_Only>
1

> <s_lp_Force_Field>
OPLS_2005

> <r_lp_Energy>
19.55

> <b_lp_Chiralities_Consistent>
1

> <s_lp_Variant>
AV-unprocessed.smi:1056-16

> <Gold.Version>
5.8.1

> <Gold.Id.Protein>
6NUR|6NUR_protein|mol2

> <Gold.PLP.Fitness>
46.6695

> <Gold.PLP.PLP>
-38.1995

> <Gold.PLP.part.hbond>
-2.0000

> <Gold.PLP.part.metal>
0.0000

> <Gold.PLP.part.buried>
-1.0874

> <Gold.PLP.part.nonpolar>
-35.4618

> <Gold.PLP.part.repulsive>
0.2761

> <Gold.PLP.ligand.clash>
0.0000

> <Gold.PLP.ligand.torsion>
0.2749

> <Gold.PLP.Chemscore.Hbond>
2.9913

> <Gold.PLP.Chemscore.CHOScore>
0.0000

> <Gold.PLP.Chemscore.Metal>
0.0000

> <Gold.Chemscore.Hbonds>
donor molecule, donor type, donor heavy atom, donor atom, acceptor molecule, acceptor atom, score
      L1  H    12    44       P1 10175  2.00
      P1  H  7997  8009       L1     5  0.86

> <Gold.PLP.Chemscore.Internal.Correction>
0.0460

> <Gold.Rescore>
     Score         DG    S(hbond)    S(metal)    S(lipo)     H(rot)  DE(clash)    DE(int)     intcor
     15.63     -17.24       1.58        0.00     106.10       2.31       0.27       1.34       ----

> <Gold.Chemscore.Fitness>
15.6306

> <Gold.Chemscore.DG>
-17.2359

> <Gold.Chemscore.ZeroCoef>
-5.4800

> <Gold.Chemscore.Hbond>
1.5772

> <Gold.Chemscore.Metal>
0.0000

> <Gold.Chemscore.Lipo>
106.0983

> <Gold.Chemscore.Internal_Hbond>
0.0000

> <Gold.Chemscore.DEClash>
0.2688

> <Gold.Chemscore.DEInternal>
1.3365

> <Gold.Chemscore.Rot>
2.3147

> <Gold.Chemscore.Internal.Correction>
   9.000000E+99

> <Gold.Chemscore.Hbonds>
donor molecule, donor type, donor heavy atom, donor atom, acceptor molecule, acceptor atom, score
      L1  H    12    44       P1 10175  0.92
      P1  H  7997  8009       L1     5  0.18

> <Gold.Chemscore.Hbond.Weighted>
-5.2680

> <Gold.Chemscore.Metal.Weighted>
-0.0000

> <Gold.Chemscore.Lipo.Weighted>
-12.4135

> <Gold.Chemscore.Internal_Hbond.Weighted>
0.0000

> <Gold.Chemscore.DEClash.Weighted>
0.2688

> <Gold.Chemscore.DEInternal.Weighted>
1.3365

> <Gold.Chemscore.Rot.Weighted>
5.9256

> <Gold.Chemscore.Internal.Correction.Weighted>
   9.000000E+99

> <Gold.Protein.RotatedTorsions>
[ 6907 6896 6895 6894 ] final -158.12 input  -60.11 | X-H torsion
[ 7974 7965 7964 7962 ] final  105.74 input  175.53 | X-H torsion
[ 8008 7997 7996 7995 ] final -153.36 input   59.86 | X-H torsion
[ 10167 10162 10161 10158 ] final  -85.90 input  -65.29 | X-H torsion
[ 10718 10713 10712 10709 ] final -137.67 input   66.30 | X-H torsion
[ 10763 10752 10751 10750 ] final   41.15 input  -60.55 | X-H torsion
[ 11005 11000 10999 10996 ] final  -23.83 input  -57.11 | X-H torsion

> <Gold.Protein.ActiveResidues>
 VAL166  LYS551  ARG553  GLY616  TRP617  ASP618  TYR619  PRO620  LYS621  CYS622 
 ASP623  PHE694  ASN695  SER759  ASP760  ASP761  ALA762  ILE779  LEU786  VAL792 
 PHE793  MET794  SER795  GLU796  ALA797  LYS798  CYS799  TRP800  GLU811  SER814 

> <Gold.Protein.RotatedAtoms>
  151.3132  133.4071  159.2648 H   0  0  0  0  0  0  0  0  0  0  0  0  # atno 6907 bound_to 6896
  151.0096  134.9387  159.8010 H   0  0  0  0  0  0  0  0  0  0  0  0  # atno 6908 bound_to 6896
  152.5297  134.3097  159.9161 H   0  0  0  0  0  0  0  0  0  0  0  0  # atno 6909 bound_to 6896
  145.3157  139.2527  143.3739 H   0  0  0  0  0  0  0  0  0  0  0  0  # atno 7974 bound_to 7965
  155.6696  140.0732  157.2525 H   0  0  0  0  0  0  0  0  0  0  0  0  # atno 8008 bound_to 7997
  154.4126  140.1701  156.1915 H   0  0  0  0  0  0  0  0  0  0  0  0  # atno 8009 bound_to 7997
  155.9628  140.3368  155.6509 H   0  0  0  0  0  0  0  0  0  0  0  0  # atno 8010 bound_to 7997
  140.3993  143.2670  151.9163 H   0  0  0  0  0  0  0  0  0  0  0  0  # atno 10167 bound_to 10162
  156.2907  130.7373  151.1398 H   0  0  0  0  0  0  0  0  0  0  0  0  # atno 10718 bound_to 10713
  152.9916  135.6170  154.2740 H   0  0  0  0  0  0  0  0  0  0  0  0  # atno 10763 bound_to 10752
  154.2472  135.2786  155.2832 H   0  0  0  0  0  0  0  0  0  0  0  0  # atno 10764 bound_to 10752
  154.5319  135.5786  153.6823 H   0  0  0  0  0  0  0  0  0  0  0  0  # atno 10765 bound_to 10752
  140.8789  133.7668  156.0277 H   0  0  0  0  0  0  0  0  0  0  0  0  # atno 11005 bound_to 11000
  146.3101  140.3703  142.8673 LP  0  0  0  0  0  0  0  0  0  0  0  0  # atno 17320 bound_to 7965
  144.8980  140.7607  143.5885 LP  0  0  0  0  0  0  0  0  0  0  0  0  # atno 17321 bound_to 7965
  139.4785  144.5650  151.8180 LP  0  0  0  0  0  0  0  0  0  0  0  0  # atno 17342 bound_to 10162
  140.4757  144.1523  150.5924 LP  0  0  0  0  0  0  0  0  0  0  0  0  # atno 17343 bound_to 10162
  157.7341  131.0584  150.5540 LP  0  0  0  0  0  0  0  0  0  0  0  0  # atno 17370 bound_to 10713
  156.5656  130.4266  149.6043 LP  0  0  0  0  0  0  0  0  0  0  0  0  # atno 17371 bound_to 10713
  140.8485  134.2982  157.5285 LP  0  0  0  0  0  0  0  0  0  0  0  0  # atno 17394 bound_to 11000
  139.8718  134.9455  156.3911 LP  0  0  0  0  0  0  0  0  0  0  0  0  # atno 17395 bound_to 11000

$$$$
