AV-unprocessed.smi:794|AV-procd|sdf|3760|dock9
  -GOLD-   22720 1193D 1   1.00000     0.00000
 Structure written by MMmdl.
 41 43  0  0  0  0  0  0  0  0  1 V2000
  147.5305  136.8714  163.2211 C   0  0  0  0  0  0  0  0  0  0  0  0
  147.6910  136.3292  161.8338 C   0  0  0  0  0  0  0  0  0  0  0  0
  148.0302  137.1945  160.7893 N   0  0  0  0  0  0  0  0  0  0  0  0
  148.1331  136.5588  159.6177 C   0  0  0  0  0  0  0  0  0  0  0  0
  148.4693  137.1889  158.3909 N   0  0  0  0  0  0  0  0  0  0  0  0
  148.1485  138.4280  157.9790 C   0  0  0  0  0  0  0  0  0  0  0  0
  147.4634  139.2332  158.6098 O   0  0  0  0  0  0  0  0  0  0  0  0
  148.6825  138.6933  156.7778 N   0  0  0  0  0  0  0  0  0  0  0  0
  148.5249  139.9482  156.0407 C   0  0  2  0  0  0  0  0  0  0  0  0
  147.0567  140.1247  155.5959 C   0  0  1  0  0  0  0  0  0  0  0  0
  146.8281  141.5907  155.1852 C   0  0  0  0  0  0  0  0  0  0  0  0
  147.5964  141.6883  153.8536 C   0  0  0  0  0  0  0  0  0  0  0  0
  148.1607  140.2641  153.6772 C   0  0  2  0  0  0  0  0  0  0  0  0
  147.0293  139.4179  154.2462 C   0  0  0  0  0  0  0  0  0  0  0  0
  149.3065  140.0342  154.6936 C   0  0  2  0  0  0  0  0  0  0  0  0
  150.2016  138.8239  154.3417 C   0  0  0  0  0  0  0  0  0  0  0  0
  149.4425  137.6331  154.3383 O   0  0  0  0  0  0  0  0  0  0  0  0
  147.8163  134.8357  159.7219 S   0  0  0  0  0  0  0  0  0  0  0  0
  147.5416  135.0202  161.4366 C   0  0  0  0  0  0  0  0  0  0  0  0
  147.1884  133.8446  162.2857 C   0  0  0  0  0  0  0  0  0  0  0  0
  146.5561  136.6102  163.6347 H   0  0  0  0  0  0  0  0  0  0  0  0
  147.6149  137.9583  163.2432 H   0  0  0  0  0  0  0  0  0  0  0  0
  148.2919  136.4689  163.8895 H   0  0  0  0  0  0  0  0  0  0  0  0
  149.0335  136.6378  157.7613 H   0  0  0  0  0  0  0  0  0  0  0  0
  149.2317  137.9734  156.3314 H   0  0  0  0  0  0  0  0  0  0  0  0
  148.8075  140.7752  156.6951 H   0  0  0  0  0  0  0  0  0  0  0  0
  146.3254  139.7641  156.3204 H   0  0  0  0  0  0  0  0  0  0  0  0
  145.7671  141.7899  155.0299 H   0  0  0  0  0  0  0  0  0  0  0  0
  147.1945  142.2963  155.9318 H   0  0  0  0  0  0  0  0  0  0  0  0
  146.9168  141.9399  153.0382 H   0  0  0  0  0  0  0  0  0  0  0  0
  148.3800  142.4464  153.8786 H   0  0  0  0  0  0  0  0  0  0  0  0
  148.4262  140.0369  152.6445 H   0  0  0  0  0  0  0  0  0  0  0  0
  147.2648  138.3546  154.3070 H   0  0  0  0  0  0  0  0  0  0  0  0
  146.0857  139.5424  153.7120 H   0  0  0  0  0  0  0  0  0  0  0  0
  149.9517  140.9141  154.7191 H   0  0  0  0  0  0  0  0  0  0  0  0
  150.6296  138.9414  153.3461 H   0  0  0  0  0  0  0  0  0  0  0  0
  151.0296  138.7184  155.0428 H   0  0  0  0  0  0  0  0  0  0  0  0
  149.3258  137.3536  153.4430 H   0  0  0  0  0  0  0  0  0  0  0  0
  147.7505  133.8572  163.2197 H   0  0  0  0  0  0  0  0  0  0  0  0
  147.4114  132.9074  161.7751 H   0  0  0  0  0  0  0  0  0  0  0  0
  146.1262  133.8511  162.5302 H   0  0  0  0  0  0  0  0  0  0  0  0
  1  2  1  0  0  0  0
  1 21  1  0  0  0  0
  1 22  1  0  0  0  0
  1 23  1  0  0  0  0
  2 19  2  0  0  0  0
  2  3  1  0  0  0  0
  3  4  2  0  0  0  0
  4  5  1  0  0  0  0
  4 18  1  0  0  0  0
  5  6  1  0  0  0  0
  5 24  1  0  0  0  0
  6  7  2  0  0  0  0
  6  8  1  0  0  0  0
  8  9  1  0  0  0  0
  8 25  1  0  0  0  0
  9 15  1  0  0  0  0
  9 10  1  0  0  0  0
  9 26  1  0  0  0  0
 10 14  1  0  0  0  0
 10 11  1  0  0  0  0
 10 27  1  0  0  0  0
 11 12  1  0  0  0  0
 11 28  1  0  0  0  0
 11 29  1  0  0  0  0
 12 13  1  0  0  0  0
 12 30  1  0  0  0  0
 12 31  1  0  0  0  0
 13 14  1  0  0  0  0
 13 15  1  0  0  0  0
 13 32  1  0  0  0  0
 14 33  1  0  0  0  0
 14 34  1  0  0  0  0
 15 16  1  0  0  0  0
 15 35  1  0  0  0  0
 16 17  1  0  0  0  0
 16 36  1  0  0  0  0
 16 37  1  0  0  0  0
 17 38  1  0  0  0  0
 18 19  1  0  0  0  0
 19 20  1  0  0  0  0
 20 39  1  0  0  0  0
 20 40  1  0  0  0  0
 20 41  1  0  0  0  0
M  END
> <s_m_source_file>
AV-unprocessed.smi

> <i_m_source_file_index>
794

> <i_lp_mmshare_version>
43012

> <i_f3d_flags>
0

> <s_epik_input>
W0NIM11jMW5jKHNjMVtDSDNdKVtOSF1DKD1PKVtOSF1bQ0BIXShbQ0BASF0yMylbQ0BIXShbQ0gyXVtPSF0pW0NAQEhdKFtDSDJdMylbQ0gyXVtDSDJdMg==

> <s_epik_cmdline>
J2VwaWtfcHl0aG9uJywgJy1waCcsICc3LjAnLCAnLXRuJywgJzgnLCAnLW1hJywgJzIwMCcsICctbWV0YWxfYmluZGluZycsICctaW1hZScsICc8aW5maWxlLm1hZT4nLCAnLW9tYWUnLCAnPG91dGZpbGUubWFlPic=

> <r_lp_tautomer_probability>
0.999

> <r_epik_Ionization_Penalty>
0.000713029

> <r_epik_Ionization_Penalty_Charging>
0

> <r_epik_Ionization_Penalty_Neutral>
0.000713029

> <r_epik_State_Penalty>
0.000177984

> <r_epik_Charging_Adjusted_Penalty>
0.000177984

> <i_epik_Tot_Q>
0

> <i_epik_Tot_abs_Q>
0

> <r_epik_Metal_State_Penalty>
-0

> <b_epik_Metal_Only>
0

> <s_lp_Force_Field>
OPLS_2005

> <r_lp_Energy>
48.2777

> <b_lp_Chiralities_Consistent>
1

> <s_lp_Variant>
AV-unprocessed.smi:794-5

> <Gold.Version>
5.8.1

> <Gold.Id.Protein>
6NUR|6NUR_protein|mol2

> <Gold.PLP.Fitness>
40.1631

> <Gold.PLP.PLP>
-33.5209

> <Gold.PLP.part.hbond>
-4.0000

> <Gold.PLP.part.metal>
0.0000

> <Gold.PLP.part.buried>
-2.8692

> <Gold.PLP.part.nonpolar>
-27.2891

> <Gold.PLP.part.repulsive>
0.1313

> <Gold.PLP.ligand.clash>
0.0000

> <Gold.PLP.ligand.torsion>
0.2687

> <Gold.PLP.Chemscore.Hbond>
2.3888

> <Gold.PLP.Chemscore.CHOScore>
0.0000

> <Gold.PLP.Chemscore.Metal>
0.0000

> <Gold.Chemscore.Hbonds>
donor molecule, donor type, donor heavy atom, donor atom, acceptor molecule, acceptor atom, score
      L1  H    17    38       P1  7948  1.00
      P1  H  6931  6943       L1     3  0.56
      P1  H  6934  6947       L1     3  0.74

> <Gold.PLP.Chemscore.Internal.Correction>
0.0131

> <Gold.Rescore>
     Score         DG    S(hbond)    S(metal)    S(lipo)     H(rot)  DE(clash)    DE(int)     intcor
     13.15     -15.99       1.80        0.00      77.46       1.78       0.02       2.82       ----

> <Gold.Chemscore.Fitness>
13.1526

> <Gold.Chemscore.DG>
-15.9914

> <Gold.Chemscore.ZeroCoef>
-5.4800

> <Gold.Chemscore.Hbond>
1.7979

> <Gold.Chemscore.Metal>
0.0000

> <Gold.Chemscore.Lipo>
77.4593

> <Gold.Chemscore.Internal_Hbond>
0.0000

> <Gold.Chemscore.DEClash>
0.0222

> <Gold.Chemscore.DEInternal>
2.8166

> <Gold.Chemscore.Rot>
1.7798

> <Gold.Chemscore.Internal.Correction>
   9.000000E+99

> <Gold.Chemscore.Hbonds>
donor molecule, donor type, donor heavy atom, donor atom, acceptor molecule, acceptor atom, score
      L1  H    17    38       P1  7948  0.97
      P1  H  6931  6943       L1     3  0.05
      P1  H  6934  6947       L1     3  0.61

> <Gold.Chemscore.Hbond.Weighted>
-6.0049

> <Gold.Chemscore.Metal.Weighted>
-0.0000

> <Gold.Chemscore.Lipo.Weighted>
-9.0627

> <Gold.Chemscore.Internal_Hbond.Weighted>
0.0000

> <Gold.Chemscore.DEClash.Weighted>
0.0222

> <Gold.Chemscore.DEInternal.Weighted>
2.8166

> <Gold.Chemscore.Rot.Weighted>
4.5562

> <Gold.Chemscore.Internal.Correction.Weighted>
   9.000000E+99

> <Gold.Protein.RotatedTorsions>
[ 6907 6896 6895 6894 ] final  108.19 input  -60.11 | X-H torsion
[ 7974 7965 7964 7962 ] final -158.36 input  175.53 | X-H torsion
[ 8008 7997 7996 7995 ] final   22.32 input   59.86 | X-H torsion
[ 10167 10162 10161 10158 ] final  129.36 input  -65.29 | X-H torsion
[ 10718 10713 10712 10709 ] final  -98.80 input   66.30 | X-H torsion
[ 10763 10752 10751 10750 ] final   32.15 input  -60.55 | X-H torsion
[ 11005 11000 10999 10996 ] final  -66.08 input  -57.11 | X-H torsion

> <Gold.Protein.ActiveResidues>
 VAL166  LYS551  ARG553  GLY616  TRP617  ASP618  TYR619  PRO620  LYS621  CYS622 
 ASP623  PHE694  ASN695  SER759  ASP760  ASP761  ALA762  ILE779  LEU786  VAL792 
 PHE793  MET794  SER795  GLU796  ALA797  LYS798  CYS799  TRP800  GLU811  SER814 

> <Gold.Protein.RotatedAtoms>
  152.5122  133.9124  159.7494 H   0  0  0  0  0  0  0  0  0  0  0  0  # atno 6907 bound_to 6896
  150.9515  133.6536  159.2778 H   0  0  0  0  0  0  0  0  0  0  0  0  # atno 6908 bound_to 6896
  151.3813  135.0945  159.9549 H   0  0  0  0  0  0  0  0  0  0  0  0  # atno 6909 bound_to 6896
  144.7509  140.3839  143.6049 H   0  0  0  0  0  0  0  0  0  0  0  0  # atno 7974 bound_to 7965
  154.9639  140.3081  155.5018 H   0  0  0  0  0  0  0  0  0  0  0  0  # atno 8008 bound_to 7997
  156.2974  140.2296  156.4666 H   0  0  0  0  0  0  0  0  0  0  0  0  # atno 8009 bound_to 7997
  154.7939  140.0438  157.1210 H   0  0  0  0  0  0  0  0  0  0  0  0  # atno 8010 bound_to 7997
  139.5481  144.6791  151.4408 H   0  0  0  0  0  0  0  0  0  0  0  0  # atno 10167 bound_to 10162
  156.0117  130.5254  150.6576 H   0  0  0  0  0  0  0  0  0  0  0  0  # atno 10718 bound_to 10713
  153.0277  135.6420  154.1310 H   0  0  0  0  0  0  0  0  0  0  0  0  # atno 10763 bound_to 10752
  154.1037  135.2858  155.3247 H   0  0  0  0  0  0  0  0  0  0  0  0  # atno 10764 bound_to 10752
  154.6381  135.5469  153.7820 H   0  0  0  0  0  0  0  0  0  0  0  0  # atno 10765 bound_to 10752
  141.1472  133.6693  156.6084 H   0  0  0  0  0  0  0  0  0  0  0  0  # atno 11005 bound_to 11000
  145.6948  139.1647  143.2626 LP  0  0  0  0  0  0  0  0  0  0  0  0  # atno 17320 bound_to 7965
  146.1457  140.6996  142.9346 LP  0  0  0  0  0  0  0  0  0  0  0  0  # atno 17321 bound_to 7965
  140.6736  143.8239  150.7030 LP  0  0  0  0  0  0  0  0  0  0  0  0  # atno 17342 bound_to 10162
  140.1671  143.4226  152.2027 LP  0  0  0  0  0  0  0  0  0  0  0  0  # atno 17343 bound_to 10162
  157.4325  131.0851  151.1024 LP  0  0  0  0  0  0  0  0  0  0  0  0  # atno 17370 bound_to 10713
  157.1593  130.6218  149.5606 LP  0  0  0  0  0  0  0  0  0  0  0  0  # atno 17371 bound_to 10713
  140.3633  134.7668  157.4549 LP  0  0  0  0  0  0  0  0  0  0  0  0  # atno 17394 bound_to 11000
  140.0767  134.5787  155.8583 LP  0  0  0  0  0  0  0  0  0  0  0  0  # atno 17395 bound_to 11000

$$$$
