AV-unprocessed.smi:1540|AV-procd|sdf|6200|dock8
  -GOLD-   22720 6373D 1   1.00000     0.00000
 Structure written by MMmdl.
 32 32  0  0  0  0  0  0  0  0  2 V2000
  145.4934  143.2968  154.4273 C   0  0  0  0  0  0  0  0  0  0  0  0
  146.4263  142.6728  153.6924 C   0  0  0  0  0  0  0  0  0  0  0  0
  147.6505  141.9902  154.2613 C   0  0  0  0  0  0  0  0  0  0  0  0
  147.9728  140.8377  153.4926 O   0  0  0  0  0  0  0  0  0  0  0  0
  148.3812  139.6967  154.2434 C   0  0  2  0  0  0  0  0  0  0  0  0
  147.2759  139.3949  155.2659 C   0  0  0  0  0  0  0  0  0  0  0  0
  149.7239  139.9682  154.9413 C   0  0  0  0  0  0  0  0  0  0  0  0
  150.7701  139.6179  154.3953 O   0  0  0  0  0  0  0  0  0  0  0  0
  149.6390  140.5915  156.1327 N   0  0  0  0  0  0  0  0  0  0  0  0
  150.6609  140.9417  157.0311 C   0  0  0  0  0  0  0  0  0  0  0  0
  150.7475  142.1355  157.6807 C   0  0  0  0  0  0  0  0  0  0  0  0
  151.8400  142.4493  158.5930 C   0  0  0  0  0  0  0  0  0  0  0  0
  152.0079  143.7949  159.2766 C   0  0  0  0  0  0  0  0  0  0  0  0
  152.4781  143.6212  160.5109 F   0  0  0  0  0  0  0  0  0  0  0  0
  152.8661  144.5677  158.6102 F   0  0  0  0  0  0  0  0  0  0  0  0
  150.8427  144.4371  159.3619 F   0  0  0  0  0  0  0  0  0  0  0  0
  152.7611  141.4234  158.6801 C   0  0  0  0  0  0  0  0  0  0  0  0
  152.7475  140.2139  158.0780 N   0  5  0  0  0  0  0  0  0  0  0  0
  151.7163  139.9276  157.2338 C   0  0  0  0  0  0  0  0  0  0  0  0
  151.6475  138.8493  156.6430 O   0  0  0  0  0  0  0  0  0  0  0  0
  145.5680  143.3477  155.5037 H   0  0  0  0  0  0  0  0  0  0  0  0
  144.6403  143.7655  153.9592 H   0  0  0  0  0  0  0  0  0  0  0  0
  146.3182  142.6415  152.6180 H   0  0  0  0  0  0  0  0  0  0  0  0
  148.4809  142.6973  154.2402 H   0  0  0  0  0  0  0  0  0  0  0  0
  147.4661  141.7309  155.3047 H   0  0  0  0  0  0  0  0  0  0  0  0
  148.4737  138.8385  153.5747 H   0  0  0  0  0  0  0  0  0  0  0  0
  147.5338  138.5346  155.8848 H   0  0  0  0  0  0  0  0  0  0  0  0
  146.3361  139.1678  154.7624 H   0  0  0  0  0  0  0  0  0  0  0  0
  147.0980  140.2433  155.9279 H   0  0  0  0  0  0  0  0  0  0  0  0
  148.7168  140.8890  156.4170 H   0  0  0  0  0  0  0  0  0  0  0  0
  150.0086  142.9039  157.5246 H   0  0  0  0  0  0  0  0  0  0  0  0
  153.6450  141.6034  159.3286 H   0  0  0  0  0  0  0  0  0  0  0  0
  1  2  2  0  0  0  0
  1 21  1  0  0  0  0
  1 22  1  0  0  0  0
  2  3  1  0  0  0  0
  2 23  1  0  0  0  0
  3  4  1  0  0  0  0
  3 24  1  0  0  0  0
  3 25  1  0  0  0  0
  4  5  1  0  0  0  0
  5  6  1  0  0  0  0
  5  7  1  0  0  0  0
  5 26  1  0  0  0  0
  6 27  1  0  0  0  0
  6 28  1  0  0  0  0
  6 29  1  0  0  0  0
  7  8  2  0  0  0  0
  7  9  1  0  0  0  0
  9 10  1  0  0  0  0
  9 30  1  0  0  0  0
 10 19  1  0  0  0  0
 10 11  2  0  0  0  0
 11 12  1  0  0  0  0
 11 31  1  0  0  0  0
 12 13  1  0  0  0  0
 12 17  2  0  0  0  0
 13 14  1  0  0  0  0
 13 15  1  0  0  0  0
 13 16  1  0  0  0  0
 17 18  1  0  0  0  0
 17 32  1  0  0  0  0
 18 19  1  0  0  0  0
 19 20  2  0  0  0  0
M  CHG  1  18  -1
M  END
> <s_m_source_file>
AV-unprocessed.smi

> <i_m_source_file_index>
1540

> <i_lp_mmshare_version>
43012

> <i_f3d_flags>
0

> <s_epik_input>
W0NIMl09W0NIXVtDSDJdT1tDQEhdKFtDSDNdKUMoPU8pW05IXWMxW2NIXWMoQyhGKShGKUYpW2NIXVtuSF1jMT1P

> <s_epik_cmdline>
J2VwaWtfcHl0aG9uJywgJy1waCcsICc3LjAnLCAnLXRuJywgJzgnLCAnLW1hJywgJzIwMCcsICctbWV0YWxfYmluZGluZycsICctaW1hZScsICc8aW5maWxlLm1hZT4nLCAnLW9tYWUnLCAnPG91dGZpbGUubWFlPic=

> <r_epik_Ionization_Penalty>
2.56803

> <r_epik_Ionization_Penalty_Charging>
0.0609694

> <r_epik_Ionization_Penalty_Neutral>
2.50706

> <r_epik_State_Penalty>
2.67253

> <r_epik_Charging_Adjusted_Penalty>
2.7335

> <i_epik_Tot_Q>
-1

> <i_epik_Tot_abs_Q>
1

> <r_epik_Metal_State_Penalty>
0.517713

> <b_epik_Metal_Only>
0

> <s_lp_Force_Field>
OPLS_2005

> <r_lp_Energy>
19.8511

> <b_lp_Chiralities_Consistent>
1

> <s_lp_Variant>
AV-unprocessed.smi:1540-3

> <Gold.Version>
5.8.1

> <Gold.Id.Protein>
6NUR|6NUR_protein|mol2

> <Gold.PLP.Fitness>
43.9940

> <Gold.PLP.PLP>
-39.8613

> <Gold.PLP.part.hbond>
-2.0000

> <Gold.PLP.part.metal>
0.0000

> <Gold.PLP.part.buried>
-6.4349

> <Gold.PLP.part.nonpolar>
-31.8350

> <Gold.PLP.part.repulsive>
1.0169

> <Gold.PLP.ligand.clash>
0.0000

> <Gold.PLP.ligand.torsion>
2.3942

> <Gold.PLP.Chemscore.Hbond>
2.9520

> <Gold.PLP.Chemscore.CHOScore>
0.0000

> <Gold.PLP.Chemscore.Metal>
0.0000

> <Gold.Chemscore.Hbonds>
donor molecule, donor type, donor heavy atom, donor atom, acceptor molecule, acceptor atom, score
      P1  H  7989  7998       L1     8  1.00
      P1  H  7997  8008       L1    18  1.55

> <Gold.PLP.Chemscore.Internal.Correction>
0.0652

> <Gold.Rescore>
     Score         DG    S(hbond)    S(metal)    S(lipo)     H(rot)  DE(clash)    DE(int)     intcor
      7.61     -13.17       1.16        0.00      71.53       1.77       0.26       5.30       ----

> <Gold.Chemscore.Fitness>
7.6133

> <Gold.Chemscore.DG>
-13.1746

> <Gold.Chemscore.ZeroCoef>
-5.4800

> <Gold.Chemscore.Hbond>
1.1584

> <Gold.Chemscore.Metal>
0.0000

> <Gold.Chemscore.Lipo>
71.5322

> <Gold.Chemscore.Internal_Hbond>
0.0000

> <Gold.Chemscore.DEClash>
0.2623

> <Gold.Chemscore.DEInternal>
5.2990

> <Gold.Chemscore.Rot>
1.7750

> <Gold.Chemscore.Internal.Correction>
   9.000000E+99

> <Gold.Chemscore.Hbonds>
donor molecule, donor type, donor heavy atom, donor atom, acceptor molecule, acceptor atom, score
      P1  H  7989  7998       L1     8  0.93
      P1  H  7997  8008       L1    18  0.21

> <Gold.Chemscore.Hbond.Weighted>
-3.8692

> <Gold.Chemscore.Metal.Weighted>
-0.0000

> <Gold.Chemscore.Lipo.Weighted>
-8.3693

> <Gold.Chemscore.Internal_Hbond.Weighted>
0.0000

> <Gold.Chemscore.DEClash.Weighted>
0.2623

> <Gold.Chemscore.DEInternal.Weighted>
5.2990

> <Gold.Chemscore.Rot.Weighted>
4.5439

> <Gold.Chemscore.Internal.Correction.Weighted>
   9.000000E+99

> <Gold.Protein.RotatedTorsions>
[ 6907 6896 6895 6894 ] final -137.15 input  -60.11 | X-H torsion
[ 7974 7965 7964 7962 ] final -177.51 input  175.53 | X-H torsion
[ 8008 7997 7996 7995 ] final  -72.36 input   59.86 | X-H torsion
[ 10167 10162 10161 10158 ] final   69.62 input  -65.29 | X-H torsion
[ 10718 10713 10712 10709 ] final   75.83 input   66.30 | X-H torsion
[ 10763 10752 10751 10750 ] final  -47.68 input  -60.55 | X-H torsion
[ 11005 11000 10999 10996 ] final  129.25 input  -57.11 | X-H torsion

> <Gold.Protein.ActiveResidues>
 VAL166  LYS551  ARG553  GLY616  TRP617  ASP618  TYR619  PRO620  LYS621  CYS622 
 ASP623  PHE694  ASN695  SER759  ASP760  ASP761  ALA762  ILE779  LEU786  VAL792 
 PHE793  MET794  SER795  GLU796  ALA797  LYS798  CYS799  TRP800  GLU811  SER814 

> <Gold.Protein.RotatedAtoms>
  151.0189  133.5895  159.2673 H   0  0  0  0  0  0  0  0  0  0  0  0  # atno 6907 bound_to 6896
  151.3019  135.0770  159.9251 H   0  0  0  0  0  0  0  0  0  0  0  0  # atno 6908 bound_to 6896
  152.5318  133.9869  159.7887 H   0  0  0  0  0  0  0  0  0  0  0  0  # atno 6909 bound_to 6896
  144.7128  140.1008  143.6416 H   0  0  0  0  0  0  0  0  0  0  0  0  # atno 7974 bound_to 7965
  154.5160  140.0798  156.8082 H   0  0  0  0  0  0  0  0  0  0  0  0  # atno 8008 bound_to 7997
  155.3680  140.3421  155.4224 H   0  0  0  0  0  0  0  0  0  0  0  0  # atno 8009 bound_to 7997
  156.1628  140.1594  156.8570 H   0  0  0  0  0  0  0  0  0  0  0  0  # atno 8010 bound_to 7997
  140.0659  144.5194  150.7261 H   0  0  0  0  0  0  0  0  0  0  0  0  # atno 10167 bound_to 10162
  157.6650  130.9745  150.1410 H   0  0  0  0  0  0  0  0  0  0  0  0  # atno 10718 bound_to 10713
  154.0654  135.6612  153.4817 H   0  0  0  0  0  0  0  0  0  0  0  0  # atno 10763 bound_to 10752
  153.0411  135.5145  154.7618 H   0  0  0  0  0  0  0  0  0  0  0  0  # atno 10764 bound_to 10752
  154.6668  135.3023  154.9762 H   0  0  0  0  0  0  0  0  0  0  0  0  # atno 10765 bound_to 10752
  139.9605  134.9603  156.9120 H   0  0  0  0  0  0  0  0  0  0  0  0  # atno 11005 bound_to 11000
  145.9539  139.2753  143.1196 LP  0  0  0  0  0  0  0  0  0  0  0  0  # atno 17320 bound_to 7965
  145.9293  140.9059  143.0364 LP  0  0  0  0  0  0  0  0  0  0  0  0  # atno 17321 bound_to 7965
  140.7149  143.2536  151.4464 LP  0  0  0  0  0  0  0  0  0  0  0  0  # atno 17342 bound_to 10162
  139.5865  144.1592  152.2036 LP  0  0  0  0  0  0  0  0  0  0  0  0  # atno 17343 bound_to 10162
  156.2233  130.3676  149.8530 LP  0  0  0  0  0  0  0  0  0  0  0  0  # atno 17370 bound_to 10713
  156.6377  130.8692  151.3508 LP  0  0  0  0  0  0  0  0  0  0  0  0  # atno 17371 bound_to 10713
  140.5511  134.0626  155.7369 LP  0  0  0  0  0  0  0  0  0  0  0  0  # atno 17394 bound_to 11000
  141.1281  133.9348  157.2592 LP  0  0  0  0  0  0  0  0  0  0  0  0  # atno 17395 bound_to 11000

$$$$
