AV-unprocessed.smi:36|AV-procd|sdf|292|dock8
  -GOLD-   2262016 83D 1   1.00000     0.00000
 Structure written by MMmdl.
 64 67  0  0  0  0  0  0  0  0  1 V2000
  147.7251  136.3687  160.9614 C   0  0  0  0  0  0  0  0  0  0  0  0
  147.0932  135.3260  161.8982 C   0  0  0  0  0  0  0  0  0  0  0  0
  147.6062  133.9223  161.5375 C   0  0  0  0  0  0  0  0  0  0  0  0
  147.4516  135.6499  163.3581 C   0  0  0  0  0  0  0  0  0  0  0  0
  145.1930  135.3643  161.7037 Si  0  0  0  0  0  0  0  0  0  0  0  0
  144.3923  133.8654  162.5559 C   0  0  0  0  0  0  0  0  0  0  0  0
  144.4587  136.9701  162.4048 C   0  0  0  0  0  0  0  0  0  0  0  0
  144.8350  135.3013  160.0516 O   0  0  0  0  0  0  0  0  0  0  0  0
  145.6727  134.6841  159.0969 C   0  0  0  0  0  0  0  0  0  0  0  0
  145.1368  134.9800  157.6906 C   0  0  1  0  0  0  0  0  0  0  0  0
  144.6093  136.3086  157.6097 O   0  0  0  0  0  0  0  0  0  0  0  0
  145.0767  136.9635  156.4653 C   0  0  1  0  0  0  0  0  0  0  0  0
  146.1409  137.9384  156.8777 N   0  0  0  0  0  0  0  0  0  0  0  0
  146.4158  138.3943  158.1161 C   0  0  0  0  0  0  0  0  0  0  0  0
  147.4075  139.2770  158.1954 N   0  0  0  0  0  0  0  0  0  0  0  0
  147.7948  139.4174  156.8679 C   0  0  0  0  0  0  0  0  0  0  0  0
  148.8424  140.2676  156.2629 C   0  0  0  0  0  0  0  0  0  0  0  0
  149.5505  141.0084  157.0602 N   0  0  0  0  0  0  0  0  0  0  0  0
  150.5451  141.8316  156.5487 C   0  0  0  0  0  0  0  0  0  0  0  0
  150.8889  141.9917  155.3743 O   0  0  0  0  0  0  0  0  0  0  0  0
  151.2965  142.5734  157.6057 C   0  0  0  0  0  0  0  0  0  0  0  0
  151.5968  143.9415  157.4337 C   0  0  0  0  0  0  0  0  0  0  0  0
  152.2973  144.6421  158.4350 C   0  0  0  0  0  0  0  0  0  0  0  0
  152.6979  143.9783  159.6107 C   0  0  0  0  0  0  0  0  0  0  0  0
  152.3973  142.6135  159.7862 C   0  0  0  0  0  0  0  0  0  0  0  0
  151.6966  141.9116  158.7859 C   0  0  0  0  0  0  0  0  0  0  0  0
  148.8537  140.0920  154.8731 N   0  0  0  0  0  0  0  0  0  0  0  0
  148.0058  139.2439  154.1440 C   0  0  0  0  0  0  0  0  0  0  0  0
  147.0762  138.4885  154.6656 N   0  0  0  0  0  0  0  0  0  0  0  0
  147.0261  138.6210  156.0466 C   0  0  0  0  0  0  0  0  0  0  0  0
  145.6687  135.8744  155.5704 C   0  0  0  0  0  0  0  0  0  0  0  0
  146.2091  134.9041  156.5988 C   0  0  2  0  0  0  0  0  0  0  0  0
  146.3342  133.6074  156.0533 O   0  0  0  0  0  0  0  0  0  0  0  0
  148.8125  136.3699  161.0472 H   0  0  0  0  0  0  0  0  0  0  0  0
  147.3771  137.3752  161.1942 H   0  0  0  0  0  0  0  0  0  0  0  0
  147.4787  136.1674  159.9185 H   0  0  0  0  0  0  0  0  0  0  0  0
  147.3706  133.6663  160.5044 H   0  0  0  0  0  0  0  0  0  0  0  0
  147.1577  133.1605  162.1758 H   0  0  0  0  0  0  0  0  0  0  0  0
  148.6884  133.8537  161.6534 H   0  0  0  0  0  0  0  0  0  0  0  0
  148.5298  135.6169  163.5186 H   0  0  0  0  0  0  0  0  0  0  0  0
  146.9937  134.9376  164.0451 H   0  0  0  0  0  0  0  0  0  0  0  0
  147.1080  136.6453  163.6403 H   0  0  0  0  0  0  0  0  0  0  0  0
  144.6550  133.8170  163.6121 H   0  0  0  0  0  0  0  0  0  0  0  0
  144.7086  132.9282  162.0983 H   0  0  0  0  0  0  0  0  0  0  0  0
  143.3049  133.9048  162.4979 H   0  0  0  0  0  0  0  0  0  0  0  0
  144.6604  137.0716  163.4708 H   0  0  0  0  0  0  0  0  0  0  0  0
  143.3773  137.0033  162.2747 H   0  0  0  0  0  0  0  0  0  0  0  0
  144.8705  137.8493  161.9097 H   0  0  0  0  0  0  0  0  0  0  0  0
  146.7034  135.0197  159.2052 H   0  0  0  0  0  0  0  0  0  0  0  0
  145.6667  133.6097  159.2822 H   0  0  0  0  0  0  0  0  0  0  0  0
  144.3213  134.2954  157.4503 H   0  0  0  0  0  0  0  0  0  0  0  0
  144.3104  137.5773  155.9905 H   0  0  0  0  0  0  0  0  0  0  0  0
  145.8697  138.0795  158.9912 H   0  0  0  0  0  0  0  0  0  0  0  0
  151.2903  144.4583  156.5356 H   0  0  0  0  0  0  0  0  0  0  0  0
  152.5258  145.6892  158.3016 H   0  0  0  0  0  0  0  0  0  0  0  0
  153.2340  144.5163  160.3786 H   0  0  0  0  0  0  0  0  0  0  0  0
  152.7030  142.1052  160.6888 H   0  0  0  0  0  0  0  0  0  0  0  0
  151.4679  140.8651  158.9282 H   0  0  0  0  0  0  0  0  0  0  0  0
  148.1824  139.2590  153.0676 H   0  0  0  0  0  0  0  0  0  0  0  0
  144.8570  135.4278  154.9939 H   0  0  0  0  0  0  0  0  0  0  0  0
  146.4228  136.2541  154.8813 H   0  0  0  0  0  0  0  0  0  0  0  0
  147.1747  135.2498  156.9713 H   0  0  0  0  0  0  0  0  0  0  0  0
  145.6411  133.4787  155.4240 H   0  0  0  0  0  0  0  0  0  0  0  0
  149.5318  140.6268  154.3494 H   0  0  0  0  0  0  0  0  0  0  0  0
  1  2  1  0  0  0  0
  1 34  1  0  0  0  0
  1 35  1  0  0  0  0
  1 36  1  0  0  0  0
  2  3  1  0  0  0  0
  2  4  1  0  0  0  0
  2  5  1  0  0  0  0
  3 37  1  0  0  0  0
  3 38  1  0  0  0  0
  3 39  1  0  0  0  0
  4 40  1  0  0  0  0
  4 41  1  0  0  0  0
  4 42  1  0  0  0  0
  5  6  1  0  0  0  0
  5  7  1  0  0  0  0
  5  8  1  0  0  0  0
  6 43  1  0  0  0  0
  6 44  1  0  0  0  0
  6 45  1  0  0  0  0
  7 46  1  0  0  0  0
  7 47  1  0  0  0  0
  7 48  1  0  0  0  0
  8  9  1  0  0  0  0
  9 10  1  0  0  0  0
  9 49  1  0  0  0  0
  9 50  1  0  0  0  0
 10 32  1  0  0  0  0
 10 11  1  0  0  0  0
 10 51  1  0  0  0  0
 11 12  1  0  0  0  0
 12 13  1  0  0  0  0
 12 31  1  0  0  0  0
 12 52  1  0  0  0  0
 13 30  1  0  0  0  0
 13 14  1  0  0  0  0
 14 15  2  0  0  0  0
 14 53  1  0  0  0  0
 15 16  1  0  0  0  0
 16 30  2  0  0  0  0
 16 17  1  0  0  0  0
 17 18  2  0  0  0  0
 17 27  1  0  0  0  0
 18 19  1  0  0  0  0
 19 20  2  0  0  0  0
 19 21  1  0  0  0  0
 21 26  1  0  0  0  0
 21 22  2  0  0  0  0
 22 23  1  0  0  0  0
 22 54  1  0  0  0  0
 23 24  2  0  0  0  0
 23 55  1  0  0  0  0
 24 25  1  0  0  0  0
 24 56  1  0  0  0  0
 25 26  2  0  0  0  0
 25 57  1  0  0  0  0
 26 58  1  0  0  0  0
 27 28  1  0  0  0  0
 27 64  1  0  0  0  0
 28 29  2  0  0  0  0
 28 59  1  0  0  0  0
 29 30  1  0  0  0  0
 31 32  1  0  0  0  0
 31 60  1  0  0  0  0
 31 61  1  0  0  0  0
 32 33  1  0  0  0  0
 32 62  1  0  0  0  0
 33 63  1  0  0  0  0
M  END
> <s_m_source_file>
AV-unprocessed.smi

> <i_m_source_file_index>
36

> <i_lp_mmshare_version>
43012

> <i_f3d_flags>
0

> <s_epik_input>
W0NIM11DKFtDSDNdKShbQ0gzXSlbU2ldKFtDSDNdKShbQ0gzXSlPW0NIMl1bQ0BASF0xT1tDQEhdKFtDSDJdW0NASF0xW09IXSluKFtjSF1uMiljKGMyMyluW2NIXW5jM1tOSF1DKD1PKWM0W2NIXVtjSF1bY0hdW2NIXVtjSF00

> <s_epik_cmdline>
J2VwaWtfcHl0aG9uJywgJy1waCcsICc3LjAnLCAnLXRuJywgJzgnLCAnLW1hJywgJzIwMCcsICctbWV0YWxfYmluZGluZycsICctaW1hZScsICc8aW5maWxlLm1hZT4nLCAnLW9tYWUnLCAnPG91dGZpbGUubWFlPic=

> <r_epik_Ionization_Penalty>
0.0850405

> <r_epik_Ionization_Penalty_Charging>
0.0850403

> <r_epik_Ionization_Penalty_Neutral>
1.47497e-07

> <r_epik_State_Penalty>
2.6133

> <r_epik_Charging_Adjusted_Penalty>
2.69834

> <i_epik_Tot_Q>
0

> <i_epik_Tot_abs_Q>
0

> <r_epik_Metal_State_Penalty>
2.92945

> <b_epik_Metal_Only>
0

> <s_epik_Chemistry_Notes>
This compound contains an acetal/aminal-like group ( X-CH(R)-Y where X, Y are N, S, or O) that may be acid/base labile, releasing an aldehyde.

> <s_lp_Force_Field>
OPLS_2005

> <r_lp_Energy>
45.4031

> <b_lp_Chiralities_Consistent>
1

> <s_lp_Variant>
AV-unprocessed.smi:36-14

> <Gold.Version>
5.8.1

> <Gold.Id.Protein>
6NUR|6NUR_protein|mol2

> <Gold.PLP.Fitness>
42.3015

> <Gold.PLP.PLP>
-42.9601

> <Gold.PLP.part.hbond>
-2.0000

> <Gold.PLP.part.metal>
0.0000

> <Gold.PLP.part.buried>
-1.7407

> <Gold.PLP.part.nonpolar>
-39.3062

> <Gold.PLP.part.repulsive>
0.3415

> <Gold.PLP.ligand.clash>
0.0000

> <Gold.PLP.ligand.torsion>
2.1226

> <Gold.PLP.Chemscore.Hbond>
0.1201

> <Gold.PLP.Chemscore.CHOScore>
1.0000

> <Gold.PLP.Chemscore.Metal>
0.0000

> <Gold.Chemscore.Hbonds>
donor molecule, donor type, donor heavy atom, donor atom, acceptor molecule, acceptor atom, score
      P1  H  7989  7998       L1    20  0.08
      L1  C    28    59       P1  7957  1.00

> <Gold.PLP.Chemscore.Internal.Correction>
0.2261

> <Gold.Rescore>
     Score         DG    S(hbond)    S(metal)    S(lipo)     H(rot)  DE(clash)    DE(int)     intcor
      9.11     -12.57       0.00        0.00     119.77       2.70       1.51       1.95       ----

> <Gold.Chemscore.Fitness>
9.1117

> <Gold.Chemscore.DG>
-12.5732

> <Gold.Chemscore.ZeroCoef>
-5.4800

> <Gold.Chemscore.Hbond>
0.0008

> <Gold.Chemscore.Metal>
0.0000

> <Gold.Chemscore.Lipo>
119.7685

> <Gold.Chemscore.Internal_Hbond>
0.0000

> <Gold.Chemscore.DEClash>
1.5096

> <Gold.Chemscore.DEInternal>
1.9518

> <Gold.Chemscore.Rot>
2.7041

> <Gold.Chemscore.Internal.Correction>
   9.000000E+99

> <Gold.Chemscore.Hbonds>
donor molecule, donor type, donor heavy atom, donor atom, acceptor molecule, acceptor atom, score
      P1  H  7989  7998       L1    20  0.08

> <Gold.Chemscore.Hbond.Weighted>
-0.0027

> <Gold.Chemscore.Metal.Weighted>
-0.0000

> <Gold.Chemscore.Lipo.Weighted>
-14.0129

> <Gold.Chemscore.Internal_Hbond.Weighted>
0.0000

> <Gold.Chemscore.DEClash.Weighted>
1.5096

> <Gold.Chemscore.DEInternal.Weighted>
1.9518

> <Gold.Chemscore.Rot.Weighted>
6.9225

> <Gold.Chemscore.Internal.Correction.Weighted>
   9.000000E+99

> <Gold.Protein.RotatedTorsions>
[ 6907 6896 6895 6894 ] final   85.87 input  -60.11 | X-H torsion
[ 7974 7965 7964 7962 ] final  -82.33 input  175.53 | X-H torsion
[ 8008 7997 7996 7995 ] final  -27.93 input   59.86 | X-H torsion
[ 10167 10162 10161 10158 ] final -147.87 input  -65.29 | X-H torsion
[ 10718 10713 10712 10709 ] final   -9.58 input   66.30 | X-H torsion
[ 10763 10752 10751 10750 ] final  165.62 input  -60.55 | X-H torsion
[ 11005 11000 10999 10996 ] final  -80.13 input  -57.11 | X-H torsion

> <Gold.Protein.ActiveResidues>
 VAL166  LYS551  ARG553  GLY616  TRP617  ASP618  TYR619  PRO620  LYS621  CYS622 
 ASP623  PHE694  ASN695  SER759  ASP760  ASP761  ALA762  ILE779  LEU786  VAL792 
 PHE793  MET794  SER795  GLU796  ALA797  LYS798  CYS799  TRP800  GLU811  SER814 

> <Gold.Protein.RotatedAtoms>
  152.5383  134.2519  159.8901 H   0  0  0  0  0  0  0  0  0  0  0  0  # atno 6907 bound_to 6896
  151.2482  133.4357  159.2618 H   0  0  0  0  0  0  0  0  0  0  0  0  # atno 6908 bound_to 6896
  151.0564  134.9721  159.8294 H   0  0  0  0  0  0  0  0  0  0  0  0  # atno 6909 bound_to 6896
  145.5348  140.9517  143.1583 H   0  0  0  0  0  0  0  0  0  0  0  0  # atno 7974 bound_to 7965
  154.4355  140.1859  156.1009 H   0  0  0  0  0  0  0  0  0  0  0  0  # atno 8008 bound_to 7997
  156.0293  140.3332  155.7096 H   0  0  0  0  0  0  0  0  0  0  0  0  # atno 8009 bound_to 7997
  155.5863  140.0626  157.2761 H   0  0  0  0  0  0  0  0  0  0  0  0  # atno 8010 bound_to 7997
  139.7582  143.8416  152.2601 H   0  0  0  0  0  0  0  0  0  0  0  0  # atno 10167 bound_to 10162
  156.6860  130.5051  149.5957 H   0  0  0  0  0  0  0  0  0  0  0  0  # atno 10718 bound_to 10713
  154.3267  135.2755  155.2492 H   0  0  0  0  0  0  0  0  0  0  0  0  # atno 10763 bound_to 10752
  154.4822  135.5855  153.6401 H   0  0  0  0  0  0  0  0  0  0  0  0  # atno 10764 bound_to 10752
  152.9871  135.6114  154.3457 H   0  0  0  0  0  0  0  0  0  0  0  0  # atno 10765 bound_to 10752
  141.1668  133.7136  156.8226 H   0  0  0  0  0  0  0  0  0  0  0  0  # atno 11005 bound_to 11000
  144.7607  139.6964  143.7235 LP  0  0  0  0  0  0  0  0  0  0  0  0  # atno 17320 bound_to 7965
  146.2020  139.5321  142.9737 LP  0  0  0  0  0  0  0  0  0  0  0  0  # atno 17321 bound_to 7965
  139.8414  144.7208  150.9326 LP  0  0  0  0  0  0  0  0  0  0  0  0  # atno 17342 bound_to 10162
  140.7805  143.3980  151.1197 LP  0  0  0  0  0  0  0  0  0  0  0  0  # atno 17343 bound_to 10162
  156.1832  130.6512  151.0976 LP  0  0  0  0  0  0  0  0  0  0  0  0  # atno 17370 bound_to 10713
  157.7026  131.0769  150.6770 LP  0  0  0  0  0  0  0  0  0  0  0  0  # atno 17371 bound_to 10713
  140.2108  134.8829  157.3272 LP  0  0  0  0  0  0  0  0  0  0  0  0  # atno 17394 bound_to 11000
  140.2089  134.4163  155.7623 LP  0  0  0  0  0  0  0  0  0  0  0  0  # atno 17395 bound_to 11000

$$$$
