AV-unprocessed.smi:1220|AV-procd|sdf|5116|dock7
  -GOLD-   22720 4173D 1   1.00000     0.00000
 Structure written by MMmdl.
 35 36  0  0  0  0  0  0  0  0  1 V2000
  151.6519  140.2539  155.9141 C   0  0  0  0  0  0  0  0  0  0  0  0
  150.8906  141.4680  156.4626 C   0  0  2  0  0  0  0  0  0  0  0  0
  151.0311  141.5743  157.9968 C   0  0  0  0  0  0  0  0  0  0  0  0
  151.3857  142.9134  158.4359 N   0  0  0  0  0  0  0  0  0  0  0  0
  150.6962  144.0910  158.2376 C   0  0  0  0  0  0  0  0  0  0  0  0
  151.4004  145.0835  158.8570 C   0  0  0  0  0  0  0  0  0  0  0  0
  152.5244  144.4073  159.4080 C   0  0  0  0  0  0  0  0  0  0  0  0
  152.5157  143.1096  159.1503 N   0  0  0  0  0  0  0  0  0  0  0  0
  149.4842  141.3641  156.0744 N   0  0  0  0  0  0  0  0  0  0  0  0
  149.0294  141.1989  154.8217 C   0  0  0  0  0  0  0  0  0  0  0  0
  149.7701  141.0551  153.8484 O   0  0  0  0  0  0  0  0  0  0  0  0
  147.5037  141.2182  154.6408 C   0  0  1  0  0  0  0  0  0  0  0  0
  147.1099  140.9008  153.1795 C   0  0  0  0  0  0  0  0  0  0  0  0
  147.0795  139.3832  152.9727 C   0  0  0  0  0  0  0  0  0  0  0  0
  146.4837  138.6936  154.5589 S   0  0  0  0  0  0  0  0  0  0  0  0
  145.0296  138.4868  154.4802 O   0  0  0  0  0  0  0  0  0  0  0  0
  147.3798  137.6069  154.9818 O   0  0  0  0  0  0  0  0  0  0  0  0
  146.8099  140.1952  155.5651 C   0  0  0  0  0  0  0  0  0  0  0  0
  152.7128  140.3136  156.1588 H   0  0  0  0  0  0  0  0  0  0  0  0
  151.5685  140.1953  154.8283 H   0  0  0  0  0  0  0  0  0  0  0  0
  151.2669  139.3215  156.3288 H   0  0  0  0  0  0  0  0  0  0  0  0
  151.3350  142.3564  156.0102 H   0  0  0  0  0  0  0  0  0  0  0  0
  150.1058  141.2686  158.4883 H   0  0  0  0  0  0  0  0  0  0  0  0
  151.8079  140.8936  158.3476 H   0  0  0  0  0  0  0  0  0  0  0  0
  149.7674  144.1216  157.6873 H   0  0  0  0  0  0  0  0  0  0  0  0
  151.1493  146.1324  158.9109 H   0  0  0  0  0  0  0  0  0  0  0  0
  153.3408  144.8176  159.9839 H   0  0  0  0  0  0  0  0  0  0  0  0
  148.8028  141.4722  156.8117 H   0  0  0  0  0  0  0  0  0  0  0  0
  147.1526  142.2194  154.8961 H   0  0  0  0  0  0  0  0  0  0  0  0
  146.1120  141.3004  152.9945 H   0  0  0  0  0  0  0  0  0  0  0  0
  147.7715  141.3819  152.4580 H   0  0  0  0  0  0  0  0  0  0  0  0
  146.4291  139.0723  152.1551 H   0  0  0  0  0  0  0  0  0  0  0  0
  148.0820  138.9959  152.7881 H   0  0  0  0  0  0  0  0  0  0  0  0
  147.3999  139.9240  156.4419 H   0  0  0  0  0  0  0  0  0  0  0  0
  145.8521  140.5801  155.9149 H   0  0  0  0  0  0  0  0  0  0  0  0
  1  2  1  0  0  0  0
  1 19  1  0  0  0  0
  1 20  1  0  0  0  0
  1 21  1  0  0  0  0
  2  3  1  0  0  0  0
  2  9  1  0  0  0  0
  2 22  1  0  0  0  0
  3  4  1  0  0  0  0
  3 23  1  0  0  0  0
  3 24  1  0  0  0  0
  4  8  1  0  0  0  0
  4  5  1  0  0  0  0
  5  6  2  0  0  0  0
  5 25  1  0  0  0  0
  6  7  1  0  0  0  0
  6 26  1  0  0  0  0
  7  8  2  0  0  0  0
  7 27  1  0  0  0  0
  9 10  1  0  0  0  0
  9 28  1  0  0  0  0
 10 11  2  0  0  0  0
 10 12  1  0  0  0  0
 12 18  1  0  0  0  0
 12 13  1  0  0  0  0
 12 29  1  0  0  0  0
 13 14  1  0  0  0  0
 13 30  1  0  0  0  0
 13 31  1  0  0  0  0
 14 15  1  0  0  0  0
 14 32  1  0  0  0  0
 14 33  1  0  0  0  0
 15 16  2  0  0  0  0
 15 17  2  0  0  0  0
 15 18  1  0  0  0  0
 18 34  1  0  0  0  0
 18 35  1  0  0  0  0
M  END
> <s_m_source_file>
AV-unprocessed.smi

> <i_m_source_file_index>
1220

> <i_lp_mmshare_version>
43012

> <i_f3d_flags>
0

> <s_epik_input>
bjFbY0hdW2NIXVtjSF1uMVtDSDJdW0NAQEhdKFtDSDNdKVtOSF1DKD1PKVtDQEBIXShbQ0gyXTIpW0NIMl1bQ0gyXVMyKD1PKT1P

> <s_epik_cmdline>
J2VwaWtfcHl0aG9uJywgJy1waCcsICc3LjAnLCAnLXRuJywgJzgnLCAnLW1hJywgJzIwMCcsICctbWV0YWxfYmluZGluZycsICctaW1hZScsICc8aW5maWxlLm1hZT4nLCAnLW9tYWUnLCAnPG91dGZpbGUubWFlPic=

> <r_lp_tautomer_probability>
1

> <r_epik_Ionization_Penalty>
0.000293905

> <r_epik_Ionization_Penalty_Charging>
0

> <r_epik_Ionization_Penalty_Neutral>
0.000293905

> <r_epik_State_Penalty>
-0

> <r_epik_Charging_Adjusted_Penalty>
0

> <i_epik_Tot_Q>
0

> <i_epik_Tot_abs_Q>
0

> <r_epik_Metal_State_Penalty>
-0

> <b_epik_Metal_Only>
0

> <s_lp_Force_Field>
OPLS_2005

> <r_lp_Energy>
1.9569

> <b_lp_Chiralities_Consistent>
1

> <s_lp_Variant>
AV-unprocessed.smi:1220-3

> <Gold.Version>
5.8.1

> <Gold.Id.Protein>
6NUR|6NUR_protein|mol2

> <Gold.PLP.Fitness>
37.2460

> <Gold.PLP.PLP>
-31.5863

> <Gold.PLP.part.hbond>
-1.9632

> <Gold.PLP.part.metal>
0.0000

> <Gold.PLP.part.buried>
-3.6995

> <Gold.PLP.part.nonpolar>
-27.2817

> <Gold.PLP.part.repulsive>
1.9493

> <Gold.PLP.ligand.clash>
0.0000

> <Gold.PLP.ligand.torsion>
0.7594

> <Gold.PLP.Chemscore.Hbond>
1.2480

> <Gold.PLP.Chemscore.CHOScore>
1.1393

> <Gold.PLP.Chemscore.Metal>
0.0000

> <Gold.Chemscore.Hbonds>
donor molecule, donor type, donor heavy atom, donor atom, acceptor molecule, acceptor atom, score
      P1  H  7989  7998       L1    11  0.37
      P1  H  8011  8017       L1    11  0.87
      L1  C     5    25       P1  8028  1.00
      L1  C     5    25       P1  8029  0.12

> <Gold.PLP.Chemscore.Internal.Correction>
0.0166

> <Gold.Rescore>
     Score         DG    S(hbond)    S(metal)    S(lipo)     H(rot)  DE(clash)    DE(int)     intcor
     11.60     -14.03       1.08        0.00      80.39       1.75       0.57       1.87       ----

> <Gold.Chemscore.Fitness>
11.5976

> <Gold.Chemscore.DG>
-14.0329

> <Gold.Chemscore.ZeroCoef>
-5.4800

> <Gold.Chemscore.Hbond>
1.0830

> <Gold.Chemscore.Metal>
0.0000

> <Gold.Chemscore.Lipo>
80.3872

> <Gold.Chemscore.Internal_Hbond>
0.0000

> <Gold.Chemscore.DEClash>
0.5658

> <Gold.Chemscore.DEInternal>
1.8695

> <Gold.Chemscore.Rot>
1.7460

> <Gold.Chemscore.Internal.Correction>
   9.000000E+99

> <Gold.Chemscore.Hbonds>
donor molecule, donor type, donor heavy atom, donor atom, acceptor molecule, acceptor atom, score
      P1  H  7989  7998       L1    11  0.38
      P1  H  8011  8017       L1    11  0.79

> <Gold.Chemscore.Hbond.Weighted>
-3.6173

> <Gold.Chemscore.Metal.Weighted>
-0.0000

> <Gold.Chemscore.Lipo.Weighted>
-9.4053

> <Gold.Chemscore.Internal_Hbond.Weighted>
0.0000

> <Gold.Chemscore.DEClash.Weighted>
0.5658

> <Gold.Chemscore.DEInternal.Weighted>
1.8695

> <Gold.Chemscore.Rot.Weighted>
4.4697

> <Gold.Chemscore.Internal.Correction.Weighted>
   9.000000E+99

> <Gold.Protein.RotatedTorsions>
[ 6907 6896 6895 6894 ] final   30.86 input  -60.11 | X-H torsion
[ 7974 7965 7964 7962 ] final    2.67 input  175.53 | X-H torsion
[ 8008 7997 7996 7995 ] final -119.64 input   59.86 | X-H torsion
[ 10167 10162 10161 10158 ] final  137.32 input  -65.29 | X-H torsion
[ 10718 10713 10712 10709 ] final  131.02 input   66.30 | X-H torsion
[ 10763 10752 10751 10750 ] final  144.93 input  -60.55 | X-H torsion
[ 11005 11000 10999 10996 ] final -179.96 input  -57.11 | X-H torsion

> <Gold.Protein.ActiveResidues>
 VAL166  LYS551  ARG553  GLY616  TRP617  ASP618  TYR619  PRO620  LYS621  CYS622 
 ASP623  PHE694  ASN695  SER759  ASP760  ASP761  ALA762  ILE779  LEU786  VAL792 
 PHE793  MET794  SER795  GLU796  ALA797  LYS798  CYS799  TRP800  GLU811  SER814 

> <Gold.Protein.RotatedAtoms>
  152.0520  134.9647  160.0574 H   0  0  0  0  0  0  0  0  0  0  0  0  # atno 6907 bound_to 6896
  152.1044  133.4262  159.4610 H   0  0  0  0  0  0  0  0  0  0  0  0  # atno 6908 bound_to 6896
  150.6840  134.2641  159.4604 H   0  0  0  0  0  0  0  0  0  0  0  0  # atno 6909 bound_to 6896
  146.2444  140.0801  142.8357 H   0  0  0  0  0  0  0  0  0  0  0  0  # atno 7974 bound_to 7965
  155.1190  140.0398  157.2745 H   0  0  0  0  0  0  0  0  0  0  0  0  # atno 8008 bound_to 7997
  154.6628  140.2595  155.7065 H   0  0  0  0  0  0  0  0  0  0  0  0  # atno 8009 bound_to 7997
  156.2626  140.2813  156.1107 H   0  0  0  0  0  0  0  0  0  0  0  0  # atno 8010 bound_to 7997
  139.5148  144.6416  151.5552 H   0  0  0  0  0  0  0  0  0  0  0  0  # atno 10167 bound_to 10162
  157.5007  131.1094  150.9431 H   0  0  0  0  0  0  0  0  0  0  0  0  # atno 10718 bound_to 10713
  153.9970  135.2927  155.3406 H   0  0  0  0  0  0  0  0  0  0  0  0  # atno 10763 bound_to 10752
  154.7181  135.5121  153.8773 H   0  0  0  0  0  0  0  0  0  0  0  0  # atno 10764 bound_to 10752
  153.0783  135.6671  154.0216 H   0  0  0  0  0  0  0  0  0  0  0  0  # atno 10765 bound_to 10752
  140.4129  134.6675  157.4623 H   0  0  0  0  0  0  0  0  0  0  0  0  # atno 11005 bound_to 11000
  145.0740  140.9175  143.4865 LP  0  0  0  0  0  0  0  0  0  0  0  0  # atno 17320 bound_to 7965
  145.0941  139.2869  143.5720 LP  0  0  0  0  0  0  0  0  0  0  0  0  # atno 17321 bound_to 7965
  140.6185  143.9302  150.6507 LP  0  0  0  0  0  0  0  0  0  0  0  0  # atno 17342 bound_to 10162
  140.2568  143.3552  152.1357 LP  0  0  0  0  0  0  0  0  0  0  0  0  # atno 17343 bound_to 10162
  157.0103  130.5634  149.5320 LP  0  0  0  0  0  0  0  0  0  0  0  0  # atno 17370 bound_to 10713
  156.0227  130.5322  150.8321 LP  0  0  0  0  0  0  0  0  0  0  0  0  # atno 17371 bound_to 10713
  140.0255  134.6484  155.9179 LP  0  0  0  0  0  0  0  0  0  0  0  0  # atno 17394 bound_to 11000
  141.1814  133.6547  156.5036 LP  0  0  0  0  0  0  0  0  0  0  0  0  # atno 17395 bound_to 11000

$$$$
