AV-unprocessed.smi:2|AV-procd|sdf|26|dock1
  -GOLD-   2262015133D 1   1.00000     0.00000
 Structure written by MMmdl.
 52 54  0  0  0  0  0  0  0  0  3 V2000
  146.3736  129.4578  152.1998 C   0  0  0  0  0  0  0  0  0  0  0  0
  146.9404  130.6948  152.9146 C   0  0  0  0  0  0  0  0  0  0  0  0
  148.3113  130.4639  153.5698 C   0  0  0  0  0  0  0  0  0  0  0  0
  148.8484  129.3580  153.4909 O   0  0  0  0  0  0  0  0  0  0  0  0
  148.9327  131.6165  154.2843 C   0  0  0  0  0  0  0  0  0  0  0  0
  149.9509  131.3779  155.2343 C   0  0  0  0  0  0  0  0  0  0  0  0
  150.5495  132.4466  155.9283 C   0  0  0  0  0  0  0  0  0  0  0  0
  150.1472  133.7763  155.6969 C   0  0  0  0  0  0  0  0  0  0  0  0
  150.7790  134.7568  156.4347 O   0  0  0  0  0  0  0  0  0  0  0  0
  150.5463  136.1296  156.1293 C   0  0  0  0  0  0  0  0  0  0  0  0
  151.0528  137.0552  157.2568 C   0  0  1  0  0  0  0  0  0  0  0  0
  151.6884  136.2540  158.2334 O   0  0  0  0  0  0  0  0  0  0  0  0
  152.0313  138.1270  156.7223 C   0  0  0  0  0  0  0  0  0  0  0  0
  152.8432  138.7483  157.7759 N   0  0  0  0  0  0  0  0  0  0  0  0
  153.9522  138.2208  158.3785 C   0  0  0  0  0  0  0  0  0  0  0  0
  154.5846  136.9390  158.0928 N   0  3  0  0  0  0  0  0  0  0  0  0
  154.1498  136.2380  157.1877 O   0  0  0  0  0  0  0  0  0  0  0  0
  155.5216  136.6042  158.8115 O   0  5  0  0  0  0  0  0  0  0  0  0
  154.4550  138.9805  159.3524 N   0  0  0  0  0  0  0  0  0  0  0  0
  153.6130  140.0734  159.3868 C   0  0  0  0  0  0  0  0  0  0  0  0
  153.6171  141.2278  160.3071 C   0  0  0  0  0  0  0  0  0  0  0  0
  154.5044  141.3654  161.1505 O   0  0  0  0  0  0  0  0  0  0  0  0
  152.5519  142.0736  160.1456 N   0  0  0  0  0  0  0  0  0  0  0  0
  152.4163  143.2075  161.0801 C   0  0  0  0  0  0  0  0  0  0  0  0
  151.5942  141.9687  159.1531 C   0  0  0  0  0  0  0  0  0  0  0  0
  150.6580  142.7715  159.0980 O   0  0  0  0  0  0  0  0  0  0  0  0
  151.7234  140.9670  158.2181 N   0  0  0  0  0  0  0  0  0  0  0  0
  150.9279  141.0400  156.9862 C   0  0  0  0  0  0  0  0  0  0  0  0
  152.6644  139.9943  158.4183 C   0  0  0  0  0  0  0  0  0  0  0  0
  149.1360  134.0184  154.7351 C   0  0  0  0  0  0  0  0  0  0  0  0
  148.5343  132.9514  154.0409 C   0  0  0  0  0  0  0  0  0  0  0  0
  145.3974  129.6792  151.7684 H   0  0  0  0  0  0  0  0  0  0  0  0
  146.2464  128.6212  152.8881 H   0  0  0  0  0  0  0  0  0  0  0  0
  147.0259  129.1334  151.3880 H   0  0  0  0  0  0  0  0  0  0  0  0
  147.0295  131.5129  152.1991 H   0  0  0  0  0  0  0  0  0  0  0  0
  146.2383  131.0177  153.6837 H   0  0  0  0  0  0  0  0  0  0  0  0
  150.2836  130.3715  155.4448 H   0  0  0  0  0  0  0  0  0  0  0  0
  151.3229  132.2411  156.6539 H   0  0  0  0  0  0  0  0  0  0  0  0
  151.0578  136.3653  155.1950 H   0  0  0  0  0  0  0  0  0  0  0  0
  149.4917  136.2960  155.9107 H   0  0  0  0  0  0  0  0  0  0  0  0
  150.2153  137.5493  157.7463 H   0  0  0  0  0  0  0  0  0  0  0  0
  152.5099  135.9452  157.8832 H   0  0  0  0  0  0  0  0  0  0  0  0
  152.6793  137.7015  155.9603 H   0  0  0  0  0  0  0  0  0  0  0  0
  151.4959  138.8863  156.1641 H   0  0  0  0  0  0  0  0  0  0  0  0
  151.4285  143.2106  161.5440 H   0  0  0  0  0  0  0  0  0  0  0  0
  152.5384  144.1518  160.5471 H   0  0  0  0  0  0  0  0  0  0  0  0
  153.1338  143.2131  161.9013 H   0  0  0  0  0  0  0  0  0  0  0  0
  151.5759  140.9634  156.1139 H   0  0  0  0  0  0  0  0  0  0  0  0
  150.3908  141.9794  156.8507 H   0  0  0  0  0  0  0  0  0  0  0  0
  150.1786  140.2547  156.9621 H   0  0  0  0  0  0  0  0  0  0  0  0
  148.7945  135.0161  154.5101 H   0  0  0  0  0  0  0  0  0  0  0  0
  147.7634  133.1858  153.3223 H   0  0  0  0  0  0  0  0  0  0  0  0
  1  2  1  0  0  0  0
  1 32  1  0  0  0  0
  1 33  1  0  0  0  0
  1 34  1  0  0  0  0
  2  3  1  0  0  0  0
  2 35  1  0  0  0  0
  2 36  1  0  0  0  0
  3  4  2  0  0  0  0
  3  5  1  0  0  0  0
  5 31  1  0  0  0  0
  5  6  2  0  0  0  0
  6  7  1  0  0  0  0
  6 37  1  0  0  0  0
  7  8  2  0  0  0  0
  7 38  1  0  0  0  0
  8  9  1  0  0  0  0
  8 30  1  0  0  0  0
  9 10  1  0  0  0  0
 10 11  1  0  0  0  0
 10 39  1  0  0  0  0
 10 40  1  0  0  0  0
 11 12  1  0  0  0  0
 11 13  1  0  0  0  0
 11 41  1  0  0  0  0
 12 42  1  0  0  0  0
 13 14  1  0  0  0  0
 13 43  1  0  0  0  0
 13 44  1  0  0  0  0
 14 29  1  0  0  0  0
 14 15  1  0  0  0  0
 15 16  1  0  0  0  0
 15 19  2  0  0  0  0
 16 17  2  0  0  0  0
 16 18  1  0  0  0  0
 19 20  1  0  0  0  0
 20 29  2  0  0  0  0
 20 21  1  0  0  0  0
 21 22  2  0  0  0  0
 21 23  1  0  0  0  0
 23 24  1  0  0  0  0
 23 25  1  0  0  0  0
 24 45  1  0  0  0  0
 24 46  1  0  0  0  0
 24 47  1  0  0  0  0
 25 26  2  0  0  0  0
 25 27  1  0  0  0  0
 27 28  1  0  0  0  0
 27 29  1  0  0  0  0
 28 48  1  0  0  0  0
 28 49  1  0  0  0  0
 28 50  1  0  0  0  0
 30 31  2  0  0  0  0
 30 51  1  0  0  0  0
 31 52  1  0  0  0  0
M  CHG  1  16   1
M  CHG  1  18  -1
M  END
> <s_m_source_file>
AV-unprocessed.smi

> <i_m_source_file_index>
2

> <i_lp_mmshare_version>
43012

> <i_f3d_flags>
0

> <s_epik_input>
W0NIM11bQ0gyXUMoPU8pYzFbY0hdW2NIXWMoW2NIXVtjSF0xKU9bQ0gyXVtDQEhdKFtPSF0pW0NIMl1uKGMobjIpW04rXSg9TylbTy1dKWMoYzIzKW4oW0NIM10pYyg9TyluKGMzPU8pW0NIM10=

> <s_epik_cmdline>
J2VwaWtfcHl0aG9uJywgJy1waCcsICc3LjAnLCAnLXRuJywgJzgnLCAnLW1hJywgJzIwMCcsICctbWV0YWxfYmluZGluZycsICctaW1hZScsICc8aW5maWxlLm1hZT4nLCAnLW9tYWUnLCAnPG91dGZpbGUubWFlPic=

> <r_lp_tautomer_probability>
1

> <r_epik_Ionization_Penalty>
1.02275e-06

> <r_epik_Ionization_Penalty_Charging>
4.46226e-11

> <r_epik_Ionization_Penalty_Neutral>
1.02271e-06

> <r_epik_State_Penalty>
-0

> <r_epik_Charging_Adjusted_Penalty>
4.46226e-11

> <i_epik_Tot_Q>
0

> <i_epik_Tot_abs_Q>
2

> <r_epik_Metal_State_Penalty>
-0

> <b_epik_Metal_Only>
0

> <s_lp_Force_Field>
OPLS_2005

> <r_lp_Energy>
60.3612

> <b_lp_Chiralities_Consistent>
1

> <s_lp_Variant>
AV-unprocessed.smi:2-2

> <Gold.Version>
5.8.1

> <Gold.Id.Protein>
6NUR|6NUR_protein|mol2

> <Gold.PLP.Fitness>
50.4866

> <Gold.PLP.PLP>
-48.5057

> <Gold.PLP.part.hbond>
-3.5277

> <Gold.PLP.part.metal>
0.0000

> <Gold.PLP.part.buried>
-4.4985

> <Gold.PLP.part.nonpolar>
-39.5991

> <Gold.PLP.part.repulsive>
0.1850

> <Gold.PLP.ligand.clash>
0.0000

> <Gold.PLP.ligand.torsion>
1.4401

> <Gold.PLP.Chemscore.Hbond>
1.3835

> <Gold.PLP.Chemscore.CHOScore>
0.0000

> <Gold.PLP.Chemscore.Metal>
0.0000

> <Gold.Chemscore.Hbonds>
donor molecule, donor type, donor heavy atom, donor atom, acceptor molecule, acceptor atom, score
      P1  H  6896  6908       L1    12  0.45
      P1  H 10752 10763       L1    17  0.93

> <Gold.PLP.Chemscore.Internal.Correction>
0.7107

> <Gold.Rescore>
     Score         DG    S(hbond)    S(metal)    S(lipo)     H(rot)  DE(clash)    DE(int)     intcor
      7.99     -10.89       1.14        0.00      82.99       3.16       0.03       2.87       ----

> <Gold.Chemscore.Fitness>
7.9895

> <Gold.Chemscore.DG>
-10.8927

> <Gold.Chemscore.ZeroCoef>
-5.4800

> <Gold.Chemscore.Hbond>
1.1351

> <Gold.Chemscore.Metal>
0.0000

> <Gold.Chemscore.Lipo>
82.9930

> <Gold.Chemscore.Internal_Hbond>
0.0000

> <Gold.Chemscore.DEClash>
0.0312

> <Gold.Chemscore.DEInternal>
2.8720

> <Gold.Chemscore.Rot>
3.1597

> <Gold.Chemscore.Internal.Correction>
   9.000000E+99

> <Gold.Chemscore.Hbonds>
donor molecule, donor type, donor heavy atom, donor atom, acceptor molecule, acceptor atom, score
      P1  H  6896  6908       L1    12  0.16
      P1  H 10752 10763       L1    17  0.84

> <Gold.Chemscore.Hbond.Weighted>
-3.7914

> <Gold.Chemscore.Metal.Weighted>
-0.0000

> <Gold.Chemscore.Lipo.Weighted>
-9.7102

> <Gold.Chemscore.Internal_Hbond.Weighted>
0.0000

> <Gold.Chemscore.DEClash.Weighted>
0.0312

> <Gold.Chemscore.DEInternal.Weighted>
2.8720

> <Gold.Chemscore.Rot.Weighted>
8.0888

> <Gold.Chemscore.Internal.Correction.Weighted>
   9.000000E+99

> <Gold.Protein.RotatedTorsions>
[ 6907 6896 6895 6894 ] final -127.03 input  -60.11 | X-H torsion
[ 7974 7965 7964 7962 ] final   70.09 input  175.53 | X-H torsion
[ 8008 7997 7996 7995 ] final -131.44 input   59.86 | X-H torsion
[ 10167 10162 10161 10158 ] final   26.03 input  -65.29 | X-H torsion
[ 10718 10713 10712 10709 ] final  127.43 input   66.30 | X-H torsion
[ 10763 10752 10751 10750 ] final  159.47 input  -60.55 | X-H torsion
[ 11005 11000 10999 10996 ] final  -46.19 input  -57.11 | X-H torsion

> <Gold.Protein.ActiveResidues>
 VAL166  LYS551  ARG553  GLY616  TRP617  ASP618  TYR619  PRO620  LYS621  CYS622 
 ASP623  PHE694  ASN695  SER759  ASP760  ASP761  ALA762  ILE779  LEU786  VAL792 
 PHE793  MET794  SER795  GLU796  ALA797  LYS798  CYS799  TRP800  GLU811  SER814 

> <Gold.Protein.RotatedAtoms>
  150.9031  133.7093  159.2873 H   0  0  0  0  0  0  0  0  0  0  0  0  # atno 6907 bound_to 6896
  151.4605  135.1036  159.9733 H   0  0  0  0  0  0  0  0  0  0  0  0  # atno 6908 bound_to 6896
  152.4888  133.8395  159.7200 H   0  0  0  0  0  0  0  0  0  0  0  0  # atno 6909 bound_to 6896
  145.7824  139.2894  143.1258 H   0  0  0  0  0  0  0  0  0  0  0  0  # atno 7974 bound_to 7965
  155.3123  140.0458  157.3035 H   0  0  0  0  0  0  0  0  0  0  0  0  # atno 8008 bound_to 7997
  154.5426  140.2292  155.8583 H   0  0  0  0  0  0  0  0  0  0  0  0  # atno 8009 bound_to 7997
  156.1894  140.3054  155.9310 H   0  0  0  0  0  0  0  0  0  0  0  0  # atno 8010 bound_to 7997
  140.5057  144.0243  150.6351 H   0  0  0  0  0  0  0  0  0  0  0  0  # atno 10167 bound_to 10162
  157.5333  131.1098  150.8974 H   0  0  0  0  0  0  0  0  0  0  0  0  # atno 10718 bound_to 10713
  154.2323  135.2778  155.2885 H   0  0  0  0  0  0  0  0  0  0  0  0  # atno 10763 bound_to 10752
  154.5614  135.5646  153.7014 H   0  0  0  0  0  0  0  0  0  0  0  0  # atno 10764 bound_to 10752
  153.0017  135.6299  154.2465 H   0  0  0  0  0  0  0  0  0  0  0  0  # atno 10765 bound_to 10752
  141.0563  133.6724  156.3119 H   0  0  0  0  0  0  0  0  0  0  0  0  # atno 11005 bound_to 11000
  146.0061  140.8477  142.9994 LP  0  0  0  0  0  0  0  0  0  0  0  0  # atno 17320 bound_to 7965
  144.6794  140.2422  143.7342 LP  0  0  0  0  0  0  0  0  0  0  0  0  # atno 17321 bound_to 7965
  140.3551  143.2940  152.0445 LP  0  0  0  0  0  0  0  0  0  0  0  0  # atno 17342 bound_to 10162
  139.4883  144.6345  151.7004 LP  0  0  0  0  0  0  0  0  0  0  0  0  # atno 17343 bound_to 10162
  156.9549  130.5433  149.5283 LP  0  0  0  0  0  0  0  0  0  0  0  0  # atno 17370 bound_to 10713
  156.0439  130.5518  150.8836 LP  0  0  0  0  0  0  0  0  0  0  0  0  # atno 17371 bound_to 10713
  140.5957  134.5605  157.5508 LP  0  0  0  0  0  0  0  0  0  0  0  0  # atno 17394 bound_to 11000
  139.9393  134.7817  156.0720 LP  0  0  0  0  0  0  0  0  0  0  0  0  # atno 17395 bound_to 11000

$$$$
