AV-unprocessed.smi:1196|AV-procd|sdf|4997|dock8
  -GOLD-   22720 4 03D 1   1.00000     0.00000
 Structure written by MMmdl.
 37 38  0  0  0  0  0  0  0  0  1 V2000
  151.8039  140.2360  158.1745 C   0  0  0  0  0  0  0  0  0  0  0  0
  150.6268  141.0680  157.6414 C   0  0  1  0  0  0  0  0  0  0  0  0
  151.1077  142.4042  157.0430 C   0  0  0  0  0  0  0  0  0  0  0  0
  151.5343  143.3452  158.0639 N   0  0  0  0  0  0  0  0  0  0  0  0
  151.3033  144.7032  158.1245 C   0  0  0  0  0  0  0  0  0  0  0  0
  151.9025  145.1668  159.2605 C   0  0  0  0  0  0  0  0  0  0  0  0
  152.4822  144.0018  159.8365 C   0  0  0  0  0  0  0  0  0  0  0  0
  152.2608  142.9128  159.1177 N   0  0  0  0  0  0  0  0  0  0  0  0
  149.8902  140.3057  156.6357 N   0  0  0  0  0  0  0  0  0  0  0  0
  150.3471  139.9713  155.4195 C   0  0  0  0  0  0  0  0  0  0  0  0
  151.4571  140.2990  154.9996 O   0  0  0  0  0  0  0  0  0  0  0  0
  149.4069  139.1312  154.5518 C   0  0  0  0  0  0  0  0  0  0  0  0
  148.3038  138.4362  155.3719 C   0  0  0  0  0  0  0  0  0  0  0  0
  147.1088  137.9852  154.5102 C   0  0  2  0  0  0  0  0  0  0  0  0
  147.4480  137.8505  153.1037 N   0  0  0  0  0  0  0  0  0  0  0  0
  146.7131  138.6518  152.3205 C   0  0  0  0  0  0  0  0  0  0  0  0
  146.7919  138.7355  151.0972 O   0  0  0  0  0  0  0  0  0  0  0  0
  145.8801  139.3444  153.1046 N   0  0  0  0  0  0  0  0  0  0  0  0
  146.0306  139.0477  154.3942 C   0  0  0  0  0  0  0  0  0  0  0  0
  145.4180  139.5346  155.3423 O   0  0  0  0  0  0  0  0  0  0  0  0
  152.3591  140.7857  158.9349 H   0  0  0  0  0  0  0  0  0  0  0  0
  152.5004  139.9768  157.3764 H   0  0  0  0  0  0  0  0  0  0  0  0
  151.4587  139.3075  158.6303 H   0  0  0  0  0  0  0  0  0  0  0  0
  149.9631  141.2932  158.4785 H   0  0  0  0  0  0  0  0  0  0  0  0
  151.9534  142.2316  156.3762 H   0  0  0  0  0  0  0  0  0  0  0  0
  150.3239  142.8622  156.4370 H   0  0  0  0  0  0  0  0  0  0  0  0
  150.7404  145.2204  157.3614 H   0  0  0  0  0  0  0  0  0  0  0  0
  151.9241  146.1832  159.6245 H   0  0  0  0  0  0  0  0  0  0  0  0
  153.0536  143.9158  160.7490 H   0  0  0  0  0  0  0  0  0  0  0  0
  148.9694  139.9845  156.8979 H   0  0  0  0  0  0  0  0  0  0  0  0
  148.9641  139.7860  153.8007 H   0  0  0  0  0  0  0  0  0  0  0  0
  149.9854  138.3810  154.0103 H   0  0  0  0  0  0  0  0  0  0  0  0
  148.7275  137.5641  155.8734 H   0  0  0  0  0  0  0  0  0  0  0  0
  147.9566  139.1028  156.1639 H   0  0  0  0  0  0  0  0  0  0  0  0
  146.6767  137.0556  154.8824 H   0  0  0  0  0  0  0  0  0  0  0  0
  148.1587  137.2171  152.7674 H   0  0  0  0  0  0  0  0  0  0  0  0
  145.2184  140.0239  152.7586 H   0  0  0  0  0  0  0  0  0  0  0  0
  1  2  1  0  0  0  0
  1 21  1  0  0  0  0
  1 22  1  0  0  0  0
  1 23  1  0  0  0  0
  2  3  1  0  0  0  0
  2  9  1  0  0  0  0
  2 24  1  0  0  0  0
  3  4  1  0  0  0  0
  3 25  1  0  0  0  0
  3 26  1  0  0  0  0
  4  8  1  0  0  0  0
  4  5  1  0  0  0  0
  5  6  2  0  0  0  0
  5 27  1  0  0  0  0
  6  7  1  0  0  0  0
  6 28  1  0  0  0  0
  7  8  2  0  0  0  0
  7 29  1  0  0  0  0
  9 10  1  0  0  0  0
  9 30  1  0  0  0  0
 10 11  2  0  0  0  0
 10 12  1  0  0  0  0
 12 13  1  0  0  0  0
 12 31  1  0  0  0  0
 12 32  1  0  0  0  0
 13 14  1  0  0  0  0
 13 33  1  0  0  0  0
 13 34  1  0  0  0  0
 14 19  1  0  0  0  0
 14 15  1  0  0  0  0
 14 35  1  0  0  0  0
 15 16  1  0  0  0  0
 15 36  1  0  0  0  0
 16 17  2  0  0  0  0
 16 18  1  0  0  0  0
 18 19  1  0  0  0  0
 18 37  1  0  0  0  0
 19 20  2  0  0  0  0
M  END
> <s_m_source_file>
AV-unprocessed.smi

> <i_m_source_file_index>
1196

> <i_lp_mmshare_version>
43012

> <i_f3d_flags>
0

> <s_epik_input>
bjFbY0hdW2NIXVtjSF1uMVtDSDJdW0NAQEhdKFtDSDNdKVtOSF1DKD1PKVtDSDJdW0NIMl1bQ0BASF0yW05IXUMoPU8pW05IXUMyPU8=

> <s_epik_cmdline>
J2VwaWtfcHl0aG9uJywgJy1waCcsICc3LjAnLCAnLXRuJywgJzgnLCAnLW1hJywgJzIwMCcsICctbWV0YWxfYmluZGluZycsICctaW1hZScsICc8aW5maWxlLm1hZT4nLCAnLW9tYWUnLCAnPG91dGZpbGUubWFlPic=

> <r_lp_tautomer_probability>
1

> <r_epik_Ionization_Penalty>
0.00815973

> <r_epik_Ionization_Penalty_Charging>
0

> <r_epik_Ionization_Penalty_Neutral>
0.00815973

> <r_epik_State_Penalty>
0.00583796

> <r_epik_Charging_Adjusted_Penalty>
0.00583796

> <i_epik_Tot_Q>
0

> <i_epik_Tot_abs_Q>
0

> <r_epik_Metal_State_Penalty>
0.409204

> <b_epik_Metal_Only>
0

> <s_lp_Force_Field>
OPLS_2005

> <r_lp_Energy>
16.5203

> <b_lp_Chiralities_Consistent>
1

> <s_lp_Variant>
AV-unprocessed.smi:1196-2

> <Gold.Version>
5.8.1

> <Gold.Id.Protein>
6NUR|6NUR_protein|mol2

> <Gold.PLP.Fitness>
49.3707

> <Gold.PLP.PLP>
-36.8120

> <Gold.PLP.part.hbond>
-3.9018

> <Gold.PLP.part.metal>
0.0000

> <Gold.PLP.part.buried>
-7.3611

> <Gold.PLP.part.nonpolar>
-27.0251

> <Gold.PLP.part.repulsive>
0.9732

> <Gold.PLP.ligand.clash>
0.0000

> <Gold.PLP.ligand.torsion>
1.2144

> <Gold.PLP.Chemscore.Hbond>
3.9760

> <Gold.PLP.Chemscore.CHOScore>
1.0000

> <Gold.PLP.Chemscore.Metal>
0.0000

> <Gold.Chemscore.Hbonds>
donor molecule, donor type, donor heavy atom, donor atom, acceptor molecule, acceptor atom, score
      L1  H    15    36       P1  7948  1.00
      L1  H    18    37       P1 10175  1.00
      P1  H  7954  7966       L1    17  0.96
      P1  H  7989  7998       L1    11  1.00
      L1  C     5    27       P1  8028  0.91

> <Gold.PLP.Chemscore.Internal.Correction>
0.0596

> <Gold.Rescore>
     Score         DG    S(hbond)    S(metal)    S(lipo)     H(rot)  DE(clash)    DE(int)     intcor
     15.28     -18.56       3.80        0.00      67.98       2.96       0.15       3.14       ----

> <Gold.Chemscore.Fitness>
15.2763

> <Gold.Chemscore.DG>
-18.5633

> <Gold.Chemscore.ZeroCoef>
-5.4800

> <Gold.Chemscore.Hbond>
3.8027

> <Gold.Chemscore.Metal>
0.0000

> <Gold.Chemscore.Lipo>
67.9802

> <Gold.Chemscore.Internal_Hbond>
0.0000

> <Gold.Chemscore.DEClash>
0.1507

> <Gold.Chemscore.DEInternal>
3.1362

> <Gold.Chemscore.Rot>
2.9575

> <Gold.Chemscore.Internal.Correction>
   9.000000E+99

> <Gold.Chemscore.Hbonds>
donor molecule, donor type, donor heavy atom, donor atom, acceptor molecule, acceptor atom, score
      L1  H    15    36       P1  7948  0.95
      L1  H    18    37       P1 10175  0.94
      P1  H  7954  7966       L1    17  0.87
      P1  H  7989  7998       L1    11  0.93

> <Gold.Chemscore.Hbond.Weighted>
-12.7009

> <Gold.Chemscore.Metal.Weighted>
-0.0000

> <Gold.Chemscore.Lipo.Weighted>
-7.9537

> <Gold.Chemscore.Internal_Hbond.Weighted>
0.0000

> <Gold.Chemscore.DEClash.Weighted>
0.1507

> <Gold.Chemscore.DEInternal.Weighted>
3.1362

> <Gold.Chemscore.Rot.Weighted>
7.5713

> <Gold.Chemscore.Internal.Correction.Weighted>
   9.000000E+99

> <Gold.Protein.RotatedTorsions>
[ 6907 6896 6895 6894 ] final    1.69 input  -60.11 | X-H torsion
[ 7974 7965 7964 7962 ] final -105.47 input  175.53 | X-H torsion
[ 8008 7997 7996 7995 ] final  -75.78 input   59.86 | X-H torsion
[ 10167 10162 10161 10158 ] final  124.19 input  -65.29 | X-H torsion
[ 10718 10713 10712 10709 ] final  -35.90 input   66.30 | X-H torsion
[ 10763 10752 10751 10750 ] final  113.60 input  -60.55 | X-H torsion
[ 11005 11000 10999 10996 ] final -135.81 input  -57.11 | X-H torsion

> <Gold.Protein.ActiveResidues>
 VAL166  LYS551  ARG553  GLY616  TRP617  ASP618  TYR619  PRO620  LYS621  CYS622 
 ASP623  PHE694  ASN695  SER759  ASP760  ASP761  ALA762  ILE779  LEU786  VAL792 
 PHE793  MET794  SER795  GLU796  ALA797  LYS798  CYS799  TRP800  GLU811  SER814 

> <Gold.Protein.RotatedAtoms>
  151.5967  135.1050  160.0050 H   0  0  0  0  0  0  0  0  0  0  0  0  # atno 6907 bound_to 6896
  152.4279  133.7222  159.6550 H   0  0  0  0  0  0  0  0  0  0  0  0  # atno 6908 bound_to 6896
  150.8169  133.8250  159.3179 H   0  0  0  0  0  0  0  0  0  0  0  0  # atno 6909 bound_to 6896
  145.2300  140.9167  143.3210 H   0  0  0  0  0  0  0  0  0  0  0  0  # atno 7974 bound_to 7965
  154.5446  140.0738  156.8568 H   0  0  0  0  0  0  0  0  0  0  0  0  # atno 8008 bound_to 7997
  155.3112  140.3390  155.4226 H   0  0  0  0  0  0  0  0  0  0  0  0  # atno 8009 bound_to 7997
  156.1906  140.1685  156.8085 H   0  0  0  0  0  0  0  0  0  0  0  0  # atno 8010 bound_to 7997
  139.5756  144.6961  151.3663 H   0  0  0  0  0  0  0  0  0  0  0  0  # atno 10167 bound_to 10162
  156.3331  130.4282  149.7854 H   0  0  0  0  0  0  0  0  0  0  0  0  # atno 10718 bound_to 10713
  153.4950  135.3650  155.2511 H   0  0  0  0  0  0  0  0  0  0  0  0  # atno 10763 bound_to 10752
  154.8750  135.3986  154.3545 H   0  0  0  0  0  0  0  0  0  0  0  0  # atno 10764 bound_to 10752
  153.4171  135.7079  153.6385 H   0  0  0  0  0  0  0  0  0  0  0  0  # atno 10765 bound_to 10752
  140.8863  134.1868  157.4558 H   0  0  0  0  0  0  0  0  0  0  0  0  # atno 11005 bound_to 11000
  144.9685  139.3905  143.6320 LP  0  0  0  0  0  0  0  0  0  0  0  0  # atno 17320 bound_to 7965
  146.3355  139.8772  142.8830 LP  0  0  0  0  0  0  0  0  0  0  0  0  # atno 17321 bound_to 7965
  140.7038  143.7564  150.7448 LP  0  0  0  0  0  0  0  0  0  0  0  0  # atno 17342 bound_to 10162
  140.1083  143.4723  152.2385 LP  0  0  0  0  0  0  0  0  0  0  0  0  # atno 17343 bound_to 10162
  156.5119  130.8176  151.3172 LP  0  0  0  0  0  0  0  0  0  0  0  0  # atno 17370 bound_to 10713
  157.7434  130.9911  150.2589 LP  0  0  0  0  0  0  0  0  0  0  0  0  # atno 17371 bound_to 10713
  139.8725  134.9839  156.5218 LP  0  0  0  0  0  0  0  0  0  0  0  0  # atno 17394 bound_to 11000
  140.8400  133.8212  155.9066 LP  0  0  0  0  0  0  0  0  0  0  0  0  # atno 17395 bound_to 11000

$$$$
