AV-unprocessed.smi:1489|AV-procd|sdf|6027|dock8
  -GOLD-   22720 6133D 1   1.00000     0.00000
 Structure written by MMmdl.
 47 49  0  0  0  0  0  0  0  0  2 V2000
  146.3811  138.9509  154.2768 O   0  0  0  0  0  0  0  0  0  0  0  0
  147.2266  138.4519  153.5344 C   0  0  0  0  0  0  0  0  0  0  0  0
  148.5434  138.7202  153.5687 N   0  0  0  0  0  0  0  0  0  0  0  0
  149.2329  139.6467  154.3967 C   0  0  0  0  0  0  0  0  0  0  0  0
  150.4833  139.3812  155.0089 C   0  0  0  0  0  0  0  0  0  0  0  0
  151.0779  140.3630  155.8276 C   0  0  0  0  0  0  0  0  0  0  0  0
  150.4143  141.5950  156.0326 C   0  0  0  0  0  0  0  0  0  0  0  0
  150.9263  142.6352  156.8216 N   0  0  0  0  0  0  0  0  0  0  0  0
  152.1947  142.3344  157.4652 C   0  0  0  0  0  0  0  0  0  0  0  0
  152.3478  143.3648  158.5880 C   0  0  0  0  0  0  0  0  0  0  0  0
  150.9317  143.8986  158.8326 C   0  0  0  0  0  0  0  0  0  0  0  0
  150.0417  143.1010  157.8768 C   0  0  0  0  0  0  0  0  0  0  0  0
  149.2171  141.8016  155.4417 N   0  3  0  0  0  0  0  0  0  0  0  0
  148.6122  140.8877  154.6521 C   0  0  0  0  0  0  0  0  0  0  0  0
  146.9391  137.5447  152.5897 N   0  0  0  0  0  0  0  0  0  0  0  0
  145.6065  137.0240  152.2963 C   0  0  2  0  0  0  0  0  0  0  0  0
  145.0076  136.3987  153.5711 C   0  0  0  0  0  0  0  0  0  0  0  0
  143.6260  135.7802  153.3020 C   0  0  0  0  0  0  0  0  0  0  0  0
  143.6950  134.7451  152.1665 C   0  0  1  0  0  0  0  0  0  0  0  0
  142.4007  134.2467  151.9021 O   0  0  0  0  0  0  0  0  0  0  0  0
  144.2792  135.3681  150.8871 C   0  0  0  0  0  0  0  0  0  0  0  0
  145.6608  135.9879  151.1529 C   0  0  0  0  0  0  0  0  0  0  0  0
  149.1265  138.1608  152.9633 H   0  0  0  0  0  0  0  0  0  0  0  0
  150.9927  138.4392  154.8779 H   0  0  0  0  0  0  0  0  0  0  0  0
  152.0329  140.1646  156.2915 H   0  0  0  0  0  0  0  0  0  0  0  0
  152.1861  141.3260  157.8813 H   0  0  0  0  0  0  0  0  0  0  0  0
  153.0175  142.3958  156.7523 H   0  0  0  0  0  0  0  0  0  0  0  0
  152.7803  142.9162  159.4829 H   0  0  0  0  0  0  0  0  0  0  0  0
  153.0039  144.1779  158.2752 H   0  0  0  0  0  0  0  0  0  0  0  0
  150.6157  143.7842  159.8701 H   0  0  0  0  0  0  0  0  0  0  0  0
  150.8904  144.9610  158.5886 H   0  0  0  0  0  0  0  0  0  0  0  0
  149.2378  143.7164  157.4719 H   0  0  0  0  0  0  0  0  0  0  0  0
  149.5892  142.2592  158.4022 H   0  0  0  0  0  0  0  0  0  0  0  0
  147.6556  141.1814  154.2445 H   0  0  0  0  0  0  0  0  0  0  0  0
  147.6979  137.1827  152.0310 H   0  0  0  0  0  0  0  0  0  0  0  0
  144.9641  137.8527  151.9916 H   0  0  0  0  0  0  0  0  0  0  0  0
  145.6774  135.6275  153.9545 H   0  0  0  0  0  0  0  0  0  0  0  0
  144.9243  137.1530  154.3546 H   0  0  0  0  0  0  0  0  0  0  0  0
  143.2474  135.3140  154.2125 H   0  0  0  0  0  0  0  0  0  0  0  0
  142.9206  136.5709  153.0421 H   0  0  0  0  0  0  0  0  0  0  0  0
  144.3190  133.9065  152.4782 H   0  0  0  0  0  0  0  0  0  0  0  0
  142.3028  134.1440  150.9678 H   0  0  0  0  0  0  0  0  0  0  0  0
  144.3586  134.6129  150.1042 H   0  0  0  0  0  0  0  0  0  0  0  0
  143.6054  136.1379  150.5076 H   0  0  0  0  0  0  0  0  0  0  0  0
  146.0308  136.4518  150.2378 H   0  0  0  0  0  0  0  0  0  0  0  0
  146.3684  135.1966  151.4051 H   0  0  0  0  0  0  0  0  0  0  0  0
  148.7459  142.6926  155.5999 H   0  0  0  0  0  0  0  0  0  0  0  0
  1  2  2  0  0  0  0
  2  3  1  0  0  0  0
  2 15  1  0  0  0  0
  3  4  1  0  0  0  0
  3 23  1  0  0  0  0
  4 14  1  0  0  0  0
  4  5  2  0  0  0  0
  5  6  1  0  0  0  0
  5 24  1  0  0  0  0
  6  7  2  0  0  0  0
  6 25  1  0  0  0  0
  7  8  1  0  0  0  0
  7 13  1  0  0  0  0
  8 12  1  0  0  0  0
  8  9  1  0  0  0  0
  9 10  1  0  0  0  0
  9 26  1  0  0  0  0
  9 27  1  0  0  0  0
 10 11  1  0  0  0  0
 10 28  1  0  0  0  0
 10 29  1  0  0  0  0
 11 12  1  0  0  0  0
 11 30  1  0  0  0  0
 11 31  1  0  0  0  0
 12 32  1  0  0  0  0
 12 33  1  0  0  0  0
 13 14  2  0  0  0  0
 13 47  1  0  0  0  0
 14 34  1  0  0  0  0
 15 16  1  0  0  0  0
 15 35  1  0  0  0  0
 16 22  1  0  0  0  0
 16 17  1  0  0  0  0
 16 36  1  0  0  0  0
 17 18  1  0  0  0  0
 17 37  1  0  0  0  0
 17 38  1  0  0  0  0
 18 19  1  0  0  0  0
 18 39  1  0  0  0  0
 18 40  1  0  0  0  0
 19 20  1  0  0  0  0
 19 21  1  0  0  0  0
 19 41  1  0  0  0  0
 20 42  1  0  0  0  0
 21 22  1  0  0  0  0
 21 43  1  0  0  0  0
 21 44  1  0  0  0  0
 22 45  1  0  0  0  0
 22 46  1  0  0  0  0
M  CHG  1  13   1
M  END
> <s_m_source_file>
AV-unprocessed.smi

> <i_m_source_file_index>
1489

> <i_lp_mmshare_version>
43012

> <i_f3d_flags>
0

> <s_epik_input>
W0NIMl0xW0NIMl1bQ0BIXShbT0hdKVtDSDJdW0NIMl1bQ0BIXTFbTkhdQyg9TylbTkhdYzJbY0hdW2NIXWMobltjSF0yKU4zW0NIMl1bQ0gyXVtDSDJdW0NIMl0z

> <s_epik_cmdline>
J2VwaWtfcHl0aG9uJywgJy1waCcsICc3LjAnLCAnLXRuJywgJzgnLCAnLW1hJywgJzIwMCcsICctbWV0YWxfYmluZGluZycsICctaW1hZScsICc8aW5maWxlLm1hZT4nLCAnLW9tYWUnLCAnPG91dGZpbGUubWFlPic=

> <r_lp_tautomer_probability>
0.999994

> <r_epik_Ionization_Penalty>
1.08454

> <r_epik_Ionization_Penalty_Charging>
1.08452

> <r_epik_Ionization_Penalty_Neutral>
2.18252e-05

> <r_epik_State_Penalty>
1.14025

> <r_epik_Charging_Adjusted_Penalty>
2.22477

> <i_epik_Tot_Q>
1

> <i_epik_Tot_abs_Q>
1

> <r_epik_Metal_State_Penalty>
1.22975

> <b_epik_Metal_Only>
0

> <s_lp_Force_Field>
OPLS_2005

> <r_lp_Energy>
44.1541

> <b_lp_Chiralities_Consistent>
1

> <s_lp_Variant>
AV-unprocessed.smi:1489-3

> <Gold.Version>
5.8.1

> <Gold.Id.Protein>
6NUR|6NUR_protein|mol2

> <Gold.PLP.Fitness>
44.2794

> <Gold.PLP.PLP>
-32.3657

> <Gold.PLP.part.hbond>
-4.8757

> <Gold.PLP.part.metal>
0.0000

> <Gold.PLP.part.buried>
-3.4373

> <Gold.PLP.part.nonpolar>
-25.8412

> <Gold.PLP.part.repulsive>
0.4938

> <Gold.PLP.ligand.clash>
0.0000

> <Gold.PLP.ligand.torsion>
0.3469

> <Gold.PLP.Chemscore.Hbond>
4.1978

> <Gold.PLP.Chemscore.CHOScore>
0.0000

> <Gold.PLP.Chemscore.Metal>
0.0000

> <Gold.Chemscore.Hbonds>
donor molecule, donor type, donor heavy atom, donor atom, acceptor molecule, acceptor atom, score
      L1  H     3    23       P1  7948  0.45
      L1  H    13    47       P1  8028  1.92
      L1  H    15    35       P1  7948  1.00
      L1  H    20    42       P1 10186  0.76

> <Gold.PLP.Chemscore.Internal.Correction>
0.0141

> <Gold.Rescore>
     Score         DG    S(hbond)    S(metal)    S(lipo)     H(rot)  DE(clash)    DE(int)     intcor
     14.88     -20.03       2.47        0.00      90.90       1.69       2.51       2.64       ----

> <Gold.Chemscore.Fitness>
14.8810

> <Gold.Chemscore.DG>
-20.0300

> <Gold.Chemscore.ZeroCoef>
-5.4800

> <Gold.Chemscore.Hbond>
2.4696

> <Gold.Chemscore.Metal>
0.0000

> <Gold.Chemscore.Lipo>
90.8997

> <Gold.Chemscore.Internal_Hbond>
0.0000

> <Gold.Chemscore.DEClash>
2.5111

> <Gold.Chemscore.DEInternal>
2.6380

> <Gold.Chemscore.Rot>
1.6929

> <Gold.Chemscore.Internal.Correction>
   9.000000E+99

> <Gold.Chemscore.Hbonds>
donor molecule, donor type, donor heavy atom, donor atom, acceptor molecule, acceptor atom, score
      L1  H     3    23       P1  7948  0.44
      L1  H    13    47       P1  8028  0.86
      L1  H    15    35       P1  7948  0.93
      L1  H    20    42       P1 10186  0.17

> <Gold.Chemscore.Hbond.Weighted>
-8.2485

> <Gold.Chemscore.Metal.Weighted>
-0.0000

> <Gold.Chemscore.Lipo.Weighted>
-10.6353

> <Gold.Chemscore.Internal_Hbond.Weighted>
0.0000

> <Gold.Chemscore.DEClash.Weighted>
2.5111

> <Gold.Chemscore.DEInternal.Weighted>
2.6380

> <Gold.Chemscore.Rot.Weighted>
4.3338

> <Gold.Chemscore.Internal.Correction.Weighted>
   9.000000E+99

> <Gold.Protein.RotatedTorsions>
[ 6907 6896 6895 6894 ] final   -1.32 input  -60.11 | X-H torsion
[ 7974 7965 7964 7962 ] final  -39.88 input  175.53 | X-H torsion
[ 8008 7997 7996 7995 ] final  -92.17 input   59.86 | X-H torsion
[ 10167 10162 10161 10158 ] final -115.51 input  -65.29 | X-H torsion
[ 10718 10713 10712 10709 ] final  -92.55 input   66.30 | X-H torsion
[ 10763 10752 10751 10750 ] final  -34.06 input  -60.55 | X-H torsion
[ 11005 11000 10999 10996 ] final -178.65 input  -57.11 | X-H torsion

> <Gold.Protein.ActiveResidues>
 VAL166  LYS551  ARG553  GLY616  TRP617  ASP618  TYR619  PRO620  LYS621  CYS622 
 ASP623  PHE694  ASN695  SER759  ASP760  ASP761  ALA762  ILE779  LEU786  VAL792 
 PHE793  MET794  SER795  GLU796  ALA797  LYS798  CYS799  TRP800  GLU811  SER814 

> <Gold.Protein.RotatedAtoms>
  151.5479  135.1068  159.9942 H   0  0  0  0  0  0  0  0  0  0  0  0  # atno 6907 bound_to 6896
  152.4505  133.7616  159.6760 H   0  0  0  0  0  0  0  0  0  0  0  0  # atno 6908 bound_to 6896
  150.8432  133.7836  159.3077 H   0  0  0  0  0  0  0  0  0  0  0  0  # atno 6909 bound_to 6896
  146.0356  140.6676  142.9112 H   0  0  0  0  0  0  0  0  0  0  0  0  # atno 7974 bound_to 7965
  154.7197  140.0512  157.0628 H   0  0  0  0  0  0  0  0  0  0  0  0  # atno 8008 bound_to 7997
  155.0443  140.3172  155.4694 H   0  0  0  0  0  0  0  0  0  0  0  0  # atno 8009 bound_to 7997
  156.2813  140.2127  156.5568 H   0  0  0  0  0  0  0  0  0  0  0  0  # atno 8010 bound_to 7997
  140.0893  143.4715  152.1879 H   0  0  0  0  0  0  0  0  0  0  0  0  # atno 10167 bound_to 10162
  156.0003  130.4991  150.5642 H   0  0  0  0  0  0  0  0  0  0  0  0  # atno 10718 bound_to 10713
  153.8405  135.6858  153.4803 H   0  0  0  0  0  0  0  0  0  0  0  0  # atno 10763 bound_to 10752
  153.1456  135.4639  154.9559 H   0  0  0  0  0  0  0  0  0  0  0  0  # atno 10764 bound_to 10752
  154.7847  135.3280  154.7859 H   0  0  0  0  0  0  0  0  0  0  0  0  # atno 10765 bound_to 10752
  140.4274  134.6550  157.4695 H   0  0  0  0  0  0  0  0  0  0  0  0  # atno 11005 bound_to 11000
  144.7050  140.3814  143.7125 LP  0  0  0  0  0  0  0  0  0  0  0  0  # atno 17320 bound_to 7965
  145.6970  139.1652  143.2614 LP  0  0  0  0  0  0  0  0  0  0  0  0  # atno 17321 bound_to 7965
  139.5734  144.7475  151.3830 LP  0  0  0  0  0  0  0  0  0  0  0  0  # atno 17342 bound_to 10162
  140.7037  143.7568  150.7445 LP  0  0  0  0  0  0  0  0  0  0  0  0  # atno 17343 bound_to 10162
  157.3547  131.0739  151.1685 LP  0  0  0  0  0  0  0  0  0  0  0  0  # atno 17370 bound_to 10713
  157.2490  130.6605  149.5923 LP  0  0  0  0  0  0  0  0  0  0  0  0  # atno 17371 bound_to 10713
  140.0158  134.6622  155.9313 LP  0  0  0  0  0  0  0  0  0  0  0  0  # atno 17394 bound_to 11000
  141.1759  133.6540  156.4828 LP  0  0  0  0  0  0  0  0  0  0  0  0  # atno 17395 bound_to 11000

$$$$
