AV-unprocessed.smi:2684|AV-procd|sdf|10378|dock8
  -GOLD-   2272014403D 1   1.00000     0.00000
 Structure written by MMmdl.
 45 46  0  0  0  0  0  0  0  0  2 V2000
  151.4746  142.8082  158.8589 C   0  0  0  0  0  0  0  0  0  0  0  0
  151.0283  141.6990  157.9507 C   0  0  0  0  0  0  0  0  0  0  0  0
  150.9957  140.3021  158.2254 C   0  0  0  0  0  0  0  0  0  0  0  0
  150.5307  139.5900  157.2115 N   0  0  0  0  0  0  0  0  0  0  0  0
  150.2491  140.5033  156.2584 N   0  0  0  0  0  0  0  0  0  0  0  0
  149.6875  140.0744  154.9900 C   0  0  0  0  0  0  0  0  0  0  0  0
  149.3709  138.5615  154.9394 C   0  0  2  0  0  0  0  0  0  0  0  0
  150.6460  137.7378  155.1641 C   0  0  0  0  0  0  0  0  0  0  0  0
  148.7640  138.1786  153.6432 N   0  3  0  0  0  0  0  0  0  0  0  0
  147.3897  138.6771  153.4200 C   0  0  0  0  0  0  0  0  0  0  0  0
  146.3829  137.5255  153.2960 C   0  0  0  0  0  0  0  0  0  0  0  0
  145.2344  137.6869  153.7045 O   0  0  0  0  0  0  0  0  0  0  0  0
  146.7506  136.3634  152.7257 N   0  0  0  0  0  0  0  0  0  0  0  0
  145.9480  135.1590  152.5154 C   0  0  0  0  0  0  0  0  0  0  0  0
  146.6666  133.8968  153.0250 C   0  0  0  0  0  0  0  0  0  0  0  0
  145.8626  132.6374  152.6634 C   0  0  0  0  0  0  0  0  0  0  0  0
  145.6559  132.5788  151.2564 O   0  0  0  0  0  0  0  0  0  0  0  0
  144.8953  133.6751  150.7606 C   0  0  0  0  0  0  0  0  0  0  0  0
  145.6433  134.9935  151.0193 C   0  0  0  0  0  0  0  0  0  0  0  0
  150.5508  141.7834  156.6739 C   0  0  0  0  0  0  0  0  0  0  0  0
  151.8132  142.4308  159.8238 H   0  0  0  0  0  0  0  0  0  0  0  0
  150.6678  143.5144  159.0562 H   0  0  0  0  0  0  0  0  0  0  0  0
  152.3001  143.3745  158.4272 H   0  0  0  0  0  0  0  0  0  0  0  0
  151.2885  139.7888  159.1295 H   0  0  0  0  0  0  0  0  0  0  0  0
  148.7867  140.6579  154.7944 H   0  0  0  0  0  0  0  0  0  0  0  0
  150.3990  140.3345  154.2049 H   0  0  0  0  0  0  0  0  0  0  0  0
  148.6791  138.3078  155.7448 H   0  0  0  0  0  0  0  0  0  0  0  0
  151.0998  137.9717  156.1277 H   0  0  0  0  0  0  0  0  0  0  0  0
  151.3895  137.9344  154.3905 H   0  0  0  0  0  0  0  0  0  0  0  0
  150.4306  136.6688  155.1553 H   0  0  0  0  0  0  0  0  0  0  0  0
  149.3610  138.5080  152.8983 H   0  0  0  0  0  0  0  0  0  0  0  0
  147.1003  139.3068  154.2617 H   0  0  0  0  0  0  0  0  0  0  0  0
  147.3761  139.3097  152.5388 H   0  0  0  0  0  0  0  0  0  0  0  0
  147.6964  136.3190  152.3734 H   0  0  0  0  0  0  0  0  0  0  0  0
  144.9919  135.2656  153.0263 H   0  0  0  0  0  0  0  0  0  0  0  0
  147.6602  133.8298  152.5796 H   0  0  0  0  0  0  0  0  0  0  0  0
  146.8120  133.9386  154.1041 H   0  0  0  0  0  0  0  0  0  0  0  0
  146.4040  131.7447  152.9770 H   0  0  0  0  0  0  0  0  0  0  0  0
  144.9033  132.6264  153.1835 H   0  0  0  0  0  0  0  0  0  0  0  0
  144.7370  133.5381  149.6907 H   0  0  0  0  0  0  0  0  0  0  0  0
  143.9098  133.6874  151.2281 H   0  0  0  0  0  0  0  0  0  0  0  0
  145.0493  135.8340  150.6585 H   0  0  0  0  0  0  0  0  0  0  0  0
  146.5719  134.9972  150.4462 H   0  0  0  0  0  0  0  0  0  0  0  0
  150.3901  142.6421  156.0385 H   0  0  0  0  0  0  0  0  0  0  0  0
  148.7249  137.1704  153.5944 H   0  0  0  0  0  0  0  0  0  0  0  0
  1  2  1  0  0  0  0
  1 21  1  0  0  0  0
  1 22  1  0  0  0  0
  1 23  1  0  0  0  0
  2 20  2  0  0  0  0
  2  3  1  0  0  0  0
  3  4  2  0  0  0  0
  3 24  1  0  0  0  0
  4  5  1  0  0  0  0
  5  6  1  0  0  0  0
  5 20  1  0  0  0  0
  6  7  1  0  0  0  0
  6 25  1  0  0  0  0
  6 26  1  0  0  0  0
  7  8  1  0  0  0  0
  7  9  1  0  0  0  0
  7 27  1  0  0  0  0
  8 28  1  0  0  0  0
  8 29  1  0  0  0  0
  8 30  1  0  0  0  0
  9 10  1  0  0  0  0
  9 31  1  0  0  0  0
  9 45  1  0  0  0  0
 10 11  1  0  0  0  0
 10 32  1  0  0  0  0
 10 33  1  0  0  0  0
 11 12  2  0  0  0  0
 11 13  1  0  0  0  0
 13 14  1  0  0  0  0
 13 34  1  0  0  0  0
 14 19  1  0  0  0  0
 14 15  1  0  0  0  0
 14 35  1  0  0  0  0
 15 16  1  0  0  0  0
 15 36  1  0  0  0  0
 15 37  1  0  0  0  0
 16 17  1  0  0  0  0
 16 38  1  0  0  0  0
 16 39  1  0  0  0  0
 17 18  1  0  0  0  0
 18 19  1  0  0  0  0
 18 40  1  0  0  0  0
 18 41  1  0  0  0  0
 19 42  1  0  0  0  0
 19 43  1  0  0  0  0
 20 44  1  0  0  0  0
M  CHG  1   9   1
M  END
> <s_m_source_file>
AV-unprocessed.smi

> <i_m_source_file_index>
2684

> <i_lp_mmshare_version>
43012

> <i_f3d_flags>
0

> <s_epik_input>
W0NIM11jMVtjSF1ubihbY0hdMSlbQ0gyXVtDQEhdKFtDSDNdKVtOSF1bQ0gyXUMoPU8pW05IXVtDSF0yW0NIMl1bQ0gyXU9bQ0gyXVtDSDJdMg==

> <s_epik_cmdline>
J2VwaWtfcHl0aG9uJywgJy1waCcsICc3LjAnLCAnLXRuJywgJzgnLCAnLW1hJywgJzIwMCcsICctbWV0YWxfYmluZGluZycsICctaW1hZScsICc8aW5maWxlLm1hZT4nLCAnLW9tYWUnLCAnPG91dGZpbGUubWFlPic=

> <r_lp_tautomer_probability>
1

> <r_epik_Ionization_Penalty>
0.128576

> <r_epik_Ionization_Penalty_Charging>
0.128567

> <r_epik_Ionization_Penalty_Neutral>
8.60003e-06

> <r_epik_State_Penalty>
0.117991

> <r_epik_Charging_Adjusted_Penalty>
0.246558

> <i_epik_Tot_Q>
1

> <i_epik_Tot_abs_Q>
1

> <r_epik_Metal_State_Penalty>
0.118015

> <b_epik_Metal_Only>
0

> <s_lp_Force_Field>
OPLS_2005

> <r_lp_Energy>
10.3737

> <b_lp_Chiralities_Consistent>
1

> <s_lp_Variant>
AV-unprocessed.smi:2684-1

> <Gold.Version>
5.8.1

> <Gold.Id.Protein>
6NUR|6NUR_protein|mol2

> <Gold.PLP.Fitness>
49.2210

> <Gold.PLP.PLP>
-36.6821

> <Gold.PLP.part.hbond>
-3.0000

> <Gold.PLP.part.metal>
0.0000

> <Gold.PLP.part.buried>
-3.2879

> <Gold.PLP.part.nonpolar>
-30.4383

> <Gold.PLP.part.repulsive>
0.4108

> <Gold.PLP.ligand.clash>
0.0000

> <Gold.PLP.ligand.torsion>
0.9207

> <Gold.PLP.Chemscore.Hbond>
3.7680

> <Gold.PLP.Chemscore.CHOScore>
1.0000

> <Gold.PLP.Chemscore.Metal>
0.0000

> <Gold.Chemscore.Hbonds>
donor molecule, donor type, donor heavy atom, donor atom, acceptor molecule, acceptor atom, score
      L1  H     9    31       P1  7957  0.27
      L1  H     9    45       P1  7948  0.80
      L1  H    13    34       P1  7948  0.55
      L1  C    20    44       P1  8028  0.85

> <Gold.PLP.Chemscore.Internal.Correction>
0.0761

> <Gold.Rescore>
     Score         DG    S(hbond)    S(metal)    S(lipo)     H(rot)  DE(clash)    DE(int)     intcor
     17.71     -19.65       2.96        0.00      81.43       2.04       0.06       1.88       ----

> <Gold.Chemscore.Fitness>
17.7125

> <Gold.Chemscore.DG>
-19.6503

> <Gold.Chemscore.ZeroCoef>
-5.4800

> <Gold.Chemscore.Hbond>
2.9564

> <Gold.Chemscore.Metal>
0.0000

> <Gold.Chemscore.Lipo>
81.4340

> <Gold.Chemscore.Internal_Hbond>
0.0000

> <Gold.Chemscore.DEClash>
0.0568

> <Gold.Chemscore.DEInternal>
1.8811

> <Gold.Chemscore.Rot>
2.0437

> <Gold.Chemscore.Internal.Correction>
   9.000000E+99

> <Gold.Chemscore.Hbonds>
donor molecule, donor type, donor heavy atom, donor atom, acceptor molecule, acceptor atom, score
      L1  H     9    31       P1  7957  0.22
      L1  H     9    45       P1  7948  0.39
      L1  H    13    34       P1  7948  0.54

> <Gold.Chemscore.Hbond.Weighted>
-9.8744

> <Gold.Chemscore.Metal.Weighted>
-0.0000

> <Gold.Chemscore.Lipo.Weighted>
-9.5278

> <Gold.Chemscore.Internal_Hbond.Weighted>
0.0000

> <Gold.Chemscore.DEClash.Weighted>
0.0568

> <Gold.Chemscore.DEInternal.Weighted>
1.8811

> <Gold.Chemscore.Rot.Weighted>
5.2318

> <Gold.Chemscore.Internal.Correction.Weighted>
   9.000000E+99

> <Gold.Protein.RotatedTorsions>
[ 6907 6896 6895 6894 ] final  -39.56 input  -60.11 | X-H torsion
[ 7974 7965 7964 7962 ] final  -52.32 input  175.53 | X-H torsion
[ 8008 7997 7996 7995 ] final  150.19 input   59.86 | X-H torsion
[ 10167 10162 10161 10158 ] final   53.41 input  -65.29 | X-H torsion
[ 10718 10713 10712 10709 ] final   17.90 input   66.30 | X-H torsion
[ 10763 10752 10751 10750 ] final -131.94 input  -60.55 | X-H torsion
[ 11005 11000 10999 10996 ] final  -97.47 input  -57.11 | X-H torsion

> <Gold.Protein.ActiveResidues>
 VAL166  LYS551  ARG553  GLY616  TRP617  ASP618  TYR619  PRO620  LYS621  CYS622 
 ASP623  PHE694  ASN695  SER759  ASP760  ASP761  ALA762  ILE779  LEU786  VAL792 
 PHE793  MET794  SER795  GLU796  ALA797  LYS798  CYS799  TRP800  GLU811  SER814 

> <Gold.Protein.RotatedAtoms>
  150.9889  134.9228  159.7887 H   0  0  0  0  0  0  0  0  0  0  0  0  # atno 6907 bound_to 6896
  152.5245  134.3308  159.9192 H   0  0  0  0  0  0  0  0  0  0  0  0  # atno 6908 bound_to 6896
  151.3314  133.3958  159.2697 H   0  0  0  0  0  0  0  0  0  0  0  0  # atno 6909 bound_to 6896
  145.9093  140.7929  142.9703 H   0  0  0  0  0  0  0  0  0  0  0  0  # atno 7974 bound_to 7965
  156.2726  140.2081  156.5977 H   0  0  0  0  0  0  0  0  0  0  0  0  # atno 8008 bound_to 7997
  154.6931  140.0528  157.0407 H   0  0  0  0  0  0  0  0  0  0  0  0  # atno 8009 bound_to 7997
  155.0838  140.3189  155.4596 H   0  0  0  0  0  0  0  0  0  0  0  0  # atno 8010 bound_to 7997
  140.2411  144.3582  150.6380 H   0  0  0  0  0  0  0  0  0  0  0  0  # atno 10167 bound_to 10162
  157.0887  130.6419  149.5843 H   0  0  0  0  0  0  0  0  0  0  0  0  # atno 10718 bound_to 10713
  154.8747  135.3814  154.4328 H   0  0  0  0  0  0  0  0  0  0  0  0  # atno 10763 bound_to 10752
  153.5021  135.7030  153.5831 H   0  0  0  0  0  0  0  0  0  0  0  0  # atno 10764 bound_to 10752
  153.4158  135.3913  155.2046 H   0  0  0  0  0  0  0  0  0  0  0  0  # atno 10765 bound_to 10752
  141.1378  133.8173  157.0711 H   0  0  0  0  0  0  0  0  0  0  0  0  # atno 11005 bound_to 11000
  144.6742  140.1800  143.7406 LP  0  0  0  0  0  0  0  0  0  0  0  0  # atno 17320 bound_to 7965
  145.8692  139.2263  143.1671 LP  0  0  0  0  0  0  0  0  0  0  0  0  # atno 17321 bound_to 7965
  140.6113  143.2169  151.6881 LP  0  0  0  0  0  0  0  0  0  0  0  0  # atno 17342 bound_to 10162
  139.5077  144.3637  152.0537 LP  0  0  0  0  0  0  0  0  0  0  0  0  # atno 17343 bound_to 10162
  155.9904  130.4954  150.7254 LP  0  0  0  0  0  0  0  0  0  0  0  0  # atno 17370 bound_to 10713
  157.4739  131.0896  151.0612 LP  0  0  0  0  0  0  0  0  0  0  0  0  # atno 17371 bound_to 10713
  140.0511  134.9805  157.1137 LP  0  0  0  0  0  0  0  0  0  0  0  0  # atno 17394 bound_to 11000
  140.3989  134.2104  155.7164 LP  0  0  0  0  0  0  0  0  0  0  0  0  # atno 17395 bound_to 11000

$$$$
