AV-unprocessed.smi:806|AV-procd|sdf|3801|dock2
  -GOLD-   22720 1233D 1   1.00000     0.00000
 Structure written by MMmdl.
 44 45  0  0  0  0  0  0  0  0  1 V2000
  148.4203  141.9684  154.4841 C   0  0  0  0  0  0  0  0  0  0  0  0
  148.9531  140.6218  154.7600 N   0  0  0  0  0  0  0  0  0  0  0  0
  148.4461  139.5184  154.1387 C   0  0  0  0  0  0  0  0  0  0  0  0
  148.7425  138.3743  154.4878 O   0  0  0  0  0  0  0  0  0  0  0  0
  147.4604  139.6809  152.9601 C   0  0  0  0  0  0  0  0  0  0  0  0
  146.1690  138.9898  153.1211 N   0  0  0  0  0  0  0  0  0  0  0  0
  146.0099  137.8685  152.2018 C   0  0  0  0  0  0  0  0  0  0  0  0
  144.8511  136.9804  152.6782 C   0  0  0  0  0  0  0  0  0  0  0  0
  144.7975  135.7307  151.9445 N   0  0  0  0  0  0  0  0  0  0  0  0
  145.7783  134.7697  151.8167 C   0  0  0  0  0  0  0  0  0  0  0  0
  145.2699  133.7715  151.0358 C   0  0  0  0  0  0  0  0  0  0  0  0
  143.9542  134.2191  150.7298 C   0  0  0  0  0  0  0  0  0  0  0  0
  143.6745  135.3920  151.2749 N   0  0  0  0  0  0  0  0  0  0  0  0
  150.0387  140.5133  155.7856 C   0  0  0  0  0  0  0  0  0  0  0  0
  151.2234  139.8263  155.2209 C   0  0  0  0  0  0  0  0  0  0  0  0
  152.1482  139.2891  154.7767 N   0  0  0  0  0  0  0  0  0  0  0  0
  150.5523  141.8953  156.2974 C   0  0  0  0  0  0  0  0  0  0  0  0
  151.6262  141.7585  157.3922 C   0  0  0  0  0  0  0  0  0  0  0  0
  151.0893  140.9497  158.5816 C   0  0  0  0  0  0  0  0  0  0  0  0
  150.5538  139.5831  158.1316 C   0  0  0  0  0  0  0  0  0  0  0  0
  149.5034  139.7295  157.0149 C   0  0  0  0  0  0  0  0  0  0  0  0
  147.4845  141.9926  153.9293 H   0  0  0  0  0  0  0  0  0  0  0  0
  149.1447  142.5631  153.9272 H   0  0  0  0  0  0  0  0  0  0  0  0
  148.1831  142.4827  155.4144 H   0  0  0  0  0  0  0  0  0  0  0  0
  147.2599  140.7458  152.8391 H   0  0  0  0  0  0  0  0  0  0  0  0
  147.9148  139.3322  152.0318 H   0  0  0  0  0  0  0  0  0  0  0  0
  145.3955  139.6266  152.9951 H   0  0  0  0  0  0  0  0  0  0  0  0
  145.7985  138.2470  151.2006 H   0  0  0  0  0  0  0  0  0  0  0  0
  146.9240  137.2776  152.1385 H   0  0  0  0  0  0  0  0  0  0  0  0
  144.9502  136.7563  153.7416 H   0  0  0  0  0  0  0  0  0  0  0  0
  143.8975  137.4951  152.5503 H   0  0  0  0  0  0  0  0  0  0  0  0
  146.7447  134.8743  152.2875 H   0  0  0  0  0  0  0  0  0  0  0  0
  145.7625  132.8605  150.7298 H   0  0  0  0  0  0  0  0  0  0  0  0
  143.1995  133.7296  150.1320 H   0  0  0  0  0  0  0  0  0  0  0  0
  150.9591  142.4746  155.4677 H   0  0  0  0  0  0  0  0  0  0  0  0
  149.7492  142.4899  156.7301 H   0  0  0  0  0  0  0  0  0  0  0  0
  152.5216  141.2819  156.9928 H   0  0  0  0  0  0  0  0  0  0  0  0
  151.9355  142.7477  157.7311 H   0  0  0  0  0  0  0  0  0  0  0  0
  151.8743  140.8154  159.3262 H   0  0  0  0  0  0  0  0  0  0  0  0
  150.2915  141.5093  159.0715 H   0  0  0  0  0  0  0  0  0  0  0  0
  151.3799  138.9612  157.7852 H   0  0  0  0  0  0  0  0  0  0  0  0
  150.1163  139.0610  158.9830 H   0  0  0  0  0  0  0  0  0  0  0  0
  148.6241  140.2358  157.4155 H   0  0  0  0  0  0  0  0  0  0  0  0
  149.1693  138.7334  156.7253 H   0  0  0  0  0  0  0  0  0  0  0  0
  1  2  1  0  0  0  0
  1 22  1  0  0  0  0
  1 23  1  0  0  0  0
  1 24  1  0  0  0  0
  2  3  1  0  0  0  0
  2 14  1  0  0  0  0
  3  4  2  0  0  0  0
  3  5  1  0  0  0  0
  5  6  1  0  0  0  0
  5 25  1  0  0  0  0
  5 26  1  0  0  0  0
  6  7  1  0  0  0  0
  6 27  1  0  0  0  0
  7  8  1  0  0  0  0
  7 28  1  0  0  0  0
  7 29  1  0  0  0  0
  8  9  1  0  0  0  0
  8 30  1  0  0  0  0
  8 31  1  0  0  0  0
  9 13  1  0  0  0  0
  9 10  1  0  0  0  0
 10 11  2  0  0  0  0
 10 32  1  0  0  0  0
 11 12  1  0  0  0  0
 11 33  1  0  0  0  0
 12 13  2  0  0  0  0
 12 34  1  0  0  0  0
 14 21  1  0  0  0  0
 14 15  1  0  0  0  0
 14 17  1  0  0  0  0
 15 16  3  0  0  0  0
 17 18  1  0  0  0  0
 17 35  1  0  0  0  0
 17 36  1  0  0  0  0
 18 19  1  0  0  0  0
 18 37  1  0  0  0  0
 18 38  1  0  0  0  0
 19 20  1  0  0  0  0
 19 39  1  0  0  0  0
 19 40  1  0  0  0  0
 20 21  1  0  0  0  0
 20 41  1  0  0  0  0
 20 42  1  0  0  0  0
 21 43  1  0  0  0  0
 21 44  1  0  0  0  0
M  END
> <s_m_source_file>
AV-unprocessed.smi

> <i_m_source_file_index>
806

> <i_lp_mmshare_version>
43012

> <i_f3d_flags>
0

> <s_epik_input>
W0NIMl0xW0NIMl1bQ0gyXVtDSDJdW0NIMl1DMShDI04pTihbQ0gzXSlDKD1PKVtDSDJdW05IXVtDSDJdW0NIMl1uMltjSF1bY0hdW2NIXW4y

> <s_epik_cmdline>
J2VwaWtfcHl0aG9uJywgJy1waCcsICc3LjAnLCAnLXRuJywgJzgnLCAnLW1hJywgJzIwMCcsICctbWV0YWxfYmluZGluZycsICctaW1hZScsICc8aW5maWxlLm1hZT4nLCAnLW9tYWUnLCAnPG91dGZpbGUubWFlPic=

> <r_lp_tautomer_probability>
1

> <r_epik_Ionization_Penalty>
0.481166

> <r_epik_Ionization_Penalty_Charging>
0

> <r_epik_Ionization_Penalty_Neutral>
0.481166

> <r_epik_State_Penalty>
0.484368

> <r_epik_Charging_Adjusted_Penalty>
0.484368

> <i_epik_Tot_Q>
0

> <i_epik_Tot_abs_Q>
0

> <r_epik_Metal_State_Penalty>
0.483438

> <b_epik_Metal_Only>
0

> <s_lp_Force_Field>
OPLS_2005

> <r_lp_Energy>
29.6392

> <b_lp_Chiralities_Consistent>
1

> <s_lp_Variant>
AV-unprocessed.smi:806-2

> <Gold.Version>
5.8.1

> <Gold.Id.Protein>
6NUR|6NUR_protein|mol2

> <Gold.PLP.Fitness>
40.8789

> <Gold.PLP.PLP>
-32.9479

> <Gold.PLP.part.hbond>
-2.0000

> <Gold.PLP.part.metal>
0.0000

> <Gold.PLP.part.buried>
1.7962

> <Gold.PLP.part.nonpolar>
-33.0976

> <Gold.PLP.part.repulsive>
0.4693

> <Gold.PLP.ligand.clash>
0.0000

> <Gold.PLP.ligand.torsion>
0.5907

> <Gold.PLP.Chemscore.Hbond>
1.0000

> <Gold.PLP.Chemscore.CHOScore>
1.9498

> <Gold.PLP.Chemscore.Metal>
0.0000

> <Gold.Chemscore.Hbonds>
donor molecule, donor type, donor heavy atom, donor atom, acceptor molecule, acceptor atom, score
      L1  H     6    27       P1 10175  1.00
      L1  C    10    32       P1  7948  0.84
      L1  C    12    34       P1 10186  1.00

> <Gold.PLP.Chemscore.Internal.Correction>
0.2628

> <Gold.Rescore>
     Score         DG    S(hbond)    S(metal)    S(lipo)     H(rot)  DE(clash)    DE(int)     intcor
      8.87     -12.53       0.97        0.00      76.54       2.01       1.44       2.22       ----

> <Gold.Chemscore.Fitness>
8.8700

> <Gold.Chemscore.DG>
-12.5305

> <Gold.Chemscore.ZeroCoef>
-5.4800

> <Gold.Chemscore.Hbond>
0.9734

> <Gold.Chemscore.Metal>
0.0000

> <Gold.Chemscore.Lipo>
76.5445

> <Gold.Chemscore.Internal_Hbond>
0.0000

> <Gold.Chemscore.DEClash>
1.4390

> <Gold.Chemscore.DEInternal>
2.2215

> <Gold.Chemscore.Rot>
2.0142

> <Gold.Chemscore.Internal.Correction>
   9.000000E+99

> <Gold.Chemscore.Hbonds>
donor molecule, donor type, donor heavy atom, donor atom, acceptor molecule, acceptor atom, score
      L1  H     6    27       P1 10175  0.97

> <Gold.Chemscore.Hbond.Weighted>
-3.2511

> <Gold.Chemscore.Metal.Weighted>
-0.0000

> <Gold.Chemscore.Lipo.Weighted>
-8.9557

> <Gold.Chemscore.Internal_Hbond.Weighted>
0.0000

> <Gold.Chemscore.DEClash.Weighted>
1.4390

> <Gold.Chemscore.DEInternal.Weighted>
2.2215

> <Gold.Chemscore.Rot.Weighted>
5.1563

> <Gold.Chemscore.Internal.Correction.Weighted>
   9.000000E+99

> <Gold.Protein.RotatedTorsions>
[ 6907 6896 6895 6894 ] final   39.74 input  -60.11 | X-H torsion
[ 7974 7965 7964 7962 ] final -157.98 input  175.53 | X-H torsion
[ 8008 7997 7996 7995 ] final -143.78 input   59.86 | X-H torsion
[ 10167 10162 10161 10158 ] final -124.66 input  -65.29 | X-H torsion
[ 10718 10713 10712 10709 ] final   89.02 input   66.30 | X-H torsion
[ 10763 10752 10751 10750 ] final   73.14 input  -60.55 | X-H torsion
[ 11005 11000 10999 10996 ] final  176.89 input  -57.11 | X-H torsion

> <Gold.Protein.ActiveResidues>
 VAL166  LYS551  ARG553  GLY616  TRP617  ASP618  TYR619  PRO620  LYS621  CYS622 
 ASP623  PHE694  ASN695  SER759  ASP760  ASP761  ALA762  ILE779  LEU786  VAL792 
 PHE793  MET794  SER795  GLU796  ALA797  LYS798  CYS799  TRP800  GLU811  SER814 

> <Gold.Protein.RotatedAtoms>
  152.1735  134.8814  160.0532 H   0  0  0  0  0  0  0  0  0  0  0  0  # atno 6907 bound_to 6896
  151.9765  133.3738  159.4099 H   0  0  0  0  0  0  0  0  0  0  0  0  # atno 6908 bound_to 6896
  150.6905  134.4007  159.5162 H   0  0  0  0  0  0  0  0  0  0  0  0  # atno 6909 bound_to 6896
  144.7525  140.3892  143.6037 H   0  0  0  0  0  0  0  0  0  0  0  0  # atno 7974 bound_to 7965
  155.5163  140.0587  157.2915 H   0  0  0  0  0  0  0  0  0  0  0  0  # atno 8008 bound_to 7997
  154.4534  140.1960  156.0399 H   0  0  0  0  0  0  0  0  0  0  0  0  # atno 8009 bound_to 7997
  156.0750  140.3255  155.7626 H   0  0  0  0  0  0  0  0  0  0  0  0  # atno 8010 bound_to 7997
  139.9904  143.5647  152.2344 H   0  0  0  0  0  0  0  0  0  0  0  0  # atno 10167 bound_to 10162
  157.6953  131.0317  150.3362 H   0  0  0  0  0  0  0  0  0  0  0  0  # atno 10718 bound_to 10713
  153.0503  135.5074  154.7849 H   0  0  0  0  0  0  0  0  0  0  0  0  # atno 10763 bound_to 10752
  154.6717  135.2954  154.9735 H   0  0  0  0  0  0  0  0  0  0  0  0  # atno 10764 bound_to 10752
  154.0551  135.6698  153.4857 H   0  0  0  0  0  0  0  0  0  0  0  0  # atno 10765 bound_to 10752
  140.3780  134.6971  157.4434 H   0  0  0  0  0  0  0  0  0  0  0  0  # atno 11005 bound_to 11000
  145.6895  139.1636  143.2655 LP  0  0  0  0  0  0  0  0  0  0  0  0  # atno 17320 bound_to 7965
  146.1493  140.6948  142.9330 LP  0  0  0  0  0  0  0  0  0  0  0  0  # atno 17321 bound_to 7965
  139.6344  144.7648  151.2468 LP  0  0  0  0  0  0  0  0  0  0  0  0  # atno 17342 bound_to 10162
  140.7457  143.6423  150.8323 LP  0  0  0  0  0  0  0  0  0  0  0  0  # atno 17343 bound_to 10162
  156.3829  130.3884  149.7088 LP  0  0  0  0  0  0  0  0  0  0  0  0  # atno 17370 bound_to 10713
  156.4464  130.7885  151.2907 LP  0  0  0  0  0  0  0  0  0  0  0  0  # atno 17371 bound_to 10713
  140.0500  134.6144  155.8873 LP  0  0  0  0  0  0  0  0  0  0  0  0  # atno 17394 bound_to 11000
  141.1933  133.6578  156.5540 LP  0  0  0  0  0  0  0  0  0  0  0  0  # atno 17395 bound_to 11000

$$$$
