AV-unprocessed.smi:893|AV-procd|sdf|4068|dock2
  -GOLD-   22720 1553D 1   1.00000     0.00000
 Structure written by MMmdl.
 26 27  0  0  0  0  0  0  0  0  2 V2000
  149.6842  138.3843  157.5577 C   0  0  0  0  0  0  0  0  0  0  0  0
  150.1630  139.6457  158.2940 C   0  0  0  0  0  0  0  0  0  0  0  0
  151.0577  140.5780  157.4405 C   0  0  1  0  0  0  0  0  0  0  0  0
  151.4753  141.8302  158.1921 C   0  0  0  0  0  0  0  0  0  0  0  0
  152.2399  141.9327  159.3923 C   0  0  0  0  0  0  0  0  0  0  0  0
  152.4263  143.1819  159.7858 N   0  0  0  0  0  0  0  0  0  0  0  0
  151.7942  143.9229  158.8544 N   0  0  0  0  0  0  0  0  0  0  0  0
  151.7992  145.3656  158.9664 C   0  0  0  0  0  0  0  0  0  0  0  0
  151.2108  143.1373  157.8849 C   0  0  0  0  0  0  0  0  0  0  0  0
  152.1937  139.8499  156.9108 N   0  0  0  0  0  0  0  0  0  0  0  0
  152.1899  139.8381  155.5791 C   0  0  0  0  0  0  0  0  0  0  0  0
  153.0761  139.2808  154.9358 O   0  0  0  0  0  0  0  0  0  0  0  0
  151.1129  140.4992  155.1121 N   0  5  0  0  0  0  0  0  0  0  0  0
  150.3627  140.9738  156.1306 C   0  0  0  0  0  0  0  0  0  0  0  0
  149.3064  141.6055  156.1082 O   0  0  0  0  0  0  0  0  0  0  0  0
  149.0658  137.7693  158.2114 H   0  0  0  0  0  0  0  0  0  0  0  0
  150.5229  137.7718  157.2267 H   0  0  0  0  0  0  0  0  0  0  0  0
  149.0865  138.6369  156.6816 H   0  0  0  0  0  0  0  0  0  0  0  0
  149.2875  140.1949  158.6449 H   0  0  0  0  0  0  0  0  0  0  0  0
  150.7017  139.3425  159.1930 H   0  0  0  0  0  0  0  0  0  0  0  0
  152.6634  141.1373  159.9878 H   0  0  0  0  0  0  0  0  0  0  0  0
  151.2611  145.8079  158.1275 H   0  0  0  0  0  0  0  0  0  0  0  0
  152.8262  145.7324  158.9614 H   0  0  0  0  0  0  0  0  0  0  0  0
  151.3154  145.6652  159.8965 H   0  0  0  0  0  0  0  0  0  0  0  0
  150.6623  143.5658  157.0589 H   0  0  0  0  0  0  0  0  0  0  0  0
  152.8976  139.4176  157.4907 H   0  0  0  0  0  0  0  0  0  0  0  0
  1  2  1  0  0  0  0
  1 16  1  0  0  0  0
  1 17  1  0  0  0  0
  1 18  1  0  0  0  0
  2  3  1  0  0  0  0
  2 19  1  0  0  0  0
  2 20  1  0  0  0  0
  3 14  1  0  0  0  0
  3  4  1  0  0  0  0
  3 10  1  0  0  0  0
  4  9  2  0  0  0  0
  4  5  1  0  0  0  0
  5  6  2  0  0  0  0
  5 21  1  0  0  0  0
  6  7  1  0  0  0  0
  7  8  1  0  0  0  0
  7  9  1  0  0  0  0
  8 22  1  0  0  0  0
  8 23  1  0  0  0  0
  8 24  1  0  0  0  0
  9 25  1  0  0  0  0
 10 11  1  0  0  0  0
 10 26  1  0  0  0  0
 11 12  2  0  0  0  0
 11 13  1  0  0  0  0
 13 14  1  0  0  0  0
 14 15  2  0  0  0  0
M  CHG  1  13  -1
M  END
> <s_m_source_file>
AV-unprocessed.smi

> <i_m_source_file_index>
893

> <i_lp_mmshare_version>
43012

> <i_f3d_flags>
0

> <s_epik_input>
Tz1DMVtOSF1DKD1PKVtOSF1bQ0BAXTEoW0NIMl1bQ0gzXSljMltjSF1ubihbQ0gzXSlbY0hdMg==

> <s_epik_cmdline>
J2VwaWtfcHl0aG9uJywgJy1waCcsICc3LjAnLCAnLXRuJywgJzgnLCAnLW1hJywgJzIwMCcsICctbWV0YWxfYmluZGluZycsICctaW1hZScsICc8aW5maWxlLm1hZT4nLCAnLW9tYWUnLCAnPG91dGZpbGUubWFlPic=

> <r_lp_tautomer_probability>
1

> <r_epik_Ionization_Penalty>
1.92579

> <r_epik_Ionization_Penalty_Charging>
1.92573

> <r_epik_Ionization_Penalty_Neutral>
5.85665e-05

> <r_epik_State_Penalty>
2.04887

> <r_epik_Charging_Adjusted_Penalty>
3.97461

> <i_epik_Tot_Q>
-1

> <i_epik_Tot_abs_Q>
1

> <r_epik_Metal_State_Penalty>
0.530533

> <b_epik_Metal_Only>
0

> <s_lp_Force_Field>
OPLS_2005

> <r_lp_Energy>
5.94643

> <b_lp_Chiralities_Consistent>
1

> <s_lp_Variant>
AV-unprocessed.smi:893-3

> <Gold.Version>
5.8.1

> <Gold.Id.Protein>
6NUR|6NUR_protein|mol2

> <Gold.PLP.Fitness>
36.9216

> <Gold.PLP.PLP>
-28.4371

> <Gold.PLP.part.hbond>
-2.2474

> <Gold.PLP.part.metal>
0.0000

> <Gold.PLP.part.buried>
-4.3537

> <Gold.PLP.part.nonpolar>
-21.9634

> <Gold.PLP.part.repulsive>
0.2924

> <Gold.PLP.ligand.clash>
0.0000

> <Gold.PLP.ligand.torsion>
0.0645

> <Gold.PLP.Chemscore.Hbond>
1.8420

> <Gold.PLP.Chemscore.CHOScore>
0.9875

> <Gold.PLP.Chemscore.Metal>
0.0000

> <Gold.Chemscore.Hbonds>
donor molecule, donor type, donor heavy atom, donor atom, acceptor molecule, acceptor atom, score
      P1  H  7989  7998       L1    13  0.98
      P1  H  7997  8009       L1    12  0.85
      L1  C     9    25       P1  8028  1.00

> <Gold.PLP.Chemscore.Internal.Correction>
0.1250

> <Gold.Rescore>
     Score         DG    S(hbond)    S(metal)    S(lipo)     H(rot)  DE(clash)    DE(int)     intcor
     11.05     -12.10       1.00        0.00      56.11       1.28       0.01       1.04       ----

> <Gold.Chemscore.Fitness>
11.0488

> <Gold.Chemscore.DG>
-12.0995

> <Gold.Chemscore.ZeroCoef>
-5.4800

> <Gold.Chemscore.Hbond>
0.9980

> <Gold.Chemscore.Metal>
0.0000

> <Gold.Chemscore.Lipo>
56.1069

> <Gold.Chemscore.Internal_Hbond>
0.0000

> <Gold.Chemscore.DEClash>
0.0141

> <Gold.Chemscore.DEInternal>
1.0366

> <Gold.Chemscore.Rot>
1.2805

> <Gold.Chemscore.Internal.Correction>
   9.000000E+99

> <Gold.Chemscore.Hbonds>
donor molecule, donor type, donor heavy atom, donor atom, acceptor molecule, acceptor atom, score
      P1  H  7989  7998       L1    13  0.28
      P1  H  7997  8009       L1    12  0.15

> <Gold.Chemscore.Hbond.Weighted>
-3.3332

> <Gold.Chemscore.Metal.Weighted>
-0.0000

> <Gold.Chemscore.Lipo.Weighted>
-6.5645

> <Gold.Chemscore.Internal_Hbond.Weighted>
0.0000

> <Gold.Chemscore.DEClash.Weighted>
0.0141

> <Gold.Chemscore.DEInternal.Weighted>
1.0366

> <Gold.Chemscore.Rot.Weighted>
3.2782

> <Gold.Chemscore.Internal.Correction.Weighted>
   9.000000E+99

> <Gold.Protein.RotatedTorsions>
[ 6907 6896 6895 6894 ] final -129.10 input  -60.11 | X-H torsion
[ 7974 7965 7964 7962 ] final  -15.88 input  175.53 | X-H torsion
[ 8008 7997 7996 7995 ] final -124.78 input   59.86 | X-H torsion
[ 10167 10162 10161 10158 ] final  -37.15 input  -65.29 | X-H torsion
[ 10718 10713 10712 10709 ] final  168.47 input   66.30 | X-H torsion
[ 10763 10752 10751 10750 ] final    1.83 input  -60.55 | X-H torsion
[ 11005 11000 10999 10996 ] final  -88.36 input  -57.11 | X-H torsion

> <Gold.Protein.ActiveResidues>
 VAL166  LYS551  ARG553  GLY616  TRP617  ASP618  TYR619  PRO620  LYS621  CYS622 
 ASP623  PHE694  ASN695  SER759  ASP760  ASP761  ALA762  ILE779  LEU786  VAL792 
 PHE793  MET794  SER795  GLU796  ALA797  LYS798  CYS799  TRP800  GLU811  SER814 

> <Gold.Protein.RotatedAtoms>
  150.9251  133.6834  159.2823 H   0  0  0  0  0  0  0  0  0  0  0  0  # atno 6907 bound_to 6896
  151.4275  135.1004  159.9642 H   0  0  0  0  0  0  0  0  0  0  0  0  # atno 6908 bound_to 6896
  152.4999  133.8689  159.7343 H   0  0  0  0  0  0  0  0  0  0  0  0  # atno 6909 bound_to 6896
  146.2012  140.3556  142.8422 H   0  0  0  0  0  0  0  0  0  0  0  0  # atno 7974 bound_to 7965
  155.2025  140.0416  157.2920 H   0  0  0  0  0  0  0  0  0  0  0  0  # atno 8008 bound_to 7997
  154.6065  140.2465  155.7696 H   0  0  0  0  0  0  0  0  0  0  0  0  # atno 8009 bound_to 7997
  156.2353  140.2923  156.0306 H   0  0  0  0  0  0  0  0  0  0  0  0  # atno 8010 bound_to 7997
  140.7125  143.3361  151.2460 H   0  0  0  0  0  0  0  0  0  0  0  0  # atno 10167 bound_to 10162
  157.0366  131.0274  151.2727 H   0  0  0  0  0  0  0  0  0  0  0  0  # atno 10718 bound_to 10713
  153.3031  135.6957  153.7185 H   0  0  0  0  0  0  0  0  0  0  0  0  # atno 10763 bound_to 10752
  153.6091  135.3448  155.2973 H   0  0  0  0  0  0  0  0  0  0  0  0  # atno 10764 bound_to 10752
  154.8556  135.4359  154.2148 H   0  0  0  0  0  0  0  0  0  0  0  0  # atno 10765 bound_to 10752
  141.1603  133.7565  156.9441 H   0  0  0  0  0  0  0  0  0  0  0  0  # atno 11005 bound_to 11000
  144.8689  140.7244  143.6059 LP  0  0  0  0  0  0  0  0  0  0  0  0  # atno 17320 bound_to 7965
  145.3475  139.1715  143.4452 LP  0  0  0  0  0  0  0  0  0  0  0  0  # atno 17321 bound_to 7965
  139.6856  143.9779  152.2832 LP  0  0  0  0  0  0  0  0  0  0  0  0  # atno 17342 bound_to 10162
  139.9423  144.6673  150.8254 LP  0  0  0  0  0  0  0  0  0  0  0  0  # atno 17343 bound_to 10162
  157.5137  130.7954  149.7732 LP  0  0  0  0  0  0  0  0  0  0  0  0  # atno 17370 bound_to 10713
  156.0052  130.3859  150.2458 LP  0  0  0  0  0  0  0  0  0  0  0  0  # atno 17371 bound_to 10713
  140.1302  134.9361  157.2326 LP  0  0  0  0  0  0  0  0  0  0  0  0  # atno 17394 bound_to 11000
  140.2963  134.3183  155.7301 LP  0  0  0  0  0  0  0  0  0  0  0  0  # atno 17395 bound_to 11000

$$$$
