AV-unprocessed.smi:3305|AV-procd|sdf|12699|dock9
  -GOLD-   2272019 33D 1   1.00000     0.00000
 Structure written by MMmdl.
 32 33  0  0  0  0  0  0  0  0  1 V2000
  153.3017  142.7029  163.0678 C   0  0  0  0  0  0  0  0  0  0  0  0
  152.7631  143.1066  161.7316 C   0  0  0  0  0  0  0  0  0  0  0  0
  152.1549  144.2931  161.4055 C   0  0  0  0  0  0  0  0  0  0  0  0
  151.6585  144.3318  159.7351 S   0  0  0  0  0  0  0  0  0  0  0  0
  152.3188  142.7135  159.5337 C   0  0  0  0  0  0  0  0  0  0  0  0
  152.2293  141.9413  158.2555 C   0  0  0  0  0  0  0  0  0  0  0  0
  150.7931  141.5216  157.8768 C   0  0  0  0  0  0  0  0  0  0  0  0
  150.7134  140.8840  156.5659 N   0  0  0  0  0  0  0  0  0  0  0  0
  151.6221  140.0347  156.0632 C   0  0  0  0  0  0  0  0  0  0  0  0
  152.6799  139.7643  156.6329 O   0  0  0  0  0  0  0  0  0  0  0  0
  151.2617  139.3716  154.7245 C   0  0  2  0  0  0  0  0  0  0  0  0
  150.0224  138.4787  154.8491 C   0  0  0  0  0  0  0  0  0  0  0  0
  150.5333  137.0611  154.5813 C   0  0  0  0  0  0  0  0  0  0  0  0
  151.9347  137.1425  154.7802 O   0  0  0  0  0  0  0  0  0  0  0  0
  152.3470  138.3933  154.2547 C   0  0  0  0  0  0  0  0  0  0  0  0
  152.8518  142.2205  160.6556 N   0  0  0  0  0  0  0  0  0  0  0  0
  153.1764  143.4956  163.8055 H   0  0  0  0  0  0  0  0  0  0  0  0
  154.3653  142.4710  163.0098 H   0  0  0  0  0  0  0  0  0  0  0  0
  152.7899  141.8173  163.4452 H   0  0  0  0  0  0  0  0  0  0  0  0
  151.9628  145.1412  162.0459 H   0  0  0  0  0  0  0  0  0  0  0  0
  152.6614  142.5409  157.4543 H   0  0  0  0  0  0  0  0  0  0  0  0
  152.8604  141.0560  158.3449 H   0  0  0  0  0  0  0  0  0  0  0  0
  150.4265  140.7996  158.6067 H   0  0  0  0  0  0  0  0  0  0  0  0
  150.1189  142.3780  157.9243 H   0  0  0  0  0  0  0  0  0  0  0  0
  149.8741  141.0502  156.0298 H   0  0  0  0  0  0  0  0  0  0  0  0
  151.1087  140.1441  153.9692 H   0  0  0  0  0  0  0  0  0  0  0  0
  149.5717  138.5350  155.8417 H   0  0  0  0  0  0  0  0  0  0  0  0
  149.2494  138.7584  154.1328 H   0  0  0  0  0  0  0  0  0  0  0  0
  150.0790  136.3195  155.2384 H   0  0  0  0  0  0  0  0  0  0  0  0
  150.3341  136.7695  153.5489 H   0  0  0  0  0  0  0  0  0  0  0  0
  152.3731  138.3419  153.1651 H   0  0  0  0  0  0  0  0  0  0  0  0
  153.3492  138.6522  154.5990 H   0  0  0  0  0  0  0  0  0  0  0  0
  1  2  1  0  0  0  0
  1 17  1  0  0  0  0
  1 18  1  0  0  0  0
  1 19  1  0  0  0  0
  2 16  1  0  0  0  0
  2  3  2  0  0  0  0
  3  4  1  0  0  0  0
  3 20  1  0  0  0  0
  4  5  1  0  0  0  0
  5  6  1  0  0  0  0
  5 16  2  0  0  0  0
  6  7  1  0  0  0  0
  6 21  1  0  0  0  0
  6 22  1  0  0  0  0
  7  8  1  0  0  0  0
  7 23  1  0  0  0  0
  7 24  1  0  0  0  0
  8  9  1  0  0  0  0
  8 25  1  0  0  0  0
  9 10  2  0  0  0  0
  9 11  1  0  0  0  0
 11 15  1  0  0  0  0
 11 12  1  0  0  0  0
 11 26  1  0  0  0  0
 12 13  1  0  0  0  0
 12 27  1  0  0  0  0
 12 28  1  0  0  0  0
 13 14  1  0  0  0  0
 13 29  1  0  0  0  0
 13 30  1  0  0  0  0
 14 15  1  0  0  0  0
 15 31  1  0  0  0  0
 15 32  1  0  0  0  0
M  END
> <s_m_source_file>
AV-unprocessed.smi

> <i_m_source_file_index>
3305

> <i_lp_mmshare_version>
43012

> <i_f3d_flags>
0

> <s_epik_input>
W0NIM11jMVtjSF1zYyhuMSlbQ0gyXVtDSDJdW05IXUMoPU8pW0NAQEhdMltDSDJdW0NIMl1PW0NIMl0y

> <s_epik_cmdline>
J2VwaWtfcHl0aG9uJywgJy1waCcsICc3LjAnLCAnLXRuJywgJzgnLCAnLW1hJywgJzIwMCcsICctbWV0YWxfYmluZGluZycsICctaW1hZScsICc8aW5maWxlLm1hZT4nLCAnLW9tYWUnLCAnPG91dGZpbGUubWFlPic=

> <r_epik_Ionization_Penalty>
0.00102754

> <r_epik_Ionization_Penalty_Charging>
0

> <r_epik_Ionization_Penalty_Neutral>
0.00102754

> <r_epik_State_Penalty>
0.000671034

> <r_epik_Charging_Adjusted_Penalty>
0.000671034

> <i_epik_Tot_Q>
0

> <i_epik_Tot_abs_Q>
0

> <r_epik_Metal_State_Penalty>
-0

> <b_epik_Metal_Only>
0

> <s_lp_Force_Field>
OPLS_2005

> <r_lp_Energy>
8.47785

> <b_lp_Chiralities_Consistent>
1

> <s_lp_Variant>
AV-unprocessed.smi:3305-1

> <Gold.Version>
5.8.1

> <Gold.Id.Protein>
6NUR|6NUR_protein|mol2

> <Gold.PLP.Fitness>
44.0680

> <Gold.PLP.PLP>
-38.5695

> <Gold.PLP.part.hbond>
-2.0000

> <Gold.PLP.part.metal>
0.0000

> <Gold.PLP.part.buried>
-5.4343

> <Gold.PLP.part.nonpolar>
-31.3051

> <Gold.PLP.part.repulsive>
0.1829

> <Gold.PLP.ligand.clash>
0.0000

> <Gold.PLP.ligand.torsion>
0.2584

> <Gold.PLP.Chemscore.Hbond>
1.9920

> <Gold.PLP.Chemscore.CHOScore>
0.0000

> <Gold.PLP.Chemscore.Metal>
0.0000

> <Gold.Chemscore.Hbonds>
donor molecule, donor type, donor heavy atom, donor atom, acceptor molecule, acceptor atom, score
      P1  H  7997  8009       L1    10  1.00
      P1  H 10752 10763       L1    14  0.96

> <Gold.PLP.Chemscore.Internal.Correction>
0.0394

> <Gold.Rescore>
     Score         DG    S(hbond)    S(metal)    S(lipo)     H(rot)  DE(clash)    DE(int)     intcor
     18.13     -20.03       1.87        0.00     104.12       1.52       0.22       1.68       ----

> <Gold.Chemscore.Fitness>
18.1288

> <Gold.Chemscore.DG>
-20.0263

> <Gold.Chemscore.ZeroCoef>
-5.4800

> <Gold.Chemscore.Hbond>
1.8698

> <Gold.Chemscore.Metal>
0.0000

> <Gold.Chemscore.Lipo>
104.1177

> <Gold.Chemscore.Internal_Hbond>
0.0000

> <Gold.Chemscore.DEClash>
0.2202

> <Gold.Chemscore.DEInternal>
1.6773

> <Gold.Chemscore.Rot>
1.5159

> <Gold.Chemscore.Internal.Correction>
   9.000000E+99

> <Gold.Chemscore.Hbonds>
donor molecule, donor type, donor heavy atom, donor atom, acceptor molecule, acceptor atom, score
      P1  H  7997  8009       L1    10  1.00
      P1  H 10752 10763       L1    14  0.87

> <Gold.Chemscore.Hbond.Weighted>
-6.2452

> <Gold.Chemscore.Metal.Weighted>
-0.0000

> <Gold.Chemscore.Lipo.Weighted>
-12.1818

> <Gold.Chemscore.Internal_Hbond.Weighted>
0.0000

> <Gold.Chemscore.DEClash.Weighted>
0.2202

> <Gold.Chemscore.DEInternal.Weighted>
1.6773

> <Gold.Chemscore.Rot.Weighted>
3.8807

> <Gold.Chemscore.Internal.Correction.Weighted>
   9.000000E+99

> <Gold.Protein.RotatedTorsions>
[ 6907 6896 6895 6894 ] final   38.60 input  -60.11 | X-H torsion
[ 7974 7965 7964 7962 ] final  140.99 input  175.53 | X-H torsion
[ 8008 7997 7996 7995 ] final -167.09 input   59.86 | X-H torsion
[ 10167 10162 10161 10158 ] final   98.57 input  -65.29 | X-H torsion
[ 10718 10713 10712 10709 ] final  161.12 input   66.30 | X-H torsion
[ 10763 10752 10751 10750 ] final   56.71 input  -60.55 | X-H torsion
[ 11005 11000 10999 10996 ] final   83.44 input  -57.11 | X-H torsion

> <Gold.Protein.ActiveResidues>
 VAL166  LYS551  ARG553  GLY616  TRP617  ASP618  TYR619  PRO620  LYS621  CYS622 
 ASP623  PHE694  ASN695  SER759  ASP760  ASP761  ALA762  ILE779  LEU786  VAL792 
 PHE793  MET794  SER795  GLU796  ALA797  LYS798  CYS799  TRP800  GLU811  SER814 

> <Gold.Protein.RotatedAtoms>
  152.1586  134.8931  160.0542 H   0  0  0  0  0  0  0  0  0  0  0  0  # atno 6907 bound_to 6896
  151.9935  133.3794  159.4162 H   0  0  0  0  0  0  0  0  0  0  0  0  # atno 6908 bound_to 6896
  150.6885  134.3833  159.5088 H   0  0  0  0  0  0  0  0  0  0  0  0  # atno 6909 bound_to 6896
  144.9136  139.5260  143.5697 H   0  0  0  0  0  0  0  0  0  0  0  0  # atno 7974 bound_to 7965
  155.8728  140.0996  157.1538 H   0  0  0  0  0  0  0  0  0  0  0  0  # atno 8008 bound_to 7997
  154.3998  140.1344  156.4163 H   0  0  0  0  0  0  0  0  0  0  0  0  # atno 8009 bound_to 7997
  155.7731  140.3460  155.5260 H   0  0  0  0  0  0  0  0  0  0  0  0  # atno 8010 bound_to 7997
  139.7697  144.6927  151.0174 H   0  0  0  0  0  0  0  0  0  0  0  0  # atno 10167 bound_to 10162
  157.1409  131.0540  151.2327 H   0  0  0  0  0  0  0  0  0  0  0  0  # atno 10718 bound_to 10713
  152.9836  135.5667  154.5273 H   0  0  0  0  0  0  0  0  0  0  0  0  # atno 10763 bound_to 10752
  154.4750  135.2786  155.1616 H   0  0  0  0  0  0  0  0  0  0  0  0  # atno 10764 bound_to 10752
  154.3148  135.6281  153.5534 H   0  0  0  0  0  0  0  0  0  0  0  0  # atno 10765 bound_to 10752
  139.9031  134.8144  156.2309 H   0  0  0  0  0  0  0  0  0  0  0  0  # atno 11005 bound_to 11000
  146.3171  139.7962  142.8975 LP  0  0  0  0  0  0  0  0  0  0  0  0  # atno 17320 bound_to 7965
  145.3412  141.0288  143.3391 LP  0  0  0  0  0  0  0  0  0  0  0  0  # atno 17321 bound_to 7965
  140.7813  143.4603  151.0287 LP  0  0  0  0  0  0  0  0  0  0  0  0  # atno 17342 bound_to 10162
  139.8287  143.7721  152.3179 LP  0  0  0  0  0  0  0  0  0  0  0  0  # atno 17343 bound_to 10162
  157.4308  130.7489  149.6988 LP  0  0  0  0  0  0  0  0  0  0  0  0  # atno 17370 bound_to 10713
  155.9789  130.4046  150.3621 LP  0  0  0  0  0  0  0  0  0  0  0  0  # atno 17371 bound_to 10713
  141.0346  133.6970  156.1489 LP  0  0  0  0  0  0  0  0  0  0  0  0  # atno 17394 bound_to 11000
  140.7046  134.4527  157.5584 LP  0  0  0  0  0  0  0  0  0  0  0  0  # atno 17395 bound_to 11000

$$$$
