AV-unprocessed.smi:1430|AV-procd|sdf|5825|dock6
  -GOLD-   22720 5483D 1   1.00000     0.00000
 Structure written by MMmdl.
 47 48  0  0  0  0  0  0  0  0  2 V2000
  151.9040  142.4219  159.0080 C   0  0  0  0  0  0  0  0  0  0  0  0
  152.2649  141.2531  158.2803 O   0  0  0  0  0  0  0  0  0  0  0  0
  151.4989  140.8979  157.1891 C   0  0  0  0  0  0  0  0  0  0  0  0
  150.2321  141.4941  157.0315 C   0  0  0  0  0  0  0  0  0  0  0  0
  149.4438  141.1376  155.9206 C   0  0  0  0  0  0  0  0  0  0  0  0
  149.9532  140.1962  154.9942 C   0  0  0  0  0  0  0  0  0  0  0  0
  149.2522  139.7366  153.8463 N   0  0  0  0  0  0  0  0  0  0  0  0
  147.9443  139.4566  153.7167 C   0  0  0  0  0  0  0  0  0  0  0  0
  147.0917  139.6061  154.5908 O   0  0  0  0  0  0  0  0  0  0  0  0
  147.6682  138.9899  152.4906 N   0  0  0  0  0  0  0  0  0  0  0  0
  146.3428  138.5969  152.0160 C   0  0  0  0  0  0  0  0  0  0  0  0
  145.6811  137.4991  152.8784 C   0  0  0  0  0  0  0  0  0  0  0  0
  145.9026  136.1277  152.3540 N   0  3  1  0  0  0  0  0  0  0  0  0
  146.0919  135.1282  153.4306 C   0  0  0  0  0  0  0  0  0  0  0  0
  146.3973  133.7436  152.8289 C   0  0  1  0  0  0  0  0  0  0  0  0
  146.5251  132.6607  153.9058 C   0  0  0  0  0  0  0  0  0  0  0  0
  145.3399  133.3755  151.9493 O   0  0  0  0  0  0  0  0  0  0  0  0
  145.1931  134.2792  150.8588 C   0  0  1  0  0  0  0  0  0  0  0  0
  144.0963  133.7403  149.9339 C   0  0  0  0  0  0  0  0  0  0  0  0
  144.8548  135.6783  151.4067 C   0  0  0  0  0  0  0  0  0  0  0  0
  151.2276  139.6490  155.2500 C   0  0  0  0  0  0  0  0  0  0  0  0
  151.9879  139.9864  156.3124 N   0  0  0  0  0  0  0  0  0  0  0  0
  152.5995  142.5601  159.8357 H   0  0  0  0  0  0  0  0  0  0  0  0
  150.9015  142.3353  159.4297 H   0  0  0  0  0  0  0  0  0  0  0  0
  151.9534  143.3137  158.3819 H   0  0  0  0  0  0  0  0  0  0  0  0
  149.8685  142.2103  157.7537 H   0  0  0  0  0  0  0  0  0  0  0  0
  148.4663  141.5809  155.8145 H   0  0  0  0  0  0  0  0  0  0  0  0
  149.8117  139.6431  153.0110 H   0  0  0  0  0  0  0  0  0  0  0  0
  148.4281  138.9152  151.8299 H   0  0  0  0  0  0  0  0  0  0  0  0
  145.6953  139.4734  151.9637 H   0  0  0  0  0  0  0  0  0  0  0  0
  146.4532  138.2446  150.9904 H   0  0  0  0  0  0  0  0  0  0  0  0
  146.1019  137.5583  153.8829 H   0  0  0  0  0  0  0  0  0  0  0  0
  144.6131  137.6918  152.9891 H   0  0  0  0  0  0  0  0  0  0  0  0
  146.9141  135.4371  154.0776 H   0  0  0  0  0  0  0  0  0  0  0  0
  145.1940  135.0850  154.0494 H   0  0  0  0  0  0  0  0  0  0  0  0
  147.3325  133.7852  152.2674 H   0  0  0  0  0  0  0  0  0  0  0  0
  147.3318  132.8924  154.6016 H   0  0  0  0  0  0  0  0  0  0  0  0
  146.7414  131.6901  153.4588 H   0  0  0  0  0  0  0  0  0  0  0  0
  145.6039  132.5643  154.4811 H   0  0  0  0  0  0  0  0  0  0  0  0
  146.1288  134.3208  150.2985 H   0  0  0  0  0  0  0  0  0  0  0  0
  143.9482  134.3963  149.0757 H   0  0  0  0  0  0  0  0  0  0  0  0
  143.1440  133.6551  150.4582 H   0  0  0  0  0  0  0  0  0  0  0  0
  144.3565  132.7518  149.5543 H   0  0  0  0  0  0  0  0  0  0  0  0
  143.8882  135.6627  151.9131 H   0  0  0  0  0  0  0  0  0  0  0  0
  144.7720  136.3821  150.5787 H   0  0  0  0  0  0  0  0  0  0  0  0
  151.6546  138.9175  154.5794 H   0  0  0  0  0  0  0  0  0  0  0  0
  146.7724  136.1566  151.8412 H   0  0  0  0  0  0  0  0  0  0  0  0
  1  2  1  0  0  0  0
  1 23  1  0  0  0  0
  1 24  1  0  0  0  0
  1 25  1  0  0  0  0
  2  3  1  0  0  0  0
  3 22  1  0  0  0  0
  3  4  2  0  0  0  0
  4  5  1  0  0  0  0
  4 26  1  0  0  0  0
  5  6  2  0  0  0  0
  5 27  1  0  0  0  0
  6  7  1  0  0  0  0
  6 21  1  0  0  0  0
  7  8  1  0  0  0  0
  7 28  1  0  0  0  0
  8  9  2  0  0  0  0
  8 10  1  0  0  0  0
 10 11  1  0  0  0  0
 10 29  1  0  0  0  0
 11 12  1  0  0  0  0
 11 30  1  0  0  0  0
 11 31  1  0  0  0  0
 12 13  1  0  0  0  0
 12 32  1  0  0  0  0
 12 33  1  0  0  0  0
 13 20  1  0  0  0  0
 13 14  1  0  0  0  0
 13 47  1  0  0  0  0
 14 15  1  0  0  0  0
 14 34  1  0  0  0  0
 14 35  1  0  0  0  0
 15 16  1  0  0  0  0
 15 17  1  0  0  0  0
 15 36  1  0  0  0  0
 16 37  1  0  0  0  0
 16 38  1  0  0  0  0
 16 39  1  0  0  0  0
 17 18  1  0  0  0  0
 18 19  1  0  0  0  0
 18 20  1  0  0  0  0
 18 40  1  0  0  0  0
 19 41  1  0  0  0  0
 19 42  1  0  0  0  0
 19 43  1  0  0  0  0
 20 44  1  0  0  0  0
 20 45  1  0  0  0  0
 21 22  2  0  0  0  0
 21 46  1  0  0  0  0
M  CHG  1  13   1
M  END
> <s_m_source_file>
AV-unprocessed.smi

> <i_m_source_file_index>
1430

> <i_lp_mmshare_version>
43012

> <i_f3d_flags>
0

> <s_epik_input>
W0NIM11PYzFbY0hdW2NIXWMoW2NIXW4xKVtOSF1DKD1PKVtOSF1bQ0gyXVtDSDJdTjJbQ0gyXVtDQEBIXShbQ0gzXSlPW0NAQEhdKFtDSDNdKVtDSDJdMg==

> <s_epik_cmdline>
J2VwaWtfcHl0aG9uJywgJy1waCcsICc3LjAnLCAnLXRuJywgJzgnLCAnLW1hJywgJzIwMCcsICctbWV0YWxfYmluZGluZycsICctaW1hZScsICc8aW5maWxlLm1hZT4nLCAnLW9tYWUnLCAnPG91dGZpbGUubWFlPic=

> <r_lp_tautomer_probability>
1

> <r_epik_Ionization_Penalty>
0.602607

> <r_epik_Ionization_Penalty_Charging>
0.602531

> <r_epik_Ionization_Penalty_Neutral>
7.66983e-05

> <r_epik_State_Penalty>
0.617039

> <r_epik_Charging_Adjusted_Penalty>
1.21957

> <i_epik_Tot_Q>
1

> <i_epik_Tot_abs_Q>
1

> <r_epik_Metal_State_Penalty>
0.617043

> <b_epik_Metal_Only>
0

> <s_lp_Force_Field>
OPLS_2005

> <r_lp_Energy>
23.5338

> <b_lp_Chiralities_Consistent>
1

> <s_lp_Variant>
AV-unprocessed.smi:1430-4

> <Gold.Version>
5.8.1

> <Gold.Id.Protein>
6NUR|6NUR_protein|mol2

> <Gold.PLP.Fitness>
43.5491

> <Gold.PLP.PLP>
-35.6329

> <Gold.PLP.part.hbond>
-3.9095

> <Gold.PLP.part.metal>
0.0000

> <Gold.PLP.part.buried>
-3.3891

> <Gold.PLP.part.nonpolar>
-28.8018

> <Gold.PLP.part.repulsive>
0.4263

> <Gold.PLP.ligand.clash>
0.0000

> <Gold.PLP.ligand.torsion>
1.1743

> <Gold.PLP.Chemscore.Hbond>
3.4080

> <Gold.PLP.Chemscore.CHOScore>
0.0000

> <Gold.PLP.Chemscore.Metal>
0.0000

> <Gold.Chemscore.Hbonds>
donor molecule, donor type, donor heavy atom, donor atom, acceptor molecule, acceptor atom, score
      L1  H     7    28       P1  7957  0.75
      L1  H    10    29       P1  7957  0.72
      L1  H    13    47       P1  7948  1.37

> <Gold.PLP.Chemscore.Internal.Correction>
0.0407

> <Gold.Rescore>
     Score         DG    S(hbond)    S(metal)    S(lipo)     H(rot)  DE(clash)    DE(int)     intcor
     17.88     -18.98       2.70        0.00      76.95       1.76       0.09       1.01       ----

> <Gold.Chemscore.Fitness>
17.8829

> <Gold.Chemscore.DG>
-18.9807

> <Gold.Chemscore.ZeroCoef>
-5.4800

> <Gold.Chemscore.Hbond>
2.6960

> <Gold.Chemscore.Metal>
0.0000

> <Gold.Chemscore.Lipo>
76.9508

> <Gold.Chemscore.Internal_Hbond>
0.0000

> <Gold.Chemscore.DEClash>
0.0916

> <Gold.Chemscore.DEInternal>
1.0062

> <Gold.Chemscore.Rot>
1.7606

> <Gold.Chemscore.Internal.Correction>
   9.000000E+99

> <Gold.Chemscore.Hbonds>
donor molecule, donor type, donor heavy atom, donor atom, acceptor molecule, acceptor atom, score
      L1  H     7    28       P1  7957  0.74
      L1  H    10    29       P1  7957  0.63
      L1  H    13    47       P1  7948  0.65

> <Gold.Chemscore.Hbond.Weighted>
-9.0047

> <Gold.Chemscore.Metal.Weighted>
-0.0000

> <Gold.Chemscore.Lipo.Weighted>
-9.0032

> <Gold.Chemscore.Internal_Hbond.Weighted>
0.0000

> <Gold.Chemscore.DEClash.Weighted>
0.0916

> <Gold.Chemscore.DEInternal.Weighted>
1.0062

> <Gold.Chemscore.Rot.Weighted>
4.5072

> <Gold.Chemscore.Internal.Correction.Weighted>
   9.000000E+99

> <Gold.Protein.RotatedTorsions>
[ 6907 6896 6895 6894 ] final   44.07 input  -60.11 | X-H torsion
[ 7974 7965 7964 7962 ] final   12.67 input  175.53 | X-H torsion
[ 8008 7997 7996 7995 ] final  -81.89 input   59.86 | X-H torsion
[ 10167 10162 10161 10158 ] final  115.12 input  -65.29 | X-H torsion
[ 10718 10713 10712 10709 ] final  -27.13 input   66.30 | X-H torsion
[ 10763 10752 10751 10750 ] final -139.94 input  -60.55 | X-H torsion
[ 11005 11000 10999 10996 ] final   -8.76 input  -57.11 | X-H torsion

> <Gold.Protein.ActiveResidues>
 VAL166  LYS551  ARG553  GLY616  TRP617  ASP618  TYR619  PRO620  LYS621  CYS622 
 ASP623  PHE694  ASN695  SER759  ASP760  ASP761  ALA762  ILE779  LEU786  VAL792 
 PHE793  MET794  SER795  GLU796  ALA797  LYS798  CYS799  TRP800  GLU811  SER814 

> <Gold.Protein.RotatedAtoms>
  152.2280  134.8349  160.0477 H   0  0  0  0  0  0  0  0  0  0  0  0  # atno 6907 bound_to 6896
  151.9108  133.3555  159.3871 H   0  0  0  0  0  0  0  0  0  0  0  0  # atno 6908 bound_to 6896
  150.7018  134.4659  159.5446 H   0  0  0  0  0  0  0  0  0  0  0  0  # atno 6909 bound_to 6896
  146.2346  139.9303  142.8497 H   0  0  0  0  0  0  0  0  0  0  0  0  # atno 7974 bound_to 7965
  154.6029  140.0641  156.9393 H   0  0  0  0  0  0  0  0  0  0  0  0  # atno 8008 bound_to 7997
  155.2101  140.3322  155.4312 H   0  0  0  0  0  0  0  0  0  0  0  0  # atno 8009 bound_to 7997
  156.2329  140.1849  156.7178 H   0  0  0  0  0  0  0  0  0  0  0  0  # atno 8010 bound_to 7997
  139.6340  144.7118  151.2374 H   0  0  0  0  0  0  0  0  0  0  0  0  # atno 10167 bound_to 10162
  156.4422  130.4466  149.7045 H   0  0  0  0  0  0  0  0  0  0  0  0  # atno 10718 bound_to 10713
  154.8594  135.3567  154.5628 H   0  0  0  0  0  0  0  0  0  0  0  0  # atno 10763 bound_to 10752
  153.6243  135.7005  153.5304 H   0  0  0  0  0  0  0  0  0  0  0  0  # atno 10764 bound_to 10752
  153.3103  135.4180  155.1290 H   0  0  0  0  0  0  0  0  0  0  0  0  # atno 10765 bound_to 10752
  140.7269  133.8781  155.8863 H   0  0  0  0  0  0  0  0  0  0  0  0  # atno 11005 bound_to 11000
  145.2051  140.9871  143.4133 LP  0  0  0  0  0  0  0  0  0  0  0  0  # atno 17320 bound_to 7965
  144.9740  139.3851  143.6295 LP  0  0  0  0  0  0  0  0  0  0  0  0  # atno 17321 bound_to 7965
  140.7455  143.6430  150.8318 LP  0  0  0  0  0  0  0  0  0  0  0  0  # atno 17342 bound_to 10162
  140.0058  143.5695  152.2858 LP  0  0  0  0  0  0  0  0  0  0  0  0  # atno 17343 bound_to 10162
  156.3905  130.7625  151.2625 LP  0  0  0  0  0  0  0  0  0  0  0  0  # atno 17370 bound_to 10713
  157.7506  131.0269  150.3983 LP  0  0  0  0  0  0  0  0  0  0  0  0  # atno 17371 bound_to 10713
  140.9955  134.1221  157.4368 LP  0  0  0  0  0  0  0  0  0  0  0  0  # atno 17394 bound_to 11000
  139.8835  135.0053  156.6304 LP  0  0  0  0  0  0  0  0  0  0  0  0  # atno 17395 bound_to 11000

$$$$
