AV-unprocessed.smi:2173|AV-procd|sdf|8839|dock2
  -GOLD-   2272012 33D 1   1.00000     0.00000
 Structure written by MMmdl.
 35 36  0  0  0  0  0  0  0  0  1 V2000
  153.3705  139.1374  157.6629 O   0  0  0  0  0  0  0  0  0  0  0  0
  152.3629  139.7544  158.0103 C   0  0  0  0  0  0  0  0  0  0  0  0
  152.2749  140.4260  159.1684 N   0  0  0  0  0  0  0  0  0  0  0  0
  153.3617  140.5897  160.1285 C   0  0  0  0  0  0  0  0  0  0  0  0
  153.1202  141.7440  161.1242 C   0  0  0  0  0  0  0  0  0  0  0  0
  152.4670  142.9676  160.5008 C   0  0  0  0  0  0  0  0  0  0  0  0
  151.8208  143.9254  161.3107 C   0  0  0  0  0  0  0  0  0  0  0  0
  151.2094  145.0299  160.6859 C   0  0  0  0  0  0  0  0  0  0  0  0
  151.2658  145.1332  159.2825 C   0  0  0  0  0  0  0  0  0  0  0  0
  151.9363  144.1244  158.5630 C   0  0  0  0  0  0  0  0  0  0  0  0
  152.5260  143.0626  159.1525 N   0  0  0  0  0  0  0  0  0  0  0  0
  151.1298  139.8038  157.0992 C   0  0  1  0  0  0  0  0  0  0  0  0
  150.6169  141.2543  156.9490 C   0  0  0  0  0  0  0  0  0  0  0  0
  149.5588  141.3783  155.8672 C   0  0  0  0  0  0  0  0  0  0  0  0
  149.3452  140.4377  154.9313 C   0  0  0  0  0  0  0  0  0  0  0  0
  150.1413  139.1471  154.8457 C   0  0  0  0  0  0  0  0  0  0  0  0
  151.4128  139.1853  155.7155 C   0  0  0  0  0  0  0  0  0  0  0  0
  151.4092  140.9030  159.3743 H   0  0  0  0  0  0  0  0  0  0  0  0
  153.4522  139.6527  160.6784 H   0  0  0  0  0  0  0  0  0  0  0  0
  154.3090  140.7314  159.6059 H   0  0  0  0  0  0  0  0  0  0  0  0
  152.4977  141.3907  161.9467 H   0  0  0  0  0  0  0  0  0  0  0  0
  154.0671  142.0430  161.5762 H   0  0  0  0  0  0  0  0  0  0  0  0
  151.7901  143.8149  162.3847 H   0  0  0  0  0  0  0  0  0  0  0  0
  150.7047  145.7834  161.2721 H   0  0  0  0  0  0  0  0  0  0  0  0
  150.8069  145.9655  158.7696 H   0  0  0  0  0  0  0  0  0  0  0  0
  151.9994  144.1702  157.4858 H   0  0  0  0  0  0  0  0  0  0  0  0
  150.3395  139.2125  157.5661 H   0  0  0  0  0  0  0  0  0  0  0  0
  150.1895  141.5931  157.8933 H   0  0  0  0  0  0  0  0  0  0  0  0
  151.4300  141.9398  156.7058 H   0  0  0  0  0  0  0  0  0  0  0  0
  148.9688  142.2830  155.8653 H   0  0  0  0  0  0  0  0  0  0  0  0
  148.5662  140.5788  154.1964 H   0  0  0  0  0  0  0  0  0  0  0  0
  149.4925  138.3296  155.1612 H   0  0  0  0  0  0  0  0  0  0  0  0
  150.4085  138.9570  153.8059 H   0  0  0  0  0  0  0  0  0  0  0  0
  152.1762  139.7735  155.2032 H   0  0  0  0  0  0  0  0  0  0  0  0
  151.8187  138.1779  155.8176 H   0  0  0  0  0  0  0  0  0  0  0  0
  1  2  2  0  0  0  0
  2  3  1  0  0  0  0
  2 12  1  0  0  0  0
  3  4  1  0  0  0  0
  3 18  1  0  0  0  0
  4  5  1  0  0  0  0
  4 19  1  0  0  0  0
  4 20  1  0  0  0  0
  5  6  1  0  0  0  0
  5 21  1  0  0  0  0
  5 22  1  0  0  0  0
  6 11  1  0  0  0  0
  6  7  2  0  0  0  0
  7  8  1  0  0  0  0
  7 23  1  0  0  0  0
  8  9  2  0  0  0  0
  8 24  1  0  0  0  0
  9 10  1  0  0  0  0
  9 25  1  0  0  0  0
 10 11  2  0  0  0  0
 10 26  1  0  0  0  0
 12 17  1  0  0  0  0
 12 13  1  0  0  0  0
 12 27  1  0  0  0  0
 13 14  1  0  0  0  0
 13 28  1  0  0  0  0
 13 29  1  0  0  0  0
 14 15  2  0  0  0  0
 14 30  1  0  0  0  0
 15 16  1  0  0  0  0
 15 31  1  0  0  0  0
 16 17  1  0  0  0  0
 16 32  1  0  0  0  0
 16 33  1  0  0  0  0
 17 34  1  0  0  0  0
 17 35  1  0  0  0  0
M  END
> <s_m_source_file>
AV-unprocessed.smi

> <i_m_source_file_index>
2173

> <i_lp_mmshare_version>
43012

> <i_f3d_flags>
0

> <s_epik_input>
W0NIMl0xW0NIMl1bQ0hdPVtDSF1bQ0gyXVtDQEhdMUMoPU8pW05IXVtDSDJdW0NIMl1jMltjSF1bY0hdW2NIXVtjSF1uMg==

> <s_epik_cmdline>
J2VwaWtfcHl0aG9uJywgJy1waCcsICc3LjAnLCAnLXRuJywgJzgnLCAnLW1hJywgJzIwMCcsICctbWV0YWxfYmluZGluZycsICctaW1hZScsICc8aW5maWxlLm1hZT4nLCAnLW9tYWUnLCAnPG91dGZpbGUubWFlPic=

> <r_epik_Ionization_Penalty>
0.0268825

> <r_epik_Ionization_Penalty_Charging>
0

> <r_epik_Ionization_Penalty_Neutral>
0.0268825

> <r_epik_State_Penalty>
0.0219706

> <r_epik_Charging_Adjusted_Penalty>
0.0219706

> <i_epik_Tot_Q>
0

> <i_epik_Tot_abs_Q>
0

> <r_epik_Metal_State_Penalty>
0.0210138

> <b_epik_Metal_Only>
0

> <s_lp_Force_Field>
OPLS_2005

> <r_lp_Energy>
8.2635

> <b_lp_Chiralities_Consistent>
1

> <s_lp_Variant>
AV-unprocessed.smi:2173-2

> <Gold.Version>
5.8.1

> <Gold.Id.Protein>
6NUR|6NUR_protein|mol2

> <Gold.PLP.Fitness>
48.2251

> <Gold.PLP.PLP>
-46.5449

> <Gold.PLP.part.hbond>
-1.0000

> <Gold.PLP.part.metal>
0.0000

> <Gold.PLP.part.buried>
-4.4304

> <Gold.PLP.part.nonpolar>
-41.6505

> <Gold.PLP.part.repulsive>
0.1274

> <Gold.PLP.ligand.clash>
0.0000

> <Gold.PLP.ligand.torsion>
0.6796

> <Gold.PLP.Chemscore.Hbond>
1.0000

> <Gold.PLP.Chemscore.CHOScore>
0.0000

> <Gold.PLP.Chemscore.Metal>
0.0000

> <Gold.Chemscore.Hbonds>
donor molecule, donor type, donor heavy atom, donor atom, acceptor molecule, acceptor atom, score
      P1  H  7997  8010       L1     1  1.00

> <Gold.PLP.Chemscore.Internal.Correction>
0.0395

> <Gold.Rescore>
     Score         DG    S(hbond)    S(metal)    S(lipo)     H(rot)  DE(clash)    DE(int)     intcor
     16.58     -18.91       0.90        0.00     119.44       1.39       0.01       2.32       ----

> <Gold.Chemscore.Fitness>
16.5762

> <Gold.Chemscore.DG>
-18.9112

> <Gold.Chemscore.ZeroCoef>
-5.4800

> <Gold.Chemscore.Hbond>
0.9033

> <Gold.Chemscore.Metal>
0.0000

> <Gold.Chemscore.Lipo>
119.4376

> <Gold.Chemscore.Internal_Hbond>
0.0000

> <Gold.Chemscore.DEClash>
0.0137

> <Gold.Chemscore.DEInternal>
2.3214

> <Gold.Chemscore.Rot>
1.3907

> <Gold.Chemscore.Internal.Correction>
   9.000000E+99

> <Gold.Chemscore.Hbonds>
donor molecule, donor type, donor heavy atom, donor atom, acceptor molecule, acceptor atom, score
      P1  H  7997  8010       L1     1  0.94

> <Gold.Chemscore.Hbond.Weighted>
-3.0171

> <Gold.Chemscore.Metal.Weighted>
-0.0000

> <Gold.Chemscore.Lipo.Weighted>
-13.9742

> <Gold.Chemscore.Internal_Hbond.Weighted>
0.0000

> <Gold.Chemscore.DEClash.Weighted>
0.0137

> <Gold.Chemscore.DEInternal.Weighted>
2.3214

> <Gold.Chemscore.Rot.Weighted>
3.5601

> <Gold.Chemscore.Internal.Correction.Weighted>
   9.000000E+99

> <Gold.Protein.RotatedTorsions>
[ 6907 6896 6895 6894 ] final   -1.91 input  -60.11 | X-H torsion
[ 7974 7965 7964 7962 ] final  -13.77 input  175.53 | X-H torsion
[ 8008 7997 7996 7995 ] final   36.12 input   59.86 | X-H torsion
[ 10167 10162 10161 10158 ] final  171.52 input  -65.29 | X-H torsion
[ 10718 10713 10712 10709 ] final  -25.58 input   66.30 | X-H torsion
[ 10763 10752 10751 10750 ] final  -74.10 input  -60.55 | X-H torsion
[ 11005 11000 10999 10996 ] final  151.08 input  -57.11 | X-H torsion

> <Gold.Protein.ActiveResidues>
 VAL166  LYS551  ARG553  GLY616  TRP617  ASP618  TYR619  PRO620  LYS621  CYS622 
 ASP623  PHE694  ASN695  SER759  ASP760  ASP761  ALA762  ILE779  LEU786  VAL792 
 PHE793  MET794  SER795  GLU796  ALA797  LYS798  CYS799  TRP800  GLU811  SER814 

> <Gold.Protein.RotatedAtoms>
  151.5383  135.1068  159.9919 H   0  0  0  0  0  0  0  0  0  0  0  0  # atno 6907 bound_to 6896
  152.4547  133.7694  159.6801 H   0  0  0  0  0  0  0  0  0  0  0  0  # atno 6908 bound_to 6896
  150.8486  133.7756  159.3058 H   0  0  0  0  0  0  0  0  0  0  0  0  # atno 6909 bound_to 6896
  146.2101  140.3252  142.8394 H   0  0  0  0  0  0  0  0  0  0  0  0  # atno 7974 bound_to 7965
  155.1822  140.3301  155.4373 H   0  0  0  0  0  0  0  0  0  0  0  0  # atno 8008 bound_to 7997
  156.2473  140.1925  156.6869 H   0  0  0  0  0  0  0  0  0  0  0  0  # atno 8009 bound_to 7997
  154.6264  140.0588  156.9664 H   0  0  0  0  0  0  0  0  0  0  0  0  # atno 8010 bound_to 7997
  139.5049  144.3477  151.9954 H   0  0  0  0  0  0  0  0  0  0  0  0  # atno 10167 bound_to 10162
  156.4625  130.4507  149.6920 H   0  0  0  0  0  0  0  0  0  0  0  0  # atno 10718 bound_to 10713
  154.4685  135.5875  153.6305 H   0  0  0  0  0  0  0  0  0  0  0  0  # atno 10763 bound_to 10752
  152.9831  135.6061  154.3396 H   0  0  0  0  0  0  0  0  0  0  0  0  # atno 10764 bound_to 10752
  154.3275  135.2843  155.2467 H   0  0  0  0  0  0  0  0  0  0  0  0  # atno 10765 bound_to 10752
  140.1187  134.8877  157.2041 H   0  0  0  0  0  0  0  0  0  0  0  0  # atno 11005 bound_to 11000
  144.8891  140.7501  143.5938 LP  0  0  0  0  0  0  0  0  0  0  0  0  # atno 17320 bound_to 7965
  145.3174  139.1799  143.4606 LP  0  0  0  0  0  0  0  0  0  0  0  0  # atno 17321 bound_to 7965
  140.2914  144.3749  150.6087 LP  0  0  0  0  0  0  0  0  0  0  0  0  # atno 17342 bound_to 10162
  140.5943  143.2167  151.7193 LP  0  0  0  0  0  0  0  0  0  0  0  0  # atno 17343 bound_to 10162
  156.3702  130.7526  151.2509 LP  0  0  0  0  0  0  0  0  0  0  0  0  # atno 17370 bound_to 10713
  157.7497  131.0325  150.4230 LP  0  0  0  0  0  0  0  0  0  0  0  0  # atno 17371 bound_to 10713
  140.2994  134.3149  155.7294 LP  0  0  0  0  0  0  0  0  0  0  0  0  # atno 17394 bound_to 11000
  141.2147  133.7582  156.9618 LP  0  0  0  0  0  0  0  0  0  0  0  0  # atno 17395 bound_to 11000

$$$$
