AV-unprocessed.smi:2225|AV-procd|sdf|9000|dock10
  -GOLD-   2272012213D 1   1.00000     0.00000
 Structure written by MMmdl.
 33 34  0  0  0  0  0  0  0  0  1 V2000
  150.4484  140.8389  157.5667 O   0  0  0  0  0  0  0  0  0  0  0  0
  150.3842  141.9712  157.0899 C   0  0  0  0  0  0  0  0  0  0  0  0
  151.3878  143.0373  157.5628 C   0  0  0  0  0  0  0  0  0  0  0  0
  152.0156  142.7669  158.8697 N   0  0  0  0  0  0  0  0  0  0  0  0
  151.7539  143.6878  159.8998 C   0  0  0  0  0  0  0  0  0  0  0  0
  152.2708  143.5401  161.1267 C   0  0  0  0  0  0  0  0  0  0  0  0
  153.1193  142.4006  161.3765 C   0  0  0  0  0  0  0  0  0  0  0  0
  153.3861  141.4952  160.4069 C   0  0  0  0  0  0  0  0  0  0  0  0
  154.2791  140.2818  160.6559 C   0  0  0  0  0  0  0  0  0  0  0  0
  153.6531  139.1573  160.3060 F   0  0  0  0  0  0  0  0  0  0  0  0
  155.4015  140.3738  159.9420 F   0  0  0  0  0  0  0  0  0  0  0  0
  154.6202  140.1739  161.9410 F   0  0  0  0  0  0  0  0  0  0  0  0
  152.8022  141.6624  159.0602 C   0  0  0  0  0  0  0  0  0  0  0  0
  153.0015  140.8564  158.1501 O   0  0  0  0  0  0  0  0  0  0  0  0
  149.4742  142.3169  156.1636 N   0  0  0  0  0  0  0  0  0  0  0  0
  148.4660  141.4247  155.6022 C   0  0  1  0  0  0  0  0  0  0  0  0
  147.0638  142.0199  155.7112 C   0  0  0  0  0  0  0  0  0  0  0  0
  146.6195  142.1964  154.2610 C   0  0  0  0  0  0  0  0  0  0  0  0
  147.3438  141.1939  153.5695 O   0  0  0  0  0  0  0  0  0  0  0  0
  148.6613  141.2141  154.0941 C   0  0  0  0  0  0  0  0  0  0  0  0
  152.1494  143.1611  156.7909 H   0  0  0  0  0  0  0  0  0  0  0  0
  150.8672  143.9958  157.5928 H   0  0  0  0  0  0  0  0  0  0  0  0
  151.1050  144.5089  159.6309 H   0  0  0  0  0  0  0  0  0  0  0  0
  152.0563  144.2539  161.9084 H   0  0  0  0  0  0  0  0  0  0  0  0
  153.5427  142.2836  162.3629 H   0  0  0  0  0  0  0  0  0  0  0  0
  149.4857  143.2655  155.8181 H   0  0  0  0  0  0  0  0  0  0  0  0
  148.4833  140.4647  156.1217 H   0  0  0  0  0  0  0  0  0  0  0  0
  146.4051  141.3125  156.2162 H   0  0  0  0  0  0  0  0  0  0  0  0
  147.0251  142.9587  156.2657 H   0  0  0  0  0  0  0  0  0  0  0  0
  145.5433  142.0795  154.1317 H   0  0  0  0  0  0  0  0  0  0  0  0
  146.9069  143.1793  153.8837 H   0  0  0  0  0  0  0  0  0  0  0  0
  149.2067  142.0437  153.6403 H   0  0  0  0  0  0  0  0  0  0  0  0
  149.1968  140.2924  153.8659 H   0  0  0  0  0  0  0  0  0  0  0  0
  1  2  2  0  0  0  0
  2  3  1  0  0  0  0
  2 15  1  0  0  0  0
  3  4  1  0  0  0  0
  3 21  1  0  0  0  0
  3 22  1  0  0  0  0
  4 13  1  0  0  0  0
  4  5  1  0  0  0  0
  5  6  2  0  0  0  0
  5 23  1  0  0  0  0
  6  7  1  0  0  0  0
  6 24  1  0  0  0  0
  7  8  2  0  0  0  0
  7 25  1  0  0  0  0
  8  9  1  0  0  0  0
  8 13  1  0  0  0  0
  9 10  1  0  0  0  0
  9 11  1  0  0  0  0
  9 12  1  0  0  0  0
 13 14  2  0  0  0  0
 15 16  1  0  0  0  0
 15 26  1  0  0  0  0
 16 20  1  0  0  0  0
 16 17  1  0  0  0  0
 16 27  1  0  0  0  0
 17 18  1  0  0  0  0
 17 28  1  0  0  0  0
 17 29  1  0  0  0  0
 18 19  1  0  0  0  0
 18 30  1  0  0  0  0
 18 31  1  0  0  0  0
 19 20  1  0  0  0  0
 20 32  1  0  0  0  0
 20 33  1  0  0  0  0
M  END
> <s_m_source_file>
AV-unprocessed.smi

> <i_m_source_file_index>
2225

> <i_lp_mmshare_version>
43012

> <i_f3d_flags>
0

> <s_epik_input>
W0NIMl0xT1tDSDJdW0NIMl1bQ0BIXTFbTkhdQyg9TylbQ0gyXW4yW2NIXVtjSF1bY0hdYyhDKEYpKEYpRiljMj1P

> <s_epik_cmdline>
J2VwaWtfcHl0aG9uJywgJy1waCcsICc3LjAnLCAnLXRuJywgJzgnLCAnLW1hJywgJzIwMCcsICctbWV0YWxfYmluZGluZycsICctaW1hZScsICc8aW5maWxlLm1hZT4nLCAnLW9tYWUnLCAnPG91dGZpbGUubWFlPic=

> <r_lp_tautomer_probability>
1

> <r_epik_Ionization_Penalty>
3.32109e-08

> <r_epik_Ionization_Penalty_Charging>
1.91399e-09

> <r_epik_Ionization_Penalty_Neutral>
3.1297e-08

> <r_epik_State_Penalty>
-0

> <r_epik_Charging_Adjusted_Penalty>
1.91399e-09

> <i_epik_Tot_Q>
0

> <i_epik_Tot_abs_Q>
0

> <r_epik_Metal_State_Penalty>
-0

> <b_epik_Metal_Only>
0

> <s_lp_Force_Field>
OPLS_2005

> <r_lp_Energy>
24.9921

> <b_lp_Chiralities_Consistent>
1

> <s_lp_Variant>
AV-unprocessed.smi:2225-2

> <Gold.Version>
5.8.1

> <Gold.Id.Protein>
6NUR|6NUR_protein|mol2

> <Gold.PLP.Fitness>
47.1715

> <Gold.PLP.PLP>
-43.0369

> <Gold.PLP.part.hbond>
-2.0000

> <Gold.PLP.part.metal>
0.0000

> <Gold.PLP.part.buried>
-1.9143

> <Gold.PLP.part.nonpolar>
-38.5355

> <Gold.PLP.part.repulsive>
0.2712

> <Gold.PLP.ligand.clash>
0.2179

> <Gold.PLP.ligand.torsion>
0.4638

> <Gold.PLP.Chemscore.Hbond>
1.6396

> <Gold.PLP.Chemscore.CHOScore>
0.0000

> <Gold.PLP.Chemscore.Metal>
0.0000

> <Gold.Chemscore.Hbonds>
donor molecule, donor type, donor heavy atom, donor atom, acceptor molecule, acceptor atom, score
      L1  H    15    26       P1  8028  1.00
      P1  H  7997  8008       L1    14  0.54

> <Gold.PLP.Chemscore.Internal.Correction>
0.3614

> <Gold.Rescore>
     Score         DG    S(hbond)    S(metal)    S(lipo)     H(rot)  DE(clash)    DE(int)     intcor
     11.72     -16.61       1.70        0.00      82.46       1.64       0.06       4.83       ----

> <Gold.Chemscore.Fitness>
11.7157

> <Gold.Chemscore.DG>
-16.6084

> <Gold.Chemscore.ZeroCoef>
-5.4800

> <Gold.Chemscore.Hbond>
1.6996

> <Gold.Chemscore.Metal>
0.0000

> <Gold.Chemscore.Lipo>
82.4563

> <Gold.Chemscore.Internal_Hbond>
0.0000

> <Gold.Chemscore.DEClash>
0.0605

> <Gold.Chemscore.DEInternal>
4.8322

> <Gold.Chemscore.Rot>
1.6389

> <Gold.Chemscore.Internal.Correction>
   9.000000E+99

> <Gold.Chemscore.Hbonds>
donor molecule, donor type, donor heavy atom, donor atom, acceptor molecule, acceptor atom, score
      L1  H    15    26       P1  8028  0.95
      P1  H  7997  8008       L1    14  0.52

> <Gold.Chemscore.Hbond.Weighted>
-5.6766

> <Gold.Chemscore.Metal.Weighted>
-0.0000

> <Gold.Chemscore.Lipo.Weighted>
-9.6474

> <Gold.Chemscore.Internal_Hbond.Weighted>
0.0000

> <Gold.Chemscore.DEClash.Weighted>
0.0605

> <Gold.Chemscore.DEInternal.Weighted>
4.8322

> <Gold.Chemscore.Rot.Weighted>
4.1956

> <Gold.Chemscore.Internal.Correction.Weighted>
   9.000000E+99

> <Gold.Protein.RotatedTorsions>
[ 6907 6896 6895 6894 ] final -101.26 input  -60.11 | X-H torsion
[ 7974 7965 7964 7962 ] final  108.36 input  175.53 | X-H torsion
[ 8008 7997 7996 7995 ] final  -79.73 input   59.86 | X-H torsion
[ 10167 10162 10161 10158 ] final  -31.22 input  -65.29 | X-H torsion
[ 10718 10713 10712 10709 ] final   -7.50 input   66.30 | X-H torsion
[ 10763 10752 10751 10750 ] final  158.61 input  -60.55 | X-H torsion
[ 11005 11000 10999 10996 ] final -158.63 input  -57.11 | X-H torsion

> <Gold.Protein.ActiveResidues>
 VAL166  LYS551  ARG553  GLY616  TRP617  ASP618  TYR619  PRO620  LYS621  CYS622 
 ASP623  PHE694  ASN695  SER759  ASP760  ASP761  ALA762  ILE779  LEU786  VAL792 
 PHE793  MET794  SER795  GLU796  ALA797  LYS798  CYS799  TRP800  GLU811  SER814 

> <Gold.Protein.RotatedAtoms>
  150.7147  134.0762  159.3881 H   0  0  0  0  0  0  0  0  0  0  0  0  # atno 6907 bound_to 6896
  151.8745  135.0475  160.0492 H   0  0  0  0  0  0  0  0  0  0  0  0  # atno 6908 bound_to 6896
  152.2617  133.5267  159.5422 H   0  0  0  0  0  0  0  0  0  0  0  0  # atno 6909 bound_to 6896
  145.2816  139.2630  143.3912 H   0  0  0  0  0  0  0  0  0  0  0  0  # atno 7974 bound_to 7965
  154.5814  140.0674  156.9109 H   0  0  0  0  0  0  0  0  0  0  0  0  # atno 8008 bound_to 7997
  155.2456  140.3348  155.4269 H   0  0  0  0  0  0  0  0  0  0  0  0  # atno 8009 bound_to 7997
  156.2192  140.1791  156.7503 H   0  0  0  0  0  0  0  0  0  0  0  0  # atno 8010 bound_to 7997
  140.7239  143.3787  151.1641 H   0  0  0  0  0  0  0  0  0  0  0  0  # atno 10167 bound_to 10162
  156.7163  130.5137  149.5879 H   0  0  0  0  0  0  0  0  0  0  0  0  # atno 10718 bound_to 10713
  154.2188  135.2783  155.2932 H   0  0  0  0  0  0  0  0  0  0  0  0  # atno 10763 bound_to 10752
  154.5719  135.5616  153.7106 H   0  0  0  0  0  0  0  0  0  0  0  0  # atno 10764 bound_to 10752
  153.0046  135.6323  154.2328 H   0  0  0  0  0  0  0  0  0  0  0  0  # atno 10765 bound_to 10752
  140.6515  134.4445  157.5235 H   0  0  0  0  0  0  0  0  0  0  0  0  # atno 11005 bound_to 11000
  146.3214  140.3285  142.8638 LP  0  0  0  0  0  0  0  0  0  0  0  0  # atno 17320 bound_to 7965
  144.9248  140.7909  143.5726 LP  0  0  0  0  0  0  0  0  0  0  0  0  # atno 17321 bound_to 7965
  139.7372  143.8980  152.3038 LP  0  0  0  0  0  0  0  0  0  0  0  0  # atno 17342 bound_to 10162
  139.8789  144.7028  150.8900 LP  0  0  0  0  0  0  0  0  0  0  0  0  # atno 17343 bound_to 10162
  156.1626  130.6384  151.0738 LP  0  0  0  0  0  0  0  0  0  0  0  0  # atno 17370 bound_to 10713
  157.6916  131.0808  150.7091 LP  0  0  0  0  0  0  0  0  0  0  0  0  # atno 17371 bound_to 10713
  139.9044  134.8482  156.1764 LP  0  0  0  0  0  0  0  0  0  0  0  0  # atno 17394 bound_to 11000
  141.0533  133.6878  156.1813 LP  0  0  0  0  0  0  0  0  0  0  0  0  # atno 17395 bound_to 11000

$$$$
