AV-unprocessed.smi:131|AV-procd|sdf|1161|dock4
  -GOLD-   2262018303D 1   1.00000     0.00000
 Structure written by MMmdl.
 55 58  0  0  0  0  0  0  0  0  1 V2000
  146.7709  137.2964  160.5360 O   0  0  0  0  0  0  0  0  0  0  0  0
  147.7139  136.6732  161.0246 C   0  0  0  0  0  0  0  0  0  0  0  0
  147.4882  135.7619  162.2417 C   0  0  0  0  0  0  0  0  0  0  0  0
  146.2651  134.9373  162.1307 N   0  0  0  0  0  0  0  0  0  0  0  0
  146.4082  133.5397  161.9464 C   0  0  0  0  0  0  0  0  0  0  0  0
  147.5210  133.0168  161.8680 O   0  0  0  0  0  0  0  0  0  0  0  0
  145.1633  132.7842  161.8638 C   0  0  0  0  0  0  0  0  0  0  0  0
  145.2035  131.4548  161.6716 F   0  0  0  0  0  0  0  0  0  0  0  0
  143.9680  133.3990  161.9766 C   0  0  0  0  0  0  0  0  0  0  0  0
  143.8433  134.7624  162.1777 N   0  0  0  0  0  0  0  0  0  0  0  0
  142.4941  135.4364  162.3160 C   0  0  2  0  0  0  0  0  0  0  0  0
  141.3794  134.3876  162.4976 C   0  0  0  0  0  0  0  0  0  0  0  0
  140.3763  134.7738  161.4288 C   0  0  0  0  0  0  0  0  0  0  0  0
  141.2699  135.4028  160.3709 C   0  0  0  0  0  0  0  0  0  0  0  0
  142.1961  136.1493  161.1492 O   0  0  0  0  0  0  0  0  0  0  0  0
  145.0024  135.5656  162.2480 C   0  0  0  0  0  0  0  0  0  0  0  0
  144.9118  136.7836  162.4175 O   0  0  0  0  0  0  0  0  0  0  0  0
  148.9713  136.6863  160.5448 N   0  0  0  0  0  0  0  0  0  0  0  0
  149.5141  137.4248  159.4570 C   0  0  0  0  0  0  0  0  0  0  0  0
  150.9107  137.6304  159.4603 C   0  0  0  0  0  0  0  0  0  0  0  0
  151.5311  138.3664  158.4324 C   0  0  0  0  0  0  0  0  0  0  0  0
  150.7476  138.9043  157.3937 C   0  0  0  0  0  0  0  0  0  0  0  0
  151.5177  139.8632  156.0956 S   0  0  0  0  0  0  0  0  0  0  0  0
  152.8922  139.3845  155.8783 O   0  0  0  0  0  0  0  0  0  0  0  0
  150.5697  139.9327  154.9728 O   0  0  0  0  0  0  0  0  0  0  0  0
  151.6100  141.4432  156.7975 N   0  0  0  0  0  0  0  0  0  0  0  0
  152.2382  141.6069  158.1142 C   0  0  0  0  0  0  0  0  0  0  0  0
  151.2883  142.4996  158.9141 C   0  0  0  0  0  0  0  0  0  0  0  0
  150.5975  143.3303  157.8418 C   0  0  0  0  0  0  0  0  0  0  0  0
  150.4618  142.3504  156.6773 C   0  0  0  0  0  0  0  0  0  0  0  0
  149.3520  138.7202  157.3826 C   0  0  0  0  0  0  0  0  0  0  0  0
  148.7349  137.9865  158.4141 C   0  0  0  0  0  0  0  0  0  0  0  0
  148.3765  135.1418  162.3701 H   0  0  0  0  0  0  0  0  0  0  0  0
  147.4581  136.3694  163.1480 H   0  0  0  0  0  0  0  0  0  0  0  0
  143.0858  132.7820  161.9034 H   0  0  0  0  0  0  0  0  0  0  0  0
  142.5963  136.1312  163.1516 H   0  0  0  0  0  0  0  0  0  0  0  0
  141.7680  133.3852  162.3096 H   0  0  0  0  0  0  0  0  0  0  0  0
  140.9681  134.4246  163.5066 H   0  0  0  0  0  0  0  0  0  0  0  0
  139.8017  133.9261  161.0544 H   0  0  0  0  0  0  0  0  0  0  0  0
  139.6794  135.5170  161.8182 H   0  0  0  0  0  0  0  0  0  0  0  0
  141.7908  134.6358  159.7958 H   0  0  0  0  0  0  0  0  0  0  0  0
  140.7208  136.0407  159.6783 H   0  0  0  0  0  0  0  0  0  0  0  0
  149.6169  136.0569  160.9995 H   0  0  0  0  0  0  0  0  0  0  0  0
  151.5162  137.2210  160.2559 H   0  0  0  0  0  0  0  0  0  0  0  0
  152.6005  138.5150  158.4480 H   0  0  0  0  0  0  0  0  0  0  0  0
  152.3930  140.6451  158.6045 H   0  0  0  0  0  0  0  0  0  0  0  0
  153.2097  142.0843  157.9836 H   0  0  0  0  0  0  0  0  0  0  0  0
  150.5532  141.8847  159.4353 H   0  0  0  0  0  0  0  0  0  0  0  0
  151.8050  143.1092  159.6558 H   0  0  0  0  0  0  0  0  0  0  0  0
  149.6390  143.7340  158.1692 H   0  0  0  0  0  0  0  0  0  0  0  0
  151.2356  144.1664  157.5522 H   0  0  0  0  0  0  0  0  0  0  0  0
  150.4584  142.8488  155.7075 H   0  0  0  0  0  0  0  0  0  0  0  0
  149.5365  141.7814  156.7734 H   0  0  0  0  0  0  0  0  0  0  0  0
  148.7534  139.1455  156.5903 H   0  0  0  0  0  0  0  0  0  0  0  0
  147.6618  137.8838  158.3865 H   0  0  0  0  0  0  0  0  0  0  0  0
  1  2  2  0  0  0  0
  2  3  1  0  0  0  0
  2 18  1  0  0  0  0
  3  4  1  0  0  0  0
  3 33  1  0  0  0  0
  3 34  1  0  0  0  0
  4 16  1  0  0  0  0
  4  5  1  0  0  0  0
  5  6  2  0  0  0  0
  5  7  1  0  0  0  0
  7  8  1  0  0  0  0
  7  9  2  0  0  0  0
  9 10  1  0  0  0  0
  9 35  1  0  0  0  0
 10 11  1  0  0  0  0
 10 16  1  0  0  0  0
 11 15  1  0  0  0  0
 11 12  1  0  0  0  0
 11 36  1  0  0  0  0
 12 13  1  0  0  0  0
 12 37  1  0  0  0  0
 12 38  1  0  0  0  0
 13 14  1  0  0  0  0
 13 39  1  0  0  0  0
 13 40  1  0  0  0  0
 14 15  1  0  0  0  0
 14 41  1  0  0  0  0
 14 42  1  0  0  0  0
 16 17  2  0  0  0  0
 18 19  1  0  0  0  0
 18 43  1  0  0  0  0
 19 32  1  0  0  0  0
 19 20  2  0  0  0  0
 20 21  1  0  0  0  0
 20 44  1  0  0  0  0
 21 22  2  0  0  0  0
 21 45  1  0  0  0  0
 22 23  1  0  0  0  0
 22 31  1  0  0  0  0
 23 24  2  0  0  0  0
 23 25  2  0  0  0  0
 23 26  1  0  0  0  0
 26 30  1  0  0  0  0
 26 27  1  0  0  0  0
 27 28  1  0  0  0  0
 27 46  1  0  0  0  0
 27 47  1  0  0  0  0
 28 29  1  0  0  0  0
 28 48  1  0  0  0  0
 28 49  1  0  0  0  0
 29 30  1  0  0  0  0
 29 50  1  0  0  0  0
 29 51  1  0  0  0  0
 30 52  1  0  0  0  0
 30 53  1  0  0  0  0
 31 32  2  0  0  0  0
 31 54  1  0  0  0  0
 32 55  1  0  0  0  0
M  END
> <s_m_source_file>
AV-unprocessed.smi

> <i_m_source_file_index>
131

> <i_lp_mmshare_version>
43012

> <i_f3d_flags>
0

> <s_epik_input>
W0NIMl0xW0NIMl1bQ0gyXVtDSDJdTjFTKD1PKSg9TyljKFtjSF1bY0hdMilbY0hdW2NIXWMyW05IXUMoPU8pW0NIMl1uM2MoPU8pYyhGKVtjSF1uKGMzPU8pW0NAQEhdNFtDSDJdW0NIMl1bQ0gyXU80

> <s_epik_cmdline>
J2VwaWtfcHl0aG9uJywgJy1waCcsICc3LjAnLCAnLXRuJywgJzgnLCAnLW1hJywgJzIwMCcsICctbWV0YWxfYmluZGluZycsICctaW1hZScsICc8aW5maWxlLm1hZT4nLCAnLW9tYWUnLCAnPG91dGZpbGUubWFlPic=

> <r_lp_tautomer_probability>
1

> <r_epik_Ionization_Penalty>
1.92533e-06

> <r_epik_Ionization_Penalty_Charging>
3.88729e-08

> <r_epik_Ionization_Penalty_Neutral>
1.88646e-06

> <r_epik_State_Penalty>
-0

> <r_epik_Charging_Adjusted_Penalty>
3.88729e-08

> <i_epik_Tot_Q>
0

> <i_epik_Tot_abs_Q>
0

> <r_epik_Metal_State_Penalty>
-0

> <b_epik_Metal_Only>
0

> <s_epik_Chemistry_Notes>
This compound contains an acetal/aminal-like group ( X-CH(R)-Y where X, Y are N, S, or O) that may be acid/base labile, releasing an aldehyde.

> <s_lp_Force_Field>
OPLS_2005

> <r_lp_Energy>
42.8804

> <b_lp_Chiralities_Consistent>
1

> <s_lp_Variant>
AV-unprocessed.smi:131-1

> <Gold.Version>
5.8.1

> <Gold.Id.Protein>
6NUR|6NUR_protein|mol2

> <Gold.PLP.Fitness>
48.5806

> <Gold.PLP.PLP>
-41.5222

> <Gold.PLP.part.hbond>
-3.0000

> <Gold.PLP.part.metal>
0.0000

> <Gold.PLP.part.buried>
-4.9688

> <Gold.PLP.part.nonpolar>
-32.7669

> <Gold.PLP.part.repulsive>
0.4887

> <Gold.PLP.ligand.clash>
0.0000

> <Gold.PLP.ligand.torsion>
2.3187

> <Gold.PLP.Chemscore.Hbond>
3.0000

> <Gold.PLP.Chemscore.CHOScore>
0.0000

> <Gold.PLP.Chemscore.Metal>
0.0000

> <Gold.Chemscore.Hbonds>
donor molecule, donor type, donor heavy atom, donor atom, acceptor molecule, acceptor atom, score
      P1  H  6934  6947       L1     1  1.00
      P1  H  7989  7998       L1    25  0.96
      P1  H  7997  8008       L1    24  1.00

> <Gold.PLP.Chemscore.Internal.Correction>
2.6958

> <Gold.Rescore>
     Score         DG    S(hbond)    S(metal)    S(lipo)     H(rot)  DE(clash)    DE(int)     intcor
     14.53     -19.25       2.65        0.00      84.04       1.92       0.04       4.68       ----

> <Gold.Chemscore.Fitness>
14.5283

> <Gold.Chemscore.DG>
-19.2478

> <Gold.Chemscore.ZeroCoef>
-5.4800

> <Gold.Chemscore.Hbond>
2.6472

> <Gold.Chemscore.Metal>
0.0000

> <Gold.Chemscore.Lipo>
84.0394

> <Gold.Chemscore.Internal_Hbond>
0.0000

> <Gold.Chemscore.DEClash>
0.0402

> <Gold.Chemscore.DEInternal>
4.6793

> <Gold.Chemscore.Rot>
1.9166

> <Gold.Chemscore.Internal.Correction>
   9.000000E+99

> <Gold.Chemscore.Hbonds>
donor molecule, donor type, donor heavy atom, donor atom, acceptor molecule, acceptor atom, score
      P1  H  6934  6947       L1     1  0.40
      P1  H  7989  7998       L1    25  0.41
      P1  H  7997  8008       L1    24  1.00

> <Gold.Chemscore.Hbond.Weighted>
-8.8416

> <Gold.Chemscore.Metal.Weighted>
-0.0000

> <Gold.Chemscore.Lipo.Weighted>
-9.8326

> <Gold.Chemscore.Internal_Hbond.Weighted>
0.0000

> <Gold.Chemscore.DEClash.Weighted>
0.0402

> <Gold.Chemscore.DEInternal.Weighted>
4.6793

> <Gold.Chemscore.Rot.Weighted>
4.9064

> <Gold.Chemscore.Internal.Correction.Weighted>
   9.000000E+99

> <Gold.Protein.RotatedTorsions>
[ 6907 6896 6895 6894 ] final  -47.03 input  -60.11 | X-H torsion
[ 7974 7965 7964 7962 ] final -105.38 input  175.53 | X-H torsion
[ 8008 7997 7996 7995 ] final  -31.80 input   59.86 | X-H torsion
[ 10167 10162 10161 10158 ] final  104.09 input  -65.29 | X-H torsion
[ 10718 10713 10712 10709 ] final -174.16 input   66.30 | X-H torsion
[ 10763 10752 10751 10750 ] final   49.07 input  -60.55 | X-H torsion
[ 11005 11000 10999 10996 ] final -126.59 input  -57.11 | X-H torsion

> <Gold.Protein.ActiveResidues>
 VAL166  LYS551  ARG553  GLY616  TRP617  ASP618  TYR619  PRO620  LYS621  CYS622 
 ASP623  PHE694  ASN695  SER759  ASP760  ASP761  ALA762  ILE779  LEU786  VAL792 
 PHE793  MET794  SER795  GLU796  ALA797  LYS798  CYS799  TRP800  GLU811  SER814 

> <Gold.Protein.RotatedAtoms>
  150.9050  134.8464  159.7385 H   0  0  0  0  0  0  0  0  0  0  0  0  # atno 6907 bound_to 6896
  152.4913  134.4445  159.9564 H   0  0  0  0  0  0  0  0  0  0  0  0  # atno 6908 bound_to 6896
  151.4493  133.3582  159.2828 H   0  0  0  0  0  0  0  0  0  0  0  0  # atno 6909 bound_to 6896
  145.2312  140.9171  143.3204 H   0  0  0  0  0  0  0  0  0  0  0  0  # atno 7974 bound_to 7965
  154.4201  140.1754  156.1625 H   0  0  0  0  0  0  0  0  0  0  0  0  # atno 8008 bound_to 7997
  155.9827  140.3376  155.6654 H   0  0  0  0  0  0  0  0  0  0  0  0  # atno 8009 bound_to 7997
  155.6479  140.0687  157.2587 H   0  0  0  0  0  0  0  0  0  0  0  0  # atno 8010 bound_to 7997
  139.7207  144.7058  151.0877 H   0  0  0  0  0  0  0  0  0  0  0  0  # atno 10167 bound_to 10162
  156.7810  130.9483  151.3120 H   0  0  0  0  0  0  0  0  0  0  0  0  # atno 10718 bound_to 10713
  152.9788  135.5923  154.4029 H   0  0  0  0  0  0  0  0  0  0  0  0  # atno 10763 bound_to 10752
  154.3673  135.2767  155.2288 H   0  0  0  0  0  0  0  0  0  0  0  0  # atno 10764 bound_to 10752
  154.4259  135.6048  153.6093 H   0  0  0  0  0  0  0  0  0  0  0  0  # atno 10765 bound_to 10752
  140.9669  134.0859  157.3911 H   0  0  0  0  0  0  0  0  0  0  0  0  # atno 11005 bound_to 11000
  144.9675  139.3915  143.6325 LP  0  0  0  0  0  0  0  0  0  0  0  0  # atno 17320 bound_to 7965
  146.3352  139.8757  142.8832 LP  0  0  0  0  0  0  0  0  0  0  0  0  # atno 17321 bound_to 7965
  140.7753  143.5170  150.9583 LP  0  0  0  0  0  0  0  0  0  0  0  0  # atno 17342 bound_to 10162
  139.8857  143.7016  152.3151 LP  0  0  0  0  0  0  0  0  0  0  0  0  # atno 17343 bound_to 10162
  157.6646  130.8996  149.9904 LP  0  0  0  0  0  0  0  0  0  0  0  0  # atno 17370 bound_to 10713
  156.1218  130.3645  149.9875 LP  0  0  0  0  0  0  0  0  0  0  0  0  # atno 17371 bound_to 10713
  139.8898  135.0107  156.6698 LP  0  0  0  0  0  0  0  0  0  0  0  0  # atno 17394 bound_to 11000
  140.7386  133.8997  155.8262 LP  0  0  0  0  0  0  0  0  0  0  0  0  # atno 17395 bound_to 11000

$$$$
