AV-unprocessed.smi:254|AV-procd|sdf|1945|dock2
  -GOLD-   2262021 73D 1   1.00000     0.00000
 Structure written by MMmdl.
 50 53  0  0  0  0  0  0  0  0  1 V2000
  148.6186  132.9624  157.0653 O   0  0  0  0  0  0  0  0  0  0  0  0
  149.2416  133.7902  156.4026 C   0  0  0  0  0  0  0  0  0  0  0  0
  149.7846  135.0809  156.9876 C   0  0  0  0  0  0  0  0  0  0  0  0
  150.4449  135.6670  155.8275 N   0  0  0  0  0  0  0  0  0  0  0  0
  151.0951  136.8588  155.8666 C   0  0  0  0  0  0  0  0  0  0  0  0
  151.8407  137.2161  154.7881 N   0  0  0  0  0  0  0  0  0  0  0  0
  152.5037  138.3749  154.7739 C   0  0  0  0  0  0  0  0  0  0  0  0
  152.5565  139.3147  155.7176 N   0  0  0  0  0  0  0  0  0  0  0  0
  151.8071  138.9724  156.8031 C   0  0  0  0  0  0  0  0  0  0  0  0
  151.0551  137.7715  156.9632 C   0  0  0  0  0  0  0  0  0  0  0  0
  150.4361  137.7761  158.2081 N   0  0  0  0  0  0  0  0  0  0  0  0
  150.8003  138.9055  158.7485 C   0  0  0  0  0  0  0  0  0  0  0  0
  151.6110  139.6973  157.9673 N   0  0  0  0  0  0  0  0  0  0  0  0
  152.1574  141.0010  158.3235 C   0  0  0  0  0  0  0  0  0  0  0  0
  151.0877  142.0742  158.6609 C   0  0  2  0  0  0  0  0  0  0  0  0
  150.2286  142.3985  157.4147 C   0  0  0  0  0  0  0  0  0  0  0  0
  149.6020  141.2472  156.8891 O   0  0  0  0  0  0  0  0  0  0  0  0
  151.7170  143.3414  159.3038 C   0  0  2  0  0  0  0  0  0  0  0  0
  150.7127  144.2881  159.9417 C   0  0  0  0  0  0  0  0  0  0  0  0
  151.5211  145.5727  160.0865 C   0  0  0  0  0  0  0  0  0  0  0  0
  152.4464  145.5689  159.0057 O   0  0  0  0  0  0  0  0  0  0  0  0
  152.3996  144.3135  158.3360 C   0  0  0  0  0  0  0  0  0  0  0  0
  150.3247  134.8370  154.6371 C   0  0  0  0  0  0  0  0  0  0  0  0
  149.5469  133.7005  155.1030 N   0  0  0  0  0  0  0  0  0  0  0  0
  149.2145  132.6002  154.2009 C   0  0  0  0  0  0  0  0  0  0  0  0
  149.6540  131.2327  154.7542 C   0  0  0  0  0  0  0  0  0  0  0  0
  150.9039  131.3300  155.2047 F   0  0  0  0  0  0  0  0  0  0  0  0
  148.8715  130.8445  155.7608 F   0  0  0  0  0  0  0  0  0  0  0  0
  149.6204  130.3108  153.7919 F   0  0  0  0  0  0  0  0  0  0  0  0
  148.9734  135.7128  157.3515 H   0  0  0  0  0  0  0  0  0  0  0  0
  150.4892  134.8775  157.7948 H   0  0  0  0  0  0  0  0  0  0  0  0
  153.0720  138.5782  153.8784 H   0  0  0  0  0  0  0  0  0  0  0  0
  150.4797  139.1943  159.7388 H   0  0  0  0  0  0  0  0  0  0  0  0
  152.8145  140.8614  159.1828 H   0  0  0  0  0  0  0  0  0  0  0  0
  152.8056  141.3396  157.5155 H   0  0  0  0  0  0  0  0  0  0  0  0
  150.4266  141.6194  159.4004 H   0  0  0  0  0  0  0  0  0  0  0  0
  149.4747  143.1529  157.6424 H   0  0  0  0  0  0  0  0  0  0  0  0
  150.8551  142.8013  156.6187 H   0  0  0  0  0  0  0  0  0  0  0  0
  149.5947  140.5772  157.5557 H   0  0  0  0  0  0  0  0  0  0  0  0
  152.4514  143.0461  160.0544 H   0  0  0  0  0  0  0  0  0  0  0  0
  149.8692  144.4546  159.2702 H   0  0  0  0  0  0  0  0  0  0  0  0
  150.3175  143.9407  160.8947 H   0  0  0  0  0  0  0  0  0  0  0  0
  150.8932  146.4636  160.0725 H   0  0  0  0  0  0  0  0  0  0  0  0
  152.0818  145.5659  161.0219 H   0  0  0  0  0  0  0  0  0  0  0  0
  153.3999  143.9883  158.0496 H   0  0  0  0  0  0  0  0  0  0  0  0
  151.8079  144.4353  157.4276 H   0  0  0  0  0  0  0  0  0  0  0  0
  149.7968  135.3620  153.8397 H   0  0  0  0  0  0  0  0  0  0  0  0
  151.3031  134.5131  154.2794 H   0  0  0  0  0  0  0  0  0  0  0  0
  148.1372  132.5959  154.0302 H   0  0  0  0  0  0  0  0  0  0  0  0
  149.6753  132.7753  153.2274 H   0  0  0  0  0  0  0  0  0  0  0  0
  1  2  2  0  0  0  0
  2 24  1  0  0  0  0
  2  3  1  0  0  0  0
  3  4  1  0  0  0  0
  3 30  1  0  0  0  0
  3 31  1  0  0  0  0
  4  5  1  0  0  0  0
  4 23  1  0  0  0  0
  5 10  1  0  0  0  0
  5  6  2  0  0  0  0
  6  7  1  0  0  0  0
  7  8  2  0  0  0  0
  7 32  1  0  0  0  0
  8  9  1  0  0  0  0
  9 13  1  0  0  0  0
  9 10  2  0  0  0  0
 10 11  1  0  0  0  0
 11 12  2  0  0  0  0
 12 13  1  0  0  0  0
 12 33  1  0  0  0  0
 13 14  1  0  0  0  0
 14 15  1  0  0  0  0
 14 34  1  0  0  0  0
 14 35  1  0  0  0  0
 15 16  1  0  0  0  0
 15 18  1  0  0  0  0
 15 36  1  0  0  0  0
 16 17  1  0  0  0  0
 16 37  1  0  0  0  0
 16 38  1  0  0  0  0
 17 39  1  0  0  0  0
 18 22  1  0  0  0  0
 18 19  1  0  0  0  0
 18 40  1  0  0  0  0
 19 20  1  0  0  0  0
 19 41  1  0  0  0  0
 19 42  1  0  0  0  0
 20 21  1  0  0  0  0
 20 43  1  0  0  0  0
 20 44  1  0  0  0  0
 21 22  1  0  0  0  0
 22 45  1  0  0  0  0
 22 46  1  0  0  0  0
 23 24  1  0  0  0  0
 23 47  1  0  0  0  0
 23 48  1  0  0  0  0
 24 25  1  0  0  0  0
 25 26  1  0  0  0  0
 25 49  1  0  0  0  0
 25 50  1  0  0  0  0
 26 27  1  0  0  0  0
 26 28  1  0  0  0  0
 26 29  1  0  0  0  0
M  END
> <s_m_source_file>
AV-unprocessed.smi

> <i_m_source_file_index>
254

> <i_lp_mmshare_version>
43012

> <i_f3d_flags>
0

> <s_epik_input>
RkMoRikoRilbQ0gyXU4xW0NIMl1OKFtDSDJdQzE9TyljKG5bY0hdbjIpYyhjMjMpbltjSF1uM1tDSDJdW0NASF0oW0NIMl1bT0hdKVtDQEBIXTRbQ0gyXVtDSDJdT1tDSDJdNA==

> <s_epik_cmdline>
J2VwaWtfcHl0aG9uJywgJy1waCcsICc3LjAnLCAnLXRuJywgJzgnLCAnLW1hJywgJzIwMCcsICctbWV0YWxfYmluZGluZycsICctaW1hZScsICc8aW5maWxlLm1hZT4nLCAnLW9tYWUnLCAnPG91dGZpbGUubWFlPic=

> <r_lp_tautomer_probability>
1

> <r_epik_Ionization_Penalty>
0.000292924

> <r_epik_Ionization_Penalty_Charging>
0

> <r_epik_Ionization_Penalty_Neutral>
0.000292924

> <r_epik_State_Penalty>
-0

> <r_epik_Charging_Adjusted_Penalty>
0

> <i_epik_Tot_Q>
0

> <i_epik_Tot_abs_Q>
0

> <r_epik_Metal_State_Penalty>
-0

> <b_epik_Metal_Only>
0

> <s_epik_Chemistry_Notes>
This compound contains an acetal/aminal-like group ( X-CH(R)-Y where X, Y are N, S, or O) that may be acid/base labile, releasing an aldehyde.

> <s_lp_Force_Field>
OPLS_2005

> <r_lp_Energy>
38.7096

> <b_lp_Chiralities_Consistent>
1

> <s_lp_Variant>
AV-unprocessed.smi:254-1

> <Gold.Version>
5.8.1

> <Gold.Id.Protein>
6NUR|6NUR_protein|mol2

> <Gold.PLP.Fitness>
50.8720

> <Gold.PLP.PLP>
-45.4554

> <Gold.PLP.part.hbond>
-2.4344

> <Gold.PLP.part.metal>
0.0000

> <Gold.PLP.part.buried>
-5.0164

> <Gold.PLP.part.nonpolar>
-38.3787

> <Gold.PLP.part.repulsive>
0.1721

> <Gold.PLP.ligand.clash>
0.0000

> <Gold.PLP.ligand.torsion>
0.4463

> <Gold.PLP.Chemscore.Hbond>
1.9263

> <Gold.PLP.Chemscore.CHOScore>
0.0000

> <Gold.PLP.Chemscore.Metal>
0.0000

> <Gold.Chemscore.Hbonds>
donor molecule, donor type, donor heavy atom, donor atom, acceptor molecule, acceptor atom, score
      P1  H  7997  8009       L1     8  0.93
      P1  H 10752 10765       L1     6  1.00

> <Gold.PLP.Chemscore.Internal.Correction>
0.5306

> <Gold.Rescore>
     Score         DG    S(hbond)    S(metal)    S(lipo)     H(rot)  DE(clash)    DE(int)     intcor
      6.49     -10.97       1.48        0.00      76.74       3.30       0.13       4.35       ----

> <Gold.Chemscore.Fitness>
6.4860

> <Gold.Chemscore.DG>
-10.9688

> <Gold.Chemscore.ZeroCoef>
-5.4800

> <Gold.Chemscore.Hbond>
1.4825

> <Gold.Chemscore.Metal>
0.0000

> <Gold.Chemscore.Lipo>
76.7412

> <Gold.Chemscore.Internal_Hbond>
0.0000

> <Gold.Chemscore.DEClash>
0.1298

> <Gold.Chemscore.DEInternal>
4.3529

> <Gold.Chemscore.Rot>
3.2974

> <Gold.Chemscore.Internal.Correction>
   9.000000E+99

> <Gold.Chemscore.Hbonds>
donor molecule, donor type, donor heavy atom, donor atom, acceptor molecule, acceptor atom, score
      P1  H  7997  8009       L1     8  0.61
      P1  H 10752 10765       L1     6  0.38

> <Gold.Chemscore.Hbond.Weighted>
-4.9515

> <Gold.Chemscore.Metal.Weighted>
-0.0000

> <Gold.Chemscore.Lipo.Weighted>
-8.9787

> <Gold.Chemscore.Internal_Hbond.Weighted>
0.0000

> <Gold.Chemscore.DEClash.Weighted>
0.1298

> <Gold.Chemscore.DEInternal.Weighted>
4.3529

> <Gold.Chemscore.Rot.Weighted>
8.4414

> <Gold.Chemscore.Internal.Correction.Weighted>
   9.000000E+99

> <Gold.Protein.RotatedTorsions>
[ 6907 6896 6895 6894 ] final  142.13 input  -60.11 | X-H torsion
[ 7974 7965 7964 7962 ] final  129.70 input  175.53 | X-H torsion
[ 8008 7997 7996 7995 ] final -165.76 input   59.86 | X-H torsion
[ 10167 10162 10161 10158 ] final  169.33 input  -65.29 | X-H torsion
[ 10718 10713 10712 10709 ] final   18.14 input   66.30 | X-H torsion
[ 10763 10752 10751 10750 ] final  171.51 input  -60.55 | X-H torsion
[ 11005 11000 10999 10996 ] final -134.03 input  -57.11 | X-H torsion

> <Gold.Protein.ActiveResidues>
 VAL166  LYS551  ARG553  GLY616  TRP617  ASP618  TYR619  PRO620  LYS621  CYS622 
 ASP623  PHE694  ASN695  SER759  ASP760  ASP761  ALA762  ILE779  LEU786  VAL792 
 PHE793  MET794  SER795  GLU796  ALA797  LYS798  CYS799  TRP800  GLU811  SER814 

> <Gold.Protein.RotatedAtoms>
  152.2226  133.4995  159.5170 H   0  0  0  0  0  0  0  0  0  0  0  0  # atno 6907 bound_to 6896
  150.7016  134.1323  159.4083 H   0  0  0  0  0  0  0  0  0  0  0  0  # atno 6908 bound_to 6896
  151.9244  135.0284  160.0575 H   0  0  0  0  0  0  0  0  0  0  0  0  # atno 6909 bound_to 6896
  145.0259  139.4090  143.5174 H   0  0  0  0  0  0  0  0  0  0  0  0  # atno 7974 bound_to 7965
  155.8544  140.0968  157.1654 H   0  0  0  0  0  0  0  0  0  0  0  0  # atno 8008 bound_to 7997
  154.3987  140.1377  156.3946 H   0  0  0  0  0  0  0  0  0  0  0  0  # atno 8009 bound_to 7997
  155.7926  140.3455  155.5360 H   0  0  0  0  0  0  0  0  0  0  0  0  # atno 8010 bound_to 7997
  139.4989  144.3718  151.9716 H   0  0  0  0  0  0  0  0  0  0  0  0  # atno 10167 bound_to 10162
  157.0920  130.6432  149.5851 H   0  0  0  0  0  0  0  0  0  0  0  0  # atno 10718 bound_to 10713
  154.4130  135.2756  155.2025 H   0  0  0  0  0  0  0  0  0  0  0  0  # atno 10763 bound_to 10752
  154.4003  135.6046  153.5897 H   0  0  0  0  0  0  0  0  0  0  0  0  # atno 10764 bound_to 10752
  152.9831  135.5924  154.4414 H   0  0  0  0  0  0  0  0  0  0  0  0  # atno 10765 bound_to 10752
  140.9027  134.1670  157.4448 H   0  0  0  0  0  0  0  0  0  0  0  0  # atno 11005 bound_to 11000
  146.3492  139.9782  142.8698 LP  0  0  0  0  0  0  0  0  0  0  0  0  # atno 17320 bound_to 7965
  145.1835  140.9778  143.4252 LP  0  0  0  0  0  0  0  0  0  0  0  0  # atno 17321 bound_to 7965
  140.3154  144.3490  150.6023 LP  0  0  0  0  0  0  0  0  0  0  0  0  # atno 17342 bound_to 10162
  140.5765  143.2176  151.7505 LP  0  0  0  0  0  0  0  0  0  0  0  0  # atno 17343 bound_to 10162
  155.9895  130.4943  150.7218 LP  0  0  0  0  0  0  0  0  0  0  0  0  # atno 17370 bound_to 10713
  157.4713  131.0893  151.0639 LP  0  0  0  0  0  0  0  0  0  0  0  0  # atno 17371 bound_to 10713
  139.8744  134.9904  156.5503 LP  0  0  0  0  0  0  0  0  0  0  0  0  # atno 17394 bound_to 11000
  140.8210  133.8354  155.8895 LP  0  0  0  0  0  0  0  0  0  0  0  0  # atno 17395 bound_to 11000

$$$$
