AV-unprocessed.smi:1554|AV-procd|sdf|6241|dock4
  -GOLD-   22720 6423D 1   1.00000     0.00000
 Structure written by MMmdl.
 47 49  0  0  0  0  0  0  0  0  1 V2000
  151.9832  144.5218  160.8893 C   0  0  0  0  0  0  0  0  0  0  0  0
  152.4144  143.1187  160.5004 C   0  0  0  0  0  0  0  0  0  0  0  0
  153.2806  142.4035  161.3579 C   0  0  0  0  0  0  0  0  0  0  0  0
  153.7020  141.0952  161.0344 C   0  0  0  0  0  0  0  0  0  0  0  0
  154.5309  140.2229  161.7192 N   0  0  0  0  0  0  0  0  0  0  0  0
  154.5357  139.1673  160.9106 C   0  0  0  0  0  0  0  0  0  0  0  0
  153.8067  139.2519  159.7813 N   0  0  0  0  0  0  0  0  0  0  0  0
  153.6644  138.2318  158.7572 C   0  0  0  0  0  0  0  0  0  0  0  0
  152.3241  137.4788  158.8555 C   0  0  1  0  0  0  0  0  0  0  0  0
  152.1389  137.0353  160.1858 O   0  0  0  0  0  0  0  0  0  0  0  0
  151.1387  138.3872  158.4693 C   0  0  0  0  0  0  0  0  0  0  0  0
  151.3349  139.2177  157.2792 N   0  0  0  0  0  0  0  0  0  0  0  0
  151.8785  138.4277  156.1800 C   0  0  0  0  0  0  0  0  0  0  0  0
  152.0984  139.2745  154.9155 C   0  0  0  0  0  0  0  0  0  0  0  0
  150.8704  139.8865  154.5363 O   0  0  0  0  0  0  0  0  0  0  0  0
  150.3238  140.7124  155.5606 C   0  0  1  0  0  0  0  0  0  0  0  0
  149.0204  141.3277  155.0403 C   0  0  0  0  0  0  0  0  0  0  0  0
  150.1036  139.8662  156.8305 C   0  0  0  0  0  0  0  0  0  0  0  0
  153.2315  140.5178  159.8187 C   0  0  0  0  0  0  0  0  0  0  0  0
  152.3692  141.2192  158.9577 C   0  0  0  0  0  0  0  0  0  0  0  0
  151.9567  142.5249  159.2967 C   0  0  0  0  0  0  0  0  0  0  0  0
  151.0227  143.2729  158.3620 C   0  0  0  0  0  0  0  0  0  0  0  0
  152.4354  144.8303  161.8323 H   0  0  0  0  0  0  0  0  0  0  0  0
  150.9002  144.5697  161.0061 H   0  0  0  0  0  0  0  0  0  0  0  0
  152.2816  145.2401  160.1252 H   0  0  0  0  0  0  0  0  0  0  0  0
  153.6287  142.8548  162.2753 H   0  0  0  0  0  0  0  0  0  0  0  0
  155.1011  138.2793  161.1530 H   0  0  0  0  0  0  0  0  0  0  0  0
  153.7719  138.7001  157.7778 H   0  0  0  0  0  0  0  0  0  0  0  0
  154.4953  137.5324  158.8587 H   0  0  0  0  0  0  0  0  0  0  0  0
  152.3748  136.6068  158.2050 H   0  0  0  0  0  0  0  0  0  0  0  0
  151.2384  137.1862  160.4295 H   0  0  0  0  0  0  0  0  0  0  0  0
  150.2626  137.7526  158.3261 H   0  0  0  0  0  0  0  0  0  0  0  0
  150.8957  139.0346  159.3133 H   0  0  0  0  0  0  0  0  0  0  0  0
  152.8268  137.9797  156.4796 H   0  0  0  0  0  0  0  0  0  0  0  0
  151.2032  137.6027  155.9473 H   0  0  0  0  0  0  0  0  0  0  0  0
  152.8572  140.0392  155.0882 H   0  0  0  0  0  0  0  0  0  0  0  0
  152.4534  138.6490  154.0965 H   0  0  0  0  0  0  0  0  0  0  0  0
  151.0284  141.5173  155.7774 H   0  0  0  0  0  0  0  0  0  0  0  0
  148.5701  141.9818  155.7874 H   0  0  0  0  0  0  0  0  0  0  0  0
  148.2928  140.5559  154.7880 H   0  0  0  0  0  0  0  0  0  0  0  0
  149.2008  141.9218  154.1444 H   0  0  0  0  0  0  0  0  0  0  0  0
  149.3394  139.1117  156.6364 H   0  0  0  0  0  0  0  0  0  0  0  0
  149.7099  140.5157  157.6106 H   0  0  0  0  0  0  0  0  0  0  0  0
  152.0258  140.7542  158.0454 H   0  0  0  0  0  0  0  0  0  0  0  0
  150.7819  142.6780  157.4805 H   0  0  0  0  0  0  0  0  0  0  0  0
  151.4831  144.2012  158.0227 H   0  0  0  0  0  0  0  0  0  0  0  0
  150.0883  143.5136  158.8692 H   0  0  0  0  0  0  0  0  0  0  0  0
  1  2  1  0  0  0  0
  1 23  1  0  0  0  0
  1 24  1  0  0  0  0
  1 25  1  0  0  0  0
  2 21  1  0  0  0  0
  2  3  2  0  0  0  0
  3  4  1  0  0  0  0
  3 26  1  0  0  0  0
  4 19  2  0  0  0  0
  4  5  1  0  0  0  0
  5  6  2  0  0  0  0
  6  7  1  0  0  0  0
  6 27  1  0  0  0  0
  7  8  1  0  0  0  0
  7 19  1  0  0  0  0
  8  9  1  0  0  0  0
  8 28  1  0  0  0  0
  8 29  1  0  0  0  0
  9 10  1  0  0  0  0
  9 11  1  0  0  0  0
  9 30  1  0  0  0  0
 10 31  1  0  0  0  0
 11 12  1  0  0  0  0
 11 32  1  0  0  0  0
 11 33  1  0  0  0  0
 12 18  1  0  0  0  0
 12 13  1  0  0  0  0
 13 14  1  0  0  0  0
 13 34  1  0  0  0  0
 13 35  1  0  0  0  0
 14 15  1  0  0  0  0
 14 36  1  0  0  0  0
 14 37  1  0  0  0  0
 15 16  1  0  0  0  0
 16 17  1  0  0  0  0
 16 18  1  0  0  0  0
 16 38  1  0  0  0  0
 17 39  1  0  0  0  0
 17 40  1  0  0  0  0
 17 41  1  0  0  0  0
 18 42  1  0  0  0  0
 18 43  1  0  0  0  0
 19 20  1  0  0  0  0
 20 21  2  0  0  0  0
 20 44  1  0  0  0  0
 21 22  1  0  0  0  0
 22 45  1  0  0  0  0
 22 46  1  0  0  0  0
 22 47  1  0  0  0  0
M  END
> <s_m_source_file>
AV-unprocessed.smi

> <i_m_source_file_index>
1554

> <i_lp_mmshare_version>
43012

> <i_f3d_flags>
0

> <s_epik_input>
W0NIM11jKFtjSF0xKWMoW0NIM10pW2NIXWMoYzEyKW4oW2NIXW4yKVtDSDJdW0NASF0oW09IXSlbQ0gyXU4zW0NIMl1bQ0gyXU9bQ0BASF0oW0NIM10pW0NIMl0z

> <s_epik_cmdline>
J2VwaWtfcHl0aG9uJywgJy1waCcsICc3LjAnLCAnLXRuJywgJzgnLCAnLW1hJywgJzIwMCcsICctbWV0YWxfYmluZGluZycsICctaW1hZScsICc8aW5maWxlLm1hZT4nLCAnLW9tYWUnLCAnPG91dGZpbGUubWFlPic=

> <r_epik_Ionization_Penalty>
0.345108

> <r_epik_Ionization_Penalty_Charging>
0

> <r_epik_Ionization_Penalty_Neutral>
0.345108

> <r_epik_State_Penalty>
0.314544

> <r_epik_Charging_Adjusted_Penalty>
0.314544

> <i_epik_Tot_Q>
0

> <i_epik_Tot_abs_Q>
0

> <r_epik_Metal_State_Penalty>
0.239719

> <b_epik_Metal_Only>
0

> <s_lp_Force_Field>
OPLS_2005

> <r_lp_Energy>
29.8053

> <b_lp_Chiralities_Consistent>
1

> <s_lp_Variant>
AV-unprocessed.smi:1554-2

> <Gold.Version>
5.8.1

> <Gold.Id.Protein>
6NUR|6NUR_protein|mol2

> <Gold.PLP.Fitness>
47.1885

> <Gold.PLP.PLP>
-42.5695

> <Gold.PLP.part.hbond>
-1.9821

> <Gold.PLP.part.metal>
0.0000

> <Gold.PLP.part.buried>
-4.1453

> <Gold.PLP.part.nonpolar>
-36.7498

> <Gold.PLP.part.repulsive>
0.1092

> <Gold.PLP.ligand.clash>
0.0000

> <Gold.PLP.ligand.torsion>
0.4775

> <Gold.PLP.Chemscore.Hbond>
1.8500

> <Gold.PLP.Chemscore.CHOScore>
0.0000

> <Gold.PLP.Chemscore.Metal>
0.0000

> <Gold.Chemscore.Hbonds>
donor molecule, donor type, donor heavy atom, donor atom, acceptor molecule, acceptor atom, score
      P1  H  6896  6908       L1    10  0.45
      P1  H  7989  7998       L1    15  0.55

> <Gold.PLP.Chemscore.Internal.Correction>
0.0239

> <Gold.Rescore>
     Score         DG    S(hbond)    S(metal)    S(lipo)     H(rot)  DE(clash)    DE(int)     intcor
     16.49     -17.05       0.61        0.00     124.88       1.98       0.14       0.42       ----

> <Gold.Chemscore.Fitness>
16.4880

> <Gold.Chemscore.DG>
-17.0453

> <Gold.Chemscore.ZeroCoef>
-5.4800

> <Gold.Chemscore.Hbond>
0.6092

> <Gold.Chemscore.Metal>
0.0000

> <Gold.Chemscore.Lipo>
124.8849

> <Gold.Chemscore.Internal_Hbond>
0.0000

> <Gold.Chemscore.DEClash>
0.1407

> <Gold.Chemscore.DEInternal>
0.4165

> <Gold.Chemscore.Rot>
1.9848

> <Gold.Chemscore.Internal.Correction>
   9.000000E+99

> <Gold.Chemscore.Hbonds>
donor molecule, donor type, donor heavy atom, donor atom, acceptor molecule, acceptor atom, score
      P1  H  6896  6908       L1    10  0.01
      P1  H  7989  7998       L1    15  0.02

> <Gold.Chemscore.Hbond.Weighted>
-2.0348

> <Gold.Chemscore.Metal.Weighted>
-0.0000

> <Gold.Chemscore.Lipo.Weighted>
-14.6115

> <Gold.Chemscore.Internal_Hbond.Weighted>
0.0000

> <Gold.Chemscore.DEClash.Weighted>
0.1407

> <Gold.Chemscore.DEInternal.Weighted>
0.4165

> <Gold.Chemscore.Rot.Weighted>
5.0810

> <Gold.Chemscore.Internal.Correction.Weighted>
   9.000000E+99

> <Gold.Protein.RotatedTorsions>
[ 6907 6896 6895 6894 ] final -110.05 input  -60.11 | X-H torsion
[ 7974 7965 7964 7962 ] final   77.74 input  175.53 | X-H torsion
[ 8008 7997 7996 7995 ] final   21.08 input   59.86 | X-H torsion
[ 10167 10162 10161 10158 ] final    0.34 input  -65.29 | X-H torsion
[ 10718 10713 10712 10709 ] final  -24.07 input   66.30 | X-H torsion
[ 10763 10752 10751 10750 ] final  107.78 input  -60.55 | X-H torsion
[ 11005 11000 10999 10996 ] final   -0.25 input  -57.11 | X-H torsion

> <Gold.Protein.ActiveResidues>
 VAL166  LYS551  ARG553  GLY616  TRP617  ASP618  TYR619  PRO620  LYS621  CYS622 
 ASP623  PHE694  ASN695  SER759  ASP760  ASP761  ALA762  ILE779  LEU786  VAL792 
 PHE793  MET794  SER795  GLU796  ALA797  LYS798  CYS799  TRP800  GLU811  SER814 

> <Gold.Protein.RotatedAtoms>
  150.7600  133.9439  159.3464 H   0  0  0  0  0  0  0  0  0  0  0  0  # atno 6907 bound_to 6896
  151.7350  135.0864  160.0316 H   0  0  0  0  0  0  0  0  0  0  0  0  # atno 6908 bound_to 6896
  152.3565  133.6206  159.6019 H   0  0  0  0  0  0  0  0  0  0  0  0  # atno 6909 bound_to 6896
  145.6861  139.2538  143.1786 H   0  0  0  0  0  0  0  0  0  0  0  0  # atno 7974 bound_to 7965
  154.9452  140.3058  155.5101 H   0  0  0  0  0  0  0  0  0  0  0  0  # atno 8008 bound_to 7997
  156.2992  140.2329  156.4462 H   0  0  0  0  0  0  0  0  0  0  0  0  # atno 8009 bound_to 7997
  154.8107  140.0428  157.1329 H   0  0  0  0  0  0  0  0  0  0  0  0  # atno 8010 bound_to 7997
  140.6733  143.6988  150.7968 H   0  0  0  0  0  0  0  0  0  0  0  0  # atno 10167 bound_to 10162
  156.4826  130.4548  149.6802 H   0  0  0  0  0  0  0  0  0  0  0  0  # atno 10718 bound_to 10713
  153.4115  135.3833  155.2053 H   0  0  0  0  0  0  0  0  0  0  0  0  # atno 10763 bound_to 10752
  154.8738  135.3795  154.4495 H   0  0  0  0  0  0  0  0  0  0  0  0  # atno 10764 bound_to 10752
  153.5004  135.7088  153.5897 H   0  0  0  0  0  0  0  0  0  0  0  0  # atno 10765 bound_to 10752
  140.6342  133.9548  155.8291 H   0  0  0  0  0  0  0  0  0  0  0  0  # atno 11005 bound_to 11000
  146.0922  140.7642  142.9590 LP  0  0  0  0  0  0  0  0  0  0  0  0  # atno 17320 bound_to 7965
  144.7011  140.3655  143.7155 LP  0  0  0  0  0  0  0  0  0  0  0  0  # atno 17321 bound_to 7965
  140.0677  143.5092  152.2596 LP  0  0  0  0  0  0  0  0  0  0  0  0  # atno 17342 bound_to 10162
  139.6012  144.7583  151.3168 LP  0  0  0  0  0  0  0  0  0  0  0  0  # atno 17343 bound_to 10162
  156.3506  130.7430  151.2389 LP  0  0  0  0  0  0  0  0  0  0  0  0  # atno 17370 bound_to 10713
  157.7482  131.0378  150.4473 LP  0  0  0  0  0  0  0  0  0  0  0  0  # atno 17371 bound_to 10713
  141.0653  134.0285  157.3602 LP  0  0  0  0  0  0  0  0  0  0  0  0  # atno 17394 bound_to 11000
  139.9104  135.0189  156.7669 LP  0  0  0  0  0  0  0  0  0  0  0  0  # atno 17395 bound_to 11000

$$$$
