AV-unprocessed.smi:1826|AV-procd|sdf|7418|dock10
  -GOLD-   22720 9103D 1   1.00000     0.00000
 Structure written by MMmdl.
 40 42  0  0  0  0  0  0  0  0  2 V2000
  149.2977  142.4323  154.3888 O   0  0  0  0  0  0  0  0  0  0  0  0
  149.9766  141.4456  155.1379 C   0  0  0  0  0  0  0  0  0  0  0  0
  150.5765  141.9718  156.4027 C   0  0  0  0  0  0  0  0  0  0  0  0
  150.4688  143.2435  156.8834 N   0  3  0  0  0  0  0  0  0  0  0  0
  151.1775  143.3603  158.0792 C   0  0  0  0  0  0  0  0  0  0  0  0
  151.3637  144.4490  158.9254 C   0  0  0  0  0  0  0  0  0  0  0  0
  152.1542  144.2305  160.0729 C   0  0  0  0  0  0  0  0  0  0  0  0
  152.7230  142.9688  160.3432 C   0  0  0  0  0  0  0  0  0  0  0  0
  152.5252  141.8722  159.4785 C   0  0  0  0  0  0  0  0  0  0  0  0
  151.7432  142.0967  158.3457 C   0  0  0  0  0  0  0  0  0  0  0  0
  151.3433  141.2722  157.2877 N   0  0  0  0  0  0  0  0  0  0  0  0
  151.7823  139.8661  157.2597 C   0  0  0  0  0  0  0  0  0  0  0  0
  151.9085  139.2500  155.8405 C   0  0  1  0  0  0  0  0  0  0  0  0
  153.2212  139.3408  155.3140 O   0  0  0  0  0  0  0  0  0  0  0  0
  151.3596  137.8309  155.7934 C   0  0  0  0  0  0  0  0  0  0  0  0
  151.3480  137.0436  156.9640 C   0  0  0  0  0  0  0  0  0  0  0  0
  150.8506  135.7263  156.9312 C   0  0  0  0  0  0  0  0  0  0  0  0
  150.3575  135.1788  155.7273 C   0  0  0  0  0  0  0  0  0  0  0  0
  149.8297  133.7521  155.6920 C   0  0  0  0  0  0  0  0  0  0  0  0
  150.7285  132.8966  156.1802 F   0  0  0  0  0  0  0  0  0  0  0  0
  148.7218  133.6764  156.4284 F   0  0  0  0  0  0  0  0  0  0  0  0
  149.5414  133.3858  154.4428 F   0  0  0  0  0  0  0  0  0  0  0  0
  150.3796  135.9631  154.5539 C   0  0  0  0  0  0  0  0  0  0  0  0
  150.8755  137.2806  154.5866 C   0  0  0  0  0  0  0  0  0  0  0  0
  149.4808  143.2778  154.7695 H   0  0  0  0  0  0  0  0  0  0  0  0
  149.2797  140.6429  155.3797 H   0  0  0  0  0  0  0  0  0  0  0  0
  150.7664  141.0164  154.5211 H   0  0  0  0  0  0  0  0  0  0  0  0
  150.9297  145.4164  158.7188 H   0  0  0  0  0  0  0  0  0  0  0  0
  152.3283  145.0470  160.7585 H   0  0  0  0  0  0  0  0  0  0  0  0
  153.3240  142.8388  161.2315 H   0  0  0  0  0  0  0  0  0  0  0  0
  152.9664  140.9111  159.6959 H   0  0  0  0  0  0  0  0  0  0  0  0
  152.7154  139.7822  157.8177 H   0  0  0  0  0  0  0  0  0  0  0  0
  151.0577  139.2933  157.8392 H   0  0  0  0  0  0  0  0  0  0  0  0
  151.2957  139.8512  155.1674 H   0  0  0  0  0  0  0  0  0  0  0  0
  153.3662  138.6006  154.7443 H   0  0  0  0  0  0  0  0  0  0  0  0
  151.7235  137.4467  157.8932 H   0  0  0  0  0  0  0  0  0  0  0  0
  150.8520  135.1358  157.8357 H   0  0  0  0  0  0  0  0  0  0  0  0
  150.0178  135.5573  153.6207 H   0  0  0  0  0  0  0  0  0  0  0  0
  150.8859  137.8639  153.6774 H   0  0  0  0  0  0  0  0  0  0  0  0
  149.9499  143.9760  156.4160 H   0  0  0  0  0  0  0  0  0  0  0  0
  1  2  1  0  0  0  0
  1 25  1  0  0  0  0
  2  3  1  0  0  0  0
  2 26  1  0  0  0  0
  2 27  1  0  0  0  0
  3 11  1  0  0  0  0
  3  4  2  0  0  0  0
  4  5  1  0  0  0  0
  4 40  1  0  0  0  0
  5 10  2  0  0  0  0
  5  6  1  0  0  0  0
  6  7  2  0  0  0  0
  6 28  1  0  0  0  0
  7  8  1  0  0  0  0
  7 29  1  0  0  0  0
  8  9  2  0  0  0  0
  8 30  1  0  0  0  0
  9 10  1  0  0  0  0
  9 31  1  0  0  0  0
 10 11  1  0  0  0  0
 11 12  1  0  0  0  0
 12 13  1  0  0  0  0
 12 32  1  0  0  0  0
 12 33  1  0  0  0  0
 13 14  1  0  0  0  0
 13 15  1  0  0  0  0
 13 34  1  0  0  0  0
 14 35  1  0  0  0  0
 15 24  1  0  0  0  0
 15 16  2  0  0  0  0
 16 17  1  0  0  0  0
 16 36  1  0  0  0  0
 17 18  2  0  0  0  0
 17 37  1  0  0  0  0
 18 19  1  0  0  0  0
 18 23  1  0  0  0  0
 19 20  1  0  0  0  0
 19 21  1  0  0  0  0
 19 22  1  0  0  0  0
 23 24  2  0  0  0  0
 23 38  1  0  0  0  0
 24 39  1  0  0  0  0
M  CHG  1   4   1
M  END
> <s_m_source_file>
AV-unprocessed.smi

> <i_m_source_file_index>
1826

> <i_lp_mmshare_version>
43012

> <i_f3d_flags>
0

> <s_epik_input>
W2NIXTFbY0hdW2NIXVtjSF1jKGMxMiluKGMobjIpW0NIMl1bT0hdKVtDSDJdW0NASF0oW09IXSljM1tjSF1bY0hdYyhDKEYpKEYpRilbY0hdW2NIXTM=

> <s_epik_cmdline>
J2VwaWtfcHl0aG9uJywgJy1waCcsICc3LjAnLCAnLXRuJywgJzgnLCAnLW1hJywgJzIwMCcsICctbWV0YWxfYmluZGluZycsICctaW1hZScsICc8aW5maWxlLm1hZT4nLCAnLW9tYWUnLCAnPG91dGZpbGUubWFlPic=

> <r_epik_Ionization_Penalty>
1.35643

> <r_epik_Ionization_Penalty_Charging>
1.35557

> <r_epik_Ionization_Penalty_Neutral>
0.000856405

> <r_epik_State_Penalty>
1.43401

> <r_epik_Charging_Adjusted_Penalty>
2.78958

> <i_epik_Tot_Q>
1

> <i_epik_Tot_abs_Q>
1

> <r_epik_Metal_State_Penalty>
5.47166

> <b_epik_Metal_Only>
0

> <s_lp_Force_Field>
OPLS_2005

> <r_lp_Energy>
22.2169

> <b_lp_Chiralities_Consistent>
1

> <s_lp_Variant>
AV-unprocessed.smi:1826-4

> <Gold.Version>
5.8.1

> <Gold.Id.Protein>
6NUR|6NUR_protein|mol2

> <Gold.PLP.Fitness>
58.9232

> <Gold.PLP.PLP>
-49.9457

> <Gold.PLP.part.hbond>
-3.9956

> <Gold.PLP.part.metal>
0.0000

> <Gold.PLP.part.buried>
-4.8463

> <Gold.PLP.part.nonpolar>
-40.5823

> <Gold.PLP.part.repulsive>
0.0291

> <Gold.PLP.ligand.clash>
1.3572

> <Gold.PLP.ligand.torsion>
1.6141

> <Gold.PLP.Chemscore.Hbond>
4.0808

> <Gold.PLP.Chemscore.CHOScore>
0.0000

> <Gold.PLP.Chemscore.Metal>
0.0000

> <Gold.Chemscore.Hbonds>
donor molecule, donor type, donor heavy atom, donor atom, acceptor molecule, acceptor atom, score
      L1  H     1    25       P1  8028  0.98
      L1  H     4    40       P1  8028  1.79
      P1  H  7997  8010       L1    14  1.00
      P1  H  8011  8017       L1     1  0.11

> <Gold.PLP.Chemscore.Internal.Correction>
1.3205

> <Gold.Rescore>
     Score         DG    S(hbond)    S(metal)    S(lipo)     H(rot)  DE(clash)    DE(int)     intcor
     19.93     -22.25       2.95        0.00     124.39       2.98       0.05       2.27       ----

> <Gold.Chemscore.Fitness>
19.9312

> <Gold.Chemscore.DG>
-22.2511

> <Gold.Chemscore.ZeroCoef>
-5.4800

> <Gold.Chemscore.Hbond>
2.9498

> <Gold.Chemscore.Metal>
0.0000

> <Gold.Chemscore.Lipo>
124.3861

> <Gold.Chemscore.Internal_Hbond>
0.0000

> <Gold.Chemscore.DEClash>
0.0538

> <Gold.Chemscore.DEInternal>
2.2660

> <Gold.Chemscore.Rot>
2.9822

> <Gold.Chemscore.Internal.Correction>
   9.000000E+99

> <Gold.Chemscore.Hbonds>
donor molecule, donor type, donor heavy atom, donor atom, acceptor molecule, acceptor atom, score
      L1  H     1    25       P1  8028  0.93
      L1  H     4    40       P1  8028  0.87
      P1  H  7997  8010       L1    14  0.97
      P1  H  8011  8017       L1     1  0.08

> <Gold.Chemscore.Hbond.Weighted>
-9.8522

> <Gold.Chemscore.Metal.Weighted>
-0.0000

> <Gold.Chemscore.Lipo.Weighted>
-14.5532

> <Gold.Chemscore.Internal_Hbond.Weighted>
0.0000

> <Gold.Chemscore.DEClash.Weighted>
0.0538

> <Gold.Chemscore.DEInternal.Weighted>
2.2660

> <Gold.Chemscore.Rot.Weighted>
7.6343

> <Gold.Chemscore.Internal.Correction.Weighted>
   9.000000E+99

> <Gold.Protein.RotatedTorsions>
[ 6907 6896 6895 6894 ] final  -34.51 input  -60.11 | X-H torsion
[ 7974 7965 7964 7962 ] final  165.82 input  175.53 | X-H torsion
[ 8008 7997 7996 7995 ] final   99.24 input   59.86 | X-H torsion
[ 10167 10162 10161 10158 ] final  178.73 input  -65.29 | X-H torsion
[ 10718 10713 10712 10709 ] final  -16.79 input   66.30 | X-H torsion
[ 10763 10752 10751 10750 ] final  -50.65 input  -60.55 | X-H torsion
[ 11005 11000 10999 10996 ] final   71.05 input  -57.11 | X-H torsion

> <Gold.Protein.ActiveResidues>
 VAL166  LYS551  ARG553  GLY616  TRP617  ASP618  TYR619  PRO620  LYS621  CYS622 
 ASP623  PHE694  ASN695  SER759  ASP760  ASP761  ALA762  ILE779  LEU786  VAL792 
 PHE793  MET794  SER795  GLU796  ALA797  LYS798  CYS799  TRP800  GLU811  SER814 

> <Gold.Protein.RotatedAtoms>
  151.0517  134.9677  159.8214 H   0  0  0  0  0  0  0  0  0  0  0  0  # atno 6907 bound_to 6896
  152.5382  134.2529  159.8915 H   0  0  0  0  0  0  0  0  0  0  0  0  # atno 6908 bound_to 6896
  151.2545  133.4290  159.2647 H   0  0  0  0  0  0  0  0  0  0  0  0  # atno 6909 bound_to 6896
  144.7487  139.8525  143.6373 H   0  0  0  0  0  0  0  0  0  0  0  0  # atno 7974 bound_to 7965
  156.1085  140.3231  155.8040 H   0  0  0  0  0  0  0  0  0  0  0  0  # atno 8008 bound_to 7997
  155.4713  140.0547  157.2996 H   0  0  0  0  0  0  0  0  0  0  0  0  # atno 8009 bound_to 7997
  154.4744  140.2026  155.9929 H   0  0  0  0  0  0  0  0  0  0  0  0  # atno 8010 bound_to 7997
  139.5306  144.2645  152.0679 H   0  0  0  0  0  0  0  0  0  0  0  0  # atno 10167 bound_to 10162
  156.5826  130.4778  149.6314 H   0  0  0  0  0  0  0  0  0  0  0  0  # atno 10718 bound_to 10713
  154.1139  135.6545  153.4890 H   0  0  0  0  0  0  0  0  0  0  0  0  # atno 10763 bound_to 10752
  153.0247  135.5254  154.7165 H   0  0  0  0  0  0  0  0  0  0  0  0  # atno 10764 bound_to 10752
  154.6353  135.2981  155.0138 H   0  0  0  0  0  0  0  0  0  0  0  0  # atno 10765 bound_to 10752
  139.9564  134.7136  156.0743 H   0  0  0  0  0  0  0  0  0  0  0  0  # atno 11005 bound_to 11000
  146.1406  139.4461  143.0111 LP  0  0  0  0  0  0  0  0  0  0  0  0  # atno 17320 bound_to 7965
  145.7024  141.0131  143.1497 LP  0  0  0  0  0  0  0  0  0  0  0  0  # atno 17321 bound_to 7965
  140.2108  144.4565  150.6387 LP  0  0  0  0  0  0  0  0  0  0  0  0  # atno 17342 bound_to 10162
  140.6481  143.2218  151.6139 LP  0  0  0  0  0  0  0  0  0  0  0  0  # atno 17343 bound_to 10162
  156.2618  130.6967  151.1738 LP  0  0  0  0  0  0  0  0  0  0  0  0  # atno 17370 bound_to 10713
  157.7323  131.0601  150.5635 LP  0  0  0  0  0  0  0  0  0  0  0  0  # atno 17371 bound_to 10713
  141.1236  133.6605  156.3279 LP  0  0  0  0  0  0  0  0  0  0  0  0  # atno 17394 bound_to 11000
  140.5599  134.5944  157.5431 LP  0  0  0  0  0  0  0  0  0  0  0  0  # atno 17395 bound_to 11000

$$$$
