AV-unprocessed.smi:3335|AV-procd|sdf|12840|dock10
  -GOLD-   2272019223D 1   1.00000     0.00000
 Structure written by MMmdl.
 47 48  0  0  0  0  0  0  0  0  2 V2000
  145.1974  144.6290  152.6497 C   0  0  0  0  0  0  0  0  0  0  0  0
  145.5380  143.7552  153.8219 C   0  0  0  0  0  0  0  0  0  0  0  0
  145.1416  143.9169  155.1791 C   0  0  0  0  0  0  0  0  0  0  0  0
  145.6048  142.9597  155.9655 N   0  0  0  0  0  0  0  0  0  0  0  0
  146.3253  142.1594  155.1475 N   0  0  0  0  0  0  0  0  0  0  0  0
  146.9677  140.9479  155.6530 C   0  0  1  0  0  0  0  0  0  0  0  0
  146.3128  139.6688  155.0940 C   0  0  0  0  0  0  0  0  0  0  0  0
  148.5092  140.9687  155.4667 C   0  0  1  0  0  0  0  0  0  0  0  0
  148.9571  141.2463  154.0154 C   0  0  0  0  0  0  0  0  0  0  0  0
  149.0943  141.9568  156.4079 N   0  3  0  0  0  0  0  0  0  0  0  0
  150.5132  141.7900  156.8107 C   0  0  2  0  0  0  0  0  0  0  0  0
  150.9912  140.3387  156.6104 C   0  0  0  0  0  0  0  0  0  0  0  0
  150.6826  142.1965  158.2870 C   0  0  0  0  0  0  0  0  0  0  0  0
  150.2922  141.4238  159.1643 O   0  0  0  0  0  0  0  0  0  0  0  0
  151.2647  143.3777  158.5889 N   0  0  0  0  0  0  0  0  0  0  0  0
  151.5055  143.9126  159.9298 C   0  0  0  0  0  0  0  0  0  0  0  0
  151.9429  145.3631  159.7250 C   0  0  0  0  0  0  0  0  0  0  0  0
  152.5478  145.3734  158.3290 C   0  0  0  0  0  0  0  0  0  0  0  0
  151.7531  144.3094  157.5728 C   0  0  0  0  0  0  0  0  0  0  0  0
  146.2937  142.6180  153.8461 C   0  0  0  0  0  0  0  0  0  0  0  0
  144.4686  145.3958  152.9133 H   0  0  0  0  0  0  0  0  0  0  0  0
  144.7722  144.0524  151.8280 H   0  0  0  0  0  0  0  0  0  0  0  0
  146.0776  145.1419  152.2617 H   0  0  0  0  0  0  0  0  0  0  0  0
  144.5278  144.6930  155.6118 H   0  0  0  0  0  0  0  0  0  0  0  0
  146.7731  140.9261  156.7269 H   0  0  0  0  0  0  0  0  0  0  0  0
  146.7428  138.7779  155.5522 H   0  0  0  0  0  0  0  0  0  0  0  0
  146.4365  139.5747  154.0153 H   0  0  0  0  0  0  0  0  0  0  0  0
  145.2427  139.6574  155.3033 H   0  0  0  0  0  0  0  0  0  0  0  0
  148.8726  139.9818  155.7512 H   0  0  0  0  0  0  0  0  0  0  0  0
  148.4436  140.5960  153.3080 H   0  0  0  0  0  0  0  0  0  0  0  0
  150.0226  141.0646  153.8804 H   0  0  0  0  0  0  0  0  0  0  0  0
  148.7594  142.2773  153.7213 H   0  0  0  0  0  0  0  0  0  0  0  0
  149.0004  142.8696  155.9851 H   0  0  0  0  0  0  0  0  0  0  0  0
  151.1154  142.4579  156.1986 H   0  0  0  0  0  0  0  0  0  0  0  0
  151.9947  140.1885  157.0104 H   0  0  0  0  0  0  0  0  0  0  0  0
  151.0332  140.0705  155.5552 H   0  0  0  0  0  0  0  0  0  0  0  0
  150.3308  139.6290  157.1098 H   0  0  0  0  0  0  0  0  0  0  0  0
  150.6236  143.8584  160.5686 H   0  0  0  0  0  0  0  0  0  0  0  0
  152.3058  143.3411  160.4021 H   0  0  0  0  0  0  0  0  0  0  0  0
  151.0690  146.0156  159.7476 H   0  0  0  0  0  0  0  0  0  0  0  0
  152.6382  145.7089  160.4903 H   0  0  0  0  0  0  0  0  0  0  0  0
  152.5023  146.3539  157.8537 H   0  0  0  0  0  0  0  0  0  0  0  0
  153.5961  145.0766  158.3840 H   0  0  0  0  0  0  0  0  0  0  0  0
  152.3714  143.8140  156.8225 H   0  0  0  0  0  0  0  0  0  0  0  0
  150.8988  144.7596  157.0647 H   0  0  0  0  0  0  0  0  0  0  0  0
  146.8032  142.0984  153.0479 H   0  0  0  0  0  0  0  0  0  0  0  0
  148.5417  141.9496  157.2534 H   0  0  0  0  0  0  0  0  0  0  0  0
  1  2  1  0  0  0  0
  1 21  1  0  0  0  0
  1 22  1  0  0  0  0
  1 23  1  0  0  0  0
  2 20  2  0  0  0  0
  2  3  1  0  0  0  0
  3  4  2  0  0  0  0
  3 24  1  0  0  0  0
  4  5  1  0  0  0  0
  5  6  1  0  0  0  0
  5 20  1  0  0  0  0
  6  7  1  0  0  0  0
  6  8  1  0  0  0  0
  6 25  1  0  0  0  0
  7 26  1  0  0  0  0
  7 27  1  0  0  0  0
  7 28  1  0  0  0  0
  8  9  1  0  0  0  0
  8 10  1  0  0  0  0
  8 29  1  0  0  0  0
  9 30  1  0  0  0  0
  9 31  1  0  0  0  0
  9 32  1  0  0  0  0
 10 11  1  0  0  0  0
 10 33  1  0  0  0  0
 10 47  1  0  0  0  0
 11 12  1  0  0  0  0
 11 13  1  0  0  0  0
 11 34  1  0  0  0  0
 12 35  1  0  0  0  0
 12 36  1  0  0  0  0
 12 37  1  0  0  0  0
 13 14  2  0  0  0  0
 13 15  1  0  0  0  0
 15 19  1  0  0  0  0
 15 16  1  0  0  0  0
 16 17  1  0  0  0  0
 16 38  1  0  0  0  0
 16 39  1  0  0  0  0
 17 18  1  0  0  0  0
 17 40  1  0  0  0  0
 17 41  1  0  0  0  0
 18 19  1  0  0  0  0
 18 42  1  0  0  0  0
 18 43  1  0  0  0  0
 19 44  1  0  0  0  0
 19 45  1  0  0  0  0
 20 46  1  0  0  0  0
M  CHG  1  10   1
M  END
> <s_m_source_file>
AV-unprocessed.smi

> <i_m_source_file_index>
3335

> <i_lp_mmshare_version>
43012

> <i_f3d_flags>
0

> <s_epik_input>
W0NIM11jMVtjSF1ubihbY0hdMSlbQ0BIXShbQ0gzXSlbQ0BIXShbQ0gzXSlbTkhdW0NASF0oW0NIM10pQyg9TylOMltDSDJdW0NIMl1bQ0gyXVtDSDJdMg==

> <s_epik_cmdline>
J2VwaWtfcHl0aG9uJywgJy1waCcsICc3LjAnLCAnLXRuJywgJzgnLCAnLW1hJywgJzIwMCcsICctbWV0YWxfYmluZGluZycsICctaW1hZScsICc8aW5maWxlLm1hZT4nLCAnLW9tYWUnLCAnPG91dGZpbGUubWFlPic=

> <r_lp_tautomer_probability>
1

> <r_epik_Ionization_Penalty>
0.14175

> <r_epik_Ionization_Penalty_Charging>
0.141731

> <r_epik_Ionization_Penalty_Neutral>
1.91261e-05

> <r_epik_State_Penalty>
0.131043

> <r_epik_Charging_Adjusted_Penalty>
0.272773

> <i_epik_Tot_Q>
1

> <i_epik_Tot_abs_Q>
1

> <r_epik_Metal_State_Penalty>
0.131408

> <b_epik_Metal_Only>
0

> <s_lp_Force_Field>
OPLS_2005

> <r_lp_Energy>
37.3946

> <b_lp_Chiralities_Consistent>
1

> <s_lp_Variant>
AV-unprocessed.smi:3335-4

> <Gold.Version>
5.8.1

> <Gold.Id.Protein>
6NUR|6NUR_protein|mol2

> <Gold.PLP.Fitness>
45.5851

> <Gold.PLP.PLP>
-41.9663

> <Gold.PLP.part.hbond>
-2.0000

> <Gold.PLP.part.metal>
0.0000

> <Gold.PLP.part.buried>
-2.0075

> <Gold.PLP.part.nonpolar>
-35.6229

> <Gold.PLP.part.repulsive>
0.1813

> <Gold.PLP.ligand.clash>
0.0000

> <Gold.PLP.ligand.torsion>
1.2935

> <Gold.PLP.Chemscore.Hbond>
2.0000

> <Gold.PLP.Chemscore.CHOScore>
0.0000

> <Gold.PLP.Chemscore.Metal>
0.0000

> <Gold.Chemscore.Hbonds>
donor molecule, donor type, donor heavy atom, donor atom, acceptor molecule, acceptor atom, score
      L1  H    10    33       P1  8028  2.00

> <Gold.PLP.Chemscore.Internal.Correction>
0.2058

> <Gold.Rescore>
     Score         DG    S(hbond)    S(metal)    S(lipo)     H(rot)  DE(clash)    DE(int)     intcor
     13.70     -17.20       1.00        0.00     108.34       1.68       1.33       2.17       ----

> <Gold.Chemscore.Fitness>
13.6991

> <Gold.Chemscore.DG>
-17.1963

> <Gold.Chemscore.ZeroCoef>
-5.4800

> <Gold.Chemscore.Hbond>
0.9988

> <Gold.Chemscore.Metal>
0.0000

> <Gold.Chemscore.Lipo>
108.3369

> <Gold.Chemscore.Internal_Hbond>
0.0000

> <Gold.Chemscore.DEClash>
1.3322

> <Gold.Chemscore.DEInternal>
2.1650

> <Gold.Chemscore.Rot>
1.6778

> <Gold.Chemscore.Internal.Correction>
   9.000000E+99

> <Gold.Chemscore.Hbonds>
donor molecule, donor type, donor heavy atom, donor atom, acceptor molecule, acceptor atom, score
      L1  H    10    33       P1  8028  1.00

> <Gold.Chemscore.Hbond.Weighted>
-3.3361

> <Gold.Chemscore.Metal.Weighted>
-0.0000

> <Gold.Chemscore.Lipo.Weighted>
-12.6754

> <Gold.Chemscore.Internal_Hbond.Weighted>
0.0000

> <Gold.Chemscore.DEClash.Weighted>
1.3322

> <Gold.Chemscore.DEInternal.Weighted>
2.1650

> <Gold.Chemscore.Rot.Weighted>
4.2952

> <Gold.Chemscore.Internal.Correction.Weighted>
   9.000000E+99

> <Gold.Protein.RotatedTorsions>
[ 6907 6896 6895 6894 ] final  146.61 input  -60.11 | X-H torsion
[ 7974 7965 7964 7962 ] final    3.05 input  175.53 | X-H torsion
[ 8008 7997 7996 7995 ] final  114.06 input   59.86 | X-H torsion
[ 10167 10162 10161 10158 ] final  -97.87 input  -65.29 | X-H torsion
[ 10718 10713 10712 10709 ] final  -30.62 input   66.30 | X-H torsion
[ 10763 10752 10751 10750 ] final  125.94 input  -60.55 | X-H torsion
[ 11005 11000 10999 10996 ] final  160.29 input  -57.11 | X-H torsion

> <Gold.Protein.ActiveResidues>
 VAL166  LYS551  ARG553  GLY616  TRP617  ASP618  TYR619  PRO620  LYS621  CYS622 
 ASP623  PHE694  ASN695  SER759  ASP760  ASP761  ALA762  ILE779  LEU786  VAL792 
 PHE793  MET794  SER795  GLU796  ALA797  LYS798  CYS799  TRP800  GLU811  SER814 

> <Gold.Protein.RotatedAtoms>
  152.1657  133.4610  159.4883 H   0  0  0  0  0  0  0  0  0  0  0  0  # atno 6907 bound_to 6896
  150.6912  134.2016  159.4333 H   0  0  0  0  0  0  0  0  0  0  0  0  # atno 6908 bound_to 6896
  151.9920  134.9973  160.0612 H   0  0  0  0  0  0  0  0  0  0  0  0  # atno 6909 bound_to 6896
  146.2445  140.0744  142.8360 H   0  0  0  0  0  0  0  0  0  0  0  0  # atno 7974 bound_to 7965
  156.2297  140.2967  156.0157 H   0  0  0  0  0  0  0  0  0  0  0  0  # atno 8008 bound_to 7997
  155.2258  140.0417  157.2972 H   0  0  0  0  0  0  0  0  0  0  0  0  # atno 8009 bound_to 7997
  154.5975  140.2418  155.7844 H   0  0  0  0  0  0  0  0  0  0  0  0  # atno 8010 bound_to 7997
  140.2789  143.3295  152.0461 H   0  0  0  0  0  0  0  0  0  0  0  0  # atno 10167 bound_to 10162
  156.3975  130.4384  149.7347 H   0  0  0  0  0  0  0  0  0  0  0  0  # atno 10718 bound_to 10713
  153.6854  135.3307  155.3189 H   0  0  0  0  0  0  0  0  0  0  0  0  # atno 10763 bound_to 10752
  154.8454  135.4419  154.1563 H   0  0  0  0  0  0  0  0  0  0  0  0  # atno 10764 bound_to 10752
  153.2591  135.6989  153.7675 H   0  0  0  0  0  0  0  0  0  0  0  0  # atno 10765 bound_to 10752
  140.2045  134.8313  157.3054 H   0  0  0  0  0  0  0  0  0  0  0  0  # atno 11005 bound_to 11000
  145.0787  140.9206  143.4838 LP  0  0  0  0  0  0  0  0  0  0  0  0  # atno 17320 bound_to 7965
  145.0893  139.2902  143.5743 LP  0  0  0  0  0  0  0  0  0  0  0  0  # atno 17321 bound_to 7965
  139.4968  144.6605  151.6474 LP  0  0  0  0  0  0  0  0  0  0  0  0  # atno 17342 bound_to 10162
  140.5828  143.9916  150.6278 LP  0  0  0  0  0  0  0  0  0  0  0  0  # atno 17343 bound_to 10162
  156.4376  130.7845  151.2866 LP  0  0  0  0  0  0  0  0  0  0  0  0  # atno 17370 bound_to 10713
  157.7502  131.0135  150.3425 LP  0  0  0  0  0  0  0  0  0  0  0  0  # atno 17371 bound_to 10713
  140.2018  134.4245  155.7659 LP  0  0  0  0  0  0  0  0  0  0  0  0  # atno 17394 bound_to 11000
  141.2227  133.7075  156.8196 LP  0  0  0  0  0  0  0  0  0  0  0  0  # atno 17395 bound_to 11000

$$$$
