AV-unprocessed.smi:805|AV-procd|sdf|3797|dock2
  -GOLD-   22720 1233D 1   1.00000     0.00000
 Structure written by MMmdl.
 40 41  0  0  0  0  0  0  0  0  1 V2000
  146.2520  128.9174  152.5393 C   0  0  0  0  0  0  0  0  0  0  0  0
  146.4015  130.3573  152.0426 C   0  0  0  0  0  0  0  0  0  0  0  0
  146.0097  131.2430  153.0781 O   0  0  0  0  0  0  0  0  0  0  0  0
  147.0769  131.5804  153.9504 C   0  0  1  0  0  0  0  0  0  0  0  0
  148.3059  132.1761  153.2560 C   0  0  0  0  0  0  0  0  0  0  0  0
  148.4006  133.1081  154.4650 C   0  0  1  0  0  0  0  0  0  0  0  0
  148.8231  134.4574  154.1042 N   0  0  0  0  0  0  0  0  0  0  0  0
  149.4909  135.2836  154.9203 C   0  0  0  0  0  0  0  0  0  0  0  0
  149.8286  134.9785  156.0638 O   0  0  0  0  0  0  0  0  0  0  0  0
  149.7445  136.4587  154.3189 N   0  0  0  0  0  0  0  0  0  0  0  0
  150.4246  137.5926  154.8401 C   0  0  0  0  0  0  0  0  0  0  0  0
  151.2672  137.4014  155.9546 C   0  0  0  0  0  0  0  0  0  0  0  0
  151.9663  138.5024  156.4843 C   0  0  0  0  0  0  0  0  0  0  0  0
  151.8017  139.7583  155.8693 C   0  0  0  0  0  0  0  0  0  0  0  0
  151.0122  139.9569  154.7930 N   0  0  0  0  0  0  0  0  0  0  0  0
  150.3429  138.8966  154.2909 C   0  0  0  0  0  0  0  0  0  0  0  0
  146.8712  132.9367  154.6699 C   0  0  0  0  0  0  0  0  0  0  0  0
  145.9489  133.9441  153.9609 C   0  0  0  0  0  0  0  0  0  0  0  0
  146.4013  132.8493  156.1216 C   0  0  0  0  0  0  0  0  0  0  0  0
  146.5412  128.2057  151.7657 H   0  0  0  0  0  0  0  0  0  0  0  0
  145.2200  128.7058  152.8196 H   0  0  0  0  0  0  0  0  0  0  0  0
  146.8803  128.7375  153.4117 H   0  0  0  0  0  0  0  0  0  0  0  0
  147.4376  130.5473  151.7583 H   0  0  0  0  0  0  0  0  0  0  0  0
  145.7828  130.5103  151.1574 H   0  0  0  0  0  0  0  0  0  0  0  0
  147.3336  130.7777  154.6459 H   0  0  0  0  0  0  0  0  0  0  0  0
  149.1438  131.4878  153.1439 H   0  0  0  0  0  0  0  0  0  0  0  0
  148.0690  132.6833  152.3189 H   0  0  0  0  0  0  0  0  0  0  0  0
  148.9877  132.6595  155.2701 H   0  0  0  0  0  0  0  0  0  0  0  0
  148.5871  134.7806  153.1774 H   0  0  0  0  0  0  0  0  0  0  0  0
  149.4654  136.5295  153.3514 H   0  0  0  0  0  0  0  0  0  0  0  0
  151.3754  136.4246  156.4036 H   0  0  0  0  0  0  0  0  0  0  0  0
  152.6138  138.3875  157.3411 H   0  0  0  0  0  0  0  0  0  0  0  0
  152.3223  140.6251  156.2491 H   0  0  0  0  0  0  0  0  0  0  0  0
  149.7497  139.1147  153.4169 H   0  0  0  0  0  0  0  0  0  0  0  0
  145.9921  134.9277  154.4300 H   0  0  0  0  0  0  0  0  0  0  0  0
  144.9087  133.6184  153.9875 H   0  0  0  0  0  0  0  0  0  0  0  0
  146.2139  134.0761  152.9118 H   0  0  0  0  0  0  0  0  0  0  0  0
  146.4470  133.8200  156.6161 H   0  0  0  0  0  0  0  0  0  0  0  0
  147.0204  132.1644  156.7018 H   0  0  0  0  0  0  0  0  0  0  0  0
  145.3737  132.4907  156.1886 H   0  0  0  0  0  0  0  0  0  0  0  0
  1  2  1  0  0  0  0
  1 20  1  0  0  0  0
  1 21  1  0  0  0  0
  1 22  1  0  0  0  0
  2  3  1  0  0  0  0
  2 23  1  0  0  0  0
  2 24  1  0  0  0  0
  3  4  1  0  0  0  0
  4 17  1  0  0  0  0
  4  5  1  0  0  0  0
  4 25  1  0  0  0  0
  5  6  1  0  0  0  0
  5 26  1  0  0  0  0
  5 27  1  0  0  0  0
  6  7  1  0  0  0  0
  6 17  1  0  0  0  0
  6 28  1  0  0  0  0
  7  8  1  0  0  0  0
  7 29  1  0  0  0  0
  8  9  2  0  0  0  0
  8 10  1  0  0  0  0
 10 11  1  0  0  0  0
 10 30  1  0  0  0  0
 11 16  1  0  0  0  0
 11 12  2  0  0  0  0
 12 13  1  0  0  0  0
 12 31  1  0  0  0  0
 13 14  2  0  0  0  0
 13 32  1  0  0  0  0
 14 15  1  0  0  0  0
 14 33  1  0  0  0  0
 15 16  2  0  0  0  0
 16 34  1  0  0  0  0
 17 18  1  0  0  0  0
 17 19  1  0  0  0  0
 18 35  1  0  0  0  0
 18 36  1  0  0  0  0
 18 37  1  0  0  0  0
 19 38  1  0  0  0  0
 19 39  1  0  0  0  0
 19 40  1  0  0  0  0
M  END
> <s_m_source_file>
AV-unprocessed.smi

> <i_m_source_file_index>
805

> <i_lp_mmshare_version>
43012

> <i_f3d_flags>
0

> <s_epik_input>
W0NIM11bQ0gyXU9bQ0BASF0oQzEoW0NIM10pW0NIM10pW0NIMl1bQ0BIXTFbTkhdQyg9TylbTkhdYzJbY0hdW2NIXVtjSF1uW2NIXTI=

> <s_epik_cmdline>
J2VwaWtfcHl0aG9uJywgJy1waCcsICc3LjAnLCAnLXRuJywgJzgnLCAnLW1hJywgJzIwMCcsICctbWV0YWxfYmluZGluZycsICctaW1hZScsICc8aW5maWxlLm1hZT4nLCAnLW9tYWUnLCAnPG91dGZpbGUubWFlPic=

> <r_epik_Ionization_Penalty>
0.00485231

> <r_epik_Ionization_Penalty_Charging>
0

> <r_epik_Ionization_Penalty_Neutral>
0.00485231

> <r_epik_State_Penalty>
0.00349213

> <r_epik_Charging_Adjusted_Penalty>
0.00349213

> <i_epik_Tot_Q>
0

> <i_epik_Tot_abs_Q>
0

> <r_epik_Metal_State_Penalty>
-0

> <b_epik_Metal_Only>
0

> <s_lp_Force_Field>
OPLS_2005

> <r_lp_Energy>
21.475

> <b_lp_Chiralities_Consistent>
1

> <s_lp_Variant>
AV-unprocessed.smi:805-2

> <Gold.Version>
5.8.1

> <Gold.Id.Protein>
6NUR|6NUR_protein|mol2

> <Gold.PLP.Fitness>
39.1351

> <Gold.PLP.PLP>
-28.5490

> <Gold.PLP.part.hbond>
-3.9764

> <Gold.PLP.part.metal>
0.0000

> <Gold.PLP.part.buried>
-2.1477

> <Gold.PLP.part.nonpolar>
-23.0856

> <Gold.PLP.part.repulsive>
0.3516

> <Gold.PLP.ligand.clash>
0.0000

> <Gold.PLP.ligand.torsion>
0.6300

> <Gold.PLP.Chemscore.Hbond>
2.8480

> <Gold.PLP.Chemscore.CHOScore>
1.0000

> <Gold.PLP.Chemscore.Metal>
0.0000

> <Gold.Chemscore.Hbonds>
donor molecule, donor type, donor heavy atom, donor atom, acceptor molecule, acceptor atom, score
      L1  H     7    29       P1  7948  0.86
      L1  H    10    30       P1  7948  1.00
      P1  H  7989  7998       L1    15  1.00
      L1  C    16    34       P1  7957  1.00

> <Gold.PLP.Chemscore.Internal.Correction>
0.3021

> <Gold.Rescore>
     Score         DG    S(hbond)    S(metal)    S(lipo)     H(rot)  DE(clash)    DE(int)     intcor
     14.84     -16.82       2.05        0.00      68.01       1.36       0.01       1.97       ----

> <Gold.Chemscore.Fitness>
14.8432

> <Gold.Chemscore.DG>
-16.8249

> <Gold.Chemscore.ZeroCoef>
-5.4800

> <Gold.Chemscore.Hbond>
2.0528

> <Gold.Chemscore.Metal>
0.0000

> <Gold.Chemscore.Lipo>
68.0137

> <Gold.Chemscore.Internal_Hbond>
0.0000

> <Gold.Chemscore.DEClash>
0.0089

> <Gold.Chemscore.DEInternal>
1.9728

> <Gold.Chemscore.Rot>
1.3551

> <Gold.Chemscore.Internal.Correction>
   9.000000E+99

> <Gold.Chemscore.Hbonds>
donor molecule, donor type, donor heavy atom, donor atom, acceptor molecule, acceptor atom, score
      L1  H     7    29       P1  7948  0.37
      L1  H    10    30       P1  7948  0.72
      P1  H  7989  7998       L1    15  0.67

> <Gold.Chemscore.Hbond.Weighted>
-6.8564

> <Gold.Chemscore.Metal.Weighted>
-0.0000

> <Gold.Chemscore.Lipo.Weighted>
-7.9576

> <Gold.Chemscore.Internal_Hbond.Weighted>
0.0000

> <Gold.Chemscore.DEClash.Weighted>
0.0089

> <Gold.Chemscore.DEInternal.Weighted>
1.9728

> <Gold.Chemscore.Rot.Weighted>
3.4691

> <Gold.Chemscore.Internal.Correction.Weighted>
   9.000000E+99

> <Gold.Protein.RotatedTorsions>
[ 6907 6896 6895 6894 ] final  131.18 input  -60.11 | X-H torsion
[ 7974 7965 7964 7962 ] final -167.03 input  175.53 | X-H torsion
[ 8008 7997 7996 7995 ] final  118.21 input   59.86 | X-H torsion
[ 10167 10162 10161 10158 ] final  -42.14 input  -65.29 | X-H torsion
[ 10718 10713 10712 10709 ] final  -10.00 input   66.30 | X-H torsion
[ 10763 10752 10751 10750 ] final  146.67 input  -60.55 | X-H torsion
[ 11005 11000 10999 10996 ] final -128.97 input  -57.11 | X-H torsion

> <Gold.Protein.ActiveResidues>
 VAL166  LYS551  ARG553  GLY616  TRP617  ASP618  TYR619  PRO620  LYS621  CYS622 
 ASP623  PHE694  ASN695  SER759  ASP760  ASP761  ALA762  ILE779  LEU786  VAL792 
 PHE793  MET794  SER795  GLU796  ALA797  LYS798  CYS799  TRP800  GLU811  SER814 

> <Gold.Protein.RotatedAtoms>
  152.3452  133.6113  159.5904 H   0  0  0  0  0  0  0  0  0  0  0  0  # atno 6907 bound_to 6896
  150.7503  133.9661  159.3539 H   0  0  0  0  0  0  0  0  0  0  0  0  # atno 6908 bound_to 6896
  151.7520  135.0831  160.0383 H   0  0  0  0  0  0  0  0  0  0  0  0  # atno 6909 bound_to 6896
  144.7232  140.2579  143.6269 H   0  0  0  0  0  0  0  0  0  0  0  0  # atno 7974 bound_to 7965
  156.2535  140.2879  156.0799 H   0  0  0  0  0  0  0  0  0  0  0  0  # atno 8008 bound_to 7997
  155.1578  140.0399  157.2853 H   0  0  0  0  0  0  0  0  0  0  0  0  # atno 8009 bound_to 7997
  154.6415  140.2523  155.7323 H   0  0  0  0  0  0  0  0  0  0  0  0  # atno 8010 bound_to 7997
  140.6979  143.3054  151.3167 H   0  0  0  0  0  0  0  0  0  0  0  0  # atno 10167 bound_to 10162
  156.6799  130.5034  149.5974 H   0  0  0  0  0  0  0  0  0  0  0  0  # atno 10718 bound_to 10713
  154.0257  135.2902  155.3375 H   0  0  0  0  0  0  0  0  0  0  0  0  # atno 10763 bound_to 10752
  154.7019  135.5185  153.8542 H   0  0  0  0  0  0  0  0  0  0  0  0  # atno 10764 bound_to 10752
  153.0662  135.6631  154.0474 H   0  0  0  0  0  0  0  0  0  0  0  0  # atno 10765 bound_to 10752
  140.9471  134.1115  157.4096 H   0  0  0  0  0  0  0  0  0  0  0  0  # atno 11005 bound_to 11000
  145.8164  139.2025  143.1963 LP  0  0  0  0  0  0  0  0  0  0  0  0  # atno 17320 bound_to 7965
  146.0552  140.8029  142.9762 LP  0  0  0  0  0  0  0  0  0  0  0  0  # atno 17321 bound_to 7965
  139.6458  144.0454  152.2589 LP  0  0  0  0  0  0  0  0  0  0  0  0  # atno 17342 bound_to 10162
  139.9974  144.6318  150.7760 LP  0  0  0  0  0  0  0  0  0  0  0  0  # atno 17343 bound_to 10162
  156.1875  130.6539  151.1023 LP  0  0  0  0  0  0  0  0  0  0  0  0  # atno 17370 bound_to 10713
  157.7047  131.0761  150.6705 LP  0  0  0  0  0  0  0  0  0  0  0  0  # atno 17371 bound_to 10713
  139.8837  135.0055  156.6316 LP  0  0  0  0  0  0  0  0  0  0  0  0  # atno 17394 bound_to 11000
  140.7653  133.8783  155.8450 LP  0  0  0  0  0  0  0  0  0  0  0  0  # atno 17395 bound_to 11000

$$$$
