AV-unprocessed.smi:3147|AV-procd|sdf|11987|dock6
  -GOLD-   2272017393D 1   1.00000     0.00000
 Structure written by MMmdl.
 37 38  0  0  0  0  0  0  0  0  2 V2000
  146.5544  138.6465  152.7904 C   0  0  0  0  0  0  0  0  0  0  0  0
  147.7520  139.2578  153.4363 C   0  0  0  0  0  0  0  0  0  0  0  0
  148.9797  138.6496  153.4271 N   0  3  0  0  0  0  0  0  0  0  0  0
  149.8801  139.4007  154.0629 C   0  0  0  0  0  0  0  0  0  0  0  0
  149.2400  140.4966  154.4854 N   0  0  0  0  0  0  0  0  0  0  0  0
  149.9319  141.5613  155.2286 C   0  0  0  0  0  0  0  0  0  0  0  0
  149.6322  141.5225  156.7312 C   0  0  0  0  0  0  0  0  0  0  0  0
  149.5807  140.4508  157.3360 O   0  0  0  0  0  0  0  0  0  0  0  0
  149.4402  142.7120  157.3203 N   0  0  0  0  0  0  0  0  0  0  0  0
  149.1905  142.9168  158.7441 C   0  0  0  0  0  0  0  0  0  0  0  0
  150.2603  143.8023  159.4105 C   0  0  2  0  0  0  0  0  0  0  0  0
  150.7514  144.9911  158.5839 C   0  0  0  0  0  0  0  0  0  0  0  0
  152.0543  145.3118  159.2810 C   0  0  0  0  0  0  0  0  0  0  0  0
  152.5785  143.9238  159.6488 C   0  0  0  0  0  0  0  0  0  0  0  0
  151.4402  143.0662  159.7164 O   0  0  0  0  0  0  0  0  0  0  0  0
  147.9148  140.4445  154.1130 C   0  0  0  0  0  0  0  0  0  0  0  0
  146.9360  141.5290  154.4264 C   0  0  0  0  0  0  0  0  0  0  0  0
  145.6786  138.7669  153.4286 H   0  0  0  0  0  0  0  0  0  0  0  0
  146.7104  137.5814  152.6159 H   0  0  0  0  0  0  0  0  0  0  0  0
  146.3575  139.1311  151.8338 H   0  0  0  0  0  0  0  0  0  0  0  0
  150.9207  139.1682  154.2033 H   0  0  0  0  0  0  0  0  0  0  0  0
  151.0030  141.4561  155.0514 H   0  0  0  0  0  0  0  0  0  0  0  0
  149.6303  142.5279  154.8227 H   0  0  0  0  0  0  0  0  0  0  0  0
  149.4963  143.5411  156.7466 H   0  0  0  0  0  0  0  0  0  0  0  0
  148.2149  143.3928  158.8444 H   0  0  0  0  0  0  0  0  0  0  0  0
  149.1154  141.9616  159.2660 H   0  0  0  0  0  0  0  0  0  0  0  0
  149.8653  144.1776  160.3561 H   0  0  0  0  0  0  0  0  0  0  0  0
  150.9486  144.7061  157.5500 H   0  0  0  0  0  0  0  0  0  0  0  0
  150.0508  145.8266  158.5820 H   0  0  0  0  0  0  0  0  0  0  0  0
  152.7472  145.8786  158.6586 H   0  0  0  0  0  0  0  0  0  0  0  0
  151.8585  145.8896  160.1855 H   0  0  0  0  0  0  0  0  0  0  0  0
  153.2495  143.5503  158.8753 H   0  0  0  0  0  0  0  0  0  0  0  0
  153.1233  143.9309  160.5931 H   0  0  0  0  0  0  0  0  0  0  0  0
  145.9295  141.2328  154.1310 H   0  0  0  0  0  0  0  0  0  0  0  0
  147.1993  142.4378  153.8858 H   0  0  0  0  0  0  0  0  0  0  0  0
  146.9313  141.7438  155.4951 H   0  0  0  0  0  0  0  0  0  0  0  0
  149.1803  137.7562  152.9955 H   0  0  0  0  0  0  0  0  0  0  0  0
  1  2  1  0  0  0  0
  1 18  1  0  0  0  0
  1 19  1  0  0  0  0
  1 20  1  0  0  0  0
  2 16  2  0  0  0  0
  2  3  1  0  0  0  0
  3  4  2  0  0  0  0
  3 37  1  0  0  0  0
  4  5  1  0  0  0  0
  4 21  1  0  0  0  0
  5  6  1  0  0  0  0
  5 16  1  0  0  0  0
  6  7  1  0  0  0  0
  6 22  1  0  0  0  0
  6 23  1  0  0  0  0
  7  8  2  0  0  0  0
  7  9  1  0  0  0  0
  9 10  1  0  0  0  0
  9 24  1  0  0  0  0
 10 11  1  0  0  0  0
 10 25  1  0  0  0  0
 10 26  1  0  0  0  0
 11 15  1  0  0  0  0
 11 12  1  0  0  0  0
 11 27  1  0  0  0  0
 12 13  1  0  0  0  0
 12 28  1  0  0  0  0
 12 29  1  0  0  0  0
 13 14  1  0  0  0  0
 13 30  1  0  0  0  0
 13 31  1  0  0  0  0
 14 15  1  0  0  0  0
 14 32  1  0  0  0  0
 14 33  1  0  0  0  0
 16 17  1  0  0  0  0
 17 34  1  0  0  0  0
 17 35  1  0  0  0  0
 17 36  1  0  0  0  0
M  CHG  1   3   1
M  END
> <s_m_source_file>
AV-unprocessed.smi

> <i_m_source_file_index>
3147

> <i_lp_mmshare_version>
43012

> <i_f3d_flags>
0

> <s_epik_input>
W0NIM11jMW5bY0hdbihjMVtDSDNdKVtDSDJdQyg9TylbTkhdW0NIMl1bQ0BASF0yW0NIMl1bQ0gyXVtDSDJdTzI=

> <s_epik_cmdline>
J2VwaWtfcHl0aG9uJywgJy1waCcsICc3LjAnLCAnLXRuJywgJzgnLCAnLW1hJywgJzIwMCcsICctbWV0YWxfYmluZGluZycsICctaW1hZScsICc8aW5maWxlLm1hZT4nLCAnLW9tYWUnLCAnPG91dGZpbGUubWFlPic=

> <r_lp_tautomer_probability>
1

> <r_epik_Ionization_Penalty>
0.131257

> <r_epik_Ionization_Penalty_Charging>
0

> <r_epik_Ionization_Penalty_Neutral>
0.131257

> <r_epik_State_Penalty>
0.12065

> <r_epik_Charging_Adjusted_Penalty>
0.12065

> <i_epik_Tot_Q>
1

> <i_epik_Tot_abs_Q>
1

> <r_epik_Metal_State_Penalty>
0.448684

> <b_epik_Metal_Only>
0

> <s_lp_Force_Field>
OPLS_2005

> <r_lp_Energy>
20.508

> <b_lp_Chiralities_Consistent>
1

> <s_lp_Variant>
AV-unprocessed.smi:3147-1

> <Gold.Version>
5.8.1

> <Gold.Id.Protein>
6NUR|6NUR_protein|mol2

> <Gold.PLP.Fitness>
44.1180

> <Gold.PLP.PLP>
-37.3676

> <Gold.PLP.part.hbond>
-3.5526

> <Gold.PLP.part.metal>
0.0000

> <Gold.PLP.part.buried>
-2.0978

> <Gold.PLP.part.nonpolar>
-31.5651

> <Gold.PLP.part.repulsive>
0.1132

> <Gold.PLP.ligand.clash>
0.0000

> <Gold.PLP.ligand.torsion>
0.6833

> <Gold.PLP.Chemscore.Hbond>
2.7040

> <Gold.PLP.Chemscore.CHOScore>
0.0000

> <Gold.PLP.Chemscore.Metal>
0.0000

> <Gold.Chemscore.Hbonds>
donor molecule, donor type, donor heavy atom, donor atom, acceptor molecule, acceptor atom, score
      L1  H     3    37       P1  7948  2.00
      L1  H     9    24       P1  8028  1.00

> <Gold.PLP.Chemscore.Internal.Correction>
0.0049

> <Gold.Rescore>
     Score         DG    S(hbond)    S(metal)    S(lipo)     H(rot)  DE(clash)    DE(int)     intcor
     15.72     -16.10       1.68        0.00      81.37       1.76       0.04       0.34       ----

> <Gold.Chemscore.Fitness>
15.7229

> <Gold.Chemscore.DG>
-16.1022

> <Gold.Chemscore.ZeroCoef>
-5.4800

> <Gold.Chemscore.Hbond>
1.6772

> <Gold.Chemscore.Metal>
0.0000

> <Gold.Chemscore.Lipo>
81.3675

> <Gold.Chemscore.Internal_Hbond>
0.0000

> <Gold.Chemscore.DEClash>
0.0413

> <Gold.Chemscore.DEInternal>
0.3380

> <Gold.Chemscore.Rot>
1.7577

> <Gold.Chemscore.Internal.Correction>
   9.000000E+99

> <Gold.Chemscore.Hbonds>
donor molecule, donor type, donor heavy atom, donor atom, acceptor molecule, acceptor atom, score
      L1  H     3    37       P1  7948  0.98
      L1  H     9    24       P1  8028  0.97

> <Gold.Chemscore.Hbond.Weighted>
-5.6020

> <Gold.Chemscore.Metal.Weighted>
-0.0000

> <Gold.Chemscore.Lipo.Weighted>
-9.5200

> <Gold.Chemscore.Internal_Hbond.Weighted>
0.0000

> <Gold.Chemscore.DEClash.Weighted>
0.0413

> <Gold.Chemscore.DEInternal.Weighted>
0.3380

> <Gold.Chemscore.Rot.Weighted>
4.4998

> <Gold.Chemscore.Internal.Correction.Weighted>
   9.000000E+99

> <Gold.Protein.RotatedTorsions>
[ 6907 6896 6895 6894 ] final -145.23 input  -60.11 | X-H torsion
[ 7974 7965 7964 7962 ] final -161.58 input  175.53 | X-H torsion
[ 8008 7997 7996 7995 ] final -111.21 input   59.86 | X-H torsion
[ 10167 10162 10161 10158 ] final  -22.50 input  -65.29 | X-H torsion
[ 10718 10713 10712 10709 ] final   60.33 input   66.30 | X-H torsion
[ 10763 10752 10751 10750 ] final -171.87 input  -60.55 | X-H torsion
[ 11005 11000 10999 10996 ] final   62.70 input  -57.11 | X-H torsion

> <Gold.Protein.ActiveResidues>
 VAL166  LYS551  ARG553  GLY616  TRP617  ASP618  TYR619  PRO620  LYS621  CYS622 
 ASP623  PHE694  ASN695  SER759  ASP760  ASP761  ALA762  ILE779  LEU786  VAL792 
 PHE793  MET794  SER795  GLU796  ALA797  LYS798  CYS799  TRP800  GLU811  SER814 

> <Gold.Protein.RotatedAtoms>
  151.1250  133.5077  159.2600 H   0  0  0  0  0  0  0  0  0  0  0  0  # atno 6907 bound_to 6896
  151.1820  135.0364  159.8806 H   0  0  0  0  0  0  0  0  0  0  0  0  # atno 6908 bound_to 6896
  152.5457  134.1100  159.8408 H   0  0  0  0  0  0  0  0  0  0  0  0  # atno 6909 bound_to 6896
  144.7386  140.3377  143.6140 H   0  0  0  0  0  0  0  0  0  0  0  0  # atno 7974 bound_to 7965
  154.9863  140.0395  157.2300 H   0  0  0  0  0  0  0  0  0  0  0  0  # atno 8008 bound_to 7997
  154.7669  140.2794  155.6146 H   0  0  0  0  0  0  0  0  0  0  0  0  # atno 8009 bound_to 7997
  156.2914  140.2617  156.2461 H   0  0  0  0  0  0  0  0  0  0  0  0  # atno 8010 bound_to 7997
  140.7286  143.4529  151.0490 H   0  0  0  0  0  0  0  0  0  0  0  0  # atno 10167 bound_to 10162
  157.5745  130.8933  149.9323 H   0  0  0  0  0  0  0  0  0  0  0  0  # atno 10718 bound_to 10713
  154.6257  135.2880  155.0275 H   0  0  0  0  0  0  0  0  0  0  0  0  # atno 10763 bound_to 10752
  154.1454  135.6512  153.4955 H   0  0  0  0  0  0  0  0  0  0  0  0  # atno 10764 bound_to 10752
  153.0256  135.5343  154.7064 H   0  0  0  0  0  0  0  0  0  0  0  0  # atno 10765 bound_to 10752
  140.0074  134.6348  155.9833 H   0  0  0  0  0  0  0  0  0  0  0  0  # atno 11005 bound_to 11000
  145.7406  139.1763  143.2378 LP  0  0  0  0  0  0  0  0  0  0  0  0  # atno 17320 bound_to 7965
  146.1137  140.7396  142.9491 LP  0  0  0  0  0  0  0  0  0  0  0  0  # atno 17321 bound_to 7965
  139.8207  143.7824  152.3176 LP  0  0  0  0  0  0  0  0  0  0  0  0  # atno 17342 bound_to 10162
  139.7906  144.7411  150.9961 LP  0  0  0  0  0  0  0  0  0  0  0  0  # atno 17343 bound_to 10162
  156.0790  130.3675  150.0620 LP  0  0  0  0  0  0  0  0  0  0  0  0  # atno 17370 bound_to 10713
  156.8768  130.9543  151.3603 LP  0  0  0  0  0  0  0  0  0  0  0  0  # atno 17371 bound_to 10713
  141.1687  133.6537  156.4572 LP  0  0  0  0  0  0  0  0  0  0  0  0  # atno 17394 bound_to 11000
  140.4616  134.6836  157.5088 LP  0  0  0  0  0  0  0  0  0  0  0  0  # atno 17395 bound_to 11000

$$$$
