AV-unprocessed.smi:234|AV-procd|sdf|1800|dock2
  -GOLD-   2262020373D 1   1.00000     0.00000
 Structure written by MMmdl.
 59 62  0  0  0  0  0  0  0  0  1 V2000
  151.3648  142.2225  157.4450 C   0  0  0  0  0  0  0  0  0  0  0  0
  151.1681  140.7054  157.4770 C   0  0  0  0  0  0  0  0  0  0  0  0
  150.8301  140.2593  156.1742 O   0  0  0  0  0  0  0  0  0  0  0  0
  150.9539  138.8539  156.0200 C   0  0  1  0  0  0  0  0  0  0  0  0
  149.7431  138.1042  156.5730 C   0  0  0  0  0  0  0  0  0  0  0  0
  149.8317  137.1801  155.3429 C   0  0  2  0  0  0  0  0  0  0  0  0
  150.5637  135.9131  155.5235 N   0  0  0  0  0  0  0  0  0  0  0  0
  151.7662  135.8738  156.3438 C   0  0  0  0  0  0  0  0  0  0  0  0
  150.0715  134.7109  155.1514 C   0  0  0  0  0  0  0  0  0  0  0  0
  150.8447  133.6069  155.3092 N   0  0  0  0  0  0  0  0  0  0  0  0
  150.3803  132.4095  154.9392 C   0  0  0  0  0  0  0  0  0  0  0  0
  149.2026  132.1040  154.3896 N   0  0  0  0  0  0  0  0  0  0  0  0
  148.4334  133.2166  154.2127 C   0  0  0  0  0  0  0  0  0  0  0  0
  148.7894  134.5486  154.5616 C   0  0  0  0  0  0  0  0  0  0  0  0
  147.7597  135.4206  154.2320 N   0  0  0  0  0  0  0  0  0  0  0  0
  146.8417  134.6452  153.7221 C   0  0  0  0  0  0  0  0  0  0  0  0
  147.1673  133.3081  153.6615 N   0  0  0  0  0  0  0  0  0  0  0  0
  146.3402  132.2321  153.1357 C   0  0  0  0  0  0  0  0  0  0  0  0
  146.0033  132.3932  151.6297 C   0  0  2  0  0  0  0  0  0  0  0  0
  147.1816  132.7987  150.9540 O   0  0  0  0  0  0  0  0  0  0  0  0
  144.9246  133.4411  151.3584 C   0  0  0  0  0  0  0  0  0  0  0  0
  144.2284  132.9115  150.1141 C   0  0  0  0  0  0  0  0  0  0  0  0
  144.1988  131.5171  150.3585 O   0  0  0  0  0  0  0  0  0  0  0  0
  145.4559  131.1303  150.9051 C   0  0  2  0  0  0  0  0  0  0  0  0
  145.2400  129.8723  151.7609 C   0  0  0  0  0  0  0  0  0  0  0  0
  150.6201  138.3085  154.6080 C   0  0  0  0  0  0  0  0  0  0  0  0
  149.7283  139.2081  153.7400 C   0  0  0  0  0  0  0  0  0  0  0  0
  151.8192  137.9297  153.7298 C   0  0  0  0  0  0  0  0  0  0  0  0
  151.6216  142.6025  158.4340 H   0  0  0  0  0  0  0  0  0  0  0  0
  150.4565  142.7283  157.1175 H   0  0  0  0  0  0  0  0  0  0  0  0
  152.1680  142.4973  156.7610 H   0  0  0  0  0  0  0  0  0  0  0  0
  152.0823  140.2222  157.8218 H   0  0  0  0  0  0  0  0  0  0  0  0
  150.3740  140.4473  158.1788 H   0  0  0  0  0  0  0  0  0  0  0  0
  151.8848  138.4583  156.4305 H   0  0  0  0  0  0  0  0  0  0  0  0
  149.8904  137.6661  157.5577 H   0  0  0  0  0  0  0  0  0  0  0  0
  148.8382  138.7134  156.5635 H   0  0  0  0  0  0  0  0  0  0  0  0
  148.8477  137.0160  154.9022 H   0  0  0  0  0  0  0  0  0  0  0  0
  152.5618  135.3361  155.8272 H   0  0  0  0  0  0  0  0  0  0  0  0
  151.5759  135.3756  157.2947 H   0  0  0  0  0  0  0  0  0  0  0  0
  152.1226  136.8823  156.5548 H   0  0  0  0  0  0  0  0  0  0  0  0
  151.0484  131.5773  155.1063 H   0  0  0  0  0  0  0  0  0  0  0  0
  145.8971  135.0316  153.3677 H   0  0  0  0  0  0  0  0  0  0  0  0
  146.8556  131.2873  153.3142 H   0  0  0  0  0  0  0  0  0  0  0  0
  145.4260  132.2026  153.7288 H   0  0  0  0  0  0  0  0  0  0  0  0
  147.5345  132.0535  150.4922 H   0  0  0  0  0  0  0  0  0  0  0  0
  144.2033  133.4578  152.1762 H   0  0  0  0  0  0  0  0  0  0  0  0
  145.3108  134.4543  151.2362 H   0  0  0  0  0  0  0  0  0  0  0  0
  143.2261  133.3199  149.9835 H   0  0  0  0  0  0  0  0  0  0  0  0
  144.8108  133.1200  149.2153 H   0  0  0  0  0  0  0  0  0  0  0  0
  146.1037  130.8655  150.0670 H   0  0  0  0  0  0  0  0  0  0  0  0
  146.1751  129.5248  152.2003 H   0  0  0  0  0  0  0  0  0  0  0  0
  144.8449  129.0589  151.1520 H   0  0  0  0  0  0  0  0  0  0  0  0
  144.5272  130.0508  152.5660 H   0  0  0  0  0  0  0  0  0  0  0  0
  149.3764  138.6814  152.8525 H   0  0  0  0  0  0  0  0  0  0  0  0
  150.2582  140.0990  153.4020 H   0  0  0  0  0  0  0  0  0  0  0  0
  148.8448  139.5488  154.2800 H   0  0  0  0  0  0  0  0  0  0  0  0
  151.5170  137.3125  152.8835 H   0  0  0  0  0  0  0  0  0  0  0  0
  152.5755  137.3777  154.2862 H   0  0  0  0  0  0  0  0  0  0  0  0
  152.3156  138.8116  153.3244 H   0  0  0  0  0  0  0  0  0  0  0  0
  1  2  1  0  0  0  0
  1 29  1  0  0  0  0
  1 30  1  0  0  0  0
  1 31  1  0  0  0  0
  2  3  1  0  0  0  0
  2 32  1  0  0  0  0
  2 33  1  0  0  0  0
  3  4  1  0  0  0  0
  4 26  1  0  0  0  0
  4  5  1  0  0  0  0
  4 34  1  0  0  0  0
  5  6  1  0  0  0  0
  5 35  1  0  0  0  0
  5 36  1  0  0  0  0
  6  7  1  0  0  0  0
  6 26  1  0  0  0  0
  6 37  1  0  0  0  0
  7  8  1  0  0  0  0
  7  9  1  0  0  0  0
  8 38  1  0  0  0  0
  8 39  1  0  0  0  0
  8 40  1  0  0  0  0
  9 14  1  0  0  0  0
  9 10  2  0  0  0  0
 10 11  1  0  0  0  0
 11 12  2  0  0  0  0
 11 41  1  0  0  0  0
 12 13  1  0  0  0  0
 13 17  1  0  0  0  0
 13 14  2  0  0  0  0
 14 15  1  0  0  0  0
 15 16  2  0  0  0  0
 16 17  1  0  0  0  0
 16 42  1  0  0  0  0
 17 18  1  0  0  0  0
 18 19  1  0  0  0  0
 18 43  1  0  0  0  0
 18 44  1  0  0  0  0
 19 24  1  0  0  0  0
 19 20  1  0  0  0  0
 19 21  1  0  0  0  0
 20 45  1  0  0  0  0
 21 22  1  0  0  0  0
 21 46  1  0  0  0  0
 21 47  1  0  0  0  0
 22 23  1  0  0  0  0
 22 48  1  0  0  0  0
 22 49  1  0  0  0  0
 23 24  1  0  0  0  0
 24 25  1  0  0  0  0
 24 50  1  0  0  0  0
 25 51  1  0  0  0  0
 25 52  1  0  0  0  0
 25 53  1  0  0  0  0
 26 27  1  0  0  0  0
 26 28  1  0  0  0  0
 27 54  1  0  0  0  0
 27 55  1  0  0  0  0
 27 56  1  0  0  0  0
 28 57  1  0  0  0  0
 28 58  1  0  0  0  0
 28 59  1  0  0  0  0
M  END
> <s_m_source_file>
AV-unprocessed.smi

> <i_m_source_file_index>
234

> <i_lp_mmshare_version>
43012

> <i_f3d_flags>
0

> <s_epik_input>
W0NIM11bQ0gyXU9bQ0BASF0oQzEoW0NIM10pW0NIM10pW0NIMl1bQ0BIXTFOKFtDSDNdKWMobltjSF1uMiljKGMyMyluW2NIXW4zW0NIMl1bQ0BAXTQoW09IXSlbQ0gyXVtDSDJdT1tDQEhdNFtDSDNd

> <s_epik_cmdline>
J2VwaWtfcHl0aG9uJywgJy1waCcsICc3LjAnLCAnLXRuJywgJzgnLCAnLW1hJywgJzIwMCcsICctbWV0YWxfYmluZGluZycsICctaW1hZScsICc8aW5maWxlLm1hZT4nLCAnLW9tYWUnLCAnPG91dGZpbGUubWFlPic=

> <r_lp_tautomer_probability>
1

> <r_epik_Ionization_Penalty>
0.00349132

> <r_epik_Ionization_Penalty_Charging>
0

> <r_epik_Ionization_Penalty_Neutral>
0.00349132

> <r_epik_State_Penalty>
0.00242418

> <r_epik_Charging_Adjusted_Penalty>
0.00242418

> <i_epik_Tot_Q>
0

> <i_epik_Tot_abs_Q>
0

> <r_epik_Metal_State_Penalty>
-0

> <b_epik_Metal_Only>
0

> <s_lp_Force_Field>
OPLS_2005

> <r_lp_Energy>
53.0859

> <b_lp_Chiralities_Consistent>
1

> <s_lp_Variant>
AV-unprocessed.smi:234-16

> <Gold.Version>
5.8.1

> <Gold.Id.Protein>
6NUR|6NUR_protein|mol2

> <Gold.PLP.Fitness>
42.7754

> <Gold.PLP.PLP>
-39.7050

> <Gold.PLP.part.hbond>
-1.9145

> <Gold.PLP.part.metal>
0.0000

> <Gold.PLP.part.buried>
-7.4630

> <Gold.PLP.part.nonpolar>
-31.6124

> <Gold.PLP.part.repulsive>
1.2421

> <Gold.PLP.ligand.clash>
0.0000

> <Gold.PLP.ligand.torsion>
0.6311

> <Gold.PLP.Chemscore.Hbond>
1.1591

> <Gold.PLP.Chemscore.CHOScore>
0.0000

> <Gold.PLP.Chemscore.Metal>
0.0000

> <Gold.Chemscore.Hbonds>
donor molecule, donor type, donor heavy atom, donor atom, acceptor molecule, acceptor atom, score
      L1  H    20    45       P1 10747  0.96
      P1  H 10785 10796       L1    23  0.15

> <Gold.PLP.Chemscore.Internal.Correction>
0.8554

> <Gold.Rescore>
     Score         DG    S(hbond)    S(metal)    S(lipo)     H(rot)  DE(clash)    DE(int)     intcor
     12.33     -14.33       1.05        0.00      97.54       2.37       0.02       1.98       ----

> <Gold.Chemscore.Fitness>
12.3333

> <Gold.Chemscore.DG>
-14.3282

> <Gold.Chemscore.ZeroCoef>
-5.4800

> <Gold.Chemscore.Hbond>
1.0469

> <Gold.Chemscore.Metal>
0.0000

> <Gold.Chemscore.Lipo>
97.5436

> <Gold.Chemscore.Internal_Hbond>
0.0000

> <Gold.Chemscore.DEClash>
0.0176

> <Gold.Chemscore.DEInternal>
1.9773

> <Gold.Chemscore.Rot>
2.3676

> <Gold.Chemscore.Internal.Correction>
   9.000000E+99

> <Gold.Chemscore.Hbonds>
donor molecule, donor type, donor heavy atom, donor atom, acceptor molecule, acceptor atom, score
      L1  H    20    45       P1 10747  0.92
      P1  H 10785 10796       L1    23  0.14

> <Gold.Chemscore.Hbond.Weighted>
-3.4966

> <Gold.Chemscore.Metal.Weighted>
-0.0000

> <Gold.Chemscore.Lipo.Weighted>
-11.4126

> <Gold.Chemscore.Internal_Hbond.Weighted>
0.0000

> <Gold.Chemscore.DEClash.Weighted>
0.0176

> <Gold.Chemscore.DEInternal.Weighted>
1.9773

> <Gold.Chemscore.Rot.Weighted>
6.0610

> <Gold.Chemscore.Internal.Correction.Weighted>
   9.000000E+99

> <Gold.Protein.RotatedTorsions>
[ 6907 6896 6895 6894 ] final   95.69 input  -60.11 | X-H torsion
[ 7974 7965 7964 7962 ] final -121.78 input  175.53 | X-H torsion
[ 8008 7997 7996 7995 ] final -136.74 input   59.86 | X-H torsion
[ 10167 10162 10161 10158 ] final  161.78 input  -65.29 | X-H torsion
[ 10718 10713 10712 10709 ] final    2.79 input   66.30 | X-H torsion
[ 10763 10752 10751 10750 ] final  -53.85 input  -60.55 | X-H torsion
[ 11005 11000 10999 10996 ] final   19.89 input  -57.11 | X-H torsion

> <Gold.Protein.ActiveResidues>
 VAL166  LYS551  ARG553  GLY616  TRP617  ASP618  TYR619  PRO620  LYS621  CYS622 
 ASP623  PHE694  ASN695  SER759  ASP760  ASP761  ALA762  ILE779  LEU786  VAL792 
 PHE793  MET794  SER795  GLU796  ALA797  LYS798  CYS799  TRP800  GLU811  SER814 

> <Gold.Protein.RotatedAtoms>
  152.5441  134.1002  159.8314 H   0  0  0  0  0  0  0  0  0  0  0  0  # atno 6907 bound_to 6896
  151.1080  133.5186  159.2614 H   0  0  0  0  0  0  0  0  0  0  0  0  # atno 6908 bound_to 6896
  151.1916  135.0414  159.8889 H   0  0  0  0  0  0  0  0  0  0  0  0  # atno 6909 bound_to 6896
  145.0366  140.8111  143.4291 H   0  0  0  0  0  0  0  0  0  0  0  0  # atno 7974 bound_to 7965
  155.4002  140.0505  157.3037 H   0  0  0  0  0  0  0  0  0  0  0  0  # atno 8008 bound_to 7997
  154.4994  140.2151  155.9338 H   0  0  0  0  0  0  0  0  0  0  0  0  # atno 8009 bound_to 7997
  156.1448  140.3147  155.8558 H   0  0  0  0  0  0  0  0  0  0  0  0  # atno 8010 bound_to 7997
  139.4853  144.4503  151.8839 H   0  0  0  0  0  0  0  0  0  0  0  0  # atno 10167 bound_to 10162
  156.8682  130.5610  149.5659 H   0  0  0  0  0  0  0  0  0  0  0  0  # atno 10718 bound_to 10713
  154.1655  135.6468  153.4996 H   0  0  0  0  0  0  0  0  0  0  0  0  # atno 10763 bound_to 10752
  153.0099  135.5371  154.6667 H   0  0  0  0  0  0  0  0  0  0  0  0  # atno 10764 bound_to 10752
  154.5992  135.2942  155.0526 H   0  0  0  0  0  0  0  0  0  0  0  0  # atno 10765 bound_to 10752
  140.4087  134.1641  155.7666 H   0  0  0  0  0  0  0  0  0  0  0  0  # atno 11005 bound_to 11000
  145.1701  139.2409  143.5346 LP  0  0  0  0  0  0  0  0  0  0  0  0  # atno 17320 bound_to 7965
  146.3505  140.1450  142.8593 LP  0  0  0  0  0  0  0  0  0  0  0  0  # atno 17321 bound_to 7965
  140.3959  144.2556  150.5896 LP  0  0  0  0  0  0  0  0  0  0  0  0  # atno 17342 bound_to 10162
  140.5103  143.2292  151.8546 LP  0  0  0  0  0  0  0  0  0  0  0  0  # atno 17343 bound_to 10162
  156.0740  130.5767  150.9439 LP  0  0  0  0  0  0  0  0  0  0  0  0  # atno 17370 bound_to 10713
  157.6211  131.0929  150.8620 LP  0  0  0  0  0  0  0  0  0  0  0  0  # atno 17371 bound_to 10713
  141.1829  133.8375  157.1192 LP  0  0  0  0  0  0  0  0  0  0  0  0  # atno 17394 bound_to 11000
  140.0283  134.9913  157.0730 LP  0  0  0  0  0  0  0  0  0  0  0  0  # atno 17395 bound_to 11000

$$$$
