AV-unprocessed.smi:1125|AV-procd|sdf|4836|dock8
  -GOLD-   22720 3403D 1   1.00000     0.00000
 Structure written by MMmdl.
 45 46  0  0  0  0  0  0  0  0  1 V2000
  151.8859  145.5382  159.4748 C   0  0  0  0  0  0  0  0  0  0  0  0
  151.7982  144.0916  159.6154 N   0  0  0  0  0  0  0  0  0  0  0  0
  153.1410  143.5407  159.8024 C   0  0  0  0  0  0  0  0  0  0  0  0
  153.0659  142.0183  160.0150 C   0  0  0  0  0  0  0  0  0  0  0  0
  152.3826  141.3281  158.8247 C   0  0  0  0  0  0  0  0  0  0  0  0
  152.2141  139.9057  159.1049 N   0  0  0  0  0  0  0  0  0  0  0  0
  152.7291  138.9058  158.3720 C   0  0  0  0  0  0  0  0  0  0  0  0
  153.4065  139.0854  157.3600 O   0  0  0  0  0  0  0  0  0  0  0  0
  152.4309  137.4839  158.8495 C   0  0  0  0  0  0  0  0  0  0  0  0
  153.1322  137.2114  160.1487 C   0  0  0  0  0  0  0  0  0  0  0  0
  153.1736  138.0282  161.2505 C   0  0  0  0  0  0  0  0  0  0  0  0
  154.0976  137.3233  162.5459 S   0  0  0  0  0  0  0  0  0  0  0  0
  154.4150  135.9144  161.5271 C   0  0  0  0  0  0  0  0  0  0  0  0
  155.2391  134.7174  161.9374 C   0  0  0  0  0  0  0  0  0  0  0  0
  154.6445  134.0842  163.2105 C   0  0  0  0  0  0  0  0  0  0  0  0
  156.6954  135.1206  162.2548 C   0  0  0  0  0  0  0  0  0  0  0  0
  155.2792  133.6923  160.7873 C   0  0  0  0  0  0  0  0  0  0  0  0
  153.8435  136.0201  160.3216 N   0  0  0  0  0  0  0  0  0  0  0  0
  151.0248  142.0028  158.5610 C   0  0  0  0  0  0  0  0  0  0  0  0
  151.1837  143.5264  158.4136 C   0  0  0  0  0  0  0  0  0  0  0  0
  152.3261  145.9835  160.3674 H   0  0  0  0  0  0  0  0  0  0  0  0
  150.8933  145.9705  159.3446 H   0  0  0  0  0  0  0  0  0  0  0  0
  152.4962  145.8194  158.6153 H   0  0  0  0  0  0  0  0  0  0  0  0
  153.7675  143.7718  158.9392 H   0  0  0  0  0  0  0  0  0  0  0  0
  153.6082  144.0054  160.6714 H   0  0  0  0  0  0  0  0  0  0  0  0
  154.0697  141.6156  160.1545 H   0  0  0  0  0  0  0  0  0  0  0  0
  152.5176  141.8086  160.9352 H   0  0  0  0  0  0  0  0  0  0  0  0
  153.0190  141.4505  157.9460 H   0  0  0  0  0  0  0  0  0  0  0  0
  151.6752  139.6630  159.9238 H   0  0  0  0  0  0  0  0  0  0  0  0
  151.3518  137.3590  158.9505 H   0  0  0  0  0  0  0  0  0  0  0  0
  152.7522  136.7728  158.0876 H   0  0  0  0  0  0  0  0  0  0  0  0
  152.7126  138.9965  161.3785 H   0  0  0  0  0  0  0  0  0  0  0  0
  155.2318  133.2262  163.5396 H   0  0  0  0  0  0  0  0  0  0  0  0
  153.6249  133.7346  163.0454 H   0  0  0  0  0  0  0  0  0  0  0  0
  154.6172  134.8001  164.0332 H   0  0  0  0  0  0  0  0  0  0  0  0
  156.7447  135.8403  163.0728 H   0  0  0  0  0  0  0  0  0  0  0  0
  157.1890  135.5646  161.3894 H   0  0  0  0  0  0  0  0  0  0  0  0
  157.2896  134.2559  162.5527 H   0  0  0  0  0  0  0  0  0  0  0  0
  155.8803  132.8212  161.0505 H   0  0  0  0  0  0  0  0  0  0  0  0
  155.7078  134.1274  159.8835 H   0  0  0  0  0  0  0  0  0  0  0  0
  154.2804  133.3331  160.5364 H   0  0  0  0  0  0  0  0  0  0  0  0
  150.5688  141.5940  157.6585 H   0  0  0  0  0  0  0  0  0  0  0  0
  150.3359  141.7881  159.3795 H   0  0  0  0  0  0  0  0  0  0  0  0
  150.2036  143.9790  158.2580 H   0  0  0  0  0  0  0  0  0  0  0  0
  151.7876  143.7603  157.5351 H   0  0  0  0  0  0  0  0  0  0  0  0
  1  2  1  0  0  0  0
  1 21  1  0  0  0  0
  1 22  1  0  0  0  0
  1 23  1  0  0  0  0
  2 20  1  0  0  0  0
  2  3  1  0  0  0  0
  3  4  1  0  0  0  0
  3 24  1  0  0  0  0
  3 25  1  0  0  0  0
  4  5  1  0  0  0  0
  4 26  1  0  0  0  0
  4 27  1  0  0  0  0
  5  6  1  0  0  0  0
  5 19  1  0  0  0  0
  5 28  1  0  0  0  0
  6  7  1  0  0  0  0
  6 29  1  0  0  0  0
  7  8  2  0  0  0  0
  7  9  1  0  0  0  0
  9 10  1  0  0  0  0
  9 30  1  0  0  0  0
  9 31  1  0  0  0  0
 10 18  1  0  0  0  0
 10 11  2  0  0  0  0
 11 12  1  0  0  0  0
 11 32  1  0  0  0  0
 12 13  1  0  0  0  0
 13 14  1  0  0  0  0
 13 18  2  0  0  0  0
 14 15  1  0  0  0  0
 14 16  1  0  0  0  0
 14 17  1  0  0  0  0
 15 33  1  0  0  0  0
 15 34  1  0  0  0  0
 15 35  1  0  0  0  0
 16 36  1  0  0  0  0
 16 37  1  0  0  0  0
 16 38  1  0  0  0  0
 17 39  1  0  0  0  0
 17 40  1  0  0  0  0
 17 41  1  0  0  0  0
 19 20  1  0  0  0  0
 19 42  1  0  0  0  0
 19 43  1  0  0  0  0
 20 44  1  0  0  0  0
 20 45  1  0  0  0  0
M  END
> <s_m_source_file>
AV-unprocessed.smi

> <i_m_source_file_index>
1125

> <i_lp_mmshare_version>
43012

> <i_f3d_flags>
0

> <s_epik_input>
W0NIM11OMVtDSDJdW0NIMl1bQ0hdKFtDSDJdW0NIMl0xKVtOSF1DKD1PKVtDSDJdYzJbY0hdc2MobjIpQyhbQ0gzXSkoW0NIM10pW0NIM10=

> <s_epik_cmdline>
J2VwaWtfcHl0aG9uJywgJy1waCcsICc3LjAnLCAnLXRuJywgJzgnLCAnLW1hJywgJzIwMCcsICctbWV0YWxfYmluZGluZycsICctaW1hZScsICc8aW5maWxlLm1hZT4nLCAnLW9tYWUnLCAnPG91dGZpbGUubWFlPic=

> <r_epik_Ionization_Penalty>
2.53567

> <r_epik_Ionization_Penalty_Charging>
0

> <r_epik_Ionization_Penalty_Neutral>
2.53567

> <r_epik_State_Penalty>
2.70312

> <r_epik_Charging_Adjusted_Penalty>
2.70312

> <i_epik_Tot_Q>
0

> <i_epik_Tot_abs_Q>
0

> <r_epik_Metal_State_Penalty>
2.70311

> <b_epik_Metal_Only>
0

> <s_lp_Force_Field>
OPLS_2005

> <r_lp_Energy>
6.33754

> <b_lp_Chiralities_Consistent>
1

> <s_lp_Variant>
AV-unprocessed.smi:1125-3

> <Gold.Version>
5.8.1

> <Gold.Id.Protein>
6NUR|6NUR_protein|mol2

> <Gold.PLP.Fitness>
39.3727

> <Gold.PLP.PLP>
-33.8285

> <Gold.PLP.part.hbond>
-1.9462

> <Gold.PLP.part.metal>
0.0000

> <Gold.PLP.part.buried>
-4.8650

> <Gold.PLP.part.nonpolar>
-27.0887

> <Gold.PLP.part.repulsive>
0.1534

> <Gold.PLP.ligand.clash>
0.0000

> <Gold.PLP.ligand.torsion>
0.2327

> <Gold.PLP.Chemscore.Hbond>
2.0000

> <Gold.PLP.Chemscore.CHOScore>
0.0000

> <Gold.PLP.Chemscore.Metal>
0.0000

> <Gold.Chemscore.Hbonds>
donor molecule, donor type, donor heavy atom, donor atom, acceptor molecule, acceptor atom, score
      P1  H  6896  6907       L1    18  0.95
      P1  H  7997  8009       L1     8  0.99

> <Gold.PLP.Chemscore.Internal.Correction>
0.0097

> <Gold.Rescore>
     Score         DG    S(hbond)    S(metal)    S(lipo)     H(rot)  DE(clash)    DE(int)     intcor
     19.94     -21.24       1.79        0.00     113.18       1.35       0.15       1.16       ----

> <Gold.Chemscore.Fitness>
19.9355

> <Gold.Chemscore.DG>
-21.2415

> <Gold.Chemscore.ZeroCoef>
-5.4800

> <Gold.Chemscore.Hbond>
1.7912

> <Gold.Chemscore.Metal>
0.0000

> <Gold.Chemscore.Lipo>
113.1765

> <Gold.Chemscore.Internal_Hbond>
0.0000

> <Gold.Chemscore.DEClash>
0.1496

> <Gold.Chemscore.DEInternal>
1.1564

> <Gold.Chemscore.Rot>
1.3526

> <Gold.Chemscore.Internal.Correction>
   9.000000E+99

> <Gold.Chemscore.Hbonds>
donor molecule, donor type, donor heavy atom, donor atom, acceptor molecule, acceptor atom, score
      P1  H  6896  6907       L1    18  0.18
      P1  H  7997  8009       L1     8  0.92

> <Gold.Chemscore.Hbond.Weighted>
-5.9824

> <Gold.Chemscore.Metal.Weighted>
-0.0000

> <Gold.Chemscore.Lipo.Weighted>
-13.2417

> <Gold.Chemscore.Internal_Hbond.Weighted>
0.0000

> <Gold.Chemscore.DEClash.Weighted>
0.1496

> <Gold.Chemscore.DEInternal.Weighted>
1.1564

> <Gold.Chemscore.Rot.Weighted>
3.4626

> <Gold.Chemscore.Internal.Correction.Weighted>
   9.000000E+99

> <Gold.Protein.RotatedTorsions>
[ 6907 6896 6895 6894 ] final   54.65 input  -60.11 | X-H torsion
[ 7974 7965 7964 7962 ] final  100.85 input  175.53 | X-H torsion
[ 8008 7997 7996 7995 ] final  159.29 input   59.86 | X-H torsion
[ 10167 10162 10161 10158 ] final -137.16 input  -65.29 | X-H torsion
[ 10718 10713 10712 10709 ] final  -73.37 input   66.30 | X-H torsion
[ 10763 10752 10751 10750 ] final    2.33 input  -60.55 | X-H torsion
[ 11005 11000 10999 10996 ] final   17.52 input  -57.11 | X-H torsion

> <Gold.Protein.ActiveResidues>
 VAL166  LYS551  ARG553  GLY616  TRP617  ASP618  TYR619  PRO620  LYS621  CYS622 
 ASP623  PHE694  ASN695  SER759  ASP760  ASP761  ALA762  ILE779  LEU786  VAL792 
 PHE793  MET794  SER795  GLU796  ALA797  LYS798  CYS799  TRP800  GLU811  SER814 

> <Gold.Protein.RotatedAtoms>
  152.3460  134.7070  160.0249 H   0  0  0  0  0  0  0  0  0  0  0  0  # atno 6907 bound_to 6896
  151.7439  133.3318  159.3381 H   0  0  0  0  0  0  0  0  0  0  0  0  # atno 6908 bound_to 6896
  150.7510  134.6186  159.6168 H   0  0  0  0  0  0  0  0  0  0  0  0  # atno 6909 bound_to 6896
  145.3801  139.2381  143.3408 H   0  0  0  0  0  0  0  0  0  0  0  0  # atno 7974 bound_to 7965
  156.2248  140.1835  156.7389 H   0  0  0  0  0  0  0  0  0  0  0  0  # atno 8008 bound_to 7997
  154.5924  140.0649  156.9284 H   0  0  0  0  0  0  0  0  0  0  0  0  # atno 8009 bound_to 7997
  155.2314  140.3315  155.4305 H   0  0  0  0  0  0  0  0  0  0  0  0  # atno 8010 bound_to 7997
  139.8606  143.7082  152.2650 H   0  0  0  0  0  0  0  0  0  0  0  0  # atno 10167 bound_to 10162
  156.0283  130.4392  150.2732 H   0  0  0  0  0  0  0  0  0  0  0  0  # atno 10718 bound_to 10713
  153.2969  135.6953  153.7240 H   0  0  0  0  0  0  0  0  0  0  0  0  # atno 10763 bound_to 10752
  153.6169  135.3434  155.2998 H   0  0  0  0  0  0  0  0  0  0  0  0  # atno 10764 bound_to 10752
  154.8540  135.4377  154.2068 H   0  0  0  0  0  0  0  0  0  0  0  0  # atno 10765 bound_to 10752
  140.4350  134.1381  155.7684 H   0  0  0  0  0  0  0  0  0  0  0  0  # atno 11005 bound_to 11000
  146.2846  140.4467  142.8763 LP  0  0  0  0  0  0  0  0  0  0  0  0  # atno 17320 bound_to 7965
  144.8514  140.7006  143.6166 LP  0  0  0  0  0  0  0  0  0  0  0  0  # atno 17321 bound_to 7965
  139.7378  144.7567  151.0700 LP  0  0  0  0  0  0  0  0  0  0  0  0  # atno 17342 bound_to 10162
  140.7775  143.5009  150.9772 LP  0  0  0  0  0  0  0  0  0  0  0  0  # atno 17343 bound_to 10162
  157.0835  131.0150  151.3148 LP  0  0  0  0  0  0  0  0  0  0  0  0  # atno 17370 bound_to 10713
  157.4909  130.7821  149.7507 LP  0  0  0  0  0  0  0  0  0  0  0  0  # atno 17371 bound_to 10713
  141.1730  133.8571  157.1512 LP  0  0  0  0  0  0  0  0  0  0  0  0  # atno 17394 bound_to 11000
  140.0108  134.9989  157.0392 LP  0  0  0  0  0  0  0  0  0  0  0  0  # atno 17395 bound_to 11000

$$$$
