AV-unprocessed.smi:1452|AV-procd|sdf|5910|dock2
  -GOLD-   22720 5593D 1   1.00000     0.00000
 Structure written by MMmdl.
 40 42  0  0  0  0  0  0  0  0  2 V2000
  151.5292  139.9131  156.8850 O   0  0  0  0  0  0  0  0  0  0  0  0
  151.0011  140.7963  156.2115 C   0  0  0  0  0  0  0  0  0  0  0  0
  151.0104  142.0834  156.6197 N   0  0  0  0  0  0  0  0  0  0  0  0
  151.5479  142.7028  157.7870 C   0  0  0  0  0  0  0  0  0  0  0  0
  151.3494  144.1007  157.8504 C   0  0  0  0  0  0  0  0  0  0  0  0
  151.8355  144.8244  158.9564 C   0  0  0  0  0  0  0  0  0  0  0  0
  152.5132  144.1312  159.9748 C   0  0  0  0  0  0  0  0  0  0  0  0
  152.6714  142.7405  159.8366 C   0  0  0  0  0  0  0  0  0  0  0  0
  152.2042  142.0455  158.7778 N   0  0  0  0  0  0  0  0  0  0  0  0
  150.3981  140.5483  155.0377 N   0  0  0  0  0  0  0  0  0  0  0  0
  150.2970  139.2444  154.3913 C   0  0  1  0  0  0  0  0  0  0  0  0
  151.5881  138.4158  154.5124 C   0  0  0  0  0  0  0  0  0  0  0  0
  151.1230  136.9624  154.7307 C   0  0  0  0  0  0  0  0  0  0  0  0
  149.6522  137.0021  154.6213 N   0  3  1  0  0  0  0  0  0  0  0  0
  148.8967  135.9268  155.3004 C   0  0  0  0  0  0  0  0  0  0  0  0
  147.3932  136.0952  155.0025 C   0  0  0  0  0  0  0  0  0  0  0  0
  146.8964  137.5130  155.3508 C   0  0  0  0  0  0  0  0  0  0  0  0
  147.7783  138.5900  154.6897 C   0  0  0  0  0  0  0  0  0  0  0  0
  149.2516  138.3476  155.0592 C   0  0  2  0  0  0  0  0  0  0  0  0
  150.5340  142.7192  155.9964 H   0  0  0  0  0  0  0  0  0  0  0  0
  150.8272  144.6200  157.0596 H   0  0  0  0  0  0  0  0  0  0  0  0
  151.6912  145.8927  159.0205 H   0  0  0  0  0  0  0  0  0  0  0  0
  152.9008  144.6512  160.8384 H   0  0  0  0  0  0  0  0  0  0  0  0
  153.1863  142.1703  160.5955 H   0  0  0  0  0  0  0  0  0  0  0  0
  149.9866  141.3331  154.5514 H   0  0  0  0  0  0  0  0  0  0  0  0
  150.0591  139.3573  153.3314 H   0  0  0  0  0  0  0  0  0  0  0  0
  152.2028  138.5147  153.6169 H   0  0  0  0  0  0  0  0  0  0  0  0
  152.1929  138.7400  155.3609 H   0  0  0  0  0  0  0  0  0  0  0  0
  151.5467  136.2749  153.9982 H   0  0  0  0  0  0  0  0  0  0  0  0
  151.4167  136.6220  155.7248 H   0  0  0  0  0  0  0  0  0  0  0  0
  149.2439  134.9553  154.9467 H   0  0  0  0  0  0  0  0  0  0  0  0
  149.0803  135.9651  156.3754 H   0  0  0  0  0  0  0  0  0  0  0  0
  147.2113  135.9016  153.9445 H   0  0  0  0  0  0  0  0  0  0  0  0
  146.8176  135.3516  155.5543 H   0  0  0  0  0  0  0  0  0  0  0  0
  145.8584  137.6346  155.0399 H   0  0  0  0  0  0  0  0  0  0  0  0
  146.9124  137.6460  156.4332 H   0  0  0  0  0  0  0  0  0  0  0  0
  147.6519  138.5626  153.6066 H   0  0  0  0  0  0  0  0  0  0  0  0
  147.4613  139.5804  155.0172 H   0  0  0  0  0  0  0  0  0  0  0  0
  149.3682  138.4090  156.1439 H   0  0  0  0  0  0  0  0  0  0  0  0
  149.4360  136.9473  153.6362 H   0  0  0  0  0  0  0  0  0  0  0  0
  1  2  2  0  0  0  0
  2  3  1  0  0  0  0
  2 10  1  0  0  0  0
  3  4  1  0  0  0  0
  3 20  1  0  0  0  0
  4  9  1  0  0  0  0
  4  5  2  0  0  0  0
  5  6  1  0  0  0  0
  5 21  1  0  0  0  0
  6  7  2  0  0  0  0
  6 22  1  0  0  0  0
  7  8  1  0  0  0  0
  7 23  1  0  0  0  0
  8  9  2  0  0  0  0
  8 24  1  0  0  0  0
 10 11  1  0  0  0  0
 10 25  1  0  0  0  0
 11 19  1  0  0  0  0
 11 12  1  0  0  0  0
 11 26  1  0  0  0  0
 12 13  1  0  0  0  0
 12 27  1  0  0  0  0
 12 28  1  0  0  0  0
 13 14  1  0  0  0  0
 13 29  1  0  0  0  0
 13 30  1  0  0  0  0
 14 19  1  0  0  0  0
 14 15  1  0  0  0  0
 14 40  1  0  0  0  0
 15 16  1  0  0  0  0
 15 31  1  0  0  0  0
 15 32  1  0  0  0  0
 16 17  1  0  0  0  0
 16 33  1  0  0  0  0
 16 34  1  0  0  0  0
 17 18  1  0  0  0  0
 17 35  1  0  0  0  0
 17 36  1  0  0  0  0
 18 19  1  0  0  0  0
 18 37  1  0  0  0  0
 18 38  1  0  0  0  0
 19 39  1  0  0  0  0
M  CHG  1  14   1
M  END
> <s_m_source_file>
AV-unprocessed.smi

> <i_m_source_file_index>
1452

> <i_lp_mmshare_version>
43012

> <i_f3d_flags>
0

> <s_epik_input>
W0NIMl0xW0NIMl1bQ0gyXVtDSDJdW0NASF0oTjEyKVtDQEBIXShbQ0gyXVtDSDJdMilbTkhdQyg9TylbTkhdYzNbY0hdW2NIXVtjSF1bY0hdbjM=

> <s_epik_cmdline>
J2VwaWtfcHl0aG9uJywgJy1waCcsICc3LjAnLCAnLXRuJywgJzgnLCAnLW1hJywgJzIwMCcsICctbWV0YWxfYmluZGluZycsICctaW1hZScsICc8aW5maWxlLm1hZT4nLCAnLW9tYWUnLCAnPG91dGZpbGUubWFlPic=

> <r_epik_Ionization_Penalty>
0.00100813

> <r_epik_Ionization_Penalty_Charging>
0.000974069

> <r_epik_Ionization_Penalty_Neutral>
3.40643e-05

> <r_epik_State_Penalty>
0.000633842

> <r_epik_Charging_Adjusted_Penalty>
0.00160791

> <i_epik_Tot_Q>
1

> <i_epik_Tot_abs_Q>
1

> <r_epik_Metal_State_Penalty>
-0

> <b_epik_Metal_Only>
0

> <s_lp_Force_Field>
OPLS_2005

> <r_lp_Energy>
38.162

> <b_lp_Chiralities_Consistent>
1

> <s_lp_Variant>
AV-unprocessed.smi:1452-8

> <Gold.Version>
5.8.1

> <Gold.Id.Protein>
6NUR|6NUR_protein|mol2

> <Gold.PLP.Fitness>
39.4406

> <Gold.PLP.PLP>
-33.9111

> <Gold.PLP.part.hbond>
-1.0000

> <Gold.PLP.part.metal>
0.0000

> <Gold.PLP.part.buried>
-5.9839

> <Gold.PLP.part.nonpolar>
-29.0897

> <Gold.PLP.part.repulsive>
1.8228

> <Gold.PLP.ligand.clash>
0.0000

> <Gold.PLP.ligand.torsion>
0.2405

> <Gold.PLP.Chemscore.Hbond>
2.0000

> <Gold.PLP.Chemscore.CHOScore>
0.0000

> <Gold.PLP.Chemscore.Metal>
0.0000

> <Gold.Chemscore.Hbonds>
donor molecule, donor type, donor heavy atom, donor atom, acceptor molecule, acceptor atom, score
      L1  H    14    40       P1  7948  2.00

> <Gold.PLP.Chemscore.Internal.Correction>
0.0106

> <Gold.Rescore>
     Score         DG    S(hbond)    S(metal)    S(lipo)     H(rot)  DE(clash)    DE(int)     intcor
     12.68     -15.53       0.99        0.00      79.43       1.00       0.02       2.82       ----

> <Gold.Chemscore.Fitness>
12.6847

> <Gold.Chemscore.DG>
-15.5293

> <Gold.Chemscore.ZeroCoef>
-5.4800

> <Gold.Chemscore.Hbond>
0.9927

> <Gold.Chemscore.Metal>
0.0000

> <Gold.Chemscore.Lipo>
79.4328

> <Gold.Chemscore.Internal_Hbond>
0.0000

> <Gold.Chemscore.DEClash>
0.0224

> <Gold.Chemscore.DEInternal>
2.8222

> <Gold.Chemscore.Rot>
1.0000

> <Gold.Chemscore.Internal.Correction>
   9.000000E+99

> <Gold.Chemscore.Hbonds>
donor molecule, donor type, donor heavy atom, donor atom, acceptor molecule, acceptor atom, score
      L1  H    14    40       P1  7948  0.91

> <Gold.Chemscore.Hbond.Weighted>
-3.3157

> <Gold.Chemscore.Metal.Weighted>
-0.0000

> <Gold.Chemscore.Lipo.Weighted>
-9.2936

> <Gold.Chemscore.Internal_Hbond.Weighted>
0.0000

> <Gold.Chemscore.DEClash.Weighted>
0.0224

> <Gold.Chemscore.DEInternal.Weighted>
2.8222

> <Gold.Chemscore.Rot.Weighted>
2.5600

> <Gold.Chemscore.Internal.Correction.Weighted>
   9.000000E+99

> <Gold.Protein.RotatedTorsions>
[ 6907 6896 6895 6894 ] final -167.16 input  -60.11 | X-H torsion
[ 7974 7965 7964 7962 ] final -179.79 input  175.53 | X-H torsion
[ 8008 7997 7996 7995 ] final  144.59 input   59.86 | X-H torsion
[ 10167 10162 10161 10158 ] final -142.57 input  -65.29 | X-H torsion
[ 10718 10713 10712 10709 ] final   39.92 input   66.30 | X-H torsion
[ 10763 10752 10751 10750 ] final -159.94 input  -60.55 | X-H torsion
[ 11005 11000 10999 10996 ] final   73.25 input  -57.11 | X-H torsion

> <Gold.Protein.ActiveResidues>
 VAL166  LYS551  ARG553  GLY616  TRP617  ASP618  TYR619  PRO620  LYS621  CYS622 
 ASP623  PHE694  ASN695  SER759  ASP760  ASP761  ALA762  ILE779  LEU786  VAL792 
 PHE793  MET794  SER795  GLU796  ALA797  LYS798  CYS799  TRP800  GLU811  SER814 

> <Gold.Protein.RotatedAtoms>
  151.4551  133.3607  159.2800 H   0  0  0  0  0  0  0  0  0  0  0  0  # atno 6907 bound_to 6896
  150.9064  134.8480  159.7406 H   0  0  0  0  0  0  0  0  0  0  0  0  # atno 6908 bound_to 6896
  152.4908  134.4477  159.9616 H   0  0  0  0  0  0  0  0  0  0  0  0  # atno 6909 bound_to 6896
  144.7139  140.0665  143.6431 H   0  0  0  0  0  0  0  0  0  0  0  0  # atno 7974 bound_to 7965
  156.2904  140.2232  156.5077 H   0  0  0  0  0  0  0  0  0  0  0  0  # atno 8008 bound_to 7997
  154.7635  140.0471  157.1015 H   0  0  0  0  0  0  0  0  0  0  0  0  # atno 8009 bound_to 7997
  154.9961  140.3096  155.4889 H   0  0  0  0  0  0  0  0  0  0  0  0  # atno 8010 bound_to 7997
  139.8076  143.7747  152.2662 H   0  0  0  0  0  0  0  0  0  0  0  0  # atno 10167 bound_to 10162
  157.3762  130.7728  149.7157 H   0  0  0  0  0  0  0  0  0  0  0  0  # atno 10718 bound_to 10713
  154.7432  135.3074  154.8691 H   0  0  0  0  0  0  0  0  0  0  0  0  # atno 10763 bound_to 10752
  153.9499  135.6765  153.4748 H   0  0  0  0  0  0  0  0  0  0  0  0  # atno 10764 bound_to 10752
  153.1030  135.4903  154.8826 H   0  0  0  0  0  0  0  0  0  0  0  0  # atno 10765 bound_to 10752
  139.9449  134.7330  156.1004 H   0  0  0  0  0  0  0  0  0  0  0  0  # atno 11005 bound_to 11000
  145.9820  139.2948  143.1036 LP  0  0  0  0  0  0  0  0  0  0  0  0  # atno 17320 bound_to 7965
  145.9000  140.9249  143.0508 LP  0  0  0  0  0  0  0  0  0  0  0  0  # atno 17321 bound_to 7965
  139.7886  144.7418  150.9986 LP  0  0  0  0  0  0  0  0  0  0  0  0  # atno 17342 bound_to 10162
  140.7819  143.4466  151.0474 LP  0  0  0  0  0  0  0  0  0  0  0  0  # atno 17343 bound_to 10162
  155.9766  130.4074  150.3770 LP  0  0  0  0  0  0  0  0  0  0  0  0  # atno 17370 bound_to 10713
  157.1868  131.0405  151.2721 LP  0  0  0  0  0  0  0  0  0  0  0  0  # atno 17371 bound_to 10713
  141.1097  133.6647  156.2948 LP  0  0  0  0  0  0  0  0  0  0  0  0  # atno 17394 bound_to 11000
  140.5858  134.5700  157.5489 LP  0  0  0  0  0  0  0  0  0  0  0  0  # atno 17395 bound_to 11000

$$$$
