AV-unprocessed.smi:52|AV-procd|sdf|509|dock7
  -GOLD-   2262016383D 1   1.00000     0.00000
 Structure written by MMmdl.
 27 28  0  0  0  0  0  0  0  0  3 V2000
  152.4565  134.8306  157.0034 O   0  0  0  0  0  0  0  0  0  0  0  0
  151.7520  133.8242  156.7679 C   0  0  0  0  0  0  0  0  0  0  0  0
  151.9278  132.7391  157.3644 O   0  5  0  0  0  0  0  0  0  0  0  0
  150.6773  133.9198  155.7468 C   0  0  0  0  0  0  0  0  0  0  0  0
  150.0988  135.0674  155.2667 C   0  0  0  0  0  0  0  0  0  0  0  0
  149.1553  134.7386  154.3311 O   0  0  0  0  0  0  0  0  0  0  0  0
  149.1959  133.3797  154.2793 C   0  0  0  0  0  0  0  0  0  0  0  0
  148.2964  132.6633  153.3272 C   0  0  0  0  0  0  0  0  0  0  0  0
  147.5332  133.7463  152.6633 N   0  3  2  0  0  0  0  0  0  0  0  0
  146.4355  134.2964  153.4848 C   0  0  0  0  0  0  0  0  0  0  0  0
  145.4601  134.9065  152.4839 C   0  0  0  0  0  0  0  0  0  0  0  0
  145.5197  133.9163  151.3248 C   0  0  1  0  0  0  0  0  0  0  0  0
  145.1610  134.5211  150.1004 O   0  0  0  0  0  0  0  0  0  0  0  0
  146.9706  133.4127  151.3292 C   0  0  0  0  0  0  0  0  0  0  0  0
  150.0865  132.8381  155.1059 N   0  0  0  0  0  0  0  0  0  0  0  0
  144.8447  133.0833  151.5267 H   0  0  0  0  0  0  0  0  0  0  0  0
  150.2397  136.1186  155.4721 H   0  0  0  0  0  0  0  0  0  0  0  0
  148.8699  132.0678  152.6154 H   0  0  0  0  0  0  0  0  0  0  0  0
  147.6327  132.0029  153.8867 H   0  0  0  0  0  0  0  0  0  0  0  0
  145.9431  133.4892  154.0300 H   0  0  0  0  0  0  0  0  0  0  0  0
  146.8017  135.0221  154.2116 H   0  0  0  0  0  0  0  0  0  0  0  0
  144.4547  135.0302  152.8880 H   0  0  0  0  0  0  0  0  0  0  0  0
  145.8226  135.8872  152.1700 H   0  0  0  0  0  0  0  0  0  0  0  0
  145.7718  134.2437  149.4341 H   0  0  0  0  0  0  0  0  0  0  0  0
  147.5747  133.9167  150.5734 H   0  0  0  0  0  0  0  0  0  0  0  0
  147.0044  132.3429  151.1161 H   0  0  0  0  0  0  0  0  0  0  0  0
  148.1776  134.5094  152.5120 H   0  0  0  0  0  0  0  0  0  0  0  0
  1  2  2  0  0  0  0
  2  3  1  0  0  0  0
  2  4  1  0  0  0  0
  4 15  1  0  0  0  0
  4  5  2  0  0  0  0
  5  6  1  0  0  0  0
  5 17  1  0  0  0  0
  6  7  1  0  0  0  0
  7  8  1  0  0  0  0
  7 15  2  0  0  0  0
  8  9  1  0  0  0  0
  8 18  1  0  0  0  0
  8 19  1  0  0  0  0
  9 14  1  0  0  0  0
  9 10  1  0  0  0  0
  9 27  1  0  0  0  0
 10 11  1  0  0  0  0
 10 20  1  0  0  0  0
 10 21  1  0  0  0  0
 11 12  1  0  0  0  0
 11 22  1  0  0  0  0
 11 23  1  0  0  0  0
 12 16  1  0  0  0  0
 12 13  1  0  0  0  0
 12 14  1  0  0  0  0
 13 24  1  0  0  0  0
 14 25  1  0  0  0  0
 14 26  1  0  0  0  0
M  CHG  1   3  -1
M  CHG  1   9   1
M  END
> <s_m_source_file>
AV-unprocessed.smi

> <i_m_source_file_index>
52

> <i_lp_mmshare_version>
43012

> <i_f3d_flags>
0

> <s_epik_input>
Tz1DKFtPSF0pYzFbY0hdb2MobjEpW0NIMl1OMltDSDJdW0NIMl1bQ0BIXShbT0hdKVtDSDJdMg==

> <s_epik_cmdline>
J2VwaWtfcHl0aG9uJywgJy1waCcsICc3LjAnLCAnLXRuJywgJzgnLCAnLW1hJywgJzIwMCcsICctbWV0YWxfYmluZGluZycsICctaW1hZScsICc8aW5maWxlLm1hZT4nLCAnLW9tYWUnLCAnPG91dGZpbGUubWFlPic=

> <r_epik_Ionization_Penalty>
0.0376014

> <r_epik_Ionization_Penalty_Charging>
0.0376013

> <r_epik_Ionization_Penalty_Neutral>
1.78687e-08

> <r_epik_State_Penalty>
0.0314164

> <r_epik_Charging_Adjusted_Penalty>
0.0690177

> <i_epik_Tot_Q>
0

> <i_epik_Tot_abs_Q>
2

> <r_epik_Metal_State_Penalty>
0.0314164

> <b_epik_Metal_Only>
0

> <s_lp_Force_Field>
OPLS_2005

> <r_lp_Energy>
21.0877

> <b_lp_Chiralities_Consistent>
1

> <s_lp_Variant>
AV-unprocessed.smi:52-3

> <Gold.Version>
5.8.1

> <Gold.Id.Protein>
6NUR|6NUR_protein|mol2

> <Gold.PLP.Fitness>
40.1462

> <Gold.PLP.PLP>
-21.2387

> <Gold.PLP.part.hbond>
-4.7125

> <Gold.PLP.part.metal>
0.0000

> <Gold.PLP.part.buried>
-3.9057

> <Gold.PLP.part.nonpolar>
-13.6843

> <Gold.PLP.part.repulsive>
1.4802

> <Gold.PLP.ligand.clash>
0.0000

> <Gold.PLP.ligand.torsion>
0.3670

> <Gold.PLP.Chemscore.Hbond>
6.5440

> <Gold.PLP.Chemscore.CHOScore>
0.0000

> <Gold.PLP.Chemscore.Metal>
0.0000

> <Gold.Chemscore.Hbonds>
donor molecule, donor type, donor heavy atom, donor atom, acceptor molecule, acceptor atom, score
      L1  H     9    27       P1  7948  2.00
      L1  H    13    24       P1  7921  0.69
      P1  H  6896  6909       L1     3  1.82
      P1  H 10752 10764       L1     1  1.75

> <Gold.PLP.Chemscore.Internal.Correction>
0.0096

> <Gold.Rescore>
     Score         DG    S(hbond)    S(metal)    S(lipo)     H(rot)  DE(clash)    DE(int)     intcor
     11.87     -15.18       3.32        0.00      31.75       1.99       1.54       1.77       ----

> <Gold.Chemscore.Fitness>
11.8665

> <Gold.Chemscore.DG>
-15.1753

> <Gold.Chemscore.ZeroCoef>
-5.4800

> <Gold.Chemscore.Hbond>
3.3171

> <Gold.Chemscore.Metal>
0.0000

> <Gold.Chemscore.Lipo>
31.7550

> <Gold.Chemscore.Internal_Hbond>
0.0000

> <Gold.Chemscore.DEClash>
1.5426

> <Gold.Chemscore.DEInternal>
1.7663

> <Gold.Chemscore.Rot>
1.9919

> <Gold.Chemscore.Internal.Correction>
   9.000000E+99

> <Gold.Chemscore.Hbonds>
donor molecule, donor type, donor heavy atom, donor atom, acceptor molecule, acceptor atom, score
      L1  H     9    27       P1  7948  0.30
      L1  H    13    24       P1  7921  0.42
      P1  H  6896  6909       L1     3  0.26
      P1  H 10752 10764       L1     1  0.64

> <Gold.Chemscore.Hbond.Weighted>
-11.0791

> <Gold.Chemscore.Metal.Weighted>
-0.0000

> <Gold.Chemscore.Lipo.Weighted>
-3.7153

> <Gold.Chemscore.Internal_Hbond.Weighted>
0.0000

> <Gold.Chemscore.DEClash.Weighted>
1.5426

> <Gold.Chemscore.DEInternal.Weighted>
1.7663

> <Gold.Chemscore.Rot.Weighted>
5.0991

> <Gold.Chemscore.Internal.Correction.Weighted>
   9.000000E+99

> <Gold.Protein.RotatedTorsions>
[ 6907 6896 6895 6894 ] final  -64.27 input  -60.11 | X-H torsion
[ 7974 7965 7964 7962 ] final  165.77 input  175.53 | X-H torsion
[ 8008 7997 7996 7995 ] final  142.74 input   59.86 | X-H torsion
[ 10167 10162 10161 10158 ] final  -50.49 input  -65.29 | X-H torsion
[ 10718 10713 10712 10709 ] final   77.99 input   66.30 | X-H torsion
[ 10763 10752 10751 10750 ] final    4.49 input  -60.55 | X-H torsion
[ 11005 11000 10999 10996 ] final   49.45 input  -57.11 | X-H torsion

> <Gold.Protein.ActiveResidues>
 VAL166  LYS551  ARG553  GLY616  TRP617  ASP618  TYR619  PRO620  LYS621  CYS622 
 ASP623  PHE694  ASN695  SER759  ASP760  ASP761  ALA762  ILE779  LEU786  VAL792 
 PHE793  MET794  SER795  GLU796  ALA797  LYS798  CYS799  TRP800  GLU811  SER814 

> <Gold.Protein.RotatedAtoms>
  150.7596  134.6321  159.6191 H   0  0  0  0  0  0  0  0  0  0  0  0  # atno 6907 bound_to 6896
  152.3595  134.6889  160.0220 H   0  0  0  0  0  0  0  0  0  0  0  0  # atno 6908 bound_to 6896
  151.7283  133.3280  159.3370 H   0  0  0  0  0  0  0  0  0  0  0  0  # atno 6909 bound_to 6896
  144.7489  139.8519  143.6373 H   0  0  0  0  0  0  0  0  0  0  0  0  # atno 7974 bound_to 7965
  156.2944  140.2281  156.4777 H   0  0  0  0  0  0  0  0  0  0  0  0  # atno 8008 bound_to 7997
  154.7880  140.0456  157.1200 H   0  0  0  0  0  0  0  0  0  0  0  0  # atno 8009 bound_to 7997
  154.9679  140.3063  155.5004 H   0  0  0  0  0  0  0  0  0  0  0  0  # atno 8010 bound_to 7997
  140.6635  143.2656  151.4366 H   0  0  0  0  0  0  0  0  0  0  0  0  # atno 10167 bound_to 10162
  157.6729  130.9847  150.1721 H   0  0  0  0  0  0  0  0  0  0  0  0  # atno 10718 bound_to 10713
  153.2706  135.6932  153.7485 H   0  0  0  0  0  0  0  0  0  0  0  0  # atno 10763 bound_to 10752
  153.6510  135.3377  155.3100 H   0  0  0  0  0  0  0  0  0  0  0  0  # atno 10764 bound_to 10752
  154.8462  135.4454  154.1727 H   0  0  0  0  0  0  0  0  0  0  0  0  # atno 10765 bound_to 10752
  140.1102  134.4964  155.8684 H   0  0  0  0  0  0  0  0  0  0  0  0  # atno 11005 bound_to 11000
  146.1410  139.4467  143.0109 LP  0  0  0  0  0  0  0  0  0  0  0  0  # atno 17320 bound_to 7965
  145.7018  141.0133  143.1500 LP  0  0  0  0  0  0  0  0  0  0  0  0  # atno 17321 bound_to 7965
  139.5876  144.1570  152.2048 LP  0  0  0  0  0  0  0  0  0  0  0  0  # atno 17342 bound_to 10162
  140.0914  144.5617  150.7052 LP  0  0  0  0  0  0  0  0  0  0  0  0  # atno 17343 bound_to 10162
  156.2473  130.3697  149.8271 LP  0  0  0  0  0  0  0  0  0  0  0  0  # atno 17370 bound_to 10713
  156.6054  130.8564  151.3442 LP  0  0  0  0  0  0  0  0  0  0  0  0  # atno 17371 bound_to 10713
  141.2128  133.6725  156.6690 LP  0  0  0  0  0  0  0  0  0  0  0  0  # atno 17394 bound_to 11000
  140.3101  134.8093  157.4169 LP  0  0  0  0  0  0  0  0  0  0  0  0  # atno 17395 bound_to 11000

$$$$
