AV-unprocessed.smi:1362|AV-procd|sdf|5560|dock1
  -GOLD-   22720 5153D 1   1.00000     0.00000
 Structure written by MMmdl.
 39 39  0  0  0  0  0  0  0  0  1 V2000
  151.3625  135.2606  154.7009 C   0  0  0  0  0  0  0  0  0  0  0  0
  151.5699  136.7102  155.0820 C   0  0  0  0  0  0  0  0  0  0  0  0
  150.7567  137.5889  154.3859 N   0  0  0  0  0  0  0  0  0  0  0  0
  150.8726  138.9391  154.6654 C   0  0  0  0  0  0  0  0  0  0  0  0
  149.9451  139.8300  153.8575 C   0  0  0  0  0  0  0  0  0  0  0  0
  151.7554  139.3910  155.5921 C   0  0  0  0  0  0  0  0  0  0  0  0
  151.9205  140.8720  155.9277 C   0  0  0  0  0  0  0  0  0  0  0  0
  151.6215  141.2448  157.3796 C   0  0  0  0  0  0  0  0  0  0  0  0
  151.3748  140.3663  158.2053 O   0  0  0  0  0  0  0  0  0  0  0  0
  151.6432  142.5548  157.6704 N   0  0  0  0  0  0  0  0  0  0  0  0
  151.3682  143.1467  158.9783 C   0  0  2  0  0  0  0  0  0  0  0  0
  150.0956  144.0070  158.8680 C   0  0  0  0  0  0  0  0  0  0  0  0
  152.6062  143.9390  159.4753 C   0  0  0  0  0  0  0  0  0  0  0  0
  152.2347  144.9934  160.5363 C   0  0  0  0  0  0  0  0  0  0  0  0
  153.3697  144.6184  158.3242 C   0  0  0  0  0  0  0  0  0  0  0  0
  152.6034  138.4027  156.3001 C   0  0  0  0  0  0  0  0  0  0  0  0
  153.4337  138.7510  157.1388 O   0  0  0  0  0  0  0  0  0  0  0  0
  152.4437  137.0442  155.9823 N   0  0  0  0  0  0  0  0  0  0  0  0
  150.0874  137.2959  153.6887 H   0  0  0  0  0  0  0  0  0  0  0  0
  151.9781  134.6031  155.3162 H   0  0  0  0  0  0  0  0  0  0  0  0
  151.6316  135.1015  153.6564 H   0  0  0  0  0  0  0  0  0  0  0  0
  150.3187  134.9764  154.8378 H   0  0  0  0  0  0  0  0  0  0  0  0
  149.2681  140.3737  154.5165 H   0  0  0  0  0  0  0  0  0  0  0  0
  149.3378  139.2510  153.1605 H   0  0  0  0  0  0  0  0  0  0  0  0
  150.5191  140.5529  153.2780 H   0  0  0  0  0  0  0  0  0  0  0  0
  151.3033  141.4862  155.2706 H   0  0  0  0  0  0  0  0  0  0  0  0
  152.9431  141.1742  155.7011 H   0  0  0  0  0  0  0  0  0  0  0  0
  151.8606  143.1971  156.9219 H   0  0  0  0  0  0  0  0  0  0  0  0
  151.1756  142.3465  159.6954 H   0  0  0  0  0  0  0  0  0  0  0  0
  149.7704  144.3751  159.8403 H   0  0  0  0  0  0  0  0  0  0  0  0
  149.2661  143.4302  158.4571 H   0  0  0  0  0  0  0  0  0  0  0  0
  150.2535  144.8678  158.2173 H   0  0  0  0  0  0  0  0  0  0  0  0
  153.2915  143.2337  159.9480 H   0  0  0  0  0  0  0  0  0  0  0  0
  151.5144  145.7112  160.1426 H   0  0  0  0  0  0  0  0  0  0  0  0
  153.1136  145.5511  160.8610 H   0  0  0  0  0  0  0  0  0  0  0  0
  151.8004  144.5404  161.4276 H   0  0  0  0  0  0  0  0  0  0  0  0
  152.7210  145.2883  157.7591 H   0  0  0  0  0  0  0  0  0  0  0  0
  153.7887  143.8905  157.6302 H   0  0  0  0  0  0  0  0  0  0  0  0
  154.2051  145.2084  158.7022 H   0  0  0  0  0  0  0  0  0  0  0  0
  1 20  1  0  0  0  0
  1 21  1  0  0  0  0
  1 22  1  0  0  0  0
  1  2  1  0  0  0  0
  2  3  1  0  0  0  0
  2 18  2  0  0  0  0
  3  4  1  0  0  0  0
  3 19  1  0  0  0  0
  4  6  2  0  0  0  0
  4  5  1  0  0  0  0
  5 23  1  0  0  0  0
  5 24  1  0  0  0  0
  5 25  1  0  0  0  0
  6 16  1  0  0  0  0
  6  7  1  0  0  0  0
  7  8  1  0  0  0  0
  7 26  1  0  0  0  0
  7 27  1  0  0  0  0
  8  9  2  0  0  0  0
  8 10  1  0  0  0  0
 10 11  1  0  0  0  0
 10 28  1  0  0  0  0
 11 12  1  0  0  0  0
 11 13  1  0  0  0  0
 11 29  1  0  0  0  0
 12 30  1  0  0  0  0
 12 31  1  0  0  0  0
 12 32  1  0  0  0  0
 13 14  1  0  0  0  0
 13 15  1  0  0  0  0
 13 33  1  0  0  0  0
 14 34  1  0  0  0  0
 14 35  1  0  0  0  0
 14 36  1  0  0  0  0
 15 37  1  0  0  0  0
 15 38  1  0  0  0  0
 15 39  1  0  0  0  0
 16 17  2  0  0  0  0
 16 18  1  0  0  0  0
M  END
> <s_m_source_file>
AV-unprocessed.smi

> <i_m_source_file_index>
1362

> <i_lp_mmshare_version>
43012

> <i_f3d_flags>
0

> <s_epik_input>
W0NIM11jMW5jKFtDSDNdKWMoYyg9TylbbkhdMSlbQ0gyXUMoPU8pW05IXVtDQEhdKFtDSDNdKVtDSF0oW0NIM10pW0NIM10=

> <s_epik_cmdline>
J2VwaWtfcHl0aG9uJywgJy1waCcsICc3LjAnLCAnLXRuJywgJzgnLCAnLW1hJywgJzIwMCcsICctbWV0YWxfYmluZGluZycsICctaW1hZScsICc8aW5maWxlLm1hZT4nLCAnLW9tYWUnLCAnPG91dGZpbGUubWFlPic=

> <r_lp_tautomer_probability>
0.156392

> <r_epik_Ionization_Penalty>
0.0140737

> <r_epik_Ionization_Penalty_Charging>
0.0139511

> <r_epik_Ionization_Penalty_Neutral>
0.000122633

> <r_epik_State_Penalty>
1.53034

> <r_epik_Charging_Adjusted_Penalty>
1.54429

> <i_epik_Tot_Q>
0

> <i_epik_Tot_abs_Q>
0

> <r_epik_Metal_State_Penalty>
1.70655

> <b_epik_Metal_Only>
0

> <s_lp_Force_Field>
OPLS_2005

> <r_lp_Energy>
10.2097

> <b_lp_Chiralities_Consistent>
1

> <s_lp_Variant>
AV-unprocessed.smi:1362-3

> <Gold.Version>
5.8.1

> <Gold.Id.Protein>
6NUR|6NUR_protein|mol2

> <Gold.PLP.Fitness>
38.5512

> <Gold.PLP.PLP>
-34.3309

> <Gold.PLP.part.hbond>
-2.9336

> <Gold.PLP.part.metal>
0.0000

> <Gold.PLP.part.buried>
-1.7479

> <Gold.PLP.part.nonpolar>
-29.3352

> <Gold.PLP.part.repulsive>
0.0821

> <Gold.PLP.ligand.clash>
0.0000

> <Gold.PLP.ligand.torsion>
0.5757

> <Gold.PLP.Chemscore.Hbond>
1.7816

> <Gold.PLP.Chemscore.CHOScore>
0.0000

> <Gold.PLP.Chemscore.Metal>
0.0000

> <Gold.Chemscore.Hbonds>
donor molecule, donor type, donor heavy atom, donor atom, acceptor molecule, acceptor atom, score
      L1  H     3    19       P1  7948  0.18
      P1  H  7997  8009       L1    17  1.00

> <Gold.PLP.Chemscore.Internal.Correction>
0.0271

> <Gold.Rescore>
     Score         DG    S(hbond)    S(metal)    S(lipo)     H(rot)  DE(clash)    DE(int)     intcor
     15.43     -16.56       1.53        0.00      88.15       1.69       0.11       1.01       ----

> <Gold.Chemscore.Fitness>
15.4286

> <Gold.Chemscore.DG>
-16.5577

> <Gold.Chemscore.ZeroCoef>
-5.4800

> <Gold.Chemscore.Hbond>
1.5255

> <Gold.Chemscore.Metal>
0.0000

> <Gold.Chemscore.Lipo>
88.1459

> <Gold.Chemscore.Internal_Hbond>
0.0000

> <Gold.Chemscore.DEClash>
0.1146

> <Gold.Chemscore.DEInternal>
1.0145

> <Gold.Chemscore.Rot>
1.6916

> <Gold.Chemscore.Internal.Correction>
   9.000000E+99

> <Gold.Chemscore.Hbonds>
donor molecule, donor type, donor heavy atom, donor atom, acceptor molecule, acceptor atom, score
      L1  H     3    19       P1  7948  0.07
      P1  H  7997  8009       L1    17  0.81

> <Gold.Chemscore.Hbond.Weighted>
-5.0952

> <Gold.Chemscore.Metal.Weighted>
-0.0000

> <Gold.Chemscore.Lipo.Weighted>
-10.3131

> <Gold.Chemscore.Internal_Hbond.Weighted>
0.0000

> <Gold.Chemscore.DEClash.Weighted>
0.1146

> <Gold.Chemscore.DEInternal.Weighted>
1.0145

> <Gold.Chemscore.Rot.Weighted>
4.3305

> <Gold.Chemscore.Internal.Correction.Weighted>
   9.000000E+99

> <Gold.Protein.RotatedTorsions>
[ 6907 6896 6895 6894 ] final  -54.19 input  -60.11 | X-H torsion
[ 7974 7965 7964 7962 ] final  -46.27 input  175.53 | X-H torsion
[ 8008 7997 7996 7995 ] final -177.94 input   59.86 | X-H torsion
[ 10167 10162 10161 10158 ] final   -8.24 input  -65.29 | X-H torsion
[ 10718 10713 10712 10709 ] final  -50.35 input   66.30 | X-H torsion
[ 10763 10752 10751 10750 ] final -152.50 input  -60.55 | X-H torsion
[ 11005 11000 10999 10996 ] final -139.65 input  -57.11 | X-H torsion

> <Gold.Protein.ActiveResidues>
 VAL166  LYS551  ARG553  GLY616  TRP617  ASP618  TYR619  PRO620  LYS621  CYS622 
 ASP623  PHE694  ASN695  SER759  ASP760  ASP761  ALA762  ILE779  LEU786  VAL792 
 PHE793  MET794  SER795  GLU796  ALA797  LYS798  CYS799  TRP800  GLU811  SER814 

> <Gold.Protein.RotatedAtoms>
  150.8359  134.7632  159.6892 H   0  0  0  0  0  0  0  0  0  0  0  0  # atno 6907 bound_to 6896
  152.4456  134.5498  159.9873 H   0  0  0  0  0  0  0  0  0  0  0  0  # atno 6908 bound_to 6896
  151.5648  133.3360  159.3014 H   0  0  0  0  0  0  0  0  0  0  0  0  # atno 6909 bound_to 6896
  145.9736  140.7357  142.9398 H   0  0  0  0  0  0  0  0  0  0  0  0  # atno 7974 bound_to 7965
  156.0130  140.1244  157.0435 H   0  0  0  0  0  0  0  0  0  0  0  0  # atno 8008 bound_to 7997
  154.4282  140.1084  156.5925 H   0  0  0  0  0  0  0  0  0  0  0  0  # atno 8009 bound_to 7997
  155.6053  140.3471  155.4608 H   0  0  0  0  0  0  0  0  0  0  0  0  # atno 8010 bound_to 7997
  140.7053  143.5991  150.8816 H   0  0  0  0  0  0  0  0  0  0  0  0  # atno 10167 bound_to 10162
  156.1809  130.4150  149.9508 H   0  0  0  0  0  0  0  0  0  0  0  0  # atno 10718 bound_to 10713
  154.7990  135.3235  154.7597 H   0  0  0  0  0  0  0  0  0  0  0  0  # atno 10763 bound_to 10752
  153.8269  135.6883  153.4824 H   0  0  0  0  0  0  0  0  0  0  0  0  # atno 10764 bound_to 10752
  153.1696  135.4628  154.9827 H   0  0  0  0  0  0  0  0  0  0  0  0  # atno 10765 bound_to 10752
  140.8499  134.2299  157.4766 H   0  0  0  0  0  0  0  0  0  0  0  0  # atno 11005 bound_to 11000
  144.6843  140.2790  143.7295 LP  0  0  0  0  0  0  0  0  0  0  0  0  # atno 17320 bound_to 7965
  145.7871  139.1913  143.2124 LP  0  0  0  0  0  0  0  0  0  0  0  0  # atno 17321 bound_to 7965
  139.9715  143.6051  152.2972 LP  0  0  0  0  0  0  0  0  0  0  0  0  # atno 17342 bound_to 10162
  139.6640  144.7662  151.1909 LP  0  0  0  0  0  0  0  0  0  0  0  0  # atno 17343 bound_to 10162
  156.7279  130.9032  151.3623 LP  0  0  0  0  0  0  0  0  0  0  0  0  # atno 17370 bound_to 10713
  157.6867  130.9193  150.0406 LP  0  0  0  0  0  0  0  0  0  0  0  0  # atno 17371 bound_to 10713
  139.8704  134.9678  156.4609 LP  0  0  0  0  0  0  0  0  0  0  0  0  # atno 17394 bound_to 11000
  140.8802  133.7923  155.9458 LP  0  0  0  0  0  0  0  0  0  0  0  0  # atno 17395 bound_to 11000

$$$$
