AV-unprocessed.smi:1268|AV-procd|sdf|5325|dock3
  -GOLD-   22720 4453D 1   1.00000     0.00000
 Structure written by MMmdl.
 39 40  0  0  0  0  0  0  0  0  3 V2000
  148.9193  142.2673  158.0702 O   0  0  0  0  0  0  0  0  0  0  0  0
  149.8602  141.9178  157.3544 C   0  0  0  0  0  0  0  0  0  0  0  0
  149.6512  141.6544  156.0584 N   0  0  0  0  0  0  0  0  0  0  0  0
  148.3697  141.7624  155.3725 C   0  0  0  0  0  0  0  0  0  0  0  0
  148.2981  140.7735  154.1971 C   0  0  2  0  0  0  0  0  0  0  0  0
  149.4355  140.9793  153.3815 O   0  0  0  0  0  0  0  0  0  0  0  0
  147.0501  141.0209  153.3264 C   0  0  0  0  0  0  0  0  0  0  0  0
  146.2830  139.7764  153.0629 N   0  3  0  0  0  0  0  0  0  0  0  0
  146.1198  138.9456  154.2840 C   0  0  0  0  0  0  0  0  0  0  0  0
  145.1975  137.7435  154.0195 C   0  0  0  0  0  0  0  0  0  0  0  0
  145.7195  136.8968  152.8518 C   0  0  0  0  0  0  0  0  0  0  0  0
  145.9144  137.7789  151.6121 C   0  0  0  0  0  0  0  0  0  0  0  0
  146.8211  138.9810  151.9266 C   0  0  0  0  0  0  0  0  0  0  0  0
  151.1474  141.7625  157.7371 N   0  5  0  0  0  0  0  0  0  0  0  0
  151.5787  142.3123  158.8842 C   0  0  0  0  0  0  0  0  0  0  0  0
  150.9000  143.2609  159.5396 N   0  0  0  0  0  0  0  0  0  0  0  0
  151.5288  143.6832  160.7124 C   0  0  0  0  0  0  0  0  0  0  0  0
  152.7092  143.0346  160.9609 C   0  0  0  0  0  0  0  0  0  0  0  0
  153.0687  141.8670  159.7212 S   0  0  0  0  0  0  0  0  0  0  0  0
  150.4472  141.3647  155.5097 H   0  0  0  0  0  0  0  0  0  0  0  0
  147.5920  141.5301  156.1013 H   0  0  0  0  0  0  0  0  0  0  0  0
  148.1883  142.7833  155.0311 H   0  0  0  0  0  0  0  0  0  0  0  0
  148.3048  139.7527  154.5792 H   0  0  0  0  0  0  0  0  0  0  0  0
  149.4486  140.3089  152.7141 H   0  0  0  0  0  0  0  0  0  0  0  0
  146.3928  141.7553  153.7946 H   0  0  0  0  0  0  0  0  0  0  0  0
  147.3732  141.4638  152.3826 H   0  0  0  0  0  0  0  0  0  0  0  0
  147.0978  138.6038  154.6267 H   0  0  0  0  0  0  0  0  0  0  0  0
  145.6945  139.5493  155.0867 H   0  0  0  0  0  0  0  0  0  0  0  0
  145.1167  137.1305  154.9175 H   0  0  0  0  0  0  0  0  0  0  0  0
  144.1905  138.0972  153.7941 H   0  0  0  0  0  0  0  0  0  0  0  0
  146.6671  136.4322  153.1274 H   0  0  0  0  0  0  0  0  0  0  0  0
  145.0243  136.0856  152.6333 H   0  0  0  0  0  0  0  0  0  0  0  0
  146.3434  137.1900  150.8008 H   0  0  0  0  0  0  0  0  0  0  0  0
  144.9456  138.1339  151.2581 H   0  0  0  0  0  0  0  0  0  0  0  0
  146.9069  139.6004  151.0347 H   0  0  0  0  0  0  0  0  0  0  0  0
  147.8278  138.6359  152.1680 H   0  0  0  0  0  0  0  0  0  0  0  0
  151.0630  144.4512  161.3117 H   0  0  0  0  0  0  0  0  0  0  0  0
  153.3843  143.1697  161.7922 H   0  0  0  0  0  0  0  0  0  0  0  0
  145.3535  140.0744  152.8019 H   0  0  0  0  0  0  0  0  0  0  0  0
  1  2  2  0  0  0  0
  2  3  1  0  0  0  0
  2 14  1  0  0  0  0
  3  4  1  0  0  0  0
  3 20  1  0  0  0  0
  4  5  1  0  0  0  0
  4 21  1  0  0  0  0
  4 22  1  0  0  0  0
  5  6  1  0  0  0  0
  5  7  1  0  0  0  0
  5 23  1  0  0  0  0
  6 24  1  0  0  0  0
  7  8  1  0  0  0  0
  7 25  1  0  0  0  0
  7 26  1  0  0  0  0
  8 13  1  0  0  0  0
  8  9  1  0  0  0  0
  8 39  1  0  0  0  0
  9 10  1  0  0  0  0
  9 27  1  0  0  0  0
  9 28  1  0  0  0  0
 10 11  1  0  0  0  0
 10 29  1  0  0  0  0
 10 30  1  0  0  0  0
 11 12  1  0  0  0  0
 11 31  1  0  0  0  0
 11 32  1  0  0  0  0
 12 13  1  0  0  0  0
 12 33  1  0  0  0  0
 12 34  1  0  0  0  0
 13 35  1  0  0  0  0
 13 36  1  0  0  0  0
 14 15  1  0  0  0  0
 15 19  1  0  0  0  0
 15 16  2  0  0  0  0
 16 17  1  0  0  0  0
 17 18  2  0  0  0  0
 17 37  1  0  0  0  0
 18 19  1  0  0  0  0
 18 38  1  0  0  0  0
M  CHG  1   8   1
M  CHG  1  14  -1
M  END
> <s_m_source_file>
AV-unprocessed.smi

> <i_m_source_file_index>
1268

> <i_lp_mmshare_version>
43012

> <i_f3d_flags>
0

> <s_epik_input>
czFbY0hdW2NIXW5jMVtOSF1DKD1PKVtOSF1bQ0gyXVtDQEhdKFtPSF0pW0NIMl1OMltDSDJdW0NIMl1bQ0gyXVtDSDJdW0NIMl0y

> <s_epik_cmdline>
J2VwaWtfcHl0aG9uJywgJy1waCcsICc3LjAnLCAnLXRuJywgJzgnLCAnLW1hJywgJzIwMCcsICctbWV0YWxfYmluZGluZycsICctaW1hZScsICc8aW5maWxlLm1hZT4nLCAnLW9tYWUnLCAnPG91dGZpbGUubWFlPic=

> <r_lp_tautomer_probability>
0.999

> <r_epik_Ionization_Penalty>
6.36291

> <r_epik_Ionization_Penalty_Charging>
5.4816

> <r_epik_Ionization_Penalty_Neutral>
0.881305

> <r_epik_State_Penalty>
5.4805

> <r_epik_Charging_Adjusted_Penalty>
10.9621

> <i_epik_Tot_Q>
0

> <i_epik_Tot_abs_Q>
2

> <r_epik_Metal_State_Penalty>
1.48871

> <b_epik_Metal_Only>
1

> <s_lp_Force_Field>
OPLS_2005

> <r_lp_Energy>
11.3564

> <b_lp_Chiralities_Consistent>
1

> <s_lp_Variant>
AV-unprocessed.smi:1268-3

> <Gold.Version>
5.8.1

> <Gold.Id.Protein>
6NUR|6NUR_protein|mol2

> <Gold.PLP.Fitness>
43.0920

> <Gold.PLP.PLP>
-33.5697

> <Gold.PLP.part.hbond>
-4.1890

> <Gold.PLP.part.metal>
0.0000

> <Gold.PLP.part.buried>
-0.9532

> <Gold.PLP.part.nonpolar>
-29.0847

> <Gold.PLP.part.repulsive>
0.3310

> <Gold.PLP.ligand.clash>
0.0000

> <Gold.PLP.ligand.torsion>
1.2284

> <Gold.PLP.Chemscore.Hbond>
3.9439

> <Gold.PLP.Chemscore.CHOScore>
0.0000

> <Gold.PLP.Chemscore.Metal>
0.0000

> <Gold.Chemscore.Hbonds>
donor molecule, donor type, donor heavy atom, donor atom, acceptor molecule, acceptor atom, score
      L1  H     6    24       P1  7957  0.88
      L1  H     8    39       P1 10175  2.00
      P1  H  7989  7998       L1     6  0.07
      P1  H  8011  8017       L1     6  0.90

> <Gold.PLP.Chemscore.Internal.Correction>
0.1475

> <Gold.Rescore>
     Score         DG    S(hbond)    S(metal)    S(lipo)     H(rot)  DE(clash)    DE(int)     intcor
     13.22     -16.14       2.33        0.00      78.98       2.48       0.12       2.80       ----

> <Gold.Chemscore.Fitness>
13.2165

> <Gold.Chemscore.DG>
-16.1376

> <Gold.Chemscore.ZeroCoef>
-5.4800

> <Gold.Chemscore.Hbond>
2.3277

> <Gold.Chemscore.Metal>
0.0000

> <Gold.Chemscore.Lipo>
78.9806

> <Gold.Chemscore.Internal_Hbond>
0.0000

> <Gold.Chemscore.DEClash>
0.1181

> <Gold.Chemscore.DEInternal>
2.8030

> <Gold.Chemscore.Rot>
2.4834

> <Gold.Chemscore.Internal.Correction>
   9.000000E+99

> <Gold.Chemscore.Hbonds>
donor molecule, donor type, donor heavy atom, donor atom, acceptor molecule, acceptor atom, score
      L1  H     6    24       P1  7957  0.85
      L1  H     8    39       P1 10175  0.99
      P1  H  8011  8017       L1     6  0.18

> <Gold.Chemscore.Hbond.Weighted>
-7.7744

> <Gold.Chemscore.Metal.Weighted>
-0.0000

> <Gold.Chemscore.Lipo.Weighted>
-9.2407

> <Gold.Chemscore.Internal_Hbond.Weighted>
0.0000

> <Gold.Chemscore.DEClash.Weighted>
0.1181

> <Gold.Chemscore.DEInternal.Weighted>
2.8030

> <Gold.Chemscore.Rot.Weighted>
6.3575

> <Gold.Chemscore.Internal.Correction.Weighted>
   9.000000E+99

> <Gold.Protein.RotatedTorsions>
[ 6907 6896 6895 6894 ] final   -1.57 input  -60.11 | X-H torsion
[ 7974 7965 7964 7962 ] final   76.36 input  175.53 | X-H torsion
[ 8008 7997 7996 7995 ] final   20.04 input   59.86 | X-H torsion
[ 10167 10162 10161 10158 ] final  -69.59 input  -65.29 | X-H torsion
[ 10718 10713 10712 10709 ] final  -19.42 input   66.30 | X-H torsion
[ 10763 10752 10751 10750 ] final -102.99 input  -60.55 | X-H torsion
[ 11005 11000 10999 10996 ] final  155.92 input  -57.11 | X-H torsion

> <Gold.Protein.ActiveResidues>
 VAL166  LYS551  ARG553  GLY616  TRP617  ASP618  TYR619  PRO620  LYS621  CYS622 
 ASP623  PHE694  ASN695  SER759  ASP760  ASP761  ALA762  ILE779  LEU786  VAL792 
 PHE793  MET794  SER795  GLU796  ALA797  LYS798  CYS799  TRP800  GLU811  SER814 

> <Gold.Protein.RotatedAtoms>
  151.5439  135.1068  159.9932 H   0  0  0  0  0  0  0  0  0  0  0  0  # atno 6907 bound_to 6896
  152.4522  133.7648  159.6777 H   0  0  0  0  0  0  0  0  0  0  0  0  # atno 6908 bound_to 6896
  150.8454  133.7803  159.3069 H   0  0  0  0  0  0  0  0  0  0  0  0  # atno 6909 bound_to 6896
  145.7038  139.2591  143.1690 H   0  0  0  0  0  0  0  0  0  0  0  0  # atno 7974 bound_to 7965
  154.9297  140.3038  155.5174 H   0  0  0  0  0  0  0  0  0  0  0  0  # atno 8008 bound_to 7997
  156.3004  140.2356  156.4293 H   0  0  0  0  0  0  0  0  0  0  0  0  # atno 8009 bound_to 7997
  154.8249  140.0421  157.1425 H   0  0  0  0  0  0  0  0  0  0  0  0  # atno 8010 bound_to 7997
  140.5418  143.2314  151.7074 H   0  0  0  0  0  0  0  0  0  0  0  0  # atno 10167 bound_to 10162
  156.5459  130.4689  149.6476 H   0  0  0  0  0  0  0  0  0  0  0  0  # atno 10718 bound_to 10713
  154.7775  135.4840  153.9774 H   0  0  0  0  0  0  0  0  0  0  0  0  # atno 10763 bound_to 10752
  153.1448  135.6779  153.8979 H   0  0  0  0  0  0  0  0  0  0  0  0  # atno 10764 bound_to 10752
  153.8642  135.3151  155.3417 H   0  0  0  0  0  0  0  0  0  0  0  0  # atno 10765 bound_to 10752
  140.1627  134.8598  157.2594 H   0  0  0  0  0  0  0  0  0  0  0  0  # atno 11005 bound_to 11000
  146.0773  140.7802  142.9658 LP  0  0  0  0  0  0  0  0  0  0  0  0  # atno 17320 bound_to 7965
  144.6961  140.3435  143.7195 LP  0  0  0  0  0  0  0  0  0  0  0  0  # atno 17321 bound_to 7965
  139.4992  144.3956  152.0234 LP  0  0  0  0  0  0  0  0  0  0  0  0  # atno 17342 bound_to 10162
  140.3066  144.3586  150.6045 LP  0  0  0  0  0  0  0  0  0  0  0  0  # atno 17343 bound_to 10162
  156.2929  130.7134  151.1987 LP  0  0  0  0  0  0  0  0  0  0  0  0  # atno 17370 bound_to 10713
  157.7397  131.0526  150.5217 LP  0  0  0  0  0  0  0  0  0  0  0  0  # atno 17371 bound_to 10713
  140.2471  134.3727  155.7457 LP  0  0  0  0  0  0  0  0  0  0  0  0  # atno 17394 bound_to 11000
  141.2211  133.7296  156.8878 LP  0  0  0  0  0  0  0  0  0  0  0  0  # atno 17395 bound_to 11000

$$$$
