AV-unprocessed.smi:1893|AV-procd|sdf|7671|dock5
  -GOLD-   22720 9403D 1   1.00000     0.00000
 Structure written by MMmdl.
 43 44  0  0  0  0  0  0  0  0  2 V2000
  151.8327  145.4004  159.9973 C   0  0  0  0  0  0  0  0  0  0  0  0
  151.9837  143.8947  160.3038 C   0  0  2  0  0  0  0  0  0  0  0  0
  152.4899  143.7444  161.7563 C   0  0  0  0  0  0  0  0  0  0  0  0
  152.6763  142.2792  162.1553 C   0  0  0  0  0  0  0  0  0  0  0  0
  153.6188  141.6035  161.1606 C   0  0  0  0  0  0  0  0  0  0  0  0
  153.0838  141.7516  159.7298 C   0  0  0  0  0  0  0  0  0  0  0  0
  152.8915  143.1804  159.3449 N   0  3  1  0  0  0  0  0  0  0  0  0
  152.4922  143.3102  157.9137 C   0  0  0  0  0  0  0  0  0  0  0  0
  151.0072  142.9701  157.6661 C   0  0  0  0  0  0  0  0  0  0  0  0
  150.8217  142.3330  156.3678 N   0  0  0  0  0  0  0  0  0  0  0  0
  150.7531  141.0074  156.1654 C   0  0  0  0  0  0  0  0  0  0  0  0
  150.8089  140.1876  157.0831 O   0  0  0  0  0  0  0  0  0  0  0  0
  150.6141  140.5475  154.7050 C   0  0  2  0  0  0  0  0  0  0  0  0
  149.1935  140.0540  154.3631 C   0  0  0  0  0  0  0  0  0  0  0  0
  151.6281  139.5471  154.3943 N   0  0  0  0  0  0  0  0  0  0  0  0
  151.5320  138.4169  153.6906 C   0  0  0  0  0  0  0  0  0  0  0  0
  152.6772  137.7615  153.5649 N   0  0  0  0  0  0  0  0  0  0  0  0
  153.4991  138.6023  154.2603 C   0  0  0  0  0  0  0  0  0  0  0  0
  152.9243  139.6927  154.7678 N   0  0  0  0  0  0  0  0  0  0  0  0
  151.3255  145.9144  160.8145 H   0  0  0  0  0  0  0  0  0  0  0  0
  151.2301  145.5896  159.1098 H   0  0  0  0  0  0  0  0  0  0  0  0
  152.8028  145.8799  159.8629 H   0  0  0  0  0  0  0  0  0  0  0  0
  150.9964  143.4344  160.2376 H   0  0  0  0  0  0  0  0  0  0  0  0
  153.4373  144.2730  161.8725 H   0  0  0  0  0  0  0  0  0  0  0  0
  151.7902  144.2162  162.4475 H   0  0  0  0  0  0  0  0  0  0  0  0
  153.0793  142.2101  163.1661 H   0  0  0  0  0  0  0  0  0  0  0  0
  151.7124  141.7685  162.1645 H   0  0  0  0  0  0  0  0  0  0  0  0
  154.6141  142.0447  161.2312 H   0  0  0  0  0  0  0  0  0  0  0  0
  153.7280  140.5476  161.4105 H   0  0  0  0  0  0  0  0  0  0  0  0
  153.7886  141.2618  159.0607 H   0  0  0  0  0  0  0  0  0  0  0  0
  152.1369  141.2186  159.6308 H   0  0  0  0  0  0  0  0  0  0  0  0
  152.7215  144.3156  157.5574 H   0  0  0  0  0  0  0  0  0  0  0  0
  153.0709  142.6319  157.2929 H   0  0  0  0  0  0  0  0  0  0  0  0
  150.6236  142.3247  158.4583 H   0  0  0  0  0  0  0  0  0  0  0  0
  150.3882  143.8659  157.6656 H   0  0  0  0  0  0  0  0  0  0  0  0
  150.7630  142.9405  155.5630 H   0  0  0  0  0  0  0  0  0  0  0  0
  150.8146  141.4153  154.0740 H   0  0  0  0  0  0  0  0  0  0  0  0
  148.4508  140.8297  154.5532 H   0  0  0  0  0  0  0  0  0  0  0  0
  148.9121  139.1769  154.9473 H   0  0  0  0  0  0  0  0  0  0  0  0
  149.1197  139.7845  153.3091 H   0  0  0  0  0  0  0  0  0  0  0  0
  150.6063  138.0689  153.2561 H   0  0  0  0  0  0  0  0  0  0  0  0
  154.5539  138.4090  154.3896 H   0  0  0  0  0  0  0  0  0  0  0  0
  153.7920  143.6301  159.4299 H   0  0  0  0  0  0  0  0  0  0  0  0
  1  2  1  0  0  0  0
  1 20  1  0  0  0  0
  1 21  1  0  0  0  0
  1 22  1  0  0  0  0
  2  7  1  0  0  0  0
  2  3  1  0  0  0  0
  2 23  1  0  0  0  0
  3  4  1  0  0  0  0
  3 24  1  0  0  0  0
  3 25  1  0  0  0  0
  4  5  1  0  0  0  0
  4 26  1  0  0  0  0
  4 27  1  0  0  0  0
  5  6  1  0  0  0  0
  5 28  1  0  0  0  0
  5 29  1  0  0  0  0
  6  7  1  0  0  0  0
  6 30  1  0  0  0  0
  6 31  1  0  0  0  0
  7  8  1  0  0  0  0
  7 43  1  0  0  0  0
  8  9  1  0  0  0  0
  8 32  1  0  0  0  0
  8 33  1  0  0  0  0
  9 10  1  0  0  0  0
  9 34  1  0  0  0  0
  9 35  1  0  0  0  0
 10 11  1  0  0  0  0
 10 36  1  0  0  0  0
 11 12  2  0  0  0  0
 11 13  1  0  0  0  0
 13 14  1  0  0  0  0
 13 15  1  0  0  0  0
 13 37  1  0  0  0  0
 14 38  1  0  0  0  0
 14 39  1  0  0  0  0
 14 40  1  0  0  0  0
 15 19  1  0  0  0  0
 15 16  1  0  0  0  0
 16 17  2  0  0  0  0
 16 41  1  0  0  0  0
 17 18  1  0  0  0  0
 18 19  2  0  0  0  0
 18 42  1  0  0  0  0
M  CHG  1   7   1
M  END
> <s_m_source_file>
AV-unprocessed.smi

> <i_m_source_file_index>
1893

> <i_lp_mmshare_version>
43012

> <i_f3d_flags>
0

> <s_epik_input>
W0NIM11bQ0BASF0xW0NIMl1bQ0gyXVtDSDJdW0NIMl1OMVtDSDJdW0NIMl1bTkhdQyg9TylbQ0BIXShbQ0gzXSluMltjSF1uW2NIXW4y

> <s_epik_cmdline>
J2VwaWtfcHl0aG9uJywgJy1waCcsICc3LjAnLCAnLXRuJywgJzgnLCAnLW1hJywgJzIwMCcsICctbWV0YWxfYmluZGluZycsICctaW1hZScsICc8aW5maWxlLm1hZT4nLCAnLW9tYWUnLCAnPG91dGZpbGUubWFlPic=

> <r_lp_tautomer_probability>
1

> <r_epik_Ionization_Penalty>
0.00266409

> <r_epik_Ionization_Penalty_Charging>
0.00265606

> <r_epik_Ionization_Penalty_Neutral>
8.02794e-06

> <r_epik_State_Penalty>
0.00184955

> <r_epik_Charging_Adjusted_Penalty>
0.00450561

> <i_epik_Tot_Q>
1

> <i_epik_Tot_abs_Q>
1

> <r_epik_Metal_State_Penalty>
-0

> <b_epik_Metal_Only>
0

> <s_lp_Force_Field>
OPLS_2005

> <r_lp_Energy>
24.7489

> <b_lp_Chiralities_Consistent>
1

> <s_lp_Variant>
AV-unprocessed.smi:1893-1

> <Gold.Version>
5.8.1

> <Gold.Id.Protein>
6NUR|6NUR_protein|mol2

> <Gold.PLP.Fitness>
50.2341

> <Gold.PLP.PLP>
-46.4341

> <Gold.PLP.part.hbond>
-3.3620

> <Gold.PLP.part.metal>
0.0000

> <Gold.PLP.part.buried>
-3.5511

> <Gold.PLP.part.nonpolar>
-38.7042

> <Gold.PLP.part.repulsive>
0.2537

> <Gold.PLP.ligand.clash>
0.0000

> <Gold.PLP.ligand.torsion>
1.0604

> <Gold.PLP.Chemscore.Hbond>
1.4640

> <Gold.PLP.Chemscore.CHOScore>
0.4664

> <Gold.PLP.Chemscore.Metal>
0.0000

> <Gold.Chemscore.Hbonds>
donor molecule, donor type, donor heavy atom, donor atom, acceptor molecule, acceptor atom, score
      P1  H  7997  8008       L1    19  0.85
      P1  H 10752 10765       L1    17  0.61
      L1  C    16    41       P1  7948  0.26
      L1  C    16    41       P1  7949  0.15

> <Gold.PLP.Chemscore.Internal.Correction>
0.1297

> <Gold.Rescore>
     Score         DG    S(hbond)    S(metal)    S(lipo)     H(rot)  DE(clash)    DE(int)     intcor
     11.18     -12.77       0.60        0.00     100.66       2.54       0.69       0.90       ----

> <Gold.Chemscore.Fitness>
11.1800

> <Gold.Chemscore.DG>
-12.7718

> <Gold.Chemscore.ZeroCoef>
-5.4800

> <Gold.Chemscore.Hbond>
0.6023

> <Gold.Chemscore.Metal>
0.0000

> <Gold.Chemscore.Lipo>
100.6554

> <Gold.Chemscore.Internal_Hbond>
0.0000

> <Gold.Chemscore.DEClash>
0.6883

> <Gold.Chemscore.DEInternal>
0.9035

> <Gold.Chemscore.Rot>
2.5377

> <Gold.Chemscore.Internal.Correction>
   9.000000E+99

> <Gold.Chemscore.Hbonds>
donor molecule, donor type, donor heavy atom, donor atom, acceptor molecule, acceptor atom, score
      P1  H  7997  8008       L1    19  0.14
      P1  H 10752 10765       L1    17  0.49

> <Gold.Chemscore.Hbond.Weighted>
-2.0118

> <Gold.Chemscore.Metal.Weighted>
-0.0000

> <Gold.Chemscore.Lipo.Weighted>
-11.7767

> <Gold.Chemscore.Internal_Hbond.Weighted>
0.0000

> <Gold.Chemscore.DEClash.Weighted>
0.6883

> <Gold.Chemscore.DEInternal.Weighted>
0.9035

> <Gold.Chemscore.Rot.Weighted>
6.4966

> <Gold.Chemscore.Internal.Correction.Weighted>
   9.000000E+99

> <Gold.Protein.RotatedTorsions>
[ 6907 6896 6895 6894 ] final    8.53 input  -60.11 | X-H torsion
[ 7974 7965 7964 7962 ] final -155.95 input  175.53 | X-H torsion
[ 8008 7997 7996 7995 ] final  -28.15 input   59.86 | X-H torsion
[ 10167 10162 10161 10158 ] final   53.41 input  -65.29 | X-H torsion
[ 10718 10713 10712 10709 ] final  -74.79 input   66.30 | X-H torsion
[ 10763 10752 10751 10750 ] final  139.04 input  -60.55 | X-H torsion
[ 11005 11000 10999 10996 ] final   36.60 input  -57.11 | X-H torsion

> <Gold.Protein.ActiveResidues>
 VAL166  LYS551  ARG553  GLY616  TRP617  ASP618  TYR619  PRO620  LYS621  CYS622 
 ASP623  PHE694  ASN695  SER759  ASP760  ASP761  ALA762  ILE779  LEU786  VAL792 
 PHE793  MET794  SER795  GLU796  ALA797  LYS798  CYS799  TRP800  GLU811  SER814 

> <Gold.Protein.RotatedAtoms>
  151.7076  135.0919  160.0261 H   0  0  0  0  0  0  0  0  0  0  0  0  # atno 6907 bound_to 6896
  152.3682  133.6380  159.6075 H   0  0  0  0  0  0  0  0  0  0  0  0  # atno 6908 bound_to 6896
  150.7653  133.9230  159.3445 H   0  0  0  0  0  0  0  0  0  0  0  0  # atno 6909 bound_to 6896
  144.7616  140.4178  143.5972 H   0  0  0  0  0  0  0  0  0  0  0  0  # atno 7974 bound_to 7965
  154.4345  140.1853  156.1044 H   0  0  0  0  0  0  0  0  0  0  0  0  # atno 8008 bound_to 7997
  156.0267  140.3335  155.7070 H   0  0  0  0  0  0  0  0  0  0  0  0  # atno 8009 bound_to 7997
  155.5899  140.0630  157.2752 H   0  0  0  0  0  0  0  0  0  0  0  0  # atno 8010 bound_to 7997
  140.2410  144.3583  150.6380 H   0  0  0  0  0  0  0  0  0  0  0  0  # atno 10167 bound_to 10162
  156.0230  130.4425  150.2945 H   0  0  0  0  0  0  0  0  0  0  0  0  # atno 10718 bound_to 10713
  153.8995  135.3023  155.3448 H   0  0  0  0  0  0  0  0  0  0  0  0  # atno 10763 bound_to 10752
  154.7677  135.4902  153.9590 H   0  0  0  0  0  0  0  0  0  0  0  0  # atno 10764 bound_to 10752
  153.1253  135.6791  153.9368 H   0  0  0  0  0  0  0  0  0  0  0  0  # atno 10765 bound_to 10752
  140.2309  134.3529  155.7964 H   0  0  0  0  0  0  0  0  0  0  0  0  # atno 11005 bound_to 11000
  145.6602  139.1580  143.2812 LP  0  0  0  0  0  0  0  0  0  0  0  0  # atno 17320 bound_to 7965
  146.1684  140.6683  142.9245 LP  0  0  0  0  0  0  0  0  0  0  0  0  # atno 17321 bound_to 7965
  140.6113  143.2169  151.6880 LP  0  0  0  0  0  0  0  0  0  0  0  0  # atno 17342 bound_to 10162
  139.5077  144.3636  152.0538 LP  0  0  0  0  0  0  0  0  0  0  0  0  # atno 17343 bound_to 10162
  157.1049  131.0205  151.3071 LP  0  0  0  0  0  0  0  0  0  0  0  0  # atno 17370 bound_to 10713
  157.4751  130.7731  149.7360 LP  0  0  0  0  0  0  0  0  0  0  0  0  # atno 17371 bound_to 10713
  141.2218  133.7245  156.8729 LP  0  0  0  0  0  0  0  0  0  0  0  0  # atno 17394 bound_to 11000
  140.1752  134.9072  157.2881 LP  0  0  0  0  0  0  0  0  0  0  0  0  # atno 17395 bound_to 11000

$$$$
