AV-unprocessed.smi:313|AV-procd|sdf|2312|dock6
  -GOLD-   2262022213D 1   1.00000     0.00000
 Structure written by MMmdl.
 50 51  0  0  0  0  0  0  0  0  1 V2000
  151.6032  141.9969  158.4705 C   0  0  0  0  0  0  0  0  0  0  0  0
  150.1909  141.8623  157.8829 C   0  0  0  0  0  0  0  0  0  0  0  0
  150.1725  141.6237  156.3613 C   0  0  1  0  0  0  0  0  0  0  0  0
  151.0256  140.4065  155.9701 C   0  0  0  0  0  0  0  0  0  0  0  0
  148.7993  141.4426  155.8966 N   0  0  0  0  0  0  0  0  0  0  0  0
  148.4301  141.1850  154.6324 C   0  0  0  0  0  0  0  0  0  0  0  0
  149.2316  141.0705  153.7034 O   0  0  0  0  0  0  0  0  0  0  0  0
  146.9183  141.0565  154.3853 C   0  0  1  0  0  0  0  0  0  0  0  0
  146.5084  142.1395  153.3736 C   0  0  0  0  0  0  0  0  0  0  0  0
  146.5926  139.7531  153.8085 N   0  0  0  0  0  0  0  0  0  0  0  0
  146.4333  138.6142  154.5036 C   0  0  0  0  0  0  0  0  0  0  0  0
  146.5592  138.5405  155.7261 O   0  0  0  0  0  0  0  0  0  0  0  0
  146.1518  137.3893  153.6828 C   0  0  0  0  0  0  0  0  0  0  0  0
  146.5504  136.1031  154.1057 C   0  0  0  0  0  0  0  0  0  0  0  0
  146.2778  134.9932  153.2833 C   0  0  0  0  0  0  0  0  0  0  0  0
  145.6138  135.1922  152.0460 C   0  0  0  0  0  0  0  0  0  0  0  0
  145.3141  134.1224  151.1705 N   0  0  0  0  0  0  0  0  0  0  0  0
  143.9019  133.7631  151.0353 C   0  0  0  0  0  0  0  0  0  0  0  0
  143.6887  132.8381  149.8253 C   0  0  0  0  0  0  0  0  0  0  0  0
  144.5462  131.7074  149.9258 O   0  0  0  0  0  0  0  0  0  0  0  0
  145.9167  132.0882  149.9086 C   0  0  0  0  0  0  0  0  0  0  0  0
  146.2251  132.9809  151.1224 C   0  0  0  0  0  0  0  0  0  0  0  0
  145.2457  136.4318  151.6403 N   0  0  0  0  0  0  0  0  0  0  0  0
  145.5107  137.4933  152.4308 C   0  0  0  0  0  0  0  0  0  0  0  0
  151.5607  142.1183  159.5530 H   0  0  0  0  0  0  0  0  0  0  0  0
  152.1278  142.8615  158.0636 H   0  0  0  0  0  0  0  0  0  0  0  0
  152.2025  141.1108  158.2595 H   0  0  0  0  0  0  0  0  0  0  0  0
  149.6862  141.0337  158.3811 H   0  0  0  0  0  0  0  0  0  0  0  0
  149.6138  142.7559  158.1243 H   0  0  0  0  0  0  0  0  0  0  0  0
  150.5981  142.5067  155.8808 H   0  0  0  0  0  0  0  0  0  0  0  0
  152.0586  140.5319  156.2951 H   0  0  0  0  0  0  0  0  0  0  0  0
  151.0385  140.2624  154.8893 H   0  0  0  0  0  0  0  0  0  0  0  0
  150.6433  139.4911  156.4232 H   0  0  0  0  0  0  0  0  0  0  0  0
  148.0718  141.5237  156.5920 H   0  0  0  0  0  0  0  0  0  0  0  0
  146.3692  141.1984  155.3183 H   0  0  0  0  0  0  0  0  0  0  0  0
  146.7237  143.1392  153.7537 H   0  0  0  0  0  0  0  0  0  0  0  0
  145.4384  142.0951  153.1687 H   0  0  0  0  0  0  0  0  0  0  0  0
  147.0303  142.0258  152.4220 H   0  0  0  0  0  0  0  0  0  0  0  0
  146.5043  139.7112  152.8037 H   0  0  0  0  0  0  0  0  0  0  0  0
  147.0608  135.9562  155.0464 H   0  0  0  0  0  0  0  0  0  0  0  0
  146.5787  134.0151  153.6256 H   0  0  0  0  0  0  0  0  0  0  0  0
  143.5782  133.2644  151.9496 H   0  0  0  0  0  0  0  0  0  0  0  0
  143.2715  134.6435  150.9115 H   0  0  0  0  0  0  0  0  0  0  0  0
  142.6541  132.4965  149.7930 H   0  0  0  0  0  0  0  0  0  0  0  0
  143.8763  133.3708  148.8915 H   0  0  0  0  0  0  0  0  0  0  0  0
  146.5356  131.1913  149.9362 H   0  0  0  0  0  0  0  0  0  0  0  0
  146.1496  132.6060  148.9763 H   0  0  0  0  0  0  0  0  0  0  0  0
  147.2577  133.3224  151.0458 H   0  0  0  0  0  0  0  0  0  0  0  0
  146.1324  132.4067  152.0453 H   0  0  0  0  0  0  0  0  0  0  0  0
  145.1923  138.4520  152.0477 H   0  0  0  0  0  0  0  0  0  0  0  0
  1  2  1  0  0  0  0
  1 25  1  0  0  0  0
  1 26  1  0  0  0  0
  1 27  1  0  0  0  0
  2  3  1  0  0  0  0
  2 28  1  0  0  0  0
  2 29  1  0  0  0  0
  3  4  1  0  0  0  0
  3  5  1  0  0  0  0
  3 30  1  0  0  0  0
  4 31  1  0  0  0  0
  4 32  1  0  0  0  0
  4 33  1  0  0  0  0
  5  6  1  0  0  0  0
  5 34  1  0  0  0  0
  6  7  2  0  0  0  0
  6  8  1  0  0  0  0
  8  9  1  0  0  0  0
  8 10  1  0  0  0  0
  8 35  1  0  0  0  0
  9 36  1  0  0  0  0
  9 37  1  0  0  0  0
  9 38  1  0  0  0  0
 10 11  1  0  0  0  0
 10 39  1  0  0  0  0
 11 12  2  0  0  0  0
 11 13  1  0  0  0  0
 13 24  1  0  0  0  0
 13 14  2  0  0  0  0
 14 15  1  0  0  0  0
 14 40  1  0  0  0  0
 15 16  2  0  0  0  0
 15 41  1  0  0  0  0
 16 17  1  0  0  0  0
 16 23  1  0  0  0  0
 17 22  1  0  0  0  0
 17 18  1  0  0  0  0
 18 19  1  0  0  0  0
 18 42  1  0  0  0  0
 18 43  1  0  0  0  0
 19 20  1  0  0  0  0
 19 44  1  0  0  0  0
 19 45  1  0  0  0  0
 20 21  1  0  0  0  0
 21 22  1  0  0  0  0
 21 46  1  0  0  0  0
 21 47  1  0  0  0  0
 22 48  1  0  0  0  0
 22 49  1  0  0  0  0
 23 24  2  0  0  0  0
 24 50  1  0  0  0  0
M  END
> <s_m_source_file>
AV-unprocessed.smi

> <i_m_source_file_index>
313

> <i_lp_mmshare_version>
43012

> <i_f3d_flags>
0

> <s_epik_input>
W0NIM11bQ0gyXVtDQEhdKFtDSDNdKVtOSF1DKD1PKVtDQEhdKFtDSDNdKVtOSF1DKD1PKWMxW2NIXVtjSF1jKG5bY0hdMSlOMltDSDJdW0NIMl1PW0NIMl1bQ0gyXTI=

> <s_epik_cmdline>
J2VwaWtfcHl0aG9uJywgJy1waCcsICc3LjAnLCAnLXRuJywgJzgnLCAnLW1hJywgJzIwMCcsICctbWV0YWxfYmluZGluZycsICctaW1hZScsICc8aW5maWxlLm1hZT4nLCAnLW9tYWUnLCAnPG91dGZpbGUubWFlPic=

> <r_lp_tautomer_probability>
1

> <r_epik_Ionization_Penalty>
9.96442e-06

> <r_epik_Ionization_Penalty_Charging>
0

> <r_epik_Ionization_Penalty_Neutral>
9.96442e-06

> <r_epik_State_Penalty>
-0

> <r_epik_Charging_Adjusted_Penalty>
0

> <i_epik_Tot_Q>
0

> <i_epik_Tot_abs_Q>
0

> <r_epik_Metal_State_Penalty>
-0

> <b_epik_Metal_Only>
0

> <s_lp_Force_Field>
OPLS_2005

> <r_lp_Energy>
19.952

> <b_lp_Chiralities_Consistent>
1

> <s_lp_Variant>
AV-unprocessed.smi:313-4

> <Gold.Version>
5.8.1

> <Gold.Id.Protein>
6NUR|6NUR_protein|mol2

> <Gold.PLP.Fitness>
39.9354

> <Gold.PLP.PLP>
-33.1712

> <Gold.PLP.part.hbond>
-3.3485

> <Gold.PLP.part.metal>
0.0000

> <Gold.PLP.part.buried>
-5.6008

> <Gold.PLP.part.nonpolar>
-28.8233

> <Gold.PLP.part.repulsive>
3.6040

> <Gold.PLP.ligand.clash>
0.0000

> <Gold.PLP.ligand.torsion>
1.1127

> <Gold.PLP.Chemscore.Hbond>
1.1165

> <Gold.PLP.Chemscore.CHOScore>
1.7145

> <Gold.PLP.Chemscore.Metal>
0.0000

> <Gold.Chemscore.Hbonds>
donor molecule, donor type, donor heavy atom, donor atom, acceptor molecule, acceptor atom, score
      P1  H  7989  7998       L1     7  0.03
      P1  H  8011  8017       L1     7  0.98
      P1  H 10785 10796       L1    20  0.08
      L1  C    24    50       P1 10171  0.69
      L1  C    24    50       P1 10175  0.98

> <Gold.PLP.Chemscore.Internal.Correction>
0.4967

> <Gold.Rescore>
     Score         DG    S(hbond)    S(metal)    S(lipo)     H(rot)  DE(clash)    DE(int)     intcor
     12.70     -14.36       1.09        0.00      83.98       1.79       0.52       1.13       ----

> <Gold.Chemscore.Fitness>
12.7034

> <Gold.Chemscore.DG>
-14.3568

> <Gold.Chemscore.ZeroCoef>
-5.4800

> <Gold.Chemscore.Hbond>
1.0868

> <Gold.Chemscore.Metal>
0.0000

> <Gold.Chemscore.Lipo>
83.9843

> <Gold.Chemscore.Internal_Hbond>
0.0000

> <Gold.Chemscore.DEClash>
0.5191

> <Gold.Chemscore.DEInternal>
1.1343

> <Gold.Chemscore.Rot>
1.7888

> <Gold.Chemscore.Internal.Correction>
   9.000000E+99

> <Gold.Chemscore.Hbonds>
donor molecule, donor type, donor heavy atom, donor atom, acceptor molecule, acceptor atom, score
      P1  H  7989  7998       L1     7  0.04
      P1  H  8011  8017       L1     7  0.90
      P1  H 10785 10796       L1    20  0.02

> <Gold.Chemscore.Hbond.Weighted>
-3.6299

> <Gold.Chemscore.Metal.Weighted>
-0.0000

> <Gold.Chemscore.Lipo.Weighted>
-9.8262

> <Gold.Chemscore.Internal_Hbond.Weighted>
0.0000

> <Gold.Chemscore.DEClash.Weighted>
0.5191

> <Gold.Chemscore.DEInternal.Weighted>
1.1343

> <Gold.Chemscore.Rot.Weighted>
4.5793

> <Gold.Chemscore.Internal.Correction.Weighted>
   9.000000E+99

> <Gold.Protein.RotatedTorsions>
[ 6907 6896 6895 6894 ] final  144.94 input  -60.11 | X-H torsion
[ 7974 7965 7964 7962 ] final  160.67 input  175.53 | X-H torsion
[ 8008 7997 7996 7995 ] final -136.22 input   59.86 | X-H torsion
[ 10167 10162 10161 10158 ] final  146.31 input  -65.29 | X-H torsion
[ 10718 10713 10712 10709 ] final  -32.15 input   66.30 | X-H torsion
[ 10763 10752 10751 10750 ] final   75.92 input  -60.55 | X-H torsion
[ 11005 11000 10999 10996 ] final  -71.67 input  -57.11 | X-H torsion

> <Gold.Protein.ActiveResidues>
 VAL166  LYS551  ARG553  GLY616  TRP617  ASP618  TYR619  PRO620  LYS621  CYS622 
 ASP623  PHE694  ASN695  SER759  ASP760  ASP761  ALA762  ILE779  LEU786  VAL792 
 PHE793  MET794  SER795  GLU796  ALA797  LYS798  CYS799  TRP800  GLU811  SER814 

> <Gold.Protein.RotatedAtoms>
  152.1872  133.4748  159.4988 H   0  0  0  0  0  0  0  0  0  0  0  0  # atno 6907 bound_to 6896
  150.6944  134.1758  159.4239 H   0  0  0  0  0  0  0  0  0  0  0  0  # atno 6908 bound_to 6896
  151.9671  135.0094  160.0601 H   0  0  0  0  0  0  0  0  0  0  0  0  # atno 6909 bound_to 6896
  144.7725  139.7790  143.6291 H   0  0  0  0  0  0  0  0  0  0  0  0  # atno 7974 bound_to 7965
  155.3916  140.0500  157.3040 H   0  0  0  0  0  0  0  0  0  0  0  0  # atno 8008 bound_to 7997
  154.5033  140.2165  155.9263 H   0  0  0  0  0  0  0  0  0  0  0  0  # atno 8009 bound_to 7997
  156.1495  140.3139  155.8629 H   0  0  0  0  0  0  0  0  0  0  0  0  # atno 8010 bound_to 7997
  139.4909  144.5839  151.6817 H   0  0  0  0  0  0  0  0  0  0  0  0  # atno 10167 bound_to 10162
  156.3785  130.4352  149.7488 H   0  0  0  0  0  0  0  0  0  0  0  0  # atno 10718 bound_to 10713
  153.0688  135.4971  154.8260 H   0  0  0  0  0  0  0  0  0  0  0  0  # atno 10763 bound_to 10752
  154.6993  135.2998  154.9367 H   0  0  0  0  0  0  0  0  0  0  0  0  # atno 10764 bound_to 10752
  154.0096  135.6756  153.4817 H   0  0  0  0  0  0  0  0  0  0  0  0  # atno 10765 bound_to 10752
  141.1596  133.6824  156.6941 H   0  0  0  0  0  0  0  0  0  0  0  0  # atno 11005 bound_to 11000
  146.1881  139.5107  142.9823 LP  0  0  0  0  0  0  0  0  0  0  0  0  # atno 17320 bound_to 7965
  145.6283  141.0309  143.1877 LP  0  0  0  0  0  0  0  0  0  0  0  0  # atno 17321 bound_to 7965
  140.5451  144.0517  150.6104 LP  0  0  0  0  0  0  0  0  0  0  0  0  # atno 17342 bound_to 10162
  140.3552  143.2940  152.0444 LP  0  0  0  0  0  0  0  0  0  0  0  0  # atno 17343 bound_to 10162
  156.4588  130.7942  151.2962 LP  0  0  0  0  0  0  0  0  0  0  0  0  # atno 17370 bound_to 10713
  157.7490  131.0072  150.3182 LP  0  0  0  0  0  0  0  0  0  0  0  0  # atno 17371 bound_to 10713
  140.3008  134.8165  157.4096 LP  0  0  0  0  0  0  0  0  0  0  0  0  # atno 17394 bound_to 11000
  140.1263  134.5153  155.8141 LP  0  0  0  0  0  0  0  0  0  0  0  0  # atno 17395 bound_to 11000

$$$$
