AV-unprocessed.smi:1013|AV-procd|sdf|4429|dock1
  -GOLD-   22720 2383D 1   1.00000     0.00000
 Structure written by MMmdl.
 29 30  0  0  0  0  0  0  0  0  2 V2000
  152.0913  137.5080  154.4724 O   0  0  0  0  0  0  0  0  0  0  0  0
  152.3033  138.5909  155.0635 C   0  0  0  0  0  0  0  0  0  0  0  0
  153.2821  139.3421  154.8607 O   0  5  0  0  0  0  0  0  0  0  0  0
  151.2855  139.0536  156.1151 C   0  0  1  0  0  0  0  0  0  0  0  0
  150.8115  140.4853  155.7671 C   0  0  0  0  0  0  0  0  0  0  0  0
  150.8263  141.3938  156.8986 N   0  0  0  0  0  0  0  0  0  0  0  0
  149.8614  142.3001  157.2807 C   0  0  0  0  0  0  0  0  0  0  0  0
  150.3213  142.9341  158.3989 C   0  0  0  0  0  0  0  0  0  0  0  0
  151.6003  142.3481  158.6283 C   0  0  0  0  0  0  0  0  0  0  0  0
  152.5833  142.6508  159.7280 C   0  0  0  0  0  0  0  0  0  0  0  0
  153.6886  143.1917  159.2155 F   0  0  0  0  0  0  0  0  0  0  0  0
  152.0520  143.5078  160.6000 F   0  0  0  0  0  0  0  0  0  0  0  0
  152.9061  141.5296  160.3725 F   0  0  0  0  0  0  0  0  0  0  0  0
  151.8974  141.4292  157.7196 N   0  0  0  0  0  0  0  0  0  0  0  0
  150.1623  138.1036  156.1989 N   0  0  0  0  0  0  0  0  0  0  0  0
  150.4121  137.0663  157.1841 C   0  0  0  0  0  0  0  0  0  0  0  0
  149.5679  137.0732  158.4361 C   0  0  0  0  0  0  0  0  0  0  0  0
  151.0164  137.4994  158.4977 C   0  0  0  0  0  0  0  0  0  0  0  0
  151.8187  139.0636  157.0675 H   0  0  0  0  0  0  0  0  0  0  0  0
  151.4477  140.9201  154.9940 H   0  0  0  0  0  0  0  0  0  0  0  0
  149.8022  140.4609  155.3532 H   0  0  0  0  0  0  0  0  0  0  0  0
  148.9365  142.4124  156.7343 H   0  0  0  0  0  0  0  0  0  0  0  0
  149.8197  143.7023  158.9681 H   0  0  0  0  0  0  0  0  0  0  0  0
  149.9997  137.6746  155.2987 H   0  0  0  0  0  0  0  0  0  0  0  0
  150.7301  136.0838  156.8448 H   0  0  0  0  0  0  0  0  0  0  0  0
  148.8102  137.8485  158.5348 H   0  0  0  0  0  0  0  0  0  0  0  0
  149.3063  136.1092  158.8675 H   0  0  0  0  0  0  0  0  0  0  0  0
  151.7199  136.8199  158.9742 H   0  0  0  0  0  0  0  0  0  0  0  0
  151.2220  138.5586  158.6410 H   0  0  0  0  0  0  0  0  0  0  0  0
  1  2  2  0  0  0  0
  2  3  1  0  0  0  0
  2  4  1  0  0  0  0
  4  5  1  0  0  0  0
  4 15  1  0  0  0  0
  4 19  1  0  0  0  0
  5  6  1  0  0  0  0
  5 20  1  0  0  0  0
  5 21  1  0  0  0  0
  6 14  1  0  0  0  0
  6  7  1  0  0  0  0
  7  8  2  0  0  0  0
  7 22  1  0  0  0  0
  8  9  1  0  0  0  0
  8 23  1  0  0  0  0
  9 10  1  0  0  0  0
  9 14  2  0  0  0  0
 10 11  1  0  0  0  0
 10 12  1  0  0  0  0
 10 13  1  0  0  0  0
 15 16  1  0  0  0  0
 15 24  1  0  0  0  0
 16 18  1  0  0  0  0
 16 17  1  0  0  0  0
 16 25  1  0  0  0  0
 17 18  1  0  0  0  0
 17 26  1  0  0  0  0
 17 27  1  0  0  0  0
 18 28  1  0  0  0  0
 18 29  1  0  0  0  0
M  CHG  1   3  -1
M  END
> <s_m_source_file>
AV-unprocessed.smi

> <i_m_source_file_index>
1013

> <i_lp_mmshare_version>
43012

> <i_f3d_flags>
0

> <s_epik_input>
W0NIMl0xW0NIMl1bQ0hdMVtOSF1bQ0BIXShDKD1PKVtPSF0pW0NIMl1uMltjSF1bY0hdYyhuMilDKEYpKEYpRg==

> <s_epik_cmdline>
J2VwaWtfcHl0aG9uJywgJy1waCcsICc3LjAnLCAnLXRuJywgJzgnLCAnLW1hJywgJzIwMCcsICctbWV0YWxfYmluZGluZycsICctaW1hZScsICc8aW5maWxlLm1hZT4nLCAnLW9tYWUnLCAnPG91dGZpbGUubWFlPic=

> <r_lp_tautomer_probability>
1

> <r_epik_Ionization_Penalty>
0.786284

> <r_epik_Ionization_Penalty_Charging>
0.00153368

> <r_epik_Ionization_Penalty_Neutral>
0.78475

> <r_epik_State_Penalty>
0.814638

> <r_epik_Charging_Adjusted_Penalty>
0.816172

> <i_epik_Tot_Q>
-1

> <i_epik_Tot_abs_Q>
1

> <r_epik_Metal_State_Penalty>
0.814638

> <b_epik_Metal_Only>
0

> <s_lp_Force_Field>
OPLS_2005

> <r_lp_Energy>
17.111

> <b_lp_Chiralities_Consistent>
1

> <s_lp_Variant>
AV-unprocessed.smi:1013-4

> <Gold.Version>
5.8.1

> <Gold.Id.Protein>
6NUR|6NUR_protein|mol2

> <Gold.PLP.Fitness>
43.8789

> <Gold.PLP.PLP>
-33.9308

> <Gold.PLP.part.hbond>
-2.4425

> <Gold.PLP.part.metal>
0.0000

> <Gold.PLP.part.buried>
-3.8626

> <Gold.PLP.part.nonpolar>
-26.2758

> <Gold.PLP.part.repulsive>
0.1399

> <Gold.PLP.ligand.clash>
0.0000

> <Gold.PLP.ligand.torsion>
1.8038

> <Gold.PLP.Chemscore.Hbond>
3.6960

> <Gold.PLP.Chemscore.CHOScore>
0.5885

> <Gold.PLP.Chemscore.Metal>
0.0000

> <Gold.Chemscore.Hbonds>
donor molecule, donor type, donor heavy atom, donor atom, acceptor molecule, acceptor atom, score
      P1  H  7997  8010       L1     3  2.00
      P1  H 10752 10765       L1     1  1.66
      L1  C     7    22       P1  8028  0.57

> <Gold.PLP.Chemscore.Internal.Correction>
0.7021

> <Gold.Rescore>
     Score         DG    S(hbond)    S(metal)    S(lipo)     H(rot)  DE(clash)    DE(int)     intcor
     10.06     -11.64       1.89        0.00      53.69       2.52       0.05       1.53       ----

> <Gold.Chemscore.Fitness>
10.0620

> <Gold.Chemscore.DG>
-11.6362

> <Gold.Chemscore.ZeroCoef>
-5.4800

> <Gold.Chemscore.Hbond>
1.8905

> <Gold.Chemscore.Metal>
0.0000

> <Gold.Chemscore.Lipo>
53.6948

> <Gold.Chemscore.Internal_Hbond>
0.0000

> <Gold.Chemscore.DEClash>
0.0466

> <Gold.Chemscore.DEInternal>
1.5276

> <Gold.Chemscore.Rot>
2.5157

> <Gold.Chemscore.Internal.Correction>
   9.000000E+99

> <Gold.Chemscore.Hbonds>
donor molecule, donor type, donor heavy atom, donor atom, acceptor molecule, acceptor atom, score
      P1  H  7997  8010       L1     3  0.98
      P1  H 10752 10765       L1     1  0.78

> <Gold.Chemscore.Hbond.Weighted>
-6.3142

> <Gold.Chemscore.Metal.Weighted>
-0.0000

> <Gold.Chemscore.Lipo.Weighted>
-6.2823

> <Gold.Chemscore.Internal_Hbond.Weighted>
0.0000

> <Gold.Chemscore.DEClash.Weighted>
0.0466

> <Gold.Chemscore.DEInternal.Weighted>
1.5276

> <Gold.Chemscore.Rot.Weighted>
6.4402

> <Gold.Chemscore.Internal.Correction.Weighted>
   9.000000E+99

> <Gold.Protein.RotatedTorsions>
[ 6907 6896 6895 6894 ] final -122.14 input  -60.11 | X-H torsion
[ 7974 7965 7964 7962 ] final  162.21 input  175.53 | X-H torsion
[ 8008 7997 7996 7995 ] final   92.27 input   59.86 | X-H torsion
[ 10167 10162 10161 10158 ] final -169.00 input  -65.29 | X-H torsion
[ 10718 10713 10712 10709 ] final  150.71 input   66.30 | X-H torsion
[ 10763 10752 10751 10750 ] final  163.79 input  -60.55 | X-H torsion
[ 11005 11000 10999 10996 ] final -129.91 input  -57.11 | X-H torsion

> <Gold.Protein.ActiveResidues>
 VAL166  LYS551  ARG553  GLY616  TRP617  ASP618  TYR619  PRO620  LYS621  CYS622 
 ASP623  PHE694  ASN695  SER759  ASP760  ASP761  ALA762  ILE779  LEU786  VAL792 
 PHE793  MET794  SER795  GLU796  ALA797  LYS798  CYS799  TRP800  GLU811  SER814 

> <Gold.Protein.RotatedAtoms>
  150.8548  133.7731  159.3012 H   0  0  0  0  0  0  0  0  0  0  0  0  # atno 6907 bound_to 6896
  151.5392  135.1067  159.9931 H   0  0  0  0  0  0  0  0  0  0  0  0  # atno 6908 bound_to 6896
  152.4581  133.7722  159.6861 H   0  0  0  0  0  0  0  0  0  0  0  0  # atno 6909 bound_to 6896
  144.7648  139.8007  143.6319 H   0  0  0  0  0  0  0  0  0  0  0  0  # atno 7974 bound_to 7965
  156.0334  140.3327  155.7164 H   0  0  0  0  0  0  0  0  0  0  0  0  # atno 8008 bound_to 7997
  155.5851  140.0641  157.2791 H   0  0  0  0  0  0  0  0  0  0  0  0  # atno 8009 bound_to 7997
  154.4362  140.1837  156.1005 H   0  0  0  0  0  0  0  0  0  0  0  0  # atno 8010 bound_to 7997
  139.5950  144.1132  152.1678 H   0  0  0  0  0  0  0  0  0  0  0  0  # atno 10167 bound_to 10162
  157.2800  131.0833  151.1539 H   0  0  0  0  0  0  0  0  0  0  0  0  # atno 10718 bound_to 10713
  154.2991  135.2759  155.2619 H   0  0  0  0  0  0  0  0  0  0  0  0  # atno 10763 bound_to 10752
  154.5064  135.5794  153.6574 H   0  0  0  0  0  0  0  0  0  0  0  0  # atno 10764 bound_to 10752
  152.9903  135.6170  154.3161 H   0  0  0  0  0  0  0  0  0  0  0  0  # atno 10765 bound_to 10752
  140.9391  134.1217  157.4167 H   0  0  0  0  0  0  0  0  0  0  0  0  # atno 11005 bound_to 11000
  146.1745  139.4909  142.9906 LP  0  0  0  0  0  0  0  0  0  0  0  0  # atno 17320 bound_to 7965
  145.6505  141.0264  143.1763 LP  0  0  0  0  0  0  0  0  0  0  0  0  # atno 17321 bound_to 7965
  140.0715  144.5775  150.7188 LP  0  0  0  0  0  0  0  0  0  0  0  0  # atno 17342 bound_to 10162
  140.7204  143.2583  151.4297 LP  0  0  0  0  0  0  0  0  0  0  0  0  # atno 17343 bound_to 10162
  157.2977  130.6827  149.6147 LP  0  0  0  0  0  0  0  0  0  0  0  0  # atno 17370 bound_to 10713
  155.9664  130.4401  150.5288 LP  0  0  0  0  0  0  0  0  0  0  0  0  # atno 17371 bound_to 10713
  139.8815  135.0030  156.6164 LP  0  0  0  0  0  0  0  0  0  0  0  0  # atno 17394 bound_to 11000
  140.7759  133.8700  155.8528 LP  0  0  0  0  0  0  0  0  0  0  0  0  # atno 17395 bound_to 11000

$$$$
