AV-unprocessed.smi:765|AV-procd|sdf|3647|dock2
  -GOLD-   22720 1 53D 1   1.00000     0.00000
 Structure written by MMmdl.
 39 40  0  0  0  0  0  0  0  0  1 V2000
  147.7572  139.8286  155.4630 C   0  0  0  0  0  0  0  0  0  0  0  0
  149.2360  139.8154  155.8752 C   0  0  2  0  0  0  0  0  0  0  0  0
  150.1398  139.3775  154.7085 C   0  0  0  0  0  0  0  0  0  0  0  0
  151.6183  139.3339  155.1206 C   0  0  0  0  0  0  0  0  0  0  0  0
  151.8226  138.4294  156.3482 C   0  0  0  0  0  0  0  0  0  0  0  0
  150.9478  138.8596  157.5521 C   0  0  1  0  0  0  0  0  0  0  0  0
  151.0738  137.8740  158.6424 C   0  0  0  0  0  0  0  0  0  0  0  0
  151.1744  137.1007  159.4973 N   0  0  0  0  0  0  0  0  0  0  0  0
  151.3296  140.1959  158.0175 N   0  0  0  0  0  0  0  0  0  0  0  0
  152.5388  140.5963  158.4450 C   0  0  0  0  0  0  0  0  0  0  0  0
  153.4914  139.8307  158.5929 O   0  0  0  0  0  0  0  0  0  0  0  0
  152.6838  142.1016  158.7196 C   0  0  1  0  0  0  0  0  0  0  0  0
  151.5096  142.9339  158.1644 C   0  0  0  0  0  0  0  0  0  0  0  0
  152.8931  142.3280  160.1462 N   0  0  0  0  0  0  0  0  0  0  0  0
  152.2620  143.2457  160.9619 C   0  0  0  0  0  0  0  0  0  0  0  0
  152.8168  143.1414  162.2050 C   0  0  0  0  0  0  0  0  0  0  0  0
  153.8020  142.1273  162.0511 C   0  0  0  0  0  0  0  0  0  0  0  0
  153.8524  141.6498  160.8188 N   0  0  0  0  0  0  0  0  0  0  0  0
  149.4688  138.9110  157.1056 C   0  0  0  0  0  0  0  0  0  0  0  0
  147.4183  138.8349  155.1680 H   0  0  0  0  0  0  0  0  0  0  0  0
  147.5903  140.5006  154.6206 H   0  0  0  0  0  0  0  0  0  0  0  0
  147.1234  140.1659  156.2836 H   0  0  0  0  0  0  0  0  0  0  0  0
  149.5046  140.8383  156.1425 H   0  0  0  0  0  0  0  0  0  0  0  0
  149.8344  138.3911  154.3568 H   0  0  0  0  0  0  0  0  0  0  0  0
  150.0162  140.0571  153.8645 H   0  0  0  0  0  0  0  0  0  0  0  0
  152.2224  138.9700  154.2889 H   0  0  0  0  0  0  0  0  0  0  0  0
  151.9722  140.3428  155.3361 H   0  0  0  0  0  0  0  0  0  0  0  0
  151.5749  137.4028  156.0739 H   0  0  0  0  0  0  0  0  0  0  0  0
  152.8782  138.4134  156.6207 H   0  0  0  0  0  0  0  0  0  0  0  0
  150.6142  140.9044  157.9459 H   0  0  0  0  0  0  0  0  0  0  0  0
  153.5867  142.4347  158.2054 H   0  0  0  0  0  0  0  0  0  0  0  0
  151.4125  142.8059  157.0857 H   0  0  0  0  0  0  0  0  0  0  0  0
  151.6642  143.9968  158.3531 H   0  0  0  0  0  0  0  0  0  0  0  0
  150.5575  142.6538  158.6172 H   0  0  0  0  0  0  0  0  0  0  0  0
  151.4810  143.8939  160.5927 H   0  0  0  0  0  0  0  0  0  0  0  0
  152.5622  143.7075  163.0886 H   0  0  0  0  0  0  0  0  0  0  0  0
  154.4818  141.7309  162.7908 H   0  0  0  0  0  0  0  0  0  0  0  0
  148.8457  139.2487  157.9352 H   0  0  0  0  0  0  0  0  0  0  0  0
  149.1317  137.8996  156.8720 H   0  0  0  0  0  0  0  0  0  0  0  0
  1  2  1  0  0  0  0
  1 20  1  0  0  0  0
  1 21  1  0  0  0  0
  1 22  1  0  0  0  0
  2 19  1  0  0  0  0
  2  3  1  0  0  0  0
  2 23  1  0  0  0  0
  3  4  1  0  0  0  0
  3 24  1  0  0  0  0
  3 25  1  0  0  0  0
  4  5  1  0  0  0  0
  4 26  1  0  0  0  0
  4 27  1  0  0  0  0
  5  6  1  0  0  0  0
  5 28  1  0  0  0  0
  5 29  1  0  0  0  0
  6  7  1  0  0  0  0
  6  9  1  0  0  0  0
  6 19  1  0  0  0  0
  7  8  3  0  0  0  0
  9 10  1  0  0  0  0
  9 30  1  0  0  0  0
 10 11  2  0  0  0  0
 10 12  1  0  0  0  0
 12 13  1  0  0  0  0
 12 14  1  0  0  0  0
 12 31  1  0  0  0  0
 13 32  1  0  0  0  0
 13 33  1  0  0  0  0
 13 34  1  0  0  0  0
 14 18  1  0  0  0  0
 14 15  1  0  0  0  0
 15 16  2  0  0  0  0
 15 35  1  0  0  0  0
 16 17  1  0  0  0  0
 16 36  1  0  0  0  0
 17 18  2  0  0  0  0
 17 37  1  0  0  0  0
 19 38  1  0  0  0  0
 19 39  1  0  0  0  0
M  END
> <s_m_source_file>
AV-unprocessed.smi

> <i_m_source_file_index>
765

> <i_lp_mmshare_version>
43012

> <i_f3d_flags>
0

> <s_epik_input>
W0NIM11bQ0BASF0oW0NIMl0xKVtDSDJdW0NIMl1bQ0gyXVtDQEBdMShDI04pW05IXUMoPU8pW0NASF0oW0NIM10pbjJbY0hdW2NIXVtjSF1uMg==

> <s_epik_cmdline>
J2VwaWtfcHl0aG9uJywgJy1waCcsICc3LjAnLCAnLXRuJywgJzgnLCAnLW1hJywgJzIwMCcsICctbWV0YWxfYmluZGluZycsICctaW1hZScsICc8aW5maWxlLm1hZT4nLCAnLW9tYWUnLCAnPG91dGZpbGUubWFlPic=

> <r_lp_tautomer_probability>
1

> <r_epik_Ionization_Penalty>
2.71142e-05

> <r_epik_Ionization_Penalty_Charging>
0

> <r_epik_Ionization_Penalty_Neutral>
2.71142e-05

> <r_epik_State_Penalty>
-0

> <r_epik_Charging_Adjusted_Penalty>
0

> <i_epik_Tot_Q>
0

> <i_epik_Tot_abs_Q>
0

> <r_epik_Metal_State_Penalty>
-0

> <b_epik_Metal_Only>
0

> <s_lp_Force_Field>
OPLS_2005

> <r_lp_Energy>
11.2171

> <b_lp_Chiralities_Consistent>
1

> <s_lp_Variant>
AV-unprocessed.smi:765-5

> <Gold.Version>
5.8.1

> <Gold.Id.Protein>
6NUR|6NUR_protein|mol2

> <Gold.PLP.Fitness>
41.0620

> <Gold.PLP.PLP>
-35.7244

> <Gold.PLP.part.hbond>
-2.0000

> <Gold.PLP.part.metal>
0.0000

> <Gold.PLP.part.buried>
-5.0568

> <Gold.PLP.part.nonpolar>
-28.4334

> <Gold.PLP.part.repulsive>
0.0924

> <Gold.PLP.ligand.clash>
0.0802

> <Gold.PLP.ligand.torsion>
0.3478

> <Gold.PLP.Chemscore.Hbond>
2.0000

> <Gold.PLP.Chemscore.CHOScore>
0.0000

> <Gold.PLP.Chemscore.Metal>
0.0000

> <Gold.Chemscore.Hbonds>
donor molecule, donor type, donor heavy atom, donor atom, acceptor molecule, acceptor atom, score
      P1  H  6896  6908       L1     8  1.00
      P1  H  7997  8009       L1    11  1.00

> <Gold.PLP.Chemscore.Internal.Correction>
0.1135

> <Gold.Rescore>
     Score         DG    S(hbond)    S(metal)    S(lipo)     H(rot)  DE(clash)    DE(int)     intcor
     16.49     -18.15       1.90        0.00      85.09       1.42       0.01       1.65       ----

> <Gold.Chemscore.Fitness>
16.4896

> <Gold.Chemscore.DG>
-18.1487

> <Gold.Chemscore.ZeroCoef>
-5.4800

> <Gold.Chemscore.Hbond>
1.8993

> <Gold.Chemscore.Metal>
0.0000

> <Gold.Chemscore.Lipo>
85.0933

> <Gold.Chemscore.Internal_Hbond>
0.0000

> <Gold.Chemscore.DEClash>
0.0073

> <Gold.Chemscore.DEInternal>
1.6518

> <Gold.Chemscore.Rot>
1.4183

> <Gold.Chemscore.Internal.Correction>
   9.000000E+99

> <Gold.Chemscore.Hbonds>
donor molecule, donor type, donor heavy atom, donor atom, acceptor molecule, acceptor atom, score
      P1  H  6896  6908       L1     8  0.93
      P1  H  7997  8009       L1    11  0.65

> <Gold.Chemscore.Hbond.Weighted>
-6.3437

> <Gold.Chemscore.Metal.Weighted>
-0.0000

> <Gold.Chemscore.Lipo.Weighted>
-9.9559

> <Gold.Chemscore.Internal_Hbond.Weighted>
0.0000

> <Gold.Chemscore.DEClash.Weighted>
0.0073

> <Gold.Chemscore.DEInternal.Weighted>
1.6518

> <Gold.Chemscore.Rot.Weighted>
3.6309

> <Gold.Chemscore.Internal.Correction.Weighted>
   9.000000E+99

> <Gold.Protein.RotatedTorsions>
[ 6907 6896 6895 6894 ] final -144.96 input  -60.11 | X-H torsion
[ 7974 7965 7964 7962 ] final -105.77 input  175.53 | X-H torsion
[ 8008 7997 7996 7995 ] final  148.55 input   59.86 | X-H torsion
[ 10167 10162 10161 10158 ] final   29.84 input  -65.29 | X-H torsion
[ 10718 10713 10712 10709 ] final   16.02 input   66.30 | X-H torsion
[ 10763 10752 10751 10750 ] final  154.61 input  -60.55 | X-H torsion
[ 11005 11000 10999 10996 ] final  141.12 input  -57.11 | X-H torsion

> <Gold.Protein.ActiveResidues>
 VAL166  LYS551  ARG553  GLY616  TRP617  ASP618  TYR619  PRO620  LYS621  CYS622 
 ASP623  PHE694  ASN695  SER759  ASP760  ASP761  ALA762  ILE779  LEU786  VAL792 
 PHE793  MET794  SER795  GLU796  ALA797  LYS798  CYS799  TRP800  GLU811  SER814 

> <Gold.Protein.RotatedAtoms>
  151.1213  133.5102  159.2601 H   0  0  0  0  0  0  0  0  0  0  0  0  # atno 6907 bound_to 6896
  151.1859  135.0381  159.8822 H   0  0  0  0  0  0  0  0  0  0  0  0  # atno 6908 bound_to 6896
  152.5456  134.1059  159.8391 H   0  0  0  0  0  0  0  0  0  0  0  0  # atno 6909 bound_to 6896
  145.2262  140.9153  143.3231 H   0  0  0  0  0  0  0  0  0  0  0  0  # atno 7974 bound_to 7965
  156.2787  140.2125  156.5717 H   0  0  0  0  0  0  0  0  0  0  0  0  # atno 8008 bound_to 7997
  154.7130  140.0510  157.0591 H   0  0  0  0  0  0  0  0  0  0  0  0  # atno 8009 bound_to 7997
  155.0579  140.3163  155.4673 H   0  0  0  0  0  0  0  0  0  0  0  0  # atno 8010 bound_to 7997
  140.4730  144.0733  150.6243 H   0  0  0  0  0  0  0  0  0  0  0  0  # atno 10167 bound_to 10162
  157.0618  130.6312  149.5787 H   0  0  0  0  0  0  0  0  0  0  0  0  # atno 10718 bound_to 10713
  154.1551  135.2813  155.3124 H   0  0  0  0  0  0  0  0  0  0  0  0  # atno 10763 bound_to 10752
  154.6188  135.5474  153.7556 H   0  0  0  0  0  0  0  0  0  0  0  0  # atno 10764 bound_to 10752
  153.0209  135.6434  154.1694 H   0  0  0  0  0  0  0  0  0  0  0  0  # atno 10765 bound_to 10752
  140.0378  134.9320  157.0785 H   0  0  0  0  0  0  0  0  0  0  0  0  # atno 11005 bound_to 11000
  144.9719  139.3871  143.6305 LP  0  0  0  0  0  0  0  0  0  0  0  0  # atno 17320 bound_to 7965
  146.3364  139.8820  142.8822 LP  0  0  0  0  0  0  0  0  0  0  0  0  # atno 17321 bound_to 7965
  140.3953  143.2731  152.0012 LP  0  0  0  0  0  0  0  0  0  0  0  0  # atno 17342 bound_to 10162
  139.4821  144.6043  151.7549 LP  0  0  0  0  0  0  0  0  0  0  0  0  # atno 17343 bound_to 10162
  155.9976  130.5048  150.7540 LP  0  0  0  0  0  0  0  0  0  0  0  0  # atno 17370 bound_to 10713
  157.4948  131.0914  151.0384 LP  0  0  0  0  0  0  0  0  0  0  0  0  # atno 17371 bound_to 10713
  140.4119  134.1972  155.7163 LP  0  0  0  0  0  0  0  0  0  0  0  0  # atno 17394 bound_to 11000
  141.1867  133.8297  157.1060 LP  0  0  0  0  0  0  0  0  0  0  0  0  # atno 17395 bound_to 11000

$$$$
