AV-unprocessed.smi:353|AV-procd|sdf|2402|dock3
  -GOLD-   2262022333D 1   1.00000     0.00000
 Structure written by MMmdl.
 36 37  0  0  0  0  0  0  0  0  1 V2000
  146.5932  138.4189  151.7873 C   0  0  0  0  0  0  0  0  0  0  0  0
  147.1813  139.0026  153.0747 C   0  0  0  0  0  0  0  0  0  0  0  0
  148.0378  138.0423  153.7506 N   0  0  0  0  0  0  0  0  0  0  0  0
  149.2328  138.2852  154.4155 C   0  0  0  0  0  0  0  0  0  0  0  0
  149.8106  139.6154  154.5247 C   0  0  0  0  0  0  0  0  0  0  0  0
  150.9176  139.8470  155.1413 N   0  0  0  0  0  0  0  0  0  0  0  0
  151.6002  138.8025  155.7324 N   0  0  0  0  0  0  0  0  0  0  0  0
  152.8259  139.2121  156.4287 C   0  0  0  0  0  0  0  0  0  0  0  0
  152.8516  138.7012  157.8784 C   0  0  0  0  0  0  0  0  0  0  0  0
  153.6659  139.5589  158.6665 O   0  0  0  0  0  0  0  0  0  0  0  0
  153.1291  140.7478  159.1088 C   0  0  0  0  0  0  0  0  0  0  0  0
  151.9111  141.1539  158.5256 C   0  0  0  0  0  0  0  0  0  0  0  0
  151.2920  142.3574  158.9138 C   0  0  0  0  0  0  0  0  0  0  0  0
  151.8884  143.1701  159.8957 C   0  0  0  0  0  0  0  0  0  0  0  0
  151.1334  144.6462  160.3725 Cl  0  0  0  0  0  0  0  0  0  0  0  0
  153.1027  142.7754  160.4883 C   0  0  0  0  0  0  0  0  0  0  0  0
  153.7213  141.5709  160.1000 C   0  0  0  0  0  0  0  0  0  0  0  0
  151.1908  137.4989  155.7177 C   0  0  0  0  0  0  0  0  0  0  0  0
  151.8302  136.5983  156.2629 O   0  0  0  0  0  0  0  0  0  0  0  0
  149.9257  137.2734  155.0035 C   0  0  0  0  0  0  0  0  0  0  0  0
  149.3274  135.6491  154.9350 Cl  0  0  0  0  0  0  0  0  0  0  0  0
  145.9525  139.1473  151.2902 H   0  0  0  0  0  0  0  0  0  0  0  0
  145.9916  137.5333  151.9941 H   0  0  0  0  0  0  0  0  0  0  0  0
  147.3798  138.1354  151.0875 H   0  0  0  0  0  0  0  0  0  0  0  0
  147.7593  139.8980  152.8442 H   0  0  0  0  0  0  0  0  0  0  0  0
  146.3767  139.3000  153.7479 H   0  0  0  0  0  0  0  0  0  0  0  0
  147.7090  137.0871  153.7343 H   0  0  0  0  0  0  0  0  0  0  0  0
  149.2504  140.4213  154.0510 H   0  0  0  0  0  0  0  0  0  0  0  0
  153.7204  138.8836  155.8968 H   0  0  0  0  0  0  0  0  0  0  0  0
  152.8831  140.3019  156.4355 H   0  0  0  0  0  0  0  0  0  0  0  0
  151.8364  138.6968  158.2775 H   0  0  0  0  0  0  0  0  0  0  0  0
  153.2266  137.6765  157.9029 H   0  0  0  0  0  0  0  0  0  0  0  0
  151.4478  140.5360  157.7704 H   0  0  0  0  0  0  0  0  0  0  0  0
  150.3601  142.6554  158.4561 H   0  0  0  0  0  0  0  0  0  0  0  0
  153.5625  143.3962  161.2429 H   0  0  0  0  0  0  0  0  0  0  0  0
  154.6500  141.3005  160.5787 H   0  0  0  0  0  0  0  0  0  0  0  0
  1  2  1  0  0  0  0
  1 22  1  0  0  0  0
  1 23  1  0  0  0  0
  1 24  1  0  0  0  0
  2  3  1  0  0  0  0
  2 25  1  0  0  0  0
  2 26  1  0  0  0  0
  3  4  1  0  0  0  0
  3 27  1  0  0  0  0
  4 20  2  0  0  0  0
  4  5  1  0  0  0  0
  5  6  2  0  0  0  0
  5 28  1  0  0  0  0
  6  7  1  0  0  0  0
  7  8  1  0  0  0  0
  7 18  1  0  0  0  0
  8  9  1  0  0  0  0
  8 29  1  0  0  0  0
  8 30  1  0  0  0  0
  9 10  1  0  0  0  0
  9 31  1  0  0  0  0
  9 32  1  0  0  0  0
 10 11  1  0  0  0  0
 11 17  1  0  0  0  0
 11 12  2  0  0  0  0
 12 13  1  0  0  0  0
 12 33  1  0  0  0  0
 13 14  2  0  0  0  0
 13 34  1  0  0  0  0
 14 15  1  0  0  0  0
 14 16  1  0  0  0  0
 16 17  2  0  0  0  0
 16 35  1  0  0  0  0
 17 36  1  0  0  0  0
 18 19  2  0  0  0  0
 18 20  1  0  0  0  0
 20 21  1  0  0  0  0
M  END
> <s_m_source_file>
AV-unprocessed.smi

> <i_m_source_file_index>
353

> <i_lp_mmshare_version>
43012

> <i_f3d_flags>
0

> <s_epik_input>
W0NIM11bQ0gyXVtOSF1jMVtjSF1ubihjKD1PKWMxQ2wpW0NIMl1bQ0gyXU9jMltjSF1bY0hdYyhDbClbY0hdW2NIXTI=

> <s_epik_cmdline>
J2VwaWtfcHl0aG9uJywgJy1waCcsICc3LjAnLCAnLXRuJywgJzgnLCAnLW1hJywgJzIwMCcsICctbWV0YWxfYmluZGluZycsICctaW1hZScsICc8aW5maWxlLm1hZT4nLCAnLW9tYWUnLCAnPG91dGZpbGUubWFlPic=

> <r_lp_tautomer_probability>
1

> <r_epik_Ionization_Penalty>
1.47008e-05

> <r_epik_Ionization_Penalty_Charging>
1.08079e-09

> <r_epik_Ionization_Penalty_Neutral>
1.46998e-05

> <r_epik_State_Penalty>
-0

> <r_epik_Charging_Adjusted_Penalty>
1.08079e-09

> <i_epik_Tot_Q>
0

> <i_epik_Tot_abs_Q>
0

> <r_epik_Metal_State_Penalty>
-0

> <b_epik_Metal_Only>
0

> <s_lp_Force_Field>
OPLS_2005

> <r_lp_Energy>
29.5526

> <b_lp_Chiralities_Consistent>
1

> <s_lp_Variant>
AV-unprocessed.smi:353-1

> <Gold.Version>
5.8.1

> <Gold.Id.Protein>
6NUR|6NUR_protein|mol2

> <Gold.PLP.Fitness>
44.3203

> <Gold.PLP.PLP>
-39.2578

> <Gold.PLP.part.hbond>
-3.6198

> <Gold.PLP.part.metal>
0.0000

> <Gold.PLP.part.buried>
1.7208

> <Gold.PLP.part.nonpolar>
-36.5432

> <Gold.PLP.part.repulsive>
0.0739

> <Gold.PLP.ligand.clash>
1.6087

> <Gold.PLP.ligand.torsion>
0.5943

> <Gold.PLP.Chemscore.Hbond>
2.4245

> <Gold.PLP.Chemscore.CHOScore>
0.1857

> <Gold.PLP.Chemscore.Metal>
0.0000

> <Gold.Chemscore.Hbonds>
donor molecule, donor type, donor heavy atom, donor atom, acceptor molecule, acceptor atom, score
      P1  H  7989  7998       L1     6  0.51
      P1  H  7997  8009       L1    10  0.90
      P1  H 10752 10765       L1    19  0.81

> <Gold.PLP.Chemscore.Internal.Correction>
0.0291

> <Gold.Rescore>
     Score         DG    S(hbond)    S(metal)    S(lipo)     H(rot)  DE(clash)    DE(int)     intcor
     15.74     -18.98       1.05        0.00     121.28       1.64       1.52       1.72       ----

> <Gold.Chemscore.Fitness>
15.7396

> <Gold.Chemscore.DG>
-18.9784

> <Gold.Chemscore.ZeroCoef>
-5.4800

> <Gold.Chemscore.Hbond>
1.0488

> <Gold.Chemscore.Metal>
0.0000

> <Gold.Chemscore.Lipo>
121.2797

> <Gold.Chemscore.Internal_Hbond>
0.0000

> <Gold.Chemscore.DEClash>
1.5197

> <Gold.Chemscore.DEInternal>
1.7191

> <Gold.Chemscore.Rot>
1.6384

> <Gold.Chemscore.Internal.Correction>
   9.000000E+99

> <Gold.Chemscore.Hbonds>
donor molecule, donor type, donor heavy atom, donor atom, acceptor molecule, acceptor atom, score
      L1  H     3    27       P1  7948  0.01
      P1  H  7989  7998       L1     6  0.03
      P1  H  7997  8009       L1    10  0.10
      P1  H 10752 10765       L1    19  0.75

> <Gold.Chemscore.Hbond.Weighted>
-3.5030

> <Gold.Chemscore.Metal.Weighted>
-0.0000

> <Gold.Chemscore.Lipo.Weighted>
-14.1897

> <Gold.Chemscore.Internal_Hbond.Weighted>
0.0000

> <Gold.Chemscore.DEClash.Weighted>
1.5197

> <Gold.Chemscore.DEInternal.Weighted>
1.7191

> <Gold.Chemscore.Rot.Weighted>
4.1943

> <Gold.Chemscore.Internal.Correction.Weighted>
   9.000000E+99

> <Gold.Protein.RotatedTorsions>
[ 6907 6896 6895 6894 ] final   28.02 input  -60.11 | X-H torsion
[ 7974 7965 7964 7962 ] final  -82.57 input  175.53 | X-H torsion
[ 8008 7997 7996 7995 ] final  127.83 input   59.86 | X-H torsion
[ 10167 10162 10161 10158 ] final  -21.06 input  -65.29 | X-H torsion
[ 10718 10713 10712 10709 ] final   30.33 input   66.30 | X-H torsion
[ 10763 10752 10751 10750 ] final -153.96 input  -60.55 | X-H torsion
[ 11005 11000 10999 10996 ] final  -25.11 input  -57.11 | X-H torsion

> <Gold.Protein.ActiveResidues>
 VAL166  LYS551  ARG553  GLY616  TRP617  ASP618  TYR619  PRO620  LYS621  CYS622 
 ASP623  PHE694  ASN695  SER759  ASP760  ASP761  ALA762  ILE779  LEU786  VAL792 
 PHE793  MET794  SER795  GLU796  ALA797  LYS798  CYS799  TRP800  GLU811  SER814 

> <Gold.Protein.RotatedAtoms>
  152.0108  134.9877  160.0567 H   0  0  0  0  0  0  0  0  0  0  0  0  # atno 6907 bound_to 6896
  152.1430  133.4471  159.4784 H   0  0  0  0  0  0  0  0  0  0  0  0  # atno 6908 bound_to 6896
  150.6867  134.2200  159.4436 H   0  0  0  0  0  0  0  0  0  0  0  0  # atno 6909 bound_to 6896
  145.5315  140.9520  143.1600 H   0  0  0  0  0  0  0  0  0  0  0  0  # atno 7974 bound_to 7965
  156.2900  140.2659  156.2337 H   0  0  0  0  0  0  0  0  0  0  0  0  # atno 8008 bound_to 7997
  155.0047  140.0387  157.2393 H   0  0  0  0  0  0  0  0  0  0  0  0  # atno 8009 bound_to 7997
  154.7571  140.2754  155.6249 H   0  0  0  0  0  0  0  0  0  0  0  0  # atno 8010 bound_to 7997
  140.7280  143.4664  151.0308 H   0  0  0  0  0  0  0  0  0  0  0  0  # atno 10167 bound_to 10162
  157.2582  130.7148  149.6440 H   0  0  0  0  0  0  0  0  0  0  0  0  # atno 10718 bound_to 10713
  154.7892  135.3201  154.7816 H   0  0  0  0  0  0  0  0  0  0  0  0  # atno 10763 bound_to 10752
  153.8509  135.6862  153.4797 H   0  0  0  0  0  0  0  0  0  0  0  0  # atno 10764 bound_to 10752
  153.1555  135.4682  154.9638 H   0  0  0  0  0  0  0  0  0  0  0  0  # atno 10765 bound_to 10752
  140.8907  133.7590  156.0418 H   0  0  0  0  0  0  0  0  0  0  0  0  # atno 11005 bound_to 11000
  144.7623  139.6927  143.7229 LP  0  0  0  0  0  0  0  0  0  0  0  0  # atno 17320 bound_to 7965
  146.2041  139.5353  142.9724 LP  0  0  0  0  0  0  0  0  0  0  0  0  # atno 17321 bound_to 7965
  139.8352  143.7637  152.3180 LP  0  0  0  0  0  0  0  0  0  0  0  0  # atno 17342 bound_to 10162
  139.7767  144.7458  151.0147 LP  0  0  0  0  0  0  0  0  0  0  0  0  # atno 17343 bound_to 10162
  155.9664  130.4406  150.5305 LP  0  0  0  0  0  0  0  0  0  0  0  0  # atno 17370 bound_to 10713
  157.3204  131.0681  151.1936 LP  0  0  0  0  0  0  0  0  0  0  0  0  # atno 17371 bound_to 10713
  140.8350  134.3134  157.5335 LP  0  0  0  0  0  0  0  0  0  0  0  0  # atno 17394 bound_to 11000
  139.8729  134.9384  156.3714 LP  0  0  0  0  0  0  0  0  0  0  0  0  # atno 17395 bound_to 11000

$$$$
