AV-unprocessed.smi:813|AV-procd|sdf|3817|dock9
  -GOLD-   22720 1253D 1   1.00000     0.00000
 Structure written by MMmdl.
 36 37  0  0  0  0  0  0  0  0  1 V2000
  148.4406  141.8003  154.2301 C   0  0  0  0  0  0  0  0  0  0  0  0
  148.6557  141.4114  155.7021 C   0  0  2  0  0  0  0  0  0  0  0  0
  147.7910  142.2555  156.5260 N   0  0  0  0  0  0  0  0  0  0  0  0
  147.3255  141.9330  157.7423 C   0  0  0  0  0  0  0  0  0  0  0  0
  147.5560  140.8560  158.2930 O   0  0  0  0  0  0  0  0  0  0  0  0
  146.5933  142.9332  158.2630 N   0  0  0  0  0  0  0  0  0  0  0  0
  145.9521  142.9886  159.5288 C   0  0  0  0  0  0  0  0  0  0  0  0
  146.5358  142.6096  160.6767 N   0  0  0  0  0  0  0  0  0  0  0  0
  145.6896  142.7678  161.7668 N   0  0  0  0  0  0  0  0  0  0  0  0
  144.5030  143.2590  161.3986 C   0  0  0  0  0  0  0  0  0  0  0  0
  144.3024  143.5756  159.6838 S   0  0  0  0  0  0  0  0  0  0  0  0
  150.1350  141.6432  156.0501 C   0  0  0  0  0  0  0  0  0  0  0  0
  151.0235  141.0232  155.4629 O   0  0  0  0  0  0  0  0  0  0  0  0
  150.3799  142.5369  157.0200 N   0  0  0  0  0  0  0  0  0  0  0  0
  151.7076  142.9228  157.4885 C   0  0  0  0  0  0  0  0  0  0  0  0
  151.8769  142.5768  158.9787 C   0  0  0  0  0  0  0  0  0  0  0  0
  151.8316  143.9096  159.7260 C   0  0  0  0  0  0  0  0  0  0  0  0
  152.4339  144.9071  158.7416 C   0  0  0  0  0  0  0  0  0  0  0  0
  151.9261  144.4459  157.3741 C   0  0  0  0  0  0  0  0  0  0  0  0
  149.0654  141.2014  153.5661 H   0  0  0  0  0  0  0  0  0  0  0  0
  148.6736  142.8508  154.0487 H   0  0  0  0  0  0  0  0  0  0  0  0
  147.4043  141.6367  153.9327 H   0  0  0  0  0  0  0  0  0  0  0  0
  148.3946  140.3608  155.8454 H   0  0  0  0  0  0  0  0  0  0  0  0
  147.5563  143.1628  156.1513 H   0  0  0  0  0  0  0  0  0  0  0  0
  146.4936  143.7591  157.6917 H   0  0  0  0  0  0  0  0  0  0  0  0
  143.7402  143.4368  162.1423 H   0  0  0  0  0  0  0  0  0  0  0  0
  149.5918  142.9983  157.4505 H   0  0  0  0  0  0  0  0  0  0  0  0
  152.4678  142.3876  156.9160 H   0  0  0  0  0  0  0  0  0  0  0  0
  151.1314  141.8717  159.3488 H   0  0  0  0  0  0  0  0  0  0  0  0
  152.8542  142.1165  159.1303 H   0  0  0  0  0  0  0  0  0  0  0  0
  150.7956  144.1794  159.9358 H   0  0  0  0  0  0  0  0  0  0  0  0
  152.3680  143.8781  160.6746 H   0  0  0  0  0  0  0  0  0  0  0  0
  152.1579  145.9378  158.9657 H   0  0  0  0  0  0  0  0  0  0  0  0
  153.5221  144.8395  158.7713 H   0  0  0  0  0  0  0  0  0  0  0  0
  152.6222  144.7015  156.5747 H   0  0  0  0  0  0  0  0  0  0  0  0
  150.9860  144.9548  157.1547 H   0  0  0  0  0  0  0  0  0  0  0  0
  1  2  1  0  0  0  0
  1 20  1  0  0  0  0
  1 21  1  0  0  0  0
  1 22  1  0  0  0  0
  2  3  1  0  0  0  0
  2 12  1  0  0  0  0
  2 23  1  0  0  0  0
  3  4  1  0  0  0  0
  3 24  1  0  0  0  0
  4  5  2  0  0  0  0
  4  6  1  0  0  0  0
  6  7  1  0  0  0  0
  6 25  1  0  0  0  0
  7 11  1  0  0  0  0
  7  8  2  0  0  0  0
  8  9  1  0  0  0  0
  9 10  2  0  0  0  0
 10 11  1  0  0  0  0
 10 26  1  0  0  0  0
 12 13  2  0  0  0  0
 12 14  1  0  0  0  0
 14 15  1  0  0  0  0
 14 27  1  0  0  0  0
 15 19  1  0  0  0  0
 15 16  1  0  0  0  0
 15 28  1  0  0  0  0
 16 17  1  0  0  0  0
 16 29  1  0  0  0  0
 16 30  1  0  0  0  0
 17 18  1  0  0  0  0
 17 31  1  0  0  0  0
 17 32  1  0  0  0  0
 18 19  1  0  0  0  0
 18 33  1  0  0  0  0
 18 34  1  0  0  0  0
 19 35  1  0  0  0  0
 19 36  1  0  0  0  0
M  END
> <s_m_source_file>
AV-unprocessed.smi

> <i_m_source_file_index>
813

> <i_lp_mmshare_version>
43012

> <i_f3d_flags>
0

> <s_epik_input>
W0NIMl0xW0NIMl1bQ0gyXVtDSDJdW0NIXTFbTkhdQyg9TylbQ0BIXShbQ0gzXSlbTkhdQyg9TylbTkhdYzJubltjSF1zMg==

> <s_epik_cmdline>
J2VwaWtfcHl0aG9uJywgJy1waCcsICc3LjAnLCAnLXRuJywgJzgnLCAnLW1hJywgJzIwMCcsICctbWV0YWxfYmluZGluZycsICctaW1hZScsICc8aW5maWxlLm1hZT4nLCAnLW9tYWUnLCAnPG91dGZpbGUubWFlPic=

> <r_lp_tautomer_probability>
1

> <r_epik_Ionization_Penalty>
0.00321247

> <r_epik_Ionization_Penalty_Charging>
0

> <r_epik_Ionization_Penalty_Neutral>
0.00321247

> <r_epik_State_Penalty>
-0

> <r_epik_Charging_Adjusted_Penalty>
0

> <i_epik_Tot_Q>
0

> <i_epik_Tot_abs_Q>
0

> <r_epik_Metal_State_Penalty>
0.363968

> <b_epik_Metal_Only>
0

> <s_lp_Force_Field>
OPLS_2005

> <r_lp_Energy>
16.3209

> <b_lp_Chiralities_Consistent>
1

> <s_lp_Variant>
AV-unprocessed.smi:813-1

> <Gold.Version>
5.8.1

> <Gold.Id.Protein>
6NUR|6NUR_protein|mol2

> <Gold.PLP.Fitness>
41.5340

> <Gold.PLP.PLP>
-35.1157

> <Gold.PLP.part.hbond>
-6.1567

> <Gold.PLP.part.metal>
0.0000

> <Gold.PLP.part.buried>
-3.1714

> <Gold.PLP.part.nonpolar>
-24.2335

> <Gold.PLP.part.repulsive>
0.1690

> <Gold.PLP.ligand.clash>
0.0000

> <Gold.PLP.ligand.torsion>
0.7458

> <Gold.PLP.Chemscore.Hbond>
2.6309

> <Gold.PLP.Chemscore.CHOScore>
0.0000

> <Gold.PLP.Chemscore.Metal>
0.0000

> <Gold.Chemscore.Hbonds>
donor molecule, donor type, donor heavy atom, donor atom, acceptor molecule, acceptor atom, score
      L1  H     3    24       P1  8028  0.36
      P1  H  6933  6944       L1     8  0.61
      P1  H  6934  6946       L1     8  1.00
      P1  H  7989  7998       L1    13  0.64

> <Gold.PLP.Chemscore.Internal.Correction>
0.0173

> <Gold.Rescore>
     Score         DG    S(hbond)    S(metal)    S(lipo)     H(rot)  DE(clash)    DE(int)     intcor
     14.73     -15.58       1.50        0.00      81.79       1.74       0.15       0.71       ----

> <Gold.Chemscore.Fitness>
14.7297

> <Gold.Chemscore.DG>
-15.5831

> <Gold.Chemscore.ZeroCoef>
-5.4800

> <Gold.Chemscore.Hbond>
1.4960

> <Gold.Chemscore.Metal>
0.0000

> <Gold.Chemscore.Lipo>
81.7877

> <Gold.Chemscore.Internal_Hbond>
0.0000

> <Gold.Chemscore.DEClash>
0.1475

> <Gold.Chemscore.DEInternal>
0.7059

> <Gold.Chemscore.Rot>
1.7433

> <Gold.Chemscore.Internal.Correction>
   9.000000E+99

> <Gold.Chemscore.Hbonds>
donor molecule, donor type, donor heavy atom, donor atom, acceptor molecule, acceptor atom, score
      L1  H     3    24       P1  8028  0.04
      P1  H  6933  6944       L1     8  0.36
      P1  H  6934  6946       L1     8  0.29
      P1  H  7989  7998       L1    13  0.59

> <Gold.Chemscore.Hbond.Weighted>
-4.9967

> <Gold.Chemscore.Metal.Weighted>
-0.0000

> <Gold.Chemscore.Lipo.Weighted>
-9.5692

> <Gold.Chemscore.Internal_Hbond.Weighted>
0.0000

> <Gold.Chemscore.DEClash.Weighted>
0.1475

> <Gold.Chemscore.DEInternal.Weighted>
0.7059

> <Gold.Chemscore.Rot.Weighted>
4.4628

> <Gold.Chemscore.Internal.Correction.Weighted>
   9.000000E+99

> <Gold.Protein.RotatedTorsions>
[ 6907 6896 6895 6894 ] final   78.25 input  -60.11 | X-H torsion
[ 7974 7965 7964 7962 ] final   58.47 input  175.53 | X-H torsion
[ 8008 7997 7996 7995 ] final  -34.44 input   59.86 | X-H torsion
[ 10167 10162 10161 10158 ] final  -30.29 input  -65.29 | X-H torsion
[ 10718 10713 10712 10709 ] final  169.37 input   66.30 | X-H torsion
[ 10763 10752 10751 10750 ] final  160.19 input  -60.55 | X-H torsion
[ 11005 11000 10999 10996 ] final -133.97 input  -57.11 | X-H torsion

> <Gold.Protein.ActiveResidues>
 VAL166  LYS551  ARG553  GLY616  TRP617  ASP618  TYR619  PRO620  LYS621  CYS622 
 ASP623  PHE694  ASN695  SER759  ASP760  ASP761  ALA762  ILE779  LEU786  VAL792 
 PHE793  MET794  SER795  GLU796  ALA797  LYS798  CYS799  TRP800  GLU811  SER814 

> <Gold.Protein.RotatedAtoms>
  152.5151  134.3693  159.9312 H   0  0  0  0  0  0  0  0  0  0  0  0  # atno 6907 bound_to 6896
  151.3647  133.3870  159.2701 H   0  0  0  0  0  0  0  0  0  0  0  0  # atno 6908 bound_to 6896
  150.9624  134.9029  159.7797 H   0  0  0  0  0  0  0  0  0  0  0  0  # atno 6909 bound_to 6896
  145.9178  139.3705  143.0496 H   0  0  0  0  0  0  0  0  0  0  0  0  # atno 7974 bound_to 7965
  154.4121  140.1684  156.2049 H   0  0  0  0  0  0  0  0  0  0  0  0  # atno 8008 bound_to 7997
  155.9492  140.3402  155.6370 H   0  0  0  0  0  0  0  0  0  0  0  0  # atno 8009 bound_to 7997
  155.6891  140.0731  157.2446 H   0  0  0  0  0  0  0  0  0  0  0  0  # atno 8010 bound_to 7997
  140.7251  143.3860  151.1514 H   0  0  0  0  0  0  0  0  0  0  0  0  # atno 10167 bound_to 10162
  157.0236  131.0239  151.2767 H   0  0  0  0  0  0  0  0  0  0  0  0  # atno 10718 bound_to 10713
  154.2435  135.2774  155.2844 H   0  0  0  0  0  0  0  0  0  0  0  0  # atno 10763 bound_to 10752
  154.5525  135.5671  153.6938 H   0  0  0  0  0  0  0  0  0  0  0  0  # atno 10764 bound_to 10752
  152.9995  135.6278  154.2580 H   0  0  0  0  0  0  0  0  0  0  0  0  # atno 10765 bound_to 10752
  140.9032  134.1663  157.4445 H   0  0  0  0  0  0  0  0  0  0  0  0  # atno 11005 bound_to 11000
  145.8588  140.9487  143.0711 LP  0  0  0  0  0  0  0  0  0  0  0  0  # atno 17320 bound_to 7965
  144.6749  140.0504  143.7479 LP  0  0  0  0  0  0  0  0  0  0  0  0  # atno 17321 bound_to 7965
  139.7458  143.8855  152.3063 LP  0  0  0  0  0  0  0  0  0  0  0  0  # atno 17342 bound_to 10162
  139.8691  144.7077  150.9008 LP  0  0  0  0  0  0  0  0  0  0  0  0  # atno 17343 bound_to 10162
  157.5231  130.8011  149.7831 LP  0  0  0  0  0  0  0  0  0  0  0  0  # atno 17370 bound_to 10713
  156.0094  130.3840  150.2318 LP  0  0  0  0  0  0  0  0  0  0  0  0  # atno 17371 bound_to 10713
  139.8745  134.9906  156.5512 LP  0  0  0  0  0  0  0  0  0  0  0  0  # atno 17394 bound_to 11000
  140.8203  133.8359  155.8890 LP  0  0  0  0  0  0  0  0  0  0  0  0  # atno 17395 bound_to 11000

$$$$
