AV-unprocessed.smi:1005|AV-procd|sdf|4362|dock2
  -GOLD-   22720 2263D 1   1.00000     0.00000
 Structure written by MMmdl.
 56 58  0  0  0  0  0  0  0  0  2 V2000
  153.3334  142.1680  161.8244 C   0  0  0  0  0  0  0  0  0  0  0  0
  152.7212  141.9555  160.4510 C   0  0  0  0  0  0  0  0  0  0  0  0
  153.1115  140.8294  159.6913 C   0  0  0  0  0  0  0  0  0  0  0  0
  152.5675  140.5968  158.4090 C   0  0  0  0  0  0  0  0  0  0  0  0
  152.8022  139.5758  157.5039 N   0  0  0  0  0  0  0  0  0  0  0  0
  152.0010  139.9185  156.4994 C   0  0  0  0  0  0  0  0  0  0  0  0
  151.2690  141.0392  156.6497 N   0  0  0  0  0  0  0  0  0  0  0  0
  150.3301  141.6097  155.7000 C   0  0  0  0  0  0  0  0  0  0  0  0
  149.6016  140.5337  154.8710 C   0  0  2  0  0  0  0  0  0  0  0  0
  150.4906  140.0543  153.8795 O   0  0  0  0  0  0  0  0  0  0  0  0
  148.3355  141.0951  154.1899 C   0  0  0  0  0  0  0  0  0  0  0  0
  147.4128  140.0914  153.6574 N   0  0  0  0  0  0  0  0  0  0  0  0
  147.6560  139.8623  152.2376 C   0  0  0  0  0  0  0  0  0  0  0  0
  146.7015  138.8074  151.6547 C   0  0  0  0  0  0  0  0  0  0  0  0
  146.8252  137.5975  152.3949 O   0  0  0  0  0  0  0  0  0  0  0  0
  146.5384  137.7608  153.7818 C   0  0  1  0  0  0  0  0  0  0  0  0
  146.7069  136.3951  154.4712 C   0  0  0  0  0  0  0  0  0  0  0  0
  148.0031  135.7461  154.1484 N   0  3  0  0  0  0  0  0  0  0  0  0
  147.9173  134.2700  154.0583 C   0  0  0  0  0  0  0  0  0  0  0  0
  149.0819  136.1716  155.0673 C   0  0  0  0  0  0  0  0  0  0  0  0
  147.4996  138.8162  154.3648 C   0  0  0  0  0  0  0  0  0  0  0  0
  151.6142  141.5289  157.9043 C   0  0  0  0  0  0  0  0  0  0  0  0
  151.2171  142.6523  158.6505 C   0  0  0  0  0  0  0  0  0  0  0  0
  151.7703  142.8695  159.9298 C   0  0  0  0  0  0  0  0  0  0  0  0
  151.3355  144.0862  160.7277 C   0  0  0  0  0  0  0  0  0  0  0  0
  154.0694  141.3974  162.0562 H   0  0  0  0  0  0  0  0  0  0  0  0
  152.5623  142.1374  162.5948 H   0  0  0  0  0  0  0  0  0  0  0  0
  153.8355  143.1347  161.8743 H   0  0  0  0  0  0  0  0  0  0  0  0
  153.8351  140.1326  160.0880 H   0  0  0  0  0  0  0  0  0  0  0  0
  151.9384  139.3178  155.6035 H   0  0  0  0  0  0  0  0  0  0  0  0
  149.6095  142.2084  156.2586 H   0  0  0  0  0  0  0  0  0  0  0  0
  150.8672  142.2984  155.0456 H   0  0  0  0  0  0  0  0  0  0  0  0
  149.3305  139.7069  155.5291 H   0  0  0  0  0  0  0  0  0  0  0  0
  150.0066  139.9377  153.0760 H   0  0  0  0  0  0  0  0  0  0  0  0
  147.7923  141.6688  154.9420 H   0  0  0  0  0  0  0  0  0  0  0  0
  148.6054  141.8173  153.4174 H   0  0  0  0  0  0  0  0  0  0  0  0
  147.5396  140.7960  151.6858 H   0  0  0  0  0  0  0  0  0  0  0  0
  148.6867  139.5374  152.0861 H   0  0  0  0  0  0  0  0  0  0  0  0
  145.6691  139.1592  151.6861 H   0  0  0  0  0  0  0  0  0  0  0  0
  146.9431  138.6132  150.6095 H   0  0  0  0  0  0  0  0  0  0  0  0
  145.5154  138.1201  153.8986 H   0  0  0  0  0  0  0  0  0  0  0  0
  146.6359  136.5474  155.5494 H   0  0  0  0  0  0  0  0  0  0  0  0
  145.8889  135.7253  154.2017 H   0  0  0  0  0  0  0  0  0  0  0  0
  147.6035  133.8377  155.0095 H   0  0  0  0  0  0  0  0  0  0  0  0
  148.8876  133.8458  153.7981 H   0  0  0  0  0  0  0  0  0  0  0  0
  147.2129  133.9541  153.2898 H   0  0  0  0  0  0  0  0  0  0  0  0
  148.8654  135.8664  156.0921 H   0  0  0  0  0  0  0  0  0  0  0  0
  149.2018  137.2554  155.0501 H   0  0  0  0  0  0  0  0  0  0  0  0
  150.0356  135.7318  154.7736 H   0  0  0  0  0  0  0  0  0  0  0  0
  148.5238  138.4415  154.3239 H   0  0  0  0  0  0  0  0  0  0  0  0
  147.2599  138.9567  155.4185 H   0  0  0  0  0  0  0  0  0  0  0  0
  150.4929  143.3407  158.2405 H   0  0  0  0  0  0  0  0  0  0  0  0
  150.5629  144.6502  160.2041 H   0  0  0  0  0  0  0  0  0  0  0  0
  152.1815  144.7531  160.8958 H   0  0  0  0  0  0  0  0  0  0  0  0
  150.9320  143.7866  161.6951 H   0  0  0  0  0  0  0  0  0  0  0  0
  148.2690  136.0816  153.2330 H   0  0  0  0  0  0  0  0  0  0  0  0
  1  2  1  0  0  0  0
  1 26  1  0  0  0  0
  1 27  1  0  0  0  0
  1 28  1  0  0  0  0
  2 24  1  0  0  0  0
  2  3  2  0  0  0  0
  3  4  1  0  0  0  0
  3 29  1  0  0  0  0
  4 22  2  0  0  0  0
  4  5  1  0  0  0  0
  5  6  2  0  0  0  0
  6  7  1  0  0  0  0
  6 30  1  0  0  0  0
  7  8  1  0  0  0  0
  7 22  1  0  0  0  0
  8  9  1  0  0  0  0
  8 31  1  0  0  0  0
  8 32  1  0  0  0  0
  9 10  1  0  0  0  0
  9 11  1  0  0  0  0
  9 33  1  0  0  0  0
 10 34  1  0  0  0  0
 11 12  1  0  0  0  0
 11 35  1  0  0  0  0
 11 36  1  0  0  0  0
 12 21  1  0  0  0  0
 12 13  1  0  0  0  0
 13 14  1  0  0  0  0
 13 37  1  0  0  0  0
 13 38  1  0  0  0  0
 14 15  1  0  0  0  0
 14 39  1  0  0  0  0
 14 40  1  0  0  0  0
 15 16  1  0  0  0  0
 16 17  1  0  0  0  0
 16 21  1  0  0  0  0
 16 41  1  0  0  0  0
 17 18  1  0  0  0  0
 17 42  1  0  0  0  0
 17 43  1  0  0  0  0
 18 19  1  0  0  0  0
 18 20  1  0  0  0  0
 18 56  1  0  0  0  0
 19 44  1  0  0  0  0
 19 45  1  0  0  0  0
 19 46  1  0  0  0  0
 20 47  1  0  0  0  0
 20 48  1  0  0  0  0
 20 49  1  0  0  0  0
 21 50  1  0  0  0  0
 21 51  1  0  0  0  0
 22 23  1  0  0  0  0
 23 24  2  0  0  0  0
 23 52  1  0  0  0  0
 24 25  1  0  0  0  0
 25 53  1  0  0  0  0
 25 54  1  0  0  0  0
 25 55  1  0  0  0  0
M  CHG  1  18   1
M  END
> <s_m_source_file>
AV-unprocessed.smi

> <i_m_source_file_index>
1005

> <i_lp_mmshare_version>
43012

> <i_f3d_flags>
0

> <s_epik_input>
W0NIM11jKFtjSF0xKWMoW0NIM10pW2NIXWMoYzEyKW4oW2NIXW4yKVtDSDJdW0NASF0oW09IXSlbQ0gyXU4zW0NIMl1bQ0gyXU9bQ0BIXShbQ0gyXTMpW0NIMl1OKFtDSDNdKVtDSDNd

> <s_epik_cmdline>
J2VwaWtfcHl0aG9uJywgJy1waCcsICc3LjAnLCAnLXRuJywgJzgnLCAnLW1hJywgJzIwMCcsICctbWV0YWxfYmluZGluZycsICctaW1hZScsICc8aW5maWxlLm1hZT4nLCAnLW9tYWUnLCAnPG91dGZpbGUubWFlPic=

> <r_epik_Ionization_Penalty>
0.226781

> <r_epik_Ionization_Penalty_Charging>
0.00915946

> <r_epik_Ionization_Penalty_Neutral>
0.217622

> <r_epik_State_Penalty>
0.173018

> <r_epik_Charging_Adjusted_Penalty>
0.182178

> <i_epik_Tot_Q>
1

> <i_epik_Tot_abs_Q>
1

> <r_epik_Metal_State_Penalty>
0.0905268

> <b_epik_Metal_Only>
0

> <s_lp_Force_Field>
OPLS_2005

> <r_lp_Energy>
36.5786

> <b_lp_Chiralities_Consistent>
1

> <s_lp_Variant>
AV-unprocessed.smi:1005-1

> <Gold.Version>
5.8.1

> <Gold.Id.Protein>
6NUR|6NUR_protein|mol2

> <Gold.PLP.Fitness>
55.6096

> <Gold.PLP.PLP>
-43.6104

> <Gold.PLP.part.hbond>
-3.8740

> <Gold.PLP.part.metal>
0.0000

> <Gold.PLP.part.buried>
-0.1694

> <Gold.PLP.part.nonpolar>
-40.7930

> <Gold.PLP.part.repulsive>
2.3001

> <Gold.PLP.ligand.clash>
0.0000

> <Gold.PLP.ligand.torsion>
1.4991

> <Gold.PLP.Chemscore.Hbond>
4.9760

> <Gold.PLP.Chemscore.CHOScore>
0.0000

> <Gold.PLP.Chemscore.Metal>
0.0000

> <Gold.Chemscore.Hbonds>
donor molecule, donor type, donor heavy atom, donor atom, acceptor molecule, acceptor atom, score
      L1  H    10    34       P1  7957  1.00
      L1  H    18    56       P1  7948  2.00
      P1  H  7989  7998       L1    10  0.78
      P1  H  7997  8009       L1     5  0.95

> <Gold.PLP.Chemscore.Internal.Correction>
0.0695

> <Gold.Rescore>
     Score         DG    S(hbond)    S(metal)    S(lipo)     H(rot)  DE(clash)    DE(int)     intcor
     20.00     -25.76       3.27        0.00     132.89       2.41       3.27       2.50       ----

> <Gold.Chemscore.Fitness>
20.0001

> <Gold.Chemscore.DG>
-25.7646

> <Gold.Chemscore.ZeroCoef>
-5.4800

> <Gold.Chemscore.Hbond>
3.2682

> <Gold.Chemscore.Metal>
0.0000

> <Gold.Chemscore.Lipo>
132.8856

> <Gold.Chemscore.Internal_Hbond>
0.0000

> <Gold.Chemscore.DEClash>
3.2691

> <Gold.Chemscore.DEInternal>
2.4955

> <Gold.Chemscore.Rot>
2.4136

> <Gold.Chemscore.Internal.Correction>
   9.000000E+99

> <Gold.Chemscore.Hbonds>
donor molecule, donor type, donor heavy atom, donor atom, acceptor molecule, acceptor atom, score
      L1  H    10    34       P1  7957  0.98
      L1  H    18    56       P1  7948  0.93
      P1  H  7989  7998       L1    10  0.28
      P1  H  7997  8009       L1     5  0.07

> <Gold.Chemscore.Hbond.Weighted>
-10.9158

> <Gold.Chemscore.Metal.Weighted>
-0.0000

> <Gold.Chemscore.Lipo.Weighted>
-15.5476

> <Gold.Chemscore.Internal_Hbond.Weighted>
0.0000

> <Gold.Chemscore.DEClash.Weighted>
3.2691

> <Gold.Chemscore.DEInternal.Weighted>
2.4955

> <Gold.Chemscore.Rot.Weighted>
6.1788

> <Gold.Chemscore.Internal.Correction.Weighted>
   9.000000E+99

> <Gold.Protein.RotatedTorsions>
[ 6907 6896 6895 6894 ] final  133.55 input  -60.11 | X-H torsion
[ 7974 7965 7964 7962 ] final   49.67 input  175.53 | X-H torsion
[ 8008 7997 7996 7995 ] final  172.96 input   59.86 | X-H torsion
[ 10167 10162 10161 10158 ] final  136.28 input  -65.29 | X-H torsion
[ 10718 10713 10712 10709 ] final  171.89 input   66.30 | X-H torsion
[ 10763 10752 10751 10750 ] final -137.94 input  -60.55 | X-H torsion
[ 11005 11000 10999 10996 ] final   26.37 input  -57.11 | X-H torsion

> <Gold.Protein.ActiveResidues>
 VAL166  LYS551  ARG553  GLY616  TRP617  ASP618  TYR619  PRO620  LYS621  CYS622 
 ASP623  PHE694  ASN695  SER759  ASP760  ASP761  ALA762  ILE779  LEU786  VAL792 
 PHE793  MET794  SER795  GLU796  ALA797  LYS798  CYS799  TRP800  GLU811  SER814 

> <Gold.Protein.RotatedAtoms>
  152.3208  133.5851  159.5742 H   0  0  0  0  0  0  0  0  0  0  0  0  # atno 6907 bound_to 6896
  150.7370  134.0014  159.3648 H   0  0  0  0  0  0  0  0  0  0  0  0  # atno 6908 bound_to 6896
  151.7899  135.0739  160.0436 H   0  0  0  0  0  0  0  0  0  0  0  0  # atno 6909 bound_to 6896
  146.0087  139.4519  142.9970 H   0  0  0  0  0  0  0  0  0  0  0  0  # atno 7974 bound_to 7965
  156.1123  140.1472  156.9321 H   0  0  0  0  0  0  0  0  0  0  0  0  # atno 8008 bound_to 7997
  154.4776  140.0889  156.7342 H   0  0  0  0  0  0  0  0  0  0  0  0  # atno 8009 bound_to 7997
  155.4574  140.3437  155.4310 H   0  0  0  0  0  0  0  0  0  0  0  0  # atno 8010 bound_to 7997
  139.5185  144.6473  151.5404 H   0  0  0  0  0  0  0  0  0  0  0  0  # atno 10167 bound_to 10162
  156.9869  131.0136  151.2867 H   0  0  0  0  0  0  0  0  0  0  0  0  # atno 10718 bound_to 10713
  154.8649  135.3627  154.5305 H   0  0  0  0  0  0  0  0  0  0  0  0  # atno 10763 bound_to 10752
  153.5931  135.7015  153.5420 H   0  0  0  0  0  0  0  0  0  0  0  0  # atno 10764 bound_to 10752
  153.3356  135.4112  155.1492 H   0  0  0  0  0  0  0  0  0  0  0  0  # atno 10765 bound_to 10752
  140.3378  134.2367  155.7694 H   0  0  0  0  0  0  0  0  0  0  0  0  # atno 11005 bound_to 11000
  145.7376  141.0020  143.1318 LP  0  0  0  0  0  0  0  0  0  0  0  0  # atno 17320 bound_to 7965
  144.6945  139.9060  143.7461 LP  0  0  0  0  0  0  0  0  0  0  0  0  # atno 17321 bound_to 7965
  140.6263  143.9163  150.6567 LP  0  0  0  0  0  0  0  0  0  0  0  0  # atno 17342 bound_to 10162
  140.2452  143.3633  152.1452 LP  0  0  0  0  0  0  0  0  0  0  0  0  # atno 17343 bound_to 10162
  157.5486  130.8167  149.8117 LP  0  0  0  0  0  0  0  0  0  0  0  0  # atno 17370 bound_to 10713
  156.0222  130.3791  150.1928 LP  0  0  0  0  0  0  0  0  0  0  0  0  # atno 17371 bound_to 10713
  141.2047  133.7880  157.0275 LP  0  0  0  0  0  0  0  0  0  0  0  0  # atno 17394 bound_to 11000
  140.0807  134.9650  157.1619 LP  0  0  0  0  0  0  0  0  0  0  0  0  # atno 17395 bound_to 11000

$$$$
