AV-unprocessed.smi:486|AV-procd|sdf|2696|dock1
  -GOLD-   2262023133D 1   1.00000     0.00000
 Structure written by MMmdl.
 43 45  0  0  0  0  0  0  0  0  1 V2000
  148.4524  141.2816  153.6251 C   0  0  0  0  0  0  0  0  0  0  0  0
  149.6567  140.5743  153.3678 O   0  0  0  0  0  0  0  0  0  0  0  0
  150.4689  140.2657  154.4380 C   0  0  0  0  0  0  0  0  0  0  0  0
  151.2470  139.0958  154.3365 C   0  0  0  0  0  0  0  0  0  0  0  0
  152.1033  138.7069  155.3837 C   0  0  0  0  0  0  0  0  0  0  0  0
  152.2032  139.4784  156.5577 C   0  0  0  0  0  0  0  0  0  0  0  0
  153.0651  139.0250  157.5334 O   0  0  0  0  0  0  0  0  0  0  0  0
  152.7599  139.3210  158.8897 C   0  0  0  0  0  0  0  0  0  0  0  0
  153.9950  139.0136  159.7560 C   0  0  1  0  0  0  0  0  0  0  0  0
  154.7974  138.0772  159.0674 O   0  0  0  0  0  0  0  0  0  0  0  0
  154.8851  140.2419  160.0429 C   0  0  0  0  0  0  0  0  0  0  0  0
  154.1786  141.3226  160.7173 N   0  0  0  0  0  0  0  0  0  0  0  0
  154.1560  141.6048  162.0432 C   0  0  0  0  0  0  0  0  0  0  0  0
  154.9120  140.7842  163.0396 C   0  0  0  0  0  0  0  0  0  0  0  0
  153.4220  142.6583  162.4014 N   0  0  0  0  0  0  0  0  0  0  0  0
  152.9250  143.1066  161.1928 C   0  0  0  0  0  0  0  0  0  0  0  0
  152.0729  144.1945  160.8966 C   0  0  0  0  0  0  0  0  0  0  0  0
  151.6912  144.4606  159.5653 C   0  0  0  0  0  0  0  0  0  0  0  0
  152.1569  143.6466  158.5126 C   0  0  0  0  0  0  0  0  0  0  0  0
  153.0075  142.5581  158.7854 C   0  0  0  0  0  0  0  0  0  0  0  0
  153.3836  142.2950  160.1166 C   0  0  0  0  0  0  0  0  0  0  0  0
  151.4225  140.6559  156.6649 C   0  0  0  0  0  0  0  0  0  0  0  0
  150.5652  141.0451  155.6171 C   0  0  0  0  0  0  0  0  0  0  0  0
  147.9245  141.4456  152.6858 H   0  0  0  0  0  0  0  0  0  0  0  0
  148.6506  142.2591  154.0669 H   0  0  0  0  0  0  0  0  0  0  0  0
  147.7891  140.7162  154.2811 H   0  0  0  0  0  0  0  0  0  0  0  0
  151.1871  138.4888  153.4451 H   0  0  0  0  0  0  0  0  0  0  0  0
  152.6904  137.8057  155.2838 H   0  0  0  0  0  0  0  0  0  0  0  0
  152.4462  140.3589  159.0155 H   0  0  0  0  0  0  0  0  0  0  0  0
  151.9295  138.6812  159.1869 H   0  0  0  0  0  0  0  0  0  0  0  0
  153.6760  138.5706  160.6994 H   0  0  0  0  0  0  0  0  0  0  0  0
  154.6499  137.2238  159.4460 H   0  0  0  0  0  0  0  0  0  0  0  0
  155.7427  139.9537  160.6514 H   0  0  0  0  0  0  0  0  0  0  0  0
  155.2973  140.6308  159.1108 H   0  0  0  0  0  0  0  0  0  0  0  0
  154.7795  141.1863  164.0445 H   0  0  0  0  0  0  0  0  0  0  0  0
  155.9771  140.7921  162.8072 H   0  0  0  0  0  0  0  0  0  0  0  0
  154.5549  139.7549  163.0349 H   0  0  0  0  0  0  0  0  0  0  0  0
  151.7115  144.8245  161.6959 H   0  0  0  0  0  0  0  0  0  0  0  0
  151.0376  145.2934  159.3509 H   0  0  0  0  0  0  0  0  0  0  0  0
  151.8598  143.8573  157.4956 H   0  0  0  0  0  0  0  0  0  0  0  0
  153.3624  141.9307  157.9815 H   0  0  0  0  0  0  0  0  0  0  0  0
  151.4611  141.2812  157.5437 H   0  0  0  0  0  0  0  0  0  0  0  0
  149.9896  141.9492  155.7441 H   0  0  0  0  0  0  0  0  0  0  0  0
  1  2  1  0  0  0  0
  1 24  1  0  0  0  0
  1 25  1  0  0  0  0
  1 26  1  0  0  0  0
  2  3  1  0  0  0  0
  3 23  1  0  0  0  0
  3  4  2  0  0  0  0
  4  5  1  0  0  0  0
  4 27  1  0  0  0  0
  5  6  2  0  0  0  0
  5 28  1  0  0  0  0
  6  7  1  0  0  0  0
  6 22  1  0  0  0  0
  7  8  1  0  0  0  0
  8  9  1  0  0  0  0
  8 29  1  0  0  0  0
  8 30  1  0  0  0  0
  9 10  1  0  0  0  0
  9 11  1  0  0  0  0
  9 31  1  0  0  0  0
 10 32  1  0  0  0  0
 11 12  1  0  0  0  0
 11 33  1  0  0  0  0
 11 34  1  0  0  0  0
 12 21  1  0  0  0  0
 12 13  1  0  0  0  0
 13 14  1  0  0  0  0
 13 15  2  0  0  0  0
 14 35  1  0  0  0  0
 14 36  1  0  0  0  0
 14 37  1  0  0  0  0
 15 16  1  0  0  0  0
 16 21  2  0  0  0  0
 16 17  1  0  0  0  0
 17 18  2  0  0  0  0
 17 38  1  0  0  0  0
 18 19  1  0  0  0  0
 18 39  1  0  0  0  0
 19 20  2  0  0  0  0
 19 40  1  0  0  0  0
 20 21  1  0  0  0  0
 20 41  1  0  0  0  0
 22 23  2  0  0  0  0
 22 42  1  0  0  0  0
 23 43  1  0  0  0  0
M  END
> <s_m_source_file>
AV-unprocessed.smi

> <i_m_source_file_index>
486

> <i_lp_mmshare_version>
43012

> <i_f3d_flags>
0

> <s_epik_input>
W0NIM11PYzFbY0hdW2NIXWMoW2NIXVtjSF0xKU9bQ0gyXVtDQEhdKFtPSF0pW0NIMl1uKGMobjIpW0NIM10pYyhjMjMpW2NIXVtjSF1bY0hdW2NIXTM=

> <s_epik_cmdline>
J2VwaWtfcHl0aG9uJywgJy1waCcsICc3LjAnLCAnLXRuJywgJzgnLCAnLW1hJywgJzIwMCcsICctbWV0YWxfYmluZGluZycsICctaW1hZScsICc8aW5maWxlLm1hZT4nLCAnLW9tYWUnLCAnPG91dGZpbGUubWFlPic=

> <r_lp_tautomer_probability>
1

> <r_epik_Ionization_Penalty>
0.114052

> <r_epik_Ionization_Penalty_Charging>
0

> <r_epik_Ionization_Penalty_Neutral>
0.114052

> <r_epik_State_Penalty>
0.103717

> <r_epik_Charging_Adjusted_Penalty>
0.103717

> <i_epik_Tot_Q>
0

> <i_epik_Tot_abs_Q>
0

> <r_epik_Metal_State_Penalty>
0.000113338

> <b_epik_Metal_Only>
0

> <s_lp_Force_Field>
OPLS_2005

> <r_lp_Energy>
20.3049

> <b_lp_Chiralities_Consistent>
1

> <s_lp_Variant>
AV-unprocessed.smi:486-2

> <Gold.Version>
5.8.1

> <Gold.Id.Protein>
6NUR|6NUR_protein|mol2

> <Gold.PLP.Fitness>
55.1801

> <Gold.PLP.PLP>
-52.8916

> <Gold.PLP.part.hbond>
-3.0207

> <Gold.PLP.part.metal>
0.0000

> <Gold.PLP.part.buried>
1.6252

> <Gold.PLP.part.nonpolar>
-51.4765

> <Gold.PLP.part.repulsive>
1.2990

> <Gold.PLP.ligand.clash>
0.0000

> <Gold.PLP.ligand.torsion>
1.6176

> <Gold.PLP.Chemscore.Hbond>
1.8080

> <Gold.PLP.Chemscore.CHOScore>
0.0000

> <Gold.PLP.Chemscore.Metal>
0.0000

> <Gold.Chemscore.Hbonds>
donor molecule, donor type, donor heavy atom, donor atom, acceptor molecule, acceptor atom, score
      P1  H  7997  8008       L1     7  0.99

> <Gold.PLP.Chemscore.Internal.Correction>
0.0997

> <Gold.Rescore>
     Score         DG    S(hbond)    S(metal)    S(lipo)     H(rot)  DE(clash)    DE(int)     intcor
     17.04     -20.52       1.23        0.00     143.82       2.30       2.17       1.31       ----

> <Gold.Chemscore.Fitness>
17.0408

> <Gold.Chemscore.DG>
-20.5171

> <Gold.Chemscore.ZeroCoef>
-5.4800

> <Gold.Chemscore.Hbond>
1.2289

> <Gold.Chemscore.Metal>
0.0000

> <Gold.Chemscore.Lipo>
143.8155

> <Gold.Chemscore.Internal_Hbond>
0.0000

> <Gold.Chemscore.DEClash>
2.1674

> <Gold.Chemscore.DEInternal>
1.3089

> <Gold.Chemscore.Rot>
2.3023

> <Gold.Chemscore.Internal.Correction>
   9.000000E+99

> <Gold.Chemscore.Hbonds>
donor molecule, donor type, donor heavy atom, donor atom, acceptor molecule, acceptor atom, score
      P1  H  7997  8008       L1     7  0.18

> <Gold.Chemscore.Hbond.Weighted>
-4.1047

> <Gold.Chemscore.Metal.Weighted>
-0.0000

> <Gold.Chemscore.Lipo.Weighted>
-16.8264

> <Gold.Chemscore.Internal_Hbond.Weighted>
0.0000

> <Gold.Chemscore.DEClash.Weighted>
2.1674

> <Gold.Chemscore.DEInternal.Weighted>
1.3089

> <Gold.Chemscore.Rot.Weighted>
5.8940

> <Gold.Chemscore.Internal.Correction.Weighted>
   9.000000E+99

> <Gold.Protein.RotatedTorsions>
[ 6907 6896 6895 6894 ] final  116.15 input  -60.11 | X-H torsion
[ 7974 7965 7964 7962 ] final -178.55 input  175.53 | X-H torsion
[ 8008 7997 7996 7995 ] final  -95.16 input   59.86 | X-H torsion
[ 10167 10162 10161 10158 ] final   43.08 input  -65.29 | X-H torsion
[ 10718 10713 10712 10709 ] final   91.89 input   66.30 | X-H torsion
[ 10763 10752 10751 10750 ] final -161.20 input  -60.55 | X-H torsion
[ 11005 11000 10999 10996 ] final -100.78 input  -57.11 | X-H torsion

> <Gold.Protein.ActiveResidues>
 VAL166  LYS551  ARG553  GLY616  TRP617  ASP618  TYR619  PRO620  LYS621  CYS622 
 ASP623  PHE694  ASN695  SER759  ASP760  ASP761  ALA762  ILE779  LEU786  VAL792 
 PHE793  MET794  SER795  GLU796  ALA797  LYS798  CYS799  TRP800  GLU811  SER814 

> <Gold.Protein.RotatedAtoms>
  152.4697  133.8001  159.6947 H   0  0  0  0  0  0  0  0  0  0  0  0  # atno 6907 bound_to 6896
  150.8679  133.7538  159.2977 H   0  0  0  0  0  0  0  0  0  0  0  0  # atno 6908 bound_to 6896
  151.5083  135.1067  159.9899 H   0  0  0  0  0  0  0  0  0  0  0  0  # atno 6909 bound_to 6896
  144.7131  140.0851  143.6424 H   0  0  0  0  0  0  0  0  0  0  0  0  # atno 7974 bound_to 7965
  154.7578  140.0482  157.0948 H   0  0  0  0  0  0  0  0  0  0  0  0  # atno 8008 bound_to 7997
  154.9976  140.3120  155.4861 H   0  0  0  0  0  0  0  0  0  0  0  0  # atno 8009 bound_to 7997
  156.2898  140.2207  156.5084 H   0  0  0  0  0  0  0  0  0  0  0  0  # atno 8010 bound_to 7997
  140.3480  144.2386  150.6148 H   0  0  0  0  0  0  0  0  0  0  0  0  # atno 10167 bound_to 10162
  157.6959  131.0423  150.3798 H   0  0  0  0  0  0  0  0  0  0  0  0  # atno 10718 bound_to 10713
  154.7324  135.3049  154.8869 H   0  0  0  0  0  0  0  0  0  0  0  0  # atno 10763 bound_to 10752
  153.9707  135.6742  153.4751 H   0  0  0  0  0  0  0  0  0  0  0  0  # atno 10764 bound_to 10752
  153.0931  135.4949  154.8648 H   0  0  0  0  0  0  0  0  0  0  0  0  # atno 10765 bound_to 10752
  141.1257  133.8426  157.1147 H   0  0  0  0  0  0  0  0  0  0  0  0  # atno 11005 bound_to 11000
  145.9668  139.2841  143.1122 LP  0  0  0  0  0  0  0  0  0  0  0  0  # atno 17320 bound_to 7965
  145.9160  140.9148  143.0429 LP  0  0  0  0  0  0  0  0  0  0  0  0  # atno 17321 bound_to 7965
  140.5246  143.2257  151.8335 LP  0  0  0  0  0  0  0  0  0  0  0  0  # atno 17342 bound_to 10162
  139.4830  144.4795  151.9325 LP  0  0  0  0  0  0  0  0  0  0  0  0  # atno 17343 bound_to 10162
  156.4213  130.3953  149.6823 LP  0  0  0  0  0  0  0  0  0  0  0  0  # atno 17370 bound_to 10713
  156.4073  130.7704  151.2715 LP  0  0  0  0  0  0  0  0  0  0  0  0  # atno 17371 bound_to 10713
  140.0254  134.9926  157.0675 LP  0  0  0  0  0  0  0  0  0  0  0  0  # atno 17394 bound_to 11000
  140.4372  134.1719  155.7171 LP  0  0  0  0  0  0  0  0  0  0  0  0  # atno 17395 bound_to 11000

$$$$
