AV-unprocessed.smi:1626|AV-procd|sdf|6508|dock3
  -GOLD-   22720 7173D 1   1.00000     0.00000
 Structure written by MMmdl.
 48 50  0  0  0  0  0  0  0  0  2 V2000
  152.7974  143.0419  161.3809 C   0  0  0  0  0  0  0  0  0  0  0  0
  152.2606  142.6773  160.0080 C   0  0  0  0  0  0  0  0  0  0  0  0
  152.7163  141.4940  159.3847 C   0  0  0  0  0  0  0  0  0  0  0  0
  152.2444  141.1200  158.1076 C   0  0  0  0  0  0  0  0  0  0  0  0
  152.5525  140.0231  157.3219 N   0  0  0  0  0  0  0  0  0  0  0  0
  151.7938  140.2379  156.2516 C   0  0  0  0  0  0  0  0  0  0  0  0
  151.0392  141.3539  156.2441 N   0  0  0  0  0  0  0  0  0  0  0  0
  150.1476  141.7997  155.1880 C   0  0  0  0  0  0  0  0  0  0  0  0
  149.2674  140.6619  154.6321 C   0  0  2  0  0  0  0  0  0  0  0  0
  150.0797  139.8640  153.7945 O   0  0  0  0  0  0  0  0  0  0  0  0
  148.0473  141.1624  153.8256 C   0  0  0  0  0  0  0  0  0  0  0  0
  147.0183  141.7982  154.6873 N   0  3  2  0  0  0  0  0  0  0  0  0
  146.3188  140.8128  155.5512 C   0  0  0  0  0  0  0  0  0  0  0  0
  145.3685  141.5133  156.5393 C   0  0  0  0  0  0  0  0  0  0  0  0
  144.3621  142.4271  155.8207 C   0  0  2  0  0  0  0  0  0  0  0  0
  143.4240  141.6477  155.1060 O   0  0  0  0  0  0  0  0  0  0  0  0
  145.0955  143.3839  154.8658 C   0  0  0  0  0  0  0  0  0  0  0  0
  146.0523  142.6323  153.9225 C   0  0  0  0  0  0  0  0  0  0  0  0
  151.2959  141.9689  157.4655 C   0  0  0  0  0  0  0  0  0  0  0  0
  150.8303  143.1457  158.0785 C   0  0  0  0  0  0  0  0  0  0  0  0
  151.3155  143.5067  159.3527 C   0  0  0  0  0  0  0  0  0  0  0  0
  150.8133  144.7842  160.0020 C   0  0  0  0  0  0  0  0  0  0  0  0
  153.4493  142.2611  161.7737 H   0  0  0  0  0  0  0  0  0  0  0  0
  151.9805  143.1808  162.0894 H   0  0  0  0  0  0  0  0  0  0  0  0
  153.3733  143.9663  161.3300 H   0  0  0  0  0  0  0  0  0  0  0  0
  153.4357  140.8617  159.8842 H   0  0  0  0  0  0  0  0  0  0  0  0
  151.7950  139.5488  155.4196 H   0  0  0  0  0  0  0  0  0  0  0  0
  149.5228  142.6047  155.5785 H   0  0  0  0  0  0  0  0  0  0  0  0
  150.7551  142.2332  154.3922 H   0  0  0  0  0  0  0  0  0  0  0  0
  148.9460  140.0402  155.4659 H   0  0  0  0  0  0  0  0  0  0  0  0
  149.6470  139.7497  152.9625 H   0  0  0  0  0  0  0  0  0  0  0  0
  148.3427  141.8829  153.0620 H   0  0  0  0  0  0  0  0  0  0  0  0
  147.6202  140.3158  153.2858 H   0  0  0  0  0  0  0  0  0  0  0  0
  145.7675  140.1065  154.9283 H   0  0  0  0  0  0  0  0  0  0  0  0
  147.0502  140.2328  156.1153 H   0  0  0  0  0  0  0  0  0  0  0  0
  144.8435  140.7737  157.1453 H   0  0  0  0  0  0  0  0  0  0  0  0
  145.9588  142.1113  157.2349 H   0  0  0  0  0  0  0  0  0  0  0  0
  143.8057  143.0046  156.5598 H   0  0  0  0  0  0  0  0  0  0  0  0
  143.8454  141.2967  154.3357 H   0  0  0  0  0  0  0  0  0  0  0  0
  144.3777  143.9670  154.2876 H   0  0  0  0  0  0  0  0  0  0  0  0
  145.6686  144.1036  155.4519 H   0  0  0  0  0  0  0  0  0  0  0  0
  146.5794  143.3580  153.3044 H   0  0  0  0  0  0  0  0  0  0  0  0
  145.4851  141.9987  153.2389 H   0  0  0  0  0  0  0  0  0  0  0  0
  150.1056  143.7668  157.5735 H   0  0  0  0  0  0  0  0  0  0  0  0
  150.1447  145.3323  159.3375 H   0  0  0  0  0  0  0  0  0  0  0  0
  151.6470  145.4409  160.2516 H   0  0  0  0  0  0  0  0  0  0  0  0
  150.2650  144.5571  160.9166 H   0  0  0  0  0  0  0  0  0  0  0  0
  147.5142  142.4150  155.3142 H   0  0  0  0  0  0  0  0  0  0  0  0
  1  2  1  0  0  0  0
  1 23  1  0  0  0  0
  1 24  1  0  0  0  0
  1 25  1  0  0  0  0
  2 21  1  0  0  0  0
  2  3  2  0  0  0  0
  3  4  1  0  0  0  0
  3 26  1  0  0  0  0
  4 19  2  0  0  0  0
  4  5  1  0  0  0  0
  5  6  2  0  0  0  0
  6  7  1  0  0  0  0
  6 27  1  0  0  0  0
  7  8  1  0  0  0  0
  7 19  1  0  0  0  0
  8  9  1  0  0  0  0
  8 28  1  0  0  0  0
  8 29  1  0  0  0  0
  9 10  1  0  0  0  0
  9 11  1  0  0  0  0
  9 30  1  0  0  0  0
 10 31  1  0  0  0  0
 11 12  1  0  0  0  0
 11 32  1  0  0  0  0
 11 33  1  0  0  0  0
 12 18  1  0  0  0  0
 12 13  1  0  0  0  0
 12 48  1  0  0  0  0
 13 14  1  0  0  0  0
 13 34  1  0  0  0  0
 13 35  1  0  0  0  0
 14 15  1  0  0  0  0
 14 36  1  0  0  0  0
 14 37  1  0  0  0  0
 15 16  1  0  0  0  0
 15 17  1  0  0  0  0
 15 38  1  0  0  0  0
 16 39  1  0  0  0  0
 17 18  1  0  0  0  0
 17 40  1  0  0  0  0
 17 41  1  0  0  0  0
 18 42  1  0  0  0  0
 18 43  1  0  0  0  0
 19 20  1  0  0  0  0
 20 21  2  0  0  0  0
 20 44  1  0  0  0  0
 21 22  1  0  0  0  0
 22 45  1  0  0  0  0
 22 46  1  0  0  0  0
 22 47  1  0  0  0  0
M  CHG  1  12   1
M  END
> <s_m_source_file>
AV-unprocessed.smi

> <i_m_source_file_index>
1626

> <i_lp_mmshare_version>
43012

> <i_f3d_flags>
0

> <s_epik_input>
W0NIM11jKFtjSF0xKWMoW0NIM10pW2NIXWMoYzEyKW4oW2NIXW4yKVtDSDJdW0NASF0oW09IXSlbQ0gyXU4zW0NIMl1bQ0gyXVtDSF0oW09IXSlbQ0gyXVtDSDJdMw==

> <s_epik_cmdline>
J2VwaWtfcHl0aG9uJywgJy1waCcsICc3LjAnLCAnLXRuJywgJzgnLCAnLW1hJywgJzIwMCcsICctbWV0YWxfYmluZGluZycsICctaW1hZScsICc8aW5maWxlLm1hZT4nLCAnLW9tYWUnLCAnPG91dGZpbGUubWFlPic=

> <r_epik_Ionization_Penalty>
0.106584

> <r_epik_Ionization_Penalty_Charging>
0.0185694

> <r_epik_Ionization_Penalty_Neutral>
0.0880147

> <r_epik_State_Penalty>
0.0908428

> <r_epik_Charging_Adjusted_Penalty>
0.109412

> <i_epik_Tot_Q>
1

> <i_epik_Tot_abs_Q>
1

> <r_epik_Metal_State_Penalty>
0.0153739

> <b_epik_Metal_Only>
0

> <s_lp_Force_Field>
OPLS_2005

> <r_lp_Energy>
24.9536

> <b_lp_Chiralities_Consistent>
1

> <s_lp_Variant>
AV-unprocessed.smi:1626-3

> <Gold.Version>
5.8.1

> <Gold.Id.Protein>
6NUR|6NUR_protein|mol2

> <Gold.PLP.Fitness>
58.3005

> <Gold.PLP.PLP>
-47.7951

> <Gold.PLP.part.hbond>
-5.0000

> <Gold.PLP.part.metal>
0.0000

> <Gold.PLP.part.buried>
-4.5525

> <Gold.PLP.part.nonpolar>
-37.3386

> <Gold.PLP.part.repulsive>
0.0824

> <Gold.PLP.ligand.clash>
0.0000

> <Gold.PLP.ligand.torsion>
0.4660

> <Gold.PLP.Chemscore.Hbond>
3.8000

> <Gold.PLP.Chemscore.CHOScore>
0.0000

> <Gold.PLP.Chemscore.Metal>
0.0000

> <Gold.Chemscore.Hbonds>
donor molecule, donor type, donor heavy atom, donor atom, acceptor molecule, acceptor atom, score
      L1  H    10    31       P1  7957  0.98
      L1  H    16    39       P1 10175  0.94
      P1  H  7989  7998       L1    10  0.86
      P1  H  7997  8009       L1     5  1.00

> <Gold.PLP.Chemscore.Internal.Correction>
0.0373

> <Gold.Rescore>
     Score         DG    S(hbond)    S(metal)    S(lipo)     H(rot)  DE(clash)    DE(int)     intcor
     19.69     -21.88       2.79        0.00     119.02       2.67       0.68       1.52       ----

> <Gold.Chemscore.Fitness>
19.6864

> <Gold.Chemscore.DG>
-21.8824

> <Gold.Chemscore.ZeroCoef>
-5.4800

> <Gold.Chemscore.Hbond>
2.7892

> <Gold.Chemscore.Metal>
0.0000

> <Gold.Chemscore.Lipo>
119.0160

> <Gold.Chemscore.Internal_Hbond>
0.0000

> <Gold.Chemscore.DEClash>
0.6766

> <Gold.Chemscore.DEInternal>
1.5194

> <Gold.Chemscore.Rot>
2.6712

> <Gold.Chemscore.Internal.Correction>
   9.000000E+99

> <Gold.Chemscore.Hbonds>
donor molecule, donor type, donor heavy atom, donor atom, acceptor molecule, acceptor atom, score
      L1  H    10    31       P1  7957  0.93
      L1  H    16    39       P1 10175  0.44
      P1  H  7989  7998       L1    10  0.26
      P1  H  7997  8009       L1     5  0.46

> <Gold.Chemscore.Hbond.Weighted>
-9.3158

> <Gold.Chemscore.Metal.Weighted>
-0.0000

> <Gold.Chemscore.Lipo.Weighted>
-13.9249

> <Gold.Chemscore.Internal_Hbond.Weighted>
0.0000

> <Gold.Chemscore.DEClash.Weighted>
0.6766

> <Gold.Chemscore.DEInternal.Weighted>
1.5194

> <Gold.Chemscore.Rot.Weighted>
6.8383

> <Gold.Chemscore.Internal.Correction.Weighted>
   9.000000E+99

> <Gold.Protein.RotatedTorsions>
[ 6907 6896 6895 6894 ] final   99.71 input  -60.11 | X-H torsion
[ 7974 7965 7964 7962 ] final  -25.23 input  175.53 | X-H torsion
[ 8008 7997 7996 7995 ] final  174.22 input   59.86 | X-H torsion
[ 10167 10162 10161 10158 ] final -107.27 input  -65.29 | X-H torsion
[ 10718 10713 10712 10709 ] final -178.13 input   66.30 | X-H torsion
[ 10763 10752 10751 10750 ] final  135.15 input  -60.55 | X-H torsion
[ 11005 11000 10999 10996 ] final  -43.76 input  -57.11 | X-H torsion

> <Gold.Protein.ActiveResidues>
 VAL166  LYS551  ARG553  GLY616  TRP617  ASP618  TYR619  PRO620  LYS621  CYS622 
 ASP623  PHE694  ASN695  SER759  ASP760  ASP761  ALA762  ILE779  LEU786  VAL792 
 PHE793  MET794  SER795  GLU796  ALA797  LYS798  CYS799  TRP800  GLU811  SER814 

> <Gold.Protein.RotatedAtoms>
  152.5387  134.0387  159.8057 H   0  0  0  0  0  0  0  0  0  0  0  0  # atno 6907 bound_to 6896
  151.0546  133.5587  159.2646 H   0  0  0  0  0  0  0  0  0  0  0  0  # atno 6908 bound_to 6896
  151.2509  135.0629  159.9115 H   0  0  0  0  0  0  0  0  0  0  0  0  # atno 6909 bound_to 6896
  146.1504  140.4859  142.8614 H   0  0  0  0  0  0  0  0  0  0  0  0  # atno 7974 bound_to 7965
  156.0996  140.1440  156.9484 H   0  0  0  0  0  0  0  0  0  0  0  0  # atno 8008 bound_to 7997
  154.4694  140.0915  156.7151 H   0  0  0  0  0  0  0  0  0  0  0  0  # atno 8009 bound_to 7997
  155.4782  140.3444  155.4338 H   0  0  0  0  0  0  0  0  0  0  0  0  # atno 8010 bound_to 7997
  140.1788  143.3983  152.1297 H   0  0  0  0  0  0  0  0  0  0  0  0  # atno 10167 bound_to 10162
  156.8398  130.9682  151.3101 H   0  0  0  0  0  0  0  0  0  0  0  0  # atno 10718 bound_to 10713
  153.8353  135.3098  155.3422 H   0  0  0  0  0  0  0  0  0  0  0  0  # atno 10763 bound_to 10752
  154.7956  135.4757  154.0155 H   0  0  0  0  0  0  0  0  0  0  0  0  # atno 10764 bound_to 10752
  153.1609  135.6860  153.8835 H   0  0  0  0  0  0  0  0  0  0  0  0  # atno 10765 bound_to 10752
  141.0405  133.6782  156.2778 H   0  0  0  0  0  0  0  0  0  0  0  0  # atno 11005 bound_to 11000
  144.7897  140.6007  143.6550 LP  0  0  0  0  0  0  0  0  0  0  0  0  # atno 17320 bound_to 7965
  145.4836  139.1493  143.3748 LP  0  0  0  0  0  0  0  0  0  0  0  0  # atno 17321 bound_to 7965
  139.5305  144.7153  151.5073 LP  0  0  0  0  0  0  0  0  0  0  0  0  # atno 17342 bound_to 10162
  140.6533  143.8651  150.6809 LP  0  0  0  0  0  0  0  0  0  0  0  0  # atno 17343 bound_to 10162
  157.6362  130.8768  149.9363 LP  0  0  0  0  0  0  0  0  0  0  0  0  # atno 17370 bound_to 10713
  156.0887  130.3665  150.0437 LP  0  0  0  0  0  0  0  0  0  0  0  0  # atno 17371 bound_to 10713
  140.6242  134.5330  157.5551 LP  0  0  0  0  0  0  0  0  0  0  0  0  # atno 17394 bound_to 11000
  139.9272  134.8032  156.1033 LP  0  0  0  0  0  0  0  0  0  0  0  0  # atno 17395 bound_to 11000

$$$$
