AV-unprocessed.smi:2734|AV-procd|sdf|10538|dock10
  -GOLD-   2272014583D 1   1.00000     0.00000
 Structure written by MMmdl.
 40 42  0  0  0  0  0  0  0  0  1 V2000
  151.8205  144.4714  160.1964 C   0  0  0  0  0  0  0  0  0  0  0  0
  152.4114  143.0852  160.3847 C   0  0  0  0  0  0  0  0  0  0  0  0
  152.5678  142.2462  159.2584 C   0  0  0  0  0  0  0  0  0  0  0  0
  153.1086  140.9486  159.3917 C   0  0  0  0  0  0  0  0  0  0  0  0
  153.3412  139.9699  158.4406 N   0  0  0  0  0  0  0  0  0  0  0  0
  153.8485  138.9900  159.1829 C   0  0  0  0  0  0  0  0  0  0  0  0
  153.9719  139.2178  160.5045 N   0  0  0  0  0  0  0  0  0  0  0  0
  154.4886  138.2991  161.5027 C   0  0  0  0  0  0  0  0  0  0  0  0
  153.5815  137.0693  161.7056 C   0  0  1  0  0  0  0  0  0  0  0  0
  153.6184  136.3039  160.5183 O   0  0  0  0  0  0  0  0  0  0  0  0
  153.9992  136.1831  162.8940 C   0  0  0  0  0  0  0  0  0  0  0  0
  153.9664  137.0825  164.4739 S   0  0  0  0  0  0  0  0  0  0  0  0
  155.5376  137.8858  164.3883 C   0  0  0  0  0  0  0  0  0  0  0  0
  156.4793  137.6906  163.4718 N   0  0  0  0  0  0  0  0  0  0  0  0
  157.4958  138.5474  163.8487 N   0  0  0  0  0  0  0  0  0  0  0  0
  157.1793  139.2112  164.9224 N   0  0  0  0  0  0  0  0  0  0  0  0
  155.9374  138.8020  165.2788 N   0  0  0  0  0  0  0  0  0  0  0  0
  155.2749  139.3485  166.4463 C   0  0  0  0  0  0  0  0  0  0  0  0
  153.4950  140.5112  160.6922 C   0  0  0  0  0  0  0  0  0  0  0  0
  153.3464  141.3376  161.8200 C   0  0  0  0  0  0  0  0  0  0  0  0
  152.8008  142.6295  161.6700 C   0  0  0  0  0  0  0  0  0  0  0  0
  152.6366  143.5106  162.8956 C   0  0  0  0  0  0  0  0  0  0  0  0
  151.5853  144.6653  159.1494 H   0  0  0  0  0  0  0  0  0  0  0  0
  152.5237  145.2356  160.5280 H   0  0  0  0  0  0  0  0  0  0  0  0
  150.8996  144.5743  160.7709 H   0  0  0  0  0  0  0  0  0  0  0  0
  152.2695  142.5919  158.2797 H   0  0  0  0  0  0  0  0  0  0  0  0
  154.1450  138.0496  158.7415 H   0  0  0  0  0  0  0  0  0  0  0  0
  155.4859  137.9845  161.1918 H   0  0  0  0  0  0  0  0  0  0  0  0
  154.6130  138.8410  162.4414 H   0  0  0  0  0  0  0  0  0  0  0  0
  152.5547  137.4061  161.8537 H   0  0  0  0  0  0  0  0  0  0  0  0
  154.1885  136.7377  159.9015 H   0  0  0  0  0  0  0  0  0  0  0  0
  153.3470  135.3112  162.9600 H   0  0  0  0  0  0  0  0  0  0  0  0
  155.0152  135.8165  162.7489 H   0  0  0  0  0  0  0  0  0  0  0  0
  154.3434  139.8291  166.1467 H   0  0  0  0  0  0  0  0  0  0  0  0
  155.9108  140.0854  166.9384 H   0  0  0  0  0  0  0  0  0  0  0  0
  155.0527  138.5461  167.1501 H   0  0  0  0  0  0  0  0  0  0  0  0
  153.6431  140.9769  162.7937 H   0  0  0  0  0  0  0  0  0  0  0  0
  152.9913  143.0092  163.7965 H   0  0  0  0  0  0  0  0  0  0  0  0
  151.5869  143.7638  163.0454 H   0  0  0  0  0  0  0  0  0  0  0  0
  153.2042  144.4344  162.7817 H   0  0  0  0  0  0  0  0  0  0  0  0
  1  2  1  0  0  0  0
  1 23  1  0  0  0  0
  1 24  1  0  0  0  0
  1 25  1  0  0  0  0
  2 21  1  0  0  0  0
  2  3  2  0  0  0  0
  3  4  1  0  0  0  0
  3 26  1  0  0  0  0
  4 19  2  0  0  0  0
  4  5  1  0  0  0  0
  5  6  2  0  0  0  0
  6  7  1  0  0  0  0
  6 27  1  0  0  0  0
  7  8  1  0  0  0  0
  7 19  1  0  0  0  0
  8  9  1  0  0  0  0
  8 28  1  0  0  0  0
  8 29  1  0  0  0  0
  9 10  1  0  0  0  0
  9 11  1  0  0  0  0
  9 30  1  0  0  0  0
 10 31  1  0  0  0  0
 11 12  1  0  0  0  0
 11 32  1  0  0  0  0
 11 33  1  0  0  0  0
 12 13  1  0  0  0  0
 13 17  1  0  0  0  0
 13 14  2  0  0  0  0
 14 15  1  0  0  0  0
 15 16  2  0  0  0  0
 16 17  1  0  0  0  0
 17 18  1  0  0  0  0
 18 34  1  0  0  0  0
 18 35  1  0  0  0  0
 18 36  1  0  0  0  0
 19 20  1  0  0  0  0
 20 21  2  0  0  0  0
 20 37  1  0  0  0  0
 21 22  1  0  0  0  0
 22 38  1  0  0  0  0
 22 39  1  0  0  0  0
 22 40  1  0  0  0  0
M  END
> <s_m_source_file>
AV-unprocessed.smi

> <i_m_source_file_index>
2734

> <i_lp_mmshare_version>
43012

> <i_f3d_flags>
0

> <s_epik_input>
W0NIM11jKFtjSF0xKWMoW0NIM10pW2NIXWMoYzEyKW4oW2NIXW4yKVtDSDJdW0NASF0oW09IXSlbQ0gyXVNjM25ubm4zW0NIM10=

> <s_epik_cmdline>
J2VwaWtfcHl0aG9uJywgJy1waCcsICc3LjAnLCAnLXRuJywgJzgnLCAnLW1hJywgJzIwMCcsICctbWV0YWxfYmluZGluZycsICctaW1hZScsICc8aW5maWxlLm1hZT4nLCAnLW9tYWUnLCAnPG91dGZpbGUubWFlPic=

> <r_lp_tautomer_probability>
1

> <r_epik_Ionization_Penalty>
0.105517

> <r_epik_Ionization_Penalty_Charging>
0

> <r_epik_Ionization_Penalty_Neutral>
0.105517

> <r_epik_State_Penalty>
0.0953887

> <r_epik_Charging_Adjusted_Penalty>
0.0953887

> <i_epik_Tot_Q>
0

> <i_epik_Tot_abs_Q>
0

> <r_epik_Metal_State_Penalty>
0.0808533

> <b_epik_Metal_Only>
0

> <s_lp_Force_Field>
OPLS_2005

> <r_lp_Energy>
9.84292

> <b_lp_Chiralities_Consistent>
1

> <s_lp_Variant>
AV-unprocessed.smi:2734-2

> <Gold.Version>
5.8.1

> <Gold.Id.Protein>
6NUR|6NUR_protein|mol2

> <Gold.PLP.Fitness>
52.0954

> <Gold.PLP.PLP>
-47.0084

> <Gold.PLP.part.hbond>
-1.7877

> <Gold.PLP.part.metal>
0.0000

> <Gold.PLP.part.buried>
-4.9605

> <Gold.PLP.part.nonpolar>
-39.9546

> <Gold.PLP.part.repulsive>
0.0000

> <Gold.PLP.ligand.clash>
0.0000

> <Gold.PLP.ligand.torsion>
0.2435

> <Gold.PLP.Chemscore.Hbond>
1.8450

> <Gold.PLP.Chemscore.CHOScore>
0.0000

> <Gold.PLP.Chemscore.Metal>
0.0000

> <Gold.Chemscore.Hbonds>
donor molecule, donor type, donor heavy atom, donor atom, acceptor molecule, acceptor atom, score
      P1  H  6896  6907       L1    10  1.00
      P1  H  7997  8010       L1     5  1.00

> <Gold.PLP.Chemscore.Internal.Correction>
0.0391

> <Gold.Rescore>
     Score         DG    S(hbond)    S(metal)    S(lipo)     H(rot)  DE(clash)    DE(int)     intcor
     16.71     -18.23       1.76        0.00     121.05       2.85       0.19       1.33       ----

> <Gold.Chemscore.Fitness>
16.7126

> <Gold.Chemscore.DG>
-18.2311

> <Gold.Chemscore.ZeroCoef>
-5.4800

> <Gold.Chemscore.Hbond>
1.7579

> <Gold.Chemscore.Metal>
0.0000

> <Gold.Chemscore.Lipo>
121.0536

> <Gold.Chemscore.Internal_Hbond>
0.0000

> <Gold.Chemscore.DEClash>
0.1855

> <Gold.Chemscore.DEInternal>
1.3330

> <Gold.Chemscore.Rot>
2.8452

> <Gold.Chemscore.Internal.Correction>
   9.000000E+99

> <Gold.Chemscore.Hbonds>
donor molecule, donor type, donor heavy atom, donor atom, acceptor molecule, acceptor atom, score
      P1  H  6896  6907       L1    10  0.95
      P1  H  7997  8010       L1     5  0.25

> <Gold.Chemscore.Hbond.Weighted>
-5.8715

> <Gold.Chemscore.Metal.Weighted>
-0.0000

> <Gold.Chemscore.Lipo.Weighted>
-14.1633

> <Gold.Chemscore.Internal_Hbond.Weighted>
0.0000

> <Gold.Chemscore.DEClash.Weighted>
0.1855

> <Gold.Chemscore.DEInternal.Weighted>
1.3330

> <Gold.Chemscore.Rot.Weighted>
7.2837

> <Gold.Chemscore.Internal.Correction.Weighted>
   9.000000E+99

> <Gold.Protein.RotatedTorsions>
[ 6907 6896 6895 6894 ] final   46.06 input  -60.11 | X-H torsion
[ 7974 7965 7964 7962 ] final  -74.83 input  175.53 | X-H torsion
[ 8008 7997 7996 7995 ] final   31.39 input   59.86 | X-H torsion
[ 10167 10162 10161 10158 ] final -121.13 input  -65.29 | X-H torsion
[ 10718 10713 10712 10709 ] final  -12.65 input   66.30 | X-H torsion
[ 10763 10752 10751 10750 ] final  134.45 input  -60.55 | X-H torsion
[ 11005 11000 10999 10996 ] final -177.19 input  -57.11 | X-H torsion

> <Gold.Protein.ActiveResidues>
 VAL166  LYS551  ARG553  GLY616  TRP617  ASP618  TYR619  PRO620  LYS621  CYS622 
 ASP623  PHE694  ASN695  SER759  ASP760  ASP761  ALA762  ILE779  LEU786  VAL792 
 PHE793  MET794  SER795  GLU796  ALA797  LYS798  CYS799  TRP800  GLU811  SER814 

> <Gold.Protein.RotatedAtoms>
  152.2519  134.8124  160.0444 H   0  0  0  0  0  0  0  0  0  0  0  0  # atno 6907 bound_to 6896
  151.8801  133.3488  159.3771 H   0  0  0  0  0  0  0  0  0  0  0  0  # atno 6908 bound_to 6896
  150.7087  134.4954  159.5580 H   0  0  0  0  0  0  0  0  0  0  0  0  # atno 6909 bound_to 6896
  145.6340  140.9330  143.1071 H   0  0  0  0  0  0  0  0  0  0  0  0  # atno 7974 bound_to 7965
  155.1057  140.3234  155.4535 H   0  0  0  0  0  0  0  0  0  0  0  0  # atno 8008 bound_to 7997
  156.2705  140.2053  156.6129 H   0  0  0  0  0  0  0  0  0  0  0  0  # atno 8009 bound_to 7997
  154.6795  140.0528  157.0238 H   0  0  0  0  0  0  0  0  0  0  0  0  # atno 8010 bound_to 7997
  140.0283  143.5274  152.2188 H   0  0  0  0  0  0  0  0  0  0  0  0  # atno 10167 bound_to 10162
  156.6415  130.4929  149.6093 H   0  0  0  0  0  0  0  0  0  0  0  0  # atno 10718 bound_to 10713
  153.8237  135.3113  155.3412 H   0  0  0  0  0  0  0  0  0  0  0  0  # atno 10763 bound_to 10752
  154.8002  135.4731  154.0260 H   0  0  0  0  0  0  0  0  0  0  0  0  # atno 10764 bound_to 10752
  153.1677  135.6872  153.8742 H   0  0  0  0  0  0  0  0  0  0  0  0  # atno 10765 bound_to 10752
  140.4437  134.6408  157.4769 H   0  0  0  0  0  0  0  0  0  0  0  0  # atno 11005 bound_to 11000
  144.7183  139.8120  143.7391 LP  0  0  0  0  0  0  0  0  0  0  0  0  # atno 17320 bound_to 7965
  146.1334  139.4374  143.0154 LP  0  0  0  0  0  0  0  0  0  0  0  0  # atno 17321 bound_to 7965
  139.6093  144.7604  151.2989 LP  0  0  0  0  0  0  0  0  0  0  0  0  # atno 17342 bound_to 10162
  140.7313  143.6856  150.7965 LP  0  0  0  0  0  0  0  0  0  0  0  0  # atno 17343 bound_to 10162
  156.2155  130.6705  151.1314 LP  0  0  0  0  0  0  0  0  0  0  0  0  # atno 17370 bound_to 10713
  157.7169  131.0704  150.6290 LP  0  0  0  0  0  0  0  0  0  0  0  0  # atno 17371 bound_to 10713
  140.0053  134.6774  155.9465 LP  0  0  0  0  0  0  0  0  0  0  0  0  # atno 17394 bound_to 11000
  141.1694  133.6537  156.4598 LP  0  0  0  0  0  0  0  0  0  0  0  0  # atno 17395 bound_to 11000

$$$$
