AV-unprocessed.smi:1118|AV-procd|sdf|4814|dock4
  -GOLD-   22720 3363D 1   1.00000     0.00000
 Structure written by MMmdl.
 45 46  0  0  0  0  0  0  0  0  2 V2000
  144.6487  133.6441  150.1330 C   0  0  0  0  0  0  0  0  0  0  0  0
  144.4611  134.4721  151.2674 O   0  0  0  0  0  0  0  0  0  0  0  0
  145.4884  135.4391  151.4112 C   0  0  0  0  0  0  0  0  0  0  0  0
  145.5853  135.8442  152.8901 C   0  0  0  0  0  0  0  0  0  0  0  0
  146.5725  136.9301  153.1175 N   0  3  2  0  0  0  0  0  0  0  0  0
  147.1142  136.9166  154.4999 C   0  0  0  0  0  0  0  0  0  0  0  0
  148.2384  137.9523  154.6658 C   0  0  0  0  0  0  0  0  0  0  0  0
  147.7602  139.3690  154.3027 C   0  0  1  0  0  0  0  0  0  0  0  0
  148.9004  140.3959  154.4655 C   0  0  0  0  0  0  0  0  0  0  0  0
  149.3722  140.4681  155.8443 N   0  0  0  0  0  0  0  0  0  0  0  0
  150.6572  140.5237  156.2280 C   0  0  0  0  0  0  0  0  0  0  0  0
  151.6067  140.4504  155.4482 O   0  0  0  0  0  0  0  0  0  0  0  0
  150.9079  140.7345  157.7205 C   0  0  0  0  0  0  0  0  0  0  0  0
  151.5317  142.0248  157.9532 N   0  0  0  0  0  0  0  0  0  0  0  0
  151.2334  143.2376  157.3678 C   0  0  0  0  0  0  0  0  0  0  0  0
  152.0686  144.1691  157.9144 C   0  0  0  0  0  0  0  0  0  0  0  0
  152.8522  143.4211  158.8372 C   0  0  0  0  0  0  0  0  0  0  0  0
  152.5274  142.1386  158.8602 N   0  0  0  0  0  0  0  0  0  0  0  0
  147.1610  139.3438  152.8814 C   0  0  0  0  0  0  0  0  0  0  0  0
  146.0621  138.2768  152.7493 C   0  0  0  0  0  0  0  0  0  0  0  0
  143.8365  132.9199  150.0696 H   0  0  0  0  0  0  0  0  0  0  0  0
  145.5873  133.0921  150.1983 H   0  0  0  0  0  0  0  0  0  0  0  0
  144.6499  134.2297  149.2126 H   0  0  0  0  0  0  0  0  0  0  0  0
  146.4367  135.0535  151.0365 H   0  0  0  0  0  0  0  0  0  0  0  0
  145.2438  136.3180  150.8126 H   0  0  0  0  0  0  0  0  0  0  0  0
  144.6088  136.1525  153.2663 H   0  0  0  0  0  0  0  0  0  0  0  0
  145.8681  134.9597  153.4629 H   0  0  0  0  0  0  0  0  0  0  0  0
  146.3099  137.1140  155.2106 H   0  0  0  0  0  0  0  0  0  0  0  0
  147.5073  135.9263  154.7323 H   0  0  0  0  0  0  0  0  0  0  0  0
  148.6016  137.9333  155.6941 H   0  0  0  0  0  0  0  0  0  0  0  0
  149.0843  137.6744  154.0351 H   0  0  0  0  0  0  0  0  0  0  0  0
  146.9648  139.6418  154.9984 H   0  0  0  0  0  0  0  0  0  0  0  0
  149.7483  140.1041  153.8453 H   0  0  0  0  0  0  0  0  0  0  0  0
  148.5855  141.3764  154.1041 H   0  0  0  0  0  0  0  0  0  0  0  0
  148.6654  140.5380  156.5624 H   0  0  0  0  0  0  0  0  0  0  0  0
  149.9719  140.6750  158.2786 H   0  0  0  0  0  0  0  0  0  0  0  0
  151.5627  139.9504  158.1034 H   0  0  0  0  0  0  0  0  0  0  0  0
  150.4581  143.3350  156.6217 H   0  0  0  0  0  0  0  0  0  0  0  0
  152.1132  145.2245  157.6897 H   0  0  0  0  0  0  0  0  0  0  0  0
  153.6407  143.7697  159.4876 H   0  0  0  0  0  0  0  0  0  0  0  0
  146.7357  140.3153  152.6284 H   0  0  0  0  0  0  0  0  0  0  0  0
  147.9484  139.1521  152.1509 H   0  0  0  0  0  0  0  0  0  0  0  0
  145.6950  138.2779  151.7238 H   0  0  0  0  0  0  0  0  0  0  0  0
  145.2149  138.5334  153.3873 H   0  0  0  0  0  0  0  0  0  0  0  0
  147.3543  136.7325  152.5087 H   0  0  0  0  0  0  0  0  0  0  0  0
  1  2  1  0  0  0  0
  1 21  1  0  0  0  0
  1 22  1  0  0  0  0
  1 23  1  0  0  0  0
  2  3  1  0  0  0  0
  3  4  1  0  0  0  0
  3 24  1  0  0  0  0
  3 25  1  0  0  0  0
  4  5  1  0  0  0  0
  4 26  1  0  0  0  0
  4 27  1  0  0  0  0
  5 20  1  0  0  0  0
  5  6  1  0  0  0  0
  5 45  1  0  0  0  0
  6  7  1  0  0  0  0
  6 28  1  0  0  0  0
  6 29  1  0  0  0  0
  7  8  1  0  0  0  0
  7 30  1  0  0  0  0
  7 31  1  0  0  0  0
  8  9  1  0  0  0  0
  8 19  1  0  0  0  0
  8 32  1  0  0  0  0
  9 10  1  0  0  0  0
  9 33  1  0  0  0  0
  9 34  1  0  0  0  0
 10 11  1  0  0  0  0
 10 35  1  0  0  0  0
 11 12  2  0  0  0  0
 11 13  1  0  0  0  0
 13 14  1  0  0  0  0
 13 36  1  0  0  0  0
 13 37  1  0  0  0  0
 14 18  1  0  0  0  0
 14 15  1  0  0  0  0
 15 16  2  0  0  0  0
 15 38  1  0  0  0  0
 16 17  1  0  0  0  0
 16 39  1  0  0  0  0
 17 18  2  0  0  0  0
 17 40  1  0  0  0  0
 19 20  1  0  0  0  0
 19 41  1  0  0  0  0
 19 42  1  0  0  0  0
 20 43  1  0  0  0  0
 20 44  1  0  0  0  0
M  CHG  1   5   1
M  END
> <s_m_source_file>
AV-unprocessed.smi

> <i_m_source_file_index>
1118

> <i_lp_mmshare_version>
43012

> <i_f3d_flags>
0

> <s_epik_input>
W0NIM11PW0NIMl1bQ0gyXU4xW0NIMl1bQ0gyXVtDSF0oW0NIMl1bQ0gyXTEpW0NIMl1bTkhdQyg9TylbQ0gyXW4yW2NIXVtjSF1bY0hdbjI=

> <s_epik_cmdline>
J2VwaWtfcHl0aG9uJywgJy1waCcsICc3LjAnLCAnLXRuJywgJzgnLCAnLW1hJywgJzIwMCcsICctbWV0YWxfYmluZGluZycsICctaW1hZScsICc8aW5maWxlLm1hZT4nLCAnLW9tYWUnLCAnPG91dGZpbGUubWFlPic=

> <r_lp_tautomer_probability>
1

> <r_epik_Ionization_Penalty>
0.00991549

> <r_epik_Ionization_Penalty_Charging>
0.00990284

> <r_epik_Ionization_Penalty_Neutral>
1.26554e-05

> <r_epik_State_Penalty>
0.00754525

> <r_epik_Charging_Adjusted_Penalty>
0.0174481

> <i_epik_Tot_Q>
1

> <i_epik_Tot_abs_Q>
1

> <r_epik_Metal_State_Penalty>
0.00754527

> <b_epik_Metal_Only>
0

> <s_lp_Force_Field>
OPLS_2005

> <r_lp_Energy>
19.0863

> <b_lp_Chiralities_Consistent>
1

> <s_lp_Variant>
AV-unprocessed.smi:1118-1

> <Gold.Version>
5.8.1

> <Gold.Id.Protein>
6NUR|6NUR_protein|mol2

> <Gold.PLP.Fitness>
43.8865

> <Gold.PLP.PLP>
-33.8427

> <Gold.PLP.part.hbond>
-2.0000

> <Gold.PLP.part.metal>
0.0000

> <Gold.PLP.part.buried>
-2.6336

> <Gold.PLP.part.nonpolar>
-29.6827

> <Gold.PLP.part.repulsive>
0.2260

> <Gold.PLP.ligand.clash>
0.0000

> <Gold.PLP.ligand.torsion>
0.7668

> <Gold.PLP.Chemscore.Hbond>
2.8000

> <Gold.PLP.Chemscore.CHOScore>
1.0000

> <Gold.PLP.Chemscore.Metal>
0.0000

> <Gold.Chemscore.Hbonds>
donor molecule, donor type, donor heavy atom, donor atom, acceptor molecule, acceptor atom, score
      L1  H     5    45       P1  7948  2.00
      P1  H  7989  7998       L1    12  0.82
      L1  C    15    38       P1  8028  1.00

> <Gold.PLP.Chemscore.Internal.Correction>
0.1775

> <Gold.Rescore>
     Score         DG    S(hbond)    S(metal)    S(lipo)     H(rot)  DE(clash)    DE(int)     intcor
     15.49     -16.11       1.83        0.00      87.20       2.22       0.08       0.54       ----

> <Gold.Chemscore.Fitness>
15.4944

> <Gold.Chemscore.DG>
-16.1143

> <Gold.Chemscore.ZeroCoef>
-5.4800

> <Gold.Chemscore.Hbond>
1.8283

> <Gold.Chemscore.Metal>
0.0000

> <Gold.Chemscore.Lipo>
87.1985

> <Gold.Chemscore.Internal_Hbond>
0.0000

> <Gold.Chemscore.DEClash>
0.0795

> <Gold.Chemscore.DEInternal>
0.5405

> <Gold.Chemscore.Rot>
2.2166

> <Gold.Chemscore.Internal.Correction>
   9.000000E+99

> <Gold.Chemscore.Hbonds>
donor molecule, donor type, donor heavy atom, donor atom, acceptor molecule, acceptor atom, score
      L1  H     5    45       P1  7948  1.00
      P1  H  7989  7998       L1    12  0.79

> <Gold.Chemscore.Hbond.Weighted>
-6.1066

> <Gold.Chemscore.Metal.Weighted>
-0.0000

> <Gold.Chemscore.Lipo.Weighted>
-10.2022

> <Gold.Chemscore.Internal_Hbond.Weighted>
0.0000

> <Gold.Chemscore.DEClash.Weighted>
0.0795

> <Gold.Chemscore.DEInternal.Weighted>
0.5405

> <Gold.Chemscore.Rot.Weighted>
5.6745

> <Gold.Chemscore.Internal.Correction.Weighted>
   9.000000E+99

> <Gold.Protein.RotatedTorsions>
[ 6907 6896 6895 6894 ] final  -99.97 input  -60.11 | X-H torsion
[ 7974 7965 7964 7962 ] final  131.47 input  175.53 | X-H torsion
[ 8008 7997 7996 7995 ] final   14.90 input   59.86 | X-H torsion
[ 10167 10162 10161 10158 ] final   79.90 input  -65.29 | X-H torsion
[ 10718 10713 10712 10709 ] final -161.37 input   66.30 | X-H torsion
[ 10763 10752 10751 10750 ] final  119.90 input  -60.55 | X-H torsion
[ 11005 11000 10999 10996 ] final   24.67 input  -57.11 | X-H torsion

> <Gold.Protein.ActiveResidues>
 VAL166  LYS551  ARG553  GLY616  TRP617  ASP618  TYR619  PRO620  LYS621  CYS622 
 ASP623  PHE694  ASN695  SER759  ASP760  ASP761  ALA762  ILE779  LEU786  VAL792 
 PHE793  MET794  SER795  GLU796  ALA797  LYS798  CYS799  TRP800  GLU811  SER814 

> <Gold.Protein.RotatedAtoms>
  150.7099  134.0959  159.3948 H   0  0  0  0  0  0  0  0  0  0  0  0  # atno 6907 bound_to 6896
  151.8945  135.0401  160.0510 H   0  0  0  0  0  0  0  0  0  0  0  0  # atno 6908 bound_to 6896
  152.2464  133.5143  159.5337 H   0  0  0  0  0  0  0  0  0  0  0  0  # atno 6909 bound_to 6896
  145.0070  139.4257  143.5264 H   0  0  0  0  0  0  0  0  0  0  0  0  # atno 7974 bound_to 7965
  154.8550  140.2935  155.5574 H   0  0  0  0  0  0  0  0  0  0  0  0  # atno 8008 bound_to 7997
  156.3018  140.2489  156.3447 H   0  0  0  0  0  0  0  0  0  0  0  0  # atno 8009 bound_to 7997
  154.8980  140.0392  157.1866 H   0  0  0  0  0  0  0  0  0  0  0  0  # atno 8010 bound_to 7997
  139.9554  144.5997  150.8121 H   0  0  0  0  0  0  0  0  0  0  0  0  # atno 10167 bound_to 10162
  156.5953  130.8787  151.2900 H   0  0  0  0  0  0  0  0  0  0  0  0  # atno 10718 bound_to 10713
  153.5902  135.3467  155.2908 H   0  0  0  0  0  0  0  0  0  0  0  0  # atno 10763 bound_to 10752
  154.8654  135.4203  154.2525 H   0  0  0  0  0  0  0  0  0  0  0  0  # atno 10764 bound_to 10752
  153.3330  135.7045  153.7002 H   0  0  0  0  0  0  0  0  0  0  0  0  # atno 10765 bound_to 10752
  140.3562  134.2175  155.7676 H   0  0  0  0  0  0  0  0  0  0  0  0  # atno 11005 bound_to 11000
  146.3463  139.9492  142.8731 LP  0  0  0  0  0  0  0  0  0  0  0  0  # atno 17320 bound_to 7965
  145.2075  140.9881  143.4120 LP  0  0  0  0  0  0  0  0  0  0  0  0  # atno 17321 bound_to 7965
  140.7570  143.3077  151.2921 LP  0  0  0  0  0  0  0  0  0  0  0  0  # atno 17342 bound_to 10162
  139.6595  144.0214  152.2683 LP  0  0  0  0  0  0  0  0  0  0  0  0  # atno 17343 bound_to 10162
  157.7293  130.9669  150.1782 LP  0  0  0  0  0  0  0  0  0  0  0  0  # atno 17370 bound_to 10713
  156.2515  130.3701  149.8227 LP  0  0  0  0  0  0  0  0  0  0  0  0  # atno 17371 bound_to 10713
  141.1997  133.8004  157.0521 LP  0  0  0  0  0  0  0  0  0  0  0  0  # atno 17394 bound_to 11000
  140.0663  134.9727  157.1391 LP  0  0  0  0  0  0  0  0  0  0  0  0  # atno 17395 bound_to 11000

$$$$
