AV-unprocessed.smi:189|AV-procd|sdf|1490|dock4
  -GOLD-   2262019313D 1   1.00000     0.00000
 Structure written by MMmdl.
 53 57  0  0  0  0  0  0  0  0  1 V2000
  152.7346  138.5859  154.3439 C   0  0  0  0  0  0  0  0  0  0  0  0
  151.3732  138.8110  155.0230 C   0  0  1  0  0  0  0  0  0  0  0  0
  151.4131  138.4994  156.5262 C   0  0  0  0  0  0  0  0  0  0  0  0
  151.7863  139.8341  157.1868 C   0  0  2  0  0  0  0  0  0  0  0  0
  150.9887  140.1552  158.4633 C   0  0  0  0  0  0  0  0  0  0  0  0
  151.3186  141.5579  159.0160 C   0  0  0  0  0  0  0  0  0  0  0  0
  151.5371  142.6238  157.9185 C   0  0  0  0  0  0  0  0  0  0  0  0
  150.9308  142.2065  156.5710 C   0  0  0  0  0  0  0  0  0  0  0  0
  151.5895  140.8916  156.0785 C   0  0  2  0  0  0  0  0  0  0  0  0
  150.9625  140.2109  154.9404 N   0  0  0  0  0  0  0  0  0  0  0  0
  149.6479  140.4519  154.7073 C   0  0  0  0  0  0  0  0  0  0  0  0
  149.2093  141.7071  154.4227 N   0  0  0  0  0  0  0  0  0  0  0  0
  147.9154  141.9231  154.1677 C   0  0  0  0  0  0  0  0  0  0  0  0
  146.9112  141.0441  154.1432 N   0  0  0  0  0  0  0  0  0  0  0  0
  147.3485  139.7841  154.4295 C   0  0  0  0  0  0  0  0  0  0  0  0
  148.6888  139.4046  154.7184 C   0  0  0  0  0  0  0  0  0  0  0  0
  148.7590  138.0370  154.9506 N   0  0  0  0  0  0  0  0  0  0  0  0
  147.5275  137.6297  154.8073 C   0  0  0  0  0  0  0  0  0  0  0  0
  146.6134  138.6139  154.5025 N   0  0  0  0  0  0  0  0  0  0  0  0
  145.1842  138.4426  154.2945 C   0  0  0  0  0  0  0  0  0  0  0  0
  144.8425  137.5229  153.0991 C   0  0  2  0  0  0  0  0  0  0  0  0
  145.3007  138.1276  151.9023 O   0  0  0  0  0  0  0  0  0  0  0  0
  143.3532  137.2217  152.9484 C   0  0  0  0  0  0  0  0  0  0  0  0
  143.3471  135.8094  152.3804 C   0  0  0  0  0  0  0  0  0  0  0  0
  144.4045  135.1887  153.0909 O   0  0  0  0  0  0  0  0  0  0  0  0
  145.4742  136.1209  153.2112 C   0  0  0  0  0  0  0  0  0  0  0  0
  153.0283  137.5377  154.4010 H   0  0  0  0  0  0  0  0  0  0  0  0
  153.5261  139.1754  154.8076 H   0  0  0  0  0  0  0  0  0  0  0  0
  152.6920  138.8578  153.2888 H   0  0  0  0  0  0  0  0  0  0  0  0
  150.6474  138.1612  154.5312 H   0  0  0  0  0  0  0  0  0  0  0  0
  150.4245  138.1790  156.8568 H   0  0  0  0  0  0  0  0  0  0  0  0
  152.1088  137.6978  156.7767 H   0  0  0  0  0  0  0  0  0  0  0  0
  152.8463  139.8117  157.4437 H   0  0  0  0  0  0  0  0  0  0  0  0
  149.9224  140.1060  158.2370 H   0  0  0  0  0  0  0  0  0  0  0  0
  151.1710  139.3997  159.2280 H   0  0  0  0  0  0  0  0  0  0  0  0
  150.5097  141.8704  159.6773 H   0  0  0  0  0  0  0  0  0  0  0  0
  152.2115  141.5070  159.6399 H   0  0  0  0  0  0  0  0  0  0  0  0
  151.1249  143.5801  158.2414 H   0  0  0  0  0  0  0  0  0  0  0  0
  152.6073  142.7867  157.7837 H   0  0  0  0  0  0  0  0  0  0  0  0
  149.8553  142.0917  156.7100 H   0  0  0  0  0  0  0  0  0  0  0  0
  151.0679  142.9956  155.8312 H   0  0  0  0  0  0  0  0  0  0  0  0
  152.5847  141.1687  155.7275 H   0  0  0  0  0  0  0  0  0  0  0  0
  147.6472  142.9462  153.9501 H   0  0  0  0  0  0  0  0  0  0  0  0
  147.2501  136.5924  154.9248 H   0  0  0  0  0  0  0  0  0  0  0  0
  144.7452  138.0493  155.2125 H   0  0  0  0  0  0  0  0  0  0  0  0
  144.7448  139.4297  154.1450 H   0  0  0  0  0  0  0  0  0  0  0  0
  144.9208  138.9903  151.8368 H   0  0  0  0  0  0  0  0  0  0  0  0
  142.8702  137.2050  153.9261 H   0  0  0  0  0  0  0  0  0  0  0  0
  142.8175  137.9394  152.3256 H   0  0  0  0  0  0  0  0  0  0  0  0
  142.3990  135.2947  152.5367 H   0  0  0  0  0  0  0  0  0  0  0  0
  143.5701  135.8124  151.3124 H   0  0  0  0  0  0  0  0  0  0  0  0
  146.2084  135.9370  152.4252 H   0  0  0  0  0  0  0  0  0  0  0  0
  145.9766  135.9658  154.1665 H   0  0  0  0  0  0  0  0  0  0  0  0
  1  2  1  0  0  0  0
  1 27  1  0  0  0  0
  1 28  1  0  0  0  0
  1 29  1  0  0  0  0
  2 10  1  0  0  0  0
  2  3  1  0  0  0  0
  2 30  1  0  0  0  0
  3  4  1  0  0  0  0
  3 31  1  0  0  0  0
  3 32  1  0  0  0  0
  4  9  1  0  0  0  0
  4  5  1  0  0  0  0
  4 33  1  0  0  0  0
  5  6  1  0  0  0  0
  5 34  1  0  0  0  0
  5 35  1  0  0  0  0
  6  7  1  0  0  0  0
  6 36  1  0  0  0  0
  6 37  1  0  0  0  0
  7  8  1  0  0  0  0
  7 38  1  0  0  0  0
  7 39  1  0  0  0  0
  8  9  1  0  0  0  0
  8 40  1  0  0  0  0
  8 41  1  0  0  0  0
  9 10  1  0  0  0  0
  9 42  1  0  0  0  0
 10 11  1  0  0  0  0
 11 16  1  0  0  0  0
 11 12  2  0  0  0  0
 12 13  1  0  0  0  0
 13 14  2  0  0  0  0
 13 43  1  0  0  0  0
 14 15  1  0  0  0  0
 15 19  1  0  0  0  0
 15 16  2  0  0  0  0
 16 17  1  0  0  0  0
 17 18  2  0  0  0  0
 18 19  1  0  0  0  0
 18 44  1  0  0  0  0
 19 20  1  0  0  0  0
 20 21  1  0  0  0  0
 20 45  1  0  0  0  0
 20 46  1  0  0  0  0
 21 26  1  0  0  0  0
 21 22  1  0  0  0  0
 21 23  1  0  0  0  0
 22 47  1  0  0  0  0
 23 24  1  0  0  0  0
 23 48  1  0  0  0  0
 23 49  1  0  0  0  0
 24 25  1  0  0  0  0
 24 50  1  0  0  0  0
 24 51  1  0  0  0  0
 25 26  1  0  0  0  0
 26 52  1  0  0  0  0
 26 53  1  0  0  0  0
M  END
> <s_m_source_file>
AV-unprocessed.smi

> <i_m_source_file_index>
189

> <i_lp_mmshare_version>
43012

> <i_f3d_flags>
0

> <s_epik_input>
W0NIMl0xW0NIMl1bQ0gyXVtDSDJdW0NASF0oW0NASF0xMilOKFtDQEhdKFtDSDNdKVtDSDJdMiljKG5bY0hdbjMpYyhjMzQpbltjSF1uNFtDSDJdW0NAQF01KFtPSF0pW0NIMl1bQ0gyXU9bQ0gyXTU=

> <s_epik_cmdline>
J2VwaWtfcHl0aG9uJywgJy1waCcsICc3LjAnLCAnLXRuJywgJzgnLCAnLW1hJywgJzIwMCcsICctbWV0YWxfYmluZGluZycsICctaW1hZScsICc8aW5maWxlLm1hZT4nLCAnLW9tYWUnLCAnPG91dGZpbGUubWFlPic=

> <r_lp_tautomer_probability>
1

> <r_epik_Ionization_Penalty>
0.00594261

> <r_epik_Ionization_Penalty_Charging>
0

> <r_epik_Ionization_Penalty_Neutral>
0.00594261

> <r_epik_State_Penalty>
0.00429776

> <r_epik_Charging_Adjusted_Penalty>
0.00429776

> <i_epik_Tot_Q>
0

> <i_epik_Tot_abs_Q>
0

> <r_epik_Metal_State_Penalty>
-0

> <b_epik_Metal_Only>
0

> <s_lp_Force_Field>
OPLS_2005

> <r_lp_Energy>
66.7565

> <b_lp_Chiralities_Consistent>
1

> <s_lp_Variant>
AV-unprocessed.smi:189-16

> <Gold.Version>
5.8.1

> <Gold.Id.Protein>
6NUR|6NUR_protein|mol2

> <Gold.PLP.Fitness>
43.7270

> <Gold.PLP.PLP>
-37.4346

> <Gold.PLP.part.hbond>
-4.4559

> <Gold.PLP.part.metal>
0.0000

> <Gold.PLP.part.buried>
-5.8450

> <Gold.PLP.part.nonpolar>
-26.1900

> <Gold.PLP.part.repulsive>
0.5417

> <Gold.PLP.ligand.clash>
0.8234

> <Gold.PLP.ligand.torsion>
0.0966

> <Gold.PLP.Chemscore.Hbond>
2.1498

> <Gold.PLP.Chemscore.CHOScore>
0.2607

> <Gold.PLP.Chemscore.Metal>
0.0000

> <Gold.Chemscore.Hbonds>
donor molecule, donor type, donor heavy atom, donor atom, acceptor molecule, acceptor atom, score
      L1  H    22    47       P1 10175  1.00
      P1  H  7989  7998       L1    10  1.00
      P1  H  8011  8017       L1    12  0.11
      L1  C    13    43       P1  8028  0.37

> <Gold.PLP.Chemscore.Internal.Correction>
0.0777

> <Gold.Rescore>
     Score         DG    S(hbond)    S(metal)    S(lipo)     H(rot)  DE(clash)    DE(int)     intcor
      9.16     -13.59       1.09        0.00      82.53       2.03       0.52       3.92       ----

> <Gold.Chemscore.Fitness>
9.1591

> <Gold.Chemscore.DG>
-13.5934

> <Gold.Chemscore.ZeroCoef>
-5.4800

> <Gold.Chemscore.Hbond>
1.0938

> <Gold.Chemscore.Metal>
0.0000

> <Gold.Chemscore.Lipo>
82.5294

> <Gold.Chemscore.Internal_Hbond>
0.0000

> <Gold.Chemscore.DEClash>
0.5152

> <Gold.Chemscore.DEInternal>
3.9190

> <Gold.Chemscore.Rot>
2.0297

> <Gold.Chemscore.Internal.Correction>
   9.000000E+99

> <Gold.Chemscore.Hbonds>
donor molecule, donor type, donor heavy atom, donor atom, acceptor molecule, acceptor atom, score
      L1  H    22    47       P1 10175  0.92
      P1  H  7989  7998       L1    10  0.10
      P1  H  8011  8017       L1    12  0.01

> <Gold.Chemscore.Hbond.Weighted>
-3.6534

> <Gold.Chemscore.Metal.Weighted>
-0.0000

> <Gold.Chemscore.Lipo.Weighted>
-9.6559

> <Gold.Chemscore.Internal_Hbond.Weighted>
0.0000

> <Gold.Chemscore.DEClash.Weighted>
0.5152

> <Gold.Chemscore.DEInternal.Weighted>
3.9190

> <Gold.Chemscore.Rot.Weighted>
5.1960

> <Gold.Chemscore.Internal.Correction.Weighted>
   9.000000E+99

> <Gold.Protein.RotatedTorsions>
[ 6907 6896 6895 6894 ] final   12.30 input  -60.11 | X-H torsion
[ 7974 7965 7964 7962 ] final  120.68 input  175.53 | X-H torsion
[ 8008 7997 7996 7995 ] final  151.71 input   59.86 | X-H torsion
[ 10167 10162 10161 10158 ] final  138.09 input  -65.29 | X-H torsion
[ 10718 10713 10712 10709 ] final  -17.76 input   66.30 | X-H torsion
[ 10763 10752 10751 10750 ] final  148.99 input  -60.55 | X-H torsion
[ 11005 11000 10999 10996 ] final  -33.13 input  -57.11 | X-H torsion

> <Gold.Protein.ActiveResidues>
 VAL166  LYS551  ARG553  GLY616  TRP617  ASP618  TYR619  PRO620  LYS621  CYS622 
 ASP623  PHE694  ASN695  SER759  ASP760  ASP761  ALA762  ILE779  LEU786  VAL792 
 PHE793  MET794  SER795  GLU796  ALA797  LYS798  CYS799  TRP800  GLU811  SER814 

> <Gold.Protein.RotatedAtoms>
  151.7681  135.0793  160.0355 H   0  0  0  0  0  0  0  0  0  0  0  0  # atno 6907 bound_to 6896
  152.3307  133.5951  159.5816 H   0  0  0  0  0  0  0  0  0  0  0  0  # atno 6908 bound_to 6896
  150.7421  133.9788  159.3611 H   0  0  0  0  0  0  0  0  0  0  0  0  # atno 6909 bound_to 6896
  145.1282  139.3344  143.4679 H   0  0  0  0  0  0  0  0  0  0  0  0  # atno 7974 bound_to 7965
  156.2662  140.2040  156.6219 H   0  0  0  0  0  0  0  0  0  0  0  0  # atno 8008 bound_to 7997
  154.6750  140.0546  157.0230 H   0  0  0  0  0  0  0  0  0  0  0  0  # atno 8009 bound_to 7997
  155.1082  140.3213  155.4531 H   0  0  0  0  0  0  0  0  0  0  0  0  # atno 8010 bound_to 7997
  139.5122  144.6373  151.5662 H   0  0  0  0  0  0  0  0  0  0  0  0  # atno 10167 bound_to 10162
  156.5690  130.4745  149.6371 H   0  0  0  0  0  0  0  0  0  0  0  0  # atno 10718 bound_to 10713
  154.0638  135.2872  155.3320 H   0  0  0  0  0  0  0  0  0  0  0  0  # atno 10763 bound_to 10752
  154.6791  135.5270  153.8242 H   0  0  0  0  0  0  0  0  0  0  0  0  # atno 10764 bound_to 10752
  153.0512  135.6577  154.0825 H   0  0  0  0  0  0  0  0  0  0  0  0  # atno 10765 bound_to 10752
  140.9609  133.7165  156.1368 H   0  0  0  0  0  0  0  0  0  0  0  0  # atno 11005 bound_to 11000
  146.3516  140.1270  142.8598 LP  0  0  0  0  0  0  0  0  0  0  0  0  # atno 17320 bound_to 7965
  145.0664  140.9124  143.4908 LP  0  0  0  0  0  0  0  0  0  0  0  0  # atno 17321 bound_to 7965
  140.6127  143.9406  150.6465 LP  0  0  0  0  0  0  0  0  0  0  0  0  # atno 17342 bound_to 10162
  140.2654  143.3494  152.1285 LP  0  0  0  0  0  0  0  0  0  0  0  0  # atno 17343 bound_to 10162
  156.2731  130.7028  151.1831 LP  0  0  0  0  0  0  0  0  0  0  0  0  # atno 17370 bound_to 10713
  157.7352  131.0574  150.5482 LP  0  0  0  0  0  0  0  0  0  0  0  0  # atno 17371 bound_to 10713
  140.7468  134.4089  157.5547 LP  0  0  0  0  0  0  0  0  0  0  0  0  # atno 17394 bound_to 11000
  139.8878  134.8873  156.2510 LP  0  0  0  0  0  0  0  0  0  0  0  0  # atno 17395 bound_to 11000

$$$$
