AV-unprocessed.smi:3012|AV-procd|sdf|11462|dock2
  -GOLD-   2272016393D 1   1.00000     0.00000
 Structure written by MMmdl.
 16 16  0  0  0  0  0  0  0  0  3 V2000
  148.2479  136.9118  159.9516 O   0  0  0  0  0  0  0  0  0  0  0  0
  148.7200  136.2794  158.9811 C   0  0  0  0  0  0  0  0  0  0  0  0
  149.0052  135.0616  158.9759 O   0  5  0  0  0  0  0  0  0  0  0  0
  148.9551  137.0576  157.6853 C   0  0  0  0  0  0  0  0  0  0  0  0
  150.2246  137.8937  157.7088 C   0  0  0  0  0  0  0  0  0  0  0  0
  151.0100  138.0822  158.7919 C   0  0  0  0  0  0  0  0  0  0  0  0
  152.1853  138.9424  158.6678 C   0  0  0  0  0  0  0  0  0  0  0  0
  152.9084  139.1150  159.6476 O   0  0  0  0  0  0  0  0  0  0  0  0
  152.4246  139.5242  157.4538 N   0  5  0  0  0  0  0  0  0  0  0  0
  151.6158  139.3341  156.3660 C   0  0  0  0  0  0  0  0  0  0  0  0
  151.8070  139.8501  155.2667 O   0  0  0  0  0  0  0  0  0  0  0  0
  150.5354  138.5323  156.5012 N   0  0  0  0  0  0  0  0  0  0  0  0
  149.9235  138.3760  155.7135 H   0  0  0  0  0  0  0  0  0  0  0  0
  148.9809  136.3579  156.8484 H   0  0  0  0  0  0  0  0  0  0  0  0
  148.1050  137.7169  157.5060 H   0  0  0  0  0  0  0  0  0  0  0  0
  150.7741  137.6093  159.7341 H   0  0  0  0  0  0  0  0  0  0  0  0
  1  2  2  0  0  0  0
  2  3  1  0  0  0  0
  2  4  1  0  0  0  0
  4  5  1  0  0  0  0
  4 14  1  0  0  0  0
  4 15  1  0  0  0  0
  5 12  1  0  0  0  0
  5  6  2  0  0  0  0
  6  7  1  0  0  0  0
  6 16  1  0  0  0  0
  7  8  2  0  0  0  0
  7  9  1  0  0  0  0
  9 10  1  0  0  0  0
 10 11  2  0  0  0  0
 10 12  1  0  0  0  0
 12 13  1  0  0  0  0
M  CHG  1   3  -1
M  CHG  1   9  -1
M  END
> <s_m_source_file>
AV-unprocessed.smi

> <i_m_source_file_index>
3012

> <i_lp_mmshare_version>
43012

> <i_f3d_flags>
0

> <s_epik_input>
Tz1DKFtPSF0pW0NIMl1jMVtjSF1jKD1PKVtuSF1jKD1PKVtuSF0x

> <s_epik_cmdline>
J2VwaWtfcHl0aG9uJywgJy1waCcsICc3LjAnLCAnLXRuJywgJzgnLCAnLW1hJywgJzIwMCcsICctbWV0YWxfYmluZGluZycsICctaW1hZScsICc8aW5maWxlLm1hZT4nLCAnLW9tYWUnLCAnPG91dGZpbGUubWFlPic=

> <r_lp_tautomer_probability>
1

> <r_epik_Ionization_Penalty>
3.84851

> <r_epik_Ionization_Penalty_Charging>
0.000432965

> <r_epik_Ionization_Penalty_Neutral>
3.84808

> <r_epik_State_Penalty>
3.84718

> <r_epik_Charging_Adjusted_Penalty>
3.84761

> <i_epik_Tot_Q>
-2

> <i_epik_Tot_abs_Q>
2

> <r_epik_Metal_State_Penalty>
0.579588

> <b_epik_Metal_Only>
1

> <s_lp_Force_Field>
OPLS_2005

> <r_lp_Energy>
14.5502

> <b_lp_Chiralities_Consistent>
1

> <s_lp_Variant>
AV-unprocessed.smi:3012-2

> <Gold.Version>
5.8.1

> <Gold.Id.Protein>
6NUR|6NUR_protein|mol2

> <Gold.PLP.Fitness>
33.9107

> <Gold.PLP.PLP>
-13.5862

> <Gold.PLP.part.hbond>
-5.0000

> <Gold.PLP.part.metal>
0.0000

> <Gold.PLP.part.buried>
-2.7615

> <Gold.PLP.part.nonpolar>
-6.6281

> <Gold.PLP.part.repulsive>
0.0153

> <Gold.PLP.ligand.clash>
0.0000

> <Gold.PLP.ligand.torsion>
0.2981

> <Gold.PLP.Chemscore.Hbond>
6.9726

> <Gold.PLP.Chemscore.CHOScore>
0.0000

> <Gold.PLP.Chemscore.Metal>
0.0000

> <Gold.Chemscore.Hbonds>
donor molecule, donor type, donor heavy atom, donor atom, acceptor molecule, acceptor atom, score
      P1  H  6896  6909       L1     3  2.00
      P1  H  7989  7998       L1    11  0.94
      P1  H  7997  8009       L1     9  1.17

> <Gold.PLP.Chemscore.Internal.Correction>
0.0029

> <Gold.Rescore>
     Score         DG    S(hbond)    S(metal)    S(lipo)     H(rot)  DE(clash)    DE(int)     intcor
     14.31     -14.68       3.73        0.00       8.89       1.68       0.04       0.33       ----

> <Gold.Chemscore.Fitness>
14.3146

> <Gold.Chemscore.DG>
-14.6757

> <Gold.Chemscore.ZeroCoef>
-5.4800

> <Gold.Chemscore.Hbond>
3.7328

> <Gold.Chemscore.Metal>
0.0000

> <Gold.Chemscore.Lipo>
8.8949

> <Gold.Chemscore.Internal_Hbond>
0.0000

> <Gold.Chemscore.DEClash>
0.0354

> <Gold.Chemscore.DEInternal>
0.3256

> <Gold.Chemscore.Rot>
1.6846

> <Gold.Chemscore.Internal.Correction>
   9.000000E+99

> <Gold.Chemscore.Hbonds>
donor molecule, donor type, donor heavy atom, donor atom, acceptor molecule, acceptor atom, score
      P1  H  6896  6909       L1     3  0.99
      P1  H  6931  6943       L1     1  0.01
      P1  H  7989  7998       L1    11  0.85
      P1  H  7997  8009       L1     9  0.47

> <Gold.Chemscore.Hbond.Weighted>
-12.4676

> <Gold.Chemscore.Metal.Weighted>
-0.0000

> <Gold.Chemscore.Lipo.Weighted>
-1.0407

> <Gold.Chemscore.Internal_Hbond.Weighted>
0.0000

> <Gold.Chemscore.DEClash.Weighted>
0.0354

> <Gold.Chemscore.DEInternal.Weighted>
0.3256

> <Gold.Chemscore.Rot.Weighted>
4.3126

> <Gold.Chemscore.Internal.Correction.Weighted>
   9.000000E+99

> <Gold.Protein.RotatedTorsions>
[ 6907 6896 6895 6894 ] final   41.33 input  -60.11 | X-H torsion
[ 7974 7965 7964 7962 ] final  -52.42 input  175.53 | X-H torsion
[ 8008 7997 7996 7995 ] final  165.03 input   59.86 | X-H torsion
[ 10167 10162 10161 10158 ] final   30.82 input  -65.29 | X-H torsion
[ 10718 10713 10712 10709 ] final  170.01 input   66.30 | X-H torsion
[ 10763 10752 10751 10750 ] final  -42.70 input  -60.55 | X-H torsion
[ 11005 11000 10999 10996 ] final -138.16 input  -57.11 | X-H torsion

> <Gold.Protein.ActiveResidues>
 VAL166  LYS551  ARG553  GLY616  TRP617  ASP618  TYR619  PRO620  LYS621  CYS622 
 ASP623  PHE694  ASN695  SER759  ASP760  ASP761  ALA762  ILE779  LEU786  VAL792 
 PHE793  MET794  SER795  GLU796  ALA797  LYS798  CYS799  TRP800  GLU811  SER814 

> <Gold.Protein.RotatedAtoms>
  152.1939  134.8648  160.0514 H   0  0  0  0  0  0  0  0  0  0  0  0  # atno 6907 bound_to 6896
  151.9526  133.3665  159.4014 H   0  0  0  0  0  0  0  0  0  0  0  0  # atno 6908 bound_to 6896
  150.6940  134.4248  159.5265 H   0  0  0  0  0  0  0  0  0  0  0  0  # atno 6909 bound_to 6896
  145.9081  140.7938  142.9709 H   0  0  0  0  0  0  0  0  0  0  0  0  # atno 7974 bound_to 7965
  156.1833  140.1681  156.8233 H   0  0  0  0  0  0  0  0  0  0  0  0  # atno 8008 bound_to 7997
  154.5385  140.0742  156.8501 H   0  0  0  0  0  0  0  0  0  0  0  0  # atno 8009 bound_to 7997
  155.3263  140.3376  155.4242 H   0  0  0  0  0  0  0  0  0  0  0  0  # atno 8010 bound_to 7997
  140.4643  144.0858  150.6220 H   0  0  0  0  0  0  0  0  0  0  0  0  # atno 10167 bound_to 10162
  157.0143  131.0213  151.2794 H   0  0  0  0  0  0  0  0  0  0  0  0  # atno 10718 bound_to 10713
  153.9835  135.6714  153.4751 H   0  0  0  0  0  0  0  0  0  0  0  0  # atno 10763 bound_to 10752
  153.0738  135.4960  154.8357 H   0  0  0  0  0  0  0  0  0  0  0  0  # atno 10764 bound_to 10752
  154.7151  135.3105  154.9098 H   0  0  0  0  0  0  0  0  0  0  0  0  # atno 10765 bound_to 10752
  140.8642  134.2130  157.4689 H   0  0  0  0  0  0  0  0  0  0  0  0  # atno 11005 bound_to 11000
  144.6741  140.1782  143.7408 LP  0  0  0  0  0  0  0  0  0  0  0  0  # atno 17320 bound_to 7965
  145.8706  139.2270  143.1663 LP  0  0  0  0  0  0  0  0  0  0  0  0  # atno 17321 bound_to 7965
  140.4055  143.2683  151.9897 LP  0  0  0  0  0  0  0  0  0  0  0  0  # atno 17342 bound_to 10162
  139.4810  144.5961  151.7688 LP  0  0  0  0  0  0  0  0  0  0  0  0  # atno 17343 bound_to 10162
  157.5297  130.8050  149.7902 LP  0  0  0  0  0  0  0  0  0  0  0  0  # atno 17370 bound_to 10713
  156.0125  130.3827  150.2219 LP  0  0  0  0  0  0  0  0  0  0  0  0  # atno 17371 bound_to 10713
  139.8708  134.9744  156.4845 LP  0  0  0  0  0  0  0  0  0  0  0  0  # atno 17394 bound_to 11000
  140.8647  133.8033  155.9302 LP  0  0  0  0  0  0  0  0  0  0  0  0  # atno 17395 bound_to 11000

$$$$
