AV-unprocessed.smi:1762|AV-procd|sdf|7104|dock2
  -GOLD-   22720 8323D 1   1.00000     0.00000
 Structure written by MMmdl.
 52 53  0  0  0  0  0  0  0  0  1 V2000
  150.0066  139.3358  154.0015 C   0  0  0  0  0  0  0  0  0  0  0  0
  151.3525  138.6510  154.2980 C   0  0  1  0  0  0  0  0  0  0  0  0
  152.0282  139.1661  155.5841 C   0  0  0  0  0  0  0  0  0  0  0  0
  151.3825  138.6841  156.8182 N   0  0  0  0  0  0  0  0  0  0  0  0
  152.0097  139.1868  158.0730 C   0  0  1  0  0  0  0  0  0  0  0  0
  153.3680  138.5152  158.3861 C   0  0  0  0  0  0  0  0  0  0  0  0
  154.3346  138.6857  157.6418 O   0  0  0  0  0  0  0  0  0  0  0  0
  153.4184  137.7426  159.4829 N   0  0  0  0  0  0  0  0  0  0  0  0
  154.6005  137.0302  159.9518 C   0  0  0  0  0  0  0  0  0  0  0  0
  154.4007  136.4788  161.3735 C   0  0  0  0  0  0  0  0  0  0  0  0
  155.1498  137.2893  162.4142 C   0  0  0  0  0  0  0  0  0  0  0  0
  155.2621  136.8271  163.7429 C   0  0  0  0  0  0  0  0  0  0  0  0
  155.9606  137.6211  164.6728 C   0  0  0  0  0  0  0  0  0  0  0  0
  156.5159  138.8411  164.2407 C   0  0  0  0  0  0  0  0  0  0  0  0
  156.3471  139.2143  162.8924 C   0  0  0  0  0  0  0  0  0  0  0  0
  155.6785  138.4606  161.9927 N   0  0  0  0  0  0  0  0  0  0  0  0
  152.1319  140.7449  158.1755 C   0  0  0  0  0  0  0  0  0  0  0  0
  152.8532  141.2309  159.4482 C   0  0  0  0  0  0  0  0  0  0  0  0
  150.7871  141.4816  158.0082 C   0  0  0  0  0  0  0  0  0  0  0  0
  151.3055  137.2205  156.7577 C   0  0  0  0  0  0  0  0  0  0  0  0
  150.5864  136.7156  155.4932 C   0  0  2  0  0  0  0  0  0  0  0  0
  150.5917  135.1860  155.3948 C   0  0  0  0  0  0  0  0  0  0  0  0
  151.2332  137.2310  154.3346 O   0  0  0  0  0  0  0  0  0  0  0  0
  150.1425  140.4073  153.8529 H   0  0  0  0  0  0  0  0  0  0  0  0
  149.2934  139.2109  154.8161 H   0  0  0  0  0  0  0  0  0  0  0  0
  149.5554  138.9318  153.0952 H   0  0  0  0  0  0  0  0  0  0  0  0
  152.0125  138.8776  153.4601 H   0  0  0  0  0  0  0  0  0  0  0  0
  153.0744  138.8553  155.5809 H   0  0  0  0  0  0  0  0  0  0  0  0
  152.0341  140.2539  155.5258 H   0  0  0  0  0  0  0  0  0  0  0  0
  151.3453  138.8921  158.8882 H   0  0  0  0  0  0  0  0  0  0  0  0
  152.5787  137.6489  160.0358 H   0  0  0  0  0  0  0  0  0  0  0  0
  154.7972  136.2123  159.2585 H   0  0  0  0  0  0  0  0  0  0  0  0
  155.4724  137.6857  159.9149 H   0  0  0  0  0  0  0  0  0  0  0  0
  153.3402  136.4680  161.6287 H   0  0  0  0  0  0  0  0  0  0  0  0
  154.7365  135.4419  161.4224 H   0  0  0  0  0  0  0  0  0  0  0  0
  154.8223  135.8877  164.0447 H   0  0  0  0  0  0  0  0  0  0  0  0
  156.0677  137.3005  165.6984 H   0  0  0  0  0  0  0  0  0  0  0  0
  157.0582  139.4755  164.9260 H   0  0  0  0  0  0  0  0  0  0  0  0
  156.7599  140.1428  162.5267 H   0  0  0  0  0  0  0  0  0  0  0  0
  152.7211  141.0878  157.3268 H   0  0  0  0  0  0  0  0  0  0  0  0
  152.2807  141.0130  160.3493 H   0  0  0  0  0  0  0  0  0  0  0  0
  153.0098  142.3094  159.4163 H   0  0  0  0  0  0  0  0  0  0  0  0
  153.8335  140.7666  159.5560 H   0  0  0  0  0  0  0  0  0  0  0  0
  150.1228  141.3256  158.8586 H   0  0  0  0  0  0  0  0  0  0  0  0
  150.2658  141.1508  157.1095 H   0  0  0  0  0  0  0  0  0  0  0  0
  150.9438  142.5567  157.9163 H   0  0  0  0  0  0  0  0  0  0  0  0
  152.3086  136.7932  156.8089 H   0  0  0  0  0  0  0  0  0  0  0  0
  150.7525  136.8255  157.6071 H   0  0  0  0  0  0  0  0  0  0  0  0
  149.5489  137.0508  155.5090 H   0  0  0  0  0  0  0  0  0  0  0  0
  150.0936  134.7353  156.2535 H   0  0  0  0  0  0  0  0  0  0  0  0
  151.6091  134.7962  155.3543 H   0  0  0  0  0  0  0  0  0  0  0  0
  150.0713  134.8529  154.4964 H   0  0  0  0  0  0  0  0  0  0  0  0
  1  2  1  0  0  0  0
  1 24  1  0  0  0  0
  1 25  1  0  0  0  0
  1 26  1  0  0  0  0
  2 23  1  0  0  0  0
  2  3  1  0  0  0  0
  2 27  1  0  0  0  0
  3  4  1  0  0  0  0
  3 28  1  0  0  0  0
  3 29  1  0  0  0  0
  4  5  1  0  0  0  0
  4 20  1  0  0  0  0
  5  6  1  0  0  0  0
  5 17  1  0  0  0  0
  5 30  1  0  0  0  0
  6  7  2  0  0  0  0
  6  8  1  0  0  0  0
  8  9  1  0  0  0  0
  8 31  1  0  0  0  0
  9 10  1  0  0  0  0
  9 32  1  0  0  0  0
  9 33  1  0  0  0  0
 10 11  1  0  0  0  0
 10 34  1  0  0  0  0
 10 35  1  0  0  0  0
 11 16  1  0  0  0  0
 11 12  2  0  0  0  0
 12 13  1  0  0  0  0
 12 36  1  0  0  0  0
 13 14  2  0  0  0  0
 13 37  1  0  0  0  0
 14 15  1  0  0  0  0
 14 38  1  0  0  0  0
 15 16  2  0  0  0  0
 15 39  1  0  0  0  0
 17 18  1  0  0  0  0
 17 19  1  0  0  0  0
 17 40  1  0  0  0  0
 18 41  1  0  0  0  0
 18 42  1  0  0  0  0
 18 43  1  0  0  0  0
 19 44  1  0  0  0  0
 19 45  1  0  0  0  0
 19 46  1  0  0  0  0
 20 21  1  0  0  0  0
 20 47  1  0  0  0  0
 20 48  1  0  0  0  0
 21 22  1  0  0  0  0
 21 23  1  0  0  0  0
 21 49  1  0  0  0  0
 22 50  1  0  0  0  0
 22 51  1  0  0  0  0
 22 52  1  0  0  0  0
M  END
> <s_m_source_file>
AV-unprocessed.smi

> <i_m_source_file_index>
1762

> <i_lp_mmshare_version>
43012

> <i_f3d_flags>
0

> <s_epik_input>
W0NIM11bQ0BASF0xW0NIMl1OKFtDSDJdW0NASF0oTzEpW0NIM10pW0NAQEhdKFtDSF0oW0NIM10pW0NIM10pQyg9TylbTkhdW0NIMl1bQ0gyXWMyW2NIXVtjSF1bY0hdW2NIXW4y

> <s_epik_cmdline>
J2VwaWtfcHl0aG9uJywgJy1waCcsICc3LjAnLCAnLXRuJywgJzgnLCAnLW1hJywgJzIwMCcsICctbWV0YWxfYmluZGluZycsICctaW1hZScsICc8aW5maWxlLm1hZT4nLCAnLW9tYWUnLCAnPG91dGZpbGUubWFlPic=

> <r_epik_Ionization_Penalty>
0.0399736

> <r_epik_Ionization_Penalty_Charging>
0

> <r_epik_Ionization_Penalty_Neutral>
0.0399736

> <r_epik_State_Penalty>
0.0317634

> <r_epik_Charging_Adjusted_Penalty>
0.0317634

> <i_epik_Tot_Q>
0

> <i_epik_Tot_abs_Q>
0

> <r_epik_Metal_State_Penalty>
0.0307795

> <b_epik_Metal_Only>
0

> <s_lp_Force_Field>
OPLS_2005

> <r_lp_Energy>
30.2117

> <b_lp_Chiralities_Consistent>
1

> <s_lp_Variant>
AV-unprocessed.smi:1762-6

> <Gold.Version>
5.8.1

> <Gold.Id.Protein>
6NUR|6NUR_protein|mol2

> <Gold.PLP.Fitness>
44.5127

> <Gold.PLP.PLP>
-39.4701

> <Gold.PLP.part.hbond>
-2.0000

> <Gold.PLP.part.metal>
0.0000

> <Gold.PLP.part.buried>
-5.8304

> <Gold.PLP.part.nonpolar>
-32.1733

> <Gold.PLP.part.repulsive>
0.2203

> <Gold.PLP.ligand.clash>
0.0000

> <Gold.PLP.ligand.torsion>
0.6635

> <Gold.PLP.Chemscore.Hbond>
2.0000

> <Gold.PLP.Chemscore.CHOScore>
0.0000

> <Gold.PLP.Chemscore.Metal>
0.0000

> <Gold.Chemscore.Hbonds>
donor molecule, donor type, donor heavy atom, donor atom, acceptor molecule, acceptor atom, score
      P1  H  7997  8008       L1     7  0.74

> <Gold.PLP.Chemscore.Internal.Correction>
0.3695

> <Gold.Rescore>
     Score         DG    S(hbond)    S(metal)    S(lipo)     H(rot)  DE(clash)    DE(int)     intcor
     19.80     -20.57       1.90        0.00     109.59       1.60       0.03       0.73       ----

> <Gold.Chemscore.Fitness>
19.8034

> <Gold.Chemscore.DG>
-20.5651

> <Gold.Chemscore.ZeroCoef>
-5.4800

> <Gold.Chemscore.Hbond>
1.9033

> <Gold.Chemscore.Metal>
0.0000

> <Gold.Chemscore.Lipo>
109.5902

> <Gold.Chemscore.Internal_Hbond>
0.0000

> <Gold.Chemscore.DEClash>
0.0311

> <Gold.Chemscore.DEInternal>
0.7306

> <Gold.Chemscore.Rot>
1.5993

> <Gold.Chemscore.Internal.Correction>
   9.000000E+99

> <Gold.Chemscore.Hbonds>
donor molecule, donor type, donor heavy atom, donor atom, acceptor molecule, acceptor atom, score
      P1  H  7997  8008       L1     7  0.71

> <Gold.Chemscore.Hbond.Weighted>
-6.3571

> <Gold.Chemscore.Metal.Weighted>
-0.0000

> <Gold.Chemscore.Lipo.Weighted>
-12.8221

> <Gold.Chemscore.Internal_Hbond.Weighted>
0.0000

> <Gold.Chemscore.DEClash.Weighted>
0.0311

> <Gold.Chemscore.DEInternal.Weighted>
0.7306

> <Gold.Chemscore.Rot.Weighted>
4.0941

> <Gold.Chemscore.Internal.Correction.Weighted>
   9.000000E+99

> <Gold.Protein.RotatedTorsions>
[ 6907 6896 6895 6894 ] final  -15.55 input  -60.11 | X-H torsion
[ 7974 7965 7964 7962 ] final   40.74 input  175.53 | X-H torsion
[ 8008 7997 7996 7995 ] final -109.10 input   59.86 | X-H torsion
[ 10167 10162 10161 10158 ] final   39.50 input  -65.29 | X-H torsion
[ 10718 10713 10712 10709 ] final  -88.97 input   66.30 | X-H torsion
[ 10763 10752 10751 10750 ] final   69.38 input  -60.55 | X-H torsion
[ 11005 11000 10999 10996 ] final  -49.28 input  -57.11 | X-H torsion

> <Gold.Protein.ActiveResidues>
 VAL166  LYS551  ARG553  GLY616  TRP617  ASP618  TYR619  PRO620  LYS621  CYS622 
 ASP623  PHE694  ASN695  SER759  ASP760  ASP761  ALA762  ILE779  LEU786  VAL792 
 PHE793  MET794  SER795  GLU796  ALA797  LYS798  CYS799  TRP800  GLU811  SER814 

> <Gold.Protein.RotatedAtoms>
  151.3222  135.0821  159.9309 H   0  0  0  0  0  0  0  0  0  0  0  0  # atno 6907 bound_to 6896
  152.5254  133.9627  159.7735 H   0  0  0  0  0  0  0  0  0  0  0  0  # atno 6908 bound_to 6896
  150.9950  133.6059  159.2733 H   0  0  0  0  0  0  0  0  0  0  0  0  # atno 6909 bound_to 6896
  146.0880  139.5497  142.9494 H   0  0  0  0  0  0  0  0  0  0  0  0  # atno 7974 bound_to 7965
  154.9542  140.0400  157.2159 H   0  0  0  0  0  0  0  0  0  0  0  0  # atno 8008 bound_to 7997
  154.7950  140.2842  155.5941 H   0  0  0  0  0  0  0  0  0  0  0  0  # atno 8009 bound_to 7997
  156.2954  140.2566  156.2805 H   0  0  0  0  0  0  0  0  0  0  0  0  # atno 8010 bound_to 7997
  140.3833  144.1950  150.6130 H   0  0  0  0  0  0  0  0  0  0  0  0  # atno 10167 bound_to 10162
  155.9984  130.4855  150.5100 H   0  0  0  0  0  0  0  0  0  0  0  0  # atno 10718 bound_to 10713
  153.0284  135.5213  154.7279 H   0  0  0  0  0  0  0  0  0  0  0  0  # atno 10763 bound_to 10752
  154.6315  135.2901  155.0212 H   0  0  0  0  0  0  0  0  0  0  0  0  # atno 10764 bound_to 10752
  154.1163  135.6614  153.4947 H   0  0  0  0  0  0  0  0  0  0  0  0  # atno 10765 bound_to 10752
  141.0750  133.6668  156.3562 H   0  0  0  0  0  0  0  0  0  0  0  0  # atno 11005 bound_to 11000
  145.6093  141.0342  143.1975 LP  0  0  0  0  0  0  0  0  0  0  0  0  # atno 17320 bound_to 7965
  144.7340  139.7641  143.7336 LP  0  0  0  0  0  0  0  0  0  0  0  0  # atno 17321 bound_to 7965
  140.4915  143.2346  151.8812 LP  0  0  0  0  0  0  0  0  0  0  0  0  # atno 17342 bound_to 10162
  139.4794  144.5161  151.8866 LP  0  0  0  0  0  0  0  0  0  0  0  0  # atno 17343 bound_to 10162
  157.3074  131.0657  151.2025 LP  0  0  0  0  0  0  0  0  0  0  0  0  # atno 17370 bound_to 10713
  157.2983  130.6830  149.6150 LP  0  0  0  0  0  0  0  0  0  0  0  0  # atno 17371 bound_to 10713
  140.5593  134.5950  157.5429 LP  0  0  0  0  0  0  0  0  0  0  0  0  # atno 17394 bound_to 11000
  139.9562  134.7531  156.0337 LP  0  0  0  0  0  0  0  0  0  0  0  0  # atno 17395 bound_to 11000

$$$$
