AV-unprocessed.smi:49|AV-procd|sdf|490|dock3
  -GOLD-   2262016353D 1   1.00000     0.00000
 Structure written by MMmdl.
 26 27  0  0  0  0  0  0  0  0  2 V2000
  153.2311  142.1290  160.8790 C   0  0  0  0  0  0  0  0  0  0  0  0
  153.0885  140.6955  160.3577 C   0  0  0  0  0  0  0  0  0  0  0  0
  152.3600  140.6406  159.0327 C   0  0  0  0  0  0  0  0  0  0  0  0
  152.8400  140.1354  157.9007 N   0  0  0  0  0  0  0  0  0  0  0  0
  151.8601  140.2681  156.9955 C   0  0  0  0  0  0  0  0  0  0  0  0
  151.9624  139.7913  155.5578 C   0  0  1  0  0  0  0  0  0  0  0  0
  152.3304  138.2986  155.4755 C   0  0  0  0  0  0  0  0  0  0  0  0
  151.0608  137.6318  154.9555 C   0  0  2  0  0  0  0  0  0  0  0  0
  151.3169  136.4450  154.2347 O   0  0  0  0  0  0  0  0  0  0  0  0
  150.4572  138.7241  154.0826 C   0  0  0  0  0  0  0  0  0  0  0  0
  150.7057  139.9558  154.8181 N   0  0  0  0  0  0  0  0  0  0  0  0
  150.7711  140.8203  157.5555 N   0  0  0  0  0  0  0  0  0  0  0  0
  151.0966  141.0440  158.8123 N   0  5  0  0  0  0  0  0  0  0  0  0
  152.7472  140.3723  155.0725 H   0  0  0  0  0  0  0  0  0  0  0  0
  150.3905  137.4136  155.7883 H   0  0  0  0  0  0  0  0  0  0  0  0
  153.7587  142.1455  161.8325 H   0  0  0  0  0  0  0  0  0  0  0  0
  152.2544  142.5899  161.0287 H   0  0  0  0  0  0  0  0  0  0  0  0
  153.7897  142.7476  160.1762 H   0  0  0  0  0  0  0  0  0  0  0  0
  154.0731  140.2429  160.2372 H   0  0  0  0  0  0  0  0  0  0  0  0
  152.5486  140.0863  161.0828 H   0  0  0  0  0  0  0  0  0  0  0  0
  153.1370  138.1742  154.7513 H   0  0  0  0  0  0  0  0  0  0  0  0
  152.6732  137.8781  156.4220 H   0  0  0  0  0  0  0  0  0  0  0  0
  151.0860  136.5904  153.3302 H   0  0  0  0  0  0  0  0  0  0  0  0
  150.9727  138.7610  153.1219 H   0  0  0  0  0  0  0  0  0  0  0  0
  149.3954  138.5713  153.8884 H   0  0  0  0  0  0  0  0  0  0  0  0
  150.7900  140.7242  154.1611 H   0  0  0  0  0  0  0  0  0  0  0  0
  1  2  1  0  0  0  0
  1 16  1  0  0  0  0
  1 17  1  0  0  0  0
  1 18  1  0  0  0  0
  2  3  1  0  0  0  0
  2 19  1  0  0  0  0
  2 20  1  0  0  0  0
  3 13  1  0  0  0  0
  3  4  2  0  0  0  0
  4  5  1  0  0  0  0
  5  6  1  0  0  0  0
  5 12  2  0  0  0  0
  6 14  1  0  0  0  0
  6 11  1  0  0  0  0
  6  7  1  0  0  0  0
  7  8  1  0  0  0  0
  7 21  1  0  0  0  0
  7 22  1  0  0  0  0
  8 15  1  0  0  0  0
  8  9  1  0  0  0  0
  8 10  1  0  0  0  0
  9 23  1  0  0  0  0
 10 11  1  0  0  0  0
 10 24  1  0  0  0  0
 10 25  1  0  0  0  0
 11 26  1  0  0  0  0
 12 13  1  0  0  0  0
M  CHG  1  13  -1
M  END
> <s_m_source_file>
AV-unprocessed.smi

> <i_m_source_file_index>
49

> <i_lp_mmshare_version>
43012

> <i_f3d_flags>
0

> <s_epik_input>
W0NIM11bQ0gyXWMxbmMobltuSF0xKVtDQEBIXTJbQ0gyXVtDQEBIXShbT0hdKVtDSDJdW05IXTI=

> <s_epik_cmdline>
J2VwaWtfcHl0aG9uJywgJy1waCcsICc3LjAnLCAnLXRuJywgJzgnLCAnLW1hJywgJzIwMCcsICctbWV0YWxfYmluZGluZycsICctaW1hZScsICc8aW5maWxlLm1hZT4nLCAnLW9tYWUnLCAnPG91dGZpbGUubWFlPic=

> <r_lp_tautomer_probability>
0.948284

> <r_epik_Ionization_Penalty>
20.726

> <r_epik_Ionization_Penalty_Charging>
17.6814

> <r_epik_Ionization_Penalty_Neutral>
3.04463

> <r_epik_State_Penalty>
7.95092

> <r_epik_Charging_Adjusted_Penalty>
25.6323

> <i_epik_Tot_Q>
-1

> <i_epik_Tot_abs_Q>
1

> <r_epik_Metal_State_Penalty>
4.146

> <b_epik_Metal_Only>
1

> <s_lp_Force_Field>
OPLS_2005

> <r_lp_Energy>
18.0563

> <b_lp_Chiralities_Consistent>
1

> <s_lp_Variant>
AV-unprocessed.smi:49-28

> <Gold.Version>
5.8.1

> <Gold.Id.Protein>
6NUR|6NUR_protein|mol2

> <Gold.PLP.Fitness>
35.5189

> <Gold.PLP.PLP>
-26.5887

> <Gold.PLP.part.hbond>
-4.0000

> <Gold.PLP.part.metal>
0.0000

> <Gold.PLP.part.buried>
-3.0478

> <Gold.PLP.part.nonpolar>
-19.6939

> <Gold.PLP.part.repulsive>
0.0153

> <Gold.PLP.ligand.clash>
0.0000

> <Gold.PLP.ligand.torsion>
0.0303

> <Gold.PLP.Chemscore.Hbond>
2.9920

> <Gold.PLP.Chemscore.CHOScore>
0.0000

> <Gold.PLP.Chemscore.Metal>
0.0000

> <Gold.Chemscore.Hbonds>
donor molecule, donor type, donor heavy atom, donor atom, acceptor molecule, acceptor atom, score
      L1  H     9    23       P1  7949  0.96
      P1  H  7997  8009       L1     4  1.00
      P1  H 10752 10763       L1     9  1.00

> <Gold.PLP.Chemscore.Internal.Correction>
0.0149

> <Gold.Rescore>
     Score         DG    S(hbond)    S(metal)    S(lipo)     H(rot)  DE(clash)    DE(int)     intcor
     14.54     -14.74       2.38        0.00      51.08       1.82       0.15       0.05       ----

> <Gold.Chemscore.Fitness>
14.5423

> <Gold.Chemscore.DG>
-14.7393

> <Gold.Chemscore.ZeroCoef>
-5.4800

> <Gold.Chemscore.Hbond>
2.3797

> <Gold.Chemscore.Metal>
0.0000

> <Gold.Chemscore.Lipo>
51.0842

> <Gold.Chemscore.Internal_Hbond>
0.0000

> <Gold.Chemscore.DEClash>
0.1460

> <Gold.Chemscore.DEInternal>
0.0510

> <Gold.Chemscore.Rot>
1.8226

> <Gold.Chemscore.Internal.Correction>
   9.000000E+99

> <Gold.Chemscore.Hbonds>
donor molecule, donor type, donor heavy atom, donor atom, acceptor molecule, acceptor atom, score
      L1  H     9    23       P1  7949  0.32
      P1  H  7997  8009       L1     4  0.57
      P1  H 10752 10763       L1     9  0.44

> <Gold.Chemscore.Hbond.Weighted>
-7.9482

> <Gold.Chemscore.Metal.Weighted>
-0.0000

> <Gold.Chemscore.Lipo.Weighted>
-5.9769

> <Gold.Chemscore.Internal_Hbond.Weighted>
0.0000

> <Gold.Chemscore.DEClash.Weighted>
0.1460

> <Gold.Chemscore.DEInternal.Weighted>
0.0510

> <Gold.Chemscore.Rot.Weighted>
4.6658

> <Gold.Chemscore.Internal.Correction.Weighted>
   9.000000E+99

> <Gold.Protein.RotatedTorsions>
[ 6907 6896 6895 6894 ] final  178.18 input  -60.11 | X-H torsion
[ 7974 7965 7964 7962 ] final   31.18 input  175.53 | X-H torsion
[ 8008 7997 7996 7995 ] final  162.84 input   59.86 | X-H torsion
[ 10167 10162 10161 10158 ] final  -47.42 input  -65.29 | X-H torsion
[ 10718 10713 10712 10709 ] final -169.53 input   66.30 | X-H torsion
[ 10763 10752 10751 10750 ] final   34.19 input  -60.55 | X-H torsion
[ 11005 11000 10999 10996 ] final  166.19 input  -57.11 | X-H torsion

> <Gold.Protein.ActiveResidues>
 VAL166  LYS551  ARG553  GLY616  TRP617  ASP618  TYR619  PRO620  LYS621  CYS622 
 ASP623  PHE694  ASN695  SER759  ASP760  ASP761  ALA762  ILE779  LEU786  VAL792 
 PHE793  MET794  SER795  GLU796  ALA797  LYS798  CYS799  TRP800  GLU811  SER814 

> <Gold.Protein.RotatedAtoms>
  151.6920  133.3311  159.3244 H   0  0  0  0  0  0  0  0  0  0  0  0  # atno 6907 bound_to 6896
  150.7775  134.6690  159.6391 H   0  0  0  0  0  0  0  0  0  0  0  0  # atno 6908 bound_to 6896
  152.3821  134.6577  160.0191 H   0  0  0  0  0  0  0  0  0  0  0  0  # atno 6909 bound_to 6896
  146.1566  139.6690  142.9062 H   0  0  0  0  0  0  0  0  0  0  0  0  # atno 7974 bound_to 7965
  156.2001  140.1739  156.7916 H   0  0  0  0  0  0  0  0  0  0  0  0  # atno 8008 bound_to 7997
  154.5581  140.0705  156.8806 H   0  0  0  0  0  0  0  0  0  0  0  0  # atno 8009 bound_to 7997
  155.2900  140.3354  155.4255 H   0  0  0  0  0  0  0  0  0  0  0  0  # atno 8010 bound_to 7997
  140.6775  143.2785  151.3925 H   0  0  0  0  0  0  0  0  0  0  0  0  # atno 10167 bound_to 10162
  156.7129  130.9240  151.3091 H   0  0  0  0  0  0  0  0  0  0  0  0  # atno 10718 bound_to 10713
  153.0176  135.6367  154.1630 H   0  0  0  0  0  0  0  0  0  0  0  0  # atno 10763 bound_to 10752
  154.1368  135.2837  155.3173 H   0  0  0  0  0  0  0  0  0  0  0  0  # atno 10764 bound_to 10752
  154.6154  135.5542  153.7579 H   0  0  0  0  0  0  0  0  0  0  0  0  # atno 10765 bound_to 10752
  140.2638  134.7881  157.3614 H   0  0  0  0  0  0  0  0  0  0  0  0  # atno 11005 bound_to 11000
  145.4693  141.0435  143.2707 LP  0  0  0  0  0  0  0  0  0  0  0  0  # atno 17320 bound_to 7965
  144.7971  139.6213  143.7088 LP  0  0  0  0  0  0  0  0  0  0  0  0  # atno 17321 bound_to 7965
  139.6077  144.1163  152.2266 LP  0  0  0  0  0  0  0  0  0  0  0  0  # atno 17342 bound_to 10162
  140.0567  144.5889  150.7294 LP  0  0  0  0  0  0  0  0  0  0  0  0  # atno 17343 bound_to 10162
  157.6929  130.9252  150.0563 LP  0  0  0  0  0  0  0  0  0  0  0  0  # atno 17370 bound_to 10713
  156.1648  130.3645  149.9247 LP  0  0  0  0  0  0  0  0  0  0  0  0  # atno 17371 bound_to 10713
  140.1439  134.4937  155.8011 LP  0  0  0  0  0  0  0  0  0  0  0  0  # atno 17394 bound_to 11000
  141.2187  133.6836  156.7258 LP  0  0  0  0  0  0  0  0  0  0  0  0  # atno 17395 bound_to 11000

$$$$
