AV-unprocessed.smi:113|AV-procd|sdf|1106|dock10
  -GOLD-   2262018223D 1   1.00000     0.00000
 Structure written by MMmdl.
 53 56  0  0  0  0  0  0  0  0  2 V2000
  153.5101  138.5909  159.0420 C   0  0  0  0  0  0  0  0  0  0  0  0
  153.0864  140.0283  159.2577 C   0  0  0  0  0  0  0  0  0  0  0  0
  152.4621  140.7861  158.2482 C   0  0  0  0  0  0  0  0  0  0  0  0
  152.0840  142.1279  158.5025 C   0  0  0  0  0  0  0  0  0  0  0  0
  151.4076  142.9786  157.4221 C   0  0  0  0  0  0  0  0  0  0  0  0
  150.1170  142.5164  156.9312 N   0  0  0  0  0  0  0  0  0  0  0  0
  148.9751  142.7688  157.7294 C   0  0  0  0  0  0  0  0  0  0  0  0
  149.0624  143.3519  158.8122 O   0  0  0  0  0  0  0  0  0  0  0  0
  147.7115  142.2680  157.1833 C   0  0  0  0  0  0  0  0  0  0  0  0
  146.4400  142.5117  157.9807 C   0  0  0  0  0  0  0  0  0  0  0  0
  147.7039  141.6055  156.0015 C   0  0  0  0  0  0  0  0  0  0  0  0
  148.8410  141.3560  155.2485 N   0  0  0  0  0  0  0  0  0  0  0  0
  148.7913  140.5881  153.9410 C   0  0  1  0  0  0  0  0  0  0  0  0
  149.3483  139.1764  154.1274 C   0  0  0  0  0  0  0  0  0  0  0  0
  148.1000  138.4066  154.5039 C   0  0  2  0  0  0  0  0  0  0  0  0
  148.2485  137.0237  154.2514 O   0  0  0  0  0  0  0  0  0  0  0  0
  147.0058  139.1071  153.6772 C   0  0  2  0  0  0  0  0  0  0  0  0
  146.7694  138.5430  152.2616 C   0  0  0  0  0  0  0  0  0  0  0  0
  147.9553  138.5974  151.4966 O   0  0  0  0  0  0  0  0  0  0  0  0
  147.4655  140.4524  153.5174 O   0  0  0  0  0  0  0  0  0  0  0  0
  150.0947  141.8055  155.7110 C   0  0  0  0  0  0  0  0  0  0  0  0
  151.1270  141.5647  155.0801 O   0  0  0  0  0  0  0  0  0  0  0  0
  152.3472  142.6697  159.7907 C   0  0  0  0  0  0  0  0  0  0  0  0
  152.0001  143.9981  160.1352 C   0  0  0  0  0  0  0  0  0  0  0  0
  152.2747  144.4982  161.4232 C   0  0  0  0  0  0  0  0  0  0  0  0
  152.8998  143.6813  162.3836 C   0  0  0  0  0  0  0  0  0  0  0  0
  153.2534  142.3589  162.0575 C   0  0  0  0  0  0  0  0  0  0  0  0
  152.9784  141.8561  160.7702 C   0  0  0  0  0  0  0  0  0  0  0  0
  153.3174  140.5858  160.4638 N   0  3  0  0  0  0  0  0  0  0  0  0
  153.5213  138.3419  157.9804 H   0  0  0  0  0  0  0  0  0  0  0  0
  152.8187  137.9141  159.5444 H   0  0  0  0  0  0  0  0  0  0  0  0
  154.5111  138.4206  159.4397 H   0  0  0  0  0  0  0  0  0  0  0  0
  152.2804  140.3261  157.2883 H   0  0  0  0  0  0  0  0  0  0  0  0
  151.2751  144.0018  157.7772 H   0  0  0  0  0  0  0  0  0  0  0  0
  152.0641  143.0781  156.5562 H   0  0  0  0  0  0  0  0  0  0  0  0
  145.5604  142.1104  157.4765 H   0  0  0  0  0  0  0  0  0  0  0  0
  146.2802  143.5806  158.1271 H   0  0  0  0  0  0  0  0  0  0  0  0
  146.5076  142.0373  158.9603 H   0  0  0  0  0  0  0  0  0  0  0  0
  146.7502  141.2506  155.6423 H   0  0  0  0  0  0  0  0  0  0  0  0
  149.3430  141.1921  153.2187 H   0  0  0  0  0  0  0  0  0  0  0  0
  149.7460  138.8357  153.1702 H   0  0  0  0  0  0  0  0  0  0  0  0
  150.1416  139.1335  154.8746 H   0  0  0  0  0  0  0  0  0  0  0  0
  147.8962  138.5476  155.5660 H   0  0  0  0  0  0  0  0  0  0  0  0
  148.8499  136.9128  153.5304 H   0  0  0  0  0  0  0  0  0  0  0  0
  146.0618  139.1244  154.2236 H   0  0  0  0  0  0  0  0  0  0  0  0
  146.4732  137.4957  152.3249 H   0  0  0  0  0  0  0  0  0  0  0  0
  145.9650  139.0708  151.7483 H   0  0  0  0  0  0  0  0  0  0  0  0
  148.3468  137.7373  151.4887 H   0  0  0  0  0  0  0  0  0  0  0  0
  151.5187  144.6542  159.4259 H   0  0  0  0  0  0  0  0  0  0  0  0
  152.0033  145.5133  161.6750 H   0  0  0  0  0  0  0  0  0  0  0  0
  153.1071  144.0695  163.3701 H   0  0  0  0  0  0  0  0  0  0  0  0
  153.7332  141.7366  162.7990 H   0  0  0  0  0  0  0  0  0  0  0  0
  153.7698  140.0189  161.1807 H   0  0  0  0  0  0  0  0  0  0  0  0
  1  2  1  0  0  0  0
  1 30  1  0  0  0  0
  1 31  1  0  0  0  0
  1 32  1  0  0  0  0
  2 29  1  0  0  0  0
  2  3  2  0  0  0  0
  3  4  1  0  0  0  0
  3 33  1  0  0  0  0
  4  5  1  0  0  0  0
  4 23  2  0  0  0  0
  5  6  1  0  0  0  0
  5 34  1  0  0  0  0
  5 35  1  0  0  0  0
  6 21  1  0  0  0  0
  6  7  1  0  0  0  0
  7  8  2  0  0  0  0
  7  9  1  0  0  0  0
  9 10  1  0  0  0  0
  9 11  2  0  0  0  0
 10 36  1  0  0  0  0
 10 37  1  0  0  0  0
 10 38  1  0  0  0  0
 11 12  1  0  0  0  0
 11 39  1  0  0  0  0
 12 13  1  0  0  0  0
 12 21  1  0  0  0  0
 13 20  1  0  0  0  0
 13 14  1  0  0  0  0
 13 40  1  0  0  0  0
 14 15  1  0  0  0  0
 14 41  1  0  0  0  0
 14 42  1  0  0  0  0
 15 16  1  0  0  0  0
 15 17  1  0  0  0  0
 15 43  1  0  0  0  0
 16 44  1  0  0  0  0
 17 18  1  0  0  0  0
 17 20  1  0  0  0  0
 17 45  1  0  0  0  0
 18 19  1  0  0  0  0
 18 46  1  0  0  0  0
 18 47  1  0  0  0  0
 19 48  1  0  0  0  0
 21 22  2  0  0  0  0
 23 28  1  0  0  0  0
 23 24  1  0  0  0  0
 24 25  2  0  0  0  0
 24 49  1  0  0  0  0
 25 26  1  0  0  0  0
 25 50  1  0  0  0  0
 26 27  2  0  0  0  0
 26 51  1  0  0  0  0
 27 28  1  0  0  0  0
 27 52  1  0  0  0  0
 28 29  2  0  0  0  0
 29 53  1  0  0  0  0
M  CHG  1  29   1
M  END
> <s_m_source_file>
AV-unprocessed.smi

> <i_m_source_file_index>
113

> <i_lp_mmshare_version>
43012

> <i_f3d_flags>
0

> <s_epik_input>
W2NIXTFbY0hdW2NIXVtjSF1jKGMxMiluYyhbQ0gzXSlbY0hdYzJbQ0gyXW4zYyg9TyljKFtDSDNdKVtjSF1uKGMzPU8pW0NAQEhdNFtDSDJdW0NAQEhdKFtPSF0pW0NASF0oTzQpW0NIMl1bT0hd

> <s_epik_cmdline>
J2VwaWtfcHl0aG9uJywgJy1waCcsICc3LjAnLCAnLXRuJywgJzgnLCAnLW1hJywgJzIwMCcsICctbWV0YWxfYmluZGluZycsICctaW1hZScsICc8aW5maWxlLm1hZT4nLCAnLW9tYWUnLCAnPG91dGZpbGUubWFlPic=

> <r_lp_tautomer_probability>
1

> <r_epik_Ionization_Penalty>
0.705471

> <r_epik_Ionization_Penalty_Charging>
0.70547

> <r_epik_Ionization_Penalty_Neutral>
1.19947e-07

> <r_epik_State_Penalty>
0.728574

> <r_epik_Charging_Adjusted_Penalty>
1.43404

> <i_epik_Tot_Q>
1

> <i_epik_Tot_abs_Q>
1

> <r_epik_Metal_State_Penalty>
4.61665

> <b_epik_Metal_Only>
0

> <s_epik_Chemistry_Notes>
This compound contains an acetal/aminal-like group ( X-CH(R)-Y where X, Y are N, S, or O) that may be acid/base labile, releasing an aldehyde.

> <s_lp_Force_Field>
OPLS_2005

> <r_lp_Energy>
45.4749

> <b_lp_Chiralities_Consistent>
1

> <s_lp_Variant>
AV-unprocessed.smi:113-16

> <Gold.Version>
5.8.1

> <Gold.Id.Protein>
6NUR|6NUR_protein|mol2

> <Gold.PLP.Fitness>
57.7354

> <Gold.PLP.PLP>
-51.4297

> <Gold.PLP.part.hbond>
-6.0000

> <Gold.PLP.part.metal>
0.0000

> <Gold.PLP.part.buried>
-2.5475

> <Gold.PLP.part.nonpolar>
-43.4648

> <Gold.PLP.part.repulsive>
0.4809

> <Gold.PLP.ligand.clash>
0.0000

> <Gold.PLP.ligand.torsion>
0.5750

> <Gold.PLP.Chemscore.Hbond>
2.4800

> <Gold.PLP.Chemscore.CHOScore>
0.0000

> <Gold.PLP.Chemscore.Metal>
0.0000

> <Gold.Chemscore.Hbonds>
donor molecule, donor type, donor heavy atom, donor atom, acceptor molecule, acceptor atom, score
      L1  H    16    44       P1  7948  0.86
      L1  H    19    48       P1  7948  1.00
      P1  H  7989  7998       L1    22  0.32

> <Gold.PLP.Chemscore.Internal.Correction>
0.0156

> <Gold.Rescore>
     Score         DG    S(hbond)    S(metal)    S(lipo)     H(rot)  DE(clash)    DE(int)     intcor
     18.94     -20.68       2.64        0.00     120.40       3.01       0.33       1.41       ----

> <Gold.Chemscore.Fitness>
18.9374

> <Gold.Chemscore.DG>
-20.6810

> <Gold.Chemscore.ZeroCoef>
-5.4800

> <Gold.Chemscore.Hbond>
2.6422

> <Gold.Chemscore.Metal>
0.0000

> <Gold.Chemscore.Lipo>
120.4017

> <Gold.Chemscore.Internal_Hbond>
0.0000

> <Gold.Chemscore.DEClash>
0.3338

> <Gold.Chemscore.DEInternal>
1.4098

> <Gold.Chemscore.Rot>
3.0120

> <Gold.Chemscore.Internal.Correction>
   9.000000E+99

> <Gold.Chemscore.Hbonds>
donor molecule, donor type, donor heavy atom, donor atom, acceptor molecule, acceptor atom, score
      L1  H    16    44       P1  7948  0.85
      L1  H    19    48       P1  7948  0.98
      P1  H  7989  7998       L1    22  0.32

> <Gold.Chemscore.Hbond.Weighted>
-8.8248

> <Gold.Chemscore.Metal.Weighted>
-0.0000

> <Gold.Chemscore.Lipo.Weighted>
-14.0870

> <Gold.Chemscore.Internal_Hbond.Weighted>
0.0000

> <Gold.Chemscore.DEClash.Weighted>
0.3338

> <Gold.Chemscore.DEInternal.Weighted>
1.4098

> <Gold.Chemscore.Rot.Weighted>
7.7108

> <Gold.Chemscore.Internal.Correction.Weighted>
   9.000000E+99

> <Gold.Protein.RotatedTorsions>
[ 6907 6896 6895 6894 ] final   94.95 input  -60.11 | X-H torsion
[ 7974 7965 7964 7962 ] final -138.85 input  175.53 | X-H torsion
[ 8008 7997 7996 7995 ] final    9.40 input   59.86 | X-H torsion
[ 10167 10162 10161 10158 ] final -167.51 input  -65.29 | X-H torsion
[ 10718 10713 10712 10709 ] final -177.10 input   66.30 | X-H torsion
[ 10763 10752 10751 10750 ] final   55.90 input  -60.55 | X-H torsion
[ 11005 11000 10999 10996 ] final -120.58 input  -57.11 | X-H torsion

> <Gold.Protein.ActiveResidues>
 VAL166  LYS551  ARG553  GLY616  TRP617  ASP618  TYR619  PRO620  LYS621  CYS622 
 ASP623  PHE694  ASN695  SER759  ASP760  ASP761  ALA762  ILE779  LEU786  VAL792 
 PHE793  MET794  SER795  GLU796  ALA797  LYS798  CYS799  TRP800  GLU811  SER814 

> <Gold.Protein.RotatedAtoms>
  152.5447  134.1115  159.8360 H   0  0  0  0  0  0  0  0  0  0  0  0  # atno 6907 bound_to 6896
  151.1181  133.5117  159.2610 H   0  0  0  0  0  0  0  0  0  0  0  0  # atno 6908 bound_to 6896
  151.1810  135.0370  159.8847 H   0  0  0  0  0  0  0  0  0  0  0  0  # atno 6909 bound_to 6896
  144.8725  140.6387  143.5258 H   0  0  0  0  0  0  0  0  0  0  0  0  # atno 7974 bound_to 7965
  154.7796  140.2816  155.6074 H   0  0  0  0  0  0  0  0  0  0  0  0  # atno 8008 bound_to 7997
  156.2947  140.2625  156.2546 H   0  0  0  0  0  0  0  0  0  0  0  0  # atno 8009 bound_to 7997
  154.9801  140.0375  157.2263 H   0  0  0  0  0  0  0  0  0  0  0  0  # atno 8010 bound_to 7997
  139.6045  144.0942  152.1778 H   0  0  0  0  0  0  0  0  0  0  0  0  # atno 10167 bound_to 10162
  156.8245  130.9631  151.3110 H   0  0  0  0  0  0  0  0  0  0  0  0  # atno 10718 bound_to 10713
  152.9823  135.5695  154.5141 H   0  0  0  0  0  0  0  0  0  0  0  0  # atno 10763 bound_to 10752
  154.4640  135.2782  155.1694 H   0  0  0  0  0  0  0  0  0  0  0  0  # atno 10764 bound_to 10752
  154.3270  135.6257  153.5587 H   0  0  0  0  0  0  0  0  0  0  0  0  # atno 10765 bound_to 10752
  141.0133  134.0232  157.3384 H   0  0  0  0  0  0  0  0  0  0  0  0  # atno 11005 bound_to 11000
  145.4105  139.1581  143.4128 LP  0  0  0  0  0  0  0  0  0  0  0  0  # atno 17320 bound_to 7965
  146.2940  140.4208  142.8729 LP  0  0  0  0  0  0  0  0  0  0  0  0  # atno 17321 bound_to 7965
  140.0546  144.5905  150.7309 LP  0  0  0  0  0  0  0  0  0  0  0  0  # atno 17342 bound_to 10162
  140.7274  143.2651  151.4072 LP  0  0  0  0  0  0  0  0  0  0  0  0  # atno 17343 bound_to 10162
  157.6439  130.8828  149.9501 LP  0  0  0  0  0  0  0  0  0  0  0  0  # atno 17370 bound_to 10713
  156.0969  130.3658  150.0289 LP  0  0  0  0  0  0  0  0  0  0  0  0  # atno 17371 bound_to 10713
  139.9102  135.0188  156.7660 LP  0  0  0  0  0  0  0  0  0  0  0  0  # atno 17394 bound_to 11000
  140.6697  133.9571  155.7850 LP  0  0  0  0  0  0  0  0  0  0  0  0  # atno 17395 bound_to 11000

$$$$
