AV-unprocessed.smi:195|AV-procd|sdf|1525|dock10
  -GOLD-   2262019373D 1   1.00000     0.00000
 Structure written by MMmdl.
 45 48  0  0  0  0  0  0  0  0  1 V2000
  152.4258  142.5990  159.5434 N   0  0  0  0  0  0  0  0  0  0  0  0
  151.5030  142.1125  159.0427 C   0  0  0  0  0  0  0  0  0  0  0  0
  150.3287  141.4941  158.4065 C   0  0  0  0  0  0  0  0  0  0  0  0
  150.4591  141.3644  156.8863 C   0  0  0  0  0  0  0  0  0  0  0  0
  150.7280  142.6822  156.4542 O   0  0  0  0  0  0  0  0  0  0  0  0
  151.4172  140.3001  156.3443 C   0  0  0  0  0  0  0  0  0  0  0  0
  150.2682  139.5710  155.8178 N   0  0  0  0  0  0  0  0  0  0  0  0
  150.0204  138.3362  156.4827 C   0  0  0  0  0  0  0  0  0  0  0  0
  149.8612  138.2699  157.8325 N   0  0  0  0  0  0  0  0  0  0  0  0
  149.6321  137.1022  158.4409 C   0  0  0  0  0  0  0  0  0  0  0  0
  149.5226  135.8884  157.8996 N   0  0  0  0  0  0  0  0  0  0  0  0
  149.6793  135.9408  156.5467 C   0  0  0  0  0  0  0  0  0  0  0  0
  149.9316  137.1084  155.7723 C   0  0  0  0  0  0  0  0  0  0  0  0
  150.0385  136.7714  154.4286 N   0  0  0  0  0  0  0  0  0  0  0  0
  149.8544  135.4791  154.4084 C   0  0  0  0  0  0  0  0  0  0  0  0
  149.6325  134.8997  155.6368 N   0  0  0  0  0  0  0  0  0  0  0  0
  149.3964  133.4906  155.8996 C   0  0  0  0  0  0  0  0  0  0  0  0
  150.6702  132.6389  155.7380 C   0  0  1  0  0  0  0  0  0  0  0  0
  151.3392  132.5581  156.9820 O   0  0  0  0  0  0  0  0  0  0  0  0
  150.3558  131.2133  155.2494 C   0  0  2  0  0  0  0  0  0  0  0  0
  151.5869  130.3757  154.8939 C   0  0  0  0  0  0  0  0  0  0  0  0
  151.0737  129.3940  153.8504 C   0  0  0  0  0  0  0  0  0  0  0  0
  149.6938  129.9370  153.4723 C   0  0  0  0  0  0  0  0  0  0  0  0
  149.6602  131.2496  154.0125 O   0  0  0  0  0  0  0  0  0  0  0  0
  149.3370  140.6539  156.1219 C   0  0  0  0  0  0  0  0  0  0  0  0
  150.1696  140.5211  158.8730 H   0  0  0  0  0  0  0  0  0  0  0  0
  149.4669  142.1017  158.6774 H   0  0  0  0  0  0  0  0  0  0  0  0
  149.9369  143.1826  156.5853 H   0  0  0  0  0  0  0  0  0  0  0  0
  152.0666  140.6625  155.5465 H   0  0  0  0  0  0  0  0  0  0  0  0
  151.9800  139.7686  157.1135 H   0  0  0  0  0  0  0  0  0  0  0  0
  149.5213  137.1478  159.5143 H   0  0  0  0  0  0  0  0  0  0  0  0
  149.8767  134.9081  153.4915 H   0  0  0  0  0  0  0  0  0  0  0  0
  148.9886  133.3822  156.9056 H   0  0  0  0  0  0  0  0  0  0  0  0
  148.6222  133.1461  155.2132 H   0  0  0  0  0  0  0  0  0  0  0  0
  151.3399  133.1248  155.0271 H   0  0  0  0  0  0  0  0  0  0  0  0
  152.1404  133.0555  156.9236 H   0  0  0  0  0  0  0  0  0  0  0  0
  149.7434  130.6833  155.9822 H   0  0  0  0  0  0  0  0  0  0  0  0
  152.3592  131.0056  154.4506 H   0  0  0  0  0  0  0  0  0  0  0  0
  152.0190  129.8804  155.7639 H   0  0  0  0  0  0  0  0  0  0  0  0
  151.7413  129.3663  152.9885 H   0  0  0  0  0  0  0  0  0  0  0  0
  150.9964  128.3818  154.2489 H   0  0  0  0  0  0  0  0  0  0  0  0
  149.5263  129.9478  152.3950 H   0  0  0  0  0  0  0  0  0  0  0  0
  148.9065  129.3393  153.9340 H   0  0  0  0  0  0  0  0  0  0  0  0
  148.4767  140.3702  156.7295 H   0  0  0  0  0  0  0  0  0  0  0  0
  149.0286  141.1820  155.2189 H   0  0  0  0  0  0  0  0  0  0  0  0
  1  2  3  0  0  0  0
  2  3  1  0  0  0  0
  3  4  1  0  0  0  0
  3 26  1  0  0  0  0
  3 27  1  0  0  0  0
  4 25  1  0  0  0  0
  4  5  1  0  0  0  0
  4  6  1  0  0  0  0
  5 28  1  0  0  0  0
  6  7  1  0  0  0  0
  6 29  1  0  0  0  0
  6 30  1  0  0  0  0
  7  8  1  0  0  0  0
  7 25  1  0  0  0  0
  8 13  1  0  0  0  0
  8  9  2  0  0  0  0
  9 10  1  0  0  0  0
 10 11  2  0  0  0  0
 10 31  1  0  0  0  0
 11 12  1  0  0  0  0
 12 16  1  0  0  0  0
 12 13  2  0  0  0  0
 13 14  1  0  0  0  0
 14 15  2  0  0  0  0
 15 16  1  0  0  0  0
 15 32  1  0  0  0  0
 16 17  1  0  0  0  0
 17 18  1  0  0  0  0
 17 33  1  0  0  0  0
 17 34  1  0  0  0  0
 18 19  1  0  0  0  0
 18 20  1  0  0  0  0
 18 35  1  0  0  0  0
 19 36  1  0  0  0  0
 20 24  1  0  0  0  0
 20 21  1  0  0  0  0
 20 37  1  0  0  0  0
 21 22  1  0  0  0  0
 21 38  1  0  0  0  0
 21 39  1  0  0  0  0
 22 23  1  0  0  0  0
 22 40  1  0  0  0  0
 22 41  1  0  0  0  0
 23 24  1  0  0  0  0
 23 42  1  0  0  0  0
 23 43  1  0  0  0  0
 25 44  1  0  0  0  0
 25 45  1  0  0  0  0
M  END
> <s_m_source_file>
AV-unprocessed.smi

> <i_m_source_file_index>
195

> <i_lp_mmshare_version>
43012

> <i_f3d_flags>
0

> <s_epik_input>
TiNDW0NIMl1DMShbT0hdKVtDSDJdTihbQ0gyXTEpYyhuW2NIXW4yKWMoYzIzKW5bY0hdbjNbQ0gyXVtDQEhdKFtPSF0pW0NAQEhdNFtDSDJdW0NIMl1bQ0gyXU80

> <s_epik_cmdline>
J2VwaWtfcHl0aG9uJywgJy1waCcsICc3LjAnLCAnLXRuJywgJzgnLCAnLW1hJywgJzIwMCcsICctbWV0YWxfYmluZGluZycsICctaW1hZScsICc8aW5maWxlLm1hZT4nLCAnLW9tYWUnLCAnPG91dGZpbGUubWFlPic=

> <r_lp_tautomer_probability>
1

> <r_epik_Ionization_Penalty>
0.00307146

> <r_epik_Ionization_Penalty_Charging>
0

> <r_epik_Ionization_Penalty_Neutral>
0.00307146

> <r_epik_State_Penalty>
0.0020279

> <r_epik_Charging_Adjusted_Penalty>
0.0020279

> <i_epik_Tot_Q>
0

> <i_epik_Tot_abs_Q>
0

> <r_epik_Metal_State_Penalty>
-0

> <b_epik_Metal_Only>
0

> <s_lp_Force_Field>
OPLS_2005

> <r_lp_Energy>
44.0633

> <b_lp_Chiralities_Consistent>
1

> <s_lp_Variant>
AV-unprocessed.smi:195-2

> <Gold.Version>
5.8.1

> <Gold.Id.Protein>
6NUR|6NUR_protein|mol2

> <Gold.PLP.Fitness>
39.6799

> <Gold.PLP.PLP>
-33.1236

> <Gold.PLP.part.hbond>
-3.0000

> <Gold.PLP.part.metal>
0.0000

> <Gold.PLP.part.buried>
-6.8275

> <Gold.PLP.part.nonpolar>
-24.0147

> <Gold.PLP.part.repulsive>
0.1946

> <Gold.PLP.ligand.clash>
0.0000

> <Gold.PLP.ligand.torsion>
0.7096

> <Gold.PLP.Chemscore.Hbond>
2.5120

> <Gold.PLP.Chemscore.CHOScore>
0.0492

> <Gold.PLP.Chemscore.Metal>
0.0000

> <Gold.Chemscore.Hbonds>
donor molecule, donor type, donor heavy atom, donor atom, acceptor molecule, acceptor atom, score
      L1  H     5    28       P1  8028  0.69
      P1  H  6896  6907       L1    19  0.02
      L1  C    15    32       P1  7948  0.08

> <Gold.PLP.Chemscore.Internal.Correction>
0.2920

> <Gold.Rescore>
     Score         DG    S(hbond)    S(metal)    S(lipo)     H(rot)  DE(clash)    DE(int)     intcor
      9.83     -10.56       2.37        0.00      57.30       3.72       0.05       0.68       ----

> <Gold.Chemscore.Fitness>
9.8328

> <Gold.Chemscore.DG>
-10.5634

> <Gold.Chemscore.ZeroCoef>
-5.4800

> <Gold.Chemscore.Hbond>
2.3667

> <Gold.Chemscore.Metal>
0.0000

> <Gold.Chemscore.Lipo>
57.3002

> <Gold.Chemscore.Internal_Hbond>
0.0000

> <Gold.Chemscore.DEClash>
0.0544

> <Gold.Chemscore.DEInternal>
0.6762

> <Gold.Chemscore.Rot>
3.7210

> <Gold.Chemscore.Internal.Correction>
   9.000000E+99

> <Gold.Chemscore.Hbonds>
donor molecule, donor type, donor heavy atom, donor atom, acceptor molecule, acceptor atom, score
      L1  H     5    28       P1  8028  0.66

> <Gold.Chemscore.Hbond.Weighted>
-7.9049

> <Gold.Chemscore.Metal.Weighted>
-0.0000

> <Gold.Chemscore.Lipo.Weighted>
-6.7041

> <Gold.Chemscore.Internal_Hbond.Weighted>
0.0000

> <Gold.Chemscore.DEClash.Weighted>
0.0544

> <Gold.Chemscore.DEInternal.Weighted>
0.6762

> <Gold.Chemscore.Rot.Weighted>
9.5256

> <Gold.Chemscore.Internal.Correction.Weighted>
   9.000000E+99

> <Gold.Protein.RotatedTorsions>
[ 6907 6896 6895 6894 ] final -163.00 input  -60.11 | X-H torsion
[ 7974 7965 7964 7962 ] final  -63.94 input  175.53 | X-H torsion
[ 8008 7997 7996 7995 ] final   96.27 input   59.86 | X-H torsion
[ 10167 10162 10161 10158 ] final  -32.87 input  -65.29 | X-H torsion
[ 10718 10713 10712 10709 ] final  158.91 input   66.30 | X-H torsion
[ 10763 10752 10751 10750 ] final  -21.01 input  -60.55 | X-H torsion
[ 11005 11000 10999 10996 ] final   27.46 input  -57.11 | X-H torsion

> <Gold.Protein.ActiveResidues>
 VAL166  LYS551  ARG553  GLY616  TRP617  ASP618  TYR619  PRO620  LYS621  CYS622 
 ASP623  PHE694  ASN695  SER759  ASP760  ASP761  ALA762  ILE779  LEU786  VAL792 
 PHE793  MET794  SER795  GLU796  ALA797  LYS798  CYS799  TRP800  GLU811  SER814 

> <Gold.Protein.RotatedAtoms>
  151.3892  133.3794  159.2718 H   0  0  0  0  0  0  0  0  0  0  0  0  # atno 6907 bound_to 6896
  150.9518  134.8918  159.7687 H   0  0  0  0  0  0  0  0  0  0  0  0  # atno 6908 bound_to 6896
  152.5115  134.3847  159.9415 H   0  0  0  0  0  0  0  0  0  0  0  0  # atno 6909 bound_to 6896
  145.7728  140.8803  143.0371 H   0  0  0  0  0  0  0  0  0  0  0  0  # atno 7974 bound_to 7965
  156.0778  140.3275  155.7656 H   0  0  0  0  0  0  0  0  0  0  0  0  # atno 8008 bound_to 7997
  155.5201  140.0584  157.2925 H   0  0  0  0  0  0  0  0  0  0  0  0  # atno 8009 bound_to 7997
  154.4565  140.1945  156.0382 H   0  0  0  0  0  0  0  0  0  0  0  0  # atno 8010 bound_to 7997
  140.7214  143.3663  151.1865 H   0  0  0  0  0  0  0  0  0  0  0  0  # atno 10167 bound_to 10162
  157.1714  131.0611  151.2181 H   0  0  0  0  0  0  0  0  0  0  0  0  # atno 10718 bound_to 10713
  153.6294  135.6989  153.5281 H   0  0  0  0  0  0  0  0  0  0  0  0  # atno 10763 bound_to 10752
  153.2872  135.4168  155.1133 H   0  0  0  0  0  0  0  0  0  0  0  0  # atno 10764 bound_to 10752
  154.8525  135.3616  154.5836 H   0  0  0  0  0  0  0  0  0  0  0  0  # atno 10765 bound_to 10752
  140.3260  134.2490  155.7709 H   0  0  0  0  0  0  0  0  0  0  0  0  # atno 11005 bound_to 11000
  144.6809  139.9879  143.7484 LP  0  0  0  0  0  0  0  0  0  0  0  0  # atno 17320 bound_to 7965
  146.0153  139.3204  143.0846 LP  0  0  0  0  0  0  0  0  0  0  0  0  # atno 17321 bound_to 7965
  139.7225  143.9201  152.2990 LP  0  0  0  0  0  0  0  0  0  0  0  0  # atno 17342 bound_to 10162
  139.8962  144.6937  150.8715 LP  0  0  0  0  0  0  0  0  0  0  0  0  # atno 17343 bound_to 10162
  157.4040  130.7348  149.6788 LP  0  0  0  0  0  0  0  0  0  0  0  0  # atno 17370 bound_to 10713
  155.9738  130.4113  150.3975 LP  0  0  0  0  0  0  0  0  0  0  0  0  # atno 17371 bound_to 10713
  141.2075  133.7804  157.0115 LP  0  0  0  0  0  0  0  0  0  0  0  0  # atno 17394 bound_to 11000
  140.0901  134.9597  157.1762 LP  0  0  0  0  0  0  0  0  0  0  0  0  # atno 17395 bound_to 11000

$$$$
