AV-unprocessed.smi:2822|AV-procd|sdf|10862|dock1
  -GOLD-   2272015303D 1   1.00000     0.00000
 Structure written by MMmdl.
 41 43  0  0  0  0  0  0  0  0  3 V2000
  149.8992  138.1235  154.5406 Cl  0  0  0  0  0  0  0  0  0  0  0  0
  148.9130  139.5258  154.3144 C   0  0  0  0  0  0  0  0  0  0  0  0
  149.3393  140.7608  154.8454 C   0  0  0  0  0  0  0  0  0  0  0  0
  148.5814  141.8653  154.6796 N   0  3  0  0  0  0  0  0  0  0  0  0
  147.4071  141.8502  154.0142 C   0  0  0  0  0  0  0  0  0  0  0  0
  146.9280  140.6457  153.4601 C   0  0  0  0  0  0  0  0  0  0  0  0
  147.6863  139.4571  153.6084 C   0  0  0  0  0  0  0  0  0  0  0  0
  147.2649  138.2267  153.0798 N   0  0  0  0  0  0  0  0  0  0  0  0
  145.8500  137.9172  152.9381 C   0  0  0  0  0  0  0  0  0  0  0  0
  145.6285  136.4577  152.5155 C   0  0  2  0  0  0  0  0  0  0  0  0
  145.8392  136.2722  150.9959 C   0  0  0  0  0  0  0  0  0  0  0  0
  145.5070  134.8932  150.5626 N   0  3  1  0  0  0  0  0  0  0  0  0
  146.5641  133.8992  150.8943 C   0  0  0  0  0  0  0  0  0  0  0  0
  146.2037  132.5021  150.3693 C   0  0  0  0  0  0  0  0  0  0  0  0
  144.8476  132.0493  150.9207 C   0  0  0  0  0  0  0  0  0  0  0  0
  143.7696  133.0822  150.5652 C   0  0  0  0  0  0  0  0  0  0  0  0
  144.1435  134.5085  151.0218 C   0  0  1  0  0  0  0  0  0  0  0  0
  143.9943  134.7389  152.5404 C   0  0  0  0  0  0  0  0  0  0  0  0
  144.2880  136.0991  152.8392 O   0  0  0  0  0  0  0  0  0  0  0  0
  150.2594  140.8970  155.3950 H   0  0  0  0  0  0  0  0  0  0  0  0
  146.8894  142.7958  153.9439 H   0  0  0  0  0  0  0  0  0  0  0  0
  145.9885  140.6552  152.9282 H   0  0  0  0  0  0  0  0  0  0  0  0
  147.9285  137.4659  153.0304 H   0  0  0  0  0  0  0  0  0  0  0  0
  145.3298  138.1204  153.8750 H   0  0  0  0  0  0  0  0  0  0  0  0
  145.4273  138.5786  152.1810 H   0  0  0  0  0  0  0  0  0  0  0  0
  146.3222  135.8230  153.0691 H   0  0  0  0  0  0  0  0  0  0  0  0
  145.1947  136.9638  150.4515 H   0  0  0  0  0  0  0  0  0  0  0  0
  146.8635  136.5177  150.7123 H   0  0  0  0  0  0  0  0  0  0  0  0
  147.5089  134.2190  150.4533 H   0  0  0  0  0  0  0  0  0  0  0  0
  146.7231  133.8520  151.9715 H   0  0  0  0  0  0  0  0  0  0  0  0
  146.1743  132.5133  149.2789 H   0  0  0  0  0  0  0  0  0  0  0  0
  146.9778  131.7876  150.6512 H   0  0  0  0  0  0  0  0  0  0  0  0
  144.5821  131.0748  150.5095 H   0  0  0  0  0  0  0  0  0  0  0  0
  144.9074  131.9237  152.0022 H   0  0  0  0  0  0  0  0  0  0  0  0
  143.6285  133.0822  149.4833 H   0  0  0  0  0  0  0  0  0  0  0  0
  142.8109  132.7871  150.9929 H   0  0  0  0  0  0  0  0  0  0  0  0
  143.4444  135.1880  150.5317 H   0  0  0  0  0  0  0  0  0  0  0  0
  142.9709  134.5309  152.8531 H   0  0  0  0  0  0  0  0  0  0  0  0
  144.6403  134.0787  153.1201 H   0  0  0  0  0  0  0  0  0  0  0  0
  145.4691  134.9135  149.5533 H   0  0  0  0  0  0  0  0  0  0  0  0
  148.9103  142.7477  155.0731 H   0  0  0  0  0  0  0  0  0  0  0  0
  1  2  1  0  0  0  0
  2  7  1  0  0  0  0
  2  3  2  0  0  0  0
  3  4  1  0  0  0  0
  3 20  1  0  0  0  0
  4  5  2  0  0  0  0
  4 41  1  0  0  0  0
  5  6  1  0  0  0  0
  5 21  1  0  0  0  0
  6  7  2  0  0  0  0
  6 22  1  0  0  0  0
  7  8  1  0  0  0  0
  8  9  1  0  0  0  0
  8 23  1  0  0  0  0
  9 10  1  0  0  0  0
  9 24  1  0  0  0  0
  9 25  1  0  0  0  0
 10 19  1  0  0  0  0
 10 11  1  0  0  0  0
 10 26  1  0  0  0  0
 11 12  1  0  0  0  0
 11 27  1  0  0  0  0
 11 28  1  0  0  0  0
 12 17  1  0  0  0  0
 12 13  1  0  0  0  0
 12 40  1  0  0  0  0
 13 14  1  0  0  0  0
 13 29  1  0  0  0  0
 13 30  1  0  0  0  0
 14 15  1  0  0  0  0
 14 31  1  0  0  0  0
 14 32  1  0  0  0  0
 15 16  1  0  0  0  0
 15 33  1  0  0  0  0
 15 34  1  0  0  0  0
 16 17  1  0  0  0  0
 16 35  1  0  0  0  0
 16 36  1  0  0  0  0
 17 18  1  0  0  0  0
 17 37  1  0  0  0  0
 18 19  1  0  0  0  0
 18 38  1  0  0  0  0
 18 39  1  0  0  0  0
M  CHG  1   4   1
M  CHG  1  12   1
M  END
> <s_m_source_file>
AV-unprocessed.smi

> <i_m_source_file_index>
2822

> <i_lp_mmshare_version>
43012

> <i_f3d_flags>
0

> <s_epik_input>
Q2xjMVtjSF1uW2NIXVtjSF1jMVtOSF1bQ0gyXVtDQEhdKFtDSDJdMilPW0NIMl1bQ0BASF0oTjIzKVtDSDJdW0NIMl1bQ0gyXVtDSDJdMw==

> <s_epik_cmdline>
J2VwaWtfcHl0aG9uJywgJy1waCcsICc3LjAnLCAnLXRuJywgJzgnLCAnLW1hJywgJzIwMCcsICctbWV0YWxfYmluZGluZycsICctaW1hZScsICc8aW5maWxlLm1hZT4nLCAnLW9tYWUnLCAnPG91dGZpbGUubWFlPic=

> <r_lp_tautomer_probability>
1

> <r_epik_Ionization_Penalty>
0.254999

> <r_epik_Ionization_Penalty_Charging>
0.254956

> <r_epik_Ionization_Penalty_Neutral>
4.33524e-05

> <r_epik_State_Penalty>
0.230978

> <r_epik_Charging_Adjusted_Penalty>
0.485934

> <i_epik_Tot_Q>
2

> <i_epik_Tot_abs_Q>
2

> <r_epik_Metal_State_Penalty>
3.47007

> <b_epik_Metal_Only>
0

> <s_lp_Force_Field>
OPLS_2005

> <r_lp_Energy>
40.6949

> <b_lp_Chiralities_Consistent>
1

> <s_lp_Variant>
AV-unprocessed.smi:2822-3

> <Gold.Version>
5.8.1

> <Gold.Id.Protein>
6NUR|6NUR_protein|mol2

> <Gold.PLP.Fitness>
47.1295

> <Gold.PLP.PLP>
-35.9512

> <Gold.PLP.part.hbond>
-3.0000

> <Gold.PLP.part.metal>
0.0000

> <Gold.PLP.part.buried>
-3.0225

> <Gold.PLP.part.nonpolar>
-30.6445

> <Gold.PLP.part.repulsive>
0.4295

> <Gold.PLP.ligand.clash>
0.0000

> <Gold.PLP.ligand.torsion>
0.4008

> <Gold.PLP.Chemscore.Hbond>
3.9920

> <Gold.PLP.Chemscore.CHOScore>
0.0000

> <Gold.PLP.Chemscore.Metal>
0.0000

> <Gold.Chemscore.Hbonds>
donor molecule, donor type, donor heavy atom, donor atom, acceptor molecule, acceptor atom, score
      L1  H     4    41       P1  8028  1.92
      L1  H     8    23       P1  7948  0.93
      L1  H    12    40       P1  7921  0.99

> <Gold.PLP.Chemscore.Internal.Correction>
0.0039

> <Gold.Rescore>
     Score         DG    S(hbond)    S(metal)    S(lipo)     H(rot)  DE(clash)    DE(int)     intcor
     23.52     -24.09       2.84        0.00     104.03       1.20       0.16       0.41       ----

> <Gold.Chemscore.Fitness>
23.5208

> <Gold.Chemscore.DG>
-24.0873

> <Gold.Chemscore.ZeroCoef>
-5.4800

> <Gold.Chemscore.Hbond>
2.8437

> <Gold.Chemscore.Metal>
0.0000

> <Gold.Chemscore.Lipo>
104.0319

> <Gold.Chemscore.Internal_Hbond>
0.0000

> <Gold.Chemscore.DEClash>
0.1586

> <Gold.Chemscore.DEInternal>
0.4078

> <Gold.Chemscore.Rot>
1.1962

> <Gold.Chemscore.Internal.Correction>
   9.000000E+99

> <Gold.Chemscore.Hbonds>
donor molecule, donor type, donor heavy atom, donor atom, acceptor molecule, acceptor atom, score
      L1  H     4    41       P1  8028  0.90
      L1  H     8    23       P1  7948  0.88
      L1  H    12    40       P1  7921  0.92

> <Gold.Chemscore.Hbond.Weighted>
-9.4978

> <Gold.Chemscore.Metal.Weighted>
-0.0000

> <Gold.Chemscore.Lipo.Weighted>
-12.1717

> <Gold.Chemscore.Internal_Hbond.Weighted>
0.0000

> <Gold.Chemscore.DEClash.Weighted>
0.1586

> <Gold.Chemscore.DEInternal.Weighted>
0.4078

> <Gold.Chemscore.Rot.Weighted>
3.0623

> <Gold.Chemscore.Internal.Correction.Weighted>
   9.000000E+99

> <Gold.Protein.RotatedTorsions>
[ 6907 6896 6895 6894 ] final   76.54 input  -60.11 | X-H torsion
[ 7974 7965 7964 7962 ] final   72.85 input  175.53 | X-H torsion
[ 8008 7997 7996 7995 ] final   63.33 input   59.86 | X-H torsion
[ 10167 10162 10161 10158 ] final  -28.83 input  -65.29 | X-H torsion
[ 10718 10713 10712 10709 ] final -121.83 input   66.30 | X-H torsion
[ 10763 10752 10751 10750 ] final  115.69 input  -60.55 | X-H torsion
[ 11005 11000 10999 10996 ] final  162.52 input  -57.11 | X-H torsion

> <Gold.Protein.ActiveResidues>
 VAL166  LYS551  ARG553  GLY616  TRP617  ASP618  TYR619  PRO620  LYS621  CYS622 
 ASP623  PHE694  ASN695  SER759  ASP760  ASP761  ALA762  ILE779  LEU786  VAL792 
 PHE793  MET794  SER795  GLU796  ALA797  LYS798  CYS799  TRP800  GLU811  SER814 

> <Gold.Protein.RotatedAtoms>
  152.5078  134.3953  159.9397 H   0  0  0  0  0  0  0  0  0  0  0  0  # atno 6907 bound_to 6896
  151.3915  133.3781  159.2729 H   0  0  0  0  0  0  0  0  0  0  0  0  # atno 6908 bound_to 6896
  150.9429  134.8857  159.7682 H   0  0  0  0  0  0  0  0  0  0  0  0  # atno 6909 bound_to 6896
  145.7482  139.2749  143.1447 H   0  0  0  0  0  0  0  0  0  0  0  0  # atno 7974 bound_to 7965
  155.6284  140.3496  155.4675 H   0  0  0  0  0  0  0  0  0  0  0  0  # atno 8008 bound_to 7997
  156.0023  140.1216  157.0559 H   0  0  0  0  0  0  0  0  0  0  0  0  # atno 8009 bound_to 7997
  154.4253  140.1098  156.5699 H   0  0  0  0  0  0  0  0  0  0  0  0  # atno 8010 bound_to 7997
  140.7266  143.3978  151.1318 H   0  0  0  0  0  0  0  0  0  0  0  0  # atno 10167 bound_to 10162
  156.1369  130.6437  150.9710 H   0  0  0  0  0  0  0  0  0  0  0  0  # atno 10718 bound_to 10713
  153.5260  135.3588  155.2654 H   0  0  0  0  0  0  0  0  0  0  0  0  # atno 10763 bound_to 10752
  154.8731  135.4057  154.3206 H   0  0  0  0  0  0  0  0  0  0  0  0  # atno 10764 bound_to 10752
  153.3885  135.7071  153.6579 H   0  0  0  0  0  0  0  0  0  0  0  0  # atno 10765 bound_to 10752
  140.2266  134.8156  157.3274 H   0  0  0  0  0  0  0  0  0  0  0  0  # atno 11005 bound_to 11000
  146.0382  140.8191  142.9842 LP  0  0  0  0  0  0  0  0  0  0  0  0  # atno 17320 bound_to 7965
  144.6855  140.2871  143.7283 LP  0  0  0  0  0  0  0  0  0  0  0  0  # atno 17321 bound_to 7965
  139.7593  143.8660  152.3096 LP  0  0  0  0  0  0  0  0  0  0  0  0  # atno 17342 bound_to 10162
  139.8540  144.7150  150.9179 LP  0  0  0  0  0  0  0  0  0  0  0  0  # atno 17343 bound_to 10162
  157.6540  131.0892  150.7988 LP  0  0  0  0  0  0  0  0  0  0  0  0  # atno 17370 bound_to 10713
  156.8067  130.4939  149.5362 LP  0  0  0  0  0  0  0  0  0  0  0  0  # atno 17371 bound_to 10713
  140.1794  134.4508  155.7781 LP  0  0  0  0  0  0  0  0  0  0  0  0  # atno 17394 bound_to 11000
  141.2220  133.6977  156.7843 LP  0  0  0  0  0  0  0  0  0  0  0  0  # atno 17395 bound_to 11000

$$$$
