AV-unprocessed.smi:944|AV-procd|sdf|4231|dock4
  -GOLD-   22720 2143D 1   1.00000     0.00000
 Structure written by MMmdl.
 28 28  0  0  0  0  0  0  0  0  1 V2000
  145.8751  134.2496  150.8519 C   0  0  0  0  0  0  0  0  0  0  0  0
  146.2973  135.3140  151.7490 N   0  0  0  0  0  0  0  0  0  0  0  0
  145.6396  135.6682  152.8622 C   0  0  0  0  0  0  0  0  0  0  0  0
  144.6081  135.1098  153.2401 O   0  0  0  0  0  0  0  0  0  0  0  0
  146.2544  136.8174  153.6782 C   0  0  2  0  0  0  0  0  0  0  0  0
  146.2329  138.0846  152.8074 C   0  0  0  0  0  0  0  0  0  0  0  0
  147.6471  136.5258  154.0130 N   0  0  0  0  0  0  0  0  0  0  0  0
  148.1620  136.5099  155.2530 C   0  0  0  0  0  0  0  0  0  0  0  0
  147.5044  136.7512  156.2650 O   0  0  0  0  0  0  0  0  0  0  0  0
  149.6477  136.1680  155.3692 C   0  0  0  0  0  0  0  0  0  0  0  0
  150.4747  137.3104  155.0261 N   0  0  0  0  0  0  0  0  0  0  0  0
  150.1386  138.5690  154.7367 C   0  0  0  0  0  0  0  0  0  0  0  0
  151.1740  139.3496  154.4608 N   0  0  0  0  0  0  0  0  0  0  0  0
  152.1876  138.4453  154.6092 C   0  0  0  0  0  0  0  0  0  0  0  0
  151.8228  137.2084  154.9470 N   0  0  0  0  0  0  0  0  0  0  0  0
  146.5787  134.1598  150.0243 H   0  0  0  0  0  0  0  0  0  0  0  0
  144.8876  134.4592  150.4387 H   0  0  0  0  0  0  0  0  0  0  0  0
  145.8386  133.2925  151.3741 H   0  0  0  0  0  0  0  0  0  0  0  0
  147.1381  135.8179  151.5065 H   0  0  0  0  0  0  0  0  0  0  0  0
  145.6773  136.9878  154.5894 H   0  0  0  0  0  0  0  0  0  0  0  0
  145.2141  138.3571  152.5289 H   0  0  0  0  0  0  0  0  0  0  0  0
  146.8065  137.9567  151.8880 H   0  0  0  0  0  0  0  0  0  0  0  0
  146.6586  138.9325  153.3452 H   0  0  0  0  0  0  0  0  0  0  0  0
  148.2634  136.3094  153.2426 H   0  0  0  0  0  0  0  0  0  0  0  0
  149.8820  135.8605  156.3891 H   0  0  0  0  0  0  0  0  0  0  0  0
  149.8915  135.3291  154.7154 H   0  0  0  0  0  0  0  0  0  0  0  0
  149.1166  138.9190  154.7251 H   0  0  0  0  0  0  0  0  0  0  0  0
  153.2254  138.7063  154.4634 H   0  0  0  0  0  0  0  0  0  0  0  0
  1  2  1  0  0  0  0
  1 16  1  0  0  0  0
  1 17  1  0  0  0  0
  1 18  1  0  0  0  0
  2  3  1  0  0  0  0
  2 19  1  0  0  0  0
  3  4  2  0  0  0  0
  3  5  1  0  0  0  0
  5  6  1  0  0  0  0
  5  7  1  0  0  0  0
  5 20  1  0  0  0  0
  6 21  1  0  0  0  0
  6 22  1  0  0  0  0
  6 23  1  0  0  0  0
  7  8  1  0  0  0  0
  7 24  1  0  0  0  0
  8  9  2  0  0  0  0
  8 10  1  0  0  0  0
 10 11  1  0  0  0  0
 10 25  1  0  0  0  0
 10 26  1  0  0  0  0
 11 15  1  0  0  0  0
 11 12  1  0  0  0  0
 12 13  2  0  0  0  0
 12 27  1  0  0  0  0
 13 14  1  0  0  0  0
 14 15  2  0  0  0  0
 14 28  1  0  0  0  0
M  END
> <s_m_source_file>
AV-unprocessed.smi

> <i_m_source_file_index>
944

> <i_lp_mmshare_version>
43012

> <i_f3d_flags>
0

> <s_epik_input>
W0NIM11bTkhdQyg9TylbQ0BIXShbQ0gzXSlbTkhdQyg9TylbQ0gyXW4xW2NIXW5bY0hdbjE=

> <s_epik_cmdline>
J2VwaWtfcHl0aG9uJywgJy1waCcsICc3LjAnLCAnLXRuJywgJzgnLCAnLW1hJywgJzIwMCcsICctbWV0YWxfYmluZGluZycsICctaW1hZScsICc8aW5maWxlLm1hZT4nLCAnLW9tYWUnLCAnPG91dGZpbGUubWFlPic=

> <r_lp_tautomer_probability>
1

> <r_epik_Ionization_Penalty>
7.54354e-06

> <r_epik_Ionization_Penalty_Charging>
0

> <r_epik_Ionization_Penalty_Neutral>
7.54354e-06

> <r_epik_State_Penalty>
-0

> <r_epik_Charging_Adjusted_Penalty>
0

> <i_epik_Tot_Q>
0

> <i_epik_Tot_abs_Q>
0

> <r_epik_Metal_State_Penalty>
-0

> <b_epik_Metal_Only>
0

> <s_lp_Force_Field>
OPLS_2005

> <r_lp_Energy>
4.44665

> <b_lp_Chiralities_Consistent>
1

> <s_lp_Variant>
AV-unprocessed.smi:944-1

> <Gold.Version>
5.8.1

> <Gold.Id.Protein>
6NUR|6NUR_protein|mol2

> <Gold.PLP.Fitness>
30.9954

> <Gold.PLP.PLP>
-19.6399

> <Gold.PLP.part.hbond>
-3.9721

> <Gold.PLP.part.metal>
0.0000

> <Gold.PLP.part.buried>
-3.7559

> <Gold.PLP.part.nonpolar>
-12.8108

> <Gold.PLP.part.repulsive>
0.3690

> <Gold.PLP.ligand.clash>
0.0000

> <Gold.PLP.ligand.torsion>
0.3275

> <Gold.PLP.Chemscore.Hbond>
4.0000

> <Gold.PLP.Chemscore.CHOScore>
0.0000

> <Gold.PLP.Chemscore.Metal>
0.0000

> <Gold.Chemscore.Hbonds>
donor molecule, donor type, donor heavy atom, donor atom, acceptor molecule, acceptor atom, score
      L1  H     2    19       P1  7948  1.00
      L1  H     7    24       P1  7948  1.00
      P1  H  7989  7998       L1    13  1.00
      P1  H 10752 10765       L1    15  1.00

> <Gold.PLP.Chemscore.Internal.Correction>
0.0105

> <Gold.Rescore>
     Score         DG    S(hbond)    S(metal)    S(lipo)     H(rot)  DE(clash)    DE(int)     intcor
     13.06     -13.49       3.90        0.00      17.18       2.74       0.00       0.43       ----

> <Gold.Chemscore.Fitness>
13.0636

> <Gold.Chemscore.DG>
-13.4903

> <Gold.Chemscore.ZeroCoef>
-5.4800

> <Gold.Chemscore.Hbond>
3.8986

> <Gold.Chemscore.Metal>
0.0000

> <Gold.Chemscore.Lipo>
17.1789

> <Gold.Chemscore.Internal_Hbond>
0.0000

> <Gold.Chemscore.DEClash>
0.0000

> <Gold.Chemscore.DEInternal>
0.4267

> <Gold.Chemscore.Rot>
2.7426

> <Gold.Chemscore.Internal.Correction>
   9.000000E+99

> <Gold.Chemscore.Hbonds>
donor molecule, donor type, donor heavy atom, donor atom, acceptor molecule, acceptor atom, score
      L1  H     2    19       P1  7948  0.94
      L1  H     7    24       P1  7948  0.94
      P1  H  7989  7998       L1    13  0.88
      P1  H 10752 10765       L1    15  0.90

> <Gold.Chemscore.Hbond.Weighted>
-13.0213

> <Gold.Chemscore.Metal.Weighted>
-0.0000

> <Gold.Chemscore.Lipo.Weighted>
-2.0099

> <Gold.Chemscore.Internal_Hbond.Weighted>
0.0000

> <Gold.Chemscore.DEClash.Weighted>
0.0000

> <Gold.Chemscore.DEInternal.Weighted>
0.4267

> <Gold.Chemscore.Rot.Weighted>
7.0210

> <Gold.Chemscore.Internal.Correction.Weighted>
   9.000000E+99

> <Gold.Protein.RotatedTorsions>
[ 6907 6896 6895 6894 ] final -171.63 input  -60.11 | X-H torsion
[ 7974 7965 7964 7962 ] final  -62.05 input  175.53 | X-H torsion
[ 8008 7997 7996 7995 ] final -170.05 input   59.86 | X-H torsion
[ 10167 10162 10161 10158 ] final -149.98 input  -65.29 | X-H torsion
[ 10718 10713 10712 10709 ] final -145.67 input   66.30 | X-H torsion
[ 10763 10752 10751 10750 ] final  172.79 input  -60.55 | X-H torsion
[ 11005 11000 10999 10996 ] final  129.32 input  -57.11 | X-H torsion

> <Gold.Protein.ActiveResidues>
 VAL166  LYS551  ARG553  GLY616  TRP617  ASP618  TYR619  PRO620  LYS621  CYS622 
 ASP623  PHE694  ASN695  SER759  ASP760  ASP761  ALA762  ILE779  LEU786  VAL792 
 PHE793  MET794  SER795  GLU796  ALA797  LYS798  CYS799  TRP800  GLU811  SER814 

> <Gold.Protein.RotatedAtoms>
  151.5269  133.3456  159.2910 H   0  0  0  0  0  0  0  0  0  0  0  0  # atno 6907 bound_to 6896
  150.8618  134.7973  159.7099 H   0  0  0  0  0  0  0  0  0  0  0  0  # atno 6908 bound_to 6896
  152.4635  134.5139  159.9814 H   0  0  0  0  0  0  0  0  0  0  0  0  # atno 6909 bound_to 6896
  145.7960  140.8682  143.0256 H   0  0  0  0  0  0  0  0  0  0  0  0  # atno 7974 bound_to 7965
  155.9132  140.1061  157.1263 H   0  0  0  0  0  0  0  0  0  0  0  0  # atno 8008 bound_to 7997
  154.4042  140.1270  156.4649 H   0  0  0  0  0  0  0  0  0  0  0  0  # atno 8009 bound_to 7997
  155.7285  140.3469  155.5051 H   0  0  0  0  0  0  0  0  0  0  0  0  # atno 8010 bound_to 7997
  139.7395  143.8684  152.2558 H   0  0  0  0  0  0  0  0  0  0  0  0  # atno 10167 bound_to 10162
  156.3853  130.7858  151.2055 H   0  0  0  0  0  0  0  0  0  0  0  0  # atno 10718 bound_to 10713
  154.4310  135.2760  155.1912 H   0  0  0  0  0  0  0  0  0  0  0  0  # atno 10763 bound_to 10752
  154.3818  135.6086  153.5799 H   0  0  0  0  0  0  0  0  0  0  0  0  # atno 10764 bound_to 10752
  152.9836  135.5882  154.4621 H   0  0  0  0  0  0  0  0  0  0  0  0  # atno 10765 bound_to 10752
  139.9609  134.9602  156.9130 H   0  0  0  0  0  0  0  0  0  0  0  0  # atno 11005 bound_to 11000
  144.6775  140.0192  143.7484 LP  0  0  0  0  0  0  0  0  0  0  0  0  # atno 17320 bound_to 7965
  145.9927  139.3028  143.0975 LP  0  0  0  0  0  0  0  0  0  0  0  0  # atno 17321 bound_to 7965
  139.8631  144.7107  150.9076 LP  0  0  0  0  0  0  0  0  0  0  0  0  # atno 17342 bound_to 10162
  140.7784  143.3801  151.1492 LP  0  0  0  0  0  0  0  0  0  0  0  0  # atno 17343 bound_to 10162
  157.7495  131.0332  150.4259 LP  0  0  0  0  0  0  0  0  0  0  0  0  # atno 17370 bound_to 10713
  156.4511  130.4012  149.6635 LP  0  0  0  0  0  0  0  0  0  0  0  0  # atno 17371 bound_to 10713
  140.5503  134.0633  155.7367 LP  0  0  0  0  0  0  0  0  0  0  0  0  # atno 17394 bound_to 11000
  141.1286  133.9341  157.2584 LP  0  0  0  0  0  0  0  0  0  0  0  0  # atno 17395 bound_to 11000

$$$$
