AV-unprocessed.smi:36|AV-procd|sdf|288|dock10
  -GOLD-   2262016 73D 1   1.00000     0.00000
 Structure written by MMmdl.
 64 67  0  0  0  0  0  0  0  0  1 V2000
  146.2466  136.7597  161.0106 C   0  0  0  0  0  0  0  0  0  0  0  0
  146.8994  135.5707  161.7347 C   0  0  0  0  0  0  0  0  0  0  0  0
  148.1717  136.0355  162.4626 C   0  0  0  0  0  0  0  0  0  0  0  0
  145.9126  134.9702  162.7502 C   0  0  0  0  0  0  0  0  0  0  0  0
  147.3658  134.2290  160.4575 Si  0  0  0  0  0  0  0  0  0  0  0  0
  148.1531  132.7222  161.3085 C   0  0  0  0  0  0  0  0  0  0  0  0
  145.8509  133.6773  159.4526 C   0  0  0  0  0  0  0  0  0  0  0  0
  148.4917  134.9006  159.3884 O   0  0  0  0  0  0  0  0  0  0  0  0
  148.4582  136.2486  158.9713 C   0  0  0  0  0  0  0  0  0  0  0  0
  149.8594  136.8657  159.1528 C   0  0  1  0  0  0  0  0  0  0  0  0
  150.8367  135.9888  158.5951 O   0  0  0  0  0  0  0  0  0  0  0  0
  151.1190  136.3314  157.2669 C   0  0  1  0  0  0  0  0  0  0  0  0
  150.6244  135.2378  156.3709 N   0  0  0  0  0  0  0  0  0  0  0  0
  149.7285  135.3320  155.3681 C   0  0  0  0  0  0  0  0  0  0  0  0
  149.4503  134.1925  154.7405 N   0  0  0  0  0  0  0  0  0  0  0  0
  150.2358  133.2709  155.4239 C   0  0  0  0  0  0  0  0  0  0  0  0
  150.3848  131.8123  155.2312 C   0  0  0  0  0  0  0  0  0  0  0  0
  149.6997  131.2565  154.2781 N   0  0  0  0  0  0  0  0  0  0  0  0
  149.7956  129.8889  154.0563 C   0  0  0  0  0  0  0  0  0  0  0  0
  150.6907  129.1104  154.3963 O   0  0  0  0  0  0  0  0  0  0  0  0
  148.6459  129.3362  153.2789 C   0  0  0  0  0  0  0  0  0  0  0  0
  148.7941  128.1356  152.5527 C   0  0  0  0  0  0  0  0  0  0  0  0
  147.7070  127.6106  151.8266 C   0  0  0  0  0  0  0  0  0  0  0  0
  146.4693  128.2826  151.8262 C   0  0  0  0  0  0  0  0  0  0  0  0
  146.3179  129.4800  152.5522 C   0  0  0  0  0  0  0  0  0  0  0  0
  147.4040  130.0062  153.2789 C   0  0  0  0  0  0  0  0  0  0  0  0
  151.2861  131.2985  156.1726 N   0  0  0  0  0  0  0  0  0  0  0  0
  151.9550  132.0371  157.1608 C   0  0  0  0  0  0  0  0  0  0  0  0
  151.8316  133.3246  157.3431 N   0  0  0  0  0  0  0  0  0  0  0  0
  150.9506  133.8859  156.4292 C   0  0  0  0  0  0  0  0  0  0  0  0
  150.3843  137.6462  156.9725 C   0  0  0  0  0  0  0  0  0  0  0  0
  150.1047  138.1604  158.3697 C   0  0  1  0  0  0  0  0  0  0  0  0
  149.0219  139.0681  158.3974 O   0  0  0  0  0  0  0  0  0  0  0  0
  145.9686  137.5465  161.7126 H   0  0  0  0  0  0  0  0  0  0  0  0
  145.3418  136.4557  160.4839 H   0  0  0  0  0  0  0  0  0  0  0  0
  146.9235  137.1984  160.2769 H   0  0  0  0  0  0  0  0  0  0  0  0
  148.8893  136.4746  161.7691 H   0  0  0  0  0  0  0  0  0  0  0  0
  148.6665  135.2035  162.9650 H   0  0  0  0  0  0  0  0  0  0  0  0
  147.9436  136.7878  163.2183 H   0  0  0  0  0  0  0  0  0  0  0  0
  145.6243  135.7027  163.5047 H   0  0  0  0  0  0  0  0  0  0  0  0
  146.3504  134.1177  163.2705 H   0  0  0  0  0  0  0  0  0  0  0  0
  145.0003  134.6244  162.2634 H   0  0  0  0  0  0  0  0  0  0  0  0
  147.4649  132.2558  162.0128 H   0  0  0  0  0  0  0  0  0  0  0  0
  149.0483  132.9961  161.8651 H   0  0  0  0  0  0  0  0  0  0  0  0
  148.4416  131.9589  160.5865 H   0  0  0  0  0  0  0  0  0  0  0  0
  145.0782  133.2523  160.0927 H   0  0  0  0  0  0  0  0  0  0  0  0
  146.1159  132.9183  158.7169 H   0  0  0  0  0  0  0  0  0  0  0  0
  145.4035  134.5106  158.9112 H   0  0  0  0  0  0  0  0  0  0  0  0
  148.1231  136.3061  157.9363 H   0  0  0  0  0  0  0  0  0  0  0  0
  147.7240  136.7789  159.5781 H   0  0  0  0  0  0  0  0  0  0  0  0
  150.0542  137.0139  160.2154 H   0  0  0  0  0  0  0  0  0  0  0  0
  152.1952  136.3725  157.0951 H   0  0  0  0  0  0  0  0  0  0  0  0
  149.2650  136.2644  155.0824 H   0  0  0  0  0  0  0  0  0  0  0  0
  149.7402  127.6137  152.5498 H   0  0  0  0  0  0  0  0  0  0  0  0
  147.8227  126.6922  151.2704 H   0  0  0  0  0  0  0  0  0  0  0  0
  145.6361  127.8795  151.2698 H   0  0  0  0  0  0  0  0  0  0  0  0
  145.3685  129.9950  152.5525 H   0  0  0  0  0  0  0  0  0  0  0  0
  147.2798  130.9246  153.8347 H   0  0  0  0  0  0  0  0  0  0  0  0
  152.6124  131.4383  157.7928 H   0  0  0  0  0  0  0  0  0  0  0  0
  151.0014  138.3180  156.3753 H   0  0  0  0  0  0  0  0  0  0  0  0
  149.4563  137.4460  156.4339 H   0  0  0  0  0  0  0  0  0  0  0  0
  150.9952  138.6565  158.7583 H   0  0  0  0  0  0  0  0  0  0  0  0
  148.6068  139.0657  157.5484 H   0  0  0  0  0  0  0  0  0  0  0  0
  151.4697  130.3062  156.1358 H   0  0  0  0  0  0  0  0  0  0  0  0
  1  2  1  0  0  0  0
  1 34  1  0  0  0  0
  1 35  1  0  0  0  0
  1 36  1  0  0  0  0
  2  3  1  0  0  0  0
  2  4  1  0  0  0  0
  2  5  1  0  0  0  0
  3 37  1  0  0  0  0
  3 38  1  0  0  0  0
  3 39  1  0  0  0  0
  4 40  1  0  0  0  0
  4 41  1  0  0  0  0
  4 42  1  0  0  0  0
  5  6  1  0  0  0  0
  5  7  1  0  0  0  0
  5  8  1  0  0  0  0
  6 43  1  0  0  0  0
  6 44  1  0  0  0  0
  6 45  1  0  0  0  0
  7 46  1  0  0  0  0
  7 47  1  0  0  0  0
  7 48  1  0  0  0  0
  8  9  1  0  0  0  0
  9 10  1  0  0  0  0
  9 49  1  0  0  0  0
  9 50  1  0  0  0  0
 10 32  1  0  0  0  0
 10 11  1  0  0  0  0
 10 51  1  0  0  0  0
 11 12  1  0  0  0  0
 12 13  1  0  0  0  0
 12 31  1  0  0  0  0
 12 52  1  0  0  0  0
 13 30  1  0  0  0  0
 13 14  1  0  0  0  0
 14 15  2  0  0  0  0
 14 53  1  0  0  0  0
 15 16  1  0  0  0  0
 16 30  2  0  0  0  0
 16 17  1  0  0  0  0
 17 18  2  0  0  0  0
 17 27  1  0  0  0  0
 18 19  1  0  0  0  0
 19 20  2  0  0  0  0
 19 21  1  0  0  0  0
 21 26  1  0  0  0  0
 21 22  2  0  0  0  0
 22 23  1  0  0  0  0
 22 54  1  0  0  0  0
 23 24  2  0  0  0  0
 23 55  1  0  0  0  0
 24 25  1  0  0  0  0
 24 56  1  0  0  0  0
 25 26  2  0  0  0  0
 25 57  1  0  0  0  0
 26 58  1  0  0  0  0
 27 28  1  0  0  0  0
 27 64  1  0  0  0  0
 28 29  2  0  0  0  0
 28 59  1  0  0  0  0
 29 30  1  0  0  0  0
 31 32  1  0  0  0  0
 31 60  1  0  0  0  0
 31 61  1  0  0  0  0
 32 33  1  0  0  0  0
 32 62  1  0  0  0  0
 33 63  1  0  0  0  0
M  END
> <s_m_source_file>
AV-unprocessed.smi

> <i_m_source_file_index>
36

> <i_lp_mmshare_version>
43012

> <i_f3d_flags>
0

> <s_epik_input>
W0NIM11DKFtDSDNdKShbQ0gzXSlbU2ldKFtDSDNdKShbQ0gzXSlPW0NIMl1bQ0BASF0xT1tDQEhdKFtDSDJdW0NASF0xW09IXSluKFtjSF1uMiljKGMyMyluW2NIXW5jM1tOSF1DKD1PKWM0W2NIXVtjSF1bY0hdW2NIXVtjSF00

> <s_epik_cmdline>
J2VwaWtfcHl0aG9uJywgJy1waCcsICc3LjAnLCAnLXRuJywgJzgnLCAnLW1hJywgJzIwMCcsICctbWV0YWxfYmluZGluZycsICctaW1hZScsICc8aW5maWxlLm1hZT4nLCAnLW9tYWUnLCAnPG91dGZpbGUubWFlPic=

> <r_epik_Ionization_Penalty>
0.0850405

> <r_epik_Ionization_Penalty_Charging>
0.0850403

> <r_epik_Ionization_Penalty_Neutral>
1.47497e-07

> <r_epik_State_Penalty>
2.6133

> <r_epik_Charging_Adjusted_Penalty>
2.69834

> <i_epik_Tot_Q>
0

> <i_epik_Tot_abs_Q>
0

> <r_epik_Metal_State_Penalty>
2.92945

> <b_epik_Metal_Only>
0

> <s_epik_Chemistry_Notes>
This compound contains an acetal/aminal-like group ( X-CH(R)-Y where X, Y are N, S, or O) that may be acid/base labile, releasing an aldehyde.

> <s_lp_Force_Field>
OPLS_2005

> <r_lp_Energy>
49.0467

> <b_lp_Chiralities_Consistent>
1

> <s_lp_Variant>
AV-unprocessed.smi:36-10

> <Gold.Version>
5.8.1

> <Gold.Id.Protein>
6NUR|6NUR_protein|mol2

> <Gold.PLP.Fitness>
50.7097

> <Gold.PLP.PLP>
-48.7092

> <Gold.PLP.part.hbond>
-2.1537

> <Gold.PLP.part.metal>
0.0000

> <Gold.PLP.part.buried>
-8.6534

> <Gold.PLP.part.nonpolar>
-37.9749

> <Gold.PLP.part.repulsive>
0.3079

> <Gold.PLP.ligand.clash>
0.0000

> <Gold.PLP.ligand.torsion>
1.2428

> <Gold.PLP.Chemscore.Hbond>
1.3760

> <Gold.PLP.Chemscore.CHOScore>
0.0000

> <Gold.PLP.Chemscore.Metal>
0.0000

> <Gold.Chemscore.Hbonds>
donor molecule, donor type, donor heavy atom, donor atom, acceptor molecule, acceptor atom, score
      P1  H  6896  6907       L1    29  0.61
      P1  H  6896  6908       L1    11  0.72

> <Gold.PLP.Chemscore.Internal.Correction>
0.3580

> <Gold.Rescore>
     Score         DG    S(hbond)    S(metal)    S(lipo)     H(rot)  DE(clash)    DE(int)     intcor
     14.28     -15.53       1.56        0.00     100.49       2.70       0.03       1.22       ----

> <Gold.Chemscore.Fitness>
14.2831

> <Gold.Chemscore.DG>
-15.5309

> <Gold.Chemscore.ZeroCoef>
-5.4800

> <Gold.Chemscore.Hbond>
1.5615

> <Gold.Chemscore.Metal>
0.0000

> <Gold.Chemscore.Lipo>
100.4943

> <Gold.Chemscore.Internal_Hbond>
0.0000

> <Gold.Chemscore.DEClash>
0.0270

> <Gold.Chemscore.DEInternal>
1.2208

> <Gold.Chemscore.Rot>
2.7041

> <Gold.Chemscore.Internal.Correction>
   9.000000E+99

> <Gold.Chemscore.Hbonds>
donor molecule, donor type, donor heavy atom, donor atom, acceptor molecule, acceptor atom, score
      P1  H  6896  6907       L1    29  0.17
      P1  H  6896  6908       L1    11  0.17

> <Gold.Chemscore.Hbond.Weighted>
-5.2156

> <Gold.Chemscore.Metal.Weighted>
-0.0000

> <Gold.Chemscore.Lipo.Weighted>
-11.7578

> <Gold.Chemscore.Internal_Hbond.Weighted>
0.0000

> <Gold.Chemscore.DEClash.Weighted>
0.0270

> <Gold.Chemscore.DEInternal.Weighted>
1.2208

> <Gold.Chemscore.Rot.Weighted>
6.9225

> <Gold.Chemscore.Internal.Correction.Weighted>
   9.000000E+99

> <Gold.Protein.RotatedTorsions>
[ 6907 6896 6895 6894 ] final -160.42 input  -60.11 | X-H torsion
[ 7974 7965 7964 7962 ] final -172.50 input  175.53 | X-H torsion
[ 8008 7997 7996 7995 ] final   77.94 input   59.86 | X-H torsion
[ 10167 10162 10161 10158 ] final  -71.87 input  -65.29 | X-H torsion
[ 10718 10713 10712 10709 ] final    3.98 input   66.30 | X-H torsion
[ 10763 10752 10751 10750 ] final   83.68 input  -60.55 | X-H torsion
[ 11005 11000 10999 10996 ] final   72.36 input  -57.11 | X-H torsion

> <Gold.Protein.ActiveResidues>
 VAL166  LYS551  ARG553  GLY616  TRP617  ASP618  TYR619  PRO620  LYS621  CYS622 
 ASP623  PHE694  ASN695  SER759  ASP760  ASP761  ALA762  ILE779  LEU786  VAL792 
 PHE793  MET794  SER795  GLU796  ALA797  LYS798  CYS799  TRP800  GLU811  SER814 

> <Gold.Protein.RotatedAtoms>
  151.3489  133.3933  159.2678 H   0  0  0  0  0  0  0  0  0  0  0  0  # atno 6907 bound_to 6896
  150.9817  134.9172  159.7859 H   0  0  0  0  0  0  0  0  0  0  0  0  # atno 6908 bound_to 6896
  152.5219  134.3453  159.9284 H   0  0  0  0  0  0  0  0  0  0  0  0  # atno 6909 bound_to 6896
  144.7146  140.1762  143.6362 H   0  0  0  0  0  0  0  0  0  0  0  0  # atno 7974 bound_to 7965
  155.8488  140.3459  155.5679 H   0  0  0  0  0  0  0  0  0  0  0  0  # atno 8008 bound_to 7997
  155.8061  140.0892  157.1950 H   0  0  0  0  0  0  0  0  0  0  0  0  # atno 8009 bound_to 7997
  154.4007  140.1456  156.3319 H   0  0  0  0  0  0  0  0  0  0  0  0  # atno 8010 bound_to 7997
  140.5238  143.2328  151.7383 H   0  0  0  0  0  0  0  0  0  0  0  0  # atno 10167 bound_to 10162
  156.8859  130.5670  149.5651 H   0  0  0  0  0  0  0  0  0  0  0  0  # atno 10718 bound_to 10713
  153.1312  135.4682  154.9352 H   0  0  0  0  0  0  0  0  0  0  0  0  # atno 10763 bound_to 10752
  154.7666  135.3146  154.8276 H   0  0  0  0  0  0  0  0  0  0  0  0  # atno 10764 bound_to 10752
  153.8818  135.6893  153.4820 H   0  0  0  0  0  0  0  0  0  0  0  0  # atno 10765 bound_to 10752
  139.9495  134.7253  156.0898 H   0  0  0  0  0  0  0  0  0  0  0  0  # atno 11005 bound_to 11000
  145.8898  139.2369  143.1556 LP  0  0  0  0  0  0  0  0  0  0  0  0  # atno 17320 bound_to 7965
  145.9914  140.8599  143.0064 LP  0  0  0  0  0  0  0  0  0  0  0  0  # atno 17321 bound_to 7965
  139.4932  144.4216  151.9971 LP  0  0  0  0  0  0  0  0  0  0  0  0  # atno 17342 bound_to 10162
  140.3314  144.3312  150.5986 LP  0  0  0  0  0  0  0  0  0  0  0  0  # atno 17343 bound_to 10162
  156.0653  130.5698  150.9277 LP  0  0  0  0  0  0  0  0  0  0  0  0  # atno 17370 bound_to 10713
  157.6113  131.0936  150.8790 LP  0  0  0  0  0  0  0  0  0  0  0  0  # atno 17371 bound_to 10713
  141.1154  133.6629  156.3081 LP  0  0  0  0  0  0  0  0  0  0  0  0  # atno 17394 bound_to 11000
  140.5754  134.5799  157.5467 LP  0  0  0  0  0  0  0  0  0  0  0  0  # atno 17395 bound_to 11000

$$$$
