AV-unprocessed.smi:2607|AV-procd|sdf|10202|dock9
  -GOLD-   2272014213D 1   1.00000     0.00000
 Structure written by MMmdl.
 21 22  0  0  0  0  0  0  0  0  2 V2000
  152.5700  139.3458  159.8692 C   0  0  0  0  0  0  0  0  0  0  0  0
  152.3925  138.8043  158.4357 C   0  0  1  0  0  0  0  0  0  0  0  0
  151.6452  139.8242  157.5530 C   0  0  0  0  0  0  0  0  0  0  0  0
  151.4599  139.6433  156.1569 C   0  0  0  0  0  0  0  0  0  0  0  0
  150.8122  140.5506  155.3917 N   0  0  0  0  0  0  0  0  0  0  0  0
  150.3466  141.6511  156.0200 C   0  0  0  0  0  0  0  0  0  0  0  0
  150.5291  141.8462  157.4038 C   0  0  0  0  0  0  0  0  0  0  0  0
  151.1768  140.9407  158.1679 N   0  0  0  0  0  0  0  0  0  0  0  0
  153.7000  138.4260  157.9099 N   0  5  0  0  0  0  0  0  0  0  0  0
  153.6945  137.1075  157.6058 C   0  0  0  0  0  0  0  0  0  0  0  0
  154.6068  136.4433  157.1194 O   0  0  0  0  0  0  0  0  0  0  0  0
  152.5168  136.5597  157.9145 N   0  0  0  0  0  0  0  0  0  0  0  0
  151.6816  137.4512  158.4383 C   0  0  0  0  0  0  0  0  0  0  0  0
  150.5487  137.2333  158.8680 O   0  0  0  0  0  0  0  0  0  0  0  0
  151.6099  139.5743  160.3330 H   0  0  0  0  0  0  0  0  0  0  0  0
  153.1594  140.2633  159.8708 H   0  0  0  0  0  0  0  0  0  0  0  0
  153.0785  138.6272  160.5141 H   0  0  0  0  0  0  0  0  0  0  0  0
  151.8295  138.7740  155.6341 H   0  0  0  0  0  0  0  0  0  0  0  0
  149.8280  142.3808  155.4162 H   0  0  0  0  0  0  0  0  0  0  0  0
  150.1557  142.7305  157.8983 H   0  0  0  0  0  0  0  0  0  0  0  0
  152.2978  135.5829  157.7883 H   0  0  0  0  0  0  0  0  0  0  0  0
  1  2  1  0  0  0  0
  1 15  1  0  0  0  0
  1 16  1  0  0  0  0
  1 17  1  0  0  0  0
  2 13  1  0  0  0  0
  2  3  1  0  0  0  0
  2  9  1  0  0  0  0
  3  8  1  0  0  0  0
  3  4  2  0  0  0  0
  4  5  1  0  0  0  0
  4 18  1  0  0  0  0
  5  6  2  0  0  0  0
  6  7  1  0  0  0  0
  6 19  1  0  0  0  0
  7  8  2  0  0  0  0
  7 20  1  0  0  0  0
  9 10  1  0  0  0  0
 10 11  2  0  0  0  0
 10 12  1  0  0  0  0
 12 13  1  0  0  0  0
 12 21  1  0  0  0  0
 13 14  2  0  0  0  0
M  CHG  1   9  -1
M  END
> <s_m_source_file>
AV-unprocessed.smi

> <i_m_source_file_index>
2607

> <i_lp_mmshare_version>
43012

> <i_f3d_flags>
0

> <s_epik_input>
Tz1DMVtOSF1DKD1PKVtOSF1bQ0BAXTEoW0NIM10pYzJbY0hdbltjSF1bY0hdbjI=

> <s_epik_cmdline>
J2VwaWtfcHl0aG9uJywgJy1waCcsICc3LjAnLCAnLXRuJywgJzgnLCAnLW1hJywgJzIwMCcsICctbWV0YWxfYmluZGluZycsICctaW1hZScsICc8aW5maWxlLm1hZT4nLCAnLW9tYWUnLCAnPG91dGZpbGUubWFlPic=

> <r_lp_tautomer_probability>
1

> <r_epik_Ionization_Penalty>
4.70687

> <r_epik_Ionization_Penalty_Charging>
4.70687

> <r_epik_Ionization_Penalty_Neutral>
2.29475e-06

> <r_epik_State_Penalty>
4.73416

> <r_epik_Charging_Adjusted_Penalty>
9.44103

> <i_epik_Tot_Q>
-1

> <i_epik_Tot_abs_Q>
1

> <r_epik_Metal_State_Penalty>
1.2389

> <b_epik_Metal_Only>
1

> <s_lp_Force_Field>
OPLS_2005

> <r_lp_Energy>
21.97

> <b_lp_Chiralities_Consistent>
1

> <s_lp_Variant>
AV-unprocessed.smi:2607-5

> <Gold.Version>
5.8.1

> <Gold.Id.Protein>
6NUR|6NUR_protein|mol2

> <Gold.PLP.Fitness>
32.8312

> <Gold.PLP.PLP>
-17.8341

> <Gold.PLP.part.hbond>
-3.3065

> <Gold.PLP.part.metal>
0.0000

> <Gold.PLP.part.buried>
-4.2112

> <Gold.PLP.part.nonpolar>
-11.6741

> <Gold.PLP.part.repulsive>
0.2047

> <Gold.PLP.ligand.clash>
0.0000

> <Gold.PLP.ligand.torsion>
0.1087

> <Gold.PLP.Chemscore.Hbond>
4.1325

> <Gold.PLP.Chemscore.CHOScore>
0.9209

> <Gold.PLP.Chemscore.Metal>
0.0000

> <Gold.Chemscore.Hbonds>
donor molecule, donor type, donor heavy atom, donor atom, acceptor molecule, acceptor atom, score
      P1  H  7989  7998       L1     5  0.83
      P1  H  7997  8010       L1     9  2.00
      P1  H 10752 10763       L1    11  0.70
      L1  C     6    19       P1  8028  1.00

> <Gold.PLP.Chemscore.Internal.Correction>
0.0541

> <Gold.Rescore>
     Score         DG    S(hbond)    S(metal)    S(lipo)     H(rot)  DE(clash)    DE(int)     intcor
     15.83     -16.28       2.85        0.00      32.89       1.00       0.00       0.45       ----

> <Gold.Chemscore.Fitness>
15.8322

> <Gold.Chemscore.DG>
-16.2802

> <Gold.Chemscore.ZeroCoef>
-5.4800

> <Gold.Chemscore.Hbond>
2.8481

> <Gold.Chemscore.Metal>
0.0000

> <Gold.Chemscore.Lipo>
32.8852

> <Gold.Chemscore.Internal_Hbond>
0.0000

> <Gold.Chemscore.DEClash>
0.0000

> <Gold.Chemscore.DEInternal>
0.4479

> <Gold.Chemscore.Rot>
1.0000

> <Gold.Chemscore.Internal.Correction>
   9.000000E+99

> <Gold.Chemscore.Hbonds>
donor molecule, donor type, donor heavy atom, donor atom, acceptor molecule, acceptor atom, score
      P1  H  7989  7998       L1     5  0.64
      P1  H  7997  8010       L1     9  0.72
      P1  H 10752 10763       L1    11  0.66

> <Gold.Chemscore.Hbond.Weighted>
-9.5126

> <Gold.Chemscore.Metal.Weighted>
-0.0000

> <Gold.Chemscore.Lipo.Weighted>
-3.8476

> <Gold.Chemscore.Internal_Hbond.Weighted>
0.0000

> <Gold.Chemscore.DEClash.Weighted>
0.0000

> <Gold.Chemscore.DEInternal.Weighted>
0.4479

> <Gold.Chemscore.Rot.Weighted>
2.5600

> <Gold.Chemscore.Internal.Correction.Weighted>
   9.000000E+99

> <Gold.Protein.RotatedTorsions>
[ 6907 6896 6895 6894 ] final  -18.67 input  -60.11 | X-H torsion
[ 7974 7965 7964 7962 ] final -101.56 input  175.53 | X-H torsion
[ 8008 7997 7996 7995 ] final   34.22 input   59.86 | X-H torsion
[ 10167 10162 10161 10158 ] final   67.73 input  -65.29 | X-H torsion
[ 10718 10713 10712 10709 ] final  -17.53 input   66.30 | X-H torsion
[ 10763 10752 10751 10750 ] final  164.56 input  -60.55 | X-H torsion
[ 11005 11000 10999 10996 ] final   99.89 input  -57.11 | X-H torsion

> <Gold.Protein.ActiveResidues>
 VAL166  LYS551  ARG553  GLY616  TRP617  ASP618  TYR619  PRO620  LYS621  CYS622 
 ASP623  PHE694  ASN695  SER759  ASP760  ASP761  ALA762  ILE779  LEU786  VAL792 
 PHE793  MET794  SER795  GLU796  ALA797  LYS798  CYS799  TRP800  GLU811  SER814 

> <Gold.Protein.RotatedAtoms>
  151.2746  135.0695  159.9146 H   0  0  0  0  0  0  0  0  0  0  0  0  # atno 6907 bound_to 6896
  152.5344  134.0094  159.7942 H   0  0  0  0  0  0  0  0  0  0  0  0  # atno 6908 bound_to 6896
  151.0338  133.5716  159.2689 H   0  0  0  0  0  0  0  0  0  0  0  0  # atno 6909 bound_to 6896
  145.2801  140.9324  143.2937 H   0  0  0  0  0  0  0  0  0  0  0  0  # atno 7974 bound_to 7965
  155.1513  140.3275  155.4430 H   0  0  0  0  0  0  0  0  0  0  0  0  # atno 8008 bound_to 7997
  156.2573  140.1976  156.6575 H   0  0  0  0  0  0  0  0  0  0  0  0  # atno 8009 bound_to 7997
  154.6471  140.0563  156.9899 H   0  0  0  0  0  0  0  0  0  0  0  0  # atno 8010 bound_to 7997
  140.0863  144.5027  150.7128 H   0  0  0  0  0  0  0  0  0  0  0  0  # atno 10167 bound_to 10162
  156.5722  130.4752  149.6358 H   0  0  0  0  0  0  0  0  0  0  0  0  # atno 10718 bound_to 10713
  154.3108  135.2757  155.2567 H   0  0  0  0  0  0  0  0  0  0  0  0  # atno 10763 bound_to 10752
  154.4963  135.5820  153.6500 H   0  0  0  0  0  0  0  0  0  0  0  0  # atno 10764 bound_to 10752
  152.9888  135.6147  154.3285 H   0  0  0  0  0  0  0  0  0  0  0  0  # atno 10765 bound_to 10752
  139.8770  134.9116  156.4673 H   0  0  0  0  0  0  0  0  0  0  0  0  # atno 11005 bound_to 11000
  144.9261  139.4354  143.6518 LP  0  0  0  0  0  0  0  0  0  0  0  0  # atno 17320 bound_to 7965
  146.3219  139.8147  142.8939 LP  0  0  0  0  0  0  0  0  0  0  0  0  # atno 17321 bound_to 7965
  140.7051  143.2462  151.4749 LP  0  0  0  0  0  0  0  0  0  0  0  0  # atno 17342 bound_to 10162
  139.5750  144.1840  152.1890 LP  0  0  0  0  0  0  0  0  0  0  0  0  # atno 17343 bound_to 10162
  156.2704  130.7014  151.1809 LP  0  0  0  0  0  0  0  0  0  0  0  0  # atno 17370 bound_to 10713
  157.7345  131.0581  150.5518 LP  0  0  0  0  0  0  0  0  0  0  0  0  # atno 17371 bound_to 10713
  140.8821  133.7910  155.9478 LP  0  0  0  0  0  0  0  0  0  0  0  0  # atno 17394 bound_to 11000
  140.8843  134.2573  157.5128 LP  0  0  0  0  0  0  0  0  0  0  0  0  # atno 17395 bound_to 11000

$$$$
