AV-unprocessed.smi:99|AV-procd|sdf|869|dock4
  -GOLD-   2262017323D 1   1.00000     0.00000
 Structure written by MMmdl.
 53 56  0  0  0  0  0  0  0  0  1 V2000
  152.3375  140.2346  157.2422 O   0  0  0  0  0  0  0  0  0  0  0  0
  151.4928  140.8976  157.8479 C   0  0  0  0  0  0  0  0  0  0  0  0
  150.2168  140.4996  158.0198 O   0  0  0  0  0  0  0  0  0  0  0  0
  149.6052  139.6518  157.0619 C   0  0  0  0  0  0  0  0  0  0  0  0
  149.4759  138.2344  157.6415 C   0  0  2  0  0  0  0  0  0  0  0  0
  149.9239  137.2910  156.6757 O   0  0  0  0  0  0  0  0  0  0  0  0
  148.8621  136.8939  155.8661 C   0  0  1  0  0  0  0  0  0  0  0  0
  149.0419  135.4141  155.5896 N   0  0  0  0  0  0  0  0  0  0  0  0
  149.0067  134.9155  154.2921 C   0  0  0  0  0  0  0  0  0  0  0  0
  149.0749  133.5958  153.9981 C   0  0  0  0  0  0  0  0  0  0  0  0
  149.1639  132.6050  155.0642 C   0  0  0  0  0  0  0  0  0  0  0  0
  149.2451  131.3897  154.8990 O   0  0  0  0  0  0  0  0  0  0  0  0
  149.1403  133.1414  156.3542 N   0  0  0  0  0  0  0  0  0  0  0  0
  149.0558  134.4990  156.6686 C   0  0  0  0  0  0  0  0  0  0  0  0
  149.0035  134.8456  157.8481 O   0  0  0  0  0  0  0  0  0  0  0  0
  147.5433  137.2293  156.5916 C   0  0  2  0  0  0  0  0  0  0  0  0
  146.7683  138.1784  155.8861 O   0  0  0  0  0  0  0  0  0  0  0  0
  148.0182  137.8443  157.9073 C   0  0  1  0  0  0  0  0  0  0  0  0
  147.9816  136.8949  158.9658 O   0  0  0  0  0  0  0  0  0  0  0  0
  147.0020  136.9245  159.8943 C   0  0  0  0  0  0  0  0  0  0  0  0
  146.3004  137.9130  160.1167 O   0  0  0  0  0  0  0  0  0  0  0  0
  146.8525  135.6281  160.6150 C   0  0  0  0  0  0  0  0  0  0  0  0
  147.6170  134.5123  160.2014 C   0  0  0  0  0  0  0  0  0  0  0  0
  147.4985  133.2761  160.8660 C   0  0  0  0  0  0  0  0  0  0  0  0
  146.6151  133.1408  161.9528 C   0  0  0  0  0  0  0  0  0  0  0  0
  145.8503  134.2438  162.3749 C   0  0  0  0  0  0  0  0  0  0  0  0
  145.9669  135.4808  161.7116 C   0  0  0  0  0  0  0  0  0  0  0  0
  151.7770  142.2246  158.4664 C   0  0  0  0  0  0  0  0  0  0  0  0
  152.3398  142.2780  159.7629 C   0  0  0  0  0  0  0  0  0  0  0  0
  152.6197  143.5162  160.3733 C   0  0  0  0  0  0  0  0  0  0  0  0
  152.3404  144.7163  159.6942 C   0  0  0  0  0  0  0  0  0  0  0  0
  151.7798  144.6769  158.4043 C   0  0  0  0  0  0  0  0  0  0  0  0
  151.4990  143.4395  157.7923 C   0  0  0  0  0  0  0  0  0  0  0  0
  149.1739  132.4901  157.1253 H   0  0  0  0  0  0  0  0  0  0  0  0
  148.6152  140.0459  156.8285 H   0  0  0  0  0  0  0  0  0  0  0  0
  150.1809  139.6437  156.1354 H   0  0  0  0  0  0  0  0  0  0  0  0
  150.0731  138.1619  158.5518 H   0  0  0  0  0  0  0  0  0  0  0  0
  148.9243  137.4179  154.9112 H   0  0  0  0  0  0  0  0  0  0  0  0
  148.9114  135.5949  153.4608 H   0  0  0  0  0  0  0  0  0  0  0  0
  149.0541  133.2709  152.9677 H   0  0  0  0  0  0  0  0  0  0  0  0
  146.9193  136.3472  156.7349 H   0  0  0  0  0  0  0  0  0  0  0  0
  147.2145  138.3958  155.0820 H   0  0  0  0  0  0  0  0  0  0  0  0
  147.4325  138.7207  158.1912 H   0  0  0  0  0  0  0  0  0  0  0  0
  148.3020  134.5919  159.3693 H   0  0  0  0  0  0  0  0  0  0  0  0
  148.0865  132.4305  160.5406 H   0  0  0  0  0  0  0  0  0  0  0  0
  146.5242  132.1927  162.4619 H   0  0  0  0  0  0  0  0  0  0  0  0
  145.1726  134.1416  163.2099 H   0  0  0  0  0  0  0  0  0  0  0  0
  145.3662  136.3073  162.0631 H   0  0  0  0  0  0  0  0  0  0  0  0
  152.5637  141.3697  160.3038 H   0  0  0  0  0  0  0  0  0  0  0  0
  153.0497  143.5444  161.3636 H   0  0  0  0  0  0  0  0  0  0  0  0
  152.5564  145.6656  160.1622 H   0  0  0  0  0  0  0  0  0  0  0  0
  151.5648  145.5976  157.8820 H   0  0  0  0  0  0  0  0  0  0  0  0
  151.0690  143.4450  156.8014 H   0  0  0  0  0  0  0  0  0  0  0  0
  1  2  2  0  0  0  0
  2  3  1  0  0  0  0
  2 28  1  0  0  0  0
  3  4  1  0  0  0  0
  4  5  1  0  0  0  0
  4 35  1  0  0  0  0
  4 36  1  0  0  0  0
  5 18  1  0  0  0  0
  5  6  1  0  0  0  0
  5 37  1  0  0  0  0
  6  7  1  0  0  0  0
  7  8  1  0  0  0  0
  7 16  1  0  0  0  0
  7 38  1  0  0  0  0
  8 14  1  0  0  0  0
  8  9  1  0  0  0  0
  9 10  2  0  0  0  0
  9 39  1  0  0  0  0
 10 11  1  0  0  0  0
 10 40  1  0  0  0  0
 11 12  2  0  0  0  0
 11 13  1  0  0  0  0
 13 34  1  0  0  0  0
 13 14  1  0  0  0  0
 14 15  2  0  0  0  0
 16 17  1  0  0  0  0
 16 18  1  0  0  0  0
 16 41  1  0  0  0  0
 17 42  1  0  0  0  0
 18 19  1  0  0  0  0
 18 43  1  0  0  0  0
 19 20  1  0  0  0  0
 20 21  2  0  0  0  0
 20 22  1  0  0  0  0
 22 27  1  0  0  0  0
 22 23  2  0  0  0  0
 23 24  1  0  0  0  0
 23 44  1  0  0  0  0
 24 25  2  0  0  0  0
 24 45  1  0  0  0  0
 25 26  1  0  0  0  0
 25 46  1  0  0  0  0
 26 27  2  0  0  0  0
 26 47  1  0  0  0  0
 27 48  1  0  0  0  0
 28 33  1  0  0  0  0
 28 29  2  0  0  0  0
 29 30  1  0  0  0  0
 29 49  1  0  0  0  0
 30 31  2  0  0  0  0
 30 50  1  0  0  0  0
 31 32  1  0  0  0  0
 31 51  1  0  0  0  0
 32 33  2  0  0  0  0
 32 52  1  0  0  0  0
 33 53  1  0  0  0  0
M  END
> <s_m_source_file>
AV-unprocessed.smi

> <i_m_source_file_index>
99

> <i_lp_mmshare_version>
43012

> <i_f3d_flags>
0

> <s_epik_input>
W2NIXTFbY0hdW2NIXVtjSF1bY0hdYzFDKD1PKU9bQ0gyXVtDQEBIXTJPW0NAQEhdKG4zW2NIXVtjSF1jKD1PKVtuSF1jMz1PKVtDQEBIXShbT0hdKVtDQEhdMk9DKD1PKWM0W2NIXVtjSF1bY0hdW2NIXVtjSF00

> <s_epik_cmdline>
J2VwaWtfcHl0aG9uJywgJy1waCcsICc3LjAnLCAnLXRuJywgJzgnLCAnLW1hJywgJzIwMCcsICctbWV0YWxfYmluZGluZycsICctaW1hZScsICc8aW5maWxlLm1hZT4nLCAnLW9tYWUnLCAnPG91dGZpbGUubWFlPic=

> <r_lp_tautomer_probability>
1

> <r_epik_Ionization_Penalty>
0.00454555

> <r_epik_Ionization_Penalty_Charging>
0.0045191

> <r_epik_Ionization_Penalty_Neutral>
2.64449e-05

> <r_epik_State_Penalty>
-0

> <r_epik_Charging_Adjusted_Penalty>
0.0045191

> <i_epik_Tot_Q>
0

> <i_epik_Tot_abs_Q>
0

> <r_epik_Metal_State_Penalty>
1.27877

> <b_epik_Metal_Only>
0

> <s_epik_Chemistry_Notes>
This compound has an ester and may undergo hydrolysis at high or low pH. This compound contains an acetal/aminal-like group ( X-CH(R)-Y where X, Y are N, S, or O) that may be acid/base labile, releasing an aldehyde.

> <s_lp_Force_Field>
OPLS_2005

> <r_lp_Energy>
32.4523

> <b_lp_Chiralities_Consistent>
1

> <s_lp_Variant>
AV-unprocessed.smi:99-5

> <Gold.Version>
5.8.1

> <Gold.Id.Protein>
6NUR|6NUR_protein|mol2

> <Gold.PLP.Fitness>
54.9061

> <Gold.PLP.PLP>
-50.5927

> <Gold.PLP.part.hbond>
-3.0000

> <Gold.PLP.part.metal>
0.0000

> <Gold.PLP.part.buried>
-6.6438

> <Gold.PLP.part.nonpolar>
-41.9985

> <Gold.PLP.part.repulsive>
0.0638

> <Gold.PLP.ligand.clash>
0.0000

> <Gold.PLP.ligand.torsion>
3.8182

> <Gold.PLP.Chemscore.Hbond>
3.0000

> <Gold.PLP.Chemscore.CHOScore>
0.8739

> <Gold.PLP.Chemscore.Metal>
0.0000

> <Gold.Chemscore.Hbonds>
donor molecule, donor type, donor heavy atom, donor atom, acceptor molecule, acceptor atom, score
      P1  H  6896  6907       L1    15  0.16
      P1  H  6934  6947       L1    21  1.00
      P1  H  7997  8008       L1     1  0.76
      L1  C     9    39       P1  7948  0.17

> <Gold.PLP.Chemscore.Internal.Correction>
0.3281

> <Gold.Rescore>
     Score         DG    S(hbond)    S(metal)    S(lipo)     H(rot)  DE(clash)    DE(int)     intcor
     13.09     -22.13       2.87        0.00     130.05       3.19       0.13       8.91       ----

> <Gold.Chemscore.Fitness>
13.0943

> <Gold.Chemscore.DG>
-22.1303

> <Gold.Chemscore.ZeroCoef>
-5.4800

> <Gold.Chemscore.Hbond>
2.8747

> <Gold.Chemscore.Metal>
0.0000

> <Gold.Chemscore.Lipo>
130.0501

> <Gold.Chemscore.Internal_Hbond>
0.0000

> <Gold.Chemscore.DEClash>
0.1266

> <Gold.Chemscore.DEInternal>
8.9095

> <Gold.Chemscore.Rot>
3.1903

> <Gold.Chemscore.Internal.Correction>
   9.000000E+99

> <Gold.Chemscore.Hbonds>
donor molecule, donor type, donor heavy atom, donor atom, acceptor molecule, acceptor atom, score
      P1  H  6896  6907       L1    15  0.17
      P1  H  6934  6947       L1    21  0.75
      P1  H  7997  8008       L1     1  0.71

> <Gold.Chemscore.Hbond.Weighted>
-9.6016

> <Gold.Chemscore.Metal.Weighted>
-0.0000

> <Gold.Chemscore.Lipo.Weighted>
-15.2159

> <Gold.Chemscore.Internal_Hbond.Weighted>
0.0000

> <Gold.Chemscore.DEClash.Weighted>
0.1266

> <Gold.Chemscore.DEInternal.Weighted>
8.9095

> <Gold.Chemscore.Rot.Weighted>
8.1671

> <Gold.Chemscore.Internal.Correction.Weighted>
   9.000000E+99

> <Gold.Protein.RotatedTorsions>
[ 6907 6896 6895 6894 ] final -103.37 input  -60.11 | X-H torsion
[ 7974 7965 7964 7962 ] final  148.93 input  175.53 | X-H torsion
[ 8008 7997 7996 7995 ] final  -63.00 input   59.86 | X-H torsion
[ 10167 10162 10161 10158 ] final  148.57 input  -65.29 | X-H torsion
[ 10718 10713 10712 10709 ] final  142.60 input   66.30 | X-H torsion
[ 10763 10752 10751 10750 ] final -131.61 input  -60.55 | X-H torsion
[ 11005 11000 10999 10996 ] final   28.80 input  -57.11 | X-H torsion

> <Gold.Protein.ActiveResidues>
 VAL166  LYS551  ARG553  GLY616  TRP617  ASP618  TYR619  PRO620  LYS621  CYS622 
 ASP623  PHE694  ASN695  SER759  ASP760  ASP761  ALA762  ILE779  LEU786  VAL792 
 PHE793  MET794  SER795  GLU796  ALA797  LYS798  CYS799  TRP800  GLU811  SER814 

> <Gold.Protein.RotatedAtoms>
  150.7237  134.0440  159.3775 H   0  0  0  0  0  0  0  0  0  0  0  0  # atno 6907 bound_to 6896
  151.8414  135.0586  160.0458 H   0  0  0  0  0  0  0  0  0  0  0  0  # atno 6908 bound_to 6896
  152.2859  133.5479  159.5563 H   0  0  0  0  0  0  0  0  0  0  0  0  # atno 6909 bound_to 6896
  144.8476  139.6216  143.5988 H   0  0  0  0  0  0  0  0  0  0  0  0  # atno 7974 bound_to 7965
  154.4530  140.0984  156.6675 H   0  0  0  0  0  0  0  0  0  0  0  0  # atno 8008 bound_to 7997
  155.5225  140.3479  155.4391 H   0  0  0  0  0  0  0  0  0  0  0  0  # atno 8009 bound_to 7997
  156.0721  140.1352  156.9805 H   0  0  0  0  0  0  0  0  0  0  0  0  # atno 8010 bound_to 7997
  139.4873  144.5669  151.7128 H   0  0  0  0  0  0  0  0  0  0  0  0  # atno 10167 bound_to 10162
  157.3786  131.0989  151.0760 H   0  0  0  0  0  0  0  0  0  0  0  0  # atno 10718 bound_to 10713
  154.8749  135.3824  154.4274 H   0  0  0  0  0  0  0  0  0  0  0  0  # atno 10763 bound_to 10752
  153.4971  135.7030  153.5857 H   0  0  0  0  0  0  0  0  0  0  0  0  # atno 10764 bound_to 10752
  153.4205  135.3902  155.2075 H   0  0  0  0  0  0  0  0  0  0  0  0  # atno 10765 bound_to 10752
  140.3118  134.2641  155.7733 H   0  0  0  0  0  0  0  0  0  0  0  0  # atno 11005 bound_to 11000
  146.2758  139.6748  142.9264 LP  0  0  0  0  0  0  0  0  0  0  0  0  # atno 17320 bound_to 7965
  145.4565  141.0431  143.2775 LP  0  0  0  0  0  0  0  0  0  0  0  0  # atno 17321 bound_to 7965
  140.5249  144.0822  150.6034 LP  0  0  0  0  0  0  0  0  0  0  0  0  # atno 17342 bound_to 10162
  140.3792  143.2812  152.0190 LP  0  0  0  0  0  0  0  0  0  0  0  0  # atno 17343 bound_to 10162
  157.1837  130.6321  149.5680 LP  0  0  0  0  0  0  0  0  0  0  0  0  # atno 17370 bound_to 10713
  155.9771  130.4745  150.6570 LP  0  0  0  0  0  0  0  0  0  0  0  0  # atno 17371 bound_to 10713
  141.2106  133.7713  156.9918 LP  0  0  0  0  0  0  0  0  0  0  0  0  # atno 17394 bound_to 11000
  140.1018  134.9530  157.1935 LP  0  0  0  0  0  0  0  0  0  0  0  0  # atno 17395 bound_to 11000

$$$$
