AV-unprocessed.smi:349|AV-procd|sdf|2397|dock1
  -GOLD-   2262022323D 1   1.00000     0.00000
 Structure written by MMmdl.
 43 44  0  0  0  0  0  0  0  0  1 V2000
  152.3894  143.3480  160.9962 C   0  0  0  0  0  0  0  0  0  0  0  0
  152.7691  143.7150  159.5530 C   0  0  0  0  0  0  0  0  0  0  0  0
  151.5626  143.8839  158.6031 C   0  0  1  0  0  0  0  0  0  0  0  0
  152.0247  144.2916  157.1937 C   0  0  0  0  0  0  0  0  0  0  0  0
  150.7086  142.6097  158.5251 C   0  0  0  0  0  0  0  0  0  0  0  0
  151.0358  141.6055  159.1582 O   0  0  0  0  0  0  0  0  0  0  0  0
  149.6229  142.6646  157.7374 N   0  0  0  0  0  0  0  0  0  0  0  0
  148.6881  141.5693  157.4935 C   0  0  0  0  0  0  0  0  0  0  0  0
  148.1544  141.5348  156.0605 C   0  0  0  0  0  0  0  0  0  0  0  0
  147.0290  142.3182  155.7162 C   0  0  0  0  0  0  0  0  0  0  0  0
  146.5555  142.3097  154.3925 C   0  0  0  0  0  0  0  0  0  0  0  0
  147.2328  141.5178  153.4497 C   0  0  0  0  0  0  0  0  0  0  0  0
  148.3123  140.7704  153.7557 N   0  0  0  0  0  0  0  0  0  0  0  0
  148.7744  140.7737  155.0305 C   0  0  0  0  0  0  0  0  0  0  0  0
  149.8918  139.9646  155.3053 N   0  0  0  0  0  0  0  0  0  0  0  0
  151.0670  140.6334  155.8540 C   0  0  0  0  0  0  0  0  0  0  0  0
  152.1118  139.5873  156.2780 C   0  0  0  0  0  0  0  0  0  0  0  0
  152.4330  138.7578  155.1646 O   0  0  0  0  0  0  0  0  0  0  0  0
  151.2954  138.0536  154.6737 C   0  0  0  0  0  0  0  0  0  0  0  0
  150.2218  139.0556  154.2149 C   0  0  0  0  0  0  0  0  0  0  0  0
  153.2762  143.3053  161.6286 H   0  0  0  0  0  0  0  0  0  0  0  0
  151.9024  142.3742  161.0509 H   0  0  0  0  0  0  0  0  0  0  0  0
  151.7123  144.0874  161.4248 H   0  0  0  0  0  0  0  0  0  0  0  0
  153.3335  144.6479  159.5758 H   0  0  0  0  0  0  0  0  0  0  0  0
  153.4550  142.9640  159.1581 H   0  0  0  0  0  0  0  0  0  0  0  0
  150.9401  144.6928  158.9898 H   0  0  0  0  0  0  0  0  0  0  0  0
  151.1778  144.4089  156.5163 H   0  0  0  0  0  0  0  0  0  0  0  0
  152.6968  143.5494  156.7611 H   0  0  0  0  0  0  0  0  0  0  0  0
  152.5564  145.2432  157.2174 H   0  0  0  0  0  0  0  0  0  0  0  0
  149.4345  143.5334  157.2587 H   0  0  0  0  0  0  0  0  0  0  0  0
  149.1503  140.6046  157.7076 H   0  0  0  0  0  0  0  0  0  0  0  0
  147.8871  141.6744  158.2227 H   0  0  0  0  0  0  0  0  0  0  0  0
  146.5314  142.9298  156.4535 H   0  0  0  0  0  0  0  0  0  0  0  0
  145.6975  142.8999  154.1068 H   0  0  0  0  0  0  0  0  0  0  0  0
  146.9010  141.4846  152.4225 H   0  0  0  0  0  0  0  0  0  0  0  0
  151.4991  141.2995  155.1059 H   0  0  0  0  0  0  0  0  0  0  0  0
  150.7788  141.2457  156.7093 H   0  0  0  0  0  0  0  0  0  0  0  0
  153.0187  140.0809  156.6274 H   0  0  0  0  0  0  0  0  0  0  0  0
  151.7406  138.9786  157.1041 H   0  0  0  0  0  0  0  0  0  0  0  0
  151.6019  137.4223  153.8397 H   0  0  0  0  0  0  0  0  0  0  0  0
  150.9035  137.3918  155.4479 H   0  0  0  0  0  0  0  0  0  0  0  0
  149.3324  138.5223  153.8779 H   0  0  0  0  0  0  0  0  0  0  0  0
  150.5887  139.6331  153.3651 H   0  0  0  0  0  0  0  0  0  0  0  0
  1  2  1  0  0  0  0
  1 21  1  0  0  0  0
  1 22  1  0  0  0  0
  1 23  1  0  0  0  0
  2  3  1  0  0  0  0
  2 24  1  0  0  0  0
  2 25  1  0  0  0  0
  3  4  1  0  0  0  0
  3  5  1  0  0  0  0
  3 26  1  0  0  0  0
  4 27  1  0  0  0  0
  4 28  1  0  0  0  0
  4 29  1  0  0  0  0
  5  6  2  0  0  0  0
  5  7  1  0  0  0  0
  7  8  1  0  0  0  0
  7 30  1  0  0  0  0
  8  9  1  0  0  0  0
  8 31  1  0  0  0  0
  8 32  1  0  0  0  0
  9 14  1  0  0  0  0
  9 10  2  0  0  0  0
 10 11  1  0  0  0  0
 10 33  1  0  0  0  0
 11 12  2  0  0  0  0
 11 34  1  0  0  0  0
 12 13  1  0  0  0  0
 12 35  1  0  0  0  0
 13 14  2  0  0  0  0
 14 15  1  0  0  0  0
 15 20  1  0  0  0  0
 15 16  1  0  0  0  0
 16 17  1  0  0  0  0
 16 36  1  0  0  0  0
 16 37  1  0  0  0  0
 17 18  1  0  0  0  0
 17 38  1  0  0  0  0
 17 39  1  0  0  0  0
 18 19  1  0  0  0  0
 19 20  1  0  0  0  0
 19 40  1  0  0  0  0
 19 41  1  0  0  0  0
 20 42  1  0  0  0  0
 20 43  1  0  0  0  0
M  END
> <s_m_source_file>
AV-unprocessed.smi

> <i_m_source_file_index>
349

> <i_lp_mmshare_version>
43012

> <i_f3d_flags>
0

> <s_epik_input>
W0NIM11bQ0gyXVtDQEhdKFtDSDNdKUMoPU8pW05IXVtDSDJdYzFbY0hdW2NIXVtjSF1uYzFOMltDSDJdW0NIMl1PW0NIMl1bQ0gyXTI=

> <s_epik_cmdline>
J2VwaWtfcHl0aG9uJywgJy1waCcsICc3LjAnLCAnLXRuJywgJzgnLCAnLW1hJywgJzIwMCcsICctbWV0YWxfYmluZGluZycsICctaW1hZScsICc8aW5maWxlLm1hZT4nLCAnLW9tYWUnLCAnPG91dGZpbGUubWFlPic=

> <r_lp_tautomer_probability>
1

> <r_epik_Ionization_Penalty>
0.00513869

> <r_epik_Ionization_Penalty_Charging>
0

> <r_epik_Ionization_Penalty_Neutral>
0.00513869

> <r_epik_State_Penalty>
0.00374265

> <r_epik_Charging_Adjusted_Penalty>
0.00374265

> <i_epik_Tot_Q>
0

> <i_epik_Tot_abs_Q>
0

> <r_epik_Metal_State_Penalty>
-0

> <b_epik_Metal_Only>
0

> <s_lp_Force_Field>
OPLS_2005

> <r_lp_Energy>
19.4622

> <b_lp_Chiralities_Consistent>
1

> <s_lp_Variant>
AV-unprocessed.smi:349-2

> <Gold.Version>
5.8.1

> <Gold.Id.Protein>
6NUR|6NUR_protein|mol2

> <Gold.PLP.Fitness>
42.8777

> <Gold.PLP.PLP>
-40.9939

> <Gold.PLP.part.hbond>
-1.6395

> <Gold.PLP.part.metal>
0.0000

> <Gold.PLP.part.buried>
-5.4449

> <Gold.PLP.part.nonpolar>
-33.7124

> <Gold.PLP.part.repulsive>
0.8261

> <Gold.PLP.ligand.clash>
0.0000

> <Gold.PLP.ligand.torsion>
0.6619

> <Gold.PLP.Chemscore.Hbond>
1.0000

> <Gold.PLP.Chemscore.CHOScore>
0.0000

> <Gold.PLP.Chemscore.Metal>
0.0000

> <Gold.Chemscore.Hbonds>
donor molecule, donor type, donor heavy atom, donor atom, acceptor molecule, acceptor atom, score
      L1  H     7    30       P1  8028  0.94

> <Gold.PLP.Chemscore.Internal.Correction>
0.2075

> <Gold.Rescore>
     Score         DG    S(hbond)    S(metal)    S(lipo)     H(rot)  DE(clash)    DE(int)     intcor
     13.77     -16.29       0.88        0.00     103.17       1.64       0.38       2.14       ----

> <Gold.Chemscore.Fitness>
13.7667

> <Gold.Chemscore.DG>
-16.2914

> <Gold.Chemscore.ZeroCoef>
-5.4800

> <Gold.Chemscore.Hbond>
0.8804

> <Gold.Chemscore.Metal>
0.0000

> <Gold.Chemscore.Lipo>
103.1701

> <Gold.Chemscore.Internal_Hbond>
0.0000

> <Gold.Chemscore.DEClash>
0.3812

> <Gold.Chemscore.DEInternal>
2.1435

> <Gold.Chemscore.Rot>
1.6407

> <Gold.Chemscore.Internal.Correction>
   9.000000E+99

> <Gold.Chemscore.Hbonds>
donor molecule, donor type, donor heavy atom, donor atom, acceptor molecule, acceptor atom, score
      L1  H     7    30       P1  8028  0.66

> <Gold.Chemscore.Hbond.Weighted>
-2.9406

> <Gold.Chemscore.Metal.Weighted>
-0.0000

> <Gold.Chemscore.Lipo.Weighted>
-12.0709

> <Gold.Chemscore.Internal_Hbond.Weighted>
0.0000

> <Gold.Chemscore.DEClash.Weighted>
0.3812

> <Gold.Chemscore.DEInternal.Weighted>
2.1435

> <Gold.Chemscore.Rot.Weighted>
4.2001

> <Gold.Chemscore.Internal.Correction.Weighted>
   9.000000E+99

> <Gold.Protein.RotatedTorsions>
[ 6907 6896 6895 6894 ] final   33.43 input  -60.11 | X-H torsion
[ 7974 7965 7964 7962 ] final -101.97 input  175.53 | X-H torsion
[ 8008 7997 7996 7995 ] final   50.02 input   59.86 | X-H torsion
[ 10167 10162 10161 10158 ] final   82.27 input  -65.29 | X-H torsion
[ 10718 10713 10712 10709 ] final  178.24 input   66.30 | X-H torsion
[ 10763 10752 10751 10750 ] final  -37.90 input  -60.55 | X-H torsion
[ 11005 11000 10999 10996 ] final   -8.01 input  -57.11 | X-H torsion

> <Gold.Protein.ActiveResidues>
 VAL166  LYS551  ARG553  GLY616  TRP617  ASP618  TYR619  PRO620  LYS621  CYS622 
 ASP623  PHE694  ASN695  SER759  ASP760  ASP761  ALA762  ILE779  LEU786  VAL792 
 PHE793  MET794  SER795  GLU796  ALA797  LYS798  CYS799  TRP800  GLU811  SER814 

> <Gold.Protein.RotatedAtoms>
  152.0884  134.9424  160.0572 H   0  0  0  0  0  0  0  0  0  0  0  0  # atno 6907 bound_to 6896
  152.0685  133.4090  159.4457 H   0  0  0  0  0  0  0  0  0  0  0  0  # atno 6908 bound_to 6896
  150.6836  134.3039  159.4761 H   0  0  0  0  0  0  0  0  0  0  0  0  # atno 6909 bound_to 6896
  145.2748  140.9309  143.2966 H   0  0  0  0  0  0  0  0  0  0  0  0  # atno 7974 bound_to 7965
  155.4119  140.3442  155.4264 H   0  0  0  0  0  0  0  0  0  0  0  0  # atno 8008 bound_to 7997
  156.1444  140.1552  156.8902 H   0  0  0  0  0  0  0  0  0  0  0  0  # atno 8009 bound_to 7997
  154.4998  140.0818  156.7754 H   0  0  0  0  0  0  0  0  0  0  0  0  # atno 8010 bound_to 7997
  139.9305  144.6155  150.8349 H   0  0  0  0  0  0  0  0  0  0  0  0  # atno 10167 bound_to 10162
  156.8935  130.9855  151.3046 H   0  0  0  0  0  0  0  0  0  0  0  0  # atno 10718 bound_to 10713
  153.9039  135.6799  153.4754 H   0  0  0  0  0  0  0  0  0  0  0  0  # atno 10763 bound_to 10752
  153.1114  135.4781  154.9039 H   0  0  0  0  0  0  0  0  0  0  0  0  # atno 10764 bound_to 10752
  154.7561  135.3198  154.8422 H   0  0  0  0  0  0  0  0  0  0  0  0  # atno 10765 bound_to 10752
  140.7189  133.8845  155.8806 H   0  0  0  0  0  0  0  0  0  0  0  0  # atno 11005 bound_to 11000
  144.9304  139.4305  143.6498 LP  0  0  0  0  0  0  0  0  0  0  0  0  # atno 17320 bound_to 7965
  146.3235  139.8212  142.8926 LP  0  0  0  0  0  0  0  0  0  0  0  0  # atno 17321 bound_to 7965
  140.7638  143.3233  151.2572 LP  0  0  0  0  0  0  0  0  0  0  0  0  # atno 17342 bound_to 10162
  139.6786  143.9894  152.2795 LP  0  0  0  0  0  0  0  0  0  0  0  0  # atno 17343 bound_to 10162
  157.6069  130.8554  149.8890 LP  0  0  0  0  0  0  0  0  0  0  0  0  # atno 17370 bound_to 10713
  156.0617  130.3699  150.0967 LP  0  0  0  0  0  0  0  0  0  0  0  0  # atno 17371 bound_to 10713
  141.0021  134.1136  157.4307 LP  0  0  0  0  0  0  0  0  0  0  0  0  # atno 17394 bound_to 11000
  139.8853  135.0071  156.6426 LP  0  0  0  0  0  0  0  0  0  0  0  0  # atno 17395 bound_to 11000

$$$$
