AV-unprocessed.smi:686|AV-procd|sdf|3342|dock3
  -GOLD-   22720 0313D 1   1.00000     0.00000
 Structure written by MMmdl.
 41 42  0  0  0  0  0  0  0  0  2 V2000
  149.2309  131.2842  154.2713 C   0  0  0  0  0  0  0  0  0  0  0  0
  149.0448  132.6991  153.7068 C   0  0  1  0  0  0  0  0  0  0  0  0
  147.7181  132.8937  152.9699 C   0  0  0  0  0  0  0  0  0  0  0  0
  147.4452  134.3427  153.0457 N   0  3  1  0  0  0  0  0  0  0  0  0
  146.0542  134.7511  152.7000 C   0  0  0  0  0  0  0  0  0  0  0  0
  145.6664  134.2965  151.2804 C   0  0  0  0  0  0  0  0  0  0  0  0
  145.8722  136.2759  152.8214 C   0  0  0  0  0  0  0  0  0  0  0  0
  147.9010  134.7497  154.3928 C   0  0  0  0  0  0  0  0  0  0  0  0
  149.0588  133.8082  154.7745 C   0  0  2  0  0  0  0  0  0  0  0  0
  150.3512  134.5042  154.7658 N   0  0  0  0  0  0  0  0  0  0  0  0
  150.5960  135.9280  155.7148 S   0  0  0  0  0  0  0  0  0  0  0  0
  149.3218  136.2695  156.3666 O   0  0  0  0  0  0  0  0  0  0  0  0
  151.8080  135.7158  156.5200 O   0  0  0  0  0  0  0  0  0  0  0  0
  150.9717  137.2016  154.4350 C   0  0  0  0  0  0  0  0  0  0  0  0
  151.3365  138.4944  155.1057 C   0  0  0  0  0  0  0  0  0  0  0  0
  150.6617  139.7449  155.0449 C   0  0  0  0  0  0  0  0  0  0  0  0
  151.4264  140.5576  155.8310 C   0  0  0  0  0  0  0  0  0  0  0  0
  152.4817  139.8719  156.3388 O   0  0  0  0  0  0  0  0  0  0  0  0
  152.4151  138.5545  155.8710 N   0  0  0  0  0  0  0  0  0  0  0  0
  148.4510  131.0370  154.9922 H   0  0  0  0  0  0  0  0  0  0  0  0
  150.1929  131.1892  154.7757 H   0  0  0  0  0  0  0  0  0  0  0  0
  149.1980  130.5384  153.4764 H   0  0  0  0  0  0  0  0  0  0  0  0
  149.8419  132.8862  152.9844 H   0  0  0  0  0  0  0  0  0  0  0  0
  147.7746  132.5386  151.9404 H   0  0  0  0  0  0  0  0  0  0  0  0
  146.9188  132.3480  153.4750 H   0  0  0  0  0  0  0  0  0  0  0  0
  145.3726  134.2719  153.4047 H   0  0  0  0  0  0  0  0  0  0  0  0
  144.6653  134.6417  151.0206 H   0  0  0  0  0  0  0  0  0  0  0  0
  145.6560  133.2105  151.1870 H   0  0  0  0  0  0  0  0  0  0  0  0
  146.3557  134.6925  150.5336 H   0  0  0  0  0  0  0  0  0  0  0  0
  144.8666  136.5749  152.5237 H   0  0  0  0  0  0  0  0  0  0  0  0
  146.5773  136.8112  152.1843 H   0  0  0  0  0  0  0  0  0  0  0  0
  146.0134  136.6245  153.8446 H   0  0  0  0  0  0  0  0  0  0  0  0
  148.1779  135.8033  154.4102 H   0  0  0  0  0  0  0  0  0  0  0  0
  147.0868  134.6168  155.1073 H   0  0  0  0  0  0  0  0  0  0  0  0
  148.8869  133.3932  155.7690 H   0  0  0  0  0  0  0  0  0  0  0  0
  151.1645  133.8886  154.7456 H   0  0  0  0  0  0  0  0  0  0  0  0
  151.7848  136.8351  153.8085 H   0  0  0  0  0  0  0  0  0  0  0  0
  150.0964  137.3263  153.7986 H   0  0  0  0  0  0  0  0  0  0  0  0
  149.7624  140.0054  154.5065 H   0  0  0  0  0  0  0  0  0  0  0  0
  151.3551  141.5974  156.1143 H   0  0  0  0  0  0  0  0  0  0  0  0
  148.0676  134.7854  152.3849 H   0  0  0  0  0  0  0  0  0  0  0  0
  1  2  1  0  0  0  0
  1 20  1  0  0  0  0
  1 21  1  0  0  0  0
  1 22  1  0  0  0  0
  2  9  1  0  0  0  0
  2  3  1  0  0  0  0
  2 23  1  0  0  0  0
  3  4  1  0  0  0  0
  3 24  1  0  0  0  0
  3 25  1  0  0  0  0
  4  5  1  0  0  0  0
  4  8  1  0  0  0  0
  4 41  1  0  0  0  0
  5  6  1  0  0  0  0
  5  7  1  0  0  0  0
  5 26  1  0  0  0  0
  6 27  1  0  0  0  0
  6 28  1  0  0  0  0
  6 29  1  0  0  0  0
  7 30  1  0  0  0  0
  7 31  1  0  0  0  0
  7 32  1  0  0  0  0
  8  9  1  0  0  0  0
  8 33  1  0  0  0  0
  8 34  1  0  0  0  0
  9 10  1  0  0  0  0
  9 35  1  0  0  0  0
 10 11  1  0  0  0  0
 10 36  1  0  0  0  0
 11 12  2  0  0  0  0
 11 13  2  0  0  0  0
 11 14  1  0  0  0  0
 14 15  1  0  0  0  0
 14 37  1  0  0  0  0
 14 38  1  0  0  0  0
 15 19  2  0  0  0  0
 15 16  1  0  0  0  0
 16 17  2  0  0  0  0
 16 39  1  0  0  0  0
 17 18  1  0  0  0  0
 17 40  1  0  0  0  0
 18 19  1  0  0  0  0
M  CHG  1   4   1
M  END
> <s_m_source_file>
AV-unprocessed.smi

> <i_m_source_file_index>
686

> <i_lp_mmshare_version>
43012

> <i_f3d_flags>
0

> <s_epik_input>
W0NIM11bQ0BASF0xW0NIMl1OKFtDSF0oW0NIM10pW0NIM10pW0NIMl1bQ0BIXTFbTkhdUyg9TykoPU8pW0NIMl1jMltjSF1bY0hdb24y

> <s_epik_cmdline>
J2VwaWtfcHl0aG9uJywgJy1waCcsICc3LjAnLCAnLXRuJywgJzgnLCAnLW1hJywgJzIwMCcsICctbWV0YWxfYmluZGluZycsICctaW1hZScsICc8aW5maWxlLm1hZT4nLCAnLW9tYWUnLCAnPG91dGZpbGUubWFlPic=

> <r_epik_Ionization_Penalty>
0.00200818

> <r_epik_Ionization_Penalty_Charging>
0.000701289

> <r_epik_Ionization_Penalty_Neutral>
0.00130689

> <r_epik_State_Penalty>
0.00131314

> <r_epik_Charging_Adjusted_Penalty>
0.00201443

> <i_epik_Tot_Q>
1

> <i_epik_Tot_abs_Q>
1

> <r_epik_Metal_State_Penalty>
0.310831

> <b_epik_Metal_Only>
0

> <s_lp_Force_Field>
OPLS_2005

> <r_lp_Energy>
19.8293

> <b_lp_Chiralities_Consistent>
1

> <s_lp_Variant>
AV-unprocessed.smi:686-6

> <Gold.Version>
5.8.1

> <Gold.Id.Protein>
6NUR|6NUR_protein|mol2

> <Gold.PLP.Fitness>
42.1796

> <Gold.PLP.PLP>
-30.2779

> <Gold.PLP.part.hbond>
-3.0000

> <Gold.PLP.part.metal>
0.0000

> <Gold.PLP.part.buried>
0.7376

> <Gold.PLP.part.nonpolar>
-26.2653

> <Gold.PLP.part.repulsive>
0.0233

> <Gold.PLP.ligand.clash>
0.0000

> <Gold.PLP.ligand.torsion>
0.1371

> <Gold.PLP.Chemscore.Hbond>
4.0000

> <Gold.PLP.Chemscore.CHOScore>
0.0000

> <Gold.PLP.Chemscore.Metal>
0.0000

> <Gold.Chemscore.Hbonds>
donor molecule, donor type, donor heavy atom, donor atom, acceptor molecule, acceptor atom, score
      L1  H     4    41       P1  7948  2.00
      P1  H  7997  8010       L1    18  1.00
      P1  H 10752 10765       L1    13  0.99

> <Gold.PLP.Chemscore.Internal.Correction>
0.1760

> <Gold.Rescore>
     Score         DG    S(hbond)    S(metal)    S(lipo)     H(rot)  DE(clash)    DE(int)     intcor
     15.13     -17.36       2.86        0.00      61.81       1.91       0.03       2.21       ----

> <Gold.Chemscore.Fitness>
15.1324

> <Gold.Chemscore.DG>
-17.3638

> <Gold.Chemscore.ZeroCoef>
-5.4800

> <Gold.Chemscore.Hbond>
2.8578

> <Gold.Chemscore.Metal>
0.0000

> <Gold.Chemscore.Lipo>
61.8137

> <Gold.Chemscore.Internal_Hbond>
0.0000

> <Gold.Chemscore.DEClash>
0.0262

> <Gold.Chemscore.DEInternal>
2.2051

> <Gold.Chemscore.Rot>
1.9115

> <Gold.Chemscore.Internal.Correction>
   9.000000E+99

> <Gold.Chemscore.Hbonds>
donor molecule, donor type, donor heavy atom, donor atom, acceptor molecule, acceptor atom, score
      L1  H     4    41       P1  7948  0.53
      P1  H  7997  8010       L1    18  0.30
      P1  H 10752 10765       L1    13  0.60

> <Gold.Chemscore.Hbond.Weighted>
-9.5450

> <Gold.Chemscore.Metal.Weighted>
-0.0000

> <Gold.Chemscore.Lipo.Weighted>
-7.2322

> <Gold.Chemscore.Internal_Hbond.Weighted>
0.0000

> <Gold.Chemscore.DEClash.Weighted>
0.0262

> <Gold.Chemscore.DEInternal.Weighted>
2.2051

> <Gold.Chemscore.Rot.Weighted>
4.8935

> <Gold.Chemscore.Internal.Correction.Weighted>
   9.000000E+99

> <Gold.Protein.RotatedTorsions>
[ 6907 6896 6895 6894 ] final  -68.64 input  -60.11 | X-H torsion
[ 7974 7965 7964 7962 ] final  112.04 input  175.53 | X-H torsion
[ 8008 7997 7996 7995 ] final   71.60 input   59.86 | X-H torsion
[ 10167 10162 10161 10158 ] final  135.22 input  -65.29 | X-H torsion
[ 10718 10713 10712 10709 ] final  112.60 input   66.30 | X-H torsion
[ 10763 10752 10751 10750 ] final -131.67 input  -60.55 | X-H torsion
[ 11005 11000 10999 10996 ] final   90.92 input  -57.11 | X-H torsion

> <Gold.Protein.ActiveResidues>
 VAL166  LYS551  ARG553  GLY616  TRP617  ASP618  TYR619  PRO620  LYS621  CYS622 
 ASP623  PHE694  ASN695  SER759  ASP760  ASP761  ALA762  ILE779  LEU786  VAL792 
 PHE793  MET794  SER795  GLU796  ALA797  LYS798  CYS799  TRP800  GLU811  SER814 

> <Gold.Protein.RotatedAtoms>
  150.7346  134.5710  159.5890 H   0  0  0  0  0  0  0  0  0  0  0  0  # atno 6907 bound_to 6896
  152.3149  134.7449  160.0336 H   0  0  0  0  0  0  0  0  0  0  0  0  # atno 6908 bound_to 6896
  151.7984  133.3331  159.3556 H   0  0  0  0  0  0  0  0  0  0  0  0  # atno 6909 bound_to 6896
  145.2345  139.2805  143.4150 H   0  0  0  0  0  0  0  0  0  0  0  0  # atno 7974 bound_to 7965
  155.7563  140.3487  155.5175 H   0  0  0  0  0  0  0  0  0  0  0  0  # atno 8008 bound_to 7997
  155.8956  140.1025  157.1408 H   0  0  0  0  0  0  0  0  0  0  0  0  # atno 8009 bound_to 7997
  154.4038  140.1296  156.4358 H   0  0  0  0  0  0  0  0  0  0  0  0  # atno 8010 bound_to 7997
  139.5225  144.6528  151.5252 H   0  0  0  0  0  0  0  0  0  0  0  0  # atno 10167 bound_to 10162
  157.6384  131.0970  150.6919 H   0  0  0  0  0  0  0  0  0  0  0  0  # atno 10718 bound_to 10713
  154.8749  135.3822  154.4284 H   0  0  0  0  0  0  0  0  0  0  0  0  # atno 10763 bound_to 10752
  153.4981  135.7030  153.5852 H   0  0  0  0  0  0  0  0  0  0  0  0  # atno 10764 bound_to 10752
  153.4196  135.3905  155.2069 H   0  0  0  0  0  0  0  0  0  0  0  0  # atno 10765 bound_to 10752
  139.8847  134.8643  156.3354 H   0  0  0  0  0  0  0  0  0  0  0  0  # atno 11005 bound_to 11000
  146.3344  140.2690  142.8605 LP  0  0  0  0  0  0  0  0  0  0  0  0  # atno 17320 bound_to 7965
  144.9645  140.8308  143.5493 LP  0  0  0  0  0  0  0  0  0  0  0  0  # atno 17321 bound_to 7965
  140.6340  143.9020  150.6631 LP  0  0  0  0  0  0  0  0  0  0  0  0  # atno 17342 bound_to 10162
  140.2334  143.3719  152.1547 LP  0  0  0  0  0  0  0  0  0  0  0  0  # atno 17343 bound_to 10162
  156.7247  130.4691  149.5514 LP  0  0  0  0  0  0  0  0  0  0  0  0  # atno 17370 bound_to 10713
  156.1642  130.6394  151.0757 LP  0  0  0  0  0  0  0  0  0  0  0  0  # atno 17371 bound_to 10713
  140.9695  133.7337  156.0514 LP  0  0  0  0  0  0  0  0  0  0  0  0  # atno 17394 bound_to 11000
  140.7889  134.3640  157.5469 LP  0  0  0  0  0  0  0  0  0  0  0  0  # atno 17395 bound_to 11000

$$$$
