AV-unprocessed.smi:1302|AV-procd|sdf|5426|dock8
  -GOLD-   22720 4583D 1   1.00000     0.00000
 Structure written by MMmdl.
 43 44  0  0  0  0  0  0  0  0  1 V2000
  147.7402  134.9967  155.5493 C   0  0  0  0  0  0  0  0  0  0  0  0
  149.1318  135.2963  154.9747 C   0  0  0  0  0  0  0  0  0  0  0  0
  150.1034  134.1287  155.1920 C   0  0  0  0  0  0  0  0  0  0  0  0
  149.6707  136.5025  155.5969 N   0  0  0  0  0  0  0  0  0  0  0  0
  150.8733  137.0481  155.3491 C   0  0  0  0  0  0  0  0  0  0  0  0
  151.7002  136.5650  154.5755 O   0  0  0  0  0  0  0  0  0  0  0  0
  151.1933  138.2845  156.1373 C   0  0  0  0  0  0  0  0  0  0  0  0
  150.1908  139.2376  156.4181 C   0  0  0  0  0  0  0  0  0  0  0  0
  150.5221  140.3755  157.1787 C   0  0  0  0  0  0  0  0  0  0  0  0
  151.8442  140.5172  157.6478 C   0  0  0  0  0  0  0  0  0  0  0  0
  152.1796  141.6505  158.4014 N   0  0  0  0  0  0  0  0  0  0  0  0
  152.5754  141.3332  159.7658 C   0  0  0  0  0  0  0  0  0  0  0  0
  153.1000  142.5968  160.4718 C   0  0  2  0  0  0  0  0  0  0  0  0
  153.4103  142.3375  161.9496 C   0  0  0  0  0  0  0  0  0  0  0  0
  152.1146  143.6284  160.4019 O   0  0  0  0  0  0  0  0  0  0  0  0
  151.6941  143.9716  159.0786 C   0  0  1  0  0  0  0  0  0  0  0  0
  152.7821  144.7363  158.3032 C   0  0  0  0  0  0  0  0  0  0  0  0
  151.1848  142.7145  158.3466 C   0  0  0  0  0  0  0  0  0  0  0  0
  152.8099  139.6024  157.3937 N   0  0  0  0  0  0  0  0  0  0  0  0
  152.4861  138.5161  156.6602 C   0  0  0  0  0  0  0  0  0  0  0  0
  147.3125  134.1035  155.0931 H   0  0  0  0  0  0  0  0  0  0  0  0
  147.0523  135.8224  155.3638 H   0  0  0  0  0  0  0  0  0  0  0  0
  147.7818  134.8329  156.6268 H   0  0  0  0  0  0  0  0  0  0  0  0
  149.0281  135.4419  153.8983 H   0  0  0  0  0  0  0  0  0  0  0  0
  149.7278  133.2161  154.7283 H   0  0  0  0  0  0  0  0  0  0  0  0
  150.2522  133.9263  156.2532 H   0  0  0  0  0  0  0  0  0  0  0  0
  151.0782  134.3429  154.7524 H   0  0  0  0  0  0  0  0  0  0  0  0
  149.0771  136.9641  156.2707 H   0  0  0  0  0  0  0  0  0  0  0  0
  149.1821  139.1083  156.0535 H   0  0  0  0  0  0  0  0  0  0  0  0
  149.7735  141.1228  157.3985 H   0  0  0  0  0  0  0  0  0  0  0  0
  151.7197  140.9280  160.3085 H   0  0  0  0  0  0  0  0  0  0  0  0
  153.3463  140.5617  159.7557 H   0  0  0  0  0  0  0  0  0  0  0  0
  154.0172  142.9330  159.9873 H   0  0  0  0  0  0  0  0  0  0  0  0
  154.1656  141.5592  162.0621 H   0  0  0  0  0  0  0  0  0  0  0  0
  152.5183  142.0191  162.4898 H   0  0  0  0  0  0  0  0  0  0  0  0
  153.7879  143.2391  162.4324 H   0  0  0  0  0  0  0  0  0  0  0  0
  150.8512  144.6535  159.1935 H   0  0  0  0  0  0  0  0  0  0  0  0
  152.3963  145.0929  157.3481 H   0  0  0  0  0  0  0  0  0  0  0  0
  153.6517  144.1157  158.0878 H   0  0  0  0  0  0  0  0  0  0  0  0
  153.1221  145.6056  158.8662 H   0  0  0  0  0  0  0  0  0  0  0  0
  150.9426  142.9489  157.3092 H   0  0  0  0  0  0  0  0  0  0  0  0
  150.2634  142.3705  158.8188 H   0  0  0  0  0  0  0  0  0  0  0  0
  153.2890  137.8126  156.4948 H   0  0  0  0  0  0  0  0  0  0  0  0
  1  2  1  0  0  0  0
  1 21  1  0  0  0  0
  1 22  1  0  0  0  0
  1 23  1  0  0  0  0
  2  3  1  0  0  0  0
  2  4  1  0  0  0  0
  2 24  1  0  0  0  0
  3 25  1  0  0  0  0
  3 26  1  0  0  0  0
  3 27  1  0  0  0  0
  4  5  1  0  0  0  0
  4 28  1  0  0  0  0
  5  6  2  0  0  0  0
  5  7  1  0  0  0  0
  7 20  1  0  0  0  0
  7  8  2  0  0  0  0
  8  9  1  0  0  0  0
  8 29  1  0  0  0  0
  9 10  2  0  0  0  0
  9 30  1  0  0  0  0
 10 11  1  0  0  0  0
 10 19  1  0  0  0  0
 11 18  1  0  0  0  0
 11 12  1  0  0  0  0
 12 13  1  0  0  0  0
 12 31  1  0  0  0  0
 12 32  1  0  0  0  0
 13 14  1  0  0  0  0
 13 15  1  0  0  0  0
 13 33  1  0  0  0  0
 14 34  1  0  0  0  0
 14 35  1  0  0  0  0
 14 36  1  0  0  0  0
 15 16  1  0  0  0  0
 16 17  1  0  0  0  0
 16 18  1  0  0  0  0
 16 37  1  0  0  0  0
 17 38  1  0  0  0  0
 17 39  1  0  0  0  0
 17 40  1  0  0  0  0
 18 41  1  0  0  0  0
 18 42  1  0  0  0  0
 19 20  2  0  0  0  0
 20 43  1  0  0  0  0
M  END
> <s_m_source_file>
AV-unprocessed.smi

> <i_m_source_file_index>
1302

> <i_lp_mmshare_version>
43012

> <i_f3d_flags>
0

> <s_epik_input>
W0NIM11bQ0hdKFtDSDNdKVtOSF1DKD1PKWMxW2NIXVtjSF1jKG5bY0hdMSlOMltDSDJdW0NAQEhdKFtDSDNdKU9bQ0BASF0oW0NIM10pW0NIMl0y

> <s_epik_cmdline>
J2VwaWtfcHl0aG9uJywgJy1waCcsICc3LjAnLCAnLXRuJywgJzgnLCAnLW1hJywgJzIwMCcsICctbWV0YWxfYmluZGluZycsICctaW1hZScsICc8aW5maWxlLm1hZT4nLCAnLW9tYWUnLCAnPG91dGZpbGUubWFlPic=

> <r_lp_tautomer_probability>
1

> <r_epik_Ionization_Penalty>
2.23089e-05

> <r_epik_Ionization_Penalty_Charging>
0

> <r_epik_Ionization_Penalty_Neutral>
2.23089e-05

> <r_epik_State_Penalty>
-0

> <r_epik_Charging_Adjusted_Penalty>
0

> <i_epik_Tot_Q>
0

> <i_epik_Tot_abs_Q>
0

> <r_epik_Metal_State_Penalty>
-0

> <b_epik_Metal_Only>
0

> <s_lp_Force_Field>
OPLS_2005

> <r_lp_Energy>
23.1748

> <b_lp_Chiralities_Consistent>
1

> <s_lp_Variant>
AV-unprocessed.smi:1302-2

> <Gold.Version>
5.8.1

> <Gold.Id.Protein>
6NUR|6NUR_protein|mol2

> <Gold.PLP.Fitness>
37.9401

> <Gold.PLP.PLP>
-35.2269

> <Gold.PLP.part.hbond>
-2.0000

> <Gold.PLP.part.metal>
0.0000

> <Gold.PLP.part.buried>
-5.8156

> <Gold.PLP.part.nonpolar>
-27.8731

> <Gold.PLP.part.repulsive>
0.2385

> <Gold.PLP.ligand.clash>
1.9072

> <Gold.PLP.ligand.torsion>
0.7439

> <Gold.PLP.Chemscore.Hbond>
2.0000

> <Gold.PLP.Chemscore.CHOScore>
0.0000

> <Gold.PLP.Chemscore.Metal>
0.0000

> <Gold.Chemscore.Hbonds>
donor molecule, donor type, donor heavy atom, donor atom, acceptor molecule, acceptor atom, score
      P1  H  7997  8009       L1    19  1.00
      P1  H 10752 10765       L1     6  1.00

> <Gold.PLP.Chemscore.Internal.Correction>
0.1083

> <Gold.Rescore>
     Score         DG    S(hbond)    S(metal)    S(lipo)     H(rot)  DE(clash)    DE(int)     intcor
     18.36     -19.77       1.85        0.00      94.59       1.15       0.12       1.30       ----

> <Gold.Chemscore.Fitness>
18.3552

> <Gold.Chemscore.DG>
-19.7739

> <Gold.Chemscore.ZeroCoef>
-5.4800

> <Gold.Chemscore.Hbond>
1.8481

> <Gold.Chemscore.Metal>
0.0000

> <Gold.Chemscore.Lipo>
94.5929

> <Gold.Chemscore.Internal_Hbond>
0.0000

> <Gold.Chemscore.DEClash>
0.1222

> <Gold.Chemscore.DEInternal>
1.2965

> <Gold.Chemscore.Rot>
1.1508

> <Gold.Chemscore.Internal.Correction>
   9.000000E+99

> <Gold.Chemscore.Hbonds>
donor molecule, donor type, donor heavy atom, donor atom, acceptor molecule, acceptor atom, score
      P1  H  7997  8009       L1    19  0.25
      P1  H 10752 10765       L1     6  0.96

> <Gold.Chemscore.Hbond.Weighted>
-6.1726

> <Gold.Chemscore.Metal.Weighted>
-0.0000

> <Gold.Chemscore.Lipo.Weighted>
-11.0674

> <Gold.Chemscore.Internal_Hbond.Weighted>
0.0000

> <Gold.Chemscore.DEClash.Weighted>
0.1222

> <Gold.Chemscore.DEInternal.Weighted>
1.2965

> <Gold.Chemscore.Rot.Weighted>
2.9461

> <Gold.Chemscore.Internal.Correction.Weighted>
   9.000000E+99

> <Gold.Protein.RotatedTorsions>
[ 6907 6896 6895 6894 ] final -161.73 input  -60.11 | X-H torsion
[ 7974 7965 7964 7962 ] final  167.15 input  175.53 | X-H torsion
[ 8008 7997 7996 7995 ] final -173.54 input   59.86 | X-H torsion
[ 10167 10162 10161 10158 ] final  -18.86 input  -65.29 | X-H torsion
[ 10718 10713 10712 10709 ] final -125.19 input   66.30 | X-H torsion
[ 10763 10752 10751 10750 ] final  178.34 input  -60.55 | X-H torsion
[ 11005 11000 10999 10996 ] final  164.86 input  -57.11 | X-H torsion

> <Gold.Protein.ActiveResidues>
 VAL166  LYS551  ARG553  GLY616  TRP617  ASP618  TYR619  PRO620  LYS621  CYS622 
 ASP623  PHE694  ASN695  SER759  ASP760  ASP761  ALA762  ILE779  LEU786  VAL792 
 PHE793  MET794  SER795  GLU796  ALA797  LYS798  CYS799  TRP800  GLU811  SER814 

> <Gold.Protein.RotatedAtoms>
  151.3692  133.3861  159.2697 H   0  0  0  0  0  0  0  0  0  0  0  0  # atno 6907 bound_to 6896
  150.9664  134.9045  159.7772 H   0  0  0  0  0  0  0  0  0  0  0  0  # atno 6908 bound_to 6896
  152.5168  134.3653  159.9351 H   0  0  0  0  0  0  0  0  0  0  0  0  # atno 6909 bound_to 6896
  144.7435  139.8719  143.6389 H   0  0  0  0  0  0  0  0  0  0  0  0  # atno 7974 bound_to 7965
  155.9588  140.1140  157.0914 H   0  0  0  0  0  0  0  0  0  0  0  0  # atno 8008 bound_to 7997
  154.4127  140.1186  156.5217 H   0  0  0  0  0  0  0  0  0  0  0  0  # atno 8009 bound_to 7997
  155.6748  140.3473  155.4834 H   0  0  0  0  0  0  0  0  0  0  0  0  # atno 8010 bound_to 7997
  140.7263  143.4875  151.0035 H   0  0  0  0  0  0  0  0  0  0  0  0  # atno 10167 bound_to 10162
  156.1653  130.6630  151.0106 H   0  0  0  0  0  0  0  0  0  0  0  0  # atno 10718 bound_to 10713
  154.5064  135.2786  155.1379 H   0  0  0  0  0  0  0  0  0  0  0  0  # atno 10763 bound_to 10752
  154.2992  135.6251  153.5421 H   0  0  0  0  0  0  0  0  0  0  0  0  # atno 10764 bound_to 10752
  152.9911  135.5692  154.5519 H   0  0  0  0  0  0  0  0  0  0  0  0  # atno 10765 bound_to 10752
  140.2502  134.7982  157.3495 H   0  0  0  0  0  0  0  0  0  0  0  0  # atno 11005 bound_to 11000
  146.1274  139.4302  143.0190 LP  0  0  0  0  0  0  0  0  0  0  0  0  # atno 17320 bound_to 7965
  145.7215  141.0073  143.1400 LP  0  0  0  0  0  0  0  0  0  0  0  0  # atno 17321 bound_to 7965
  139.8577  143.7355  152.3175 LP  0  0  0  0  0  0  0  0  0  0  0  0  # atno 17342 bound_to 10162
  139.7559  144.7521  151.0436 LP  0  0  0  0  0  0  0  0  0  0  0  0  # atno 17343 bound_to 10162
  157.6763  131.0849  150.7485 LP  0  0  0  0  0  0  0  0  0  0  0  0  # atno 17370 bound_to 10713
  156.7546  130.4779  149.5449 LP  0  0  0  0  0  0  0  0  0  0  0  0  # atno 17371 bound_to 10713
  140.1565  134.4783  155.7924 LP  0  0  0  0  0  0  0  0  0  0  0  0  # atno 17394 bound_to 11000
  141.2202  133.6884  156.7470 LP  0  0  0  0  0  0  0  0  0  0  0  0  # atno 17395 bound_to 11000

$$$$
