AV-unprocessed.smi:1677|AV-procd|sdf|6723|dock4
  -GOLD-   22720 7463D 1   1.00000     0.00000
 Structure written by MMmdl.
 37 38  0  0  0  0  0  0  0  0  2 V2000
  148.8167  139.8504  156.6095 C   0  0  0  0  0  0  0  0  0  0  0  0
  149.9792  140.5075  155.8478 C   0  0  1  0  0  0  0  0  0  0  0  0
  149.5723  141.0347  154.4547 C   0  0  0  0  0  0  0  0  0  0  0  0
  148.1292  141.2620  154.3315 N   0  0  0  0  0  0  0  0  0  0  0  0
  147.3637  142.1346  155.0616 C   0  0  0  0  0  0  0  0  0  0  0  0
  146.0781  142.0052  154.6027 C   0  0  0  0  0  0  0  0  0  0  0  0
  146.1127  141.0574  153.6149 N   0  3  0  0  0  0  0  0  0  0  0  0
  147.3602  140.6041  153.4538 C   0  0  0  0  0  0  0  0  0  0  0  0
  150.5266  141.5923  156.6567 N   0  0  0  0  0  0  0  0  0  0  0  0
  151.1782  141.4418  157.8209 C   0  0  0  0  0  0  0  0  0  0  0  0
  151.4059  140.3434  158.3290 O   0  0  0  0  0  0  0  0  0  0  0  0
  151.6444  142.7289  158.5139 C   0  0  1  0  0  0  0  0  0  0  0  0
  150.4898  143.7508  158.6216 C   0  0  0  0  0  0  0  0  0  0  0  0
  150.8497  144.9281  159.5103 C   0  0  0  0  0  0  0  0  0  0  0  0
  151.8850  144.9172  160.3674 C   0  0  0  0  0  0  0  0  0  0  0  0
  152.8078  143.7245  160.5485 C   0  0  0  0  0  0  0  0  0  0  0  0
  152.2402  142.4436  159.9074 C   0  0  0  0  0  0  0  0  0  0  0  0
  148.4311  138.9790  156.0800 H   0  0  0  0  0  0  0  0  0  0  0  0
  147.9907  140.5483  156.7510 H   0  0  0  0  0  0  0  0  0  0  0  0
  149.1380  139.5117  157.5953 H   0  0  0  0  0  0  0  0  0  0  0  0
  150.7529  139.7480  155.7197 H   0  0  0  0  0  0  0  0  0  0  0  0
  150.0895  141.9691  154.2305 H   0  0  0  0  0  0  0  0  0  0  0  0
  149.8538  140.3243  153.6761 H   0  0  0  0  0  0  0  0  0  0  0  0
  147.7809  142.7672  155.8322 H   0  0  0  0  0  0  0  0  0  0  0  0
  145.1655  142.5026  154.8977 H   0  0  0  0  0  0  0  0  0  0  0  0
  147.6825  139.8577  152.7496 H   0  0  0  0  0  0  0  0  0  0  0  0
  150.3865  142.5322  156.3143 H   0  0  0  0  0  0  0  0  0  0  0  0
  152.4342  143.1743  157.9056 H   0  0  0  0  0  0  0  0  0  0  0  0
  150.2377  144.1283  157.6299 H   0  0  0  0  0  0  0  0  0  0  0  0
  149.5870  143.2889  159.0244 H   0  0  0  0  0  0  0  0  0  0  0  0
  150.2198  145.8028  159.4395 H   0  0  0  0  0  0  0  0  0  0  0  0
  152.0982  145.7930  160.9625 H   0  0  0  0  0  0  0  0  0  0  0  0
  153.7716  143.9734  160.1036 H   0  0  0  0  0  0  0  0  0  0  0  0
  152.9814  143.5619  161.6125 H   0  0  0  0  0  0  0  0  0  0  0  0
  151.4651  142.0347  160.5579 H   0  0  0  0  0  0  0  0  0  0  0  0
  153.0222  141.6852  159.8481 H   0  0  0  0  0  0  0  0  0  0  0  0
  145.3111  140.7427  153.0824 H   0  0  0  0  0  0  0  0  0  0  0  0
  1  2  1  0  0  0  0
  1 18  1  0  0  0  0
  1 19  1  0  0  0  0
  1 20  1  0  0  0  0
  2  3  1  0  0  0  0
  2  9  1  0  0  0  0
  2 21  1  0  0  0  0
  3  4  1  0  0  0  0
  3 22  1  0  0  0  0
  3 23  1  0  0  0  0
  4  8  1  0  0  0  0
  4  5  1  0  0  0  0
  5  6  2  0  0  0  0
  5 24  1  0  0  0  0
  6  7  1  0  0  0  0
  6 25  1  0  0  0  0
  7  8  2  0  0  0  0
  7 37  1  0  0  0  0
  8 26  1  0  0  0  0
  9 10  1  0  0  0  0
  9 27  1  0  0  0  0
 10 11  2  0  0  0  0
 10 12  1  0  0  0  0
 12 17  1  0  0  0  0
 12 13  1  0  0  0  0
 12 28  1  0  0  0  0
 13 14  1  0  0  0  0
 13 29  1  0  0  0  0
 13 30  1  0  0  0  0
 14 15  2  0  0  0  0
 14 31  1  0  0  0  0
 15 16  1  0  0  0  0
 15 32  1  0  0  0  0
 16 17  1  0  0  0  0
 16 33  1  0  0  0  0
 16 34  1  0  0  0  0
 17 35  1  0  0  0  0
 17 36  1  0  0  0  0
M  CHG  1   7   1
M  END
> <s_m_source_file>
AV-unprocessed.smi

> <i_m_source_file_index>
1677

> <i_lp_mmshare_version>
43012

> <i_f3d_flags>
0

> <s_epik_input>
W2NIXTFuW2NIXVtjSF1uMVtDSDJdW0NAQEhdKFtDSDNdKVtOSF1DKD1PKVtDQEBIXTJbQ0gyXVtDSF09W0NIXVtDSDJdW0NIMl0y

> <s_epik_cmdline>
J2VwaWtfcHl0aG9uJywgJy1waCcsICc3LjAnLCAnLXRuJywgJzgnLCAnLW1hJywgJzIwMCcsICctbWV0YWxfYmluZGluZycsICctaW1hZScsICc8aW5maWxlLm1hZT4nLCAnLW9tYWUnLCAnPG91dGZpbGUubWFlPic=

> <r_lp_tautomer_probability>
1

> <r_epik_Ionization_Penalty>
0.245541

> <r_epik_Ionization_Penalty_Charging>
0

> <r_epik_Ionization_Penalty_Neutral>
0.245541

> <r_epik_State_Penalty>
0.236686

> <r_epik_Charging_Adjusted_Penalty>
0.236686

> <i_epik_Tot_Q>
1

> <i_epik_Tot_abs_Q>
1

> <r_epik_Metal_State_Penalty>
0.529594

> <b_epik_Metal_Only>
0

> <s_lp_Force_Field>
OPLS_2005

> <r_lp_Energy>
11.602

> <b_lp_Chiralities_Consistent>
1

> <s_lp_Variant>
AV-unprocessed.smi:1677-4

> <Gold.Version>
5.8.1

> <Gold.Id.Protein>
6NUR|6NUR_protein|mol2

> <Gold.PLP.Fitness>
45.1279

> <Gold.PLP.PLP>
-34.7263

> <Gold.PLP.part.hbond>
-1.0000

> <Gold.PLP.part.metal>
0.0000

> <Gold.PLP.part.buried>
-1.2331

> <Gold.PLP.part.nonpolar>
-31.7428

> <Gold.PLP.part.repulsive>
0.0754

> <Gold.PLP.ligand.clash>
0.0000

> <Gold.PLP.ligand.torsion>
0.7880

> <Gold.PLP.Chemscore.Hbond>
2.0000

> <Gold.PLP.Chemscore.CHOScore>
1.9731

> <Gold.PLP.Chemscore.Metal>
0.0000

> <Gold.Chemscore.Hbonds>
donor molecule, donor type, donor heavy atom, donor atom, acceptor molecule, acceptor atom, score
      L1  H     7    37       P1 10175  2.00
      L1  C     5    24       P1  8028  0.99
      L1  C     8    26       P1  7957  0.94

> <Gold.PLP.Chemscore.Internal.Correction>
0.0583

> <Gold.Rescore>
     Score         DG    S(hbond)    S(metal)    S(lipo)     H(rot)  DE(clash)    DE(int)     intcor
     13.58     -14.35       0.98        0.00      87.47       1.81       0.02       0.75       ----

> <Gold.Chemscore.Fitness>
13.5768

> <Gold.Chemscore.DG>
-14.3464

> <Gold.Chemscore.ZeroCoef>
-5.4800

> <Gold.Chemscore.Hbond>
0.9815

> <Gold.Chemscore.Metal>
0.0000

> <Gold.Chemscore.Lipo>
87.4688

> <Gold.Chemscore.Internal_Hbond>
0.0000

> <Gold.Chemscore.DEClash>
0.0231

> <Gold.Chemscore.DEInternal>
0.7464

> <Gold.Chemscore.Rot>
1.8147

> <Gold.Chemscore.Internal.Correction>
   9.000000E+99

> <Gold.Chemscore.Hbonds>
donor molecule, donor type, donor heavy atom, donor atom, acceptor molecule, acceptor atom, score
      L1  H     7    37       P1 10175  0.70

> <Gold.Chemscore.Hbond.Weighted>
-3.2781

> <Gold.Chemscore.Metal.Weighted>
-0.0000

> <Gold.Chemscore.Lipo.Weighted>
-10.2338

> <Gold.Chemscore.Internal_Hbond.Weighted>
0.0000

> <Gold.Chemscore.DEClash.Weighted>
0.0231

> <Gold.Chemscore.DEInternal.Weighted>
0.7464

> <Gold.Chemscore.Rot.Weighted>
4.6456

> <Gold.Chemscore.Internal.Correction.Weighted>
   9.000000E+99

> <Gold.Protein.RotatedTorsions>
[ 6907 6896 6895 6894 ] final   98.71 input  -60.11 | X-H torsion
[ 7974 7965 7964 7962 ] final -169.24 input  175.53 | X-H torsion
[ 8008 7997 7996 7995 ] final   94.14 input   59.86 | X-H torsion
[ 10167 10162 10161 10158 ] final   31.76 input  -65.29 | X-H torsion
[ 10718 10713 10712 10709 ] final  119.52 input   66.30 | X-H torsion
[ 10763 10752 10751 10750 ] final  125.25 input  -60.55 | X-H torsion
[ 11005 11000 10999 10996 ] final  -50.01 input  -57.11 | X-H torsion

> <Gold.Protein.ActiveResidues>
 VAL166  LYS551  ARG553  GLY616  TRP617  ASP618  TYR619  PRO620  LYS621  CYS622 
 ASP623  PHE694  ASN695  SER759  ASP760  ASP761  ALA762  ILE779  LEU786  VAL792 
 PHE793  MET794  SER795  GLU796  ALA797  LYS798  CYS799  TRP800  GLU811  SER814 

> <Gold.Protein.RotatedAtoms>
  152.5404  134.0539  159.8121 H   0  0  0  0  0  0  0  0  0  0  0  0  # atno 6907 bound_to 6896
  151.0677  133.5484  159.2636 H   0  0  0  0  0  0  0  0  0  0  0  0  # atno 6908 bound_to 6896
  151.2359  135.0580  159.9060 H   0  0  0  0  0  0  0  0  0  0  0  0  # atno 6909 bound_to 6896
  144.7189  140.2251  143.6311 H   0  0  0  0  0  0  0  0  0  0  0  0  # atno 7974 bound_to 7965
  156.0546  140.3304  155.7391 H   0  0  0  0  0  0  0  0  0  0  0  0  # atno 8008 bound_to 7997
  155.5548  140.0613  157.2859 H   0  0  0  0  0  0  0  0  0  0  0  0  # atno 8009 bound_to 7997
  154.4452  140.1887  156.0711 H   0  0  0  0  0  0  0  0  0  0  0  0  # atno 8010 bound_to 7997
  140.4560  144.0978  150.6202 H   0  0  0  0  0  0  0  0  0  0  0  0  # atno 10167 bound_to 10162
  157.5955  131.1058  150.7908 H   0  0  0  0  0  0  0  0  0  0  0  0  # atno 10718 bound_to 10713
  153.6743  135.3325  155.3161 H   0  0  0  0  0  0  0  0  0  0  0  0  # atno 10763 bound_to 10752
  154.8482  135.4394  154.1672 H   0  0  0  0  0  0  0  0  0  0  0  0  # atno 10764 bound_to 10752
  153.2672  135.6997  153.7594 H   0  0  0  0  0  0  0  0  0  0  0  0  # atno 10765 bound_to 10752
  141.0792  133.6658  156.3668 H   0  0  0  0  0  0  0  0  0  0  0  0  # atno 11005 bound_to 11000
  145.8464  139.2154  143.1797 LP  0  0  0  0  0  0  0  0  0  0  0  0  # atno 17320 bound_to 7965
  146.0300  140.8267  142.9881 LP  0  0  0  0  0  0  0  0  0  0  0  0  # atno 17321 bound_to 7965
  140.4151  143.2638  151.9785 LP  0  0  0  0  0  0  0  0  0  0  0  0  # atno 17342 bound_to 10162
  139.4801  144.5881  151.7819 LP  0  0  0  0  0  0  0  0  0  0  0  0  # atno 17343 bound_to 10162
  156.8320  130.5019  149.5330 LP  0  0  0  0  0  0  0  0  0  0  0  0  # atno 17370 bound_to 10713
  156.1017  130.5974  150.9905 LP  0  0  0  0  0  0  0  0  0  0  0  0  # atno 17371 bound_to 10713
  140.5507  134.6030  157.5407 LP  0  0  0  0  0  0  0  0  0  0  0  0  # atno 17394 bound_to 11000
  139.9605  134.7461  156.0248 LP  0  0  0  0  0  0  0  0  0  0  0  0  # atno 17395 bound_to 11000

$$$$
