AV-unprocessed.smi:787|AV-procd|sdf|3728|dock6
  -GOLD-   22720 1163D 1   1.00000     0.00000
 Structure written by MMmdl.
 47 49  0  0  0  0  0  0  0  0  2 V2000
  143.7178  135.2788  159.5882 C   0  0  0  0  0  0  0  0  0  0  0  0
  144.9825  135.3579  158.8744 N   0  0  0  0  0  0  0  0  0  0  0  0
  146.1406  135.8040  159.5271 C   0  0  0  0  0  0  0  0  0  0  0  0
  146.0714  136.2012  160.8186 N   0  0  0  0  0  0  0  0  0  0  0  0
  147.1973  136.6260  161.4061 C   0  0  0  0  0  0  0  0  0  0  0  0
  148.4336  136.7194  160.8936 N   0  0  0  0  0  0  0  0  0  0  0  0
  148.5148  136.3237  159.6164 C   0  0  0  0  0  0  0  0  0  0  0  0
  149.6630  136.3116  158.8448 N   0  0  0  0  0  0  0  0  0  0  0  0
  149.2071  135.8370  157.6892 C   0  0  0  0  0  0  0  0  0  0  0  0
  147.8975  135.5257  157.6150 N   0  0  0  0  0  0  0  0  0  0  0  0
  147.2107  134.9699  156.4566 C   0  0  0  0  0  0  0  0  0  0  0  0
  147.2443  135.8950  155.2182 C   0  0  1  0  0  0  0  0  0  0  0  0
  148.5757  135.9557  154.7409 O   0  0  0  0  0  0  0  0  0  0  0  0
  146.3273  135.4172  154.0726 C   0  0  0  0  0  0  0  0  0  0  0  0
  146.2859  136.3842  152.9447 N   0  3  2  0  0  0  0  0  0  0  0  0
  146.3510  137.7913  153.4011 C   0  0  0  0  0  0  0  0  0  0  0  0
  145.1583  136.1517  152.0080 C   0  0  0  0  0  0  0  0  0  0  0  0
  145.0703  134.6939  151.5879 C   0  0  0  0  0  0  0  0  0  0  0  0
  143.8677  133.9796  151.7744 C   0  0  0  0  0  0  0  0  0  0  0  0
  143.7742  132.6331  151.3721 C   0  0  0  0  0  0  0  0  0  0  0  0
  144.8827  131.9951  150.7829 C   0  0  0  0  0  0  0  0  0  0  0  0
  146.0860  132.7028  150.5985 C   0  0  0  0  0  0  0  0  0  0  0  0
  146.1812  134.0484  151.0030 C   0  0  0  0  0  0  0  0  0  0  0  0
  147.3907  135.8468  158.8752 C   0  0  0  0  0  0  0  0  0  0  0  0
  142.9334  134.9290  158.9174 H   0  0  0  0  0  0  0  0  0  0  0  0
  143.4278  136.2579  159.9708 H   0  0  0  0  0  0  0  0  0  0  0  0
  143.7873  134.5818  160.4241 H   0  0  0  0  0  0  0  0  0  0  0  0
  144.9837  135.2474  157.8710 H   0  0  0  0  0  0  0  0  0  0  0  0
  147.0954  136.9376  162.4350 H   0  0  0  0  0  0  0  0  0  0  0  0
  149.8690  135.6945  156.8473 H   0  0  0  0  0  0  0  0  0  0  0  0
  147.6510  134.0040  156.2146 H   0  0  0  0  0  0  0  0  0  0  0  0
  146.1778  134.7604  156.7387 H   0  0  0  0  0  0  0  0  0  0  0  0
  146.9578  136.8985  155.5330 H   0  0  0  0  0  0  0  0  0  0  0  0
  148.5644  136.0668  153.8029 H   0  0  0  0  0  0  0  0  0  0  0  0
  146.6716  134.4424  153.7304 H   0  0  0  0  0  0  0  0  0  0  0  0
  145.3131  135.2563  154.4387 H   0  0  0  0  0  0  0  0  0  0  0  0
  145.4534  138.0630  153.9586 H   0  0  0  0  0  0  0  0  0  0  0  0
  146.4422  138.4684  152.5513 H   0  0  0  0  0  0  0  0  0  0  0  0
  147.2149  137.9551  154.0454 H   0  0  0  0  0  0  0  0  0  0  0  0
  144.2205  136.4825  152.4581 H   0  0  0  0  0  0  0  0  0  0  0  0
  145.2974  136.7475  151.1048 H   0  0  0  0  0  0  0  0  0  0  0  0
  143.0121  134.4627  152.2232 H   0  0  0  0  0  0  0  0  0  0  0  0
  142.8519  132.0892  151.5147 H   0  0  0  0  0  0  0  0  0  0  0  0
  144.8107  130.9625  150.4742 H   0  0  0  0  0  0  0  0  0  0  0  0
  146.9362  132.2133  150.1466 H   0  0  0  0  0  0  0  0  0  0  0  0
  147.1077  134.5838  150.8548 H   0  0  0  0  0  0  0  0  0  0  0  0
  147.1209  136.2222  152.4007 H   0  0  0  0  0  0  0  0  0  0  0  0
  1  2  1  0  0  0  0
  1 25  1  0  0  0  0
  1 26  1  0  0  0  0
  1 27  1  0  0  0  0
  2  3  1  0  0  0  0
  2 28  1  0  0  0  0
  3 24  1  0  0  0  0
  3  4  2  0  0  0  0
  4  5  1  0  0  0  0
  5  6  2  0  0  0  0
  5 29  1  0  0  0  0
  6  7  1  0  0  0  0
  7 24  2  0  0  0  0
  7  8  1  0  0  0  0
  8  9  2  0  0  0  0
  9 10  1  0  0  0  0
  9 30  1  0  0  0  0
 10 11  1  0  0  0  0
 10 24  1  0  0  0  0
 11 12  1  0  0  0  0
 11 31  1  0  0  0  0
 11 32  1  0  0  0  0
 12 13  1  0  0  0  0
 12 14  1  0  0  0  0
 12 33  1  0  0  0  0
 13 34  1  0  0  0  0
 14 15  1  0  0  0  0
 14 35  1  0  0  0  0
 14 36  1  0  0  0  0
 15 16  1  0  0  0  0
 15 17  1  0  0  0  0
 15 47  1  0  0  0  0
 16 37  1  0  0  0  0
 16 38  1  0  0  0  0
 16 39  1  0  0  0  0
 17 18  1  0  0  0  0
 17 40  1  0  0  0  0
 17 41  1  0  0  0  0
 18 23  1  0  0  0  0
 18 19  2  0  0  0  0
 19 20  1  0  0  0  0
 19 42  1  0  0  0  0
 20 21  2  0  0  0  0
 20 43  1  0  0  0  0
 21 22  1  0  0  0  0
 21 44  1  0  0  0  0
 22 23  2  0  0  0  0
 22 45  1  0  0  0  0
 23 46  1  0  0  0  0
M  CHG  1  15   1
M  END
> <s_m_source_file>
AV-unprocessed.smi

> <i_m_source_file_index>
787

> <i_lp_mmshare_version>
43012

> <i_f3d_flags>
0

> <s_epik_input>
bjFbY0hdbmMoW05IXVtDSDNdKWMoYzEyKW4oW2NIXW4yKVtDSDJdW0NASF0oW09IXSlbQ0gyXU4oW0NIM10pW0NIMl1jM1tjSF1bY0hdW2NIXVtjSF1bY0hdMw==

> <s_epik_cmdline>
J2VwaWtfcHl0aG9uJywgJy1waCcsICc3LjAnLCAnLXRuJywgJzgnLCAnLW1hJywgJzIwMCcsICctbWV0YWxfYmluZGluZycsICctaW1hZScsICc8aW5maWxlLm1hZT4nLCAnLW9tYWUnLCAnPG91dGZpbGUubWFlPic=

> <r_lp_tautomer_probability>
0.999987

> <r_epik_Ionization_Penalty>
0.0526284

> <r_epik_Ionization_Penalty_Charging>
0.0475377

> <r_epik_Ionization_Penalty_Neutral>
0.00509065

> <r_epik_State_Penalty>
0.0404888

> <r_epik_Charging_Adjusted_Penalty>
0.0880265

> <i_epik_Tot_Q>
1

> <i_epik_Tot_abs_Q>
1

> <r_epik_Metal_State_Penalty>
0.040507

> <b_epik_Metal_Only>
0

> <s_lp_Force_Field>
OPLS_2005

> <r_lp_Energy>
14.9507

> <b_lp_Chiralities_Consistent>
1

> <s_lp_Variant>
AV-unprocessed.smi:787-4

> <Gold.Version>
5.8.1

> <Gold.Id.Protein>
6NUR|6NUR_protein|mol2

> <Gold.PLP.Fitness>
44.3965

> <Gold.PLP.PLP>
-29.7042

> <Gold.PLP.part.hbond>
-4.0000

> <Gold.PLP.part.metal>
0.0000

> <Gold.PLP.part.buried>
-6.1622

> <Gold.PLP.part.nonpolar>
-20.0490

> <Gold.PLP.part.repulsive>
0.0126

> <Gold.PLP.ligand.clash>
0.0000

> <Gold.PLP.ligand.torsion>
0.2989

> <Gold.PLP.Chemscore.Hbond>
5.0000

> <Gold.PLP.Chemscore.CHOScore>
0.0000

> <Gold.PLP.Chemscore.Metal>
0.0000

> <Gold.Chemscore.Hbonds>
donor molecule, donor type, donor heavy atom, donor atom, acceptor molecule, acceptor atom, score
      L1  H    13    34       P1  7948  1.00
      L1  H    15    47       P1  7948  2.00
      P1  H  6896  6909       L1     8  0.96
      P1  H  6931  6943       L1     6  0.95

> <Gold.PLP.Chemscore.Internal.Correction>
0.2900

> <Gold.Rescore>
     Score         DG    S(hbond)    S(metal)    S(lipo)     H(rot)  DE(clash)    DE(int)     intcor
     14.02     -14.51       3.08        0.00      59.19       3.19       0.01       0.49       ----

> <Gold.Chemscore.Fitness>
14.0184

> <Gold.Chemscore.DG>
-14.5121

> <Gold.Chemscore.ZeroCoef>
-5.4800

> <Gold.Chemscore.Hbond>
3.0780

> <Gold.Chemscore.Metal>
0.0000

> <Gold.Chemscore.Lipo>
59.1890

> <Gold.Chemscore.Internal_Hbond>
0.0000

> <Gold.Chemscore.DEClash>
0.0059

> <Gold.Chemscore.DEInternal>
0.4879

> <Gold.Chemscore.Rot>
3.1928

> <Gold.Chemscore.Internal.Correction>
   9.000000E+99

> <Gold.Chemscore.Hbonds>
donor molecule, donor type, donor heavy atom, donor atom, acceptor molecule, acceptor atom, score
      L1  H    13    34       P1  7948  0.98
      L1  H    15    47       P1  7948  1.00
      P1  H  6896  6909       L1     8  0.22
      P1  H  6931  6943       L1     6  0.21

> <Gold.Chemscore.Hbond.Weighted>
-10.2806

> <Gold.Chemscore.Metal.Weighted>
-0.0000

> <Gold.Chemscore.Lipo.Weighted>
-6.9251

> <Gold.Chemscore.Internal_Hbond.Weighted>
0.0000

> <Gold.Chemscore.DEClash.Weighted>
0.0059

> <Gold.Chemscore.DEInternal.Weighted>
0.4879

> <Gold.Chemscore.Rot.Weighted>
8.1736

> <Gold.Chemscore.Internal.Correction.Weighted>
   9.000000E+99

> <Gold.Protein.RotatedTorsions>
[ 6907 6896 6895 6894 ] final   65.08 input  -60.11 | X-H torsion
[ 7974 7965 7964 7962 ] final -111.34 input  175.53 | X-H torsion
[ 8008 7997 7996 7995 ] final    1.58 input   59.86 | X-H torsion
[ 10167 10162 10161 10158 ] final   56.77 input  -65.29 | X-H torsion
[ 10718 10713 10712 10709 ] final  -98.84 input   66.30 | X-H torsion
[ 10763 10752 10751 10750 ] final    0.45 input  -60.55 | X-H torsion
[ 11005 11000 10999 10996 ] final   26.50 input  -57.11 | X-H torsion

> <Gold.Protein.ActiveResidues>
 VAL166  LYS551  ARG553  GLY616  TRP617  ASP618  TYR619  PRO620  LYS621  CYS622 
 ASP623  PHE694  ASN695  SER759  ASP760  ASP761  ALA762  ILE779  LEU786  VAL792 
 PHE793  MET794  SER795  GLU796  ALA797  LYS798  CYS799  TRP800  GLU811  SER814 

> <Gold.Protein.RotatedAtoms>
  152.4381  134.5646  159.9903 H   0  0  0  0  0  0  0  0  0  0  0  0  # atno 6907 bound_to 6896
  151.5751  133.3379  159.3005 H   0  0  0  0  0  0  0  0  0  0  0  0  # atno 6908 bound_to 6896
  150.8282  134.7558  159.6895 H   0  0  0  0  0  0  0  0  0  0  0  0  # atno 6909 bound_to 6896
  145.1573  140.8860  143.3611 H   0  0  0  0  0  0  0  0  0  0  0  0  # atno 7974 bound_to 7965
  154.6814  140.2633  155.6904 H   0  0  0  0  0  0  0  0  0  0  0  0  # atno 8008 bound_to 7997
  156.2698  140.2809  156.1283 H   0  0  0  0  0  0  0  0  0  0  0  0  # atno 8009 bound_to 7997
  155.1025  140.0374  157.2691 H   0  0  0  0  0  0  0  0  0  0  0  0  # atno 8010 bound_to 7997
  140.2051  144.3947  150.6512 H   0  0  0  0  0  0  0  0  0  0  0  0  # atno 10167 bound_to 10162
  156.0118  130.5256  150.6582 H   0  0  0  0  0  0  0  0  0  0  0  0  # atno 10718 bound_to 10713
  153.3205  135.6969  153.7034 H   0  0  0  0  0  0  0  0  0  0  0  0  # atno 10763 bound_to 10752
  153.5876  135.3486  155.2899 H   0  0  0  0  0  0  0  0  0  0  0  0  # atno 10764 bound_to 10752
  154.8596  135.4310  154.2368 H   0  0  0  0  0  0  0  0  0  0  0  0  # atno 10765 bound_to 10752
  140.3364  134.2381  155.7695 H   0  0  0  0  0  0  0  0  0  0  0  0  # atno 11005 bound_to 11000
  145.0368  139.3294  143.5997 LP  0  0  0  0  0  0  0  0  0  0  0  0  # atno 17320 bound_to 7965
  146.3487  139.9726  142.8704 LP  0  0  0  0  0  0  0  0  0  0  0  0  # atno 17321 bound_to 7965
  140.6363  143.2195  151.6388 LP  0  0  0  0  0  0  0  0  0  0  0  0  # atno 17342 bound_to 10162
  139.5201  144.3231  152.0893 LP  0  0  0  0  0  0  0  0  0  0  0  0  # atno 17343 bound_to 10162
  157.4329  131.0851  151.1020 LP  0  0  0  0  0  0  0  0  0  0  0  0  # atno 17370 bound_to 10713
  157.1587  130.6216  149.5604 LP  0  0  0  0  0  0  0  0  0  0  0  0  # atno 17371 bound_to 10713
  141.2050  133.7871  157.0256 LP  0  0  0  0  0  0  0  0  0  0  0  0  # atno 17394 bound_to 11000
  140.0818  134.9644  157.1636 LP  0  0  0  0  0  0  0  0  0  0  0  0  # atno 17395 bound_to 11000

$$$$
