AV-unprocessed.smi:2533|AV-procd|sdf|9972|dock8
  -GOLD-   2272014 23D 1   1.00000     0.00000
 Structure written by MMmdl.
 35 36  0  0  0  0  0  0  0  0  1 V2000
  153.0384  140.1820  158.3797 C   0  0  0  0  0  0  0  0  0  0  0  0
  152.6558  139.3951  157.2611 O   0  0  0  0  0  0  0  0  0  0  0  0
  151.7255  139.9171  156.3873 C   0  0  0  0  0  0  0  0  0  0  0  0
  151.3112  141.2729  156.3853 C   0  0  0  0  0  0  0  0  0  0  0  0
  150.3500  141.7245  155.4611 C   0  0  0  0  0  0  0  0  0  0  0  0
  149.7866  140.8333  154.5244 C   0  0  0  0  0  0  0  0  0  0  0  0
  148.7204  141.3078  153.5466 C   0  0  2  0  0  0  0  0  0  0  0  0
  148.5686  142.7126  153.5585 O   0  0  0  0  0  0  0  0  0  0  0  0
  147.3386  140.6632  153.7998 C   0  0  0  0  0  0  0  0  0  0  0  0
  146.5450  141.4012  154.7931 N   0  0  0  0  0  0  0  0  0  0  0  0
  146.1066  142.6358  154.3454 N   0  0  0  0  0  0  0  0  0  0  0  0
  145.3760  143.4024  155.0891 C   0  0  0  0  0  0  0  0  0  0  0  0
  144.9402  144.7241  154.5067 C   0  0  0  0  0  0  0  0  0  0  0  0
  145.4203  145.7445  155.2182 F   0  0  0  0  0  0  0  0  0  0  0  0
  145.3782  144.8391  153.2526 F   0  0  0  0  0  0  0  0  0  0  0  0
  143.6094  144.8031  154.4984 F   0  0  0  0  0  0  0  0  0  0  0  0
  145.0180  142.9565  156.4249 C   0  0  0  0  0  0  0  0  0  0  0  0
  145.4454  141.7521  156.8599 C   0  0  0  0  0  0  0  0  0  0  0  0
  146.2618  140.8771  156.0227 C   0  0  0  0  0  0  0  0  0  0  0  0
  146.6483  139.7677  156.3888 O   0  0  0  0  0  0  0  0  0  0  0  0
  150.1981  139.4851  154.5214 C   0  0  0  0  0  0  0  0  0  0  0  0
  151.1587  139.0327  155.4456 C   0  0  0  0  0  0  0  0  0  0  0  0
  151.5364  137.7319  155.4294 F   0  0  0  0  0  0  0  0  0  0  0  0
  153.7680  139.6324  158.9744 H   0  0  0  0  0  0  0  0  0  0  0  0
  152.1860  140.4001  159.0244 H   0  0  0  0  0  0  0  0  0  0  0  0
  153.5050  141.1173  158.0680 H   0  0  0  0  0  0  0  0  0  0  0  0
  151.7131  141.9876  157.0871 H   0  0  0  0  0  0  0  0  0  0  0  0
  150.0370  142.7583  155.4815 H   0  0  0  0  0  0  0  0  0  0  0  0
  149.0449  141.0458  152.5386 H   0  0  0  0  0  0  0  0  0  0  0  0
  148.7151  143.0218  154.4394 H   0  0  0  0  0  0  0  0  0  0  0  0
  146.7993  140.5682  152.8558 H   0  0  0  0  0  0  0  0  0  0  0  0
  147.4734  139.6385  154.1512 H   0  0  0  0  0  0  0  0  0  0  0  0
  144.4143  143.5855  157.0621 H   0  0  0  0  0  0  0  0  0  0  0  0
  145.1763  141.4244  157.8533 H   0  0  0  0  0  0  0  0  0  0  0  0
  149.7693  138.7880  153.8163 H   0  0  0  0  0  0  0  0  0  0  0  0
  1  2  1  0  0  0  0
  1 24  1  0  0  0  0
  1 25  1  0  0  0  0
  1 26  1  0  0  0  0
  2  3  1  0  0  0  0
  3 22  1  0  0  0  0
  3  4  2  0  0  0  0
  4  5  1  0  0  0  0
  4 27  1  0  0  0  0
  5  6  2  0  0  0  0
  5 28  1  0  0  0  0
  6  7  1  0  0  0  0
  6 21  1  0  0  0  0
  7  8  1  0  0  0  0
  7  9  1  0  0  0  0
  7 29  1  0  0  0  0
  8 30  1  0  0  0  0
  9 10  1  0  0  0  0
  9 31  1  0  0  0  0
  9 32  1  0  0  0  0
 10 19  1  0  0  0  0
 10 11  1  0  0  0  0
 11 12  2  0  0  0  0
 12 13  1  0  0  0  0
 12 17  1  0  0  0  0
 13 14  1  0  0  0  0
 13 15  1  0  0  0  0
 13 16  1  0  0  0  0
 17 18  2  0  0  0  0
 17 33  1  0  0  0  0
 18 19  1  0  0  0  0
 18 34  1  0  0  0  0
 19 20  2  0  0  0  0
 21 22  2  0  0  0  0
 21 35  1  0  0  0  0
 22 23  1  0  0  0  0
M  END
> <s_m_source_file>
AV-unprocessed.smi

> <i_m_source_file_index>
2533

> <i_lp_mmshare_version>
43012

> <i_f3d_flags>
0

> <s_epik_input>
W0NIM11PYzFbY0hdW2NIXWMoW2NIXWMxRilbQ0BIXShbT0hdKVtDSDJdbjJuYyhDKEYpKEYpRilbY0hdW2NIXWMyPU8=

> <s_epik_cmdline>
J2VwaWtfcHl0aG9uJywgJy1waCcsICc3LjAnLCAnLXRuJywgJzgnLCAnLW1hJywgJzIwMCcsICctbWV0YWxfYmluZGluZycsICctaW1hZScsICc8aW5maWxlLm1hZT4nLCAnLW9tYWUnLCAnPG91dGZpbGUubWFlPic=

> <r_lp_tautomer_probability>
1

> <r_epik_Ionization_Penalty>
5.00966e-08

> <r_epik_Ionization_Penalty_Charging>
3.92872e-09

> <r_epik_Ionization_Penalty_Neutral>
4.61679e-08

> <r_epik_State_Penalty>
-0

> <r_epik_Charging_Adjusted_Penalty>
3.92872e-09

> <i_epik_Tot_Q>
0

> <i_epik_Tot_abs_Q>
0

> <r_epik_Metal_State_Penalty>
-0

> <b_epik_Metal_Only>
0

> <s_lp_Force_Field>
OPLS_2005

> <r_lp_Energy>
31.2936

> <b_lp_Chiralities_Consistent>
1

> <s_lp_Variant>
AV-unprocessed.smi:2533-1

> <Gold.Version>
5.8.1

> <Gold.Id.Protein>
6NUR|6NUR_protein|mol2

> <Gold.PLP.Fitness>
37.6740

> <Gold.PLP.PLP>
-35.0957

> <Gold.PLP.part.hbond>
-3.7079

> <Gold.PLP.part.metal>
0.0000

> <Gold.PLP.part.buried>
2.2234

> <Gold.PLP.part.nonpolar>
-32.0360

> <Gold.PLP.part.repulsive>
0.1875

> <Gold.PLP.ligand.clash>
0.0000

> <Gold.PLP.ligand.torsion>
0.6004

> <Gold.PLP.Chemscore.Hbond>
1.2480

> <Gold.PLP.Chemscore.CHOScore>
0.0000

> <Gold.PLP.Chemscore.Metal>
0.0000

> <Gold.Chemscore.Hbonds>
donor molecule, donor type, donor heavy atom, donor atom, acceptor molecule, acceptor atom, score
      L1  H     8    30       P1  8028  0.79

> <Gold.PLP.Chemscore.Internal.Correction>
0.0352

> <Gold.Rescore>
     Score         DG    S(hbond)    S(metal)    S(lipo)     H(rot)  DE(clash)    DE(int)     intcor
      6.82     -10.34       0.93        0.00      69.76       2.50       1.46       2.05       ----

> <Gold.Chemscore.Fitness>
6.8216

> <Gold.Chemscore.DG>
-10.3354

> <Gold.Chemscore.ZeroCoef>
-5.4800

> <Gold.Chemscore.Hbond>
0.9287

> <Gold.Chemscore.Metal>
0.0000

> <Gold.Chemscore.Lipo>
69.7564

> <Gold.Chemscore.Internal_Hbond>
0.0000

> <Gold.Chemscore.DEClash>
1.4639

> <Gold.Chemscore.DEInternal>
2.0499

> <Gold.Chemscore.Rot>
2.5031

> <Gold.Chemscore.Internal.Correction>
   9.000000E+99

> <Gold.Chemscore.Hbonds>
donor molecule, donor type, donor heavy atom, donor atom, acceptor molecule, acceptor atom, score
      L1  H     8    30       P1  8028  0.75

> <Gold.Chemscore.Hbond.Weighted>
-3.1018

> <Gold.Chemscore.Metal.Weighted>
-0.0000

> <Gold.Chemscore.Lipo.Weighted>
-8.1615

> <Gold.Chemscore.Internal_Hbond.Weighted>
0.0000

> <Gold.Chemscore.DEClash.Weighted>
1.4639

> <Gold.Chemscore.DEInternal.Weighted>
2.0499

> <Gold.Chemscore.Rot.Weighted>
6.4079

> <Gold.Chemscore.Internal.Correction.Weighted>
   9.000000E+99

> <Gold.Protein.RotatedTorsions>
[ 6907 6896 6895 6894 ] final  151.09 input  -60.11 | X-H torsion
[ 7974 7965 7964 7962 ] final -164.07 input  175.53 | X-H torsion
[ 8008 7997 7996 7995 ] final  137.78 input   59.86 | X-H torsion
[ 10167 10162 10161 10158 ] final -113.57 input  -65.29 | X-H torsion
[ 10718 10713 10712 10709 ] final  -23.29 input   66.30 | X-H torsion
[ 10763 10752 10751 10750 ] final   64.39 input  -60.55 | X-H torsion
[ 11005 11000 10999 10996 ] final  178.42 input  -57.11 | X-H torsion

> <Gold.Protein.ActiveResidues>
 VAL166  LYS551  ARG553  GLY616  TRP617  ASP618  TYR619  PRO620  LYS621  CYS622 
 ASP623  PHE694  ASN695  SER759  ASP760  ASP761  ALA762  ILE779  LEU786  VAL792 
 PHE793  MET794  SER795  GLU796  ALA797  LYS798  CYS799  TRP800  GLU811  SER814 

> <Gold.Protein.RotatedAtoms>
  152.1054  133.4272  159.4605 H   0  0  0  0  0  0  0  0  0  0  0  0  # atno 6907 bound_to 6896
  150.6865  134.2711  159.4598 H   0  0  0  0  0  0  0  0  0  0  0  0  # atno 6908 bound_to 6896
  152.0575  134.9614  160.0625 H   0  0  0  0  0  0  0  0  0  0  0  0  # atno 6909 bound_to 6896
  144.7307  140.3015  143.6203 H   0  0  0  0  0  0  0  0  0  0  0  0  # atno 7974 bound_to 7965
  156.3001  140.2410  156.3965 H   0  0  0  0  0  0  0  0  0  0  0  0  # atno 8008 bound_to 7997
  154.8566  140.0422  157.1658 H   0  0  0  0  0  0  0  0  0  0  0  0  # atno 8009 bound_to 7997
  154.8942  140.2967  155.5357 H   0  0  0  0  0  0  0  0  0  0  0  0  # atno 8010 bound_to 7997
  140.1105  143.4532  152.1756 H   0  0  0  0  0  0  0  0  0  0  0  0  # atno 10167 bound_to 10162
  156.4931  130.4571  149.6744 H   0  0  0  0  0  0  0  0  0  0  0  0  # atno 10718 bound_to 10713
  153.0054  135.5395  154.6502 H   0  0  0  0  0  0  0  0  0  0  0  0  # atno 10763 bound_to 10752
  154.5736  135.2844  155.0805 H   0  0  0  0  0  0  0  0  0  0  0  0  # atno 10764 bound_to 10752
  154.1961  135.6492  153.5126 H   0  0  0  0  0  0  0  0  0  0  0  0  # atno 10765 bound_to 10752
  140.3949  134.6829  157.4529 H   0  0  0  0  0  0  0  0  0  0  0  0  # atno 11005 bound_to 11000
  145.7755  139.1872  143.2187 LP  0  0  0  0  0  0  0  0  0  0  0  0  # atno 17320 bound_to 7965
  146.0876  140.7693  142.9611 LP  0  0  0  0  0  0  0  0  0  0  0  0  # atno 17321 bound_to 7965
  139.5622  144.7413  151.4123 LP  0  0  0  0  0  0  0  0  0  0  0  0  # atno 17342 bound_to 10162
  140.6928  143.7820  150.7281 LP  0  0  0  0  0  0  0  0  0  0  0  0  # atno 17343 bound_to 10162
  156.3407  130.7380  151.2325 LP  0  0  0  0  0  0  0  0  0  0  0  0  # atno 17370 bound_to 10713
  157.7471  131.0404  150.4598 LP  0  0  0  0  0  0  0  0  0  0  0  0  # atno 17371 bound_to 10713
  140.0379  134.6310  155.9019 LP  0  0  0  0  0  0  0  0  0  0  0  0  # atno 17394 bound_to 11000
  141.1878  133.6560  156.5296 LP  0  0  0  0  0  0  0  0  0  0  0  0  # atno 17395 bound_to 11000

$$$$
