AV-unprocessed.smi:3018|AV-procd|sdf|11483|dock4
  -GOLD-   2272016423D 1   1.00000     0.00000
 Structure written by MMmdl.
 44 45  0  0  0  0  0  0  0  0  2 V2000
  152.1859  138.5398  156.1574 C   0  0  0  0  0  0  0  0  0  0  0  0
  151.9340  139.3236  157.4514 C   0  0  0  0  0  0  0  0  0  0  0  0
  151.1620  140.6342  157.2130 C   0  0  2  0  0  0  0  0  0  0  0  0
  150.6289  141.0607  158.4661 O   0  0  0  0  0  0  0  0  0  0  0  0
  150.3311  142.4486  158.5988 C   0  0  0  0  0  0  0  0  0  0  0  0
  151.6277  143.2840  158.5873 C   0  0  0  0  0  0  0  0  0  0  0  0
  151.3381  144.7676  158.8698 C   0  0  0  0  0  0  0  0  0  0  0  0
  150.5782  144.9471  160.1939 C   0  0  0  0  0  0  0  0  0  0  0  0
  149.2886  144.1114  160.2129 C   0  0  0  0  0  0  0  0  0  0  0  0
  149.5843  142.6295  159.9316 C   0  0  0  0  0  0  0  0  0  0  0  0
  150.0215  140.4220  156.2058 C   0  0  0  0  0  0  0  0  0  0  0  0
  150.0322  141.0141  155.1265 O   0  0  0  0  0  0  0  0  0  0  0  0
  149.0523  139.5700  156.5757 N   0  0  0  0  0  0  0  0  0  0  0  0
  147.8539  139.2567  155.8004 C   0  0  0  0  0  0  0  0  0  0  0  0
  148.1763  138.9649  154.3204 C   0  0  0  0  0  0  0  0  0  0  0  0
  147.0290  139.2898  153.3987 C   0  0  0  0  0  0  0  0  0  0  0  0
  146.3521  138.4487  152.7093 N   0  0  0  0  0  0  0  0  0  0  0  0
  145.4483  139.2250  152.0897 N   0  0  0  0  0  0  0  0  0  0  0  0
  145.5967  140.5125  152.4100 C   0  0  0  0  0  0  0  0  0  0  0  0
  144.8838  141.4097  151.9658 O   0  0  0  0  0  0  0  0  0  0  0  0
  146.6322  140.5833  153.2652 N   0  5  0  0  0  0  0  0  0  0  0  0
  144.7652  138.8155  151.4696 H   0  0  0  0  0  0  0  0  0  0  0  0
  152.7195  137.6119  156.3641 H   0  0  0  0  0  0  0  0  0  0  0  0
  152.7860  139.1190  155.4551 H   0  0  0  0  0  0  0  0  0  0  0  0
  151.2484  138.2819  155.6643 H   0  0  0  0  0  0  0  0  0  0  0  0
  151.3749  138.6879  158.1401 H   0  0  0  0  0  0  0  0  0  0  0  0
  152.8882  139.5344  157.9368 H   0  0  0  0  0  0  0  0  0  0  0  0
  151.8576  141.3784  156.8227 H   0  0  0  0  0  0  0  0  0  0  0  0
  149.6739  142.7884  157.7975 H   0  0  0  0  0  0  0  0  0  0  0  0
  152.3186  142.8983  159.3379 H   0  0  0  0  0  0  0  0  0  0  0  0
  152.1345  143.1945  157.6269 H   0  0  0  0  0  0  0  0  0  0  0  0
  152.2718  145.3299  158.8989 H   0  0  0  0  0  0  0  0  0  0  0  0
  150.7504  145.1865  158.0519 H   0  0  0  0  0  0  0  0  0  0  0  0
  151.2187  144.6489  161.0251 H   0  0  0  0  0  0  0  0  0  0  0  0
  150.3417  146.0003  160.3481 H   0  0  0  0  0  0  0  0  0  0  0  0
  148.7927  144.2149  161.1784 H   0  0  0  0  0  0  0  0  0  0  0  0
  148.5925  144.4937  159.4651 H   0  0  0  0  0  0  0  0  0  0  0  0
  148.6527  142.0631  159.9130 H   0  0  0  0  0  0  0  0  0  0  0  0
  150.1805  142.2166  160.7466 H   0  0  0  0  0  0  0  0  0  0  0  0
  149.1346  139.1284  157.4796 H   0  0  0  0  0  0  0  0  0  0  0  0
  147.2901  138.4338  156.2442 H   0  0  0  0  0  0  0  0  0  0  0  0
  147.2010  140.1277  155.8548 H   0  0  0  0  0  0  0  0  0  0  0  0
  149.0514  139.5458  154.0254 H   0  0  0  0  0  0  0  0  0  0  0  0
  148.4621  137.9191  154.2019 H   0  0  0  0  0  0  0  0  0  0  0  0
  1  2  1  0  0  0  0
  1 23  1  0  0  0  0
  1 24  1  0  0  0  0
  1 25  1  0  0  0  0
  2  3  1  0  0  0  0
  2 26  1  0  0  0  0
  2 27  1  0  0  0  0
  3  4  1  0  0  0  0
  3 11  1  0  0  0  0
  3 28  1  0  0  0  0
  4  5  1  0  0  0  0
  5 10  1  0  0  0  0
  5  6  1  0  0  0  0
  5 29  1  0  0  0  0
  6  7  1  0  0  0  0
  6 30  1  0  0  0  0
  6 31  1  0  0  0  0
  7  8  1  0  0  0  0
  7 32  1  0  0  0  0
  7 33  1  0  0  0  0
  8  9  1  0  0  0  0
  8 34  1  0  0  0  0
  8 35  1  0  0  0  0
  9 10  1  0  0  0  0
  9 36  1  0  0  0  0
  9 37  1  0  0  0  0
 10 38  1  0  0  0  0
 10 39  1  0  0  0  0
 11 12  2  0  0  0  0
 11 13  1  0  0  0  0
 13 14  1  0  0  0  0
 13 40  1  0  0  0  0
 14 15  1  0  0  0  0
 14 41  1  0  0  0  0
 14 42  1  0  0  0  0
 15 16  1  0  0  0  0
 15 43  1  0  0  0  0
 15 44  1  0  0  0  0
 16 21  1  0  0  0  0
 16 17  2  0  0  0  0
 17 18  1  0  0  0  0
 18 22  1  0  0  0  0
 18 19  1  0  0  0  0
 19 20  2  0  0  0  0
 19 21  1  0  0  0  0
M  CHG  1  21  -1
M  END
> <s_m_source_file>
AV-unprocessed.smi

> <i_m_source_file_index>
3018

> <i_lp_mmshare_version>
43012

> <i_f3d_flags>
0

> <s_epik_input>
W0NIMl0xW0NIMl1bQ0gyXVtDSDJdW0NIMl1bQ0hdMU9bQ0BASF0oW0NIMl1bQ0gzXSlDKD1PKVtOSF1bQ0gyXVtDSDJdYzJuW25IXWMoPU8pW25IXTI=

> <s_epik_cmdline>
J2VwaWtfcHl0aG9uJywgJy1waCcsICc3LjAnLCAnLXRuJywgJzgnLCAnLW1hJywgJzIwMCcsICctbWV0YWxfYmluZGluZycsICctaW1hZScsICc8aW5maWxlLm1hZT4nLCAnLW9tYWUnLCAnPG91dGZpbGUubWFlPic=

> <r_lp_tautomer_probability>
1

> <r_epik_Ionization_Penalty>
13.7173

> <r_epik_Ionization_Penalty_Charging>
13.7173

> <r_epik_Ionization_Penalty_Neutral>
5.37575e-06

> <r_epik_State_Penalty>
4.05785

> <r_epik_Charging_Adjusted_Penalty>
17.7751

> <i_epik_Tot_Q>
-1

> <i_epik_Tot_abs_Q>
1

> <r_epik_Metal_State_Penalty>
0.460256

> <b_epik_Metal_Only>
1

> <s_lp_Force_Field>
OPLS_2005

> <r_lp_Energy>
25.0633

> <b_lp_Chiralities_Consistent>
1

> <s_lp_Variant>
AV-unprocessed.smi:3018-5

> <Gold.Version>
5.8.1

> <Gold.Id.Protein>
6NUR|6NUR_protein|mol2

> <Gold.PLP.Fitness>
48.4580

> <Gold.PLP.PLP>
-39.7123

> <Gold.PLP.part.hbond>
-2.0000

> <Gold.PLP.part.metal>
0.0000

> <Gold.PLP.part.buried>
-5.1881

> <Gold.PLP.part.nonpolar>
-32.8615

> <Gold.PLP.part.repulsive>
0.1310

> <Gold.PLP.ligand.clash>
0.0000

> <Gold.PLP.ligand.torsion>
0.7195

> <Gold.PLP.Chemscore.Hbond>
3.3600

> <Gold.PLP.Chemscore.CHOScore>
0.0000

> <Gold.PLP.Chemscore.Metal>
0.0000

> <Gold.Chemscore.Hbonds>
donor molecule, donor type, donor heavy atom, donor atom, acceptor molecule, acceptor atom, score
      L1  H    18    22       P1 10171  1.00
      P1  H  7989  7998       L1    12  0.27

> <Gold.PLP.Chemscore.Internal.Correction>
0.1047

> <Gold.Rescore>
     Score         DG    S(hbond)    S(metal)    S(lipo)     H(rot)  DE(clash)    DE(int)     intcor
     11.40     -13.57       1.58        0.00      89.34       2.98       0.04       2.13       ----

> <Gold.Chemscore.Fitness>
11.4011

> <Gold.Chemscore.DG>
-13.5737

> <Gold.Chemscore.ZeroCoef>
-5.4800

> <Gold.Chemscore.Hbond>
1.5755

> <Gold.Chemscore.Metal>
0.0000

> <Gold.Chemscore.Lipo>
89.3440

> <Gold.Chemscore.Internal_Hbond>
0.0000

> <Gold.Chemscore.DEClash>
0.0381

> <Gold.Chemscore.DEInternal>
2.1344

> <Gold.Chemscore.Rot>
2.9772

> <Gold.Chemscore.Internal.Correction>
   9.000000E+99

> <Gold.Chemscore.Hbonds>
donor molecule, donor type, donor heavy atom, donor atom, acceptor molecule, acceptor atom, score
      L1  H    18    22       P1 10171  0.97
      P1  H  7989  7998       L1    12  0.27

> <Gold.Chemscore.Hbond.Weighted>
-5.2620

> <Gold.Chemscore.Metal.Weighted>
-0.0000

> <Gold.Chemscore.Lipo.Weighted>
-10.4532

> <Gold.Chemscore.Internal_Hbond.Weighted>
0.0000

> <Gold.Chemscore.DEClash.Weighted>
0.0381

> <Gold.Chemscore.DEInternal.Weighted>
2.1344

> <Gold.Chemscore.Rot.Weighted>
7.6216

> <Gold.Chemscore.Internal.Correction.Weighted>
   9.000000E+99

> <Gold.Protein.RotatedTorsions>
[ 6907 6896 6895 6894 ] final  -36.66 input  -60.11 | X-H torsion
[ 7974 7965 7964 7962 ] final  105.53 input  175.53 | X-H torsion
[ 8008 7997 7996 7995 ] final  -24.94 input   59.86 | X-H torsion
[ 10167 10162 10161 10158 ] final  137.21 input  -65.29 | X-H torsion
[ 10718 10713 10712 10709 ] final  -86.82 input   66.30 | X-H torsion
[ 10763 10752 10751 10750 ] final   -3.92 input  -60.55 | X-H torsion
[ 11005 11000 10999 10996 ] final   30.13 input  -57.11 | X-H torsion

> <Gold.Protein.ActiveResidues>
 VAL166  LYS551  ARG553  GLY616  TRP617  ASP618  TYR619  PRO620  LYS621  CYS622 
 ASP623  PHE694  ASN695  SER759  ASP760  ASP761  ALA762  ILE779  LEU786  VAL792 
 PHE793  MET794  SER795  GLU796  ALA797  LYS798  CYS799  TRP800  GLU811  SER814 

> <Gold.Protein.RotatedAtoms>
  151.0244  134.9493  159.8076 H   0  0  0  0  0  0  0  0  0  0  0  0  # atno 6907 bound_to 6896
  152.5332  134.2862  159.9036 H   0  0  0  0  0  0  0  0  0  0  0  0  # atno 6908 bound_to 6896
  151.2870  133.4141  159.2664 H   0  0  0  0  0  0  0  0  0  0  0  0  # atno 6909 bound_to 6896
  145.3184  139.2519  143.3725 H   0  0  0  0  0  0  0  0  0  0  0  0  # atno 7974 bound_to 7965
  154.4502  140.1940  156.0543 H   0  0  0  0  0  0  0  0  0  0  0  0  # atno 8008 bound_to 7997
  156.0631  140.3294  155.7458 H   0  0  0  0  0  0  0  0  0  0  0  0  # atno 8009 bound_to 7997
  155.5381  140.0584  157.2866 H   0  0  0  0  0  0  0  0  0  0  0  0  # atno 8010 bound_to 7997
  139.5152  144.6422  151.5537 H   0  0  0  0  0  0  0  0  0  0  0  0  # atno 10167 bound_to 10162
  155.9988  130.4778  150.4773 H   0  0  0  0  0  0  0  0  0  0  0  0  # atno 10718 bound_to 10713
  153.3778  135.6997  153.6588 H   0  0  0  0  0  0  0  0  0  0  0  0  # atno 10763 bound_to 10752
  153.5212  135.3611  155.2633 H   0  0  0  0  0  0  0  0  0  0  0  0  # atno 10764 bound_to 10752
  154.8689  135.4158  154.3070 H   0  0  0  0  0  0  0  0  0  0  0  0  # atno 10765 bound_to 10752
  140.2977  134.2792  155.7761 H   0  0  0  0  0  0  0  0  0  0  0  0  # atno 11005 bound_to 11000
  146.3091  140.3736  142.8676 LP  0  0  0  0  0  0  0  0  0  0  0  0  # atno 17320 bound_to 7965
  144.8959  140.7582  143.5897 LP  0  0  0  0  0  0  0  0  0  0  0  0  # atno 17321 bound_to 7965
  140.6193  143.9288  150.6513 LP  0  0  0  0  0  0  0  0  0  0  0  0  # atno 17342 bound_to 10162
  140.2556  143.3561  152.1367 LP  0  0  0  0  0  0  0  0  0  0  0  0  # atno 17343 bound_to 10162
  157.2782  131.0601  151.2215 LP  0  0  0  0  0  0  0  0  0  0  0  0  # atno 17370 bound_to 10713
  157.3271  130.6966  149.6302 LP  0  0  0  0  0  0  0  0  0  0  0  0  # atno 17371 bound_to 10713
  141.2134  133.7626  156.9719 LP  0  0  0  0  0  0  0  0  0  0  0  0  # atno 17394 bound_to 11000
  140.1138  134.9460  157.2104 LP  0  0  0  0  0  0  0  0  0  0  0  0  # atno 17395 bound_to 11000

$$$$
