AV-unprocessed.smi:112|AV-procd|sdf|1084|dock3
  -GOLD-   2262018173D 1   1.00000     0.00000
 Structure written by MMmdl.
 54 57  0  0  0  0  0  0  0  0  3 V2000
  159.3186  135.3490  163.8983 C   0  0  0  0  0  0  0  0  0  0  0  0
  157.8758  135.8272  163.9372 C   0  0  0  0  0  0  0  0  0  0  0  0
  156.8339  134.9656  163.9718 C   0  0  0  0  0  0  0  0  0  0  0  0
  155.5104  135.3617  164.0039 N   0  0  0  0  0  0  0  0  0  0  0  0
  154.4107  134.3278  164.0992 C   0  0  1  0  0  0  0  0  0  0  0  0
  154.4078  133.3553  162.9262 C   0  0  0  0  0  0  0  0  0  0  0  0
  153.7228  132.1753  163.5804 C   0  0  1  0  0  0  0  0  0  0  0  0
  153.9632  130.9749  162.8733 O   0  0  0  0  0  0  0  0  0  0  0  0
  154.2595  132.2074  165.0289 C   0  0  1  0  0  0  0  0  0  0  0  0
  155.5265  131.3632  165.2794 C   0  0  0  0  0  0  0  0  0  0  0  0
  155.9834  131.5638  166.5999 O   0  0  0  0  0  0  0  0  0  0  0  0
  154.6078  133.5780  165.2565 O   0  0  0  0  0  0  0  0  0  0  0  0
  155.1976  136.7370  164.0514 C   0  0  0  0  0  0  0  0  0  0  0  0
  154.0283  137.1251  164.0998 O   0  0  0  0  0  0  0  0  0  0  0  0
  156.2641  137.6650  164.0230 N   0  0  0  0  0  0  0  0  0  0  0  0
  155.9460  139.1116  164.0420 C   0  0  0  0  0  0  0  0  0  0  0  0
  155.2615  139.6159  162.7523 C   0  0  0  0  0  0  0  0  0  0  0  0
  155.3297  138.9262  161.7342 O   0  0  0  0  0  0  0  0  0  0  0  0
  154.6111  140.8051  162.8030 N   0  0  0  0  0  0  0  0  0  0  0  0
  154.4975  141.6182  164.0264 C   0  0  0  0  0  0  0  0  0  0  0  0
  153.6764  142.8683  163.6417 C   0  0  0  0  0  0  0  0  0  0  0  0
  153.3957  142.6547  162.1838 C   0  0  0  0  0  0  0  0  0  0  0  0
  152.6789  143.5130  161.3330 C   0  0  0  0  0  0  0  0  0  0  0  0
  152.5158  143.1497  159.9732 C   0  0  0  0  0  0  0  0  0  0  0  0
  151.7694  144.0271  159.0498 N   0  3  0  0  0  0  0  0  0  0  0  0
  151.6645  143.6826  157.8770 O   0  0  0  0  0  0  0  0  0  0  0  0
  151.2865  145.0630  159.4956 O   0  5  0  0  0  0  0  0  0  0  0  0
  153.0810  141.9311  159.5118 C   0  0  0  0  0  0  0  0  0  0  0  0
  153.7974  141.0798  160.3814 C   0  0  0  0  0  0  0  0  0  0  0  0
  153.9464  141.4609  161.7327 C   0  0  0  0  0  0  0  0  0  0  0  0
  157.6227  137.2694  163.9503 C   0  0  0  0  0  0  0  0  0  0  0  0
  158.5209  138.1121  163.8998 O   0  0  0  0  0  0  0  0  0  0  0  0
  159.3845  134.2606  163.8886 H   0  0  0  0  0  0  0  0  0  0  0  0
  159.8635  135.7086  164.7719 H   0  0  0  0  0  0  0  0  0  0  0  0
  159.8206  135.7207  163.0044 H   0  0  0  0  0  0  0  0  0  0  0  0
  157.0505  133.9084  163.9811 H   0  0  0  0  0  0  0  0  0  0  0  0
  153.4538  134.8408  164.1932 H   0  0  0  0  0  0  0  0  0  0  0  0
  153.8711  133.7667  162.0710 H   0  0  0  0  0  0  0  0  0  0  0  0
  155.4249  133.1011  162.6279 H   0  0  0  0  0  0  0  0  0  0  0  0
  152.6468  132.3564  163.5969 H   0  0  0  0  0  0  0  0  0  0  0  0
  154.6083  131.1441  162.2038 H   0  0  0  0  0  0  0  0  0  0  0  0
  153.4681  131.8993  165.7136 H   0  0  0  0  0  0  0  0  0  0  0  0
  155.3117  130.2989  165.1864 H   0  0  0  0  0  0  0  0  0  0  0  0
  156.3167  131.5948  164.5663 H   0  0  0  0  0  0  0  0  0  0  0  0
  155.8603  132.4732  166.8254 H   0  0  0  0  0  0  0  0  0  0  0  0
  155.3131  139.3473  164.8985 H   0  0  0  0  0  0  0  0  0  0  0  0
  156.8504  139.6976  164.2106 H   0  0  0  0  0  0  0  0  0  0  0  0
  153.9902  141.0623  164.8160 H   0  0  0  0  0  0  0  0  0  0  0  0
  155.4837  141.9094  164.3906 H   0  0  0  0  0  0  0  0  0  0  0  0
  152.7442  142.9303  164.2039 H   0  0  0  0  0  0  0  0  0  0  0  0
  154.2420  143.7884  163.7909 H   0  0  0  0  0  0  0  0  0  0  0  0
  152.2660  144.4316  161.7230 H   0  0  0  0  0  0  0  0  0  0  0  0
  152.9705  141.6354  158.4790 H   0  0  0  0  0  0  0  0  0  0  0  0
  154.2122  140.1647  159.9896 H   0  0  0  0  0  0  0  0  0  0  0  0
  1  2  1  0  0  0  0
  1 33  1  0  0  0  0
  1 34  1  0  0  0  0
  1 35  1  0  0  0  0
  2 31  1  0  0  0  0
  2  3  2  0  0  0  0
  3  4  1  0  0  0  0
  3 36  1  0  0  0  0
  4  5  1  0  0  0  0
  4 13  1  0  0  0  0
  5 12  1  0  0  0  0
  5  6  1  0  0  0  0
  5 37  1  0  0  0  0
  6  7  1  0  0  0  0
  6 38  1  0  0  0  0
  6 39  1  0  0  0  0
  7  8  1  0  0  0  0
  7  9  1  0  0  0  0
  7 40  1  0  0  0  0
  8 41  1  0  0  0  0
  9 10  1  0  0  0  0
  9 12  1  0  0  0  0
  9 42  1  0  0  0  0
 10 11  1  0  0  0  0
 10 43  1  0  0  0  0
 10 44  1  0  0  0  0
 11 45  1  0  0  0  0
 13 14  2  0  0  0  0
 13 15  1  0  0  0  0
 15 16  1  0  0  0  0
 15 31  1  0  0  0  0
 16 17  1  0  0  0  0
 16 46  1  0  0  0  0
 16 47  1  0  0  0  0
 17 18  2  0  0  0  0
 17 19  1  0  0  0  0
 19 30  1  0  0  0  0
 19 20  1  0  0  0  0
 20 21  1  0  0  0  0
 20 48  1  0  0  0  0
 20 49  1  0  0  0  0
 21 22  1  0  0  0  0
 21 50  1  0  0  0  0
 21 51  1  0  0  0  0
 22 30  2  0  0  0  0
 22 23  1  0  0  0  0
 23 24  2  0  0  0  0
 23 52  1  0  0  0  0
 24 25  1  0  0  0  0
 24 28  1  0  0  0  0
 25 26  2  0  0  0  0
 25 27  1  0  0  0  0
 28 29  2  0  0  0  0
 28 53  1  0  0  0  0
 29 30  1  0  0  0  0
 29 54  1  0  0  0  0
 31 32  2  0  0  0  0
M  CHG  1  25   1
M  CHG  1  27  -1
M  END
> <s_m_source_file>
AV-unprocessed.smi

> <i_m_source_file_index>
112

> <i_lp_mmshare_version>
43012

> <i_f3d_flags>
0

> <s_epik_input>
W09IXVtDSDJdW0NAQEhdKE8xKVtDQEhdKFtPSF0pW0NIMl1bQ0BIXTFuKFtjSF1jMltDSDNdKWMoPU8pbihjMj1PKVtDSDJdQyg9TylOKFtDSDJdW0NIMl0zKWMoYzM0KVtjSF1bY0hdYyhbY0hdNClbTitdKD1PKVtPLV0=

> <s_epik_cmdline>
J2VwaWtfcHl0aG9uJywgJy1waCcsICc3LjAnLCAnLXRuJywgJzgnLCAnLW1hJywgJzIwMCcsICctbWV0YWxfYmluZGluZycsICctaW1hZScsICc8aW5maWxlLm1hZT4nLCAnLW9tYWUnLCAnPG91dGZpbGUubWFlPic=

> <r_lp_tautomer_probability>
1

> <r_epik_Ionization_Penalty>
2.5696e-07

> <r_epik_Ionization_Penalty_Charging>
1.04886e-08

> <r_epik_Ionization_Penalty_Neutral>
2.46472e-07

> <r_epik_State_Penalty>
-0

> <r_epik_Charging_Adjusted_Penalty>
1.04886e-08

> <i_epik_Tot_Q>
0

> <i_epik_Tot_abs_Q>
2

> <r_epik_Metal_State_Penalty>
-0

> <b_epik_Metal_Only>
0

> <s_epik_Chemistry_Notes>
This compound contains an acetal/aminal-like group ( X-CH(R)-Y where X, Y are N, S, or O) that may be acid/base labile, releasing an aldehyde.

> <s_lp_Force_Field>
OPLS_2005

> <r_lp_Energy>
61.1797

> <b_lp_Chiralities_Consistent>
1

> <s_lp_Variant>
AV-unprocessed.smi:112-2

> <Gold.Version>
5.8.1

> <Gold.Id.Protein>
6NUR|6NUR_protein|mol2

> <Gold.PLP.Fitness>
49.7174

> <Gold.PLP.PLP>
-50.3666

> <Gold.PLP.part.hbond>
0.0000

> <Gold.PLP.part.metal>
0.0000

> <Gold.PLP.part.buried>
-7.0679

> <Gold.PLP.part.nonpolar>
-43.0376

> <Gold.PLP.part.repulsive>
0.4306

> <Gold.PLP.ligand.clash>
0.0000

> <Gold.PLP.ligand.torsion>
0.3421

> <Gold.PLP.Chemscore.Hbond>
0.0000

> <Gold.PLP.Chemscore.CHOScore>
0.0000

> <Gold.PLP.Chemscore.Metal>
0.0000

> <Gold.PLP.Chemscore.Internal.Correction>
0.0349

> <Gold.Rescore>
     Score         DG    S(hbond)    S(metal)    S(lipo)     H(rot)  DE(clash)    DE(int)     intcor
      9.12     -10.91       0.00        0.00     118.44       3.29       0.28       1.51       ----

> <Gold.Chemscore.Fitness>
9.1155

> <Gold.Chemscore.DG>
-10.9115

> <Gold.Chemscore.ZeroCoef>
-5.4800

> <Gold.Chemscore.Hbond>
0.0000

> <Gold.Chemscore.Metal>
0.0000

> <Gold.Chemscore.Lipo>
118.4443

> <Gold.Chemscore.Internal_Hbond>
0.0000

> <Gold.Chemscore.DEClash>
0.2817

> <Gold.Chemscore.DEInternal>
1.5142

> <Gold.Chemscore.Rot>
3.2916

> <Gold.Chemscore.Internal.Correction>
   9.000000E+99

> <Gold.Chemscore.Hbond.Weighted>
-0.0000

> <Gold.Chemscore.Metal.Weighted>
-0.0000

> <Gold.Chemscore.Lipo.Weighted>
-13.8580

> <Gold.Chemscore.Internal_Hbond.Weighted>
0.0000

> <Gold.Chemscore.DEClash.Weighted>
0.2817

> <Gold.Chemscore.DEInternal.Weighted>
1.5142

> <Gold.Chemscore.Rot.Weighted>
8.4265

> <Gold.Chemscore.Internal.Correction.Weighted>
   9.000000E+99

> <Gold.Protein.RotatedTorsions>
[ 6907 6896 6895 6894 ] final   17.33 input  -60.11 | X-H torsion
[ 7974 7965 7964 7962 ] final   99.59 input  175.53 | X-H torsion
[ 8008 7997 7996 7995 ] final -105.96 input   59.86 | X-H torsion
[ 10167 10162 10161 10158 ] final -163.26 input  -65.29 | X-H torsion
[ 10718 10713 10712 10709 ] final -175.90 input   66.30 | X-H torsion
[ 10763 10752 10751 10750 ] final   -0.57 input  -60.55 | X-H torsion
[ 11005 11000 10999 10996 ] final  153.30 input  -57.11 | X-H torsion

> <Gold.Protein.ActiveResidues>
 VAL166  LYS551  ARG553  GLY616  TRP617  ASP618  TYR619  PRO620  LYS621  CYS622 
 ASP623  PHE694  ASN695  SER759  ASP760  ASP761  ALA762  ILE779  LEU786  VAL792 
 PHE793  MET794  SER795  GLU796  ALA797  LYS798  CYS799  TRP800  GLU811  SER814 

> <Gold.Protein.RotatedAtoms>
  151.8479  135.0568  160.0455 H   0  0  0  0  0  0  0  0  0  0  0  0  # atno 6907 bound_to 6896
  152.2759  133.5420  159.5476 H   0  0  0  0  0  0  0  0  0  0  0  0  # atno 6908 bound_to 6896
  150.7170  134.0549  159.3853 H   0  0  0  0  0  0  0  0  0  0  0  0  # atno 6909 bound_to 6896
  145.3968  139.2354  143.3321 H   0  0  0  0  0  0  0  0  0  0  0  0  # atno 7974 bound_to 7965
  154.9075  140.0411  157.1927 H   0  0  0  0  0  0  0  0  0  0  0  0  # atno 8008 bound_to 7997
  154.8382  140.2910  155.5656 H   0  0  0  0  0  0  0  0  0  0  0  0  # atno 8009 bound_to 7997
  156.2991  140.2488  156.3319 H   0  0  0  0  0  0  0  0  0  0  0  0  # atno 8010 bound_to 7997
  139.6333  144.0398  152.2034 H   0  0  0  0  0  0  0  0  0  0  0  0  # atno 10167 bound_to 10162
  156.8067  130.9571  151.3117 H   0  0  0  0  0  0  0  0  0  0  0  0  # atno 10718 bound_to 10713
  153.3336  135.6976  153.6926 H   0  0  0  0  0  0  0  0  0  0  0  0  # atno 10763 bound_to 10752
  153.5719  135.3514  155.2841 H   0  0  0  0  0  0  0  0  0  0  0  0  # atno 10764 bound_to 10752
  154.8623  135.4274  154.2532 H   0  0  0  0  0  0  0  0  0  0  0  0  # atno 10765 bound_to 10752
  140.1385  134.8754  157.2300 H   0  0  0  0  0  0  0  0  0  0  0  0  # atno 11005 bound_to 11000
  146.2771  140.4660  142.8791 LP  0  0  0  0  0  0  0  0  0  0  0  0  # atno 17320 bound_to 7965
  144.8401  140.6844  143.6235 LP  0  0  0  0  0  0  0  0  0  0  0  0  # atno 17321 bound_to 7965
  140.0069  144.6253  150.7681 LP  0  0  0  0  0  0  0  0  0  0  0  0  # atno 17342 bound_to 10162
  140.7451  143.2871  151.3433 LP  0  0  0  0  0  0  0  0  0  0  0  0  # atno 17343 bound_to 10162
  157.6526  130.8897  149.9665 LP  0  0  0  0  0  0  0  0  0  0  0  0  # atno 17370 bound_to 10713
  156.1069  130.3652  150.0118 LP  0  0  0  0  0  0  0  0  0  0  0  0  # atno 17371 bound_to 10713
  140.2752  134.3414  155.7360 LP  0  0  0  0  0  0  0  0  0  0  0  0  # atno 17394 bound_to 11000
  141.2182  133.7446  156.9281 LP  0  0  0  0  0  0  0  0  0  0  0  0  # atno 17395 bound_to 11000

$$$$
