AV-unprocessed.smi:1538|AV-procd|sdf|6192|dock3
  -GOLD-   22720 6353D 1   1.00000     0.00000
 Structure written by MMmdl.
 37 38  0  0  0  0  0  0  0  0  2 V2000
  148.8541  131.0731  158.4846 C   0  0  0  0  0  0  0  0  0  0  0  0
  149.2176  131.6477  157.1880 N   0  0  0  0  0  0  0  0  0  0  0  0
  149.3742  130.6734  156.1011 C   0  0  0  0  0  0  0  0  0  0  0  0
  150.2078  131.2060  154.9280 C   0  0  0  0  0  0  0  0  0  0  0  0
  149.7512  132.6032  154.4840 C   0  0  1  0  0  0  0  0  0  0  0  0
  148.4213  132.5827  153.7096 C   0  0  0  0  0  0  0  0  0  0  0  0
  147.8578  131.5163  153.4623 O   0  0  0  0  0  0  0  0  0  0  0  0
  147.9215  133.7717  153.3416 N   0  0  0  0  0  0  0  0  0  0  0  0
  146.6755  133.9456  152.6090 C   0  0  0  0  0  0  0  0  0  0  0  0
  146.8162  133.4310  151.1702 C   0  0  0  0  0  0  0  0  0  0  0  0
  145.5127  133.2707  150.5232 N   0  0  0  0  0  0  0  0  0  0  0  0
  145.0287  132.1519  149.8955 C   0  0  0  0  0  0  0  0  0  0  0  0
  143.7708  132.4674  149.4500 C   0  0  0  0  0  0  0  0  0  0  0  0
  143.5401  133.7637  149.8259 N   0  3  0  0  0  0  0  0  0  0  0  0
  144.6006  134.2506  150.4788 C   0  0  0  0  0  0  0  0  0  0  0  0
  149.7167  133.5889  155.6746 C   0  0  0  0  0  0  0  0  0  0  0  0
  149.3338  132.9898  157.0416 C   0  0  0  0  0  0  0  0  0  0  0  0
  149.1581  133.7697  157.9781 O   0  0  0  0  0  0  0  0  0  0  0  0
  147.9527  131.5427  158.8812 H   0  0  0  0  0  0  0  0  0  0  0  0
  149.6602  131.2193  159.2047 H   0  0  0  0  0  0  0  0  0  0  0  0
  148.6556  130.0025  158.4204 H   0  0  0  0  0  0  0  0  0  0  0  0
  149.8457  129.7653  156.4794 H   0  0  0  0  0  0  0  0  0  0  0  0
  148.3813  130.3814  155.7575 H   0  0  0  0  0  0  0  0  0  0  0  0
  151.2551  131.2565  155.2296 H   0  0  0  0  0  0  0  0  0  0  0  0
  150.1684  130.5034  154.0946 H   0  0  0  0  0  0  0  0  0  0  0  0
  150.5069  132.9754  153.7898 H   0  0  0  0  0  0  0  0  0  0  0  0
  148.4384  134.6049  153.5843 H   0  0  0  0  0  0  0  0  0  0  0  0
  145.8772  133.4079  153.1233 H   0  0  0  0  0  0  0  0  0  0  0  0
  146.4026  135.0023  152.6046 H   0  0  0  0  0  0  0  0  0  0  0  0
  147.4152  134.1160  150.5679 H   0  0  0  0  0  0  0  0  0  0  0  0
  147.3189  132.4628  151.1538 H   0  0  0  0  0  0  0  0  0  0  0  0
  145.5996  131.2379  149.8150 H   0  0  0  0  0  0  0  0  0  0  0  0
  143.0418  131.8817  148.9090 H   0  0  0  0  0  0  0  0  0  0  0  0
  144.6990  135.2396  150.8899 H   0  0  0  0  0  0  0  0  0  0  0  0
  150.7104  134.0224  155.7930 H   0  0  0  0  0  0  0  0  0  0  0  0
  149.0550  134.4309  155.4637 H   0  0  0  0  0  0  0  0  0  0  0  0
  142.6902  134.2812  149.6391 H   0  0  0  0  0  0  0  0  0  0  0  0
  1  2  1  0  0  0  0
  1 19  1  0  0  0  0
  1 20  1  0  0  0  0
  1 21  1  0  0  0  0
  2 17  1  0  0  0  0
  2  3  1  0  0  0  0
  3  4  1  0  0  0  0
  3 22  1  0  0  0  0
  3 23  1  0  0  0  0
  4  5  1  0  0  0  0
  4 24  1  0  0  0  0
  4 25  1  0  0  0  0
  5  6  1  0  0  0  0
  5 16  1  0  0  0  0
  5 26  1  0  0  0  0
  6  7  2  0  0  0  0
  6  8  1  0  0  0  0
  8  9  1  0  0  0  0
  8 27  1  0  0  0  0
  9 10  1  0  0  0  0
  9 28  1  0  0  0  0
  9 29  1  0  0  0  0
 10 11  1  0  0  0  0
 10 30  1  0  0  0  0
 10 31  1  0  0  0  0
 11 15  1  0  0  0  0
 11 12  1  0  0  0  0
 12 13  2  0  0  0  0
 12 32  1  0  0  0  0
 13 14  1  0  0  0  0
 13 33  1  0  0  0  0
 14 15  2  0  0  0  0
 14 37  1  0  0  0  0
 15 34  1  0  0  0  0
 16 17  1  0  0  0  0
 16 35  1  0  0  0  0
 16 36  1  0  0  0  0
 17 18  2  0  0  0  0
M  CHG  1  14   1
M  END
> <s_m_source_file>
AV-unprocessed.smi

> <i_m_source_file_index>
1538

> <i_lp_mmshare_version>
43012

> <i_f3d_flags>
0

> <s_epik_input>
W0NIM11OMVtDSDJdW0NIMl1bQ0BIXShbQ0gyXUMxPU8pQyg9TylbTkhdW0NIMl1bQ0gyXW4yW2NIXVtjSF1uW2NIXTI=

> <s_epik_cmdline>
J2VwaWtfcHl0aG9uJywgJy1waCcsICc3LjAnLCAnLXRuJywgJzgnLCAnLW1hJywgJzIwMCcsICctbWV0YWxfYmluZGluZycsICctaW1hZScsICc8aW5maWxlLm1hZT4nLCAnLW9tYWUnLCAnPG91dGZpbGUubWFlPic=

> <r_lp_tautomer_probability>
1

> <r_epik_Ionization_Penalty>
0.272873

> <r_epik_Ionization_Penalty_Charging>
0

> <r_epik_Ionization_Penalty_Neutral>
0.272873

> <r_epik_State_Penalty>
0.265096

> <r_epik_Charging_Adjusted_Penalty>
0.265096

> <i_epik_Tot_Q>
1

> <i_epik_Tot_abs_Q>
1

> <r_epik_Metal_State_Penalty>
0.549113

> <b_epik_Metal_Only>
0

> <s_lp_Force_Field>
OPLS_2005

> <r_lp_Energy>
17.3063

> <b_lp_Chiralities_Consistent>
1

> <s_lp_Variant>
AV-unprocessed.smi:1538-1

> <Gold.Version>
5.8.1

> <Gold.Id.Protein>
6NUR|6NUR_protein|mol2

> <Gold.PLP.Fitness>
40.0708

> <Gold.PLP.PLP>
-30.9950

> <Gold.PLP.part.hbond>
-3.0000

> <Gold.PLP.part.metal>
0.0000

> <Gold.PLP.part.buried>
-5.1262

> <Gold.PLP.part.nonpolar>
-23.1315

> <Gold.PLP.part.repulsive>
0.1407

> <Gold.PLP.ligand.clash>
0.0000

> <Gold.PLP.ligand.torsion>
0.2413

> <Gold.PLP.Chemscore.Hbond>
3.1625

> <Gold.PLP.Chemscore.CHOScore>
0.0000

> <Gold.PLP.Chemscore.Metal>
0.0000

> <Gold.Chemscore.Hbonds>
donor molecule, donor type, donor heavy atom, donor atom, acceptor molecule, acceptor atom, score
      L1  H     8    27       P1  7948  0.04
      L1  H    14    37       P1 10186  2.00
      P1  H  6896  6909       L1    18  0.96

> <Gold.PLP.Chemscore.Internal.Correction>
0.0708

> <Gold.Rescore>
     Score         DG    S(hbond)    S(metal)    S(lipo)     H(rot)  DE(clash)    DE(int)     intcor
     13.95     -14.18       2.17        0.00      57.28       2.05       0.09       0.14       ----

> <Gold.Chemscore.Fitness>
13.9544

> <Gold.Chemscore.DG>
-14.1828

> <Gold.Chemscore.ZeroCoef>
-5.4800

> <Gold.Chemscore.Hbond>
2.1686

> <Gold.Chemscore.Metal>
0.0000

> <Gold.Chemscore.Lipo>
57.2829

> <Gold.Chemscore.Internal_Hbond>
0.0000

> <Gold.Chemscore.DEClash>
0.0901

> <Gold.Chemscore.DEInternal>
0.1383

> <Gold.Chemscore.Rot>
2.0478

> <Gold.Chemscore.Internal.Correction>
   9.000000E+99

> <Gold.Chemscore.Hbonds>
donor molecule, donor type, donor heavy atom, donor atom, acceptor molecule, acceptor atom, score
      L1  H     8    27       P1  7948  0.03
      L1  H    14    37       P1 10186  0.97
      P1  H  6896  6909       L1    18  0.83

> <Gold.Chemscore.Hbond.Weighted>
-7.2430

> <Gold.Chemscore.Metal.Weighted>
-0.0000

> <Gold.Chemscore.Lipo.Weighted>
-6.7021

> <Gold.Chemscore.Internal_Hbond.Weighted>
0.0000

> <Gold.Chemscore.DEClash.Weighted>
0.0901

> <Gold.Chemscore.DEInternal.Weighted>
0.1383

> <Gold.Chemscore.Rot.Weighted>
5.2423

> <Gold.Chemscore.Internal.Correction.Weighted>
   9.000000E+99

> <Gold.Protein.RotatedTorsions>
[ 6907 6896 6895 6894 ] final    7.20 input  -60.11 | X-H torsion
[ 7974 7965 7964 7962 ] final -100.57 input  175.53 | X-H torsion
[ 8008 7997 7996 7995 ] final  179.19 input   59.86 | X-H torsion
[ 10167 10162 10161 10158 ] final  -13.63 input  -65.29 | X-H torsion
[ 10718 10713 10712 10709 ] final  103.75 input   66.30 | X-H torsion
[ 10763 10752 10751 10750 ] final -147.38 input  -60.55 | X-H torsion
[ 11005 11000 10999 10996 ] final -176.73 input  -57.11 | X-H torsion

> <Gold.Protein.ActiveResidues>
 VAL166  LYS551  ARG553  GLY616  TRP617  ASP618  TYR619  PRO620  LYS621  CYS622 
 ASP623  PHE694  ASN695  SER759  ASP760  ASP761  ALA762  ILE779  LEU786  VAL792 
 PHE793  MET794  SER795  GLU796  ALA797  LYS798  CYS799  TRP800  GLU811  SER814 

> <Gold.Protein.RotatedAtoms>
  151.6860  135.0954  160.0224 H   0  0  0  0  0  0  0  0  0  0  0  0  # atno 6907 bound_to 6896
  152.3807  133.6538  159.6167 H   0  0  0  0  0  0  0  0  0  0  0  0  # atno 6908 bound_to 6896
  150.7744  133.9035  159.3389 H   0  0  0  0  0  0  0  0  0  0  0  0  # atno 6909 bound_to 6896
  145.2928  140.9357  143.2868 H   0  0  0  0  0  0  0  0  0  0  0  0  # atno 7974 bound_to 7965
  156.0462  140.1315  157.0101 H   0  0  0  0  0  0  0  0  0  0  0  0  # atno 8008 bound_to 7997
  154.4413  140.1020  156.6380 H   0  0  0  0  0  0  0  0  0  0  0  0  # atno 8009 bound_to 7997
  155.5592  140.3464  155.4489 H   0  0  0  0  0  0  0  0  0  0  0  0  # atno 8010 bound_to 7997
  140.7186  143.5406  150.9413 H   0  0  0  0  0  0  0  0  0  0  0  0  # atno 10167 bound_to 10162
  157.6762  131.0787  150.5603 H   0  0  0  0  0  0  0  0  0  0  0  0  # atno 10718 bound_to 10713
  154.8289  135.3362  154.6809 H   0  0  0  0  0  0  0  0  0  0  0  0  # atno 10763 bound_to 10752
  153.7431  135.6944  153.4967 H   0  0  0  0  0  0  0  0  0  0  0  0  # atno 10764 bound_to 10752
  153.2229  135.4442  155.0461 H   0  0  0  0  0  0  0  0  0  0  0  0  # atno 10765 bound_to 10752
  140.4488  134.6363  157.4792 H   0  0  0  0  0  0  0  0  0  0  0  0  # atno 11005 bound_to 11000
  144.9158  139.4472  143.6565 LP  0  0  0  0  0  0  0  0  0  0  0  0  # atno 17320 bound_to 7965
  146.3179  139.7992  142.8969 LP  0  0  0  0  0  0  0  0  0  0  0  0  # atno 17321 bound_to 7965
  139.9129  143.6699  152.3112 LP  0  0  0  0  0  0  0  0  0  0  0  0  # atno 17342 bound_to 10162
  139.7088  144.7623  151.1147 LP  0  0  0  0  0  0  0  0  0  0  0  0  # atno 17343 bound_to 10162
  156.5906  130.4328  149.5938 LP  0  0  0  0  0  0  0  0  0  0  0  0  # atno 17370 bound_to 10713
  156.2587  130.6949  151.1711 LP  0  0  0  0  0  0  0  0  0  0  0  0  # atno 17371 bound_to 10713
  140.0020  134.6821  155.9514 LP  0  0  0  0  0  0  0  0  0  0  0  0  # atno 17394 bound_to 11000
  141.1673  133.6537  156.4526 LP  0  0  0  0  0  0  0  0  0  0  0  0  # atno 17395 bound_to 11000

$$$$
