AV-unprocessed.smi:3225|AV-procd|sdf|12312|dock10
  -GOLD-   2272018163D 1   1.00000     0.00000
 Structure written by MMmdl.
 41 42  0  0  0  0  0  0  0  0  2 V2000
  145.4275  136.2813  150.5692 C   0  0  0  0  0  0  0  0  0  0  0  0
  145.5982  136.0174  152.0742 C   0  0  1  0  0  0  0  0  0  0  0  0
  145.9947  134.5603  152.3881 C   0  0  0  0  0  0  0  0  0  0  0  0
  145.2804  133.5906  151.5771 N   0  0  0  0  0  0  0  0  0  0  0  0
  145.7721  132.4636  150.9521 C   0  0  0  0  0  0  0  0  0  0  0  0
  144.7245  131.8640  150.3139 C   0  0  0  0  0  0  0  0  0  0  0  0
  143.6172  132.7048  150.6166 C   0  0  0  0  0  0  0  0  0  0  0  0
  143.9531  133.7364  151.3746 N   0  0  0  0  0  0  0  0  0  0  0  0
  146.6082  136.9420  152.6341 N   0  3  0  0  0  0  0  0  0  0  0  0
  146.2314  138.3690  152.5899 C   0  0  0  0  0  0  0  0  0  0  0  0
  147.3344  139.2510  153.1878 C   0  0  0  0  0  0  0  0  0  0  0  0
  147.8207  138.7322  154.5517 C   0  0  0  0  0  0  0  0  0  0  0  0
  149.2582  138.4727  154.5501 N   0  0  0  0  0  0  0  0  0  0  0  0
  149.7742  137.1471  154.8490 C   0  0  0  0  0  0  0  0  0  0  0  0
  151.2839  137.2301  154.5780 C   0  0  0  0  0  0  0  0  0  0  0  0
  151.5960  138.7158  154.3664 C   0  0  0  0  0  0  0  0  0  0  0  0
  150.2231  139.3587  154.2770 C   0  0  0  0  0  0  0  0  0  0  0  0
  150.0579  140.5438  153.9914 O   0  0  0  0  0  0  0  0  0  0  0  0
  144.6344  135.6664  150.1427 H   0  0  0  0  0  0  0  0  0  0  0  0
  146.3458  136.0672  150.0216 H   0  0  0  0  0  0  0  0  0  0  0  0
  145.1628  137.3227  150.3821 H   0  0  0  0  0  0  0  0  0  0  0  0
  144.6362  136.2156  152.5503 H   0  0  0  0  0  0  0  0  0  0  0  0
  147.0649  134.4174  152.2309 H   0  0  0  0  0  0  0  0  0  0  0  0
  145.8012  134.3335  153.4376 H   0  0  0  0  0  0  0  0  0  0  0  0
  146.8143  132.1860  151.0100 H   0  0  0  0  0  0  0  0  0  0  0  0
  144.7454  130.9604  149.7226 H   0  0  0  0  0  0  0  0  0  0  0  0
  142.5868  132.5965  150.3114 H   0  0  0  0  0  0  0  0  0  0  0  0
  146.7749  136.6856  153.5968 H   0  0  0  0  0  0  0  0  0  0  0  0
  146.0439  138.6578  151.5547 H   0  0  0  0  0  0  0  0  0  0  0  0
  145.3008  138.5103  153.1417 H   0  0  0  0  0  0  0  0  0  0  0  0
  148.1725  139.3008  152.4913 H   0  0  0  0  0  0  0  0  0  0  0  0
  146.9648  140.2714  153.3009 H   0  0  0  0  0  0  0  0  0  0  0  0
  147.5856  139.4585  155.3307 H   0  0  0  0  0  0  0  0  0  0  0  0
  147.2902  137.8164  154.8176 H   0  0  0  0  0  0  0  0  0  0  0  0
  149.5747  136.9082  155.8945 H   0  0  0  0  0  0  0  0  0  0  0  0
  149.2976  136.3880  154.2274 H   0  0  0  0  0  0  0  0  0  0  0  0
  151.8614  136.8106  155.4025 H   0  0  0  0  0  0  0  0  0  0  0  0
  151.5377  136.6639  153.6810 H   0  0  0  0  0  0  0  0  0  0  0  0
  152.1411  139.1343  155.2130 H   0  0  0  0  0  0  0  0  0  0  0  0
  152.1732  138.8885  153.4575 H   0  0  0  0  0  0  0  0  0  0  0  0
  147.4684  136.8234  152.1182 H   0  0  0  0  0  0  0  0  0  0  0  0
  1  2  1  0  0  0  0
  1 19  1  0  0  0  0
  1 20  1  0  0  0  0
  1 21  1  0  0  0  0
  2  3  1  0  0  0  0
  2  9  1  0  0  0  0
  2 22  1  0  0  0  0
  3  4  1  0  0  0  0
  3 23  1  0  0  0  0
  3 24  1  0  0  0  0
  4  8  1  0  0  0  0
  4  5  1  0  0  0  0
  5  6  2  0  0  0  0
  5 25  1  0  0  0  0
  6  7  1  0  0  0  0
  6 26  1  0  0  0  0
  7  8  2  0  0  0  0
  7 27  1  0  0  0  0
  9 10  1  0  0  0  0
  9 28  1  0  0  0  0
  9 41  1  0  0  0  0
 10 11  1  0  0  0  0
 10 29  1  0  0  0  0
 10 30  1  0  0  0  0
 11 12  1  0  0  0  0
 11 31  1  0  0  0  0
 11 32  1  0  0  0  0
 12 13  1  0  0  0  0
 12 33  1  0  0  0  0
 12 34  1  0  0  0  0
 13 17  1  0  0  0  0
 13 14  1  0  0  0  0
 14 15  1  0  0  0  0
 14 35  1  0  0  0  0
 14 36  1  0  0  0  0
 15 16  1  0  0  0  0
 15 37  1  0  0  0  0
 15 38  1  0  0  0  0
 16 17  1  0  0  0  0
 16 39  1  0  0  0  0
 16 40  1  0  0  0  0
 17 18  2  0  0  0  0
M  CHG  1   9   1
M  END
> <s_m_source_file>
AV-unprocessed.smi

> <i_m_source_file_index>
3225

> <i_lp_mmshare_version>
43012

> <i_f3d_flags>
0

> <s_epik_input>
bjFbY0hdW2NIXVtjSF1uMVtDSDJdW0NAQEhdKFtDSDNdKVtOSF1bQ0gyXVtDSDJdW0NIMl1OMltDSDJdW0NIMl1bQ0gyXUMyPU8=

> <s_epik_cmdline>
J2VwaWtfcHl0aG9uJywgJy1waCcsICc3LjAnLCAnLXRuJywgJzgnLCAnLW1hJywgJzIwMCcsICctbWV0YWxfYmluZGluZycsICctaW1hZScsICc8aW5maWxlLm1hZT4nLCAnLW9tYWUnLCAnPG91dGZpbGUubWFlPic=

> <r_lp_tautomer_probability>
1

> <r_epik_Ionization_Penalty>
0.00490443

> <r_epik_Ionization_Penalty_Charging>
0.00490019

> <r_epik_Ionization_Penalty_Neutral>
4.24076e-06

> <r_epik_State_Penalty>
0.00355741

> <r_epik_Charging_Adjusted_Penalty>
0.0084576

> <i_epik_Tot_Q>
1

> <i_epik_Tot_abs_Q>
1

> <r_epik_Metal_State_Penalty>
-0

> <b_epik_Metal_Only>
0

> <s_lp_Force_Field>
OPLS_2005

> <r_lp_Energy>
22.636

> <b_lp_Chiralities_Consistent>
1

> <s_lp_Variant>
AV-unprocessed.smi:3225-2

> <Gold.Version>
5.8.1

> <Gold.Id.Protein>
6NUR|6NUR_protein|mol2

> <Gold.PLP.Fitness>
46.5176

> <Gold.PLP.PLP>
-33.7162

> <Gold.PLP.part.hbond>
-1.9610

> <Gold.PLP.part.metal>
0.0000

> <Gold.PLP.part.buried>
-2.8952

> <Gold.PLP.part.nonpolar>
-30.8396

> <Gold.PLP.part.repulsive>
0.4272

> <Gold.PLP.ligand.clash>
0.0000

> <Gold.PLP.ligand.torsion>
0.8031

> <Gold.PLP.Chemscore.Hbond>
2.7840

> <Gold.PLP.Chemscore.CHOScore>
1.9988

> <Gold.PLP.Chemscore.Metal>
0.0000

> <Gold.Chemscore.Hbonds>
donor molecule, donor type, donor heavy atom, donor atom, acceptor molecule, acceptor atom, score
      L1  H     9    41       P1  7948  2.00
      P1  H  7989  7998       L1    18  0.67
      L1  C     5    25       P1 10747  0.72
      L1  C     7    27       P1 10186  0.96

> <Gold.PLP.Chemscore.Internal.Correction>
0.0591

> <Gold.Rescore>
     Score         DG    S(hbond)    S(metal)    S(lipo)     H(rot)  DE(clash)    DE(int)     intcor
     14.75     -16.14       1.96        0.00      82.96       2.19       0.76       0.64       ----

> <Gold.Chemscore.Fitness>
14.7456

> <Gold.Chemscore.DG>
-16.1445

> <Gold.Chemscore.ZeroCoef>
-5.4800

> <Gold.Chemscore.Hbond>
1.9644

> <Gold.Chemscore.Metal>
0.0000

> <Gold.Chemscore.Lipo>
82.9559

> <Gold.Chemscore.Internal_Hbond>
0.0000

> <Gold.Chemscore.DEClash>
0.7556

> <Gold.Chemscore.DEInternal>
0.6434

> <Gold.Chemscore.Rot>
2.1884

> <Gold.Chemscore.Internal.Correction>
   9.000000E+99

> <Gold.Chemscore.Hbonds>
donor molecule, donor type, donor heavy atom, donor atom, acceptor molecule, acceptor atom, score
      L1  H     9    41       P1  7948  0.97
      P1  H  7989  7998       L1    18  0.15
      P1  H  8011  8017       L1    18  0.01

> <Gold.Chemscore.Hbond.Weighted>
-6.5609

> <Gold.Chemscore.Metal.Weighted>
-0.0000

> <Gold.Chemscore.Lipo.Weighted>
-9.7058

> <Gold.Chemscore.Internal_Hbond.Weighted>
0.0000

> <Gold.Chemscore.DEClash.Weighted>
0.7556

> <Gold.Chemscore.DEInternal.Weighted>
0.6434

> <Gold.Chemscore.Rot.Weighted>
5.6023

> <Gold.Chemscore.Internal.Correction.Weighted>
   9.000000E+99

> <Gold.Protein.RotatedTorsions>
[ 6907 6896 6895 6894 ] final -125.76 input  -60.11 | X-H torsion
[ 7974 7965 7964 7962 ] final  129.45 input  175.53 | X-H torsion
[ 8008 7997 7996 7995 ] final  118.74 input   59.86 | X-H torsion
[ 10167 10162 10161 10158 ] final  -51.05 input  -65.29 | X-H torsion
[ 10718 10713 10712 10709 ] final -146.78 input   66.30 | X-H torsion
[ 10763 10752 10751 10750 ] final  -98.77 input  -60.55 | X-H torsion
[ 11005 11000 10999 10996 ] final -116.81 input  -57.11 | X-H torsion

> <Gold.Protein.ActiveResidues>
 VAL166  LYS551  ARG553  GLY616  TRP617  ASP618  TYR619  PRO620  LYS621  CYS622 
 ASP623  PHE694  ASN695  SER759  ASP760  ASP761  ALA762  ILE779  LEU786  VAL792 
 PHE793  MET794  SER795  GLU796  ALA797  LYS798  CYS799  TRP800  GLU811  SER814 

> <Gold.Protein.RotatedAtoms>
  150.8900  133.7256  159.2907 H   0  0  0  0  0  0  0  0  0  0  0  0  # atno 6907 bound_to 6896
  151.4809  135.1050  159.9787 H   0  0  0  0  0  0  0  0  0  0  0  0  # atno 6908 bound_to 6896
  152.4814  133.8217  159.7112 H   0  0  0  0  0  0  0  0  0  0  0  0  # atno 6909 bound_to 6896
  145.0286  139.4067  143.5161 H   0  0  0  0  0  0  0  0  0  0  0  0  # atno 7974 bound_to 7965
  156.2561  140.2868  156.0882 H   0  0  0  0  0  0  0  0  0  0  0  0  # atno 8008 bound_to 7997
  155.1492  140.0397  157.2834 H   0  0  0  0  0  0  0  0  0  0  0  0  # atno 8009 bound_to 7997
  154.6473  140.2536  155.7260 H   0  0  0  0  0  0  0  0  0  0  0  0  # atno 8010 bound_to 7997
  140.6607  143.2634  151.4448 H   0  0  0  0  0  0  0  0  0  0  0  0  # atno 10167 bound_to 10162
  156.3992  130.7925  151.2134 H   0  0  0  0  0  0  0  0  0  0  0  0  # atno 10718 bound_to 10713
  154.7442  135.4997  153.9176 H   0  0  0  0  0  0  0  0  0  0  0  0  # atno 10763 bound_to 10752
  153.1075  135.6701  153.9568 H   0  0  0  0  0  0  0  0  0  0  0  0  # atno 10764 bound_to 10752
  153.9337  135.3075  155.3424 H   0  0  0  0  0  0  0  0  0  0  0  0  # atno 10765 bound_to 10752
  141.0397  133.9855  157.3014 H   0  0  0  0  0  0  0  0  0  0  0  0  # atno 11005 bound_to 11000
  146.3495  139.9823  142.8694 LP  0  0  0  0  0  0  0  0  0  0  0  0  # atno 17320 bound_to 7965
  145.1801  140.9763  143.4271 LP  0  0  0  0  0  0  0  0  0  0  0  0  # atno 17321 bound_to 7965
  139.5841  144.1644  152.2006 LP  0  0  0  0  0  0  0  0  0  0  0  0  # atno 17342 bound_to 10162
  140.0979  144.5565  150.7009 LP  0  0  0  0  0  0  0  0  0  0  0  0  # atno 17343 bound_to 10162
  157.7503  131.0292  150.4082 LP  0  0  0  0  0  0  0  0  0  0  0  0  # atno 17370 bound_to 10713
  156.4358  130.3981  149.6730 LP  0  0  0  0  0  0  0  0  0  0  0  0  # atno 17371 bound_to 10713
  139.9266  135.0201  156.8257 LP  0  0  0  0  0  0  0  0  0  0  0  0  # atno 17394 bound_to 11000
  140.6257  133.9952  155.7638 LP  0  0  0  0  0  0  0  0  0  0  0  0  # atno 17395 bound_to 11000

$$$$
