AV-unprocessed.smi:3123|AV-procd|sdf|11901|dock8
  -GOLD-   2272017283D 1   1.00000     0.00000
 Structure written by MMmdl.
 29 30  0  0  0  0  0  0  0  0  1 V2000
  148.8597  139.0552  153.4921 N   0  0  0  0  0  0  0  0  0  0  0  0
  148.9645  140.1654  154.4169 C   0  0  0  0  0  0  0  0  0  0  0  0
  150.1809  140.0533  155.3114 C   0  0  0  0  0  0  0  0  0  0  0  0
  151.1671  139.0775  155.0638 C   0  0  0  0  0  0  0  0  0  0  0  0
  152.2749  139.0110  155.9310 C   0  0  0  0  0  0  0  0  0  0  0  0
  152.4393  139.8345  156.9880 N   0  0  0  0  0  0  0  0  0  0  0  0
  151.4890  140.7708  157.2261 C   0  0  0  0  0  0  0  0  0  0  0  0
  151.6588  141.6305  158.3207 N   0  0  0  0  0  0  0  0  0  0  0  0
  152.7908  141.2766  159.1682 C   0  0  0  0  0  0  0  0  0  0  0  0
  152.8282  142.1911  160.4052 C   0  0  0  0  0  0  0  0  0  0  0  0
  152.8635  143.5547  159.9925 O   0  0  0  0  0  0  0  0  0  0  0  0
  151.7165  143.9113  159.2258 C   0  0  0  0  0  0  0  0  0  0  0  0
  151.6537  143.0424  157.9580 C   0  0  0  0  0  0  0  0  0  0  0  0
  150.3427  140.9138  156.4160 C   0  0  0  0  0  0  0  0  0  0  0  0
  147.8951  138.7668  153.4131 H   0  0  0  0  0  0  0  0  0  0  0  0
  149.1501  139.3551  152.5724 H   0  0  0  0  0  0  0  0  0  0  0  0
  149.0210  141.0950  153.8495 H   0  0  0  0  0  0  0  0  0  0  0  0
  148.0586  140.2155  155.0216 H   0  0  0  0  0  0  0  0  0  0  0  0
  151.0790  138.3960  154.2305 H   0  0  0  0  0  0  0  0  0  0  0  0
  153.0507  138.2768  155.7711 H   0  0  0  0  0  0  0  0  0  0  0  0
  152.7104  140.2333  159.4759 H   0  0  0  0  0  0  0  0  0  0  0  0
  153.7200  141.3774  158.6054 H   0  0  0  0  0  0  0  0  0  0  0  0
  151.9613  142.0164  161.0442 H   0  0  0  0  0  0  0  0  0  0  0  0
  153.7138  141.9782  161.0039 H   0  0  0  0  0  0  0  0  0  0  0  0
  150.8128  143.7907  159.8256 H   0  0  0  0  0  0  0  0  0  0  0  0
  151.7823  144.9655  158.9565 H   0  0  0  0  0  0  0  0  0  0  0  0
  152.5080  143.2634  157.3167 H   0  0  0  0  0  0  0  0  0  0  0  0
  150.7529  143.2743  157.3885 H   0  0  0  0  0  0  0  0  0  0  0  0
  149.6031  141.6699  156.6369 H   0  0  0  0  0  0  0  0  0  0  0  0
  1  2  1  0  0  0  0
  1 15  1  0  0  0  0
  1 16  1  0  0  0  0
  2  3  1  0  0  0  0
  2 17  1  0  0  0  0
  2 18  1  0  0  0  0
  3 14  1  0  0  0  0
  3  4  2  0  0  0  0
  4  5  1  0  0  0  0
  4 19  1  0  0  0  0
  5  6  2  0  0  0  0
  5 20  1  0  0  0  0
  6  7  1  0  0  0  0
  7  8  1  0  0  0  0
  7 14  2  0  0  0  0
  8 13  1  0  0  0  0
  8  9  1  0  0  0  0
  9 10  1  0  0  0  0
  9 21  1  0  0  0  0
  9 22  1  0  0  0  0
 10 11  1  0  0  0  0
 10 23  1  0  0  0  0
 10 24  1  0  0  0  0
 11 12  1  0  0  0  0
 12 13  1  0  0  0  0
 12 25  1  0  0  0  0
 12 26  1  0  0  0  0
 13 27  1  0  0  0  0
 13 28  1  0  0  0  0
 14 29  1  0  0  0  0
M  END
> <s_m_source_file>
AV-unprocessed.smi

> <i_m_source_file_index>
3123

> <i_lp_mmshare_version>
43012

> <i_f3d_flags>
0

> <s_epik_input>
W05IMl1bQ0gyXWMxW2NIXVtjSF1uYyhbY0hdMSlOMltDSDJdW0NIMl1PW0NIMl1bQ0gyXTI=

> <s_epik_cmdline>
J2VwaWtfcHl0aG9uJywgJy1waCcsICc3LjAnLCAnLXRuJywgJzgnLCAnLW1hJywgJzIwMCcsICctbWV0YWxfYmluZGluZycsICctaW1hZScsICc8aW5maWxlLm1hZT4nLCAnLW9tYWUnLCAnPG91dGZpbGUubWFlPic=

> <r_lp_tautomer_probability>
1

> <r_epik_Ionization_Penalty>
1.26929

> <r_epik_Ionization_Penalty_Charging>
0

> <r_epik_Ionization_Penalty_Neutral>
1.26929

> <r_epik_State_Penalty>
2.46732

> <r_epik_Charging_Adjusted_Penalty>
2.46732

> <i_epik_Tot_Q>
0

> <i_epik_Tot_abs_Q>
0

> <r_epik_Metal_State_Penalty>
2.44539

> <b_epik_Metal_Only>
0

> <s_lp_Force_Field>
OPLS_2005

> <r_lp_Energy>
17.6888

> <b_lp_Chiralities_Consistent>
1

> <s_lp_Variant>
AV-unprocessed.smi:3123-2

> <Gold.Version>
5.8.1

> <Gold.Id.Protein>
6NUR|6NUR_protein|mol2

> <Gold.PLP.Fitness>
36.5493

> <Gold.PLP.PLP>
-30.7528

> <Gold.PLP.part.hbond>
-2.3147

> <Gold.PLP.part.metal>
0.0000

> <Gold.PLP.part.buried>
-3.9870

> <Gold.PLP.part.nonpolar>
-24.5021

> <Gold.PLP.part.repulsive>
0.0034

> <Gold.PLP.ligand.clash>
0.0000

> <Gold.PLP.ligand.torsion>
0.1534

> <Gold.PLP.Chemscore.Hbond>
2.0000

> <Gold.PLP.Chemscore.CHOScore>
0.0000

> <Gold.PLP.Chemscore.Metal>
0.0000

> <Gold.Chemscore.Hbonds>
donor molecule, donor type, donor heavy atom, donor atom, acceptor molecule, acceptor atom, score
      L1  H     1    16       P1  7957  1.00
      P1  H  7997  8008       L1     6  0.65

> <Gold.PLP.Chemscore.Internal.Correction>
0.1035

> <Gold.Rescore>
     Score         DG    S(hbond)    S(metal)    S(lipo)     H(rot)  DE(clash)    DE(int)     intcor
     16.37     -16.78       1.63        0.00      78.32       1.29       0.22       0.19       ----

> <Gold.Chemscore.Fitness>
16.3702

> <Gold.Chemscore.DG>
-16.7773

> <Gold.Chemscore.ZeroCoef>
-5.4800

> <Gold.Chemscore.Hbond>
1.6256

> <Gold.Chemscore.Metal>
0.0000

> <Gold.Chemscore.Lipo>
78.3248

> <Gold.Chemscore.Internal_Hbond>
0.0000

> <Gold.Chemscore.DEClash>
0.2190

> <Gold.Chemscore.DEInternal>
0.1881

> <Gold.Chemscore.Rot>
1.2875

> <Gold.Chemscore.Internal.Correction>
   9.000000E+99

> <Gold.Chemscore.Hbonds>
donor molecule, donor type, donor heavy atom, donor atom, acceptor molecule, acceptor atom, score
      L1  H     1    16       P1  7957  0.99
      P1  H  7997  8008       L1     6  0.05

> <Gold.Chemscore.Hbond.Weighted>
-5.4294

> <Gold.Chemscore.Metal.Weighted>
-0.0000

> <Gold.Chemscore.Lipo.Weighted>
-9.1640

> <Gold.Chemscore.Internal_Hbond.Weighted>
0.0000

> <Gold.Chemscore.DEClash.Weighted>
0.2190

> <Gold.Chemscore.DEInternal.Weighted>
0.1881

> <Gold.Chemscore.Rot.Weighted>
3.2961

> <Gold.Chemscore.Internal.Correction.Weighted>
   9.000000E+99

> <Gold.Protein.RotatedTorsions>
[ 6907 6896 6895 6894 ] final  127.20 input  -60.11 | X-H torsion
[ 7974 7965 7964 7962 ] final  -62.20 input  175.53 | X-H torsion
[ 8008 7997 7996 7995 ] final  -57.56 input   59.86 | X-H torsion
[ 10167 10162 10161 10158 ] final -121.24 input  -65.29 | X-H torsion
[ 10718 10713 10712 10709 ] final -132.32 input   66.30 | X-H torsion
[ 10763 10752 10751 10750 ] final  138.12 input  -60.55 | X-H torsion
[ 11005 11000 10999 10996 ] final   87.71 input  -57.11 | X-H torsion

> <Gold.Protein.ActiveResidues>
 VAL166  LYS551  ARG553  GLY616  TRP617  ASP618  TYR619  PRO620  LYS621  CYS622 
 ASP623  PHE694  ASN695  SER759  ASP760  ASP761  ALA762  ILE779  LEU786  VAL792 
 PHE793  MET794  SER795  GLU796  ALA797  LYS798  CYS799  TRP800  GLU811  SER814 

> <Gold.Protein.RotatedAtoms>
  152.3834  133.6577  159.6179 H   0  0  0  0  0  0  0  0  0  0  0  0  # atno 6907 bound_to 6896
  150.7759  133.9076  159.3368 H   0  0  0  0  0  0  0  0  0  0  0  0  # atno 6908 bound_to 6896
  151.6877  135.0953  160.0279 H   0  0  0  0  0  0  0  0  0  0  0  0  # atno 6909 bound_to 6896
  145.7942  140.8692  143.0265 H   0  0  0  0  0  0  0  0  0  0  0  0  # atno 7974 bound_to 7965
  154.4273  140.1104  156.5818 H   0  0  0  0  0  0  0  0  0  0  0  0  # atno 8008 bound_to 7997
  155.6105  140.3494  155.4602 H   0  0  0  0  0  0  0  0  0  0  0  0  # atno 8009 bound_to 7997
  156.0103  140.1218  157.0450 H   0  0  0  0  0  0  0  0  0  0  0  0  # atno 8010 bound_to 7997
  140.0272  143.5284  152.2193 H   0  0  0  0  0  0  0  0  0  0  0  0  # atno 10167 bound_to 10162
  156.2334  130.7051  151.0882 H   0  0  0  0  0  0  0  0  0  0  0  0  # atno 10718 bound_to 10713
  153.8843  135.3040  155.3446 H   0  0  0  0  0  0  0  0  0  0  0  0  # atno 10763 bound_to 10752
  154.7746  135.4868  153.9722 H   0  0  0  0  0  0  0  0  0  0  0  0  # atno 10764 bound_to 10752
  153.1333  135.6808  153.9240 H   0  0  0  0  0  0  0  0  0  0  0  0  # atno 10765 bound_to 10752
  139.8913  134.8440  156.2898 H   0  0  0  0  0  0  0  0  0  0  0  0  # atno 11005 bound_to 11000
  144.6777  140.0167  143.7484 LP  0  0  0  0  0  0  0  0  0  0  0  0  # atno 17320 bound_to 7965
  145.9945  139.3041  143.0965 LP  0  0  0  0  0  0  0  0  0  0  0  0  # atno 17321 bound_to 7965
  139.6100  144.7606  151.2974 LP  0  0  0  0  0  0  0  0  0  0  0  0  # atno 17342 bound_to 10162
  140.7317  143.6843  150.7975 LP  0  0  0  0  0  0  0  0  0  0  0  0  # atno 17343 bound_to 10162
  157.7143  131.0718  150.6385 LP  0  0  0  0  0  0  0  0  0  0  0  0  # atno 17370 bound_to 10713
  156.6454  130.4470  149.5738 LP  0  0  0  0  0  0  0  0  0  0  0  0  # atno 17371 bound_to 10713
  140.9984  133.7166  156.0921 LP  0  0  0  0  0  0  0  0  0  0  0  0  # atno 17394 bound_to 11000
  140.7531  134.4022  157.5538 LP  0  0  0  0  0  0  0  0  0  0  0  0  # atno 17395 bound_to 11000

$$$$
