AV-unprocessed.smi:703|AV-procd|sdf|3435|dock3
  -GOLD-   22720 0423D 1   1.00000     0.00000
 Structure written by MMmdl.
 37 38  0  0  0  0  0  0  0  0  3 V2000
  146.9319  133.0392  151.9429 C   0  0  0  0  0  0  0  0  0  0  0  0
  146.5531  133.9640  153.1072 C   0  0  0  0  0  0  0  0  0  0  0  0
  147.7455  134.5499  153.7658 N   0  3  2  0  0  0  0  0  0  0  0  0
  148.7493  133.5670  154.2404 C   0  0  0  0  0  0  0  0  0  0  0  0
  149.4306  134.2156  155.4545 C   0  0  1  0  0  0  0  0  0  0  0  0
  150.6412  135.0743  155.0117 C   0  0  0  0  0  0  0  0  0  0  0  0
  148.2526  134.9777  156.0944 C   0  0  1  0  0  0  0  0  0  0  0  0
  148.6795  136.0576  156.9718 N   0  5  0  0  0  0  0  0  0  0  0  0
  149.0300  135.7478  158.5257 S   0  0  0  0  0  0  0  0  0  0  0  0
  149.0752  134.3058  158.8198 O   0  0  0  0  0  0  0  0  0  0  0  0
  150.1522  136.5669  159.0105 O   0  0  0  0  0  0  0  0  0  0  0  0
  147.5202  136.4077  159.3589 C   0  0  0  0  0  0  0  0  0  0  0  0
  147.5325  136.0574  160.8222 C   0  0  0  0  0  0  0  0  0  0  0  0
  147.4477  134.7708  161.4241 C   0  0  0  0  0  0  0  0  0  0  0  0
  147.5095  135.0386  162.7609 C   0  0  0  0  0  0  0  0  0  0  0  0
  147.6138  136.3744  162.9735 O   0  0  0  0  0  0  0  0  0  0  0  0
  147.6238  137.0168  161.7302 N   0  0  0  0  0  0  0  0  0  0  0  0
  147.4372  135.4681  154.8885 C   0  0  0  0  0  0  0  0  0  0  0  0
  146.0385  132.6624  151.4443 H   0  0  0  0  0  0  0  0  0  0  0  0
  147.5052  132.1768  152.2834 H   0  0  0  0  0  0  0  0  0  0  0  0
  147.5282  133.5681  151.1989 H   0  0  0  0  0  0  0  0  0  0  0  0
  145.9343  134.7743  152.7198 H   0  0  0  0  0  0  0  0  0  0  0  0
  145.9476  133.4290  153.8402 H   0  0  0  0  0  0  0  0  0  0  0  0
  148.2566  132.6354  154.5328 H   0  0  0  0  0  0  0  0  0  0  0  0
  149.4547  133.3141  153.4476 H   0  0  0  0  0  0  0  0  0  0  0  0
  149.7950  133.4460  156.1365 H   0  0  0  0  0  0  0  0  0  0  0  0
  150.3601  135.8766  154.3269 H   0  0  0  0  0  0  0  0  0  0  0  0
  151.3780  134.4570  154.4972 H   0  0  0  0  0  0  0  0  0  0  0  0
  151.1549  135.5257  155.8622 H   0  0  0  0  0  0  0  0  0  0  0  0
  147.6471  134.2450  156.6302 H   0  0  0  0  0  0  0  0  0  0  0  0
  147.5136  137.4890  159.2206 H   0  0  0  0  0  0  0  0  0  0  0  0
  146.6392  136.0096  158.8561 H   0  0  0  0  0  0  0  0  0  0  0  0
  147.3632  133.8056  160.9472 H   0  0  0  0  0  0  0  0  0  0  0  0
  147.4912  134.4174  163.6440 H   0  0  0  0  0  0  0  0  0  0  0  0
  147.7363  136.4729  154.5855 H   0  0  0  0  0  0  0  0  0  0  0  0
  146.3723  135.5008  155.1238 H   0  0  0  0  0  0  0  0  0  0  0  0
  148.2105  135.1228  153.0762 H   0  0  0  0  0  0  0  0  0  0  0  0
  1  2  1  0  0  0  0
  1 19  1  0  0  0  0
  1 20  1  0  0  0  0
  1 21  1  0  0  0  0
  2  3  1  0  0  0  0
  2 22  1  0  0  0  0
  2 23  1  0  0  0  0
  3 18  1  0  0  0  0
  3  4  1  0  0  0  0
  3 37  1  0  0  0  0
  4  5  1  0  0  0  0
  4 24  1  0  0  0  0
  4 25  1  0  0  0  0
  5  6  1  0  0  0  0
  5  7  1  0  0  0  0
  5 26  1  0  0  0  0
  6 27  1  0  0  0  0
  6 28  1  0  0  0  0
  6 29  1  0  0  0  0
  7  8  1  0  0  0  0
  7 18  1  0  0  0  0
  7 30  1  0  0  0  0
  8  9  1  0  0  0  0
  9 10  2  0  0  0  0
  9 11  2  0  0  0  0
  9 12  1  0  0  0  0
 12 13  1  0  0  0  0
 12 31  1  0  0  0  0
 12 32  1  0  0  0  0
 13 17  2  0  0  0  0
 13 14  1  0  0  0  0
 14 15  2  0  0  0  0
 14 33  1  0  0  0  0
 15 16  1  0  0  0  0
 15 34  1  0  0  0  0
 16 17  1  0  0  0  0
 18 35  1  0  0  0  0
 18 36  1  0  0  0  0
M  CHG  1   3   1
M  CHG  1   8  -1
M  END
> <s_m_source_file>
AV-unprocessed.smi

> <i_m_source_file_index>
703

> <i_lp_mmshare_version>
43012

> <i_f3d_flags>
0

> <s_epik_input>
W0NIM11bQ0gyXU4xW0NIMl1bQ0BASF0oW0NIM10pW0NASF0oW0NIMl0xKVtOSF1TKD1PKSg9TylbQ0gyXWMyW2NIXVtjSF1vbjI=

> <s_epik_cmdline>
J2VwaWtfcHl0aG9uJywgJy1waCcsICc3LjAnLCAnLXRuJywgJzgnLCAnLW1hJywgJzIwMCcsICctbWV0YWxfYmluZGluZycsICctaW1hZScsICc8aW5maWxlLm1hZT4nLCAnLW9tYWUnLCAnPG91dGZpbGUubWFlPic=

> <r_epik_Ionization_Penalty>
3.62494

> <r_epik_Ionization_Penalty_Charging>
3.62494

> <r_epik_Ionization_Penalty_Neutral>
2.0321e-10

> <r_epik_State_Penalty>
3.62558

> <r_epik_Charging_Adjusted_Penalty>
7.25052

> <i_epik_Tot_Q>
0

> <i_epik_Tot_abs_Q>
2

> <r_epik_Metal_State_Penalty>
0.530836

> <b_epik_Metal_Only>
1

> <s_lp_Force_Field>
OPLS_2005

> <r_lp_Energy>
19.7921

> <b_lp_Chiralities_Consistent>
1

> <s_lp_Variant>
AV-unprocessed.smi:703-10

> <Gold.Version>
5.8.1

> <Gold.Id.Protein>
6NUR|6NUR_protein|mol2

> <Gold.PLP.Fitness>
41.0040

> <Gold.PLP.PLP>
-27.6224

> <Gold.PLP.part.hbond>
-5.0000

> <Gold.PLP.part.metal>
0.0000

> <Gold.PLP.part.buried>
-4.4243

> <Gold.PLP.part.nonpolar>
-18.6887

> <Gold.PLP.part.repulsive>
0.0047

> <Gold.PLP.ligand.clash>
0.0000

> <Gold.PLP.ligand.torsion>
0.9803

> <Gold.PLP.Chemscore.Hbond>
4.7760

> <Gold.PLP.Chemscore.CHOScore>
0.0000

> <Gold.PLP.Chemscore.Metal>
0.0000

> <Gold.Chemscore.Hbonds>
donor molecule, donor type, donor heavy atom, donor atom, acceptor molecule, acceptor atom, score
      L1  H     3    37       P1  7948  2.00
      P1  H  6896  6907       L1    10  0.95
      P1  H  6931  6943       L1    17  1.00
      P1  H  6934  6947       L1    17  0.45

> <Gold.PLP.Chemscore.Internal.Correction>
1.0142

> <Gold.Rescore>
     Score         DG    S(hbond)    S(metal)    S(lipo)     H(rot)  DE(clash)    DE(int)     intcor
     16.55     -17.52       2.93        0.00      54.91       1.63       0.02       0.95       ----

> <Gold.Chemscore.Fitness>
16.5508

> <Gold.Chemscore.DG>
-17.5198

> <Gold.Chemscore.ZeroCoef>
-5.4800

> <Gold.Chemscore.Hbond>
2.9337

> <Gold.Chemscore.Metal>
0.0000

> <Gold.Chemscore.Lipo>
54.9051

> <Gold.Chemscore.Internal_Hbond>
0.0000

> <Gold.Chemscore.DEClash>
0.0208

> <Gold.Chemscore.DEInternal>
0.9481

> <Gold.Chemscore.Rot>
1.6338

> <Gold.Chemscore.Internal.Correction>
   9.000000E+99

> <Gold.Chemscore.Hbonds>
donor molecule, donor type, donor heavy atom, donor atom, acceptor molecule, acceptor atom, score
      L1  H     3    37       P1  7948  0.96
      P1  H  6896  6907       L1    10  0.22
      P1  H  6931  6943       L1    17  0.39
      P1  H  6934  6947       L1    17  0.39

> <Gold.Chemscore.Hbond.Weighted>
-9.7984

> <Gold.Chemscore.Metal.Weighted>
-0.0000

> <Gold.Chemscore.Lipo.Weighted>
-6.4239

> <Gold.Chemscore.Internal_Hbond.Weighted>
0.0000

> <Gold.Chemscore.DEClash.Weighted>
0.0208

> <Gold.Chemscore.DEInternal.Weighted>
0.9481

> <Gold.Chemscore.Rot.Weighted>
4.1825

> <Gold.Chemscore.Internal.Correction.Weighted>
   9.000000E+99

> <Gold.Protein.RotatedTorsions>
[ 6907 6896 6895 6894 ] final  -93.14 input  -60.11 | X-H torsion
[ 7974 7965 7964 7962 ] final   -6.88 input  175.53 | X-H torsion
[ 8008 7997 7996 7995 ] final    7.75 input   59.86 | X-H torsion
[ 10167 10162 10161 10158 ] final  170.81 input  -65.29 | X-H torsion
[ 10718 10713 10712 10709 ] final  -94.14 input   66.30 | X-H torsion
[ 10763 10752 10751 10750 ] final  -94.76 input  -60.55 | X-H torsion
[ 11005 11000 10999 10996 ] final    8.06 input  -57.11 | X-H torsion

> <Gold.Protein.ActiveResidues>
 VAL166  LYS551  ARG553  GLY616  TRP617  ASP618  TYR619  PRO620  LYS621  CYS622 
 ASP623  PHE694  ASN695  SER759  ASP760  ASP761  ALA762  ILE779  LEU786  VAL792 
 PHE793  MET794  SER795  GLU796  ALA797  LYS798  CYS799  TRP800  GLU811  SER814 

> <Gold.Protein.RotatedAtoms>
  150.6917  134.2013  159.4322 H   0  0  0  0  0  0  0  0  0  0  0  0  # atno 6907 bound_to 6896
  151.9979  134.9942  160.0573 H   0  0  0  0  0  0  0  0  0  0  0  0  # atno 6908 bound_to 6896
  152.1606  133.4544  159.4896 H   0  0  0  0  0  0  0  0  0  0  0  0  # atno 6909 bound_to 6896
  146.2320  140.2236  142.8338 H   0  0  0  0  0  0  0  0  0  0  0  0  # atno 7974 bound_to 7965
  154.7579  140.2779  155.6238 H   0  0  0  0  0  0  0  0  0  0  0  0  # atno 8008 bound_to 7997
  156.2909  140.2665  156.2277 H   0  0  0  0  0  0  0  0  0  0  0  0  # atno 8009 bound_to 7997
  155.0054  140.0372  157.2367 H   0  0  0  0  0  0  0  0  0  0  0  0  # atno 8010 bound_to 7997
  139.5029  144.3555  151.9878 H   0  0  0  0  0  0  0  0  0  0  0  0  # atno 10167 bound_to 10162
  156.0023  130.5055  150.5882 H   0  0  0  0  0  0  0  0  0  0  0  0  # atno 10718 bound_to 10713
  154.7085  135.5145  153.8631 H   0  0  0  0  0  0  0  0  0  0  0  0  # atno 10763 bound_to 10752
  153.0761  135.6617  154.0151 H   0  0  0  0  0  0  0  0  0  0  0  0  # atno 10764 bound_to 10752
  153.9998  135.3012  155.3383 H   0  0  0  0  0  0  0  0  0  0  0  0  # atno 10765 bound_to 10752
  140.5413  134.0372  155.7905 H   0  0  0  0  0  0  0  0  0  0  0  0  # atno 11005 bound_to 11000
  144.9613  140.8277  143.5512 LP  0  0  0  0  0  0  0  0  0  0  0  0  # atno 17320 bound_to 7965
  145.2207  139.2160  143.5094 LP  0  0  0  0  0  0  0  0  0  0  0  0  # atno 17321 bound_to 7965
  140.2992  144.3666  150.6065 LP  0  0  0  0  0  0  0  0  0  0  0  0  # atno 17342 bound_to 10162
  140.5886  143.2169  151.7294 LP  0  0  0  0  0  0  0  0  0  0  0  0  # atno 17343 bound_to 10162
  157.3751  131.0772  151.1525 LP  0  0  0  0  0  0  0  0  0  0  0  0  # atno 17370 bound_to 10713
  157.2266  130.6505  149.5832 LP  0  0  0  0  0  0  0  0  0  0  0  0  # atno 17371 bound_to 10713
  141.1225  133.9437  157.2700 LP  0  0  0  0  0  0  0  0  0  0  0  0  # atno 17394 bound_to 11000
  139.9502  135.0177  156.8973 LP  0  0  0  0  0  0  0  0  0  0  0  0  # atno 17395 bound_to 11000

$$$$
