AV-unprocessed.smi:619|AV-procd|sdf|3086|dock3
  -GOLD-   22720 0 13D 1   1.00000     0.00000
 Structure written by MMmdl.
 37 38  0  0  0  0  0  0  0  0  1 V2000
  145.8008  143.3402  153.7178 C   0  0  0  0  0  0  0  0  0  0  0  0
  147.1658  143.0035  153.9414 O   0  0  0  0  0  0  0  0  0  0  0  0
  147.5330  141.6719  153.8967 C   0  0  0  0  0  0  0  0  0  0  0  0
  146.8337  140.8364  153.0880 N   0  0  0  0  0  0  0  0  0  0  0  0
  147.1871  139.5353  153.0473 C   0  0  0  0  0  0  0  0  0  0  0  0
  148.2421  138.9997  153.8084 C   0  0  0  0  0  0  0  0  0  0  0  0
  148.9691  139.8640  154.6477 C   0  0  0  0  0  0  0  0  0  0  0  0
  148.6202  141.2358  154.6895 C   0  0  0  0  0  0  0  0  0  0  0  0
  149.2743  142.1897  155.5175 N   0  0  0  0  0  0  0  0  0  0  0  0
  150.2784  141.9940  156.3888 C   0  0  0  0  0  0  0  0  0  0  0  0
  150.8375  140.9176  156.5980 O   0  0  0  0  0  0  0  0  0  0  0  0
  150.6153  143.1397  156.9985 N   0  0  0  0  0  0  0  0  0  0  0  0
  151.6667  143.3023  157.9992 C   0  0  0  0  0  0  0  0  0  0  0  0
  151.6740  142.0853  158.9439 C   0  0  0  0  0  0  0  0  0  0  0  0
  152.7094  142.2531  160.0675 C   0  0  0  0  0  0  0  0  0  0  0  0
  152.4739  143.5539  160.8508 C   0  0  0  0  0  0  0  0  0  0  0  0
  152.4735  144.7722  159.9141 C   0  0  0  0  0  0  0  0  0  0  0  0
  151.4431  144.6093  158.7844 C   0  0  0  0  0  0  0  0  0  0  0  0
  145.6816  144.4215  153.7826 H   0  0  0  0  0  0  0  0  0  0  0  0
  145.1505  142.8902  154.4693 H   0  0  0  0  0  0  0  0  0  0  0  0
  145.4701  143.0305  152.7254 H   0  0  0  0  0  0  0  0  0  0  0  0
  146.6069  138.9009  152.3937 H   0  0  0  0  0  0  0  0  0  0  0  0
  148.4846  137.9488  153.7539 H   0  0  0  0  0  0  0  0  0  0  0  0
  149.7652  139.4565  155.2514 H   0  0  0  0  0  0  0  0  0  0  0  0
  148.9810  143.1466  155.3852 H   0  0  0  0  0  0  0  0  0  0  0  0
  150.1012  143.9722  156.7504 H   0  0  0  0  0  0  0  0  0  0  0  0
  152.6445  143.3584  157.5173 H   0  0  0  0  0  0  0  0  0  0  0  0
  150.6843  141.9508  159.3832 H   0  0  0  0  0  0  0  0  0  0  0  0
  151.8879  141.1763  158.3806 H   0  0  0  0  0  0  0  0  0  0  0  0
  152.6664  141.3986  160.7431 H   0  0  0  0  0  0  0  0  0  0  0  0
  153.7132  142.2599  159.6410 H   0  0  0  0  0  0  0  0  0  0  0  0
  151.5200  143.4964  161.3768 H   0  0  0  0  0  0  0  0  0  0  0  0
  153.2418  143.6723  161.6158 H   0  0  0  0  0  0  0  0  0  0  0  0
  152.2608  145.6780  160.4824 H   0  0  0  0  0  0  0  0  0  0  0  0
  153.4675  144.9027  159.4846 H   0  0  0  0  0  0  0  0  0  0  0  0
  151.5000  145.4645  158.1099 H   0  0  0  0  0  0  0  0  0  0  0  0
  150.4387  144.6179  159.2102 H   0  0  0  0  0  0  0  0  0  0  0  0
  1  2  1  0  0  0  0
  1 19  1  0  0  0  0
  1 20  1  0  0  0  0
  1 21  1  0  0  0  0
  2  3  1  0  0  0  0
  3  8  1  0  0  0  0
  3  4  2  0  0  0  0
  4  5  1  0  0  0  0
  5  6  2  0  0  0  0
  5 22  1  0  0  0  0
  6  7  1  0  0  0  0
  6 23  1  0  0  0  0
  7  8  2  0  0  0  0
  7 24  1  0  0  0  0
  8  9  1  0  0  0  0
  9 10  1  0  0  0  0
  9 25  1  0  0  0  0
 10 11  2  0  0  0  0
 10 12  1  0  0  0  0
 12 13  1  0  0  0  0
 12 26  1  0  0  0  0
 13 18  1  0  0  0  0
 13 14  1  0  0  0  0
 13 27  1  0  0  0  0
 14 15  1  0  0  0  0
 14 28  1  0  0  0  0
 14 29  1  0  0  0  0
 15 16  1  0  0  0  0
 15 30  1  0  0  0  0
 15 31  1  0  0  0  0
 16 17  1  0  0  0  0
 16 32  1  0  0  0  0
 16 33  1  0  0  0  0
 17 18  1  0  0  0  0
 17 34  1  0  0  0  0
 17 35  1  0  0  0  0
 18 36  1  0  0  0  0
 18 37  1  0  0  0  0
M  END
> <s_m_source_file>
AV-unprocessed.smi

> <i_m_source_file_index>
619

> <i_lp_mmshare_version>
43012

> <i_f3d_flags>
0

> <s_epik_input>
W0NIM11PYzFuW2NIXVtjSF1bY0hdYzFbTkhdQyg9TylbTkhdW0NIXTJbQ0gyXVtDSDJdW0NIMl1bQ0gyXVtDSDJdMg==

> <s_epik_cmdline>
J2VwaWtfcHl0aG9uJywgJy1waCcsICc3LjAnLCAnLXRuJywgJzgnLCAnLW1hJywgJzIwMCcsICctbWV0YWxfYmluZGluZycsICctaW1hZScsICc8aW5maWxlLm1hZT4nLCAnLW9tYWUnLCAnPG91dGZpbGUubWFlPic=

> <r_lp_tautomer_probability>
1

> <r_epik_Ionization_Penalty>
9.99348e-05

> <r_epik_Ionization_Penalty_Charging>
0

> <r_epik_Ionization_Penalty_Neutral>
9.99348e-05

> <r_epik_State_Penalty>
-0

> <r_epik_Charging_Adjusted_Penalty>
0

> <i_epik_Tot_Q>
0

> <i_epik_Tot_abs_Q>
0

> <r_epik_Metal_State_Penalty>
-0

> <b_epik_Metal_Only>
0

> <s_lp_Force_Field>
OPLS_2005

> <r_lp_Energy>
11.7457

> <b_lp_Chiralities_Consistent>
1

> <s_lp_Variant>
AV-unprocessed.smi:619-1

> <Gold.Version>
5.8.1

> <Gold.Id.Protein>
6NUR|6NUR_protein|mol2

> <Gold.PLP.Fitness>
44.4792

> <Gold.PLP.PLP>
-39.4923

> <Gold.PLP.part.hbond>
-2.9853

> <Gold.PLP.part.metal>
0.0000

> <Gold.PLP.part.buried>
-4.1088

> <Gold.PLP.part.nonpolar>
-33.6934

> <Gold.PLP.part.repulsive>
1.8164

> <Gold.PLP.ligand.clash>
0.0000

> <Gold.PLP.ligand.torsion>
0.6540

> <Gold.PLP.Chemscore.Hbond>
2.0973

> <Gold.PLP.Chemscore.CHOScore>
0.0000

> <Gold.PLP.Chemscore.Metal>
0.0000

> <Gold.Chemscore.Hbonds>
donor molecule, donor type, donor heavy atom, donor atom, acceptor molecule, acceptor atom, score
      L1  H     9    25       P1  8028  1.00
      L1  H    12    26       P1  8028  0.96
      P1  H  8022  8030       L1     2  0.21

> <Gold.PLP.Chemscore.Internal.Correction>
0.0030

> <Gold.Rescore>
     Score         DG    S(hbond)    S(metal)    S(lipo)     H(rot)  DE(clash)    DE(int)     intcor
     16.59     -20.38       1.96        0.00      98.17       1.23       0.40       3.39       ----

> <Gold.Chemscore.Fitness>
16.5890

> <Gold.Chemscore.DG>
-20.3842

> <Gold.Chemscore.ZeroCoef>
-5.4800

> <Gold.Chemscore.Hbond>
1.9622

> <Gold.Chemscore.Metal>
0.0000

> <Gold.Chemscore.Lipo>
98.1735

> <Gold.Chemscore.Internal_Hbond>
0.0000

> <Gold.Chemscore.DEClash>
0.4022

> <Gold.Chemscore.DEInternal>
3.3929

> <Gold.Chemscore.Rot>
1.2250

> <Gold.Chemscore.Internal.Correction>
   9.000000E+99

> <Gold.Chemscore.Hbonds>
donor molecule, donor type, donor heavy atom, donor atom, acceptor molecule, acceptor atom, score
      L1  H     9    25       P1  8028  0.98
      L1  H    12    26       P1  8028  0.92
      P1  H  8022  8030       L1     2  0.18

> <Gold.Chemscore.Hbond.Weighted>
-6.5539

> <Gold.Chemscore.Metal.Weighted>
-0.0000

> <Gold.Chemscore.Lipo.Weighted>
-11.4863

> <Gold.Chemscore.Internal_Hbond.Weighted>
0.0000

> <Gold.Chemscore.DEClash.Weighted>
0.4022

> <Gold.Chemscore.DEInternal.Weighted>
3.3929

> <Gold.Chemscore.Rot.Weighted>
3.1360

> <Gold.Chemscore.Internal.Correction.Weighted>
   9.000000E+99

> <Gold.Protein.RotatedTorsions>
[ 6907 6896 6895 6894 ] final   82.22 input  -60.11 | X-H torsion
[ 7974 7965 7964 7962 ] final  168.31 input  175.53 | X-H torsion
[ 8008 7997 7996 7995 ] final  133.69 input   59.86 | X-H torsion
[ 10167 10162 10161 10158 ] final -152.00 input  -65.29 | X-H torsion
[ 10718 10713 10712 10709 ] final  -48.65 input   66.30 | X-H torsion
[ 10763 10752 10751 10750 ] final  -55.95 input  -60.55 | X-H torsion
[ 11005 11000 10999 10996 ] final  145.13 input  -57.11 | X-H torsion

> <Gold.Protein.ActiveResidues>
 VAL166  LYS551  ARG553  GLY616  TRP617  ASP618  TYR619  PRO620  LYS621  CYS622 
 ASP623  PHE694  ASN695  SER759  ASP760  ASP761  ALA762  ILE779  LEU786  VAL792 
 PHE793  MET794  SER795  GLU796  ALA797  LYS798  CYS799  TRP800  GLU811  SER814 

> <Gold.Protein.RotatedAtoms>
  152.5292  134.3083  159.9103 H   0  0  0  0  0  0  0  0  0  0  0  0  # atno 6907 bound_to 6896
  151.3033  133.4106  159.2649 H   0  0  0  0  0  0  0  0  0  0  0  0  # atno 6908 bound_to 6896
  151.0100  134.9406  159.8059 H   0  0  0  0  0  0  0  0  0  0  0  0  # atno 6909 bound_to 6896
  144.7393  139.8889  143.6401 H   0  0  0  0  0  0  0  0  0  0  0  0  # atno 7974 bound_to 7965
  156.2994  140.2515  156.3295 H   0  0  0  0  0  0  0  0  0  0  0  0  # atno 8008 bound_to 7997
  154.9159  140.0402  157.1990 H   0  0  0  0  0  0  0  0  0  0  0  0  # atno 8009 bound_to 7997
  154.8359  140.2883  155.5695 H   0  0  0  0  0  0  0  0  0  0  0  0  # atno 8010 bound_to 7997
  139.7219  143.8944  152.2506 H   0  0  0  0  0  0  0  0  0  0  0  0  # atno 10167 bound_to 10162
  156.1968  130.4154  149.9295 H   0  0  0  0  0  0  0  0  0  0  0  0  # atno 10718 bound_to 10713
  154.1990  135.6414  153.5081 H   0  0  0  0  0  0  0  0  0  0  0  0  # atno 10763 bound_to 10752
  153.0016  135.5447  154.6335 H   0  0  0  0  0  0  0  0  0  0  0  0  # atno 10764 bound_to 10752
  154.5744  135.2919  155.0769 H   0  0  0  0  0  0  0  0  0  0  0  0  # atno 10765 bound_to 10752
  140.0687  134.9164  157.1309 H   0  0  0  0  0  0  0  0  0  0  0  0  # atno 11005 bound_to 11000
  146.1156  139.4167  143.0260 LP  0  0  0  0  0  0  0  0  0  0  0  0  # atno 17320 bound_to 7965
  145.7379  141.0019  143.1317 LP  0  0  0  0  0  0  0  0  0  0  0  0  # atno 17321 bound_to 7965
  139.8842  144.7001  150.8843 LP  0  0  0  0  0  0  0  0  0  0  0  0  # atno 17342 bound_to 10162
  140.7755  143.3637  151.1780 LP  0  0  0  0  0  0  0  0  0  0  0  0  # atno 17343 bound_to 10162
  156.7018  130.8936  151.3600 LP  0  0  0  0  0  0  0  0  0  0  0  0  # atno 17370 bound_to 10713
  157.6962  130.9284  150.0652 LP  0  0  0  0  0  0  0  0  0  0  0  0  # atno 17371 bound_to 10713
  140.3659  134.2443  155.7182 LP  0  0  0  0  0  0  0  0  0  0  0  0  # atno 17394 bound_to 11000
  141.2003  133.7990  157.0494 LP  0  0  0  0  0  0  0  0  0  0  0  0  # atno 17395 bound_to 11000

$$$$
