AV-unprocessed.smi:2160|AV-procd|sdf|8798|dock5
  -GOLD-   2272011583D 1   1.00000     0.00000
 Structure written by MMmdl.
 43 45  0  0  0  0  0  0  0  0  1 V2000
  142.3134  146.4456  155.6221 C   0  0  0  0  0  0  0  0  0  0  0  0
  142.9572  146.2207  154.3765 O   0  0  0  0  0  0  0  0  0  0  0  0
  143.8565  145.1797  154.2911 C   0  0  0  0  0  0  0  0  0  0  0  0
  144.1549  144.2949  155.3580 C   0  0  0  0  0  0  0  0  0  0  0  0
  145.0948  143.2605  155.1853 C   0  0  0  0  0  0  0  0  0  0  0  0
  145.7546  143.0976  153.9507 C   0  0  0  0  0  0  0  0  0  0  0  0
  146.7830  141.9992  153.7701 C   0  0  0  0  0  0  0  0  0  0  0  0
  147.0360  141.3284  154.9931 O   0  0  0  0  0  0  0  0  0  0  0  0
  147.8769  140.1960  154.8459 C   0  0  0  0  0  0  0  0  0  0  0  0
  149.3548  140.6315  154.8603 C   0  0  1  0  0  0  0  0  0  0  0  0
  149.8042  140.8074  153.5335 O   0  0  0  0  0  0  0  0  0  0  0  0
  149.6669  141.8943  155.6931 C   0  0  0  0  0  0  0  0  0  0  0  0
  150.4858  141.6183  156.8613 N   0  0  0  0  0  0  0  0  0  0  0  0
  150.7300  140.4148  157.4143 C   0  0  0  0  0  0  0  0  0  0  0  0
  151.5040  140.3859  158.4953 N   0  0  0  0  0  0  0  0  0  0  0  0
  151.8074  141.7268  158.6579 C   0  0  0  0  0  0  0  0  0  0  0  0
  152.5963  142.3766  159.6341 C   0  0  0  0  0  0  0  0  0  0  0  0
  152.7685  143.7761  159.5989 C   0  0  0  0  0  0  0  0  0  0  0  0
  152.1579  144.5458  158.5879 C   0  0  0  0  0  0  0  0  0  0  0  0
  151.3658  143.9212  157.6060 C   0  0  0  0  0  0  0  0  0  0  0  0
  151.1927  142.5247  157.6463 C   0  0  0  0  0  0  0  0  0  0  0  0
  145.4538  143.9663  152.8833 C   0  0  0  0  0  0  0  0  0  0  0  0
  144.5124  144.9988  153.0562 C   0  0  0  0  0  0  0  0  0  0  0  0
  141.6502  147.3059  155.5342 H   0  0  0  0  0  0  0  0  0  0  0  0
  143.0350  146.6656  156.4098 H   0  0  0  0  0  0  0  0  0  0  0  0
  141.7054  145.5896  155.9168 H   0  0  0  0  0  0  0  0  0  0  0  0
  143.6791  144.3911  156.3219 H   0  0  0  0  0  0  0  0  0  0  0  0
  145.3160  142.6010  156.0117 H   0  0  0  0  0  0  0  0  0  0  0  0
  146.4216  141.2909  153.0227 H   0  0  0  0  0  0  0  0  0  0  0  0
  147.7075  142.4330  153.3872 H   0  0  0  0  0  0  0  0  0  0  0  0
  147.7050  139.5155  155.6814 H   0  0  0  0  0  0  0  0  0  0  0  0
  147.6343  139.6464  153.9351 H   0  0  0  0  0  0  0  0  0  0  0  0
  149.9352  139.8019  155.2660 H   0  0  0  0  0  0  0  0  0  0  0  0
  150.6120  140.3283  153.4271 H   0  0  0  0  0  0  0  0  0  0  0  0
  150.1773  142.6378  155.0794 H   0  0  0  0  0  0  0  0  0  0  0  0
  148.7385  142.3576  156.0291 H   0  0  0  0  0  0  0  0  0  0  0  0
  150.3065  139.5092  157.0051 H   0  0  0  0  0  0  0  0  0  0  0  0
  153.0702  141.7969  160.4122 H   0  0  0  0  0  0  0  0  0  0  0  0
  153.3726  144.2615  160.3513 H   0  0  0  0  0  0  0  0  0  0  0  0
  152.2916  145.6177  158.5702 H   0  0  0  0  0  0  0  0  0  0  0  0
  150.8891  144.5119  156.8381 H   0  0  0  0  0  0  0  0  0  0  0  0
  145.9504  143.8477  151.9314 H   0  0  0  0  0  0  0  0  0  0  0  0
  144.2942  145.6623  152.2324 H   0  0  0  0  0  0  0  0  0  0  0  0
  1  2  1  0  0  0  0
  1 24  1  0  0  0  0
  1 25  1  0  0  0  0
  1 26  1  0  0  0  0
  2  3  1  0  0  0  0
  3 23  1  0  0  0  0
  3  4  2  0  0  0  0
  4  5  1  0  0  0  0
  4 27  1  0  0  0  0
  5  6  2  0  0  0  0
  5 28  1  0  0  0  0
  6  7  1  0  0  0  0
  6 22  1  0  0  0  0
  7  8  1  0  0  0  0
  7 29  1  0  0  0  0
  7 30  1  0  0  0  0
  8  9  1  0  0  0  0
  9 10  1  0  0  0  0
  9 31  1  0  0  0  0
  9 32  1  0  0  0  0
 10 11  1  0  0  0  0
 10 12  1  0  0  0  0
 10 33  1  0  0  0  0
 11 34  1  0  0  0  0
 12 13  1  0  0  0  0
 12 35  1  0  0  0  0
 12 36  1  0  0  0  0
 13 21  1  0  0  0  0
 13 14  1  0  0  0  0
 14 15  2  0  0  0  0
 14 37  1  0  0  0  0
 15 16  1  0  0  0  0
 16 21  2  0  0  0  0
 16 17  1  0  0  0  0
 17 18  2  0  0  0  0
 17 38  1  0  0  0  0
 18 19  1  0  0  0  0
 18 39  1  0  0  0  0
 19 20  2  0  0  0  0
 19 40  1  0  0  0  0
 20 21  1  0  0  0  0
 20 41  1  0  0  0  0
 22 23  2  0  0  0  0
 22 42  1  0  0  0  0
 23 43  1  0  0  0  0
M  END
> <s_m_source_file>
AV-unprocessed.smi

> <i_m_source_file_index>
2160

> <i_lp_mmshare_version>
43012

> <i_f3d_flags>
0

> <s_epik_input>
W0NIM11PYzFbY0hdW2NIXWMoW2NIXVtjSF0xKVtDSDJdT1tDSDJdW0NASF0oW09IXSlbQ0gyXW4oW2NIXW4yKWMoYzIzKVtjSF1bY0hdW2NIXVtjSF0z

> <s_epik_cmdline>
J2VwaWtfcHl0aG9uJywgJy1waCcsICc3LjAnLCAnLXRuJywgJzgnLCAnLW1hJywgJzIwMCcsICctbWV0YWxfYmluZGluZycsICctaW1hZScsICc8aW5maWxlLm1hZT4nLCAnLW9tYWUnLCAnPG91dGZpbGUubWFlPic=

> <r_lp_tautomer_probability>
1

> <r_epik_Ionization_Penalty>
0.0713119

> <r_epik_Ionization_Penalty_Charging>
0

> <r_epik_Ionization_Penalty_Neutral>
0.0713119

> <r_epik_State_Penalty>
0.06259

> <r_epik_Charging_Adjusted_Penalty>
0.06259

> <i_epik_Tot_Q>
0

> <i_epik_Tot_abs_Q>
0

> <r_epik_Metal_State_Penalty>
6.60119e-05

> <b_epik_Metal_Only>
0

> <s_lp_Force_Field>
OPLS_2005

> <r_lp_Energy>
17.5376

> <b_lp_Chiralities_Consistent>
1

> <s_lp_Variant>
AV-unprocessed.smi:2160-2

> <Gold.Version>
5.8.1

> <Gold.Id.Protein>
6NUR|6NUR_protein|mol2

> <Gold.PLP.Fitness>
55.7414

> <Gold.PLP.PLP>
-55.7003

> <Gold.PLP.part.hbond>
-3.4694

> <Gold.PLP.part.metal>
0.0000

> <Gold.PLP.part.buried>
-4.7013

> <Gold.PLP.part.nonpolar>
-45.7930

> <Gold.PLP.part.repulsive>
0.1214

> <Gold.PLP.ligand.clash>
0.0000

> <Gold.PLP.ligand.torsion>
1.5375

> <Gold.PLP.Chemscore.Hbond>
1.0000

> <Gold.PLP.Chemscore.CHOScore>
0.0000

> <Gold.PLP.Chemscore.Metal>
0.0000

> <Gold.Chemscore.Hbonds>
donor molecule, donor type, donor heavy atom, donor atom, acceptor molecule, acceptor atom, score
      P1  H  8011  8017       L1    11  1.00

> <Gold.PLP.Chemscore.Internal.Correction>
0.1162

> <Gold.Rescore>
     Score         DG    S(hbond)    S(metal)    S(lipo)     H(rot)  DE(clash)    DE(int)     intcor
     16.31     -18.35       0.91        0.00     141.59       2.63       0.49       1.55       ----

> <Gold.Chemscore.Fitness>
16.3131

> <Gold.Chemscore.DG>
-18.3462

> <Gold.Chemscore.ZeroCoef>
-5.4800

> <Gold.Chemscore.Hbond>
0.9086

> <Gold.Chemscore.Metal>
0.0000

> <Gold.Chemscore.Lipo>
141.5908

> <Gold.Chemscore.Internal_Hbond>
0.0000

> <Gold.Chemscore.DEClash>
0.4858

> <Gold.Chemscore.DEInternal>
1.5473

> <Gold.Chemscore.Rot>
2.6308

> <Gold.Chemscore.Internal.Correction>
   9.000000E+99

> <Gold.Chemscore.Hbonds>
donor molecule, donor type, donor heavy atom, donor atom, acceptor molecule, acceptor atom, score
      P1  H  8011  8017       L1    11  0.66

> <Gold.Chemscore.Hbond.Weighted>
-3.0348

> <Gold.Chemscore.Metal.Weighted>
-0.0000

> <Gold.Chemscore.Lipo.Weighted>
-16.5661

> <Gold.Chemscore.Internal_Hbond.Weighted>
0.0000

> <Gold.Chemscore.DEClash.Weighted>
0.4858

> <Gold.Chemscore.DEInternal.Weighted>
1.5473

> <Gold.Chemscore.Rot.Weighted>
6.7347

> <Gold.Chemscore.Internal.Correction.Weighted>
   9.000000E+99

> <Gold.Protein.RotatedTorsions>
[ 6907 6896 6895 6894 ] final  163.78 input  -60.11 | X-H torsion
[ 7974 7965 7964 7962 ] final -105.86 input  175.53 | X-H torsion
[ 8008 7997 7996 7995 ] final   -9.59 input   59.86 | X-H torsion
[ 10167 10162 10161 10158 ] final  130.82 input  -65.29 | X-H torsion
[ 10718 10713 10712 10709 ] final  137.38 input   66.30 | X-H torsion
[ 10763 10752 10751 10750 ] final  141.94 input  -60.55 | X-H torsion
[ 11005 11000 10999 10996 ] final  -48.98 input  -57.11 | X-H torsion

> <Gold.Protein.ActiveResidues>
 VAL166  LYS551  ARG553  GLY616  TRP617  ASP618  TYR619  PRO620  LYS621  CYS622 
 ASP623  PHE694  ASN695  SER759  ASP760  ASP761  ALA762  ILE779  LEU786  VAL792 
 PHE793  MET794  SER795  GLU796  ALA797  LYS798  CYS799  TRP800  GLU811  SER814 

> <Gold.Protein.RotatedAtoms>
  151.9200  133.3583  159.3893 H   0  0  0  0  0  0  0  0  0  0  0  0  # atno 6907 bound_to 6896
  150.7039  134.4645  159.5405 H   0  0  0  0  0  0  0  0  0  0  0  0  # atno 6908 bound_to 6896
  152.2267  134.8362  160.0530 H   0  0  0  0  0  0  0  0  0  0  0  0  # atno 6909 bound_to 6896
  145.2251  140.9149  143.3237 H   0  0  0  0  0  0  0  0  0  0  0  0  # atno 7974 bound_to 7965
  154.5632  140.2351  155.8303 H   0  0  0  0  0  0  0  0  0  0  0  0  # atno 8008 bound_to 7997
  156.2047  140.3043  155.9560 H   0  0  0  0  0  0  0  0  0  0  0  0  # atno 8009 bound_to 7997
  155.2849  140.0424  157.3009 H   0  0  0  0  0  0  0  0  0  0  0  0  # atno 8010 bound_to 7997
  139.5412  144.6732  151.4618 H   0  0  0  0  0  0  0  0  0  0  0  0  # atno 10167 bound_to 10162
  157.4366  131.1054  151.0190 H   0  0  0  0  0  0  0  0  0  0  0  0  # atno 10718 bound_to 10713
  153.9476  135.2973  155.3440 H   0  0  0  0  0  0  0  0  0  0  0  0  # atno 10763 bound_to 10752
  154.7444  135.5010  153.9181 H   0  0  0  0  0  0  0  0  0  0  0  0  # atno 10764 bound_to 10752
  153.1010  135.6734  153.9780 H   0  0  0  0  0  0  0  0  0  0  0  0  # atno 10765 bound_to 10752
  141.0732  133.6673  156.3519 H   0  0  0  0  0  0  0  0  0  0  0  0  # atno 11005 bound_to 11000
  144.9729  139.3862  143.6300 LP  0  0  0  0  0  0  0  0  0  0  0  0  # atno 17320 bound_to 7965
  146.3366  139.8834  142.8820 LP  0  0  0  0  0  0  0  0  0  0  0  0  # atno 17321 bound_to 7965
  140.6643  143.8432  150.6923 LP  0  0  0  0  0  0  0  0  0  0  0  0  # atno 17342 bound_to 10162
  140.1836  143.4094  152.1915 LP  0  0  0  0  0  0  0  0  0  0  0  0  # atno 17343 bound_to 10162
  157.1068  130.6004  149.5472 LP  0  0  0  0  0  0  0  0  0  0  0  0  # atno 17370 bound_to 10713
  155.9933  130.4993  150.7374 LP  0  0  0  0  0  0  0  0  0  0  0  0  # atno 17371 bound_to 10713
  140.5628  134.5917  157.5438 LP  0  0  0  0  0  0  0  0  0  0  0  0  # atno 17394 bound_to 11000
  139.9545  134.7559  156.0373 LP  0  0  0  0  0  0  0  0  0  0  0  0  # atno 17395 bound_to 11000

$$$$
