AV-unprocessed.smi:2229|AV-procd|sdf|9033|dock10
  -GOLD-   2272012243D 1   1.00000     0.00000
 Structure written by MMmdl.
 43 44  0  0  0  0  0  0  0  0  2 V2000
  152.7339  142.0543  160.1679 C   0  0  0  0  0  0  0  0  0  0  0  0
  152.1284  143.1456  159.2688 C   0  0  0  0  0  0  0  0  0  0  0  0
  151.8082  144.4009  160.0949 C   0  0  0  0  0  0  0  0  0  0  0  0
  150.8768  142.6597  158.5088 C   0  0  0  0  0  0  0  0  0  0  0  0
  151.1834  141.7114  157.3355 C   0  0  0  0  0  0  0  0  0  0  0  0
  150.1485  141.7989  156.1927 C   0  0  2  0  0  0  0  0  0  0  0  0
  148.7022  141.5398  156.6229 C   0  0  0  0  0  0  0  0  0  0  0  0
  147.9623  141.3029  155.3086 C   0  0  0  0  0  0  0  0  0  0  0  0
  148.9690  140.5901  154.3982 C   0  0  0  0  0  0  0  0  0  0  0  0
  150.3680  140.8375  155.0028 C   0  0  2  0  0  0  0  0  0  0  0  0
  150.9838  139.5786  155.4207 N   0  0  0  0  0  0  0  0  0  0  0  0
  152.2702  139.2447  155.2424 C   0  0  0  0  0  0  0  0  0  0  0  0
  153.0929  139.9892  154.7082 O   0  0  0  0  0  0  0  0  0  0  0  0
  152.6821  137.8671  155.7776 C   0  0  0  0  0  0  0  0  0  0  0  0
  152.3824  137.6840  157.1997 N   0  0  0  0  0  0  0  0  0  0  0  0
  151.3998  136.8412  157.6545 C   0  0  0  0  0  0  0  0  0  0  0  0
  151.3527  136.8475  158.9384 N   0  0  0  0  0  0  0  0  0  0  0  0
  152.3708  137.7536  159.3766 N   0  5  0  0  0  0  0  0  0  0  0  0
  152.9684  138.2348  158.2639 C   0  0  0  0  0  0  0  0  0  0  0  0
  153.8979  139.0371  158.1816 O   0  0  0  0  0  0  0  0  0  0  0  0
  152.0120  141.7042  160.9065 H   0  0  0  0  0  0  0  0  0  0  0  0
  153.6032  142.4309  160.7078 H   0  0  0  0  0  0  0  0  0  0  0  0
  153.0668  141.1926  159.5900 H   0  0  0  0  0  0  0  0  0  0  0  0
  152.8820  143.4282  158.5327 H   0  0  0  0  0  0  0  0  0  0  0  0
  151.0581  144.1923  160.8586 H   0  0  0  0  0  0  0  0  0  0  0  0
  151.4253  145.2025  159.4629 H   0  0  0  0  0  0  0  0  0  0  0  0
  152.6985  144.7790  160.5983 H   0  0  0  0  0  0  0  0  0  0  0  0
  150.1912  142.1775  159.2067 H   0  0  0  0  0  0  0  0  0  0  0  0
  150.3464  143.5284  158.1170 H   0  0  0  0  0  0  0  0  0  0  0  0
  152.1686  141.9541  156.9354 H   0  0  0  0  0  0  0  0  0  0  0  0
  151.2416  140.6857  157.6993 H   0  0  0  0  0  0  0  0  0  0  0  0
  150.1862  142.8109  155.7856 H   0  0  0  0  0  0  0  0  0  0  0  0
  148.6492  140.6440  157.2431 H   0  0  0  0  0  0  0  0  0  0  0  0
  148.2762  142.3669  157.1915 H   0  0  0  0  0  0  0  0  0  0  0  0
  147.0446  140.7300  155.4452 H   0  0  0  0  0  0  0  0  0  0  0  0
  147.6885  142.2625  154.8681 H   0  0  0  0  0  0  0  0  0  0  0  0
  148.7392  139.5243  154.3505 H   0  0  0  0  0  0  0  0  0  0  0  0
  148.9052  140.9715  153.3787 H   0  0  0  0  0  0  0  0  0  0  0  0
  151.0180  141.3228  154.2721 H   0  0  0  0  0  0  0  0  0  0  0  0
  150.3809  138.9065  155.8721 H   0  0  0  0  0  0  0  0  0  0  0  0
  152.1877  137.1011  155.1782 H   0  0  0  0  0  0  0  0  0  0  0  0
  153.7540  137.7257  155.6289 H   0  0  0  0  0  0  0  0  0  0  0  0
  150.7869  136.2783  156.9485 H   0  0  0  0  0  0  0  0  0  0  0  0
  1  2  1  0  0  0  0
  1 21  1  0  0  0  0
  1 22  1  0  0  0  0
  1 23  1  0  0  0  0
  2  3  1  0  0  0  0
  2  4  1  0  0  0  0
  2 24  1  0  0  0  0
  3 25  1  0  0  0  0
  3 26  1  0  0  0  0
  3 27  1  0  0  0  0
  4  5  1  0  0  0  0
  4 28  1  0  0  0  0
  4 29  1  0  0  0  0
  5  6  1  0  0  0  0
  5 30  1  0  0  0  0
  5 31  1  0  0  0  0
  6 10  1  0  0  0  0
  6  7  1  0  0  0  0
  6 32  1  0  0  0  0
  7  8  1  0  0  0  0
  7 33  1  0  0  0  0
  7 34  1  0  0  0  0
  8  9  1  0  0  0  0
  8 35  1  0  0  0  0
  8 36  1  0  0  0  0
  9 10  1  0  0  0  0
  9 37  1  0  0  0  0
  9 38  1  0  0  0  0
 10 11  1  0  0  0  0
 10 39  1  0  0  0  0
 11 12  1  0  0  0  0
 11 40  1  0  0  0  0
 12 13  2  0  0  0  0
 12 14  1  0  0  0  0
 14 15  1  0  0  0  0
 14 41  1  0  0  0  0
 14 42  1  0  0  0  0
 15 19  1  0  0  0  0
 15 16  1  0  0  0  0
 16 17  2  0  0  0  0
 16 43  1  0  0  0  0
 17 18  1  0  0  0  0
 18 19  1  0  0  0  0
 19 20  2  0  0  0  0
M  CHG  1  18  -1
M  END
> <s_m_source_file>
AV-unprocessed.smi

> <i_m_source_file_index>
2229

> <i_lp_mmshare_version>
43012

> <i_f3d_flags>
0

> <s_epik_input>
W0NIM11bQ0hdKFtDSDNdKVtDSDJdW0NIMl1bQ0BASF0xW0NIMl1bQ0gyXVtDSDJdW0NASF0xW05IXUMoPU8pW0NIMl1uMltjSF1uW25IXWMyPU8=

> <s_epik_cmdline>
J2VwaWtfcHl0aG9uJywgJy1waCcsICc3LjAnLCAnLXRuJywgJzgnLCAnLW1hJywgJzIwMCcsICctbWV0YWxfYmluZGluZycsICctaW1hZScsICc8aW5maWxlLm1hZT4nLCAnLW9tYWUnLCAnPG91dGZpbGUubWFlPic=

> <r_lp_tautomer_probability>
1

> <r_epik_Ionization_Penalty>
13.6733

> <r_epik_Ionization_Penalty_Charging>
13.6725

> <r_epik_Ionization_Penalty_Neutral>
0.000837689

> <r_epik_State_Penalty>
5.67062

> <r_epik_Charging_Adjusted_Penalty>
19.3431

> <i_epik_Tot_Q>
-1

> <i_epik_Tot_abs_Q>
1

> <r_epik_Metal_State_Penalty>
1.61781

> <b_epik_Metal_Only>
1

> <s_lp_Force_Field>
OPLS_2005

> <r_lp_Energy>
26.4382

> <b_lp_Chiralities_Consistent>
1

> <s_lp_Variant>
AV-unprocessed.smi:2229-7

> <Gold.Version>
5.8.1

> <Gold.Id.Protein>
6NUR|6NUR_protein|mol2

> <Gold.PLP.Fitness>
44.8295

> <Gold.PLP.PLP>
-36.2781

> <Gold.PLP.part.hbond>
-4.0000

> <Gold.PLP.part.metal>
0.0000

> <Gold.PLP.part.buried>
-1.9221

> <Gold.PLP.part.nonpolar>
-30.5088

> <Gold.PLP.part.repulsive>
0.1265

> <Gold.PLP.ligand.clash>
0.0000

> <Gold.PLP.ligand.torsion>
0.6804

> <Gold.PLP.Chemscore.Hbond>
3.2870

> <Gold.PLP.Chemscore.CHOScore>
0.0000

> <Gold.PLP.Chemscore.Metal>
0.0000

> <Gold.Chemscore.Hbonds>
donor molecule, donor type, donor heavy atom, donor atom, acceptor molecule, acceptor atom, score
      P1  H  6896  6907       L1    17  0.99
      P1  H  7989  7998       L1    13  0.17
      P1  H  7997  8008       L1    20  1.00
      P1  H  7997  8009       L1    13  1.00

> <Gold.PLP.Chemscore.Internal.Correction>
0.0511

> <Gold.Rescore>
     Score         DG    S(hbond)    S(metal)    S(lipo)     H(rot)  DE(clash)    DE(int)     intcor
     17.08     -18.09       2.76        0.00      85.84       2.59       0.34       0.67       ----

> <Gold.Chemscore.Fitness>
17.0814

> <Gold.Chemscore.DG>
-18.0907

> <Gold.Chemscore.ZeroCoef>
-5.4800

> <Gold.Chemscore.Hbond>
2.7568

> <Gold.Chemscore.Metal>
0.0000

> <Gold.Chemscore.Lipo>
85.8402

> <Gold.Chemscore.Internal_Hbond>
0.0000

> <Gold.Chemscore.DEClash>
0.3367

> <Gold.Chemscore.DEInternal>
0.6726

> <Gold.Chemscore.Rot>
2.5939

> <Gold.Chemscore.Internal.Correction>
   9.000000E+99

> <Gold.Chemscore.Hbonds>
donor molecule, donor type, donor heavy atom, donor atom, acceptor molecule, acceptor atom, score
      P1  H  6896  6907       L1    17  0.78
      P1  H  7989  7998       L1    13  0.02
      P1  H  7997  8008       L1    20  0.98
      P1  H  7997  8009       L1    13  0.94

> <Gold.Chemscore.Hbond.Weighted>
-9.2078

> <Gold.Chemscore.Metal.Weighted>
-0.0000

> <Gold.Chemscore.Lipo.Weighted>
-10.0433

> <Gold.Chemscore.Internal_Hbond.Weighted>
0.0000

> <Gold.Chemscore.DEClash.Weighted>
0.3367

> <Gold.Chemscore.DEInternal.Weighted>
0.6726

> <Gold.Chemscore.Rot.Weighted>
6.6405

> <Gold.Chemscore.Internal.Correction.Weighted>
   9.000000E+99

> <Gold.Protein.RotatedTorsions>
[ 6907 6896 6895 6894 ] final  -11.86 input  -60.11 | X-H torsion
[ 7974 7965 7964 7962 ] final  -98.39 input  175.53 | X-H torsion
[ 8008 7997 7996 7995 ] final -112.08 input   59.86 | X-H torsion
[ 10167 10162 10161 10158 ] final  160.17 input  -65.29 | X-H torsion
[ 10718 10713 10712 10709 ] final -118.03 input   66.30 | X-H torsion
[ 10763 10752 10751 10750 ] final  144.82 input  -60.55 | X-H torsion
[ 11005 11000 10999 10996 ] final -112.46 input  -57.11 | X-H torsion

> <Gold.Protein.ActiveResidues>
 VAL166  LYS551  ARG553  GLY616  TRP617  ASP618  TYR619  PRO620  LYS621  CYS622 
 ASP623  PHE694  ASN695  SER759  ASP760  ASP761  ALA762  ILE779  LEU786  VAL792 
 PHE793  MET794  SER795  GLU796  ALA797  LYS798  CYS799  TRP800  GLU811  SER814 

> <Gold.Protein.RotatedAtoms>
  151.3796  135.0937  159.9491 H   0  0  0  0  0  0  0  0  0  0  0  0  # atno 6907 bound_to 6896
  152.5112  133.9085  159.7486 H   0  0  0  0  0  0  0  0  0  0  0  0  # atno 6908 bound_to 6896
  150.9516  133.6488  159.2800 H   0  0  0  0  0  0  0  0  0  0  0  0  # atno 6909 bound_to 6896
  145.3213  140.9422  143.2714 H   0  0  0  0  0  0  0  0  0  0  0  0  # atno 7974 bound_to 7965
  154.9996  140.0394  157.2354 H   0  0  0  0  0  0  0  0  0  0  0  0  # atno 8008 bound_to 7997
  154.7555  140.2775  155.6234 H   0  0  0  0  0  0  0  0  0  0  0  0  # atno 8009 bound_to 7997
  156.2894  140.2638  156.2320 H   0  0  0  0  0  0  0  0  0  0  0  0  # atno 8010 bound_to 7997
  139.4838  144.4660  151.8641 H   0  0  0  0  0  0  0  0  0  0  0  0  # atno 10167 bound_to 10162
  156.1077  130.6223  150.9240 H   0  0  0  0  0  0  0  0  0  0  0  0  # atno 10718 bound_to 10713
  153.9952  135.2928  155.3408 H   0  0  0  0  0  0  0  0  0  0  0  0  # atno 10763 bound_to 10752
  154.7191  135.5116  153.8788 H   0  0  0  0  0  0  0  0  0  0  0  0  # atno 10764 bound_to 10752
  153.0791  135.6673  154.0200 H   0  0  0  0  0  0  0  0  0  0  0  0  # atno 10765 bound_to 10752
  141.0674  133.9436  157.2552 H   0  0  0  0  0  0  0  0  0  0  0  0  # atno 11005 bound_to 11000
  144.8937  139.4740  143.6665 LP  0  0  0  0  0  0  0  0  0  0  0  0  # atno 17320 bound_to 7965
  146.3081  139.7650  142.9041 LP  0  0  0  0  0  0  0  0  0  0  0  0  # atno 17321 bound_to 7965
  140.4125  144.2350  150.5888 LP  0  0  0  0  0  0  0  0  0  0  0  0  # atno 17342 bound_to 10162
  140.4952  143.2335  151.8760 LP  0  0  0  0  0  0  0  0  0  0  0  0  # atno 17343 bound_to 10162
  157.6255  131.0926  150.8542 LP  0  0  0  0  0  0  0  0  0  0  0  0  # atno 17370 bound_to 10713
  156.8658  130.5129  149.5300 LP  0  0  0  0  0  0  0  0  0  0  0  0  # atno 17371 bound_to 10713
  139.9489  135.0179  156.8936 LP  0  0  0  0  0  0  0  0  0  0  0  0  # atno 17394 bound_to 11000
  140.5745  134.0411  155.7442 LP  0  0  0  0  0  0  0  0  0  0  0  0  # atno 17395 bound_to 11000

$$$$
