AV-unprocessed.smi:2896|AV-procd|sdf|11137|dock6
  -GOLD-   2272016 13D 1   1.00000     0.00000
 Structure written by MMmdl.
 50 51  0  0  0  0  0  0  0  0  2 V2000
  150.2674  131.1590  154.8239 C   0  0  0  0  0  0  0  0  0  0  0  0
  149.3087  132.3652  154.8774 C   0  0  1  0  0  0  0  0  0  0  0  0
  149.5371  133.2151  156.1464 C   0  0  0  0  0  0  0  0  0  0  0  0
  148.4655  133.0470  157.1217 N   0  0  0  0  0  0  0  0  0  0  0  0
  148.3214  133.7670  158.2482 C   0  0  0  0  0  0  0  0  0  0  0  0
  149.1382  134.6241  158.5891 O   0  0  0  0  0  0  0  0  0  0  0  0
  147.0684  133.4827  159.1136 C   0  0  0  0  0  0  0  0  0  0  0  0
  145.8326  133.9508  158.3096 C   0  0  0  0  0  0  0  0  0  0  0  0
  146.9104  131.9615  159.3564 C   0  0  0  0  0  0  0  0  0  0  0  0
  147.2218  134.1979  160.4725 C   0  0  0  0  0  0  0  0  0  0  0  0
  147.1894  133.4565  161.6786 C   0  0  0  0  0  0  0  0  0  0  0  0
  147.3471  134.1212  162.9086 C   0  0  0  0  0  0  0  0  0  0  0  0
  147.5295  135.5161  162.8954 C   0  0  0  0  0  0  0  0  0  0  0  0
  147.5619  136.2445  161.7607 N   0  0  0  0  0  0  0  0  0  0  0  0
  147.4097  135.5983  160.5849 C   0  0  0  0  0  0  0  0  0  0  0  0
  149.4404  133.2432  153.6139 C   0  0  0  0  0  0  0  0  0  0  0  0
  148.1623  133.8901  153.2202 N   0  3  0  0  0  0  0  0  0  0  0  0
  147.2463  132.9940  152.4711 C   0  0  0  0  0  0  0  0  0  0  0  0
  145.9697  133.7493  152.0645 C   0  0  0  0  0  0  0  0  0  0  0  0
  145.3398  134.2815  153.2229 O   0  0  0  0  0  0  0  0  0  0  0  0
  146.1747  135.2101  153.9029 C   0  0  0  0  0  0  0  0  0  0  0  0
  147.4580  134.5031  154.3714 C   0  0  0  0  0  0  0  0  0  0  0  0
  151.3080  131.4826  154.7860 H   0  0  0  0  0  0  0  0  0  0  0  0
  150.0803  130.5392  153.9471 H   0  0  0  0  0  0  0  0  0  0  0  0
  150.1539  130.5156  155.6959 H   0  0  0  0  0  0  0  0  0  0  0  0
  148.2906  131.9806  154.9288 H   0  0  0  0  0  0  0  0  0  0  0  0
  150.4770  132.9328  156.6222 H   0  0  0  0  0  0  0  0  0  0  0  0
  149.6316  134.2716  155.8887 H   0  0  0  0  0  0  0  0  0  0  0  0
  147.7585  132.3570  156.9109 H   0  0  0  0  0  0  0  0  0  0  0  0
  145.8752  135.0149  158.0725 H   0  0  0  0  0  0  0  0  0  0  0  0
  144.9076  133.7679  158.8578 H   0  0  0  0  0  0  0  0  0  0  0  0
  145.7507  133.4180  157.3611 H   0  0  0  0  0  0  0  0  0  0  0  0
  147.7940  131.5191  159.8173 H   0  0  0  0  0  0  0  0  0  0  0  0
  146.7303  131.4203  158.4262 H   0  0  0  0  0  0  0  0  0  0  0  0
  146.0644  131.7578  160.0137 H   0  0  0  0  0  0  0  0  0  0  0  0
  147.0584  132.3845  161.6674 H   0  0  0  0  0  0  0  0  0  0  0  0
  147.3296  133.5748  163.8399 H   0  0  0  0  0  0  0  0  0  0  0  0
  147.6542  136.0605  163.8197 H   0  0  0  0  0  0  0  0  0  0  0  0
  147.4487  136.2393  159.7180 H   0  0  0  0  0  0  0  0  0  0  0  0
  150.2000  134.0138  153.7560 H   0  0  0  0  0  0  0  0  0  0  0  0
  149.7979  132.6145  152.7967 H   0  0  0  0  0  0  0  0  0  0  0  0
  147.7320  132.6078  151.5758 H   0  0  0  0  0  0  0  0  0  0  0  0
  146.9871  132.1333  153.0896 H   0  0  0  0  0  0  0  0  0  0  0  0
  146.1980  134.5495  151.3587 H   0  0  0  0  0  0  0  0  0  0  0  0
  145.2765  133.0724  151.5650 H   0  0  0  0  0  0  0  0  0  0  0  0
  146.4094  136.0530  153.2508 H   0  0  0  0  0  0  0  0  0  0  0  0
  145.6324  135.6114  154.7593 H   0  0  0  0  0  0  0  0  0  0  0  0
  147.2152  133.7331  155.1055 H   0  0  0  0  0  0  0  0  0  0  0  0
  148.1114  135.2233  154.8650 H   0  0  0  0  0  0  0  0  0  0  0  0
  148.4045  134.6511  152.6018 H   0  0  0  0  0  0  0  0  0  0  0  0
  1  2  1  0  0  0  0
  1 23  1  0  0  0  0
  1 24  1  0  0  0  0
  1 25  1  0  0  0  0
  2  3  1  0  0  0  0
  2 16  1  0  0  0  0
  2 26  1  0  0  0  0
  3  4  1  0  0  0  0
  3 27  1  0  0  0  0
  3 28  1  0  0  0  0
  4  5  1  0  0  0  0
  4 29  1  0  0  0  0
  5  6  2  0  0  0  0
  5  7  1  0  0  0  0
  7  8  1  0  0  0  0
  7  9  1  0  0  0  0
  7 10  1  0  0  0  0
  8 30  1  0  0  0  0
  8 31  1  0  0  0  0
  8 32  1  0  0  0  0
  9 33  1  0  0  0  0
  9 34  1  0  0  0  0
  9 35  1  0  0  0  0
 10 15  1  0  0  0  0
 10 11  2  0  0  0  0
 11 12  1  0  0  0  0
 11 36  1  0  0  0  0
 12 13  2  0  0  0  0
 12 37  1  0  0  0  0
 13 14  1  0  0  0  0
 13 38  1  0  0  0  0
 14 15  2  0  0  0  0
 15 39  1  0  0  0  0
 16 17  1  0  0  0  0
 16 40  1  0  0  0  0
 16 41  1  0  0  0  0
 17 22  1  0  0  0  0
 17 18  1  0  0  0  0
 17 50  1  0  0  0  0
 18 19  1  0  0  0  0
 18 42  1  0  0  0  0
 18 43  1  0  0  0  0
 19 20  1  0  0  0  0
 19 44  1  0  0  0  0
 19 45  1  0  0  0  0
 20 21  1  0  0  0  0
 21 22  1  0  0  0  0
 21 46  1  0  0  0  0
 21 47  1  0  0  0  0
 22 48  1  0  0  0  0
 22 49  1  0  0  0  0
M  CHG  1  17   1
M  END
> <s_m_source_file>
AV-unprocessed.smi

> <i_m_source_file_index>
2896

> <i_lp_mmshare_version>
43012

> <i_f3d_flags>
0

> <s_epik_input>
W0NIMl0xW0NIMl1PW0NIMl1bQ0gyXU4xW0NIMl1bQ0BIXShbQ0gzXSlbQ0gyXVtOSF1DKD1PKUMoW0NIM10pKFtDSDNdKWMyW2NIXVtjSF1bY0hdbltjSF0y

> <s_epik_cmdline>
J2VwaWtfcHl0aG9uJywgJy1waCcsICc3LjAnLCAnLXRuJywgJzgnLCAnLW1hJywgJzIwMCcsICctbWV0YWxfYmluZGluZycsICctaW1hZScsICc8aW5maWxlLm1hZT4nLCAnLW9tYWUnLCAnPG91dGZpbGUubWFlPic=

> <r_epik_Ionization_Penalty>
0.378644

> <r_epik_Ionization_Penalty_Charging>
0.372108

> <r_epik_Ionization_Penalty_Neutral>
0.0065361

> <r_epik_State_Penalty>
0.380038

> <r_epik_Charging_Adjusted_Penalty>
0.752147

> <i_epik_Tot_Q>
1

> <i_epik_Tot_abs_Q>
1

> <r_epik_Metal_State_Penalty>
0.375202

> <b_epik_Metal_Only>
0

> <s_lp_Force_Field>
OPLS_2005

> <r_lp_Energy>
23.8301

> <b_lp_Chiralities_Consistent>
1

> <s_lp_Variant>
AV-unprocessed.smi:2896-2

> <Gold.Version>
5.8.1

> <Gold.Id.Protein>
6NUR|6NUR_protein|mol2

> <Gold.PLP.Fitness>
46.8746

> <Gold.PLP.PLP>
-35.4912

> <Gold.PLP.part.hbond>
-4.0000

> <Gold.PLP.part.metal>
0.0000

> <Gold.PLP.part.buried>
-3.1254

> <Gold.PLP.part.nonpolar>
-27.9519

> <Gold.PLP.part.repulsive>
0.1394

> <Gold.PLP.ligand.clash>
0.0000

> <Gold.PLP.ligand.torsion>
1.5260

> <Gold.PLP.Chemscore.Hbond>
4.7520

> <Gold.PLP.Chemscore.CHOScore>
0.0000

> <Gold.PLP.Chemscore.Metal>
0.0000

> <Gold.Chemscore.Hbonds>
donor molecule, donor type, donor heavy atom, donor atom, acceptor molecule, acceptor atom, score
      L1  H    17    50       P1  7948  1.90
      P1  H  6896  6907       L1     6  1.00

> <Gold.PLP.Chemscore.Internal.Correction>
0.1794

> <Gold.Rescore>
     Score         DG    S(hbond)    S(metal)    S(lipo)     H(rot)  DE(clash)    DE(int)     intcor
     16.35     -19.60       2.82        0.00      79.03       1.78       0.02       3.23       ----

> <Gold.Chemscore.Fitness>
16.3489

> <Gold.Chemscore.DG>
-19.5997

> <Gold.Chemscore.ZeroCoef>
-5.4800

> <Gold.Chemscore.Hbond>
2.8211

> <Gold.Chemscore.Metal>
0.0000

> <Gold.Chemscore.Lipo>
79.0304

> <Gold.Chemscore.Internal_Hbond>
0.0000

> <Gold.Chemscore.DEClash>
0.0163

> <Gold.Chemscore.DEInternal>
3.2344

> <Gold.Chemscore.Rot>
1.7771

> <Gold.Chemscore.Internal.Correction>
   9.000000E+99

> <Gold.Chemscore.Hbonds>
donor molecule, donor type, donor heavy atom, donor atom, acceptor molecule, acceptor atom, score
      L1  H    17    50       P1  7948  0.22
      P1  H  6896  6907       L1     6  1.00
      P1  H  6931  6943       L1    14  0.02

> <Gold.Chemscore.Hbond.Weighted>
-9.4225

> <Gold.Chemscore.Metal.Weighted>
-0.0000

> <Gold.Chemscore.Lipo.Weighted>
-9.2466

> <Gold.Chemscore.Internal_Hbond.Weighted>
0.0000

> <Gold.Chemscore.DEClash.Weighted>
0.0163

> <Gold.Chemscore.DEInternal.Weighted>
3.2344

> <Gold.Chemscore.Rot.Weighted>
4.5494

> <Gold.Chemscore.Internal.Correction.Weighted>
   9.000000E+99

> <Gold.Protein.RotatedTorsions>
[ 6907 6896 6895 6894 ] final  -84.79 input  -60.11 | X-H torsion
[ 7974 7965 7964 7962 ] final  -44.30 input  175.53 | X-H torsion
[ 8008 7997 7996 7995 ] final  145.93 input   59.86 | X-H torsion
[ 10167 10162 10161 10158 ] final   47.60 input  -65.29 | X-H torsion
[ 10718 10713 10712 10709 ] final  139.64 input   66.30 | X-H torsion
[ 10763 10752 10751 10750 ] final  -39.22 input  -60.55 | X-H torsion
[ 11005 11000 10999 10996 ] final -120.76 input  -57.11 | X-H torsion

> <Gold.Protein.ActiveResidues>
 VAL166  LYS551  ARG553  GLY616  TRP617  ASP618  TYR619  PRO620  LYS621  CYS622 
 ASP623  PHE694  ASN695  SER759  ASP760  ASP761  ALA762  ILE779  LEU786  VAL792 
 PHE793  MET794  SER795  GLU796  ALA797  LYS798  CYS799  TRP800  GLU811  SER814 

> <Gold.Protein.RotatedAtoms>
  150.6874  134.3305  159.4824 H   0  0  0  0  0  0  0  0  0  0  0  0  # atno 6907 bound_to 6896
  152.1170  134.9231  160.0574 H   0  0  0  0  0  0  0  0  0  0  0  0  # atno 6908 bound_to 6896
  152.0451  133.3960  159.4390 H   0  0  0  0  0  0  0  0  0  0  0  0  # atno 6909 bound_to 6896
  145.9934  140.7156  142.9306 H   0  0  0  0  0  0  0  0  0  0  0  0  # atno 7974 bound_to 7965
  156.2869  140.2196  156.5295 H   0  0  0  0  0  0  0  0  0  0  0  0  # atno 8008 bound_to 7997
  154.7461  140.0484  157.0875 H   0  0  0  0  0  0  0  0  0  0  0  0  # atno 8009 bound_to 7997
  155.0169  140.3119  155.4811 H   0  0  0  0  0  0  0  0  0  0  0  0  # atno 8010 bound_to 7997
  140.3019  144.2924  150.6217 H   0  0  0  0  0  0  0  0  0  0  0  0  # atno 10167 bound_to 10162
  157.4121  131.1029  151.0443 H   0  0  0  0  0  0  0  0  0  0  0  0  # atno 10718 bound_to 10713
  153.9258  135.6777  153.4746 H   0  0  0  0  0  0  0  0  0  0  0  0  # atno 10763 bound_to 10752
  153.1005  135.4830  154.8854 H   0  0  0  0  0  0  0  0  0  0  0  0  # atno 10764 bound_to 10752
  154.7454  135.3171  154.8611 H   0  0  0  0  0  0  0  0  0  0  0  0  # atno 10765 bound_to 10752
  141.0120  134.0251  157.3401 H   0  0  0  0  0  0  0  0  0  0  0  0  # atno 11005 bound_to 11000
  144.6896  140.3108  143.7248 LP  0  0  0  0  0  0  0  0  0  0  0  0  # atno 17320 bound_to 7965
  145.7596  139.1820  143.2274 LP  0  0  0  0  0  0  0  0  0  0  0  0  # atno 17321 bound_to 7965
  140.5644  143.2188  151.7710 LP  0  0  0  0  0  0  0  0  0  0  0  0  # atno 17342 bound_to 10162
  139.4913  144.4305  151.9878 LP  0  0  0  0  0  0  0  0  0  0  0  0  # atno 17343 bound_to 10162
  157.1403  130.6140  149.5553 LP  0  0  0  0  0  0  0  0  0  0  0  0  # atno 17370 bound_to 10713
  155.9854  130.4883  150.7029 LP  0  0  0  0  0  0  0  0  0  0  0  0  # atno 17371 bound_to 10713
  139.9095  135.0187  156.7631 LP  0  0  0  0  0  0  0  0  0  0  0  0  # atno 17394 bound_to 11000
  140.6718  133.9553  155.7861 LP  0  0  0  0  0  0  0  0  0  0  0  0  # atno 17395 bound_to 11000

$$$$
