AV-unprocessed.smi:1095|AV-procd|sdf|4748|dock2
  -GOLD-   22720 3283D 1   1.00000     0.00000
 Structure written by MMmdl.
 50 51  0  0  0  0  0  0  0  0  1 V2000
  153.0596  143.6262  163.1762 C   0  0  0  0  0  0  0  0  0  0  0  0
  153.2935  142.7929  161.9086 C   0  0  0  0  0  0  0  0  0  0  0  0
  152.7843  143.4589  160.6140 C   0  0  2  0  0  0  0  0  0  0  0  0
  151.6426  144.4647  160.8757 C   0  0  0  0  0  0  0  0  0  0  0  0
  151.1223  145.0944  159.5712 C   0  0  0  0  0  0  0  0  0  0  0  0
  150.6708  144.0400  158.5413 C   0  0  2  0  0  0  0  0  0  0  0  0
  149.3298  143.3775  158.9356 C   0  0  0  0  0  0  0  0  0  0  0  0
  148.7199  142.6628  157.8194 N   0  0  0  0  0  0  0  0  0  0  0  0
  147.6699  141.8330  157.9160 C   0  0  0  0  0  0  0  0  0  0  0  0
  147.1223  141.5543  158.9830 O   0  0  0  0  0  0  0  0  0  0  0  0
  147.1510  141.2336  156.6077 C   0  0  0  0  0  0  0  0  0  0  0  0
  146.2195  142.2075  155.9293 C   0  0  0  0  0  0  0  0  0  0  0  0
  145.3403  143.1472  156.5456 C   0  0  0  0  0  0  0  0  0  0  0  0
  145.1110  143.3980  158.0084 C   0  0  0  0  0  0  0  0  0  0  0  0
  144.6579  143.8552  155.6616 N   0  0  0  0  0  0  0  0  0  0  0  0
  145.0694  143.3985  154.4621 N   0  0  0  0  0  0  0  0  0  0  0  0
  144.5086  143.9720  153.2541 C   0  0  0  0  0  0  0  0  0  0  0  0
  146.0108  142.3953  154.5887 C   0  0  0  0  0  0  0  0  0  0  0  0
  146.6171  141.7151  153.4033 C   0  0  0  0  0  0  0  0  0  0  0  0
  151.8132  143.0307  158.2930 C   0  0  0  0  0  0  0  0  0  0  0  0
  152.3289  142.3948  159.5952 C   0  0  0  0  0  0  0  0  0  0  0  0
  153.5063  143.1397  164.0435 H   0  0  0  0  0  0  0  0  0  0  0  0
  151.9979  143.7532  163.3864 H   0  0  0  0  0  0  0  0  0  0  0  0
  153.5072  144.6163  163.0858 H   0  0  0  0  0  0  0  0  0  0  0  0
  154.3656  142.6136  161.8180 H   0  0  0  0  0  0  0  0  0  0  0  0
  152.8339  141.8110  162.0270 H   0  0  0  0  0  0  0  0  0  0  0  0
  153.6184  144.0030  160.1679 H   0  0  0  0  0  0  0  0  0  0  0  0
  150.8244  143.9701  161.4001 H   0  0  0  0  0  0  0  0  0  0  0  0
  151.9856  145.2628  161.5337 H   0  0  0  0  0  0  0  0  0  0  0  0
  150.3050  145.7824  159.7894 H   0  0  0  0  0  0  0  0  0  0  0  0
  151.9158  145.7013  159.1333 H   0  0  0  0  0  0  0  0  0  0  0  0
  150.4956  144.5688  157.6031 H   0  0  0  0  0  0  0  0  0  0  0  0
  149.4730  142.6661  159.7482 H   0  0  0  0  0  0  0  0  0  0  0  0
  148.6358  144.1291  159.3157 H   0  0  0  0  0  0  0  0  0  0  0  0
  149.1085  142.8319  156.9030 H   0  0  0  0  0  0  0  0  0  0  0  0
  147.9879  140.9746  155.9577 H   0  0  0  0  0  0  0  0  0  0  0  0
  146.6515  140.2923  156.8366 H   0  0  0  0  0  0  0  0  0  0  0  0
  144.1638  142.9661  158.3319 H   0  0  0  0  0  0  0  0  0  0  0  0
  145.0826  144.4656  158.2276 H   0  0  0  0  0  0  0  0  0  0  0  0
  145.9000  142.9583  158.6179 H   0  0  0  0  0  0  0  0  0  0  0  0
  145.3103  144.2273  152.5608 H   0  0  0  0  0  0  0  0  0  0  0  0
  143.9435  144.8763  153.4838 H   0  0  0  0  0  0  0  0  0  0  0  0
  143.8438  143.2492  152.7811 H   0  0  0  0  0  0  0  0  0  0  0  0
  147.0742  140.7662  153.6837 H   0  0  0  0  0  0  0  0  0  0  0  0
  147.3875  142.3407  152.9526 H   0  0  0  0  0  0  0  0  0  0  0  0
  145.8642  141.5039  152.6437 H   0  0  0  0  0  0  0  0  0  0  0  0
  151.4993  142.2514  157.5995 H   0  0  0  0  0  0  0  0  0  0  0  0
  152.6401  143.5460  157.8029 H   0  0  0  0  0  0  0  0  0  0  0  0
  153.1589  141.7270  159.3619 H   0  0  0  0  0  0  0  0  0  0  0  0
  151.5517  141.7683  160.0340 H   0  0  0  0  0  0  0  0  0  0  0  0
  1  2  1  0  0  0  0
  1 22  1  0  0  0  0
  1 23  1  0  0  0  0
  1 24  1  0  0  0  0
  2  3  1  0  0  0  0
  2 25  1  0  0  0  0
  2 26  1  0  0  0  0
  3 21  1  0  0  0  0
  3  4  1  0  0  0  0
  3 27  1  0  0  0  0
  4  5  1  0  0  0  0
  4 28  1  0  0  0  0
  4 29  1  0  0  0  0
  5  6  1  0  0  0  0
  5 30  1  0  0  0  0
  5 31  1  0  0  0  0
  6  7  1  0  0  0  0
  6 20  1  0  0  0  0
  6 32  1  0  0  0  0
  7  8  1  0  0  0  0
  7 33  1  0  0  0  0
  7 34  1  0  0  0  0
  8  9  1  0  0  0  0
  8 35  1  0  0  0  0
  9 10  2  0  0  0  0
  9 11  1  0  0  0  0
 11 12  1  0  0  0  0
 11 36  1  0  0  0  0
 11 37  1  0  0  0  0
 12 18  2  0  0  0  0
 12 13  1  0  0  0  0
 13 14  1  0  0  0  0
 13 15  2  0  0  0  0
 14 38  1  0  0  0  0
 14 39  1  0  0  0  0
 14 40  1  0  0  0  0
 15 16  1  0  0  0  0
 16 17  1  0  0  0  0
 16 18  1  0  0  0  0
 17 41  1  0  0  0  0
 17 42  1  0  0  0  0
 17 43  1  0  0  0  0
 18 19  1  0  0  0  0
 19 44  1  0  0  0  0
 19 45  1  0  0  0  0
 19 46  1  0  0  0  0
 20 21  1  0  0  0  0
 20 47  1  0  0  0  0
 20 48  1  0  0  0  0
 21 49  1  0  0  0  0
 21 50  1  0  0  0  0
M  END
> <s_m_source_file>
AV-unprocessed.smi

> <i_m_source_file_index>
1095

> <i_lp_mmshare_version>
43012

> <i_f3d_flags>
0

> <s_epik_input>
W0NIM11bQ0gyXVtDQEBIXTFbQ0gyXVtDSDJdW0NASF0oW0NIMl1bQ0gyXTEpW0NIMl1bTkhdQyg9TylbQ0gyXWMyYyhbQ0gzXSlubihbQ0gzXSljMltDSDNd

> <s_epik_cmdline>
J2VwaWtfcHl0aG9uJywgJy1waCcsICc3LjAnLCAnLXRuJywgJzgnLCAnLW1hJywgJzIwMCcsICctbWV0YWxfYmluZGluZycsICctaW1hZScsICc8aW5maWxlLm1hZT4nLCAnLW9tYWUnLCAnPG91dGZpbGUubWFlPic=

> <r_lp_tautomer_probability>
1

> <r_epik_Ionization_Penalty>
0.00317479

> <r_epik_Ionization_Penalty_Charging>
0

> <r_epik_Ionization_Penalty_Neutral>
0.00317479

> <r_epik_State_Penalty>
0.00223767

> <r_epik_Charging_Adjusted_Penalty>
0.00223767

> <i_epik_Tot_Q>
0

> <i_epik_Tot_abs_Q>
0

> <r_epik_Metal_State_Penalty>
-0

> <b_epik_Metal_Only>
0

> <s_lp_Force_Field>
OPLS_2005

> <r_lp_Energy>
8.21356

> <b_lp_Chiralities_Consistent>
1

> <s_lp_Variant>
AV-unprocessed.smi:1095-2

> <Gold.Version>
5.8.1

> <Gold.Id.Protein>
6NUR|6NUR_protein|mol2

> <Gold.PLP.Fitness>
47.4237

> <Gold.PLP.PLP>
-45.4557

> <Gold.PLP.part.hbond>
-3.0000

> <Gold.PLP.part.metal>
0.0000

> <Gold.PLP.part.buried>
-6.5771

> <Gold.PLP.part.nonpolar>
-35.6603

> <Gold.PLP.part.repulsive>
0.1891

> <Gold.PLP.ligand.clash>
0.0000

> <Gold.PLP.ligand.torsion>
1.2715

> <Gold.PLP.Chemscore.Hbond>
1.4880

> <Gold.PLP.Chemscore.CHOScore>
0.0000

> <Gold.PLP.Chemscore.Metal>
0.0000

> <Gold.Chemscore.Hbonds>
donor molecule, donor type, donor heavy atom, donor atom, acceptor molecule, acceptor atom, score
      L1  H     8    35       P1  8028  0.21
      P1  H  6934  6946       L1    10  0.45

> <Gold.PLP.Chemscore.Internal.Correction>
0.0469

> <Gold.Rescore>
     Score         DG    S(hbond)    S(metal)    S(lipo)     H(rot)  DE(clash)    DE(int)     intcor
     16.45     -17.48       0.75        0.00     112.62       1.43       0.24       0.79       ----

> <Gold.Chemscore.Fitness>
16.4484

> <Gold.Chemscore.DG>
-17.4817

> <Gold.Chemscore.ZeroCoef>
-5.4800

> <Gold.Chemscore.Hbond>
0.7470

> <Gold.Chemscore.Metal>
0.0000

> <Gold.Chemscore.Lipo>
112.6216

> <Gold.Chemscore.Internal_Hbond>
0.0000

> <Gold.Chemscore.DEClash>
0.2447

> <Gold.Chemscore.DEInternal>
0.7887

> <Gold.Chemscore.Rot>
1.4336

> <Gold.Chemscore.Internal.Correction>
   9.000000E+99

> <Gold.Chemscore.Hbonds>
donor molecule, donor type, donor heavy atom, donor atom, acceptor molecule, acceptor atom, score
      L1  H     8    35       P1  8028  0.21
      P1  H  6934  6946       L1    10  0.46

> <Gold.Chemscore.Hbond.Weighted>
-2.4950

> <Gold.Chemscore.Metal.Weighted>
-0.0000

> <Gold.Chemscore.Lipo.Weighted>
-13.1767

> <Gold.Chemscore.Internal_Hbond.Weighted>
0.0000

> <Gold.Chemscore.DEClash.Weighted>
0.2447

> <Gold.Chemscore.DEInternal.Weighted>
0.7887

> <Gold.Chemscore.Rot.Weighted>
3.6700

> <Gold.Chemscore.Internal.Correction.Weighted>
   9.000000E+99

> <Gold.Protein.RotatedTorsions>
[ 6907 6896 6895 6894 ] final  -32.18 input  -60.11 | X-H torsion
[ 7974 7965 7964 7962 ] final   18.12 input  175.53 | X-H torsion
[ 8008 7997 7996 7995 ] final -174.38 input   59.86 | X-H torsion
[ 10167 10162 10161 10158 ] final -163.32 input  -65.29 | X-H torsion
[ 10718 10713 10712 10709 ] final   99.56 input   66.30 | X-H torsion
[ 10763 10752 10751 10750 ] final  -54.47 input  -60.55 | X-H torsion
[ 11005 11000 10999 10996 ] final -148.91 input  -57.11 | X-H torsion

> <Gold.Protein.ActiveResidues>
 VAL166  LYS551  ARG553  GLY616  TRP617  ASP618  TYR619  PRO620  LYS621  CYS622 
 ASP623  PHE694  ASN695  SER759  ASP760  ASP761  ALA762  ILE779  LEU786  VAL792 
 PHE793  MET794  SER795  GLU796  ALA797  LYS798  CYS799  TRP800  GLU811  SER814 

> <Gold.Protein.RotatedAtoms>
  151.0821  134.9865  159.8360 H   0  0  0  0  0  0  0  0  0  0  0  0  # atno 6907 bound_to 6896
  152.5420  134.2169  159.8782 H   0  0  0  0  0  0  0  0  0  0  0  0  # atno 6908 bound_to 6896
  151.2199  133.4464  159.2634 H   0  0  0  0  0  0  0  0  0  0  0  0  # atno 6909 bound_to 6896
  146.2195  139.8502  142.8624 H   0  0  0  0  0  0  0  0  0  0  0  0  # atno 7974 bound_to 7965
  155.9694  140.1160  157.0826 H   0  0  0  0  0  0  0  0  0  0  0  0  # atno 8008 bound_to 7997
  154.4152  140.1166  156.5353 H   0  0  0  0  0  0  0  0  0  0  0  0  # atno 8009 bound_to 7997
  155.6617  140.3473  155.4787 H   0  0  0  0  0  0  0  0  0  0  0  0  # atno 8010 bound_to 7997
  139.6329  144.0405  152.2030 H   0  0  0  0  0  0  0  0  0  0  0  0  # atno 10167 bound_to 10162
  157.6873  131.0673  150.4967 H   0  0  0  0  0  0  0  0  0  0  0  0  # atno 10718 bound_to 10713
  154.1753  135.6452  153.5020 H   0  0  0  0  0  0  0  0  0  0  0  0  # atno 10763 bound_to 10752
  153.0073  135.5393  154.6570 H   0  0  0  0  0  0  0  0  0  0  0  0  # atno 10764 bound_to 10752
  154.5920  135.2935  155.0597 H   0  0  0  0  0  0  0  0  0  0  0  0  # atno 10765 bound_to 10752
  140.7563  134.3350  157.5113 H   0  0  0  0  0  0  0  0  0  0  0  0  # atno 11005 bound_to 11000
  145.2809  141.0138  143.3718 LP  0  0  0  0  0  0  0  0  0  0  0  0  # atno 17320 bound_to 7965
  144.9151  139.4480  143.6568 LP  0  0  0  0  0  0  0  0  0  0  0  0  # atno 17321 bound_to 7965
  140.0075  144.6248  150.7676 LP  0  0  0  0  0  0  0  0  0  0  0  0  # atno 17342 bound_to 10162
  140.7449  143.2867  151.3442 LP  0  0  0  0  0  0  0  0  0  0  0  0  # atno 17343 bound_to 10162
  156.5291  130.4180  149.6211 LP  0  0  0  0  0  0  0  0  0  0  0  0  # atno 17370 bound_to 10713
  156.3085  130.7216  151.2104 LP  0  0  0  0  0  0  0  0  0  0  0  0  # atno 17371 bound_to 10713
  139.8778  134.9174  156.3177 LP  0  0  0  0  0  0  0  0  0  0  0  0  # atno 17394 bound_to 11000
  140.9705  133.7330  156.0527 LP  0  0  0  0  0  0  0  0  0  0  0  0  # atno 17395 bound_to 11000

$$$$
