AV-unprocessed.smi:33|AV-procd|sdf|205|dock7
  -GOLD-   2262015493D 1   1.00000     0.00000
 Structure written by MMmdl.
 67 72  0  0  0  0  0  0  0  0  1 V2000
  154.0770  139.8275  159.0020 O   0  0  0  0  0  0  0  0  0  0  0  0
  153.0436  140.4933  158.9118 C   0  0  0  0  0  0  0  0  0  0  0  0
  152.0781  140.2530  158.0041 O   0  0  0  0  0  0  0  0  0  0  0  0
  152.2373  139.2146  157.0509 C   0  0  0  0  0  0  0  0  0  0  0  0
  151.4273  139.5525  155.7896 C   0  0  2  0  0  0  0  0  0  0  0  0
  150.0897  139.0986  155.9958 O   0  0  0  0  0  0  0  0  0  0  0  0
  149.7022  138.2148  154.9860 C   0  0  2  0  0  0  0  0  0  0  0  0
  148.7623  137.1847  155.5424 N   0  0  0  0  0  0  0  0  0  0  0  0
  148.5353  135.9042  155.0807 C   0  0  0  0  0  0  0  0  0  0  0  0
  147.6164  135.2294  155.7168 N   0  0  0  0  0  0  0  0  0  0  0  0
  147.1467  136.1225  156.6695 C   0  0  0  0  0  0  0  0  0  0  0  0
  146.1416  136.0575  157.6722 C   0  0  0  0  0  0  0  0  0  0  0  0
  145.3836  134.9561  157.8856 N   0  0  0  0  0  0  0  0  0  0  0  0
  144.4015  134.6045  156.8488 C   0  0  0  0  0  0  0  0  0  0  0  0
  143.4043  133.9479  157.1551 O   0  0  0  0  0  0  0  0  0  0  0  0
  144.5747  135.0866  155.4363 C   0  0  0  0  0  0  0  0  0  0  0  0
  144.0603  136.3445  155.0522 C   0  0  0  0  0  0  0  0  0  0  0  0
  144.2049  136.7962  153.7262 C   0  0  0  0  0  0  0  0  0  0  0  0
  144.8484  135.9859  152.7715 C   0  0  0  0  0  0  0  0  0  0  0  0
  145.3391  134.7190  153.1408 C   0  0  0  0  0  0  0  0  0  0  0  0
  145.1946  134.2665  154.4664 C   0  0  0  0  0  0  0  0  0  0  0  0
  145.6083  134.2185  159.1372 C   0  0  0  0  0  0  0  0  0  0  0  0
  145.3194  133.0221  159.1993 O   0  0  0  0  0  0  0  0  0  0  0  0
  146.2288  134.9027  160.3221 C   0  0  0  0  0  0  0  0  0  0  0  0
  147.4213  134.3988  160.8862 C   0  0  0  0  0  0  0  0  0  0  0  0
  148.0014  135.0323  162.0025 C   0  0  0  0  0  0  0  0  0  0  0  0
  147.3818  136.1599  162.5743 C   0  0  0  0  0  0  0  0  0  0  0  0
  146.1766  136.6489  162.0353 C   0  0  0  0  0  0  0  0  0  0  0  0
  145.5975  136.0181  160.9175 C   0  0  0  0  0  0  0  0  0  0  0  0
  145.9293  137.1604  158.4355 N   0  0  0  0  0  0  0  0  0  0  0  0
  146.6554  138.2617  158.2255 C   0  0  0  0  0  0  0  0  0  0  0  0
  147.6219  138.4655  157.3277 N   0  0  0  0  0  0  0  0  0  0  0  0
  147.8460  137.3567  156.5625 C   0  0  0  0  0  0  0  0  0  0  0  0
  151.0007  137.6229  154.4217 C   0  0  2  0  0  0  0  0  0  0  0  0
  151.4989  136.5400  155.1893 O   0  0  0  0  0  0  0  0  0  0  0  0
  151.8961  138.8435  154.5115 C   0  0  2  0  0  0  0  0  0  0  0  0
  153.1981  138.5556  154.4608 F   0  0  0  0  0  0  0  0  0  0  0  0
  152.7311  141.6526  159.7966 C   0  0  0  0  0  0  0  0  0  0  0  0
  152.0598  142.7750  159.2579 C   0  0  0  0  0  0  0  0  0  0  0  0
  151.7516  143.8842  160.0694 C   0  0  0  0  0  0  0  0  0  0  0  0
  152.1119  143.8851  161.4294 C   0  0  0  0  0  0  0  0  0  0  0  0
  152.7806  142.7750  161.9773 C   0  0  0  0  0  0  0  0  0  0  0  0
  153.0888  141.6644  161.1676 C   0  0  0  0  0  0  0  0  0  0  0  0
  153.2897  139.0641  156.8082 H   0  0  0  0  0  0  0  0  0  0  0  0
  151.8690  138.2860  157.4887 H   0  0  0  0  0  0  0  0  0  0  0  0
  151.4115  140.6331  155.6428 H   0  0  0  0  0  0  0  0  0  0  0  0
  149.1178  138.7470  154.2340 H   0  0  0  0  0  0  0  0  0  0  0  0
  149.0794  135.4786  154.2500 H   0  0  0  0  0  0  0  0  0  0  0  0
  143.5643  136.9746  155.7765 H   0  0  0  0  0  0  0  0  0  0  0  0
  143.8207  137.7646  153.4417 H   0  0  0  0  0  0  0  0  0  0  0  0
  144.9591  136.3331  151.7548 H   0  0  0  0  0  0  0  0  0  0  0  0
  145.8254  134.0932  152.4069 H   0  0  0  0  0  0  0  0  0  0  0  0
  145.5708  133.2901  154.7364 H   0  0  0  0  0  0  0  0  0  0  0  0
  147.9059  133.5348  160.4546 H   0  0  0  0  0  0  0  0  0  0  0  0
  148.9220  134.6528  162.4207 H   0  0  0  0  0  0  0  0  0  0  0  0
  147.8272  136.6454  163.4300 H   0  0  0  0  0  0  0  0  0  0  0  0
  145.6950  137.5074  162.4798 H   0  0  0  0  0  0  0  0  0  0  0  0
  144.6700  136.3993  160.5145 H   0  0  0  0  0  0  0  0  0  0  0  0
  146.4285  139.1006  158.8664 H   0  0  0  0  0  0  0  0  0  0  0  0
  150.8506  137.2933  153.3932 H   0  0  0  0  0  0  0  0  0  0  0  0
  151.6223  136.8346  156.0788 H   0  0  0  0  0  0  0  0  0  0  0  0
  151.6952  139.4911  153.6569 H   0  0  0  0  0  0  0  0  0  0  0  0
  151.7728  142.7974  158.2162 H   0  0  0  0  0  0  0  0  0  0  0  0
  151.2380  144.7351  159.6467 H   0  0  0  0  0  0  0  0  0  0  0  0
  151.8759  144.7359  162.0514 H   0  0  0  0  0  0  0  0  0  0  0  0
  153.0580  142.7746  163.0211 H   0  0  0  0  0  0  0  0  0  0  0  0
  153.6028  140.8292  161.6202 H   0  0  0  0  0  0  0  0  0  0  0  0
  1  2  2  0  0  0  0
  2  3  1  0  0  0  0
  2 38  1  0  0  0  0
  3  4  1  0  0  0  0
  4  5  1  0  0  0  0
  4 44  1  0  0  0  0
  4 45  1  0  0  0  0
  5 36  1  0  0  0  0
  5  6  1  0  0  0  0
  5 46  1  0  0  0  0
  6  7  1  0  0  0  0
  7  8  1  0  0  0  0
  7 34  1  0  0  0  0
  7 47  1  0  0  0  0
  8 33  1  0  0  0  0
  8  9  1  0  0  0  0
  9 10  2  0  0  0  0
  9 48  1  0  0  0  0
 10 11  1  0  0  0  0
 11 33  2  0  0  0  0
 11 12  1  0  0  0  0
 12 13  1  0  0  0  0
 12 30  2  0  0  0  0
 13 14  1  0  0  0  0
 13 22  1  0  0  0  0
 14 15  2  0  0  0  0
 14 16  1  0  0  0  0
 16 21  1  0  0  0  0
 16 17  2  0  0  0  0
 17 18  1  0  0  0  0
 17 49  1  0  0  0  0
 18 19  2  0  0  0  0
 18 50  1  0  0  0  0
 19 20  1  0  0  0  0
 19 51  1  0  0  0  0
 20 21  2  0  0  0  0
 20 52  1  0  0  0  0
 21 53  1  0  0  0  0
 22 23  2  0  0  0  0
 22 24  1  0  0  0  0
 24 29  1  0  0  0  0
 24 25  2  0  0  0  0
 25 26  1  0  0  0  0
 25 54  1  0  0  0  0
 26 27  2  0  0  0  0
 26 55  1  0  0  0  0
 27 28  1  0  0  0  0
 27 56  1  0  0  0  0
 28 29  2  0  0  0  0
 28 57  1  0  0  0  0
 29 58  1  0  0  0  0
 30 31  1  0  0  0  0
 31 32  2  0  0  0  0
 31 59  1  0  0  0  0
 32 33  1  0  0  0  0
 34 35  1  0  0  0  0
 34 36  1  0  0  0  0
 34 60  1  0  0  0  0
 35 61  1  0  0  0  0
 36 37  1  0  0  0  0
 36 62  1  0  0  0  0
 38 43  1  0  0  0  0
 38 39  2  0  0  0  0
 39 40  1  0  0  0  0
 39 63  1  0  0  0  0
 40 41  2  0  0  0  0
 40 64  1  0  0  0  0
 41 42  1  0  0  0  0
 41 65  1  0  0  0  0
 42 43  2  0  0  0  0
 42 66  1  0  0  0  0
 43 67  1  0  0  0  0
M  END
> <s_m_source_file>
AV-unprocessed.smi

> <i_m_source_file_index>
33

> <i_lp_mmshare_version>
43012

> <i_f3d_flags>
0

> <s_epik_input>
W2NIXTFbY0hdW2NIXVtjSF1bY0hdYzFDKD1PKU9bQ0gyXVtDQEBIXTJPW0NASF0oW0NAQEhdKFtPSF0pW0NAQEhdMkYpbihbY0hdbjMpYyhjMzQpbltjSF1uYzROKEMoPU8pYzVbY0hdW2NIXVtjSF1bY0hdW2NIXTUpQyg9TyljNltjSF1bY0hdW2NIXVtjSF1bY0hdNg==

> <s_epik_cmdline>
J2VwaWtfcHl0aG9uJywgJy1waCcsICc3LjAnLCAnLXRuJywgJzgnLCAnLW1hJywgJzIwMCcsICctbWV0YWxfYmluZGluZycsICctaW1hZScsICc8aW5maWxlLm1hZT4nLCAnLW9tYWUnLCAnPG91dGZpbGUubWFlPic=

> <r_lp_tautomer_probability>
1

> <r_epik_Ionization_Penalty>
0.00067664

> <r_epik_Ionization_Penalty_Charging>
0

> <r_epik_Ionization_Penalty_Neutral>
0.00067664

> <r_epik_State_Penalty>
0.000428095

> <r_epik_Charging_Adjusted_Penalty>
0.000428095

> <i_epik_Tot_Q>
0

> <i_epik_Tot_abs_Q>
0

> <r_epik_Metal_State_Penalty>
-0

> <b_epik_Metal_Only>
0

> <s_epik_Chemistry_Notes>
This compound has an ester and may undergo hydrolysis at high or low pH. This compound contains an acetal/aminal-like group ( X-CH(R)-Y where X, Y are N, S, or O) that may be acid/base labile, releasing an aldehyde.

> <s_lp_Force_Field>
OPLS_2005

> <r_lp_Energy>
85.1188

> <b_lp_Chiralities_Consistent>
1

> <s_lp_Variant>
AV-unprocessed.smi:33-7

> <Gold.Version>
5.8.1

> <Gold.Id.Protein>
6NUR|6NUR_protein|mol2

> <Gold.PLP.Fitness>
61.4522

> <Gold.PLP.PLP>
-58.2485

> <Gold.PLP.part.hbond>
-3.0000

> <Gold.PLP.part.metal>
0.0000

> <Gold.PLP.part.buried>
-8.5367

> <Gold.PLP.part.nonpolar>
-47.7272

> <Gold.PLP.part.repulsive>
0.1167

> <Gold.PLP.ligand.clash>
0.0000

> <Gold.PLP.ligand.torsion>
6.0650

> <Gold.PLP.Chemscore.Hbond>
2.8000

> <Gold.PLP.Chemscore.CHOScore>
0.9485

> <Gold.PLP.Chemscore.Metal>
0.0000

> <Gold.Chemscore.Hbonds>
donor molecule, donor type, donor heavy atom, donor atom, acceptor molecule, acceptor atom, score
      P1  H  7997  8010       L1     1  1.00
      P1  H 10752 10764       L1    35  1.00
      P1  H 11000 11005       L1    15  0.59
      L1  C     9    48       P1  7948  0.95

> <Gold.PLP.Chemscore.Internal.Correction>
4.0882

> <Gold.Rescore>
     Score         DG    S(hbond)    S(metal)    S(lipo)     H(rot)  DE(clash)    DE(int)     intcor
     12.59     -24.00       2.40        0.00     145.01       2.52       0.13      11.29       ----

> <Gold.Chemscore.Fitness>
12.5874

> <Gold.Chemscore.DG>
-24.0031

> <Gold.Chemscore.ZeroCoef>
-5.4800

> <Gold.Chemscore.Hbond>
2.4012

> <Gold.Chemscore.Metal>
0.0000

> <Gold.Chemscore.Lipo>
145.0110

> <Gold.Chemscore.Internal_Hbond>
0.0000

> <Gold.Chemscore.DEClash>
0.1306

> <Gold.Chemscore.DEInternal>
11.2850

> <Gold.Chemscore.Rot>
2.5247

> <Gold.Chemscore.Internal.Correction>
   9.000000E+99

> <Gold.Chemscore.Hbonds>
donor molecule, donor type, donor heavy atom, donor atom, acceptor molecule, acceptor atom, score
      P1  H  7997  8010       L1     1  0.49
      P1  H 10752 10764       L1    35  0.55
      P1  H 11000 11005       L1    15  0.56

> <Gold.Chemscore.Hbond.Weighted>
-8.0201

> <Gold.Chemscore.Metal.Weighted>
-0.0000

> <Gold.Chemscore.Lipo.Weighted>
-16.9663

> <Gold.Chemscore.Internal_Hbond.Weighted>
0.0000

> <Gold.Chemscore.DEClash.Weighted>
0.1306

> <Gold.Chemscore.DEInternal.Weighted>
11.2850

> <Gold.Chemscore.Rot.Weighted>
6.4633

> <Gold.Chemscore.Internal.Correction.Weighted>
   9.000000E+99

> <Gold.Protein.RotatedTorsions>
[ 6907 6896 6895 6894 ] final   67.81 input  -60.11 | X-H torsion
[ 7974 7965 7964 7962 ] final -114.37 input  175.53 | X-H torsion
[ 8008 7997 7996 7995 ] final    8.82 input   59.86 | X-H torsion
[ 10167 10162 10161 10158 ] final -120.50 input  -65.29 | X-H torsion
[ 10718 10713 10712 10709 ] final -124.13 input   66.30 | X-H torsion
[ 10763 10752 10751 10750 ] final  -48.82 input  -60.55 | X-H torsion
[ 11005 11000 10999 10996 ] final  -95.47 input  -57.11 | X-H torsion

> <Gold.Protein.ActiveResidues>
 VAL166  LYS551  ARG553  GLY616  TRP617  ASP618  TYR619  PRO620  LYS621  CYS622 
 ASP623  PHE694  ASN695  SER759  ASP760  ASP761  ALA762  ILE779  LEU786  VAL792 
 PHE793  MET794  SER795  GLU796  ALA797  LYS798  CYS799  TRP800  GLU811  SER814 

> <Gold.Protein.RotatedAtoms>
  152.4577  134.5254  159.9794 H   0  0  0  0  0  0  0  0  0  0  0  0  # atno 6907 bound_to 6896
  151.5311  133.3443  159.2926 H   0  0  0  0  0  0  0  0  0  0  0  0  # atno 6908 bound_to 6896
  150.8528  134.7888  159.7084 H   0  0  0  0  0  0  0  0  0  0  0  0  # atno 6909 bound_to 6896
  145.1209  140.8668  143.3814 H   0  0  0  0  0  0  0  0  0  0  0  0  # atno 7974 bound_to 7965
  154.7719  140.2803  155.6131 H   0  0  0  0  0  0  0  0  0  0  0  0  # atno 8008 bound_to 7997
  156.2935  140.2640  156.2451 H   0  0  0  0  0  0  0  0  0  0  0  0  # atno 8009 bound_to 7997
  154.9890  140.0374  157.2301 H   0  0  0  0  0  0  0  0  0  0  0  0  # atno 8010 bound_to 7997
  140.0352  143.5209  152.2157 H   0  0  0  0  0  0  0  0  0  0  0  0  # atno 10167 bound_to 10162
  156.1561  130.6569  150.9983 H   0  0  0  0  0  0  0  0  0  0  0  0  # atno 10718 bound_to 10713
  154.0840  135.6587  153.4842 H   0  0  0  0  0  0  0  0  0  0  0  0  # atno 10763 bound_to 10752
  153.0345  135.5186  154.7446 H   0  0  0  0  0  0  0  0  0  0  0  0  # atno 10764 bound_to 10752
  154.6550  135.3006  154.9908 H   0  0  0  0  0  0  0  0  0  0  0  0  # atno 10765 bound_to 10752
  141.1441  133.8028  157.0439 H   0  0  0  0  0  0  0  0  0  0  0  0  # atno 11005 bound_to 11000
  145.0741  139.3009  143.5817 LP  0  0  0  0  0  0  0  0  0  0  0  0  # atno 17320 bound_to 7965
  146.3521  140.0226  142.8657 LP  0  0  0  0  0  0  0  0  0  0  0  0  # atno 17321 bound_to 7965
  139.6050  144.7593  151.3083 LP  0  0  0  0  0  0  0  0  0  0  0  0  # atno 17342 bound_to 10162
  140.7285  143.6935  150.7903 LP  0  0  0  0  0  0  0  0  0  0  0  0  # atno 17343 bound_to 10162
  157.6696  131.0864  150.7645 LP  0  0  0  0  0  0  0  0  0  0  0  0  # atno 17370 bound_to 10713
  156.7710  130.4829  149.5418 LP  0  0  0  0  0  0  0  0  0  0  0  0  # atno 17371 bound_to 10713
  140.0675  134.9721  157.1410 LP  0  0  0  0  0  0  0  0  0  0  0  0  # atno 17394 bound_to 11000
  140.3759  134.2339  155.7174 LP  0  0  0  0  0  0  0  0  0  0  0  0  # atno 17395 bound_to 11000

$$$$
