AV-unprocessed.smi:189|AV-procd|sdf|1483|dock9
  -GOLD-   2262019303D 1   1.00000     0.00000
 Structure written by MMmdl.
 53 57  0  0  0  0  0  0  0  0  1 V2000
  153.2033  142.2640  163.2568 C   0  0  0  0  0  0  0  0  0  0  0  0
  153.3635  142.8193  161.8309 C   0  0  2  0  0  0  0  0  0  0  0  0
  152.8048  144.2493  161.6971 C   0  0  0  0  0  0  0  0  0  0  0  0
  151.5372  144.0777  160.8565 C   0  0  1  0  0  0  0  0  0  0  0  0
  151.0322  145.3276  160.1074 C   0  0  0  0  0  0  0  0  0  0  0  0
  151.8856  145.6819  158.8801 C   0  0  0  0  0  0  0  0  0  0  0  0
  152.0517  144.4668  157.9579 C   0  0  0  0  0  0  0  0  0  0  0  0
  152.7061  143.3038  158.7139 C   0  0  0  0  0  0  0  0  0  0  0  0
  151.8799  142.8837  159.9546 C   0  0  1  0  0  0  0  0  0  0  0  0
  152.6360  142.0102  160.8460 N   0  0  0  0  0  0  0  0  0  0  0  0
  153.1090  140.8085  160.4107 C   0  0  0  0  0  0  0  0  0  0  0  0
  152.6250  140.2914  159.2497 N   0  0  0  0  0  0  0  0  0  0  0  0
  153.0612  139.1165  158.7894 C   0  0  0  0  0  0  0  0  0  0  0  0
  153.9680  138.2983  159.3231 N   0  0  0  0  0  0  0  0  0  0  0  0
  154.4638  138.8046  160.4876 C   0  0  0  0  0  0  0  0  0  0  0  0
  154.0981  140.0407  161.0963 C   0  0  0  0  0  0  0  0  0  0  0  0
  154.8342  140.2165  162.2632 N   0  0  0  0  0  0  0  0  0  0  0  0
  155.5786  139.1485  162.3438 C   0  0  0  0  0  0  0  0  0  0  0  0
  155.4155  138.2430  161.3211 N   0  0  0  0  0  0  0  0  0  0  0  0
  156.1192  136.9797  161.1555 C   0  0  0  0  0  0  0  0  0  0  0  0
  155.2382  135.7346  161.4200 C   0  0  2  0  0  0  0  0  0  0  0  0
  154.1949  135.7010  160.4627 O   0  0  0  0  0  0  0  0  0  0  0  0
  154.6275  135.7424  162.8233 C   0  0  0  0  0  0  0  0  0  0  0  0
  155.3879  134.6409  163.5516 C   0  0  0  0  0  0  0  0  0  0  0  0
  155.6035  133.6863  162.5282 O   0  0  0  0  0  0  0  0  0  0  0  0
  156.0130  134.4019  161.3719 C   0  0  0  0  0  0  0  0  0  0  0  0
  153.7283  142.8898  163.9786 H   0  0  0  0  0  0  0  0  0  0  0  0
  153.6063  141.2558  163.3471 H   0  0  0  0  0  0  0  0  0  0  0  0
  152.1533  142.2283  163.5492 H   0  0  0  0  0  0  0  0  0  0  0  0
  154.4244  142.8425  161.5781 H   0  0  0  0  0  0  0  0  0  0  0  0
  152.6031  144.7259  162.6570 H   0  0  0  0  0  0  0  0  0  0  0  0
  153.5295  144.8724  161.1727 H   0  0  0  0  0  0  0  0  0  0  0  0
  150.7471  143.7620  161.5404 H   0  0  0  0  0  0  0  0  0  0  0  0
  150.0098  145.1434  159.7750 H   0  0  0  0  0  0  0  0  0  0  0  0
  150.9801  146.1775  160.7884 H   0  0  0  0  0  0  0  0  0  0  0  0
  151.4217  146.5031  158.3331 H   0  0  0  0  0  0  0  0  0  0  0  0
  152.8655  146.0399  159.1973 H   0  0  0  0  0  0  0  0  0  0  0  0
  151.0803  144.1574  157.5699 H   0  0  0  0  0  0  0  0  0  0  0  0
  152.6608  144.7372  157.0951 H   0  0  0  0  0  0  0  0  0  0  0  0
  152.8275  142.4552  158.0405 H   0  0  0  0  0  0  0  0  0  0  0  0
  153.7132  143.5990  159.0121 H   0  0  0  0  0  0  0  0  0  0  0  0
  150.9480  142.4160  159.6408 H   0  0  0  0  0  0  0  0  0  0  0  0
  152.6197  138.7844  157.8615 H   0  0  0  0  0  0  0  0  0  0  0  0
  156.2720  138.9906  163.1571 H   0  0  0  0  0  0  0  0  0  0  0  0
  156.5223  136.9419  160.1427 H   0  0  0  0  0  0  0  0  0  0  0  0
  156.9810  136.9815  161.8245 H   0  0  0  0  0  0  0  0  0  0  0  0
  153.7848  136.5523  160.4390 H   0  0  0  0  0  0  0  0  0  0  0  0
  154.7105  136.7051  163.3292 H   0  0  0  0  0  0  0  0  0  0  0  0
  153.5684  135.4812  162.7925 H   0  0  0  0  0  0  0  0  0  0  0  0
  156.3464  135.0058  163.9245 H   0  0  0  0  0  0  0  0  0  0  0  0
  154.8270  134.2207  164.3867 H   0  0  0  0  0  0  0  0  0  0  0  0
  155.8382  133.8251  160.4628 H   0  0  0  0  0  0  0  0  0  0  0  0
  157.0873  134.5668  161.4549 H   0  0  0  0  0  0  0  0  0  0  0  0
  1  2  1  0  0  0  0
  1 27  1  0  0  0  0
  1 28  1  0  0  0  0
  1 29  1  0  0  0  0
  2 10  1  0  0  0  0
  2  3  1  0  0  0  0
  2 30  1  0  0  0  0
  3  4  1  0  0  0  0
  3 31  1  0  0  0  0
  3 32  1  0  0  0  0
  4  9  1  0  0  0  0
  4  5  1  0  0  0  0
  4 33  1  0  0  0  0
  5  6  1  0  0  0  0
  5 34  1  0  0  0  0
  5 35  1  0  0  0  0
  6  7  1  0  0  0  0
  6 36  1  0  0  0  0
  6 37  1  0  0  0  0
  7  8  1  0  0  0  0
  7 38  1  0  0  0  0
  7 39  1  0  0  0  0
  8  9  1  0  0  0  0
  8 40  1  0  0  0  0
  8 41  1  0  0  0  0
  9 10  1  0  0  0  0
  9 42  1  0  0  0  0
 10 11  1  0  0  0  0
 11 16  1  0  0  0  0
 11 12  2  0  0  0  0
 12 13  1  0  0  0  0
 13 14  2  0  0  0  0
 13 43  1  0  0  0  0
 14 15  1  0  0  0  0
 15 19  1  0  0  0  0
 15 16  2  0  0  0  0
 16 17  1  0  0  0  0
 17 18  2  0  0  0  0
 18 19  1  0  0  0  0
 18 44  1  0  0  0  0
 19 20  1  0  0  0  0
 20 21  1  0  0  0  0
 20 45  1  0  0  0  0
 20 46  1  0  0  0  0
 21 26  1  0  0  0  0
 21 22  1  0  0  0  0
 21 23  1  0  0  0  0
 22 47  1  0  0  0  0
 23 24  1  0  0  0  0
 23 48  1  0  0  0  0
 23 49  1  0  0  0  0
 24 25  1  0  0  0  0
 24 50  1  0  0  0  0
 24 51  1  0  0  0  0
 25 26  1  0  0  0  0
 26 52  1  0  0  0  0
 26 53  1  0  0  0  0
M  END
> <s_m_source_file>
AV-unprocessed.smi

> <i_m_source_file_index>
189

> <i_lp_mmshare_version>
43012

> <i_f3d_flags>
0

> <s_epik_input>
W0NIMl0xW0NIMl1bQ0gyXVtDSDJdW0NASF0oW0NASF0xMilOKFtDQEhdKFtDSDNdKVtDSDJdMiljKG5bY0hdbjMpYyhjMzQpbltjSF1uNFtDSDJdW0NAQF01KFtPSF0pW0NIMl1bQ0gyXU9bQ0gyXTU=

> <s_epik_cmdline>
J2VwaWtfcHl0aG9uJywgJy1waCcsICc3LjAnLCAnLXRuJywgJzgnLCAnLW1hJywgJzIwMCcsICctbWV0YWxfYmluZGluZycsICctaW1hZScsICc8aW5maWxlLm1hZT4nLCAnLW9tYWUnLCAnPG91dGZpbGUubWFlPic=

> <r_lp_tautomer_probability>
1

> <r_epik_Ionization_Penalty>
0.00594261

> <r_epik_Ionization_Penalty_Charging>
0

> <r_epik_Ionization_Penalty_Neutral>
0.00594261

> <r_epik_State_Penalty>
0.00429776

> <r_epik_Charging_Adjusted_Penalty>
0.00429776

> <i_epik_Tot_Q>
0

> <i_epik_Tot_abs_Q>
0

> <r_epik_Metal_State_Penalty>
-0

> <b_epik_Metal_Only>
0

> <s_lp_Force_Field>
OPLS_2005

> <r_lp_Energy>
57.6623

> <b_lp_Chiralities_Consistent>
1

> <s_lp_Variant>
AV-unprocessed.smi:189-9

> <Gold.Version>
5.8.1

> <Gold.Id.Protein>
6NUR|6NUR_protein|mol2

> <Gold.PLP.Fitness>
46.0868

> <Gold.PLP.PLP>
-43.3842

> <Gold.PLP.part.hbond>
-1.0000

> <Gold.PLP.part.metal>
0.0000

> <Gold.PLP.part.buried>
-5.4570

> <Gold.PLP.part.nonpolar>
-36.9660

> <Gold.PLP.part.repulsive>
0.0000

> <Gold.PLP.ligand.clash>
0.0000

> <Gold.PLP.ligand.torsion>
0.2761

> <Gold.PLP.Chemscore.Hbond>
1.0000

> <Gold.PLP.Chemscore.CHOScore>
0.0000

> <Gold.PLP.Chemscore.Metal>
0.0000

> <Gold.Chemscore.Hbonds>
donor molecule, donor type, donor heavy atom, donor atom, acceptor molecule, acceptor atom, score
      P1  H  6896  6908       L1    22  0.80

> <Gold.PLP.Chemscore.Internal.Correction>
0.2549

> <Gold.Rescore>
     Score         DG    S(hbond)    S(metal)    S(lipo)     H(rot)  DE(clash)    DE(int)     intcor
     14.40     -19.71       0.85        0.00     135.60       1.74       2.69       2.62       ----

> <Gold.Chemscore.Fitness>
14.4040

> <Gold.Chemscore.DG>
-19.7149

> <Gold.Chemscore.ZeroCoef>
-5.4800

> <Gold.Chemscore.Hbond>
0.8472

> <Gold.Chemscore.Metal>
0.0000

> <Gold.Chemscore.Lipo>
135.5956

> <Gold.Chemscore.Internal_Hbond>
0.0000

> <Gold.Chemscore.DEClash>
2.6928

> <Gold.Chemscore.DEInternal>
2.6180

> <Gold.Chemscore.Rot>
1.7420

> <Gold.Chemscore.Internal.Correction>
   9.000000E+99

> <Gold.Chemscore.Hbonds>
donor molecule, donor type, donor heavy atom, donor atom, acceptor molecule, acceptor atom, score
      P1  H  6896  6908       L1    22  0.18

> <Gold.Chemscore.Hbond.Weighted>
-2.8296

> <Gold.Chemscore.Metal.Weighted>
-0.0000

> <Gold.Chemscore.Lipo.Weighted>
-15.8647

> <Gold.Chemscore.Internal_Hbond.Weighted>
0.0000

> <Gold.Chemscore.DEClash.Weighted>
2.6928

> <Gold.Chemscore.DEInternal.Weighted>
2.6180

> <Gold.Chemscore.Rot.Weighted>
4.4594

> <Gold.Chemscore.Internal.Correction.Weighted>
   9.000000E+99

> <Gold.Protein.RotatedTorsions>
[ 6907 6896 6895 6894 ] final  -50.58 input  -60.11 | X-H torsion
[ 7974 7965 7964 7962 ] final  135.77 input  175.53 | X-H torsion
[ 8008 7997 7996 7995 ] final   70.11 input   59.86 | X-H torsion
[ 10167 10162 10161 10158 ] final  -36.81 input  -65.29 | X-H torsion
[ 10718 10713 10712 10709 ] final  127.88 input   66.30 | X-H torsion
[ 10763 10752 10751 10750 ] final  -51.29 input  -60.55 | X-H torsion
[ 11005 11000 10999 10996 ] final  -25.69 input  -57.11 | X-H torsion

> <Gold.Protein.ActiveResidues>
 VAL166  LYS551  ARG553  GLY616  TRP617  ASP618  TYR619  PRO620  LYS621  CYS622 
 ASP623  PHE694  ASN695  SER759  ASP760  ASP761  ALA762  ILE779  LEU786  VAL792 
 PHE793  MET794  SER795  GLU796  ALA797  LYS798  CYS799  TRP800  GLU811  SER814 

> <Gold.Protein.RotatedAtoms>
  150.8693  134.8064  159.7142 H   0  0  0  0  0  0  0  0  0  0  0  0  # atno 6907 bound_to 6896
  152.4704  134.4972  159.9723 H   0  0  0  0  0  0  0  0  0  0  0  0  # atno 6908 bound_to 6896
  151.5063  133.3455  159.2913 H   0  0  0  0  0  0  0  0  0  0  0  0  # atno 6909 bound_to 6896
  144.9631  139.4688  143.5470 H   0  0  0  0  0  0  0  0  0  0  0  0  # atno 7974 bound_to 7965
  155.7338  140.3491  155.5072 H   0  0  0  0  0  0  0  0  0  0  0  0  # atno 8008 bound_to 7997
  155.9158  140.1058  157.1266 H   0  0  0  0  0  0  0  0  0  0  0  0  # atno 8009 bound_to 7997
  154.4062  140.1259  156.4602 H   0  0  0  0  0  0  0  0  0  0  0  0  # atno 8010 bound_to 7997
  140.7134  143.3384  151.2412 H   0  0  0  0  0  0  0  0  0  0  0  0  # atno 10167 bound_to 10162
  157.5294  131.1098  150.9033 H   0  0  0  0  0  0  0  0  0  0  0  0  # atno 10718 bound_to 10713
  154.1241  135.6530  153.4909 H   0  0  0  0  0  0  0  0  0  0  0  0  # atno 10763 bound_to 10752
  153.0216  135.5277  154.7067 H   0  0  0  0  0  0  0  0  0  0  0  0  # atno 10764 bound_to 10752
  154.6283  135.2973  155.0217 H   0  0  0  0  0  0  0  0  0  0  0  0  # atno 10765 bound_to 10752
  140.8961  133.7556  156.0483 H   0  0  0  0  0  0  0  0  0  0  0  0  # atno 11005 bound_to 11000
  146.3359  139.8794  142.8827 LP  0  0  0  0  0  0  0  0  0  0  0  0  # atno 17320 bound_to 7965
  145.2670  141.0096  143.3793 LP  0  0  0  0  0  0  0  0  0  0  0  0  # atno 17321 bound_to 7965
  139.6885  143.9733  152.2847 LP  0  0  0  0  0  0  0  0  0  0  0  0  # atno 17342 bound_to 10162
  139.9386  144.6696  150.8289 LP  0  0  0  0  0  0  0  0  0  0  0  0  # atno 17343 bound_to 10162
  156.9619  130.5458  149.5286 LP  0  0  0  0  0  0  0  0  0  0  0  0  # atno 17370 bound_to 10713
  156.0411  130.5493  150.8772 LP  0  0  0  0  0  0  0  0  0  0  0  0  # atno 17371 bound_to 10713
  140.8288  134.3203  157.5356 LP  0  0  0  0  0  0  0  0  0  0  0  0  # atno 17394 bound_to 11000
  139.8736  134.9351  156.3625 LP  0  0  0  0  0  0  0  0  0  0  0  0  # atno 17395 bound_to 11000

$$$$
