AV-unprocessed.smi:1645|AV-procd|sdf|6621|dock10
  -GOLD-   22720 7323D 1   1.00000     0.00000
 Structure written by MMmdl.
 55 58  0  0  0  0  0  0  0  0  4 V2000
  146.5561  140.1411  152.7625 O   0  0  0  0  0  0  0  0  0  0  0  0
  147.1255  139.0449  152.7109 C   0  0  0  0  0  0  0  0  0  0  0  0
  148.2922  138.8545  153.3522 N   0  0  0  0  0  0  0  0  0  0  0  0
  149.0028  139.7453  154.2008 C   0  0  0  0  0  0  0  0  0  0  0  0
  150.2255  139.3039  154.7451 C   0  0  0  0  0  0  0  0  0  0  0  0
  150.9527  140.1462  155.6109 C   0  0  0  0  0  0  0  0  0  0  0  0
  150.4443  141.4281  155.9414 C   0  0  0  0  0  0  0  0  0  0  0  0
  151.1030  142.3422  156.7948 N   0  0  0  0  0  0  0  0  0  0  0  0
  151.1407  142.0357  158.2261 C   0  0  0  0  0  0  0  0  0  0  0  0
  152.2099  142.8690  158.9538 C   0  0  0  0  0  0  0  0  0  0  0  0
  152.0362  144.3668  158.6692 C   0  0  0  0  0  0  0  0  0  0  0  0
  152.0444  144.6123  157.1541 C   0  0  0  0  0  0  0  0  0  0  0  0
  150.9750  143.7614  156.4482 C   0  0  0  0  0  0  0  0  0  0  0  0
  149.2569  141.7994  155.4039 N   0  3  0  0  0  0  0  0  0  0  0  0
  148.5295  141.0259  154.5696 C   0  0  0  0  0  0  0  0  0  0  0  0
  146.7268  137.9351  152.0333 N   0  5  0  0  0  0  0  0  0  0  0  0
  145.7903  136.9337  152.5488 C   0  0  1  0  0  0  0  0  0  0  0  0
  144.4237  137.5467  152.8633 C   0  0  0  0  0  0  0  0  0  0  0  0
  143.4741  136.3548  152.7484 C   0  0  0  0  0  0  0  0  0  0  0  0
  144.0200  135.5368  151.6446 N   0  3  2  0  0  0  0  0  0  0  0  0
  143.6761  134.0940  151.7086 C   0  0  0  0  0  0  0  0  0  0  0  0
  144.3680  133.3267  150.5688 C   0  0  0  0  0  0  0  0  0  0  0  0
  145.9008  133.5051  150.5751 C   0  0  0  0  0  0  0  0  0  0  0  0
  146.3695  134.5906  151.5612 C   0  0  0  0  0  0  0  0  0  0  0  0
  145.4700  135.8521  151.4912 C   0  0  2  0  0  0  0  0  0  0  0  0
  148.7450  137.9706  153.1709 H   0  0  0  0  0  0  0  0  0  0  0  0
  150.6100  138.3246  154.4988 H   0  0  0  0  0  0  0  0  0  0  0  0
  151.8853  139.7828  156.0148 H   0  0  0  0  0  0  0  0  0  0  0  0
  150.1573  142.2269  158.6576 H   0  0  0  0  0  0  0  0  0  0  0  0
  151.3662  140.9802  158.3808 H   0  0  0  0  0  0  0  0  0  0  0  0
  152.1602  142.6840  160.0270 H   0  0  0  0  0  0  0  0  0  0  0  0
  153.2020  142.5505  158.6309 H   0  0  0  0  0  0  0  0  0  0  0  0
  151.0965  144.7183  159.0970 H   0  0  0  0  0  0  0  0  0  0  0  0
  152.8325  144.9368  159.1489 H   0  0  0  0  0  0  0  0  0  0  0  0
  151.8758  145.6691  156.9455 H   0  0  0  0  0  0  0  0  0  0  0  0
  153.0286  144.3705  156.7503 H   0  0  0  0  0  0  0  0  0  0  0  0
  151.0603  143.9243  155.3739 H   0  0  0  0  0  0  0  0  0  0  0  0
  149.9799  144.1006  156.7388 H   0  0  0  0  0  0  0  0  0  0  0  0
  147.5955  141.4590  154.2443 H   0  0  0  0  0  0  0  0  0  0  0  0
  146.1528  136.4383  153.4513 H   0  0  0  0  0  0  0  0  0  0  0  0
  144.3887  138.0198  153.8451 H   0  0  0  0  0  0  0  0  0  0  0  0
  144.1560  138.2985  152.1185 H   0  0  0  0  0  0  0  0  0  0  0  0
  143.4610  135.7821  153.6796 H   0  0  0  0  0  0  0  0  0  0  0  0
  142.4488  136.6619  152.5397 H   0  0  0  0  0  0  0  0  0  0  0  0
  143.9746  133.6805  152.6732 H   0  0  0  0  0  0  0  0  0  0  0  0
  142.5941  133.9800  151.6380 H   0  0  0  0  0  0  0  0  0  0  0  0
  144.1160  132.2671  150.6245 H   0  0  0  0  0  0  0  0  0  0  0  0
  143.9718  133.6800  149.6159 H   0  0  0  0  0  0  0  0  0  0  0  0
  146.3868  132.5612  150.8237 H   0  0  0  0  0  0  0  0  0  0  0  0
  146.2338  133.7579  149.5680 H   0  0  0  0  0  0  0  0  0  0  0  0
  146.3602  134.1657  152.5675 H   0  0  0  0  0  0  0  0  0  0  0  0
  147.4106  134.8431  151.3516 H   0  0  0  0  0  0  0  0  0  0  0  0
  145.5629  136.2812  150.4917 H   0  0  0  0  0  0  0  0  0  0  0  0
  143.5933  135.8935  150.8018 H   0  0  0  0  0  0  0  0  0  0  0  0
  148.8876  142.7194  155.6432 H   0  0  0  0  0  0  0  0  0  0  0  0
  1  2  2  0  0  0  0
  2  3  1  0  0  0  0
  2 16  1  0  0  0  0
  3  4  1  0  0  0  0
  3 26  1  0  0  0  0
  4 15  1  0  0  0  0
  4  5  2  0  0  0  0
  5  6  1  0  0  0  0
  5 27  1  0  0  0  0
  6  7  2  0  0  0  0
  6 28  1  0  0  0  0
  7  8  1  0  0  0  0
  7 14  1  0  0  0  0
  8 13  1  0  0  0  0
  8  9  1  0  0  0  0
  9 10  1  0  0  0  0
  9 29  1  0  0  0  0
  9 30  1  0  0  0  0
 10 11  1  0  0  0  0
 10 31  1  0  0  0  0
 10 32  1  0  0  0  0
 11 12  1  0  0  0  0
 11 33  1  0  0  0  0
 11 34  1  0  0  0  0
 12 13  1  0  0  0  0
 12 35  1  0  0  0  0
 12 36  1  0  0  0  0
 13 37  1  0  0  0  0
 13 38  1  0  0  0  0
 14 15  2  0  0  0  0
 14 55  1  0  0  0  0
 15 39  1  0  0  0  0
 16 17  1  0  0  0  0
 17 25  1  0  0  0  0
 17 18  1  0  0  0  0
 17 40  1  0  0  0  0
 18 19  1  0  0  0  0
 18 41  1  0  0  0  0
 18 42  1  0  0  0  0
 19 20  1  0  0  0  0
 19 43  1  0  0  0  0
 19 44  1  0  0  0  0
 20 25  1  0  0  0  0
 20 21  1  0  0  0  0
 20 54  1  0  0  0  0
 21 22  1  0  0  0  0
 21 45  1  0  0  0  0
 21 46  1  0  0  0  0
 22 23  1  0  0  0  0
 22 47  1  0  0  0  0
 22 48  1  0  0  0  0
 23 24  1  0  0  0  0
 23 49  1  0  0  0  0
 23 50  1  0  0  0  0
 24 25  1  0  0  0  0
 24 51  1  0  0  0  0
 24 52  1  0  0  0  0
 25 53  1  0  0  0  0
M  CHG  1  14   1
M  CHG  1  16  -1
M  CHG  1  20   1
M  END
> <s_m_source_file>
AV-unprocessed.smi

> <i_m_source_file_index>
1645

> <i_lp_mmshare_version>
43012

> <i_f3d_flags>
0

> <s_epik_input>
W0NIMl0xW0NIMl1bQ0gyXVtDSDJdW0NASF0oTjEyKVtDQEBIXShbQ0gyXVtDSDJdMilbTkhdQyg9TylbTkhdYzNbY0hdW2NIXWMobltjSF0zKU40W0NIMl1bQ0gyXVtDSDJdW0NIMl1bQ0gyXTQ=

> <s_epik_cmdline>
J2VwaWtfcHl0aG9uJywgJy1waCcsICc3LjAnLCAnLXRuJywgJzgnLCAnLW1hJywgJzIwMCcsICctbWV0YWxfYmluZGluZycsICctaW1hZScsICc8aW5maWxlLm1hZT4nLCAnLW9tYWUnLCAnPG91dGZpbGUubWFlPic=

> <r_lp_tautomer_probability>
0.999994

> <r_epik_Ionization_Penalty>
8.55589

> <r_epik_Ionization_Penalty_Charging>
8.55589

> <r_epik_Ionization_Penalty_Neutral>
3.8092e-06

> <r_epik_State_Penalty>
8.15703

> <r_epik_Charging_Adjusted_Penalty>
16.7129

> <i_epik_Tot_Q>
1

> <i_epik_Tot_abs_Q>
3

> <r_epik_Metal_State_Penalty>
4.13781

> <b_epik_Metal_Only>
1

> <s_lp_Force_Field>
OPLS_2005

> <r_lp_Energy>
56.4964

> <b_lp_Chiralities_Consistent>
1

> <s_lp_Variant>
AV-unprocessed.smi:1645-22

> <Gold.Version>
5.8.1

> <Gold.Id.Protein>
6NUR|6NUR_protein|mol2

> <Gold.PLP.Fitness>
48.0220

> <Gold.PLP.PLP>
-41.9116

> <Gold.PLP.part.hbond>
-2.9211

> <Gold.PLP.part.metal>
0.0000

> <Gold.PLP.part.buried>
2.4398

> <Gold.PLP.part.nonpolar>
-44.7976

> <Gold.PLP.part.repulsive>
4.4236

> <Gold.PLP.ligand.clash>
0.0000

> <Gold.PLP.ligand.torsion>
1.2193

> <Gold.PLP.Chemscore.Hbond>
2.6708

> <Gold.PLP.Chemscore.CHOScore>
0.0000

> <Gold.PLP.Chemscore.Metal>
0.0000

> <Gold.Chemscore.Hbonds>
donor molecule, donor type, donor heavy atom, donor atom, acceptor molecule, acceptor atom, score
      L1  H     3    26       P1  7948  0.64
      L1  H    14    55       P1  8028  2.00

> <Gold.PLP.Chemscore.Internal.Correction>
0.5366

> <Gold.Rescore>
     Score         DG    S(hbond)    S(metal)    S(lipo)     H(rot)  DE(clash)    DE(int)     intcor
     14.59     -22.64       1.50        0.00     129.57       1.17       5.46       2.59       ----

> <Gold.Chemscore.Fitness>
14.5943

> <Gold.Chemscore.DG>
-22.6421

> <Gold.Chemscore.ZeroCoef>
-5.4800

> <Gold.Chemscore.Hbond>
1.4986

> <Gold.Chemscore.Metal>
0.0000

> <Gold.Chemscore.Lipo>
129.5717

> <Gold.Chemscore.Internal_Hbond>
0.0000

> <Gold.Chemscore.DEClash>
5.4618

> <Gold.Chemscore.DEInternal>
2.5860

> <Gold.Chemscore.Rot>
1.1731

> <Gold.Chemscore.Internal.Correction>
   9.000000E+99

> <Gold.Chemscore.Hbonds>
donor molecule, donor type, donor heavy atom, donor atom, acceptor molecule, acceptor atom, score
      L1  H     3    26       P1  7948  0.62
      L1  H    14    55       P1  8028  0.95

> <Gold.Chemscore.Hbond.Weighted>
-5.0054

> <Gold.Chemscore.Metal.Weighted>
-0.0000

> <Gold.Chemscore.Lipo.Weighted>
-15.1599

> <Gold.Chemscore.Internal_Hbond.Weighted>
0.0000

> <Gold.Chemscore.DEClash.Weighted>
5.4618

> <Gold.Chemscore.DEInternal.Weighted>
2.5860

> <Gold.Chemscore.Rot.Weighted>
3.0032

> <Gold.Chemscore.Internal.Correction.Weighted>
   9.000000E+99

> <Gold.Protein.RotatedTorsions>
[ 6907 6896 6895 6894 ] final -176.51 input  -60.11 | X-H torsion
[ 7974 7965 7964 7962 ] final   64.78 input  175.53 | X-H torsion
[ 8008 7997 7996 7995 ] final   17.14 input   59.86 | X-H torsion
[ 10167 10162 10161 10158 ] final  157.82 input  -65.29 | X-H torsion
[ 10718 10713 10712 10709 ] final -163.47 input   66.30 | X-H torsion
[ 10763 10752 10751 10750 ] final  171.30 input  -60.55 | X-H torsion
[ 11005 11000 10999 10996 ] final   83.21 input  -57.11 | X-H torsion

> <Gold.Protein.ActiveResidues>
 VAL166  LYS551  ARG553  GLY616  TRP617  ASP618  TYR619  PRO620  LYS621  CYS622 
 ASP623  PHE694  ASN695  SER759  ASP760  ASP761  ALA762  ILE779  LEU786  VAL792 
 PHE793  MET794  SER795  GLU796  ALA797  LYS798  CYS799  TRP800  GLU811  SER814 

> <Gold.Protein.RotatedAtoms>
  151.6060  133.3351  159.3057 H   0  0  0  0  0  0  0  0  0  0  0  0  # atno 6907 bound_to 6896
  150.8182  134.7379  159.6760 H   0  0  0  0  0  0  0  0  0  0  0  0  # atno 6908 bound_to 6896
  152.4277  134.5843  160.0008 H   0  0  0  0  0  0  0  0  0  0  0  0  # atno 6909 bound_to 6896
  145.8462  139.3226  143.0902 H   0  0  0  0  0  0  0  0  0  0  0  0  # atno 7974 bound_to 7965
  154.8870  140.2981  155.5392 H   0  0  0  0  0  0  0  0  0  0  0  0  # atno 8008 bound_to 7997
  156.3021  140.2431  156.3815 H   0  0  0  0  0  0  0  0  0  0  0  0  # atno 8009 bound_to 7997
  154.8657  140.0403  157.1682 H   0  0  0  0  0  0  0  0  0  0  0  0  # atno 8010 bound_to 7997
  139.4824  144.4882  151.8346 H   0  0  0  0  0  0  0  0  0  0  0  0  # atno 10167 bound_to 10162
  156.6252  130.8906  151.2966 H   0  0  0  0  0  0  0  0  0  0  0  0  # atno 10718 bound_to 10713
  154.4099  135.2756  155.2043 H   0  0  0  0  0  0  0  0  0  0  0  0  # atno 10763 bound_to 10752
  154.4033  135.6039  153.5913 H   0  0  0  0  0  0  0  0  0  0  0  0  # atno 10764 bound_to 10752
  152.9831  135.5932  154.4379 H   0  0  0  0  0  0  0  0  0  0  0  0  # atno 10765 bound_to 10752
  139.9038  134.8128  156.2279 H   0  0  0  0  0  0  0  0  0  0  0  0  # atno 11005 bound_to 11000
  145.9409  140.8980  143.0308 LP  0  0  0  0  0  0  0  0  0  0  0  0  # atno 17320 bound_to 7965
  144.6731  140.1548  143.7427 LP  0  0  0  0  0  0  0  0  0  0  0  0  # atno 17321 bound_to 7965
  140.4364  144.2046  150.5889 LP  0  0  0  0  0  0  0  0  0  0  0  0  # atno 17342 bound_to 10162
  140.4727  143.2407  151.9066 LP  0  0  0  0  0  0  0  0  0  0  0  0  # atno 17343 bound_to 10162
  157.7216  130.9566  150.1462 LP  0  0  0  0  0  0  0  0  0  0  0  0  # atno 17370 bound_to 10713
  156.2279  130.3679  149.8478 LP  0  0  0  0  0  0  0  0  0  0  0  0  # atno 17371 bound_to 10713
  141.0364  133.6961  156.1520 LP  0  0  0  0  0  0  0  0  0  0  0  0  # atno 17394 bound_to 11000
  140.7020  134.4553  157.5586 LP  0  0  0  0  0  0  0  0  0  0  0  0  # atno 17395 bound_to 11000

$$$$
