AV-unprocessed.smi:1756|AV-procd|sdf|7074|dock10
  -GOLD-   22720 8293D 1   1.00000     0.00000
 Structure written by MMmdl.
 37 38  0  0  0  0  0  0  0  0  2 V2000
  150.9859  140.2570  155.1035 O   0  0  0  0  0  0  0  0  0  0  0  0
  150.6148  140.0001  156.2486 C   0  0  0  0  0  0  0  0  0  0  0  0
  150.5874  140.9094  157.2333 N   0  0  0  0  0  0  0  0  0  0  0  0
  150.9809  142.3093  157.1076 C   0  0  0  0  0  0  0  0  0  0  0  0
  150.9946  143.0327  158.4666 C   0  0  1  0  0  0  0  0  0  0  0  0
  152.1849  142.6338  159.3657 C   0  0  0  0  0  0  0  0  0  0  0  0
  152.1954  143.4657  160.6529 C   0  0  0  0  0  0  0  0  0  0  0  0
  152.1390  144.9567  160.3076 C   0  0  0  0  0  0  0  0  0  0  0  0
  150.9563  145.2412  159.3691 C   0  0  0  0  0  0  0  0  0  0  0  0
  151.0590  144.4324  158.2010 O   0  0  0  0  0  0  0  0  0  0  0  0
  150.2090  138.7996  156.6996 N   0  0  0  0  0  0  0  0  0  0  0  0
  150.0744  137.5810  156.0124 C   0  0  0  0  0  0  0  0  0  0  0  0
  148.8927  136.9509  155.7627 C   0  0  0  0  0  0  0  0  0  0  0  0
  148.8211  135.6788  155.0549 C   0  0  0  0  0  0  0  0  0  0  0  0
  147.5168  135.0006  154.6740 C   0  0  0  0  0  0  0  0  0  0  0  0
  146.8391  134.6184  155.7568 F   0  0  0  0  0  0  0  0  0  0  0  0
  146.7525  135.8442  153.9818 F   0  0  0  0  0  0  0  0  0  0  0  0
  147.7413  133.9265  153.9170 F   0  0  0  0  0  0  0  0  0  0  0  0
  150.0671  135.2189  154.6754 C   0  0  0  0  0  0  0  0  0  0  0  0
  151.2813  135.7651  154.9045 N   0  5  0  0  0  0  0  0  0  0  0  0
  151.3366  136.9539  155.5685 C   0  0  0  0  0  0  0  0  0  0  0  0
  152.4101  137.5098  155.8041 O   0  0  0  0  0  0  0  0  0  0  0  0
  150.2737  140.6081  158.1442 H   0  0  0  0  0  0  0  0  0  0  0  0
  151.9484  142.4070  156.6121 H   0  0  0  0  0  0  0  0  0  0  0  0
  150.2557  142.7902  156.4506 H   0  0  0  0  0  0  0  0  0  0  0  0
  150.0578  142.8195  158.9847 H   0  0  0  0  0  0  0  0  0  0  0  0
  152.1381  141.5750  159.6200 H   0  0  0  0  0  0  0  0  0  0  0  0
  153.1199  142.7838  158.8246 H   0  0  0  0  0  0  0  0  0  0  0  0
  151.3360  143.1978  161.2689 H   0  0  0  0  0  0  0  0  0  0  0  0
  153.0856  143.2435  161.2417 H   0  0  0  0  0  0  0  0  0  0  0  0
  152.0528  145.5523  161.2167 H   0  0  0  0  0  0  0  0  0  0  0  0
  153.0687  145.2564  159.8224 H   0  0  0  0  0  0  0  0  0  0  0  0
  150.0059  145.0553  159.8716 H   0  0  0  0  0  0  0  0  0  0  0  0
  150.9582  146.2899  159.0716 H   0  0  0  0  0  0  0  0  0  0  0  0
  149.9940  138.7420  157.6844 H   0  0  0  0  0  0  0  0  0  0  0  0
  147.9588  137.3677  156.1005 H   0  0  0  0  0  0  0  0  0  0  0  0
  150.0922  134.2714  154.0958 H   0  0  0  0  0  0  0  0  0  0  0  0
  1  2  2  0  0  0  0
  2  3  1  0  0  0  0
  2 11  1  0  0  0  0
  3  4  1  0  0  0  0
  3 23  1  0  0  0  0
  4  5  1  0  0  0  0
  4 24  1  0  0  0  0
  4 25  1  0  0  0  0
  5 10  1  0  0  0  0
  5  6  1  0  0  0  0
  5 26  1  0  0  0  0
  6  7  1  0  0  0  0
  6 27  1  0  0  0  0
  6 28  1  0  0  0  0
  7  8  1  0  0  0  0
  7 29  1  0  0  0  0
  7 30  1  0  0  0  0
  8  9  1  0  0  0  0
  8 31  1  0  0  0  0
  8 32  1  0  0  0  0
  9 10  1  0  0  0  0
  9 33  1  0  0  0  0
  9 34  1  0  0  0  0
 11 12  1  0  0  0  0
 11 35  1  0  0  0  0
 12 21  1  0  0  0  0
 12 13  2  0  0  0  0
 13 14  1  0  0  0  0
 13 36  1  0  0  0  0
 14 15  1  0  0  0  0
 14 19  2  0  0  0  0
 15 16  1  0  0  0  0
 15 17  1  0  0  0  0
 15 18  1  0  0  0  0
 19 20  1  0  0  0  0
 19 37  1  0  0  0  0
 20 21  1  0  0  0  0
 21 22  2  0  0  0  0
M  CHG  1  20  -1
M  END
> <s_m_source_file>
AV-unprocessed.smi

> <i_m_source_file_index>
1756

> <i_lp_mmshare_version>
43012

> <i_f3d_flags>
0

> <s_epik_input>
Tz1jMVtuSF1bY0hdYyhDKEYpKEYpRilbY0hdYzFbTkhdQyg9TylbTkhdW0NIMl1bQ0BASF0yW0NIMl1bQ0gyXVtDSDJdW0NIMl1PMg==

> <s_epik_cmdline>
J2VwaWtfcHl0aG9uJywgJy1waCcsICc3LjAnLCAnLXRuJywgJzgnLCAnLW1hJywgJzIwMCcsICctbWV0YWxfYmluZGluZycsICctaW1hZScsICc8aW5maWxlLm1hZT4nLCAnLW9tYWUnLCAnPG91dGZpbGUubWFlPic=

> <r_lp_tautomer_probability>
1

> <r_epik_Ionization_Penalty>
3.16985

> <r_epik_Ionization_Penalty_Charging>
0.174782

> <r_epik_Ionization_Penalty_Neutral>
2.99507

> <r_epik_State_Penalty>
2.99125

> <r_epik_Charging_Adjusted_Penalty>
3.16603

> <i_epik_Tot_Q>
-1

> <i_epik_Tot_abs_Q>
1

> <r_epik_Metal_State_Penalty>
0.453096

> <b_epik_Metal_Only>
1

> <s_lp_Force_Field>
OPLS_2005

> <r_lp_Energy>
20.8362

> <b_lp_Chiralities_Consistent>
1

> <s_lp_Variant>
AV-unprocessed.smi:1756-4

> <Gold.Version>
5.8.1

> <Gold.Id.Protein>
6NUR|6NUR_protein|mol2

> <Gold.PLP.Fitness>
38.2837

> <Gold.PLP.PLP>
-30.8528

> <Gold.PLP.part.hbond>
-2.8206

> <Gold.PLP.part.metal>
0.0000

> <Gold.PLP.part.buried>
-4.6248

> <Gold.PLP.part.nonpolar>
-23.8418

> <Gold.PLP.part.repulsive>
0.3849

> <Gold.PLP.ligand.clash>
0.0000

> <Gold.PLP.ligand.torsion>
0.8148

> <Gold.PLP.Chemscore.Hbond>
3.0000

> <Gold.PLP.Chemscore.CHOScore>
0.0000

> <Gold.PLP.Chemscore.Metal>
0.0000

> <Gold.Chemscore.Hbonds>
donor molecule, donor type, donor heavy atom, donor atom, acceptor molecule, acceptor atom, score
      P1  H  7989  7998       L1     1  1.00
      P1  H 10752 10765       L1    20  1.90

> <Gold.PLP.Chemscore.Internal.Correction>
0.0604

> <Gold.Rescore>
     Score         DG    S(hbond)    S(metal)    S(lipo)     H(rot)  DE(clash)    DE(int)     intcor
     16.31     -17.17       1.90        0.00      74.56       1.32       0.06       0.80       ----

> <Gold.Chemscore.Fitness>
16.3057

> <Gold.Chemscore.DG>
-17.1679

> <Gold.Chemscore.ZeroCoef>
-5.4800

> <Gold.Chemscore.Hbond>
1.9031

> <Gold.Chemscore.Metal>
0.0000

> <Gold.Chemscore.Lipo>
74.5557

> <Gold.Chemscore.Internal_Hbond>
0.0000

> <Gold.Chemscore.DEClash>
0.0639

> <Gold.Chemscore.DEInternal>
0.7982

> <Gold.Chemscore.Rot>
1.3248

> <Gold.Chemscore.Internal.Correction>
   9.000000E+99

> <Gold.Chemscore.Hbonds>
donor molecule, donor type, donor heavy atom, donor atom, acceptor molecule, acceptor atom, score
      P1  H  7989  7998       L1     1  0.99
      P1  H 10752 10765       L1    20  0.22

> <Gold.Chemscore.Hbond.Weighted>
-6.3564

> <Gold.Chemscore.Metal.Weighted>
-0.0000

> <Gold.Chemscore.Lipo.Weighted>
-8.7230

> <Gold.Chemscore.Internal_Hbond.Weighted>
0.0000

> <Gold.Chemscore.DEClash.Weighted>
0.0639

> <Gold.Chemscore.DEInternal.Weighted>
0.7982

> <Gold.Chemscore.Rot.Weighted>
3.3915

> <Gold.Chemscore.Internal.Correction.Weighted>
   9.000000E+99

> <Gold.Protein.RotatedTorsions>
[ 6907 6896 6895 6894 ] final  -91.10 input  -60.11 | X-H torsion
[ 7974 7965 7964 7962 ] final   64.77 input  175.53 | X-H torsion
[ 8008 7997 7996 7995 ] final  -80.86 input   59.86 | X-H torsion
[ 10167 10162 10161 10158 ] final  -44.38 input  -65.29 | X-H torsion
[ 10718 10713 10712 10709 ] final -166.16 input   66.30 | X-H torsion
[ 10763 10752 10751 10750 ] final  179.68 input  -60.55 | X-H torsion
[ 11005 11000 10999 10996 ] final  128.70 input  -57.11 | X-H torsion

> <Gold.Protein.ActiveResidues>
 VAL166  LYS551  ARG553  GLY616  TRP617  ASP618  TYR619  PRO620  LYS621  CYS622 
 ASP623  PHE694  ASN695  SER759  ASP760  ASP761  ALA762  ILE779  LEU786  VAL792 
 PHE793  MET794  SER795  GLU796  ALA797  LYS798  CYS799  TRP800  GLU811  SER814 

> <Gold.Protein.RotatedAtoms>
  150.6889  134.2329  159.4441 H   0  0  0  0  0  0  0  0  0  0  0  0  # atno 6907 bound_to 6896
  152.0278  134.9783  160.0581 H   0  0  0  0  0  0  0  0  0  0  0  0  # atno 6908 bound_to 6896
  152.1334  133.4386  159.4769 H   0  0  0  0  0  0  0  0  0  0  0  0  # atno 6909 bound_to 6896
  145.8463  139.3226  143.0902 H   0  0  0  0  0  0  0  0  0  0  0  0  # atno 7974 bound_to 7965
  154.5926  140.0656  156.9259 H   0  0  0  0  0  0  0  0  0  0  0  0  # atno 8008 bound_to 7997
  155.2270  140.3334  155.4290 H   0  0  0  0  0  0  0  0  0  0  0  0  # atno 8009 bound_to 7997
  156.2266  140.1822  156.7333 H   0  0  0  0  0  0  0  0  0  0  0  0  # atno 8010 bound_to 7997
  140.6899  143.2933  151.3487 H   0  0  0  0  0  0  0  0  0  0  0  0  # atno 10167 bound_to 10162
  156.6638  130.9056  151.3033 H   0  0  0  0  0  0  0  0  0  0  0  0  # atno 10718 bound_to 10713
  154.5238  135.2795  155.1240 H   0  0  0  0  0  0  0  0  0  0  0  0  # atno 10763 bound_to 10752
  154.2787  135.6289  153.5342 H   0  0  0  0  0  0  0  0  0  0  0  0  # atno 10764 bound_to 10752
  152.9942  135.5646  154.5733 H   0  0  0  0  0  0  0  0  0  0  0  0  # atno 10765 bound_to 10752
  139.9575  134.9610  156.9041 H   0  0  0  0  0  0  0  0  0  0  0  0  # atno 11005 bound_to 11000
  145.9409  140.8980  143.0308 LP  0  0  0  0  0  0  0  0  0  0  0  0  # atno 17320 bound_to 7965
  144.6731  140.1547  143.7427 LP  0  0  0  0  0  0  0  0  0  0  0  0  # atno 17321 bound_to 7965
  139.6291  144.0756  152.2460 LP  0  0  0  0  0  0  0  0  0  0  0  0  # atno 17342 bound_to 10162
  140.0225  144.6142  150.7555 LP  0  0  0  0  0  0  0  0  0  0  0  0  # atno 17343 bound_to 10162
  157.7100  130.9430  150.1059 LP  0  0  0  0  0  0  0  0  0  0  0  0  # atno 17370 bound_to 10713
  156.1990  130.3659  149.8812 LP  0  0  0  0  0  0  0  0  0  0  0  0  # atno 17371 bound_to 10713
  140.5575  134.0567  155.7388 LP  0  0  0  0  0  0  0  0  0  0  0  0  # atno 17394 bound_to 11000
  141.1248  133.9401  157.2656 LP  0  0  0  0  0  0  0  0  0  0  0  0  # atno 17395 bound_to 11000

$$$$
