AV-unprocessed.smi:2164|AV-procd|sdf|8808|dock6
  -GOLD-   2272011593D 1   1.00000     0.00000
 Structure written by MMmdl.
 39 41  0  0  0  0  0  0  0  0  1 V2000
  154.1952  144.7706  165.2879 O   0  0  0  0  0  0  0  0  0  0  0  0
  154.3571  143.5714  165.0554 C   0  0  0  0  0  0  0  0  0  0  0  0
  154.0168  143.0238  163.8748 N   0  0  0  0  0  0  0  0  0  0  0  0
  153.4697  143.7405  162.7246 C   0  0  0  0  0  0  0  0  0  0  0  0
  153.2214  142.8100  161.5214 C   0  0  0  0  0  0  0  0  0  0  0  0
  152.8909  143.5515  160.2377 C   0  0  0  0  0  0  0  0  0  0  0  0
  152.5496  144.9194  160.2617 C   0  0  0  0  0  0  0  0  0  0  0  0
  152.2837  145.5731  159.0431 C   0  0  0  0  0  0  0  0  0  0  0  0
  152.3707  144.8286  157.8497 C   0  0  0  0  0  0  0  0  0  0  0  0
  152.6930  143.5177  157.8148 N   0  0  0  0  0  0  0  0  0  0  0  0
  152.9439  142.8980  158.9876 C   0  0  0  0  0  0  0  0  0  0  0  0
  154.9429  142.6180  166.0001 C   0  0  0  0  0  0  0  0  0  0  0  0
  154.7287  142.7707  167.3207 C   0  0  0  0  0  0  0  0  0  0  0  0
  155.2481  141.9121  168.2917 N   0  0  0  0  0  0  0  0  0  0  0  0
  155.0303  142.2498  169.6932 C   0  0  0  0  0  0  0  0  0  0  0  0
  154.6926  140.9994  170.4889 C   0  0  0  0  0  0  0  0  0  0  0  0
  156.1653  139.9116  170.3896 S   0  0  0  0  0  0  0  0  0  0  0  0
  157.3013  140.6280  170.9902 O   0  0  0  0  0  0  0  0  0  0  0  0
  155.7907  138.5882  170.9105 O   0  0  0  0  0  0  0  0  0  0  0  0
  156.3832  139.8293  168.7292 N   0  0  0  0  0  0  0  0  0  0  0  0
  155.9792  140.7568  167.9152 C   0  0  0  0  0  0  0  0  0  0  0  0
  156.2523  140.6149  166.4939 C   0  0  0  0  0  0  0  0  0  0  0  0
  155.7653  141.4881  165.5883 C   0  0  0  0  0  0  0  0  0  0  0  0
  154.1766  142.0343  163.7546 H   0  0  0  0  0  0  0  0  0  0  0  0
  152.5292  144.2005  163.0284 H   0  0  0  0  0  0  0  0  0  0  0  0
  154.1262  144.5622  162.4338 H   0  0  0  0  0  0  0  0  0  0  0  0
  154.0995  142.1849  161.3546 H   0  0  0  0  0  0  0  0  0  0  0  0
  152.4033  142.1262  161.7501 H   0  0  0  0  0  0  0  0  0  0  0  0
  152.5026  145.4612  161.1950 H   0  0  0  0  0  0  0  0  0  0  0  0
  152.0238  146.6211  159.0227 H   0  0  0  0  0  0  0  0  0  0  0  0
  152.1768  145.2993  156.8971 H   0  0  0  0  0  0  0  0  0  0  0  0
  153.2101  141.8531  158.9242 H   0  0  0  0  0  0  0  0  0  0  0  0
  154.1339  143.5812  167.7184 H   0  0  0  0  0  0  0  0  0  0  0  0
  155.9233  142.7334  170.0904 H   0  0  0  0  0  0  0  0  0  0  0  0
  154.2148  142.9667  169.7940 H   0  0  0  0  0  0  0  0  0  0  0  0
  154.4965  141.2282  171.5362 H   0  0  0  0  0  0  0  0  0  0  0  0
  153.8270  140.4766  170.0807 H   0  0  0  0  0  0  0  0  0  0  0  0
  156.8481  139.7943  166.1211 H   0  0  0  0  0  0  0  0  0  0  0  0
  156.0042  141.3206  164.5484 H   0  0  0  0  0  0  0  0  0  0  0  0
  1  2  2  0  0  0  0
  2  3  1  0  0  0  0
  2 12  1  0  0  0  0
  3  4  1  0  0  0  0
  3 24  1  0  0  0  0
  4  5  1  0  0  0  0
  4 25  1  0  0  0  0
  4 26  1  0  0  0  0
  5  6  1  0  0  0  0
  5 27  1  0  0  0  0
  5 28  1  0  0  0  0
  6 11  1  0  0  0  0
  6  7  2  0  0  0  0
  7  8  1  0  0  0  0
  7 29  1  0  0  0  0
  8  9  2  0  0  0  0
  8 30  1  0  0  0  0
  9 10  1  0  0  0  0
  9 31  1  0  0  0  0
 10 11  2  0  0  0  0
 11 32  1  0  0  0  0
 12 23  1  0  0  0  0
 12 13  2  0  0  0  0
 13 14  1  0  0  0  0
 13 33  1  0  0  0  0
 14 21  1  0  0  0  0
 14 15  1  0  0  0  0
 15 16  1  0  0  0  0
 15 34  1  0  0  0  0
 15 35  1  0  0  0  0
 16 17  1  0  0  0  0
 16 36  1  0  0  0  0
 16 37  1  0  0  0  0
 17 18  2  0  0  0  0
 17 19  2  0  0  0  0
 17 20  1  0  0  0  0
 20 21  2  0  0  0  0
 21 22  1  0  0  0  0
 22 23  2  0  0  0  0
 22 38  1  0  0  0  0
 23 39  1  0  0  0  0
M  END
> <s_m_source_file>
AV-unprocessed.smi

> <i_m_source_file_index>
2164

> <i_lp_mmshare_version>
43012

> <i_f3d_flags>
0

> <s_epik_input>
W0NIMl0xW0NIMl1TKD1PKSg9TylOPUMoTjEyKVtDSF09W0NIXUMoPVtDSF0yKUMoPU8pW05IXVtDSDJdW0NIMl1jM1tjSF1bY0hdW2NIXW5bY0hdMw==

> <s_epik_cmdline>
J2VwaWtfcHl0aG9uJywgJy1waCcsICc3LjAnLCAnLXRuJywgJzgnLCAnLW1hJywgJzIwMCcsICctbWV0YWxfYmluZGluZycsICctaW1hZScsICc8aW5maWxlLm1hZT4nLCAnLW9tYWUnLCAnPG91dGZpbGUubWFlPic=

> <r_epik_Ionization_Penalty>
0.0095026

> <r_epik_Ionization_Penalty_Charging>
4.80604e-09

> <r_epik_Ionization_Penalty_Neutral>
0.00950259

> <r_epik_State_Penalty>
0.0071398

> <r_epik_Charging_Adjusted_Penalty>
0.0071398

> <i_epik_Tot_Q>
0

> <i_epik_Tot_abs_Q>
0

> <r_epik_Metal_State_Penalty>
0.0838865

> <b_epik_Metal_Only>
0

> <s_lp_Force_Field>
OPLS_2005

> <r_lp_Energy>
19.9083

> <b_lp_Chiralities_Consistent>
1

> <s_lp_Variant>
AV-unprocessed.smi:2164-1

> <Gold.Version>
5.8.1

> <Gold.Id.Protein>
6NUR|6NUR_protein|mol2

> <Gold.PLP.Fitness>
50.5490

> <Gold.PLP.PLP>
-50.2210

> <Gold.PLP.part.hbond>
-2.0000

> <Gold.PLP.part.metal>
0.0000

> <Gold.PLP.part.buried>
-9.4386

> <Gold.PLP.part.nonpolar>
-38.4348

> <Gold.PLP.part.repulsive>
0.4705

> <Gold.PLP.ligand.clash>
0.0000

> <Gold.PLP.ligand.torsion>
0.6582

> <Gold.PLP.Chemscore.Hbond>
0.0000

> <Gold.PLP.Chemscore.CHOScore>
0.5469

> <Gold.PLP.Chemscore.Metal>
0.0000

> <Gold.PLP.Chemscore.Internal.Correction>
0.0038

> <Gold.Rescore>
     Score         DG    S(hbond)    S(metal)    S(lipo)     H(rot)  DE(clash)    DE(int)     intcor
     14.02     -14.94       0.00        0.00     112.99       1.47       0.31       0.61       ----

> <Gold.Chemscore.Fitness>
14.0154

> <Gold.Chemscore.DG>
-14.9426

> <Gold.Chemscore.ZeroCoef>
-5.4800

> <Gold.Chemscore.Hbond>
0.0000

> <Gold.Chemscore.Metal>
0.0000

> <Gold.Chemscore.Lipo>
112.9950

> <Gold.Chemscore.Internal_Hbond>
0.0000

> <Gold.Chemscore.DEClash>
0.3135

> <Gold.Chemscore.DEInternal>
0.6137

> <Gold.Chemscore.Rot>
1.4679

> <Gold.Chemscore.Internal.Correction>
   9.000000E+99

> <Gold.Chemscore.Hbond.Weighted>
-0.0000

> <Gold.Chemscore.Metal.Weighted>
-0.0000

> <Gold.Chemscore.Lipo.Weighted>
-13.2204

> <Gold.Chemscore.Internal_Hbond.Weighted>
0.0000

> <Gold.Chemscore.DEClash.Weighted>
0.3135

> <Gold.Chemscore.DEInternal.Weighted>
0.6137

> <Gold.Chemscore.Rot.Weighted>
3.7578

> <Gold.Chemscore.Internal.Correction.Weighted>
   9.000000E+99

> <Gold.Protein.RotatedTorsions>
[ 6907 6896 6895 6894 ] final -128.64 input  -60.11 | X-H torsion
[ 7974 7965 7964 7962 ] final  141.49 input  175.53 | X-H torsion
[ 8008 7997 7996 7995 ] final   61.64 input   59.86 | X-H torsion
[ 10167 10162 10161 10158 ] final   77.81 input  -65.29 | X-H torsion
[ 10718 10713 10712 10709 ] final  139.48 input   66.30 | X-H torsion
[ 10763 10752 10751 10750 ] final  128.07 input  -60.55 | X-H torsion
[ 11005 11000 10999 10996 ] final -178.28 input  -57.11 | X-H torsion

> <Gold.Protein.ActiveResidues>
 VAL166  LYS551  ARG553  GLY616  TRP617  ASP618  TYR619  PRO620  LYS621  CYS622 
 ASP623  PHE694  ASN695  SER759  ASP760  ASP761  ALA762  ILE779  LEU786  VAL792 
 PHE793  MET794  SER795  GLU796  ALA797  LYS798  CYS799  TRP800  GLU811  SER814 

> <Gold.Protein.RotatedAtoms>
  150.9201  133.6891  159.2833 H   0  0  0  0  0  0  0  0  0  0  0  0  # atno 6907 bound_to 6896
  151.4349  135.1012  159.9663 H   0  0  0  0  0  0  0  0  0  0  0  0  # atno 6908 bound_to 6896
  152.4975  133.8622  159.7311 H   0  0  0  0  0  0  0  0  0  0  0  0  # atno 6909 bound_to 6896
  144.9091  139.5317  143.5717 H   0  0  0  0  0  0  0  0  0  0  0  0  # atno 7974 bound_to 7965
  155.6015  140.3494  155.4595 H   0  0  0  0  0  0  0  0  0  0  0  0  # atno 8008 bound_to 7997
  156.0224  140.1256  157.0368 H   0  0  0  0  0  0  0  0  0  0  0  0  # atno 8009 bound_to 7997
  154.4320  140.1060  156.5969 H   0  0  0  0  0  0  0  0  0  0  0  0  # atno 8010 bound_to 7997
  139.9776  144.5850  150.7929 H   0  0  0  0  0  0  0  0  0  0  0  0  # atno 10167 bound_to 10162
  157.4139  131.1031  151.0425 H   0  0  0  0  0  0  0  0  0  0  0  0  # atno 10718 bound_to 10713
  153.7197  135.3255  155.3264 H   0  0  0  0  0  0  0  0  0  0  0  0  # atno 10763 bound_to 10752
  154.8360  135.4496  154.1230 H   0  0  0  0  0  0  0  0  0  0  0  0  # atno 10764 bound_to 10752
  153.2347  135.6964  153.7930 H   0  0  0  0  0  0  0  0  0  0  0  0  # atno 10765 bound_to 10752
  140.4315  134.6515  157.4714 H   0  0  0  0  0  0  0  0  0  0  0  0  # atno 11005 bound_to 11000
  146.3149  139.7884  142.8991 LP  0  0  0  0  0  0  0  0  0  0  0  0  # atno 17320 bound_to 7965
  145.3484  141.0302  143.3352 LP  0  0  0  0  0  0  0  0  0  0  0  0  # atno 17321 bound_to 7965
  140.7500  143.2948  151.3233 LP  0  0  0  0  0  0  0  0  0  0  0  0  # atno 17342 bound_to 10162
  139.6434  144.0497  152.2572 LP  0  0  0  0  0  0  0  0  0  0  0  0  # atno 17343 bound_to 10162
  157.1379  130.6130  149.5547 LP  0  0  0  0  0  0  0  0  0  0  0  0  # atno 17370 bound_to 10713
  155.9859  130.4891  150.7054 LP  0  0  0  0  0  0  0  0  0  0  0  0  # atno 17371 bound_to 10713
  140.0131  134.6660  155.9350 LP  0  0  0  0  0  0  0  0  0  0  0  0  # atno 17394 bound_to 11000
  141.1743  133.6539  156.4771 LP  0  0  0  0  0  0  0  0  0  0  0  0  # atno 17395 bound_to 11000

$$$$
