AV-unprocessed.smi:1793|AV-procd|sdf|7231|dock4
  -GOLD-   22720 8473D 1   1.00000     0.00000
 Structure written by MMmdl.
 47 49  0  0  0  0  0  0  0  0  2 V2000
  148.1948  134.6737  158.4748 C   0  0  0  0  0  0  0  0  0  0  0  0
  148.4035  135.8545  159.4359 C   0  0  1  0  0  0  0  0  0  0  0  0
  148.4235  137.0887  158.6533 N   0  0  0  0  0  0  0  0  0  0  0  0
  149.3757  138.0309  158.7080 C   0  0  0  0  0  0  0  0  0  0  0  0
  150.3629  137.9644  159.4399 O   0  0  0  0  0  0  0  0  0  0  0  0
  149.0961  139.0511  157.8802 N   0  0  0  0  0  0  0  0  0  0  0  0
  149.8244  140.2620  157.7058 C   0  0  0  0  0  0  0  0  0  0  0  0
  151.0537  140.5009  158.3720 C   0  0  0  0  0  0  0  0  0  0  0  0
  151.7561  141.6984  158.1371 C   0  0  0  0  0  0  0  0  0  0  0  0
  151.2254  142.6342  157.2318 C   0  0  0  0  0  0  0  0  0  0  0  0
  150.0616  142.3700  156.6022 N   0  3  0  0  0  0  0  0  0  0  0  0
  149.3425  141.2354  156.7880 C   0  0  0  0  0  0  0  0  0  0  0  0
  148.1250  141.0772  156.0916 N   0  0  0  0  0  0  0  0  0  0  0  0
  147.1037  142.0632  156.4367 C   0  0  0  0  0  0  0  0  0  0  0  0
  146.3469  142.3757  155.1439 C   0  0  0  0  0  0  0  0  0  0  0  0
  147.3743  142.0776  154.0588 C   0  0  0  0  0  0  0  0  0  0  0  0
  148.1337  140.8872  154.6418 C   0  0  0  0  0  0  0  0  0  0  0  0
  147.3062  135.9280  160.5198 C   0  0  1  0  0  0  0  0  0  0  0  0
  147.2016  134.6801  161.4012 C   0  0  0  0  0  0  0  0  0  0  0  0
  146.6216  135.2446  162.6771 C   0  0  0  0  0  0  0  0  0  0  0  0
  147.3553  136.5760  162.7753 C   0  0  0  0  0  0  0  0  0  0  0  0
  147.5595  136.9987  161.4307 O   0  0  0  0  0  0  0  0  0  0  0  0
  148.2434  133.7192  158.9995 H   0  0  0  0  0  0  0  0  0  0  0  0
  148.9636  134.6565  157.7017 H   0  0  0  0  0  0  0  0  0  0  0  0
  147.2252  134.7315  157.9788 H   0  0  0  0  0  0  0  0  0  0  0  0
  149.3710  135.7175  159.9226 H   0  0  0  0  0  0  0  0  0  0  0  0
  147.6466  137.2348  158.0256 H   0  0  0  0  0  0  0  0  0  0  0  0
  148.2070  139.0049  157.4044 H   0  0  0  0  0  0  0  0  0  0  0  0
  151.4798  139.7766  159.0495 H   0  0  0  0  0  0  0  0  0  0  0  0
  152.6919  141.8919  158.6407 H   0  0  0  0  0  0  0  0  0  0  0  0
  151.6942  143.5772  156.9907 H   0  0  0  0  0  0  0  0  0  0  0  0
  146.4307  141.6820  157.2050 H   0  0  0  0  0  0  0  0  0  0  0  0
  147.5725  142.9700  156.8226 H   0  0  0  0  0  0  0  0  0  0  0  0
  145.4956  141.7012  155.0402 H   0  0  0  0  0  0  0  0  0  0  0  0
  145.9728  143.3993  155.1088 H   0  0  0  0  0  0  0  0  0  0  0  0
  146.9236  141.8613  153.0897 H   0  0  0  0  0  0  0  0  0  0  0  0
  148.0473  142.9278  153.9398 H   0  0  0  0  0  0  0  0  0  0  0  0
  149.1244  140.7845  154.1996 H   0  0  0  0  0  0  0  0  0  0  0  0
  147.5960  139.9631  154.4269 H   0  0  0  0  0  0  0  0  0  0  0  0
  146.3349  136.1173  160.0592 H   0  0  0  0  0  0  0  0  0  0  0  0
  146.5820  133.8983  160.9615 H   0  0  0  0  0  0  0  0  0  0  0  0
  148.1900  134.2624  161.5984 H   0  0  0  0  0  0  0  0  0  0  0  0
  145.5497  135.4107  162.5620 H   0  0  0  0  0  0  0  0  0  0  0  0
  146.7810  134.6035  163.5446 H   0  0  0  0  0  0  0  0  0  0  0  0
  146.8014  137.3191  163.3492 H   0  0  0  0  0  0  0  0  0  0  0  0
  148.3292  136.4391  163.2468 H   0  0  0  0  0  0  0  0  0  0  0  0
  149.7001  143.0676  155.9516 H   0  0  0  0  0  0  0  0  0  0  0  0
  1  2  1  0  0  0  0
  1 23  1  0  0  0  0
  1 24  1  0  0  0  0
  1 25  1  0  0  0  0
  2  3  1  0  0  0  0
  2 18  1  0  0  0  0
  2 26  1  0  0  0  0
  3  4  1  0  0  0  0
  3 27  1  0  0  0  0
  4  5  2  0  0  0  0
  4  6  1  0  0  0  0
  6  7  1  0  0  0  0
  6 28  1  0  0  0  0
  7 12  1  0  0  0  0
  7  8  2  0  0  0  0
  8  9  1  0  0  0  0
  8 29  1  0  0  0  0
  9 10  2  0  0  0  0
  9 30  1  0  0  0  0
 10 11  1  0  0  0  0
 10 31  1  0  0  0  0
 11 12  2  0  0  0  0
 11 47  1  0  0  0  0
 12 13  1  0  0  0  0
 13 17  1  0  0  0  0
 13 14  1  0  0  0  0
 14 15  1  0  0  0  0
 14 32  1  0  0  0  0
 14 33  1  0  0  0  0
 15 16  1  0  0  0  0
 15 34  1  0  0  0  0
 15 35  1  0  0  0  0
 16 17  1  0  0  0  0
 16 36  1  0  0  0  0
 16 37  1  0  0  0  0
 17 38  1  0  0  0  0
 17 39  1  0  0  0  0
 18 22  1  0  0  0  0
 18 19  1  0  0  0  0
 18 40  1  0  0  0  0
 19 20  1  0  0  0  0
 19 41  1  0  0  0  0
 19 42  1  0  0  0  0
 20 21  1  0  0  0  0
 20 43  1  0  0  0  0
 20 44  1  0  0  0  0
 21 22  1  0  0  0  0
 21 45  1  0  0  0  0
 21 46  1  0  0  0  0
M  CHG  1  11   1
M  END
> <s_m_source_file>
AV-unprocessed.smi

> <i_m_source_file_index>
1793

> <i_lp_mmshare_version>
43012

> <i_f3d_flags>
0

> <s_epik_input>
TzFbQ0gyXVtDSDJdW0NIMl1bQ0BIXTFbQ0BIXShbQ0gzXSlbTkhdQyg9TylbTkhdYzJbY0hdW2NIXVtjSF1uYzJOM1tDSDJdW0NIMl1bQ0gyXVtDSDJdMw==

> <s_epik_cmdline>
J2VwaWtfcHl0aG9uJywgJy1waCcsICc3LjAnLCAnLXRuJywgJzgnLCAnLW1hJywgJzIwMCcsICctbWV0YWxfYmluZGluZycsICctaW1hZScsICc8aW5maWxlLm1hZT4nLCAnLW9tYWUnLCAnPG91dGZpbGUubWFlPic=

> <r_lp_tautomer_probability>
0.999994

> <r_epik_Ionization_Penalty>
1.11092

> <r_epik_Ionization_Penalty_Charging>
1.1109

> <r_epik_Ionization_Penalty_Neutral>
1.9363e-05

> <r_epik_State_Penalty>
1.16888

> <r_epik_Charging_Adjusted_Penalty>
2.27978

> <i_epik_Tot_Q>
1

> <i_epik_Tot_abs_Q>
1

> <r_epik_Metal_State_Penalty>
1.25472

> <b_epik_Metal_Only>
0

> <s_lp_Force_Field>
OPLS_2005

> <r_lp_Energy>
52.0623

> <b_lp_Chiralities_Consistent>
1

> <s_lp_Variant>
AV-unprocessed.smi:1793-8

> <Gold.Version>
5.8.1

> <Gold.Id.Protein>
6NUR|6NUR_protein|mol2

> <Gold.PLP.Fitness>
47.8226

> <Gold.PLP.PLP>
-38.1589

> <Gold.PLP.part.hbond>
-4.0000

> <Gold.PLP.part.metal>
0.0000

> <Gold.PLP.part.buried>
-6.9729

> <Gold.PLP.part.nonpolar>
-28.9521

> <Gold.PLP.part.repulsive>
0.4107

> <Gold.PLP.ligand.clash>
0.0000

> <Gold.PLP.ligand.torsion>
0.1800

> <Gold.PLP.Chemscore.Hbond>
3.2851

> <Gold.PLP.Chemscore.CHOScore>
0.0000

> <Gold.PLP.Chemscore.Metal>
0.0000

> <Gold.Chemscore.Hbonds>
donor molecule, donor type, donor heavy atom, donor atom, acceptor molecule, acceptor atom, score
      L1  H    11    47       P1  8028  1.98
      P1  H  6931  6943       L1    22  0.70
      P1  H  6934  6947       L1    22  0.70

> <Gold.PLP.Chemscore.Internal.Correction>
0.1686

> <Gold.Rescore>
     Score         DG    S(hbond)    S(metal)    S(lipo)     H(rot)  DE(clash)    DE(int)     intcor
     16.98     -18.43       1.97        0.00      84.56       1.38       0.00       1.45       ----

> <Gold.Chemscore.Fitness>
16.9766

> <Gold.Chemscore.DG>
-18.4276

> <Gold.Chemscore.ZeroCoef>
-5.4800

> <Gold.Chemscore.Hbond>
1.9721

> <Gold.Chemscore.Metal>
0.0000

> <Gold.Chemscore.Lipo>
84.5639

> <Gold.Chemscore.Internal_Hbond>
0.0000

> <Gold.Chemscore.DEClash>
0.0004

> <Gold.Chemscore.DEInternal>
1.4506

> <Gold.Chemscore.Rot>
1.3802

> <Gold.Chemscore.Internal.Correction>
   9.000000E+99

> <Gold.Chemscore.Hbonds>
donor molecule, donor type, donor heavy atom, donor atom, acceptor molecule, acceptor atom, score
      L1  H    11    47       P1  8028  0.94
      P1  H  6931  6943       L1    22  0.07
      P1  H  6934  6947       L1    22  0.65

> <Gold.Chemscore.Hbond.Weighted>
-6.5868

> <Gold.Chemscore.Metal.Weighted>
-0.0000

> <Gold.Chemscore.Lipo.Weighted>
-9.8940

> <Gold.Chemscore.Internal_Hbond.Weighted>
0.0000

> <Gold.Chemscore.DEClash.Weighted>
0.0004

> <Gold.Chemscore.DEInternal.Weighted>
1.4506

> <Gold.Chemscore.Rot.Weighted>
3.5332

> <Gold.Chemscore.Internal.Correction.Weighted>
   9.000000E+99

> <Gold.Protein.RotatedTorsions>
[ 6907 6896 6895 6894 ] final  110.79 input  -60.11 | X-H torsion
[ 7974 7965 7964 7962 ] final   79.05 input  175.53 | X-H torsion
[ 8008 7997 7996 7995 ] final  -76.58 input   59.86 | X-H torsion
[ 10167 10162 10161 10158 ] final  -89.10 input  -65.29 | X-H torsion
[ 10718 10713 10712 10709 ] final   94.34 input   66.30 | X-H torsion
[ 10763 10752 10751 10750 ] final -114.55 input  -60.55 | X-H torsion
[ 11005 11000 10999 10996 ] final   69.53 input  -57.11 | X-H torsion

> <Gold.Protein.ActiveResidues>
 VAL166  LYS551  ARG553  GLY616  TRP617  ASP618  TYR619  PRO620  LYS621  CYS622 
 ASP623  PHE694  ASN695  SER759  ASP760  ASP761  ALA762  ILE779  LEU786  VAL792 
 PHE793  MET794  SER795  GLU796  ALA797  LYS798  CYS799  TRP800  GLU811  SER814 

> <Gold.Protein.RotatedAtoms>
  152.5002  133.8750  159.7317 H   0  0  0  0  0  0  0  0  0  0  0  0  # atno 6907 bound_to 6896
  150.9227  133.6852  159.2835 H   0  0  0  0  0  0  0  0  0  0  0  0  # atno 6908 bound_to 6896
  151.4224  135.1004  159.9670 H   0  0  0  0  0  0  0  0  0  0  0  0  # atno 6909 bound_to 6896
  145.6692  139.2492  143.1878 H   0  0  0  0  0  0  0  0  0  0  0  0  # atno 7974 bound_to 7965
  154.5518  140.0724  156.8680 H   0  0  0  0  0  0  0  0  0  0  0  0  # atno 8008 bound_to 7997
  155.2978  140.3382  155.4231 H   0  0  0  0  0  0  0  0  0  0  0  0  # atno 8009 bound_to 7997
  156.1968  140.1706  156.7967 H   0  0  0  0  0  0  0  0  0  0  0  0  # atno 8010 bound_to 7997
  140.3682  143.2807  151.9533 H   0  0  0  0  0  0  0  0  0  0  0  0  # atno 10167 bound_to 10162
  157.6948  131.0509  150.4172 H   0  0  0  0  0  0  0  0  0  0  0  0  # atno 10718 bound_to 10713
  154.8444  135.4414  154.1523 H   0  0  0  0  0  0  0  0  0  0  0  0  # atno 10763 bound_to 10752
  153.2681  135.6942  153.7515 H   0  0  0  0  0  0  0  0  0  0  0  0  # atno 10764 bound_to 10752
  153.6766  135.3410  155.3142 H   0  0  0  0  0  0  0  0  0  0  0  0  # atno 10765 bound_to 10752
  139.9649  134.6998  156.0567 H   0  0  0  0  0  0  0  0  0  0  0  0  # atno 11005 bound_to 11000
  146.1059  140.7487  142.9526 LP  0  0  0  0  0  0  0  0  0  0  0  0  # atno 17320 bound_to 7965
  144.7062  140.3862  143.7116 LP  0  0  0  0  0  0  0  0  0  0  0  0  # atno 17321 bound_to 7965
  139.4806  144.5931  151.7737 LP  0  0  0  0  0  0  0  0  0  0  0  0  # atno 17342 bound_to 10162
  140.5060  144.1098  150.5982 LP  0  0  0  0  0  0  0  0  0  0  0  0  # atno 17343 bound_to 10162
  156.4551  130.4020  149.6611 LP  0  0  0  0  0  0  0  0  0  0  0  0  # atno 17370 bound_to 10713
  156.3747  130.7548  151.2535 LP  0  0  0  0  0  0  0  0  0  0  0  0  # atno 17371 bound_to 10713
  141.1328  133.6582  156.3511 LP  0  0  0  0  0  0  0  0  0  0  0  0  # atno 17394 bound_to 11000
  140.5419  134.6112  157.5382 LP  0  0  0  0  0  0  0  0  0  0  0  0  # atno 17395 bound_to 11000

$$$$
