AV-unprocessed.smi:1335|AV-procd|sdf|5495|dock1
  -GOLD-   22720 5 73D 1   1.00000     0.00000
 Structure written by MMmdl.
 47 49  0  0  0  0  0  0  0  0  1 V2000
  153.3447  141.7485  161.3632 C   0  0  0  0  0  0  0  0  0  0  0  0
  152.7212  141.8349  160.0903 O   0  0  0  0  0  0  0  0  0  0  0  0
  152.1470  143.0337  159.7196 C   0  0  0  0  0  0  0  0  0  0  0  0
  152.0717  144.1613  160.5776 C   0  0  0  0  0  0  0  0  0  0  0  0
  151.4620  145.3540  160.1446 C   0  0  0  0  0  0  0  0  0  0  0  0
  150.9166  145.4384  158.8519 C   0  0  0  0  0  0  0  0  0  0  0  0
  150.9862  144.3287  157.9912 C   0  0  0  0  0  0  0  0  0  0  0  0
  151.6002  143.1320  158.4159 C   0  0  0  0  0  0  0  0  0  0  0  0
  151.6523  141.9594  157.4471 C   0  0  0  0  0  0  0  0  0  0  0  0
  150.8092  142.1446  156.3208 O   0  0  0  0  0  0  0  0  0  0  0  0
  149.6805  141.2822  156.2989 C   0  0  0  0  0  0  0  0  0  0  0  0
  149.3433  140.9600  154.8361 C   0  0  1  0  0  0  0  0  0  0  0  0
  150.4385  140.2498  154.2947 O   0  0  0  0  0  0  0  0  0  0  0  0
  148.0748  140.0896  154.7119 C   0  0  0  0  0  0  0  0  0  0  0  0
  146.9232  140.7349  155.3361 N   0  0  0  0  0  0  0  0  0  0  0  0
  146.3223  140.3659  156.4913 C   0  0  0  0  0  0  0  0  0  0  0  0
  146.6568  139.4240  157.2094 O   0  0  0  0  0  0  0  0  0  0  0  0
  145.2799  141.2023  156.7065 N   0  0  0  0  0  0  0  0  0  0  0  0
  144.3499  141.1738  157.8288 C   0  0  0  0  0  0  0  0  0  0  0  0
  145.1947  142.1131  155.6456 C   0  0  0  0  0  0  0  0  0  0  0  0
  144.2842  143.1533  155.3934 C   0  0  0  0  0  0  0  0  0  0  0  0
  144.4688  143.8987  154.2052 C   0  0  0  0  0  0  0  0  0  0  0  0
  145.5317  143.5959  153.3144 C   0  0  0  0  0  0  0  0  0  0  0  0
  146.4331  142.5417  153.5925 C   0  0  0  0  0  0  0  0  0  0  0  0
  146.2283  141.8193  154.7813 C   0  0  0  0  0  0  0  0  0  0  0  0
  153.7237  140.7371  161.5092 H   0  0  0  0  0  0  0  0  0  0  0  0
  152.6379  141.9541  162.1683 H   0  0  0  0  0  0  0  0  0  0  0  0
  154.1917  142.4314  161.4401 H   0  0  0  0  0  0  0  0  0  0  0  0
  152.4747  144.1380  161.5783 H   0  0  0  0  0  0  0  0  0  0  0  0
  151.4117  146.2051  160.8075 H   0  0  0  0  0  0  0  0  0  0  0  0
  150.4462  146.3527  158.5206 H   0  0  0  0  0  0  0  0  0  0  0  0
  150.5648  144.3965  156.9989 H   0  0  0  0  0  0  0  0  0  0  0  0
  152.6759  141.8773  157.0804 H   0  0  0  0  0  0  0  0  0  0  0  0
  151.4375  141.0090  157.9366 H   0  0  0  0  0  0  0  0  0  0  0  0
  149.9242  140.3687  156.8439 H   0  0  0  0  0  0  0  0  0  0  0  0
  148.8200  141.7372  156.7915 H   0  0  0  0  0  0  0  0  0  0  0  0
  149.2334  141.8958  154.2858 H   0  0  0  0  0  0  0  0  0  0  0  0
  150.1332  139.4043  154.0023 H   0  0  0  0  0  0  0  0  0  0  0  0
  147.8630  139.8385  153.6709 H   0  0  0  0  0  0  0  0  0  0  0  0
  148.2253  139.1308  155.2092 H   0  0  0  0  0  0  0  0  0  0  0  0
  143.3798  140.7977  157.5026 H   0  0  0  0  0  0  0  0  0  0  0  0
  144.2105  142.1774  158.2320 H   0  0  0  0  0  0  0  0  0  0  0  0
  144.7068  140.5363  158.6388 H   0  0  0  0  0  0  0  0  0  0  0  0
  143.4761  143.3748  156.0745 H   0  0  0  0  0  0  0  0  0  0  0  0
  143.7911  144.7069  153.9728 H   0  0  0  0  0  0  0  0  0  0  0  0
  145.6533  144.1766  152.4120 H   0  0  0  0  0  0  0  0  0  0  0  0
  147.2410  142.3056  152.9159 H   0  0  0  0  0  0  0  0  0  0  0  0
  1  2  1  0  0  0  0
  1 26  1  0  0  0  0
  1 27  1  0  0  0  0
  1 28  1  0  0  0  0
  2  3  1  0  0  0  0
  3  8  1  0  0  0  0
  3  4  2  0  0  0  0
  4  5  1  0  0  0  0
  4 29  1  0  0  0  0
  5  6  2  0  0  0  0
  5 30  1  0  0  0  0
  6  7  1  0  0  0  0
  6 31  1  0  0  0  0
  7  8  2  0  0  0  0
  7 32  1  0  0  0  0
  8  9  1  0  0  0  0
  9 10  1  0  0  0  0
  9 33  1  0  0  0  0
  9 34  1  0  0  0  0
 10 11  1  0  0  0  0
 11 12  1  0  0  0  0
 11 35  1  0  0  0  0
 11 36  1  0  0  0  0
 12 13  1  0  0  0  0
 12 14  1  0  0  0  0
 12 37  1  0  0  0  0
 13 38  1  0  0  0  0
 14 15  1  0  0  0  0
 14 39  1  0  0  0  0
 14 40  1  0  0  0  0
 15 25  1  0  0  0  0
 15 16  1  0  0  0  0
 16 17  2  0  0  0  0
 16 18  1  0  0  0  0
 18 19  1  0  0  0  0
 18 20  1  0  0  0  0
 19 41  1  0  0  0  0
 19 42  1  0  0  0  0
 19 43  1  0  0  0  0
 20 25  2  0  0  0  0
 20 21  1  0  0  0  0
 21 22  2  0  0  0  0
 21 44  1  0  0  0  0
 22 23  1  0  0  0  0
 22 45  1  0  0  0  0
 23 24  2  0  0  0  0
 23 46  1  0  0  0  0
 24 25  1  0  0  0  0
 24 47  1  0  0  0  0
M  END
> <s_m_source_file>
AV-unprocessed.smi

> <i_m_source_file_index>
1335

> <i_lp_mmshare_version>
43012

> <i_f3d_flags>
0

> <s_epik_input>
W0NIM11PYzFbY0hdW2NIXVtjSF1bY0hdYzFbQ0gyXU9bQ0gyXVtDQEhdKFtPSF0pW0NIMl1uKGMoPU8pbjJbQ0gzXSljKGMyMylbY0hdW2NIXVtjSF1bY0hdMw==

> <s_epik_cmdline>
J2VwaWtfcHl0aG9uJywgJy1waCcsICc3LjAnLCAnLXRuJywgJzgnLCAnLW1hJywgJzIwMCcsICctbWV0YWxfYmluZGluZycsICctaW1hZScsICc8aW5maWxlLm1hZT4nLCAnLW9tYWUnLCAnPG91dGZpbGUubWFlPic=

> <r_lp_tautomer_probability>
1

> <r_epik_Ionization_Penalty>
1.07897e-06

> <r_epik_Ionization_Penalty_Charging>
2.2947e-09

> <r_epik_Ionization_Penalty_Neutral>
1.07667e-06

> <r_epik_State_Penalty>
-0

> <r_epik_Charging_Adjusted_Penalty>
2.2947e-09

> <i_epik_Tot_Q>
0

> <i_epik_Tot_abs_Q>
0

> <r_epik_Metal_State_Penalty>
-0

> <b_epik_Metal_Only>
0

> <s_lp_Force_Field>
OPLS_2005

> <r_lp_Energy>
49.5291

> <b_lp_Chiralities_Consistent>
1

> <s_lp_Variant>
AV-unprocessed.smi:1335-2

> <Gold.Version>
5.8.1

> <Gold.Id.Protein>
6NUR|6NUR_protein|mol2

> <Gold.PLP.Fitness>
51.8633

> <Gold.PLP.PLP>
-50.1428

> <Gold.PLP.part.hbond>
-1.4005

> <Gold.PLP.part.metal>
0.0000

> <Gold.PLP.part.buried>
-9.5697

> <Gold.PLP.part.nonpolar>
-38.4956

> <Gold.PLP.part.repulsive>
0.0840

> <Gold.PLP.ligand.clash>
0.0000

> <Gold.PLP.ligand.torsion>
0.8907

> <Gold.PLP.Chemscore.Hbond>
1.0000

> <Gold.PLP.Chemscore.CHOScore>
0.0000

> <Gold.PLP.Chemscore.Metal>
0.0000

> <Gold.Chemscore.Hbonds>
donor molecule, donor type, donor heavy atom, donor atom, acceptor molecule, acceptor atom, score
      P1  H  7989  7998       L1    13  1.00

> <Gold.PLP.Chemscore.Internal.Correction>
0.5019

> <Gold.Rescore>
     Score         DG    S(hbond)    S(metal)    S(lipo)     H(rot)  DE(clash)    DE(int)     intcor
     16.75     -17.76       0.89        0.00     134.50       2.50       0.08       0.93       ----

> <Gold.Chemscore.Fitness>
16.7548

> <Gold.Chemscore.DG>
-17.7638

> <Gold.Chemscore.ZeroCoef>
-5.4800

> <Gold.Chemscore.Hbond>
0.8853

> <Gold.Chemscore.Metal>
0.0000

> <Gold.Chemscore.Lipo>
134.5028

> <Gold.Chemscore.Internal_Hbond>
0.0000

> <Gold.Chemscore.DEClash>
0.0751

> <Gold.Chemscore.DEInternal>
0.9339

> <Gold.Chemscore.Rot>
2.5038

> <Gold.Chemscore.Internal.Correction>
   9.000000E+99

> <Gold.Chemscore.Hbonds>
donor molecule, donor type, donor heavy atom, donor atom, acceptor molecule, acceptor atom, score
      P1  H  7989  7998       L1    13  0.87

> <Gold.Chemscore.Hbond.Weighted>
-2.9568

> <Gold.Chemscore.Metal.Weighted>
-0.0000

> <Gold.Chemscore.Lipo.Weighted>
-15.7368

> <Gold.Chemscore.Internal_Hbond.Weighted>
0.0000

> <Gold.Chemscore.DEClash.Weighted>
0.0751

> <Gold.Chemscore.DEInternal.Weighted>
0.9339

> <Gold.Chemscore.Rot.Weighted>
6.4098

> <Gold.Chemscore.Internal.Correction.Weighted>
   9.000000E+99

> <Gold.Protein.RotatedTorsions>
[ 6907 6896 6895 6894 ] final  -42.55 input  -60.11 | X-H torsion
[ 7974 7965 7964 7962 ] final  -49.13 input  175.53 | X-H torsion
[ 8008 7997 7996 7995 ] final -155.20 input   59.86 | X-H torsion
[ 10167 10162 10161 10158 ] final    8.90 input  -65.29 | X-H torsion
[ 10718 10713 10712 10709 ] final   -3.94 input   66.30 | X-H torsion
[ 10763 10752 10751 10750 ] final -138.11 input  -60.55 | X-H torsion
[ 11005 11000 10999 10996 ] final  109.06 input  -57.11 | X-H torsion

> <Gold.Protein.ActiveResidues>
 VAL166  LYS551  ARG553  GLY616  TRP617  ASP618  TYR619  PRO620  LYS621  CYS622 
 ASP623  PHE694  ASN695  SER759  ASP760  ASP761  ALA762  ILE779  LEU786  VAL792 
 PHE793  MET794  SER795  GLU796  ALA797  LYS798  CYS799  TRP800  GLU811  SER814 

> <Gold.Protein.RotatedAtoms>
  150.9539  134.8936  159.7688 H   0  0  0  0  0  0  0  0  0  0  0  0  # atno 6907 bound_to 6896
  152.5130  134.3767  159.9347 H   0  0  0  0  0  0  0  0  0  0  0  0  # atno 6908 bound_to 6896
  151.3782  133.3790  159.2742 H   0  0  0  0  0  0  0  0  0  0  0  0  # atno 6909 bound_to 6896
  145.9438  140.7637  142.9538 H   0  0  0  0  0  0  0  0  0  0  0  0  # atno 7974 bound_to 7965
  155.6981  140.0763  157.2421 H   0  0  0  0  0  0  0  0  0  0  0  0  # atno 8008 bound_to 7997
  154.4077  140.1652  156.2213 H   0  0  0  0  0  0  0  0  0  0  0  0  # atno 8009 bound_to 7997
  155.9392  140.3385  155.6316 H   0  0  0  0  0  0  0  0  0  0  0  0  # atno 8010 bound_to 7997
  140.6287  143.8043  150.7267 H   0  0  0  0  0  0  0  0  0  0  0  0  # atno 10167 bound_to 10162
  156.7686  130.5292  149.5771 H   0  0  0  0  0  0  0  0  0  0  0  0  # atno 10718 bound_to 10713
  154.8645  135.3622  154.5331 H   0  0  0  0  0  0  0  0  0  0  0  0  # atno 10763 bound_to 10752
  153.5956  135.7014  153.5410 H   0  0  0  0  0  0  0  0  0  0  0  0  # atno 10764 bound_to 10752
  153.3335  135.4117  155.1476 H   0  0  0  0  0  0  0  0  0  0  0  0  # atno 10765 bound_to 10752
  139.8855  134.9448  156.6068 H   0  0  0  0  0  0  0  0  0  0  0  0  # atno 11005 bound_to 11000
  144.6783  140.2324  143.7353 LP  0  0  0  0  0  0  0  0  0  0  0  0  # atno 17320 bound_to 7965
  145.8263  139.2066  143.1908 LP  0  0  0  0  0  0  0  0  0  0  0  0  # atno 17321 bound_to 7965
  140.1649  143.4243  152.2041 LP  0  0  0  0  0  0  0  0  0  0  0  0  # atno 17342 bound_to 10162
  139.5504  144.7333  151.4454 LP  0  0  0  0  0  0  0  0  0  0  0  0  # atno 17343 bound_to 10162
  156.1293  130.6166  151.0309 LP  0  0  0  0  0  0  0  0  0  0  0  0  # atno 17370 bound_to 10713
  157.6702  131.0863  150.7632 LP  0  0  0  0  0  0  0  0  0  0  0  0  # atno 17371 bound_to 10713
  140.7842  133.8635  155.8592 LP  0  0  0  0  0  0  0  0  0  0  0  0  # atno 17394 bound_to 11000
  140.9734  134.1501  157.4557 LP  0  0  0  0  0  0  0  0  0  0  0  0  # atno 17395 bound_to 11000

$$$$
