AV-unprocessed.smi:2141|AV-procd|sdf|8719|dock9
  -GOLD-   2272011483D 1   1.00000     0.00000
 Structure written by MMmdl.
 41 42  0  0  0  0  0  0  0  0  2 V2000
  154.0370  137.0049  162.3946 C   0  0  0  0  0  0  0  0  0  0  0  0
  154.9992  136.3718  163.8346 S   0  0  0  0  0  0  0  0  0  0  0  0
  154.2930  135.1522  164.2548 O   0  0  0  0  0  0  0  0  0  0  0  0
  156.3849  136.2076  163.3637 O   0  0  0  0  0  0  0  0  0  0  0  0
  154.8088  137.5632  164.9259 N   0  5  0  0  0  0  0  0  0  0  0  0
  155.9560  138.1861  165.5712 C   0  0  0  0  0  0  0  0  0  0  0  0
  156.8377  138.8812  164.5106 C   0  0  0  0  0  0  0  0  0  0  0  0
  156.1404  140.0534  163.8026 C   0  0  0  0  0  0  0  0  0  0  0  0
  156.3291  141.2077  164.1919 O   0  0  0  0  0  0  0  0  0  0  0  0
  155.2904  139.7160  162.8126 N   0  0  0  0  0  0  0  0  0  0  0  0
  154.5296  140.5629  161.9620 C   0  0  0  0  0  0  0  0  0  0  0  0
  154.1217  140.2234  160.6512 C   0  0  0  0  0  0  0  0  0  0  0  0
  153.3502  141.1440  159.9166 C   0  0  0  0  0  0  0  0  0  0  0  0
  152.9930  142.3785  160.5088 C   0  0  0  0  0  0  0  0  0  0  0  0
  152.2181  143.3158  159.7906 N   0  0  0  0  0  0  0  0  0  0  0  0
  151.7000  144.4412  160.5653 C   0  0  0  0  0  0  0  0  0  0  0  0
  150.6332  145.2019  159.7585 C   0  0  0  0  0  0  0  0  0  0  0  0
  151.1698  145.5974  158.5006 O   0  0  0  0  0  0  0  0  0  0  0  0
  151.5629  144.4756  157.7173 C   0  0  0  0  0  0  0  0  0  0  0  0
  152.6648  143.6926  158.4504 C   0  0  0  0  0  0  0  0  0  0  0  0
  153.3812  142.6971  161.7680 N   0  0  0  0  0  0  0  0  0  0  0  0
  154.1197  141.8117  162.4688 C   0  0  0  0  0  0  0  0  0  0  0  0
  154.0113  136.2400  161.6194 H   0  0  0  0  0  0  0  0  0  0  0  0
  154.5078  137.9019  161.9941 H   0  0  0  0  0  0  0  0  0  0  0  0
  153.0193  137.2335  162.7094 H   0  0  0  0  0  0  0  0  0  0  0  0
  155.6453  138.9158  166.3197 H   0  0  0  0  0  0  0  0  0  0  0  0
  156.5619  137.4524  166.1043 H   0  0  0  0  0  0  0  0  0  0  0  0
  157.7606  139.2377  164.9717 H   0  0  0  0  0  0  0  0  0  0  0  0
  157.1385  138.1586  163.7504 H   0  0  0  0  0  0  0  0  0  0  0  0
  155.1522  138.7257  162.6716 H   0  0  0  0  0  0  0  0  0  0  0  0
  154.3727  139.2773  160.1978 H   0  0  0  0  0  0  0  0  0  0  0  0
  153.0532  140.8953  158.9090 H   0  0  0  0  0  0  0  0  0  0  0  0
  151.2635  144.1175  161.5088 H   0  0  0  0  0  0  0  0  0  0  0  0
  152.5271  145.1085  160.8110 H   0  0  0  0  0  0  0  0  0  0  0  0
  149.7452  144.5851  159.6100 H   0  0  0  0  0  0  0  0  0  0  0  0
  150.3145  146.0906  160.3032 H   0  0  0  0  0  0  0  0  0  0  0  0
  150.7006  143.8378  157.5165 H   0  0  0  0  0  0  0  0  0  0  0  0
  151.9302  144.8266  156.7529 H   0  0  0  0  0  0  0  0  0  0  0  0
  153.5665  144.3019  158.5282 H   0  0  0  0  0  0  0  0  0  0  0  0
  152.9196  142.8035  157.8722 H   0  0  0  0  0  0  0  0  0  0  0  0
  154.3954  142.1152  163.4682 H   0  0  0  0  0  0  0  0  0  0  0  0
  1  2  1  0  0  0  0
  1 23  1  0  0  0  0
  1 24  1  0  0  0  0
  1 25  1  0  0  0  0
  2  3  2  0  0  0  0
  2  4  2  0  0  0  0
  2  5  1  0  0  0  0
  5  6  1  0  0  0  0
  6  7  1  0  0  0  0
  6 26  1  0  0  0  0
  6 27  1  0  0  0  0
  7  8  1  0  0  0  0
  7 28  1  0  0  0  0
  7 29  1  0  0  0  0
  8  9  2  0  0  0  0
  8 10  1  0  0  0  0
 10 11  1  0  0  0  0
 10 30  1  0  0  0  0
 11 22  1  0  0  0  0
 11 12  2  0  0  0  0
 12 13  1  0  0  0  0
 12 31  1  0  0  0  0
 13 14  2  0  0  0  0
 13 32  1  0  0  0  0
 14 15  1  0  0  0  0
 14 21  1  0  0  0  0
 15 20  1  0  0  0  0
 15 16  1  0  0  0  0
 16 17  1  0  0  0  0
 16 33  1  0  0  0  0
 16 34  1  0  0  0  0
 17 18  1  0  0  0  0
 17 35  1  0  0  0  0
 17 36  1  0  0  0  0
 18 19  1  0  0  0  0
 19 20  1  0  0  0  0
 19 37  1  0  0  0  0
 19 38  1  0  0  0  0
 20 39  1  0  0  0  0
 20 40  1  0  0  0  0
 21 22  2  0  0  0  0
 22 41  1  0  0  0  0
M  CHG  1   5  -1
M  END
> <s_m_source_file>
AV-unprocessed.smi

> <i_m_source_file_index>
2141

> <i_lp_mmshare_version>
43012

> <i_f3d_flags>
0

> <s_epik_input>
W0NIM11TKD1PKSg9TylbTkhdW0NIMl1bQ0gyXUMoPU8pW05IXWMxW2NIXVtjSF1jKG5bY0hdMSlOMltDSDJdW0NIMl1PW0NIMl1bQ0gyXTI=

> <s_epik_cmdline>
J2VwaWtfcHl0aG9uJywgJy1waCcsICc3LjAnLCAnLXRuJywgJzgnLCAnLW1hJywgJzIwMCcsICctbWV0YWxfYmluZGluZycsICctaW1hZScsICc8aW5maWxlLm1hZT4nLCAnLW9tYWUnLCAnPG91dGZpbGUubWFlPic=

> <r_lp_tautomer_probability>
1

> <r_epik_Ionization_Penalty>
6.16997

> <r_epik_Ionization_Penalty_Charging>
6.16921

> <r_epik_Ionization_Penalty_Neutral>
0.000766965

> <r_epik_State_Penalty>
6.16956

> <r_epik_Charging_Adjusted_Penalty>
12.3388

> <i_epik_Tot_Q>
-1

> <i_epik_Tot_abs_Q>
1

> <r_epik_Metal_State_Penalty>
2.11159

> <b_epik_Metal_Only>
1

> <s_lp_Force_Field>
OPLS_2005

> <r_lp_Energy>
18.4771

> <b_lp_Chiralities_Consistent>
1

> <s_lp_Variant>
AV-unprocessed.smi:2141-2

> <Gold.Version>
5.8.1

> <Gold.Id.Protein>
6NUR|6NUR_protein|mol2

> <Gold.PLP.Fitness>
41.0706

> <Gold.PLP.PLP>
-42.1139

> <Gold.PLP.part.hbond>
-2.0000

> <Gold.PLP.part.metal>
0.0000

> <Gold.PLP.part.buried>
-2.9899

> <Gold.PLP.part.nonpolar>
-36.2941

> <Gold.PLP.part.repulsive>
0.3666

> <Gold.PLP.ligand.clash>
0.0000

> <Gold.PLP.ligand.torsion>
1.1909

> <Gold.PLP.Chemscore.Hbond>
0.0000

> <Gold.PLP.Chemscore.CHOScore>
0.0000

> <Gold.PLP.Chemscore.Metal>
0.0000

> <Gold.PLP.Chemscore.Internal.Correction>
1.3386

> <Gold.Rescore>
     Score         DG    S(hbond)    S(metal)    S(lipo)     H(rot)  DE(clash)    DE(int)     intcor
      9.11     -12.06       0.00        0.00      98.35       1.93       0.35       2.60       ----

> <Gold.Chemscore.Fitness>
9.1075

> <Gold.Chemscore.DG>
-12.0579

> <Gold.Chemscore.ZeroCoef>
-5.4800

> <Gold.Chemscore.Hbond>
0.0000

> <Gold.Chemscore.Metal>
0.0000

> <Gold.Chemscore.Lipo>
98.3513

> <Gold.Chemscore.Internal_Hbond>
0.0000

> <Gold.Chemscore.DEClash>
0.3473

> <Gold.Chemscore.DEInternal>
2.6031

> <Gold.Chemscore.Rot>
1.9255

> <Gold.Chemscore.Internal.Correction>
   9.000000E+99

> <Gold.Chemscore.Hbond.Weighted>
-0.0000

> <Gold.Chemscore.Metal.Weighted>
-0.0000

> <Gold.Chemscore.Lipo.Weighted>
-11.5071

> <Gold.Chemscore.Internal_Hbond.Weighted>
0.0000

> <Gold.Chemscore.DEClash.Weighted>
0.3473

> <Gold.Chemscore.DEInternal.Weighted>
2.6031

> <Gold.Chemscore.Rot.Weighted>
4.9292

> <Gold.Chemscore.Internal.Correction.Weighted>
   9.000000E+99

> <Gold.Protein.RotatedTorsions>
[ 6907 6896 6895 6894 ] final   95.07 input  -60.11 | X-H torsion
[ 7974 7965 7964 7962 ] final   57.69 input  175.53 | X-H torsion
[ 8008 7997 7996 7995 ] final  175.93 input   59.86 | X-H torsion
[ 10167 10162 10161 10158 ] final  -87.97 input  -65.29 | X-H torsion
[ 10718 10713 10712 10709 ] final   94.51 input   66.30 | X-H torsion
[ 10763 10752 10751 10750 ] final  -57.15 input  -60.55 | X-H torsion
[ 11005 11000 10999 10996 ] final  -76.96 input  -57.11 | X-H torsion

> <Gold.Protein.ActiveResidues>
 VAL166  LYS551  ARG553  GLY616  TRP617  ASP618  TYR619  PRO620  LYS621  CYS622 
 ASP623  PHE694  ASN695  SER759  ASP760  ASP761  ALA762  ILE779  LEU786  VAL792 
 PHE793  MET794  SER795  GLU796  ALA797  LYS798  CYS799  TRP800  GLU811  SER814 

> <Gold.Protein.RotatedAtoms>
  152.5446  134.1096  159.8352 H   0  0  0  0  0  0  0  0  0  0  0  0  # atno 6907 bound_to 6896
  151.1164  133.5128  159.2611 H   0  0  0  0  0  0  0  0  0  0  0  0  # atno 6908 bound_to 6896
  151.1827  135.0377  159.8853 H   0  0  0  0  0  0  0  0  0  0  0  0  # atno 6909 bound_to 6896
  145.9263  139.3770  143.0448 H   0  0  0  0  0  0  0  0  0  0  0  0  # atno 7974 bound_to 7965
  156.0819  140.1396  156.9702 H   0  0  0  0  0  0  0  0  0  0  0  0  # atno 8008 bound_to 7997
  154.4590  140.0950  156.6888 H   0  0  0  0  0  0  0  0  0  0  0  0  # atno 8009 bound_to 7997
  155.5062  140.3452  155.4382 H   0  0  0  0  0  0  0  0  0  0  0  0  # atno 8010 bound_to 7997
  140.3793  143.2756  151.9404 H   0  0  0  0  0  0  0  0  0  0  0  0  # atno 10167 bound_to 10162
  157.6947  131.0515  150.4197 H   0  0  0  0  0  0  0  0  0  0  0  0  # atno 10718 bound_to 10713
  154.2178  135.6383  153.5135 H   0  0  0  0  0  0  0  0  0  0  0  0  # atno 10763 bound_to 10752
  152.9975  135.5489  154.6146 H   0  0  0  0  0  0  0  0  0  0  0  0  # atno 10764 bound_to 10752
  154.5599  135.2908  155.0903 H   0  0  0  0  0  0  0  0  0  0  0  0  # atno 10765 bound_to 10752
  141.1657  133.7004  156.7748 H   0  0  0  0  0  0  0  0  0  0  0  0  # atno 11005 bound_to 11000
  145.8485  140.9542  143.0762 LP  0  0  0  0  0  0  0  0  0  0  0  0  # atno 17320 bound_to 7965
  144.6759  140.0376  143.7481 LP  0  0  0  0  0  0  0  0  0  0  0  0  # atno 17321 bound_to 7965
  139.4797  144.5834  151.7895 LP  0  0  0  0  0  0  0  0  0  0  0  0  # atno 17342 bound_to 10162
  140.4954  144.1248  150.5959 LP  0  0  0  0  0  0  0  0  0  0  0  0  # atno 17343 bound_to 10162
  156.4573  130.4024  149.6598 LP  0  0  0  0  0  0  0  0  0  0  0  0  # atno 17370 bound_to 10713
  156.3726  130.7538  151.2523 LP  0  0  0  0  0  0  0  0  0  0  0  0  # atno 17371 bound_to 10713
  140.2438  134.8593  157.3599 LP  0  0  0  0  0  0  0  0  0  0  0  0  # atno 17394 bound_to 11000
  140.1770  134.4537  155.7795 LP  0  0  0  0  0  0  0  0  0  0  0  0  # atno 17395 bound_to 11000

$$$$
