AV-unprocessed.smi:290|AV-procd|sdf|2224|dock8
  -GOLD-   2262022 73D 1   1.00000     0.00000
 Structure written by MMmdl.
 59 62  0  0  0  0  0  0  0  0  2 V2000
  150.0766  131.4555  155.3191 C   0  0  0  0  0  0  0  0  0  0  0  0
  149.1176  132.4923  154.7140 C   0  0  1  0  0  0  0  0  0  0  0  0
  147.7608  132.0627  154.8141 O   0  0  0  0  0  0  0  0  0  0  0  0
  146.9347  133.1258  155.2742 C   0  0  0  0  0  0  0  0  0  0  0  0
  147.7525  134.3947  155.0576 C   0  0  0  0  0  0  0  0  0  0  0  0
  149.1758  133.9175  155.3106 C   0  0  1  0  0  0  0  0  0  0  0  0
  149.3862  133.8581  156.7118 O   0  0  0  0  0  0  0  0  0  0  0  0
  150.2880  134.8409  154.7480 C   0  0  0  0  0  0  0  0  0  0  0  0
  150.3358  136.1730  155.3309 N   0  0  0  0  0  0  0  0  0  0  0  0
  149.4448  137.2026  155.1201 C   0  0  0  0  0  0  0  0  0  0  0  0
  149.7038  138.3070  155.7666 N   0  0  0  0  0  0  0  0  0  0  0  0
  150.8507  138.0090  156.4902 C   0  0  0  0  0  0  0  0  0  0  0  0
  151.6606  138.7398  157.3969 C   0  0  0  0  0  0  0  0  0  0  0  0
  151.3822  140.0230  157.7170 N   0  0  0  0  0  0  0  0  0  0  0  0
  150.6101  140.7356  156.7109 C   0  0  0  0  0  0  0  0  0  0  0  0
  150.7217  142.2228  157.0696 C   0  0  0  0  0  0  0  0  0  0  0  0
  151.9352  142.3166  158.0200 C   0  0  1  0  0  0  0  0  0  0  0  0
  151.6341  142.8785  159.3742 N   0  3  2  0  0  0  0  0  0  0  0  0
  150.4960  143.8316  159.4374 C   0  0  0  0  0  0  0  0  0  0  0  0
  152.8329  143.3935  160.0837 C   0  0  0  0  0  0  0  0  0  0  0  0
  152.4826  143.9883  161.4581 C   0  0  0  0  0  0  0  0  0  0  0  0
  151.8693  143.0056  162.2653 O   0  0  0  0  0  0  0  0  0  0  0  0
  152.5096  140.8859  158.0430 C   0  0  1  0  0  0  0  0  0  0  0  0
  153.2877  140.4651  159.3061 C   0  0  0  0  0  0  0  0  0  0  0  0
  152.7360  138.1113  157.9407 N   0  0  0  0  0  0  0  0  0  0  0  0
  153.0005  136.8420  157.6149 C   0  0  0  0  0  0  0  0  0  0  0  0
  152.3337  136.0369  156.7846 N   0  0  0  0  0  0  0  0  0  0  0  0
  151.2562  136.6697  156.2375 C   0  0  0  0  0  0  0  0  0  0  0  0
  152.6941  142.9488  157.5594 H   0  0  0  0  0  0  0  0  0  0  0  0
  153.2102  140.8256  157.2079 H   0  0  0  0  0  0  0  0  0  0  0  0
  151.1115  131.7901  155.2451 H   0  0  0  0  0  0  0  0  0  0  0  0
  149.9977  130.5047  154.7920 H   0  0  0  0  0  0  0  0  0  0  0  0
  149.8563  131.2661  156.3698 H   0  0  0  0  0  0  0  0  0  0  0  0
  149.3057  132.5413  153.6425 H   0  0  0  0  0  0  0  0  0  0  0  0
  145.9803  133.1466  154.7476 H   0  0  0  0  0  0  0  0  0  0  0  0
  146.7325  132.9779  156.3356 H   0  0  0  0  0  0  0  0  0  0  0  0
  147.6259  134.7148  154.0242 H   0  0  0  0  0  0  0  0  0  0  0  0
  147.4437  135.2182  155.7024 H   0  0  0  0  0  0  0  0  0  0  0  0
  148.6792  134.3134  157.1427 H   0  0  0  0  0  0  0  0  0  0  0  0
  151.2648  134.3771  154.8921 H   0  0  0  0  0  0  0  0  0  0  0  0
  150.1647  134.9525  153.6696 H   0  0  0  0  0  0  0  0  0  0  0  0
  148.5926  137.1091  154.4625 H   0  0  0  0  0  0  0  0  0  0  0  0
  151.0211  140.5576  155.7157 H   0  0  0  0  0  0  0  0  0  0  0  0
  149.5717  140.4023  156.7095 H   0  0  0  0  0  0  0  0  0  0  0  0
  150.8797  142.8180  156.1698 H   0  0  0  0  0  0  0  0  0  0  0  0
  149.7967  142.5825  157.5162 H   0  0  0  0  0  0  0  0  0  0  0  0
  150.7693  144.8194  159.0672 H   0  0  0  0  0  0  0  0  0  0  0  0
  150.1745  143.9507  160.4723 H   0  0  0  0  0  0  0  0  0  0  0  0
  149.6334  143.4828  158.8715 H   0  0  0  0  0  0  0  0  0  0  0  0
  153.5668  142.5935  160.1896 H   0  0  0  0  0  0  0  0  0  0  0  0
  153.3174  144.1696  159.4885 H   0  0  0  0  0  0  0  0  0  0  0  0
  153.3573  144.3878  161.9701 H   0  0  0  0  0  0  0  0  0  0  0  0
  151.7825  144.8150  161.3355 H   0  0  0  0  0  0  0  0  0  0  0  0
  152.5385  142.5692  162.7711 H   0  0  0  0  0  0  0  0  0  0  0  0
  154.0855  141.1751  159.5250 H   0  0  0  0  0  0  0  0  0  0  0  0
  153.7517  139.4876  159.1712 H   0  0  0  0  0  0  0  0  0  0  0  0
  152.6475  140.3990  160.1850 H   0  0  0  0  0  0  0  0  0  0  0  0
  153.8722  136.4098  158.0840 H   0  0  0  0  0  0  0  0  0  0  0  0
  151.3354  142.0860  159.9256 H   0  0  0  0  0  0  0  0  0  0  0  0
  1  2  1  0  0  0  0
  1 31  1  0  0  0  0
  1 32  1  0  0  0  0
  1 33  1  0  0  0  0
  2  6  1  0  0  0  0
  2  3  1  0  0  0  0
  2 34  1  0  0  0  0
  3  4  1  0  0  0  0
  4  5  1  0  0  0  0
  4 35  1  0  0  0  0
  4 36  1  0  0  0  0
  5  6  1  0  0  0  0
  5 37  1  0  0  0  0
  5 38  1  0  0  0  0
  6  7  1  0  0  0  0
  6  8  1  0  0  0  0
  7 39  1  0  0  0  0
  8  9  1  0  0  0  0
  8 40  1  0  0  0  0
  8 41  1  0  0  0  0
  9 28  1  0  0  0  0
  9 10  1  0  0  0  0
 10 11  2  0  0  0  0
 10 42  1  0  0  0  0
 11 12  1  0  0  0  0
 12 28  2  0  0  0  0
 12 13  1  0  0  0  0
 13 14  1  0  0  0  0
 13 25  2  0  0  0  0
 14 23  1  0  0  0  0
 14 15  1  0  0  0  0
 15 16  1  0  0  0  0
 15 43  1  0  0  0  0
 15 44  1  0  0  0  0
 16 17  1  0  0  0  0
 16 45  1  0  0  0  0
 16 46  1  0  0  0  0
 17 29  1  0  0  0  0
 17 18  1  0  0  0  0
 17 23  1  0  0  0  0
 18 19  1  0  0  0  0
 18 20  1  0  0  0  0
 18 59  1  0  0  0  0
 19 47  1  0  0  0  0
 19 48  1  0  0  0  0
 19 49  1  0  0  0  0
 20 21  1  0  0  0  0
 20 50  1  0  0  0  0
 20 51  1  0  0  0  0
 21 22  1  0  0  0  0
 21 52  1  0  0  0  0
 21 53  1  0  0  0  0
 22 54  1  0  0  0  0
 23 30  1  0  0  0  0
 23 24  1  0  0  0  0
 24 55  1  0  0  0  0
 24 56  1  0  0  0  0
 24 57  1  0  0  0  0
 25 26  1  0  0  0  0
 26 27  2  0  0  0  0
 26 58  1  0  0  0  0
 27 28  1  0  0  0  0
M  CHG  1  18   1
M  END
> <s_m_source_file>
AV-unprocessed.smi

> <i_m_source_file_index>
290

> <i_lp_mmshare_version>
43012

> <i_f3d_flags>
0

> <s_epik_input>
W0NIMl0xW0NIMl1PW0NAQEhdKFtDSDNdKVtDQEBdMShbT0hdKVtDSDJdbihbY0hdbjIpYyhjMjMpbltjSF1uYzNONFtDSDJdW0NIMl1bQ0BIXShbQ0BIXTRbQ0gzXSlOKFtDSDNdKVtDSDJdW0NIMl1bT0hd

> <s_epik_cmdline>
J2VwaWtfcHl0aG9uJywgJy1waCcsICc3LjAnLCAnLXRuJywgJzgnLCAnLW1hJywgJzIwMCcsICctbWV0YWxfYmluZGluZycsICctaW1hZScsICc8aW5maWxlLm1hZT4nLCAnLW9tYWUnLCAnPG91dGZpbGUubWFlPic=

> <r_lp_tautomer_probability>
1

> <r_epik_Ionization_Penalty>
0.0036983

> <r_epik_Ionization_Penalty_Charging>
0.0032725

> <r_epik_Ionization_Penalty_Neutral>
0.000425798

> <r_epik_State_Penalty>
-0

> <r_epik_Charging_Adjusted_Penalty>
0.0032725

> <i_epik_Tot_Q>
1

> <i_epik_Tot_abs_Q>
1

> <r_epik_Metal_State_Penalty>
-0

> <b_epik_Metal_Only>
0

> <s_lp_Force_Field>
OPLS_2005

> <r_lp_Energy>
72.0744

> <b_lp_Chiralities_Consistent>
1

> <s_lp_Variant>
AV-unprocessed.smi:290-10

> <Gold.Version>
5.8.1

> <Gold.Id.Protein>
6NUR|6NUR_protein|mol2

> <Gold.PLP.Fitness>
42.6717

> <Gold.PLP.PLP>
-37.1602

> <Gold.PLP.part.hbond>
-3.0000

> <Gold.PLP.part.metal>
0.0000

> <Gold.PLP.part.buried>
-6.7489

> <Gold.PLP.part.nonpolar>
-27.6304

> <Gold.PLP.part.repulsive>
0.1541

> <Gold.PLP.ligand.clash>
0.1418

> <Gold.PLP.ligand.torsion>
1.5216

> <Gold.PLP.Chemscore.Hbond>
1.9440

> <Gold.PLP.Chemscore.CHOScore>
0.8933

> <Gold.PLP.Chemscore.Metal>
0.0000

> <Gold.Chemscore.Hbonds>
donor molecule, donor type, donor heavy atom, donor atom, acceptor molecule, acceptor atom, score
      P1  H  6933  6945       L1    22  0.53
      P1  H 10752 10765       L1    27  1.00
      L1  C    10    42       P1  7948  0.33

> <Gold.PLP.Chemscore.Internal.Correction>
0.1846

> <Gold.Rescore>
     Score         DG    S(hbond)    S(metal)    S(lipo)     H(rot)  DE(clash)    DE(int)     intcor
      5.68     -12.31       1.46        0.00      96.98       3.67       1.55       5.09       ----

> <Gold.Chemscore.Fitness>
5.6763

> <Gold.Chemscore.DG>
-12.3150

> <Gold.Chemscore.ZeroCoef>
-5.4800

> <Gold.Chemscore.Hbond>
1.4589

> <Gold.Chemscore.Metal>
0.0000

> <Gold.Chemscore.Lipo>
96.9791

> <Gold.Chemscore.Internal_Hbond>
0.0000

> <Gold.Chemscore.DEClash>
1.5513

> <Gold.Chemscore.DEInternal>
5.0874

> <Gold.Chemscore.Rot>
3.6658

> <Gold.Chemscore.Internal.Correction>
   9.000000E+99

> <Gold.Chemscore.Hbonds>
donor molecule, donor type, donor heavy atom, donor atom, acceptor molecule, acceptor atom, score
      P1  H  6933  6945       L1    22  0.37
      P1  H 10752 10765       L1    27  0.32

> <Gold.Chemscore.Hbond.Weighted>
-4.8729

> <Gold.Chemscore.Metal.Weighted>
-0.0000

> <Gold.Chemscore.Lipo.Weighted>
-11.3466

> <Gold.Chemscore.Internal_Hbond.Weighted>
0.0000

> <Gold.Chemscore.DEClash.Weighted>
1.5513

> <Gold.Chemscore.DEInternal.Weighted>
5.0874

> <Gold.Chemscore.Rot.Weighted>
9.3844

> <Gold.Chemscore.Internal.Correction.Weighted>
   9.000000E+99

> <Gold.Protein.RotatedTorsions>
[ 6907 6896 6895 6894 ] final    5.38 input  -60.11 | X-H torsion
[ 7974 7965 7964 7962 ] final  -88.54 input  175.53 | X-H torsion
[ 8008 7997 7996 7995 ] final  -64.36 input   59.86 | X-H torsion
[ 10167 10162 10161 10158 ] final  -25.10 input  -65.29 | X-H torsion
[ 10718 10713 10712 10709 ] final -162.34 input   66.30 | X-H torsion
[ 10763 10752 10751 10750 ] final -138.69 input  -60.55 | X-H torsion
[ 11005 11000 10999 10996 ] final -128.60 input  -57.11 | X-H torsion

> <Gold.Protein.ActiveResidues>
 VAL166  LYS551  ARG553  GLY616  TRP617  ASP618  TYR619  PRO620  LYS621  CYS622 
 ASP623  PHE694  ASN695  SER759  ASP760  ASP761  ALA762  ILE779  LEU786  VAL792 
 PHE793  MET794  SER795  GLU796  ALA797  LYS798  CYS799  TRP800  GLU811  SER814 

> <Gold.Protein.RotatedAtoms>
  151.6566  135.0995  160.0170 H   0  0  0  0  0  0  0  0  0  0  0  0  # atno 6907 bound_to 6896
  152.3971  133.6758  159.6293 H   0  0  0  0  0  0  0  0  0  0  0  0  # atno 6908 bound_to 6896
  150.7876  133.8773  159.3316 H   0  0  0  0  0  0  0  0  0  0  0  0  # atno 6909 bound_to 6896
  145.4518  140.9560  143.2018 H   0  0  0  0  0  0  0  0  0  0  0  0  # atno 7974 bound_to 7965
  154.4607  140.0955  156.6886 H   0  0  0  0  0  0  0  0  0  0  0  0  # atno 8008 bound_to 7997
  155.5002  140.3473  155.4351 H   0  0  0  0  0  0  0  0  0  0  0  0  # atno 8009 bound_to 7997
  156.0865  140.1386  156.9635 H   0  0  0  0  0  0  0  0  0  0  0  0  # atno 8010 bound_to 7997
  140.7287  143.4295  151.0824 H   0  0  0  0  0  0  0  0  0  0  0  0  # atno 10167 bound_to 10162
  156.6091  130.8843  151.2932 H   0  0  0  0  0  0  0  0  0  0  0  0  # atno 10718 bound_to 10713
  154.8630  135.3604  154.5426 H   0  0  0  0  0  0  0  0  0  0  0  0  # atno 10763 bound_to 10752
  153.6047  135.7011  153.5375 H   0  0  0  0  0  0  0  0  0  0  0  0  # atno 10764 bound_to 10752
  153.3261  135.4137  155.1418 H   0  0  0  0  0  0  0  0  0  0  0  0  # atno 10765 bound_to 10752
  140.9503  134.1075  157.4068 H   0  0  0  0  0  0  0  0  0  0  0  0  # atno 11005 bound_to 11000
  144.8057  139.6056  143.7052 LP  0  0  0  0  0  0  0  0  0  0  0  0  # atno 17320 bound_to 7965
  146.2500  139.6179  142.9433 LP  0  0  0  0  0  0  0  0  0  0  0  0  # atno 17321 bound_to 7965
  139.7950  143.8164  152.3156 LP  0  0  0  0  0  0  0  0  0  0  0  0  # atno 17342 bound_to 10162
  139.8161  144.7315  150.9633 LP  0  0  0  0  0  0  0  0  0  0  0  0  # atno 17343 bound_to 10162
  157.7259  130.9622  150.1633 LP  0  0  0  0  0  0  0  0  0  0  0  0  # atno 17370 bound_to 10713
  156.2405  130.3690  149.8343 LP  0  0  0  0  0  0  0  0  0  0  0  0  # atno 17371 bound_to 10713
  139.8845  135.0064  156.6375 LP  0  0  0  0  0  0  0  0  0  0  0  0  # atno 17394 bound_to 11000
  140.7612  133.8816  155.8420 LP  0  0  0  0  0  0  0  0  0  0  0  0  # atno 17395 bound_to 11000

$$$$
