AV-unprocessed.smi:3253|AV-procd|sdf|12448|dock3
  -GOLD-   2272018343D 1   1.00000     0.00000
 Structure written by MMmdl.
 37 38  0  0  0  0  0  0  0  0  2 V2000
  146.2880  129.0421  153.0885 C   0  0  0  0  0  0  0  0  0  0  0  0
  146.6139  130.3850  152.4214 C   0  0  1  0  0  0  0  0  0  0  0  0
  145.5374  131.4454  152.7431 C   0  0  0  0  0  0  0  0  0  0  0  0
  144.9171  132.0212  151.5446 N   0  0  0  0  0  0  0  0  0  0  0  0
  145.3996  131.9889  150.2610 C   0  0  0  0  0  0  0  0  0  0  0  0
  144.4752  132.6335  149.4799 C   0  0  0  0  0  0  0  0  0  0  0  0
  143.4734  133.0399  150.3202 N   0  3  0  0  0  0  0  0  0  0  0  0
  143.7464  132.6712  151.5760 C   0  0  0  0  0  0  0  0  0  0  0  0
  147.9362  130.8261  152.8646 N   0  0  0  0  0  0  0  0  0  0  0  0
  148.3312  130.9518  154.1418 C   0  0  0  0  0  0  0  0  0  0  0  0
  147.5954  130.7206  155.1023 O   0  0  0  0  0  0  0  0  0  0  0  0
  149.7902  131.3740  154.3714 C   0  0  1  0  0  0  0  0  0  0  0  0
  149.8876  132.6550  155.2255 C   0  0  0  0  0  0  0  0  0  0  0  0
  150.4687  132.1716  156.5444 C   0  0  0  0  0  0  0  0  0  0  0  0
  150.5860  132.8980  157.5298 O   0  0  0  0  0  0  0  0  0  0  0  0
  150.8058  130.8808  156.4731 N   0  0  0  0  0  0  0  0  0  0  0  0
  151.3689  130.0858  157.5557 C   0  0  0  0  0  0  0  0  0  0  0  0
  150.5806  130.3062  155.1584 C   0  0  0  0  0  0  0  0  0  0  0  0
  145.3179  128.6666  152.7618 H   0  0  0  0  0  0  0  0  0  0  0  0
  146.2602  129.1332  154.1751 H   0  0  0  0  0  0  0  0  0  0  0  0
  147.0332  128.2869  152.8361 H   0  0  0  0  0  0  0  0  0  0  0  0
  146.6277  130.2116  151.3438 H   0  0  0  0  0  0  0  0  0  0  0  0
  144.7387  131.0065  153.3428 H   0  0  0  0  0  0  0  0  0  0  0  0
  145.9611  132.2613  153.3307 H   0  0  0  0  0  0  0  0  0  0  0  0
  146.3349  131.5134  150.0036 H   0  0  0  0  0  0  0  0  0  0  0  0
  144.4552  132.8277  148.4174 H   0  0  0  0  0  0  0  0  0  0  0  0
  143.1345  132.8508  152.4421 H   0  0  0  0  0  0  0  0  0  0  0  0
  148.6079  131.0407  152.1415 H   0  0  0  0  0  0  0  0  0  0  0  0
  150.2679  131.5412  153.4043 H   0  0  0  0  0  0  0  0  0  0  0  0
  150.5677  133.3772  154.7734 H   0  0  0  0  0  0  0  0  0  0  0  0
  148.9295  133.1516  155.3871 H   0  0  0  0  0  0  0  0  0  0  0  0
  152.2819  130.5456  157.9358 H   0  0  0  0  0  0  0  0  0  0  0  0
  151.6138  129.0784  157.2181 H   0  0  0  0  0  0  0  0  0  0  0  0
  150.6568  130.0043  158.3777 H   0  0  0  0  0  0  0  0  0  0  0  0
  150.0504  129.3553  155.2411 H   0  0  0  0  0  0  0  0  0  0  0  0
  151.5418  130.1071  154.6825 H   0  0  0  0  0  0  0  0  0  0  0  0
  142.6431  133.5438  150.0348 H   0  0  0  0  0  0  0  0  0  0  0  0
  1  2  1  0  0  0  0
  1 19  1  0  0  0  0
  1 20  1  0  0  0  0
  1 21  1  0  0  0  0
  2  3  1  0  0  0  0
  2  9  1  0  0  0  0
  2 22  1  0  0  0  0
  3  4  1  0  0  0  0
  3 23  1  0  0  0  0
  3 24  1  0  0  0  0
  4  8  1  0  0  0  0
  4  5  1  0  0  0  0
  5  6  2  0  0  0  0
  5 25  1  0  0  0  0
  6  7  1  0  0  0  0
  6 26  1  0  0  0  0
  7  8  2  0  0  0  0
  7 37  1  0  0  0  0
  8 27  1  0  0  0  0
  9 10  1  0  0  0  0
  9 28  1  0  0  0  0
 10 11  2  0  0  0  0
 10 12  1  0  0  0  0
 12 18  1  0  0  0  0
 12 13  1  0  0  0  0
 12 29  1  0  0  0  0
 13 14  1  0  0  0  0
 13 30  1  0  0  0  0
 13 31  1  0  0  0  0
 14 15  2  0  0  0  0
 14 16  1  0  0  0  0
 16 17  1  0  0  0  0
 16 18  1  0  0  0  0
 17 32  1  0  0  0  0
 17 33  1  0  0  0  0
 17 34  1  0  0  0  0
 18 35  1  0  0  0  0
 18 36  1  0  0  0  0
M  CHG  1   7   1
M  END
> <s_m_source_file>
AV-unprocessed.smi

> <i_m_source_file_index>
3253

> <i_lp_mmshare_version>
43012

> <i_f3d_flags>
0

> <s_epik_input>
W2NIXTFuW2NIXVtjSF1uMVtDSDJdW0NAQEhdKFtDSDNdKVtOSF1DKD1PKVtDQEBIXTJbQ0gyXUMoPU8pTihbQ0gzXSlbQ0gyXTI=

> <s_epik_cmdline>
J2VwaWtfcHl0aG9uJywgJy1waCcsICc3LjAnLCAnLXRuJywgJzgnLCAnLW1hJywgJzIwMCcsICctbWV0YWxfYmluZGluZycsICctaW1hZScsICc8aW5maWxlLm1hZT4nLCAnLW9tYWUnLCAnPG91dGZpbGUubWFlPic=

> <r_lp_tautomer_probability>
1

> <r_epik_Ionization_Penalty>
0.251561

> <r_epik_Ionization_Penalty_Charging>
0

> <r_epik_Ionization_Penalty_Neutral>
0.251561

> <r_epik_State_Penalty>
0.242926

> <r_epik_Charging_Adjusted_Penalty>
0.242926

> <i_epik_Tot_Q>
1

> <i_epik_Tot_abs_Q>
1

> <r_epik_Metal_State_Penalty>
0.533885

> <b_epik_Metal_Only>
0

> <s_lp_Force_Field>
OPLS_2005

> <r_lp_Energy>
13.8895

> <b_lp_Chiralities_Consistent>
1

> <s_lp_Variant>
AV-unprocessed.smi:3253-4

> <Gold.Version>
5.8.1

> <Gold.Id.Protein>
6NUR|6NUR_protein|mol2

> <Gold.PLP.Fitness>
45.1304

> <Gold.PLP.PLP>
-32.3070

> <Gold.PLP.part.hbond>
-2.9674

> <Gold.PLP.part.metal>
0.0000

> <Gold.PLP.part.buried>
-4.3140

> <Gold.PLP.part.nonpolar>
-25.5205

> <Gold.PLP.part.repulsive>
0.0931

> <Gold.PLP.ligand.clash>
0.0000

> <Gold.PLP.ligand.torsion>
1.0629

> <Gold.PLP.Chemscore.Hbond>
3.9105

> <Gold.PLP.Chemscore.CHOScore>
1.0626

> <Gold.PLP.Chemscore.Metal>
0.0000

> <Gold.Chemscore.Hbonds>
donor molecule, donor type, donor heavy atom, donor atom, acceptor molecule, acceptor atom, score
      L1  H     7    37       P1 10186  2.00
      L1  H     9    28       P1 10747  0.90
      P1  H  6896  6908       L1    15  0.99
      L1  C     5    25       P1 10747  0.52
      L1  C     8    27       P1 10957  0.66

> <Gold.PLP.Chemscore.Internal.Correction>
0.0298

> <Gold.Rescore>
     Score         DG    S(hbond)    S(metal)    S(lipo)     H(rot)  DE(clash)    DE(int)     intcor
     14.96     -16.76       2.75        0.00      62.31       2.03       0.02       1.78       ----

> <Gold.Chemscore.Fitness>
14.9563

> <Gold.Chemscore.DG>
-16.7551

> <Gold.Chemscore.ZeroCoef>
-5.4800

> <Gold.Chemscore.Hbond>
2.7523

> <Gold.Chemscore.Metal>
0.0000

> <Gold.Chemscore.Lipo>
62.3057

> <Gold.Chemscore.Internal_Hbond>
0.0000

> <Gold.Chemscore.DEClash>
0.0155

> <Gold.Chemscore.DEInternal>
1.7833

> <Gold.Chemscore.Rot>
2.0341

> <Gold.Chemscore.Internal.Correction>
   9.000000E+99

> <Gold.Chemscore.Hbonds>
donor molecule, donor type, donor heavy atom, donor atom, acceptor molecule, acceptor atom, score
      L1  H     7    37       P1 10186  1.00
      L1  H     9    28       P1 10747  0.82
      P1  H  6896  6908       L1    15  0.94

> <Gold.Chemscore.Hbond.Weighted>
-9.1925

> <Gold.Chemscore.Metal.Weighted>
-0.0000

> <Gold.Chemscore.Lipo.Weighted>
-7.2898

> <Gold.Chemscore.Internal_Hbond.Weighted>
0.0000

> <Gold.Chemscore.DEClash.Weighted>
0.0155

> <Gold.Chemscore.DEInternal.Weighted>
1.7833

> <Gold.Chemscore.Rot.Weighted>
5.2072

> <Gold.Chemscore.Internal.Correction.Weighted>
   9.000000E+99

> <Gold.Protein.RotatedTorsions>
[ 6907 6896 6895 6894 ] final   79.56 input  -60.11 | X-H torsion
[ 7974 7965 7964 7962 ] final  -64.86 input  175.53 | X-H torsion
[ 8008 7997 7996 7995 ] final -168.30 input   59.86 | X-H torsion
[ 10167 10162 10161 10158 ] final  -38.35 input  -65.29 | X-H torsion
[ 10718 10713 10712 10709 ] final   65.56 input   66.30 | X-H torsion
[ 10763 10752 10751 10750 ] final -140.38 input  -60.55 | X-H torsion
[ 11005 11000 10999 10996 ] final  -62.29 input  -57.11 | X-H torsion

> <Gold.Protein.ActiveResidues>
 VAL166  LYS551  ARG553  GLY616  TRP617  ASP618  TYR619  PRO620  LYS621  CYS622 
 ASP623  PHE694  ASN695  SER759  ASP760  ASP761  ALA762  ILE779  LEU786  VAL792 
 PHE793  MET794  SER795  GLU796  ALA797  LYS798  CYS799  TRP800  GLU811  SER814 

> <Gold.Protein.RotatedAtoms>
  152.5203  134.3492  159.9244 H   0  0  0  0  0  0  0  0  0  0  0  0  # atno 6907 bound_to 6896
  151.3443  133.3944  159.2682 H   0  0  0  0  0  0  0  0  0  0  0  0  # atno 6908 bound_to 6896
  150.9778  134.9157  159.7884 H   0  0  0  0  0  0  0  0  0  0  0  0  # atno 6909 bound_to 6896
  145.7614  140.8859  143.0428 H   0  0  0  0  0  0  0  0  0  0  0  0  # atno 7974 bound_to 7965
  155.8896  140.1022  157.1428 H   0  0  0  0  0  0  0  0  0  0  0  0  # atno 8008 bound_to 7997
  154.4013  140.1313  156.4362 H   0  0  0  0  0  0  0  0  0  0  0  0  # atno 8009 bound_to 7997
  155.7549  140.3464  155.5171 H   0  0  0  0  0  0  0  0  0  0  0  0  # atno 8010 bound_to 7997
  140.7094  143.3282  151.2629 H   0  0  0  0  0  0  0  0  0  0  0  0  # atno 10167 bound_to 10162
  157.6113  130.9220  149.9992 H   0  0  0  0  0  0  0  0  0  0  0  0  # atno 10718 bound_to 10713
  154.8580  135.3555  154.5698 H   0  0  0  0  0  0  0  0  0  0  0  0  # atno 10763 bound_to 10752
  153.6311  135.7002  153.5280 H   0  0  0  0  0  0  0  0  0  0  0  0  # atno 10764 bound_to 10752
  153.3048  135.4195  155.1244 H   0  0  0  0  0  0  0  0  0  0  0  0  # atno 10765 bound_to 10752
  141.1354  133.6638  156.5505 H   0  0  0  0  0  0  0  0  0  0  0  0  # atno 11005 bound_to 11000
  144.6830  139.9728  143.7482 LP  0  0  0  0  0  0  0  0  0  0  0  0  # atno 17320 bound_to 7965
  146.0260  139.3292  143.0784 LP  0  0  0  0  0  0  0  0  0  0  0  0  # atno 17321 bound_to 7965
  139.6757  143.9942  152.2779 LP  0  0  0  0  0  0  0  0  0  0  0  0  # atno 17342 bound_to 10162
  139.9555  144.6592  150.8130 LP  0  0  0  0  0  0  0  0  0  0  0  0  # atno 17343 bound_to 10162
  156.1217  130.3646  149.9876 LP  0  0  0  0  0  0  0  0  0  0  0  0  # atno 17370 bound_to 10713
  156.7955  130.9271  151.3646 LP  0  0  0  0  0  0  0  0  0  0  0  0  # atno 17371 bound_to 10713
  140.4067  134.7308  157.4812 LP  0  0  0  0  0  0  0  0  0  0  0  0  # atno 17394 bound_to 11000
  140.0457  134.6203  155.8925 LP  0  0  0  0  0  0  0  0  0  0  0  0  # atno 17395 bound_to 11000

$$$$
