AV-unprocessed.smi:3250|AV-procd|sdf|12427|dock4
  -GOLD-   2272018313D 1   1.00000     0.00000
 Structure written by MMmdl.
 39 40  0  0  0  0  0  0  0  0  2 V2000
  146.8002  138.6270  152.1652 C   0  0  0  0  0  0  0  0  0  0  0  0
  147.5252  138.9922  153.4678 C   0  0  0  0  0  0  0  0  0  0  0  0
  148.1641  140.3331  153.3992 N   0  3  1  0  0  0  0  0  0  0  0  0
  147.2148  141.4749  153.4244 C   0  0  0  0  0  0  0  0  0  0  0  0
  146.7082  141.7581  154.8517 C   0  0  0  0  0  0  0  0  0  0  0  0
  147.8140  141.9504  155.7260 O   0  0  0  0  0  0  0  0  0  0  0  0
  148.6521  140.8026  155.8063 C   0  0  2  0  0  0  0  0  0  0  0  0
  149.7394  141.0931  156.8552 C   0  0  0  0  0  0  0  0  0  0  0  0
  150.0374  142.5146  156.9769 N   0  0  0  0  0  0  0  0  0  0  0  0
  150.7687  143.0824  158.0047 C   0  0  0  0  0  0  0  0  0  0  0  0
  151.3210  144.2658  157.7299 N   0  0  0  0  0  0  0  0  0  0  0  0
  152.0374  144.8521  158.7141 C   0  0  0  0  0  0  0  0  0  0  0  0
  152.2005  144.2460  159.9757 C   0  0  0  0  0  0  0  0  0  0  0  0
  151.5768  142.9954  160.1579 C   0  0  0  0  0  0  0  0  0  0  0  0
  151.6954  142.3465  161.3692 O   0  0  0  0  0  0  0  0  0  0  0  0
  152.4519  142.9772  162.3968 C   0  0  0  0  0  0  0  0  0  0  0  0
  150.8613  142.4167  159.1612 N   0  0  0  0  0  0  0  0  0  0  0  0
  149.2379  140.5302  154.4031 C   0  0  0  0  0  0  0  0  0  0  0  0
  146.4175  137.6075  152.2132 H   0  0  0  0  0  0  0  0  0  0  0  0
  147.4741  138.6851  151.3099 H   0  0  0  0  0  0  0  0  0  0  0  0
  145.9511  139.2815  151.9703 H   0  0  0  0  0  0  0  0  0  0  0  0
  146.8430  138.9275  154.3154 H   0  0  0  0  0  0  0  0  0  0  0  0
  148.2950  138.2385  153.6382 H   0  0  0  0  0  0  0  0  0  0  0  0
  147.7377  142.3566  153.0518 H   0  0  0  0  0  0  0  0  0  0  0  0
  146.3789  141.3098  152.7457 H   0  0  0  0  0  0  0  0  0  0  0  0
  146.0981  142.6613  154.8566 H   0  0  0  0  0  0  0  0  0  0  0  0
  146.0736  140.9505  155.2189 H   0  0  0  0  0  0  0  0  0  0  0  0
  148.0517  139.9542  156.1381 H   0  0  0  0  0  0  0  0  0  0  0  0
  149.4287  140.7177  157.8303 H   0  0  0  0  0  0  0  0  0  0  0  0
  150.6557  140.5592  156.6001 H   0  0  0  0  0  0  0  0  0  0  0  0
  149.7106  143.1346  156.2499 H   0  0  0  0  0  0  0  0  0  0  0  0
  152.4836  145.8105  158.4937 H   0  0  0  0  0  0  0  0  0  0  0  0
  152.7721  144.7169  160.7619 H   0  0  0  0  0  0  0  0  0  0  0  0
  152.4630  142.3394  163.2807 H   0  0  0  0  0  0  0  0  0  0  0  0
  152.0130  143.9340  162.6837 H   0  0  0  0  0  0  0  0  0  0  0  0
  153.4870  143.1363  162.0911 H   0  0  0  0  0  0  0  0  0  0  0  0
  149.9056  139.6677  154.4146 H   0  0  0  0  0  0  0  0  0  0  0  0
  149.8454  141.3811  154.0916 H   0  0  0  0  0  0  0  0  0  0  0  0
  148.6216  140.3586  152.4988 H   0  0  0  0  0  0  0  0  0  0  0  0
  1  2  1  0  0  0  0
  1 19  1  0  0  0  0
  1 20  1  0  0  0  0
  1 21  1  0  0  0  0
  2  3  1  0  0  0  0
  2 22  1  0  0  0  0
  2 23  1  0  0  0  0
  3 18  1  0  0  0  0
  3  4  1  0  0  0  0
  3 39  1  0  0  0  0
  4  5  1  0  0  0  0
  4 24  1  0  0  0  0
  4 25  1  0  0  0  0
  5  6  1  0  0  0  0
  5 26  1  0  0  0  0
  5 27  1  0  0  0  0
  6  7  1  0  0  0  0
  7  8  1  0  0  0  0
  7 18  1  0  0  0  0
  7 28  1  0  0  0  0
  8  9  1  0  0  0  0
  8 29  1  0  0  0  0
  8 30  1  0  0  0  0
  9 10  1  0  0  0  0
  9 31  1  0  0  0  0
 10 17  1  0  0  0  0
 10 11  2  0  0  0  0
 11 12  1  0  0  0  0
 12 13  2  0  0  0  0
 12 32  1  0  0  0  0
 13 14  1  0  0  0  0
 13 33  1  0  0  0  0
 14 15  1  0  0  0  0
 14 17  2  0  0  0  0
 15 16  1  0  0  0  0
 16 34  1  0  0  0  0
 16 35  1  0  0  0  0
 16 36  1  0  0  0  0
 18 37  1  0  0  0  0
 18 38  1  0  0  0  0
M  CHG  1   3   1
M  END
> <s_m_source_file>
AV-unprocessed.smi

> <i_m_source_file_index>
3250

> <i_lp_mmshare_version>
43012

> <i_f3d_flags>
0

> <s_epik_input>
W0NIM11bQ0gyXU4xW0NIMl1bQ0gyXU9bQ0BIXShbQ0gyXTEpW0NIMl1bTkhdYzJuW2NIXVtjSF1jKG4yKU9bQ0gzXQ==

> <s_epik_cmdline>
J2VwaWtfcHl0aG9uJywgJy1waCcsICc3LjAnLCAnLXRuJywgJzgnLCAnLW1hJywgJzIwMCcsICctbWV0YWxfYmluZGluZycsICctaW1hZScsICc8aW5maWxlLm1hZT4nLCAnLW9tYWUnLCAnPG91dGZpbGUubWFlPic=

> <r_lp_tautomer_probability>
1

> <r_epik_Ionization_Penalty>
0.19684

> <r_epik_Ionization_Penalty_Charging>
0.178504

> <r_epik_Ionization_Penalty_Neutral>
0.0183356

> <r_epik_State_Penalty>
0.162939

> <r_epik_Charging_Adjusted_Penalty>
0.341443

> <i_epik_Tot_Q>
1

> <i_epik_Tot_abs_Q>
1

> <r_epik_Metal_State_Penalty>
0.1608

> <b_epik_Metal_Only>
0

> <s_lp_Force_Field>
OPLS_2005

> <r_lp_Energy>
9.61167

> <b_lp_Chiralities_Consistent>
1

> <s_lp_Variant>
AV-unprocessed.smi:3250-3

> <Gold.Version>
5.8.1

> <Gold.Id.Protein>
6NUR|6NUR_protein|mol2

> <Gold.PLP.Fitness>
43.7788

> <Gold.PLP.PLP>
-38.6418

> <Gold.PLP.part.hbond>
-3.0000

> <Gold.PLP.part.metal>
0.0000

> <Gold.PLP.part.buried>
-7.3045

> <Gold.PLP.part.nonpolar>
-31.1695

> <Gold.PLP.part.repulsive>
2.2058

> <Gold.PLP.ligand.clash>
0.1832

> <Gold.PLP.ligand.torsion>
0.7228

> <Gold.PLP.Chemscore.Hbond>
2.2395

> <Gold.PLP.Chemscore.CHOScore>
0.0000

> <Gold.PLP.Chemscore.Metal>
0.0000

> <Gold.Chemscore.Hbonds>
donor molecule, donor type, donor heavy atom, donor atom, acceptor molecule, acceptor atom, score
      L1  H     3    39       P1  7957  1.00
      L1  H     9    31       P1  8028  1.00
      P1  H  6933  6945       L1    15  0.53

> <Gold.PLP.Chemscore.Internal.Correction>
0.0474

> <Gold.Rescore>
     Score         DG    S(hbond)    S(metal)    S(lipo)     H(rot)  DE(clash)    DE(int)     intcor
     16.99     -18.05       2.31        0.00      78.88       1.71       0.15       0.91       ----

> <Gold.Chemscore.Fitness>
16.9949

> <Gold.Chemscore.DG>
-18.0510

> <Gold.Chemscore.ZeroCoef>
-5.4800

> <Gold.Chemscore.Hbond>
2.3132

> <Gold.Chemscore.Metal>
0.0000

> <Gold.Chemscore.Lipo>
78.8840

> <Gold.Chemscore.Internal_Hbond>
0.0000

> <Gold.Chemscore.DEClash>
0.1508

> <Gold.Chemscore.DEInternal>
0.9053

> <Gold.Chemscore.Rot>
1.7127

> <Gold.Chemscore.Internal.Correction>
   9.000000E+99

> <Gold.Chemscore.Hbonds>
donor molecule, donor type, donor heavy atom, donor atom, acceptor molecule, acceptor atom, score
      L1  H     3    39       P1  7957  1.00
      L1  H     9    31       P1  8028  0.96
      P1  H  6933  6945       L1    15  0.28

> <Gold.Chemscore.Hbond.Weighted>
-7.7261

> <Gold.Chemscore.Metal.Weighted>
-0.0000

> <Gold.Chemscore.Lipo.Weighted>
-9.2294

> <Gold.Chemscore.Internal_Hbond.Weighted>
0.0000

> <Gold.Chemscore.DEClash.Weighted>
0.1508

> <Gold.Chemscore.DEInternal.Weighted>
0.9053

> <Gold.Chemscore.Rot.Weighted>
4.3846

> <Gold.Chemscore.Internal.Correction.Weighted>
   9.000000E+99

> <Gold.Protein.RotatedTorsions>
[ 6907 6896 6895 6894 ] final -178.83 input  -60.11 | X-H torsion
[ 7974 7965 7964 7962 ] final -106.20 input  175.53 | X-H torsion
[ 8008 7997 7996 7995 ] final   12.18 input   59.86 | X-H torsion
[ 10167 10162 10161 10158 ] final   75.66 input  -65.29 | X-H torsion
[ 10718 10713 10712 10709 ] final  154.27 input   66.30 | X-H torsion
[ 10763 10752 10751 10750 ] final  146.21 input  -60.55 | X-H torsion
[ 11005 11000 10999 10996 ] final  -86.77 input  -57.11 | X-H torsion

> <Gold.Protein.ActiveResidues>
 VAL166  LYS551  ARG553  GLY616  TRP617  ASP618  TYR619  PRO620  LYS621  CYS622 
 ASP623  PHE694  ASN695  SER759  ASP760  ASP761  ALA762  ILE779  LEU786  VAL792 
 PHE793  MET794  SER795  GLU796  ALA797  LYS798  CYS799  TRP800  GLU811  SER814 

> <Gold.Protein.RotatedAtoms>
  151.6435  133.3324  159.3135 H   0  0  0  0  0  0  0  0  0  0  0  0  # atno 6907 bound_to 6896
  150.7996  134.7084  159.6599 H   0  0  0  0  0  0  0  0  0  0  0  0  # atno 6908 bound_to 6896
  152.4086  134.6167  160.0091 H   0  0  0  0  0  0  0  0  0  0  0  0  # atno 6909 bound_to 6896
  145.2208  140.9133  143.3260 H   0  0  0  0  0  0  0  0  0  0  0  0  # atno 7974 bound_to 7965
  154.8170  140.2877  155.5813 H   0  0  0  0  0  0  0  0  0  0  0  0  # atno 8008 bound_to 7997
  156.2994  140.2557  156.3000 H   0  0  0  0  0  0  0  0  0  0  0  0  # atno 8009 bound_to 7997
  154.9382  140.0382  157.2072 H   0  0  0  0  0  0  0  0  0  0  0  0  # atno 8010 bound_to 7997
  140.0006  144.5689  150.7741 H   0  0  0  0  0  0  0  0  0  0  0  0  # atno 10167 bound_to 10162
  157.2338  131.0744  151.1836 H   0  0  0  0  0  0  0  0  0  0  0  0  # atno 10718 bound_to 10713
  154.0181  135.2908  155.3384 H   0  0  0  0  0  0  0  0  0  0  0  0  # atno 10763 bound_to 10752
  154.7063  135.5168  153.8603 H   0  0  0  0  0  0  0  0  0  0  0  0  # atno 10764 bound_to 10752
  153.0693  135.6642  154.0406 H   0  0  0  0  0  0  0  0  0  0  0  0  # atno 10765 bound_to 10752
  141.1626  133.7473  156.9210 H   0  0  0  0  0  0  0  0  0  0  0  0  # atno 11005 bound_to 11000
  144.9767  139.3825  143.6282 LP  0  0  0  0  0  0  0  0  0  0  0  0  # atno 17320 bound_to 7965
  146.3376  139.8889  142.8812 LP  0  0  0  0  0  0  0  0  0  0  0  0  # atno 17321 bound_to 7965
  140.7420  143.2826  151.3554 LP  0  0  0  0  0  0  0  0  0  0  0  0  # atno 17342 bound_to 10162
  139.6275  144.0786  152.2447 LP  0  0  0  0  0  0  0  0  0  0  0  0  # atno 17343 bound_to 10162
  157.3450  130.7053  149.6405 LP  0  0  0  0  0  0  0  0  0  0  0  0  # atno 17370 bound_to 10713
  155.9674  130.4269  150.4719 LP  0  0  0  0  0  0  0  0  0  0  0  0  # atno 17371 bound_to 10713
  140.1451  134.9267  157.2519 LP  0  0  0  0  0  0  0  0  0  0  0  0  # atno 17394 bound_to 11000
  140.2789  134.3373  155.7349 LP  0  0  0  0  0  0  0  0  0  0  0  0  # atno 17395 bound_to 11000

$$$$
