AV-unprocessed.smi:1802|AV-procd|sdf|7277|dock3
  -GOLD-   22720 8533D 1   1.00000     0.00000
 Structure written by MMmdl.
 40 41  0  0  0  0  0  0  0  0  3 V2000
  152.5725  144.4137  158.3695 C   0  0  0  0  0  0  0  0  0  0  0  0
  151.6381  143.5325  159.2171 C   0  0  2  0  0  0  0  0  0  0  0  0
  152.2372  143.1721  160.5894 C   0  0  0  0  0  0  0  0  0  0  0  0
  153.3427  142.1154  160.4555 C   0  0  0  0  0  0  0  0  0  0  0  0
  152.8433  140.8877  159.6771 C   0  0  0  0  0  0  0  0  0  0  0  0
  152.3123  141.2768  158.3455 N   0  3  1  0  0  0  0  0  0  0  0  0
  151.9627  140.0986  157.5130 C   0  0  0  0  0  0  0  0  0  0  0  0
  150.5274  139.6090  157.7670 C   0  0  0  0  0  0  0  0  0  0  0  0
  150.2147  138.3142  157.0068 C   0  0  0  0  0  0  0  0  0  0  0  0
  149.9612  137.2238  157.9381 N   0  0  0  0  0  0  0  0  0  0  0  0
  149.0171  137.2254  158.8881 C   0  0  0  0  0  0  0  0  0  0  0  0
  148.2861  138.2090  159.0254 O   0  0  0  0  0  0  0  0  0  0  0  0
  148.9796  136.0883  159.6184 N   0  5  0  0  0  0  0  0  0  0  0  0
  148.1072  135.9699  160.6330 C   0  0  0  0  0  0  0  0  0  0  0  0
  147.5789  137.0376  161.2524 N   0  0  0  0  0  0  0  0  0  0  0  0
  146.6974  136.6979  162.2697 N   0  0  0  0  0  0  0  0  0  0  0  0
  146.5763  135.3757  162.3861 C   0  0  0  0  0  0  0  0  0  0  0  0
  147.5245  134.4259  161.2618 S   0  0  0  0  0  0  0  0  0  0  0  0
  151.1996  142.2580  158.4663 C   0  0  0  0  0  0  0  0  0  0  0  0
  153.4973  143.8980  158.1108 H   0  0  0  0  0  0  0  0  0  0  0  0
  152.8397  145.3267  158.9020 H   0  0  0  0  0  0  0  0  0  0  0  0
  152.0901  144.7094  157.4376 H   0  0  0  0  0  0  0  0  0  0  0  0
  150.7420  144.1267  159.4018 H   0  0  0  0  0  0  0  0  0  0  0  0
  152.6220  144.0631  161.0866 H   0  0  0  0  0  0  0  0  0  0  0  0
  151.4484  142.7808  161.2331 H   0  0  0  0  0  0  0  0  0  0  0  0
  154.2096  142.5438  159.9515 H   0  0  0  0  0  0  0  0  0  0  0  0
  153.6852  141.8115  161.4452 H   0  0  0  0  0  0  0  0  0  0  0  0
  153.6691  140.1854  159.5560 H   0  0  0  0  0  0  0  0  0  0  0  0
  152.0669  140.3702  160.2427 H   0  0  0  0  0  0  0  0  0  0  0  0
  152.0404  140.3671  156.4584 H   0  0  0  0  0  0  0  0  0  0  0  0
  152.6840  139.2971  157.6795 H   0  0  0  0  0  0  0  0  0  0  0  0
  150.3648  139.4380  158.8311 H   0  0  0  0  0  0  0  0  0  0  0  0
  149.8214  140.3847  157.4671 H   0  0  0  0  0  0  0  0  0  0  0  0
  149.3399  138.4498  156.3692 H   0  0  0  0  0  0  0  0  0  0  0  0
  151.0522  138.0528  156.3577 H   0  0  0  0  0  0  0  0  0  0  0  0
  150.5406  136.4011  157.8578 H   0  0  0  0  0  0  0  0  0  0  0  0
  145.9219  134.9576  163.1362 H   0  0  0  0  0  0  0  0  0  0  0  0
  150.3686  141.7876  158.9948 H   0  0  0  0  0  0  0  0  0  0  0  0
  150.8202  142.5337  157.4830 H   0  0  0  0  0  0  0  0  0  0  0  0
  153.0691  141.7463  157.8691 H   0  0  0  0  0  0  0  0  0  0  0  0
  1  2  1  0  0  0  0
  1 20  1  0  0  0  0
  1 21  1  0  0  0  0
  1 22  1  0  0  0  0
  2 19  1  0  0  0  0
  2  3  1  0  0  0  0
  2 23  1  0  0  0  0
  3  4  1  0  0  0  0
  3 24  1  0  0  0  0
  3 25  1  0  0  0  0
  4  5  1  0  0  0  0
  4 26  1  0  0  0  0
  4 27  1  0  0  0  0
  5  6  1  0  0  0  0
  5 28  1  0  0  0  0
  5 29  1  0  0  0  0
  6  7  1  0  0  0  0
  6 19  1  0  0  0  0
  6 40  1  0  0  0  0
  7  8  1  0  0  0  0
  7 30  1  0  0  0  0
  7 31  1  0  0  0  0
  8  9  1  0  0  0  0
  8 32  1  0  0  0  0
  8 33  1  0  0  0  0
  9 10  1  0  0  0  0
  9 34  1  0  0  0  0
  9 35  1  0  0  0  0
 10 11  1  0  0  0  0
 10 36  1  0  0  0  0
 11 12  2  0  0  0  0
 11 13  1  0  0  0  0
 13 14  1  0  0  0  0
 14 18  1  0  0  0  0
 14 15  2  0  0  0  0
 15 16  1  0  0  0  0
 16 17  2  0  0  0  0
 17 18  1  0  0  0  0
 17 37  1  0  0  0  0
 19 38  1  0  0  0  0
 19 39  1  0  0  0  0
M  CHG  1   6   1
M  CHG  1  13  -1
M  END
> <s_m_source_file>
AV-unprocessed.smi

> <i_m_source_file_index>
1802

> <i_lp_mmshare_version>
43012

> <i_f3d_flags>
0

> <s_epik_input>
W0NIM11bQ0BASF0xW0NIMl1bQ0gyXVtDSDJdTihbQ0gyXTEpW0NIMl1bQ0gyXVtDSDJdW05IXUMoPU8pW05IXWMybm5bY0hdczI=

> <s_epik_cmdline>
J2VwaWtfcHl0aG9uJywgJy1waCcsICc3LjAnLCAnLXRuJywgJzgnLCAnLW1hJywgJzIwMCcsICctbWV0YWxfYmluZGluZycsICctaW1hZScsICc8aW5maWxlLm1hZT4nLCAnLW9tYWUnLCAnPG91dGZpbGUubWFlPic=

> <r_lp_tautomer_probability>
1

> <r_epik_Ionization_Penalty>
3.29702

> <r_epik_Ionization_Penalty_Charging>
3.26059

> <r_epik_Ionization_Penalty_Neutral>
0.0364294

> <r_epik_State_Penalty>
3.25788

> <r_epik_Charging_Adjusted_Penalty>
6.51847

> <i_epik_Tot_Q>
0

> <i_epik_Tot_abs_Q>
2

> <r_epik_Metal_State_Penalty>
0.477639

> <b_epik_Metal_Only>
1

> <s_lp_Force_Field>
OPLS_2005

> <r_lp_Energy>
14.2366

> <b_lp_Chiralities_Consistent>
1

> <s_lp_Variant>
AV-unprocessed.smi:1802-7

> <Gold.Version>
5.8.1

> <Gold.Id.Protein>
6NUR|6NUR_protein|mol2

> <Gold.PLP.Fitness>
49.0713

> <Gold.PLP.PLP>
-39.0144

> <Gold.PLP.part.hbond>
-4.2854

> <Gold.PLP.part.metal>
0.0000

> <Gold.PLP.part.buried>
-5.1923

> <Gold.PLP.part.nonpolar>
-30.3975

> <Gold.PLP.part.repulsive>
0.1873

> <Gold.PLP.ligand.clash>
0.0000

> <Gold.PLP.ligand.torsion>
0.7515

> <Gold.PLP.Chemscore.Hbond>
3.8305

> <Gold.PLP.Chemscore.CHOScore>
0.0000

> <Gold.PLP.Chemscore.Metal>
0.0000

> <Gold.Chemscore.Hbonds>
donor molecule, donor type, donor heavy atom, donor atom, acceptor molecule, acceptor atom, score
      P1  H  6896  6908       L1    13  1.07
      P1  H  6931  6943       L1    15  0.99
      P1  H  6934  6947       L1    15  0.87

> <Gold.PLP.Chemscore.Internal.Correction>
0.0685

> <Gold.Rescore>
     Score         DG    S(hbond)    S(metal)    S(lipo)     H(rot)  DE(clash)    DE(int)     intcor
     14.94     -18.11       1.97        0.00      94.25       1.94       0.03       3.15       ----

> <Gold.Chemscore.Fitness>
14.9424

> <Gold.Chemscore.DG>
-18.1140

> <Gold.Chemscore.ZeroCoef>
-5.4800

> <Gold.Chemscore.Hbond>
1.9666

> <Gold.Chemscore.Metal>
0.0000

> <Gold.Chemscore.Lipo>
94.2524

> <Gold.Chemscore.Internal_Hbond>
0.0000

> <Gold.Chemscore.DEClash>
0.0251

> <Gold.Chemscore.DEInternal>
3.1465

> <Gold.Chemscore.Rot>
1.9383

> <Gold.Chemscore.Internal.Correction>
   9.000000E+99

> <Gold.Chemscore.Hbonds>
donor molecule, donor type, donor heavy atom, donor atom, acceptor molecule, acceptor atom, score
      P1  H  6896  6908       L1    13  0.49
      P1  H  6931  6943       L1    15  0.58
      P1  H  6934  6947       L1    15  0.32

> <Gold.Chemscore.Hbond.Weighted>
-6.5685

> <Gold.Chemscore.Metal.Weighted>
-0.0000

> <Gold.Chemscore.Lipo.Weighted>
-11.0275

> <Gold.Chemscore.Internal_Hbond.Weighted>
0.0000

> <Gold.Chemscore.DEClash.Weighted>
0.0251

> <Gold.Chemscore.DEInternal.Weighted>
3.1465

> <Gold.Chemscore.Rot.Weighted>
4.9620

> <Gold.Chemscore.Internal.Correction.Weighted>
   9.000000E+99

> <Gold.Protein.RotatedTorsions>
[ 6907 6896 6895 6894 ] final -171.75 input  -60.11 | X-H torsion
[ 7974 7965 7964 7962 ] final  -58.90 input  175.53 | X-H torsion
[ 8008 7997 7996 7995 ] final -109.49 input   59.86 | X-H torsion
[ 10167 10162 10161 10158 ] final   54.58 input  -65.29 | X-H torsion
[ 10718 10713 10712 10709 ] final  170.79 input   66.30 | X-H torsion
[ 10763 10752 10751 10750 ] final   79.97 input  -60.55 | X-H torsion
[ 11005 11000 10999 10996 ] final  -30.12 input  -57.11 | X-H torsion

> <Gold.Protein.ActiveResidues>
 VAL166  LYS551  ARG553  GLY616  TRP617  ASP618  TYR619  PRO620  LYS621  CYS622 
 ASP623  PHE694  ASN695  SER759  ASP760  ASP761  ALA762  ILE779  LEU786  VAL792 
 PHE793  MET794  SER795  GLU796  ALA797  LYS798  CYS799  TRP800  GLU811  SER814 

> <Gold.Protein.RotatedAtoms>
  151.5289  133.3452  159.2914 H   0  0  0  0  0  0  0  0  0  0  0  0  # atno 6907 bound_to 6896
  150.8606  134.7959  159.7090 H   0  0  0  0  0  0  0  0  0  0  0  0  # atno 6908 bound_to 6896
  152.4626  134.5157  159.9819 H   0  0  0  0  0  0  0  0  0  0  0  0  # atno 6909 bound_to 6896
  145.8338  140.8462  143.0069 H   0  0  0  0  0  0  0  0  0  0  0  0  # atno 7974 bound_to 7965
  154.9602  140.0399  157.2186 H   0  0  0  0  0  0  0  0  0  0  0  0  # atno 8008 bound_to 7997
  154.7897  140.2833  155.5979 H   0  0  0  0  0  0  0  0  0  0  0  0  # atno 8009 bound_to 7997
  156.2948  140.2576  156.2741 H   0  0  0  0  0  0  0  0  0  0  0  0  # atno 8010 bound_to 7997
  140.2286  144.3711  150.6423 H   0  0  0  0  0  0  0  0  0  0  0  0  # atno 10167 bound_to 10162
  157.0030  131.0182  151.2825 H   0  0  0  0  0  0  0  0  0  0  0  0  # atno 10718 bound_to 10713
  153.0996  135.4820  154.8842 H   0  0  0  0  0  0  0  0  0  0  0  0  # atno 10763 bound_to 10752
  154.7363  135.3072  154.8807 H   0  0  0  0  0  0  0  0  0  0  0  0  # atno 10764 bound_to 10752
  153.9428  135.6832  153.4797 H   0  0  0  0  0  0  0  0  0  0  0  0  # atno 10765 bound_to 10752
  140.9355  133.7311  156.0999 H   0  0  0  0  0  0  0  0  0  0  0  0  # atno 11005 bound_to 11000
  144.6738  140.0712  143.7473 LP  0  0  0  0  0  0  0  0  0  0  0  0  # atno 17320 bound_to 7965
  145.9541  139.2754  143.1195 LP  0  0  0  0  0  0  0  0  0  0  0  0  # atno 17321 bound_to 7965
  140.6202  143.2175  151.6710 LP  0  0  0  0  0  0  0  0  0  0  0  0  # atno 17342 bound_to 10162
  139.5118  144.3497  152.0663 LP  0  0  0  0  0  0  0  0  0  0  0  0  # atno 17343 bound_to 10162
  157.5376  130.8099  149.7990 LP  0  0  0  0  0  0  0  0  0  0  0  0  # atno 17370 bound_to 10713
  156.0164  130.3812  150.2098 LP  0  0  0  0  0  0  0  0  0  0  0  0  # atno 17371 bound_to 10713
  140.7804  134.3731  157.5488 LP  0  0  0  0  0  0  0  0  0  0  0  0  # atno 17394 bound_to 11000
  139.8807  134.9078  156.2954 LP  0  0  0  0  0  0  0  0  0  0  0  0  # atno 17395 bound_to 11000

$$$$
