AV-unprocessed.smi:193|AV-procd|sdf|1517|dock5
  -GOLD-   2262019353D 1   1.00000     0.00000
 Structure written by MMmdl.
 61 65  0  0  0  0  0  0  0  0  1 V2000
  149.2458  141.1157  154.8088 C   0  0  0  0  0  0  0  0  0  0  0  0
  150.0404  140.9732  156.1155 C   0  0  1  0  0  0  0  0  0  0  0  0
  151.0171  139.7826  156.0064 C   0  0  0  0  0  0  0  0  0  0  0  0
  151.3774  139.1970  157.3009 N   0  0  0  0  0  0  0  0  0  0  0  0
  150.7364  138.0574  157.6650 C   0  0  0  0  0  0  0  0  0  0  0  0
  150.1821  137.9554  158.9031 N   0  0  0  0  0  0  0  0  0  0  0  0
  149.5798  136.8244  159.2813 C   0  0  0  0  0  0  0  0  0  0  0  0
  149.4217  135.6926  158.5926 N   0  0  0  0  0  0  0  0  0  0  0  0
  149.9691  135.7905  157.3475 C   0  0  0  0  0  0  0  0  0  0  0  0
  150.6411  136.9244  156.8092 C   0  0  0  0  0  0  0  0  0  0  0  0
  151.0633  136.6530  155.5130 N   0  0  0  0  0  0  0  0  0  0  0  0
  150.6707  135.4266  155.3006 C   0  0  0  0  0  0  0  0  0  0  0  0
  149.9996  134.8345  156.3469 N   0  0  0  0  0  0  0  0  0  0  0  0
  149.4591  133.4835  156.3823 C   0  0  0  0  0  0  0  0  0  0  0  0
  148.4076  133.1915  155.2826 C   0  0  0  0  0  0  0  0  0  0  0  0
  147.9386  131.8674  155.4685 O   0  0  0  0  0  0  0  0  0  0  0  0
  147.1977  134.1495  155.3467 C   0  0  0  0  0  0  0  0  0  0  0  0
  146.2707  133.9961  154.1274 C   0  0  0  0  0  0  0  0  0  0  0  0
  147.0100  134.1661  152.9243 O   0  0  0  0  0  0  0  0  0  0  0  0
  148.0171  133.1763  152.7549 C   0  0  0  0  0  0  0  0  0  0  0  0
  149.0550  133.2848  153.8859 C   0  0  0  0  0  0  0  0  0  0  0  0
  151.6508  140.0693  158.4421 C   0  0  0  0  0  0  0  0  0  0  0  0
  152.3074  141.4074  158.0675 C   0  0  0  0  0  0  0  0  0  0  0  0
  151.2797  142.4073  157.7830 N   0  0  0  0  0  0  0  0  0  0  0  0
  151.8609  143.7345  157.9367 C   0  0  2  0  0  0  0  0  0  0  0  0
  152.5466  144.0537  159.2465 C   0  0  0  0  0  0  0  0  0  0  0  0
  151.2244  144.7048  158.9164 C   0  0  2  0  0  0  0  0  0  0  0  0
  149.9855  144.3661  159.7237 C   0  0  0  0  0  0  0  0  0  0  0  0
  150.7909  142.2915  156.4087 C   0  0  0  0  0  0  0  0  0  0  0  0
  149.9051  141.3128  153.9628 H   0  0  0  0  0  0  0  0  0  0  0  0
  148.5286  141.9346  154.8708 H   0  0  0  0  0  0  0  0  0  0  0  0
  148.6834  140.2073  154.5901 H   0  0  0  0  0  0  0  0  0  0  0  0
  149.3127  140.7836  156.9064 H   0  0  0  0  0  0  0  0  0  0  0  0
  150.5944  139.0091  155.3633 H   0  0  0  0  0  0  0  0  0  0  0  0
  151.9303  140.0936  155.4984 H   0  0  0  0  0  0  0  0  0  0  0  0
  149.1694  136.8249  160.2802 H   0  0  0  0  0  0  0  0  0  0  0  0
  150.8561  134.9181  154.3657 H   0  0  0  0  0  0  0  0  0  0  0  0
  150.2948  132.7885  156.2913 H   0  0  0  0  0  0  0  0  0  0  0  0
  149.0316  133.3117  157.3712 H   0  0  0  0  0  0  0  0  0  0  0  0
  147.0231  131.9018  155.7002 H   0  0  0  0  0  0  0  0  0  0  0  0
  146.6244  133.9917  156.2608 H   0  0  0  0  0  0  0  0  0  0  0  0
  147.5565  135.1789  155.3823 H   0  0  0  0  0  0  0  0  0  0  0  0
  145.7775  133.0227  154.1293 H   0  0  0  0  0  0  0  0  0  0  0  0
  145.4823  134.7481  154.1630 H   0  0  0  0  0  0  0  0  0  0  0  0
  147.5668  132.1827  152.7262 H   0  0  0  0  0  0  0  0  0  0  0  0
  148.5003  133.3301  151.7896 H   0  0  0  0  0  0  0  0  0  0  0  0
  149.5681  134.2426  153.7897 H   0  0  0  0  0  0  0  0  0  0  0  0
  149.8205  132.5167  153.7667 H   0  0  0  0  0  0  0  0  0  0  0  0
  150.7388  140.2360  159.0184 H   0  0  0  0  0  0  0  0  0  0  0  0
  152.3359  139.5446  159.1076 H   0  0  0  0  0  0  0  0  0  0  0  0
  152.8661  141.7381  158.9443 H   0  0  0  0  0  0  0  0  0  0  0  0
  153.0353  141.3123  157.2605 H   0  0  0  0  0  0  0  0  0  0  0  0
  152.3141  144.1978  157.0615 H   0  0  0  0  0  0  0  0  0  0  0  0
  152.5544  143.2836  160.0160 H   0  0  0  0  0  0  0  0  0  0  0  0
  153.4370  144.6777  159.2069 H   0  0  0  0  0  0  0  0  0  0  0  0
  151.2701  145.7526  158.6258 H   0  0  0  0  0  0  0  0  0  0  0  0
  149.9966  143.3243  160.0452 H   0  0  0  0  0  0  0  0  0  0  0  0
  149.0904  144.5368  159.1259 H   0  0  0  0  0  0  0  0  0  0  0  0
  149.9352  144.9979  160.6106 H   0  0  0  0  0  0  0  0  0  0  0  0
  151.6127  142.4249  155.7030 H   0  0  0  0  0  0  0  0  0  0  0  0
  150.1047  143.1209  156.2338 H   0  0  0  0  0  0  0  0  0  0  0  0
  1  2  1  0  0  0  0
  1 30  1  0  0  0  0
  1 31  1  0  0  0  0
  1 32  1  0  0  0  0
  2 29  1  0  0  0  0
  2  3  1  0  0  0  0
  2 33  1  0  0  0  0
  3  4  1  0  0  0  0
  3 34  1  0  0  0  0
  3 35  1  0  0  0  0
  4  5  1  0  0  0  0
  4 22  1  0  0  0  0
  5 10  1  0  0  0  0
  5  6  2  0  0  0  0
  6  7  1  0  0  0  0
  7  8  2  0  0  0  0
  7 36  1  0  0  0  0
  8  9  1  0  0  0  0
  9 13  1  0  0  0  0
  9 10  2  0  0  0  0
 10 11  1  0  0  0  0
 11 12  2  0  0  0  0
 12 13  1  0  0  0  0
 12 37  1  0  0  0  0
 13 14  1  0  0  0  0
 14 15  1  0  0  0  0
 14 38  1  0  0  0  0
 14 39  1  0  0  0  0
 15 21  1  0  0  0  0
 15 16  1  0  0  0  0
 15 17  1  0  0  0  0
 16 40  1  0  0  0  0
 17 18  1  0  0  0  0
 17 41  1  0  0  0  0
 17 42  1  0  0  0  0
 18 19  1  0  0  0  0
 18 43  1  0  0  0  0
 18 44  1  0  0  0  0
 19 20  1  0  0  0  0
 20 21  1  0  0  0  0
 20 45  1  0  0  0  0
 20 46  1  0  0  0  0
 21 47  1  0  0  0  0
 21 48  1  0  0  0  0
 22 23  1  0  0  0  0
 22 49  1  0  0  0  0
 22 50  1  0  0  0  0
 23 24  1  0  0  0  0
 23 51  1  0  0  0  0
 23 52  1  0  0  0  0
 24 25  1  0  0  0  0
 24 29  1  0  0  0  0
 25 27  1  0  0  0  0
 25 26  1  0  0  0  0
 25 53  1  0  0  0  0
 26 27  1  0  0  0  0
 26 54  1  0  0  0  0
 26 55  1  0  0  0  0
 27 28  1  0  0  0  0
 27 56  1  0  0  0  0
 28 57  1  0  0  0  0
 28 58  1  0  0  0  0
 28 59  1  0  0  0  0
 29 60  1  0  0  0  0
 29 61  1  0  0  0  0
M  END
> <s_m_source_file>
AV-unprocessed.smi

> <i_m_source_file_index>
193

> <i_lp_mmshare_version>
43012

> <i_f3d_flags>
0

> <s_epik_input>
W0NIM11bQ0BASF0xW0NIMl1bQ0BIXTFOKFtDSDJdMilbQ0gyXVtDSDJdTihbQ0gyXVtDQEhdMltDSDNdKWMobltjSF1uMyljKGMzNCluW2NIXW40W0NIMl1DNShbT0hdKVtDSDJdW0NIMl1PW0NIMl1bQ0gyXTU=

> <s_epik_cmdline>
J2VwaWtfcHl0aG9uJywgJy1waCcsICc3LjAnLCAnLXRuJywgJzgnLCAnLW1hJywgJzIwMCcsICctbWV0YWxfYmluZGluZycsICctaW1hZScsICc8aW5maWxlLm1hZT4nLCAnLW9tYWUnLCAnPG91dGZpbGUubWFlPic=

> <r_lp_tautomer_probability>
1

> <r_epik_Ionization_Penalty>
1.45227

> <r_epik_Ionization_Penalty_Charging>
0

> <r_epik_Ionization_Penalty_Neutral>
1.45227

> <r_epik_State_Penalty>
2.02377

> <r_epik_Charging_Adjusted_Penalty>
2.02377

> <i_epik_Tot_Q>
0

> <i_epik_Tot_abs_Q>
0

> <r_epik_Metal_State_Penalty>
2.01937

> <b_epik_Metal_Only>
0

> <s_lp_Force_Field>
OPLS_2005

> <r_lp_Energy>
53.149

> <b_lp_Chiralities_Consistent>
1

> <s_lp_Variant>
AV-unprocessed.smi:193-22

> <Gold.Version>
5.8.1

> <Gold.Id.Protein>
6NUR|6NUR_protein|mol2

> <Gold.PLP.Fitness>
44.6055

> <Gold.PLP.PLP>
-41.9646

> <Gold.PLP.part.hbond>
-1.2129

> <Gold.PLP.part.metal>
0.0000

> <Gold.PLP.part.buried>
-6.1718

> <Gold.PLP.part.nonpolar>
-36.5377

> <Gold.PLP.part.repulsive>
1.2125

> <Gold.PLP.ligand.clash>
0.0000

> <Gold.PLP.ligand.torsion>
1.0383

> <Gold.PLP.Chemscore.Hbond>
1.0000

> <Gold.PLP.Chemscore.CHOScore>
0.0000

> <Gold.PLP.Chemscore.Metal>
0.0000

> <Gold.Chemscore.Hbonds>
donor molecule, donor type, donor heavy atom, donor atom, acceptor molecule, acceptor atom, score
      P1  H  6896  6909       L1     8  1.00

> <Gold.PLP.Chemscore.Internal.Correction>
1.7174

> <Gold.Rescore>
     Score         DG    S(hbond)    S(metal)    S(lipo)     H(rot)  DE(clash)    DE(int)     intcor
     13.14     -14.77       0.40        0.00     115.48       2.17       0.43       1.20       ----

> <Gold.Chemscore.Fitness>
13.1410

> <Gold.Chemscore.DG>
-14.7654

> <Gold.Chemscore.ZeroCoef>
-5.4800

> <Gold.Chemscore.Hbond>
0.3954

> <Gold.Chemscore.Metal>
0.0000

> <Gold.Chemscore.Lipo>
115.4756

> <Gold.Chemscore.Internal_Hbond>
0.0000

> <Gold.Chemscore.DEClash>
0.4263

> <Gold.Chemscore.DEInternal>
1.1981

> <Gold.Chemscore.Rot>
2.1664

> <Gold.Chemscore.Internal.Correction>
   9.000000E+99

> <Gold.Chemscore.Hbonds>
donor molecule, donor type, donor heavy atom, donor atom, acceptor molecule, acceptor atom, score
      P1  H  6896  6909       L1     8  0.14

> <Gold.Chemscore.Hbond.Weighted>
-1.3207

> <Gold.Chemscore.Metal.Weighted>
-0.0000

> <Gold.Chemscore.Lipo.Weighted>
-13.5106

> <Gold.Chemscore.Internal_Hbond.Weighted>
0.0000

> <Gold.Chemscore.DEClash.Weighted>
0.4263

> <Gold.Chemscore.DEInternal.Weighted>
1.1981

> <Gold.Chemscore.Rot.Weighted>
5.5459

> <Gold.Chemscore.Internal.Correction.Weighted>
   9.000000E+99

> <Gold.Protein.RotatedTorsions>
[ 6907 6896 6895 6894 ] final   34.87 input  -60.11 | X-H torsion
[ 7974 7965 7964 7962 ] final  138.25 input  175.53 | X-H torsion
[ 8008 7997 7996 7995 ] final -135.46 input   59.86 | X-H torsion
[ 10167 10162 10161 10158 ] final   18.89 input  -65.29 | X-H torsion
[ 10718 10713 10712 10709 ] final   11.01 input   66.30 | X-H torsion
[ 10763 10752 10751 10750 ] final  -51.09 input  -60.55 | X-H torsion
[ 11005 11000 10999 10996 ] final  158.47 input  -57.11 | X-H torsion

> <Gold.Protein.ActiveResidues>
 VAL166  LYS551  ARG553  GLY616  TRP617  ASP618  TYR619  PRO620  LYS621  CYS622 
 ASP623  PHE694  ASN695  SER759  ASP760  ASP761  ALA762  ILE779  LEU786  VAL792 
 PHE793  MET794  SER795  GLU796  ALA797  LYS798  CYS799  TRP800  GLU811  SER814 

> <Gold.Protein.RotatedAtoms>
  152.1084  134.9292  160.0567 H   0  0  0  0  0  0  0  0  0  0  0  0  # atno 6907 bound_to 6896
  152.0479  133.4001  159.4373 H   0  0  0  0  0  0  0  0  0  0  0  0  # atno 6908 bound_to 6896
  150.6842  134.3262  159.4851 H   0  0  0  0  0  0  0  0  0  0  0  0  # atno 6909 bound_to 6896
  144.9390  139.4954  143.5581 H   0  0  0  0  0  0  0  0  0  0  0  0  # atno 7974 bound_to 7965
  155.3790  140.0493  157.3044 H   0  0  0  0  0  0  0  0  0  0  0  0  # atno 8008 bound_to 7997
  154.5092  140.2185  155.9152 H   0  0  0  0  0  0  0  0  0  0  0  0  # atno 8009 bound_to 7997
  156.1562  140.3126  155.8736 H   0  0  0  0  0  0  0  0  0  0  0  0  # atno 8010 bound_to 7997
  140.5620  143.9320  150.6649 H   0  0  0  0  0  0  0  0  0  0  0  0  # atno 10167 bound_to 10162
  156.9893  130.6036  149.5684 H   0  0  0  0  0  0  0  0  0  0  0  0  # atno 10718 bound_to 10713
  154.1209  135.6535  153.4903 H   0  0  0  0  0  0  0  0  0  0  0  0  # atno 10763 bound_to 10752
  153.0225  135.5270  154.7097 H   0  0  0  0  0  0  0  0  0  0  0  0  # atno 10764 bound_to 10752
  154.6305  135.2975  155.0192 H   0  0  0  0  0  0  0  0  0  0  0  0  # atno 10765 bound_to 10752
  140.1868  134.8436  157.2866 H   0  0  0  0  0  0  0  0  0  0  0  0  # atno 11005 bound_to 11000
  146.3278  139.8395  142.8893 LP  0  0  0  0  0  0  0  0  0  0  0  0  # atno 17320 bound_to 7965
  145.3021  141.0197  143.3602 LP  0  0  0  0  0  0  0  0  0  0  0  0  # atno 17321 bound_to 7965
  140.2773  143.3414  152.1183 LP  0  0  0  0  0  0  0  0  0  0  0  0  # atno 17342 bound_to 10162
  139.5074  144.6832  151.5954 LP  0  0  0  0  0  0  0  0  0  0  0  0  # atno 17343 bound_to 10162
  156.0213  130.5308  150.8284 LP  0  0  0  0  0  0  0  0  0  0  0  0  # atno 17370 bound_to 10713
  157.5470  131.0942  150.9749 LP  0  0  0  0  0  0  0  0  0  0  0  0  # atno 17371 bound_to 10713
  140.2205  134.4029  155.7568 LP  0  0  0  0  0  0  0  0  0  0  0  0  # atno 17394 bound_to 11000
  141.2225  133.7163  156.8482 LP  0  0  0  0  0  0  0  0  0  0  0  0  # atno 17395 bound_to 11000

$$$$
