AV-unprocessed.smi:2098|AV-procd|sdf|8566|dock1
  -GOLD-   2272011293D 1   1.00000     0.00000
 Structure written by MMmdl.
 36 38  0  0  0  0  0  0  0  0  1 V2000
  148.6870  142.2499  157.1191 O   0  0  0  0  0  0  0  0  0  0  0  0
  149.7736  141.5872  156.5022 C   0  0  1  0  0  0  0  0  0  0  0  0
  149.4907  141.4912  154.9947 C   0  0  0  0  0  0  0  0  0  0  0  0
  150.4553  140.6347  154.3970 O   0  0  0  0  0  0  0  0  0  0  0  0
  150.3577  139.2794  154.6297 C   0  0  0  0  0  0  0  0  0  0  0  0
  151.3284  138.4549  154.0238 C   0  0  0  0  0  0  0  0  0  0  0  0
  151.3074  137.0592  154.2101 C   0  0  0  0  0  0  0  0  0  0  0  0
  150.3096  136.4716  155.0090 C   0  0  0  0  0  0  0  0  0  0  0  0
  150.2891  135.1301  155.1917 F   0  0  0  0  0  0  0  0  0  0  0  0
  149.3332  137.2813  155.6180 C   0  0  0  0  0  0  0  0  0  0  0  0
  149.3536  138.6773  155.4307 C   0  0  0  0  0  0  0  0  0  0  0  0
  151.0694  142.3695  156.7915 C   0  0  0  0  0  0  0  0  0  0  0  0
  151.6979  141.9709  158.0390 N   0  0  0  0  0  0  0  0  0  0  0  0
  152.3020  140.7961  158.3015 C   0  0  0  0  0  0  0  0  0  0  0  0
  152.8219  140.6352  159.5151 N   0  0  0  0  0  0  0  0  0  0  0  0
  152.5203  141.8480  160.1107 C   0  0  0  0  0  0  0  0  0  0  0  0
  152.8005  142.3254  161.4113 C   0  0  0  0  0  0  0  0  0  0  0  0
  152.3884  143.6163  161.8028 C   0  0  0  0  0  0  0  0  0  0  0  0
  151.6909  144.4478  160.9026 C   0  0  0  0  0  0  0  0  0  0  0  0
  151.4011  143.9944  159.6014 C   0  0  0  0  0  0  0  0  0  0  0  0
  151.8154  142.7064  159.2138 C   0  0  0  0  0  0  0  0  0  0  0  0
  148.6127  143.1142  156.7437 H   0  0  0  0  0  0  0  0  0  0  0  0
  149.8626  140.5852  156.9242 H   0  0  0  0  0  0  0  0  0  0  0  0
  148.4722  141.1414  154.8167 H   0  0  0  0  0  0  0  0  0  0  0  0
  149.5872  142.4806  154.5440 H   0  0  0  0  0  0  0  0  0  0  0  0
  152.0986  138.8977  153.4092 H   0  0  0  0  0  0  0  0  0  0  0  0
  152.0576  136.4404  153.7404 H   0  0  0  0  0  0  0  0  0  0  0  0
  148.5660  136.8315  156.2310 H   0  0  0  0  0  0  0  0  0  0  0  0
  148.5869  139.2636  155.9136 H   0  0  0  0  0  0  0  0  0  0  0  0
  151.7891  142.2157  155.9865 H   0  0  0  0  0  0  0  0  0  0  0  0
  150.8686  143.4411  156.8266 H   0  0  0  0  0  0  0  0  0  0  0  0
  152.3643  140.0144  157.5585 H   0  0  0  0  0  0  0  0  0  0  0  0
  153.3339  141.6970  162.1088 H   0  0  0  0  0  0  0  0  0  0  0  0
  152.6085  143.9704  162.7993 H   0  0  0  0  0  0  0  0  0  0  0  0
  151.3787  145.4346  161.2118 H   0  0  0  0  0  0  0  0  0  0  0  0
  150.8651  144.6279  158.9103 H   0  0  0  0  0  0  0  0  0  0  0  0
  1  2  1  0  0  0  0
  1 22  1  0  0  0  0
  2  3  1  0  0  0  0
  2 12  1  0  0  0  0
  2 23  1  0  0  0  0
  3  4  1  0  0  0  0
  3 24  1  0  0  0  0
  3 25  1  0  0  0  0
  4  5  1  0  0  0  0
  5 11  1  0  0  0  0
  5  6  2  0  0  0  0
  6  7  1  0  0  0  0
  6 26  1  0  0  0  0
  7  8  2  0  0  0  0
  7 27  1  0  0  0  0
  8  9  1  0  0  0  0
  8 10  1  0  0  0  0
 10 11  2  0  0  0  0
 10 28  1  0  0  0  0
 11 29  1  0  0  0  0
 12 13  1  0  0  0  0
 12 30  1  0  0  0  0
 12 31  1  0  0  0  0
 13 21  1  0  0  0  0
 13 14  1  0  0  0  0
 14 15  2  0  0  0  0
 14 32  1  0  0  0  0
 15 16  1  0  0  0  0
 16 21  2  0  0  0  0
 16 17  1  0  0  0  0
 17 18  2  0  0  0  0
 17 33  1  0  0  0  0
 18 19  1  0  0  0  0
 18 34  1  0  0  0  0
 19 20  2  0  0  0  0
 19 35  1  0  0  0  0
 20 21  1  0  0  0  0
 20 36  1  0  0  0  0
M  END
> <s_m_source_file>
AV-unprocessed.smi

> <i_m_source_file_index>
2098

> <i_lp_mmshare_version>
43012

> <i_f3d_flags>
0

> <s_epik_input>
W2NIXTFbY0hdW2NIXVtjSF1jKGMxMiluKFtjSF1uMilbQ0gyXVtDQEhdKFtPSF0pW0NIMl1PYzNbY0hdW2NIXWMoRilbY0hdW2NIXTM=

> <s_epik_cmdline>
J2VwaWtfcHl0aG9uJywgJy1waCcsICc3LjAnLCAnLXRuJywgJzgnLCAnLW1hJywgJzIwMCcsICctbWV0YWxfYmluZGluZycsICctaW1hZScsICc8aW5maWxlLm1hZT4nLCAnLW9tYWUnLCAnPG91dGZpbGUubWFlPic=

> <r_lp_tautomer_probability>
1

> <r_epik_Ionization_Penalty>
0.0603575

> <r_epik_Ionization_Penalty_Charging>
0

> <r_epik_Ionization_Penalty_Neutral>
0.0603575

> <r_epik_State_Penalty>
0.0523204

> <r_epik_Charging_Adjusted_Penalty>
0.0523204

> <i_epik_Tot_Q>
0

> <i_epik_Tot_abs_Q>
0

> <r_epik_Metal_State_Penalty>
5.46976e-05

> <b_epik_Metal_Only>
0

> <s_lp_Force_Field>
OPLS_2005

> <r_lp_Energy>
15.3663

> <b_lp_Chiralities_Consistent>
1

> <s_lp_Variant>
AV-unprocessed.smi:2098-2

> <Gold.Version>
5.8.1

> <Gold.Id.Protein>
6NUR|6NUR_protein|mol2

> <Gold.PLP.Fitness>
51.0908

> <Gold.PLP.PLP>
-46.0370

> <Gold.PLP.part.hbond>
-2.0000

> <Gold.PLP.part.metal>
0.0000

> <Gold.PLP.part.buried>
-6.6794

> <Gold.PLP.part.nonpolar>
-37.4045

> <Gold.PLP.part.repulsive>
0.1068

> <Gold.PLP.ligand.clash>
0.0000

> <Gold.PLP.ligand.torsion>
0.4881

> <Gold.PLP.Chemscore.Hbond>
2.0000

> <Gold.PLP.Chemscore.CHOScore>
0.0000

> <Gold.PLP.Chemscore.Metal>
0.0000

> <Gold.Chemscore.Hbonds>
donor molecule, donor type, donor heavy atom, donor atom, acceptor molecule, acceptor atom, score
      L1  H     1    22       P1  8028  1.00
      P1  H  7989  7998       L1     4  0.82

> <Gold.PLP.Chemscore.Internal.Correction>
0.0301

> <Gold.Rescore>
     Score         DG    S(hbond)    S(metal)    S(lipo)     H(rot)  DE(clash)    DE(int)     intcor
     19.02     -19.75       1.81        0.00     122.26       2.37       0.13       0.59       ----

> <Gold.Chemscore.Fitness>
19.0192

> <Gold.Chemscore.DG>
-19.7473

> <Gold.Chemscore.ZeroCoef>
-5.4800

> <Gold.Chemscore.Hbond>
1.8081

> <Gold.Chemscore.Metal>
0.0000

> <Gold.Chemscore.Lipo>
122.2607

> <Gold.Chemscore.Internal_Hbond>
0.0000

> <Gold.Chemscore.DEClash>
0.1343

> <Gold.Chemscore.DEInternal>
0.5937

> <Gold.Chemscore.Rot>
2.3735

> <Gold.Chemscore.Internal.Correction>
   9.000000E+99

> <Gold.Chemscore.Hbonds>
donor molecule, donor type, donor heavy atom, donor atom, acceptor molecule, acceptor atom, score
      L1  H     1    22       P1  8028  0.69
      P1  H  7989  7998       L1     4  0.54

> <Gold.Chemscore.Hbond.Weighted>
-6.0390

> <Gold.Chemscore.Metal.Weighted>
-0.0000

> <Gold.Chemscore.Lipo.Weighted>
-14.3045

> <Gold.Chemscore.Internal_Hbond.Weighted>
0.0000

> <Gold.Chemscore.DEClash.Weighted>
0.1343

> <Gold.Chemscore.DEInternal.Weighted>
0.5937

> <Gold.Chemscore.Rot.Weighted>
6.0762

> <Gold.Chemscore.Internal.Correction.Weighted>
   9.000000E+99

> <Gold.Protein.RotatedTorsions>
[ 6907 6896 6895 6894 ] final   31.37 input  -60.11 | X-H torsion
[ 7974 7965 7964 7962 ] final   33.47 input  175.53 | X-H torsion
[ 8008 7997 7996 7995 ] final   95.06 input   59.86 | X-H torsion
[ 10167 10162 10161 10158 ] final  101.57 input  -65.29 | X-H torsion
[ 10718 10713 10712 10709 ] final -136.77 input   66.30 | X-H torsion
[ 10763 10752 10751 10750 ] final -168.92 input  -60.55 | X-H torsion
[ 11005 11000 10999 10996 ] final   68.39 input  -57.11 | X-H torsion

> <Gold.Protein.ActiveResidues>
 VAL166  LYS551  ARG553  GLY616  TRP617  ASP618  TYR619  PRO620  LYS621  CYS622 
 ASP623  PHE694  ASN695  SER759  ASP760  ASP761  ALA762  ILE779  LEU786  VAL792 
 PHE793  MET794  SER795  GLU796  ALA797  LYS798  CYS799  TRP800  GLU811  SER814 

> <Gold.Protein.RotatedAtoms>
  152.0592  134.9605  160.0574 H   0  0  0  0  0  0  0  0  0  0  0  0  # atno 6907 bound_to 6896
  152.0975  133.4227  159.4580 H   0  0  0  0  0  0  0  0  0  0  0  0  # atno 6908 bound_to 6896
  150.6838  134.2719  159.4635 H   0  0  0  0  0  0  0  0  0  0  0  0  # atno 6909 bound_to 6896
  146.1418  139.6393  142.9158 H   0  0  0  0  0  0  0  0  0  0  0  0  # atno 7974 bound_to 7965
  156.0647  140.3291  155.7504 H   0  0  0  0  0  0  0  0  0  0  0  0  # atno 8008 bound_to 7997
  155.5399  140.0601  157.2889 H   0  0  0  0  0  0  0  0  0  0  0  0  # atno 8009 bound_to 7997
  154.4499  140.1912  156.0569 H   0  0  0  0  0  0  0  0  0  0  0  0  # atno 8010 bound_to 7997
  139.7426  144.7007  151.0552 H   0  0  0  0  0  0  0  0  0  0  0  0  # atno 10167 bound_to 10162
  156.2807  130.7319  151.1315 H   0  0  0  0  0  0  0  0  0  0  0  0  # atno 10718 bound_to 10713
  154.6578  135.2920  154.9905 H   0  0  0  0  0  0  0  0  0  0  0  0  # atno 10763 bound_to 10752
  154.0976  135.6581  153.4866 H   0  0  0  0  0  0  0  0  0  0  0  0  # atno 10764 bound_to 10752
  153.0412  135.5235  154.7515 H   0  0  0  0  0  0  0  0  0  0  0  0  # atno 10765 bound_to 10752
  139.9714  134.6894  156.0440 H   0  0  0  0  0  0  0  0  0  0  0  0  # atno 11005 bound_to 11000
  145.5028  141.0437  143.2531 LP  0  0  0  0  0  0  0  0  0  0  0  0  # atno 17320 bound_to 7965
  144.7801  139.6544  143.7158 LP  0  0  0  0  0  0  0  0  0  0  0  0  # atno 17321 bound_to 7965
  140.7788  143.4906  150.9899 LP  0  0  0  0  0  0  0  0  0  0  0  0  # atno 17342 bound_to 10162
  139.8594  143.7334  152.3174 LP  0  0  0  0  0  0  0  0  0  0  0  0  # atno 17343 bound_to 10162
  157.7313  131.0609  150.5682 LP  0  0  0  0  0  0  0  0  0  0  0  0  # atno 17370 bound_to 10713
  156.5788  130.4299  149.5986 LP  0  0  0  0  0  0  0  0  0  0  0  0  # atno 17371 bound_to 10713
  141.1393  133.6568  156.3684 LP  0  0  0  0  0  0  0  0  0  0  0  0  # atno 17394 bound_to 11000
  140.5286  134.6235  157.5342 LP  0  0  0  0  0  0  0  0  0  0  0  0  # atno 17395 bound_to 11000

$$$$
