AV-unprocessed.smi:999|AV-procd|sdf|4352|dock1
  -GOLD-   22720 2253D 1   1.00000     0.00000
 Structure written by MMmdl.
 37 38  0  0  0  0  0  0  0  0  2 V2000
  145.1376  136.0319  151.9094 C   0  0  0  0  0  0  0  0  0  0  0  0
  145.7610  134.6417  151.6671 C   0  0  1  0  0  0  0  0  0  0  0  0
  146.3190  134.0070  152.9509 C   0  0  0  0  0  0  0  0  0  0  0  0
  145.5734  133.4305  153.7440 O   0  0  0  0  0  0  0  0  0  0  0  0
  147.6439  134.1193  153.1378 N   0  0  0  0  0  0  0  0  0  0  0  0
  148.3907  133.5682  154.2640 C   0  0  2  0  0  0  0  0  0  0  0  0
  149.6874  134.3728  154.4628 C   0  0  0  0  0  0  0  0  0  0  0  0
  150.5399  133.7957  155.6038 C   0  0  0  0  0  0  0  0  0  0  0  0
  150.8627  132.3005  155.3714 C   0  0  1  0  0  0  0  0  0  0  0  0
  151.7035  131.6994  156.5168 C   0  0  0  0  0  0  0  0  0  0  0  0
  152.1934  130.5636  156.3289 O   0  0  0  0  0  0  0  0  0  0  0  0
  151.8708  132.3807  157.5531 O   0  5  0  0  0  0  0  0  0  0  0  0
  149.5623  131.4917  155.1591 C   0  0  0  0  0  0  0  0  0  0  0  0
  148.7080  132.0790  154.0240 C   0  0  0  0  0  0  0  0  0  0  0  0
  144.8339  133.7244  151.0134 N   0  0  0  0  0  0  0  0  0  0  0  0
  144.9314  133.1790  149.7489 C   0  0  0  0  0  0  0  0  0  0  0  0
  143.8651  132.3436  149.5775 C   0  0  0  0  0  0  0  0  0  0  0  0
  143.1653  132.4321  150.8126 C   0  0  0  0  0  0  0  0  0  0  0  0
  143.7501  133.2502  151.6717 N   0  0  0  0  0  0  0  0  0  0  0  0
  145.8655  136.7177  152.3440 H   0  0  0  0  0  0  0  0  0  0  0  0
  144.2825  135.9874  152.5850 H   0  0  0  0  0  0  0  0  0  0  0  0
  144.7947  136.4719  150.9726 H   0  0  0  0  0  0  0  0  0  0  0  0
  146.6021  134.7843  150.9862 H   0  0  0  0  0  0  0  0  0  0  0  0
  148.1798  134.6098  152.4369 H   0  0  0  0  0  0  0  0  0  0  0  0
  147.7905  133.6615  155.1713 H   0  0  0  0  0  0  0  0  0  0  0  0
  150.2710  134.3699  153.5409 H   0  0  0  0  0  0  0  0  0  0  0  0
  149.4510  135.4161  154.6755 H   0  0  0  0  0  0  0  0  0  0  0  0
  151.4602  134.3755  155.6867 H   0  0  0  0  0  0  0  0  0  0  0  0
  150.0068  133.9206  156.5478 H   0  0  0  0  0  0  0  0  0  0  0  0
  151.4678  132.2198  154.4673 H   0  0  0  0  0  0  0  0  0  0  0  0
  149.7894  130.4507  154.9260 H   0  0  0  0  0  0  0  0  0  0  0  0
  148.9781  131.4812  156.0807 H   0  0  0  0  0  0  0  0  0  0  0  0
  147.7840  131.5070  153.9325 H   0  0  0  0  0  0  0  0  0  0  0  0
  149.2373  131.9621  153.0772 H   0  0  0  0  0  0  0  0  0  0  0  0
  145.7444  133.4275  149.0826 H   0  0  0  0  0  0  0  0  0  0  0  0
  143.6247  131.7545  148.7048 H   0  0  0  0  0  0  0  0  0  0  0  0
  142.2588  131.9261  151.1106 H   0  0  0  0  0  0  0  0  0  0  0  0
  1  2  1  0  0  0  0
  1 20  1  0  0  0  0
  1 21  1  0  0  0  0
  1 22  1  0  0  0  0
  2  3  1  0  0  0  0
  2 15  1  0  0  0  0
  2 23  1  0  0  0  0
  3  4  2  0  0  0  0
  3  5  1  0  0  0  0
  5  6  1  0  0  0  0
  5 24  1  0  0  0  0
  6 14  1  0  0  0  0
  6  7  1  0  0  0  0
  6 25  1  0  0  0  0
  7  8  1  0  0  0  0
  7 26  1  0  0  0  0
  7 27  1  0  0  0  0
  8  9  1  0  0  0  0
  8 28  1  0  0  0  0
  8 29  1  0  0  0  0
  9 10  1  0  0  0  0
  9 13  1  0  0  0  0
  9 30  1  0  0  0  0
 10 11  2  0  0  0  0
 10 12  1  0  0  0  0
 13 14  1  0  0  0  0
 13 31  1  0  0  0  0
 13 32  1  0  0  0  0
 14 33  1  0  0  0  0
 14 34  1  0  0  0  0
 15 19  1  0  0  0  0
 15 16  1  0  0  0  0
 16 17  2  0  0  0  0
 16 35  1  0  0  0  0
 17 18  1  0  0  0  0
 17 36  1  0  0  0  0
 18 19  2  0  0  0  0
 18 37  1  0  0  0  0
M  CHG  1  12  -1
M  END
> <s_m_source_file>
AV-unprocessed.smi

> <i_m_source_file_index>
999

> <i_lp_mmshare_version>
43012

> <i_f3d_flags>
0

> <s_epik_input>
bjFbY0hdW2NIXVtjSF1uMVtDQEhdKFtDSDNdKUMoPU8pW05IXVtDQEBIXTJbQ0gyXVtDSDJdW0NAQEhdKEMoPU8pW09IXSlbQ0gyXVtDSDJdMg==

> <s_epik_cmdline>
J2VwaWtfcHl0aG9uJywgJy1waCcsICc3LjAnLCAnLXRuJywgJzgnLCAnLW1hJywgJzIwMCcsICctbWV0YWxfYmluZGluZycsICctaW1hZScsICc8aW5maWxlLm1hZT4nLCAnLW9tYWUnLCAnPG91dGZpbGUubWFlPic=

> <r_lp_tautomer_probability>
1

> <r_epik_Ionization_Penalty>
0.00221712

> <r_epik_Ionization_Penalty_Charging>
0.00217268

> <r_epik_Ionization_Penalty_Neutral>
4.44343e-05

> <r_epik_State_Penalty>
0.0014925

> <r_epik_Charging_Adjusted_Penalty>
0.00366518

> <i_epik_Tot_Q>
-1

> <i_epik_Tot_abs_Q>
1

> <r_epik_Metal_State_Penalty>
-0

> <b_epik_Metal_Only>
0

> <s_lp_Force_Field>
OPLS_2005

> <r_lp_Energy>
14.7159

> <b_lp_Chiralities_Consistent>
1

> <s_lp_Variant>
AV-unprocessed.smi:999-2

> <Gold.Version>
5.8.1

> <Gold.Id.Protein>
6NUR|6NUR_protein|mol2

> <Gold.PLP.Fitness>
42.1929

> <Gold.PLP.PLP>
-31.4543

> <Gold.PLP.part.hbond>
-2.0000

> <Gold.PLP.part.metal>
0.0000

> <Gold.PLP.part.buried>
-2.5087

> <Gold.PLP.part.nonpolar>
-26.8538

> <Gold.PLP.part.repulsive>
0.2794

> <Gold.PLP.ligand.clash>
0.0000

> <Gold.PLP.ligand.torsion>
1.0084

> <Gold.PLP.Chemscore.Hbond>
3.0000

> <Gold.PLP.Chemscore.CHOScore>
1.1922

> <Gold.PLP.Chemscore.Metal>
0.0000

> <Gold.Chemscore.Hbonds>
donor molecule, donor type, donor heavy atom, donor atom, acceptor molecule, acceptor atom, score
      L1  H     5    24       P1  7948  0.99
      P1  H  6896  6907       L1    12  2.00
      L1  C    16    35       P1  7921  0.74
      L1  C    18    37       P1 10952  0.46

> <Gold.PLP.Chemscore.Internal.Correction>
0.1788

> <Gold.Rescore>
     Score         DG    S(hbond)    S(metal)    S(lipo)     H(rot)  DE(clash)    DE(int)     intcor
     12.13     -14.45       1.80        0.00      68.67       1.98       0.02       2.31       ----

> <Gold.Chemscore.Fitness>
12.1286

> <Gold.Chemscore.DG>
-14.4512

> <Gold.Chemscore.ZeroCoef>
-5.4800

> <Gold.Chemscore.Hbond>
1.7959

> <Gold.Chemscore.Metal>
0.0000

> <Gold.Chemscore.Lipo>
68.6735

> <Gold.Chemscore.Internal_Hbond>
0.0000

> <Gold.Chemscore.DEClash>
0.0155

> <Gold.Chemscore.DEInternal>
2.3071

> <Gold.Chemscore.Rot>
1.9774

> <Gold.Chemscore.Internal.Correction>
   9.000000E+99

> <Gold.Chemscore.Hbonds>
donor molecule, donor type, donor heavy atom, donor atom, acceptor molecule, acceptor atom, score
      L1  H     5    24       P1  7948  0.28
      P1  H  6896  6907       L1    12  0.91

> <Gold.Chemscore.Hbond.Weighted>
-5.9985

> <Gold.Chemscore.Metal.Weighted>
-0.0000

> <Gold.Chemscore.Lipo.Weighted>
-8.0348

> <Gold.Chemscore.Internal_Hbond.Weighted>
0.0000

> <Gold.Chemscore.DEClash.Weighted>
0.0155

> <Gold.Chemscore.DEInternal.Weighted>
2.3071

> <Gold.Chemscore.Rot.Weighted>
5.0620

> <Gold.Chemscore.Internal.Correction.Weighted>
   9.000000E+99

> <Gold.Protein.RotatedTorsions>
[ 6907 6896 6895 6894 ] final  167.03 input  -60.11 | X-H torsion
[ 7974 7965 7964 7962 ] final  -20.01 input  175.53 | X-H torsion
[ 8008 7997 7996 7995 ] final -170.52 input   59.86 | X-H torsion
[ 10167 10162 10161 10158 ] final  -36.06 input  -65.29 | X-H torsion
[ 10718 10713 10712 10709 ] final   97.91 input   66.30 | X-H torsion
[ 10763 10752 10751 10750 ] final   -6.87 input  -60.55 | X-H torsion
[ 11005 11000 10999 10996 ] final  -12.58 input  -57.11 | X-H torsion

> <Gold.Protein.ActiveResidues>
 VAL166  LYS551  ARG553  GLY616  TRP617  ASP618  TYR619  PRO620  LYS621  CYS622 
 ASP623  PHE694  ASN695  SER759  ASP760  ASP761  ALA762  ILE779  LEU786  VAL792 
 PHE793  MET794  SER795  GLU796  ALA797  LYS798  CYS799  TRP800  GLU811  SER814 

> <Gold.Protein.RotatedAtoms>
  151.8696  133.3473  159.3730 H   0  0  0  0  0  0  0  0  0  0  0  0  # atno 6907 bound_to 6896
  150.7156  134.5125  159.5624 H   0  0  0  0  0  0  0  0  0  0  0  0  # atno 6908 bound_to 6896
  152.2655  134.7989  160.0474 H   0  0  0  0  0  0  0  0  0  0  0  0  # atno 6909 bound_to 6896
  146.1811  140.4143  142.8494 H   0  0  0  0  0  0  0  0  0  0  0  0  # atno 7974 bound_to 7965
  155.9194  140.1071  157.1219 H   0  0  0  0  0  0  0  0  0  0  0  0  # atno 8008 bound_to 7997
  154.4052  140.1259  156.4724 H   0  0  0  0  0  0  0  0  0  0  0  0  # atno 8009 bound_to 7997
  155.7215  140.3469  155.5020 H   0  0  0  0  0  0  0  0  0  0  0  0  # atno 8010 bound_to 7997
  140.7151  143.3435  151.2307 H   0  0  0  0  0  0  0  0  0  0  0  0  # atno 10167 bound_to 10162
  157.6905  131.0624  150.4716 H   0  0  0  0  0  0  0  0  0  0  0  0  # atno 10718 bound_to 10713
  153.4183  135.7009  153.6311 H   0  0  0  0  0  0  0  0  0  0  0  0  # atno 10763 bound_to 10752
  153.4776  135.3701  155.2425 H   0  0  0  0  0  0  0  0  0  0  0  0  # atno 10764 bound_to 10752
  154.8721  135.4058  154.3547 H   0  0  0  0  0  0  0  0  0  0  0  0  # atno 10765 bound_to 10752
  140.7672  133.8467  155.9175 H   0  0  0  0  0  0  0  0  0  0  0  0  # atno 11005 bound_to 11000
  144.8316  140.6716  143.6287 LP  0  0  0  0  0  0  0  0  0  0  0  0  # atno 17320 bound_to 7965
  145.4074  139.1586  143.4144 LP  0  0  0  0  0  0  0  0  0  0  0  0  # atno 17321 bound_to 7965
  139.6948  143.9631  152.2877 LP  0  0  0  0  0  0  0  0  0  0  0  0  # atno 17342 bound_to 10162
  139.9305  144.6744  150.8368 LP  0  0  0  0  0  0  0  0  0  0  0  0  # atno 17343 bound_to 10162
  156.5053  130.4126  149.6330 LP  0  0  0  0  0  0  0  0  0  0  0  0  # atno 17370 bound_to 10713
  156.3290  130.7321  151.2247 LP  0  0  0  0  0  0  0  0  0  0  0  0  # atno 17371 bound_to 10713
  140.9608  134.1658  157.4656 LP  0  0  0  0  0  0  0  0  0  0  0  0  # atno 17394 bound_to 11000
  139.8761  134.9944  156.5691 LP  0  0  0  0  0  0  0  0  0  0  0  0  # atno 17395 bound_to 11000

$$$$
