AV-unprocessed.smi:3010|AV-procd|sdf|11455|dock1
  -GOLD-   2272016383D 1   1.00000     0.00000
 Structure written by MMmdl.
 38 40  0  0  0  0  0  0  0  0  1 V2000
  155.0329  137.6240  164.8897 C   0  0  0  0  0  0  0  0  0  0  0  0
  154.7946  137.0926  163.5344 N   0  0  0  0  0  0  0  0  0  0  0  0
  154.6186  137.9857  162.5102 C   0  0  0  0  0  0  0  0  0  0  0  0
  154.6446  139.2116  162.6288 O   0  0  0  0  0  0  0  0  0  0  0  0
  154.3844  137.3546  161.2087 C   0  0  0  0  0  0  0  0  0  0  0  0
  154.3486  136.0119  161.0344 C   0  0  0  0  0  0  0  0  0  0  0  0
  154.1093  135.6795  159.7057 N   0  0  0  0  0  0  0  0  0  0  0  0
  154.0088  136.8804  159.1333 C   0  0  0  0  0  0  0  0  0  0  0  0
  154.1591  137.9340  159.9620 N   0  0  0  0  0  0  0  0  0  0  0  0
  154.0944  139.3401  159.5949 C   0  0  0  0  0  0  0  0  0  0  0  0
  152.8051  139.6981  158.8291 C   0  0  2  0  0  0  0  0  0  0  0  0
  152.9172  139.2912  157.4784 O   0  0  0  0  0  0  0  0  0  0  0  0
  152.4809  141.1778  158.9615 C   0  0  0  0  0  0  0  0  0  0  0  0
  151.2687  141.6811  158.4424 C   0  0  0  0  0  0  0  0  0  0  0  0
  150.9557  143.0487  158.5686 C   0  0  0  0  0  0  0  0  0  0  0  0
  151.8516  143.9201  159.2174 C   0  0  0  0  0  0  0  0  0  0  0  0
  153.0602  143.4231  159.7417 C   0  0  0  0  0  0  0  0  0  0  0  0
  153.3737  142.0557  159.6157 C   0  0  0  0  0  0  0  0  0  0  0  0
  154.5452  135.1755  162.1610 N   0  0  0  0  0  0  0  0  0  0  0  0
  154.5003  133.7280  161.9345 C   0  0  0  0  0  0  0  0  0  0  0  0
  154.7642  135.7135  163.4066 C   0  0  0  0  0  0  0  0  0  0  0  0
  154.9291  134.9834  164.3876 O   0  0  0  0  0  0  0  0  0  0  0  0
  155.0778  138.7115  164.9553 H   0  0  0  0  0  0  0  0  0  0  0  0
  155.9801  137.2527  165.2842 H   0  0  0  0  0  0  0  0  0  0  0  0
  154.2394  137.3035  165.5667 H   0  0  0  0  0  0  0  0  0  0  0  0
  153.8155  136.9982  158.0771 H   0  0  0  0  0  0  0  0  0  0  0  0
  154.1803  139.9386  160.5022 H   0  0  0  0  0  0  0  0  0  0  0  0
  154.9701  139.5797  158.9896 H   0  0  0  0  0  0  0  0  0  0  0  0
  151.9736  139.1318  159.2498 H   0  0  0  0  0  0  0  0  0  0  0  0
  152.0975  139.4707  157.0434 H   0  0  0  0  0  0  0  0  0  0  0  0
  150.5731  141.0194  157.9469 H   0  0  0  0  0  0  0  0  0  0  0  0
  150.0274  143.4290  158.1685 H   0  0  0  0  0  0  0  0  0  0  0  0
  151.6111  144.9686  159.3149 H   0  0  0  0  0  0  0  0  0  0  0  0
  153.7467  144.0901  160.2420 H   0  0  0  0  0  0  0  0  0  0  0  0
  154.3012  141.6831  160.0254 H   0  0  0  0  0  0  0  0  0  0  0  0
  154.6521  133.1259  162.8307 H   0  0  0  0  0  0  0  0  0  0  0  0
  155.2698  133.4408  161.2172 H   0  0  0  0  0  0  0  0  0  0  0  0
  153.5330  133.4476  161.5161 H   0  0  0  0  0  0  0  0  0  0  0  0
  1  2  1  0  0  0  0
  1 23  1  0  0  0  0
  1 24  1  0  0  0  0
  1 25  1  0  0  0  0
  2 21  1  0  0  0  0
  2  3  1  0  0  0  0
  3  4  2  0  0  0  0
  3  5  1  0  0  0  0
  5  9  1  0  0  0  0
  5  6  2  0  0  0  0
  6  7  1  0  0  0  0
  6 19  1  0  0  0  0
  7  8  2  0  0  0  0
  8  9  1  0  0  0  0
  8 26  1  0  0  0  0
  9 10  1  0  0  0  0
 10 11  1  0  0  0  0
 10 27  1  0  0  0  0
 10 28  1  0  0  0  0
 11 12  1  0  0  0  0
 11 13  1  0  0  0  0
 11 29  1  0  0  0  0
 12 30  1  0  0  0  0
 13 18  1  0  0  0  0
 13 14  2  0  0  0  0
 14 15  1  0  0  0  0
 14 31  1  0  0  0  0
 15 16  2  0  0  0  0
 15 32  1  0  0  0  0
 16 17  1  0  0  0  0
 16 33  1  0  0  0  0
 17 18  2  0  0  0  0
 17 34  1  0  0  0  0
 18 35  1  0  0  0  0
 19 20  1  0  0  0  0
 19 21  1  0  0  0  0
 20 36  1  0  0  0  0
 20 37  1  0  0  0  0
 20 38  1  0  0  0  0
 21 22  2  0  0  0  0
M  END
> <s_m_source_file>
AV-unprocessed.smi

> <i_m_source_file_index>
3010

> <i_lp_mmshare_version>
43012

> <i_f3d_flags>
0

> <s_epik_input>
Tz1jMW4oW0NIM10pYyg9TyluKFtDSDNdKWMoYzEyKW5bY0hdbjJbQ0gyXVtDQEhdKFtPSF0pYzNbY0hdW2NIXVtjSF1bY0hdW2NIXTM=

> <s_epik_cmdline>
J2VwaWtfcHl0aG9uJywgJy1waCcsICc3LjAnLCAnLXRuJywgJzgnLCAnLW1hJywgJzIwMCcsICctbWV0YWxfYmluZGluZycsICctaW1hZScsICc8aW5maWxlLm1hZT4nLCAnLW9tYWUnLCAnPG91dGZpbGUubWFlPic=

> <r_lp_tautomer_probability>
1

> <r_epik_Ionization_Penalty>
1.43747e-06

> <r_epik_Ionization_Penalty_Charging>
3.74189e-09

> <r_epik_Ionization_Penalty_Neutral>
1.43373e-06

> <r_epik_State_Penalty>
-0

> <r_epik_Charging_Adjusted_Penalty>
3.74189e-09

> <i_epik_Tot_Q>
0

> <i_epik_Tot_abs_Q>
0

> <r_epik_Metal_State_Penalty>
-0

> <b_epik_Metal_Only>
0

> <s_lp_Force_Field>
OPLS_2005

> <r_lp_Energy>
35.6617

> <b_lp_Chiralities_Consistent>
1

> <s_lp_Variant>
AV-unprocessed.smi:3010-1

> <Gold.Version>
5.8.1

> <Gold.Id.Protein>
6NUR|6NUR_protein|mol2

> <Gold.PLP.Fitness>
43.8965

> <Gold.PLP.PLP>
-38.4609

> <Gold.PLP.part.hbond>
-1.9987

> <Gold.PLP.part.metal>
0.0000

> <Gold.PLP.part.buried>
-4.8409

> <Gold.PLP.part.nonpolar>
-31.6701

> <Gold.PLP.part.repulsive>
0.0893

> <Gold.PLP.ligand.clash>
0.0000

> <Gold.PLP.ligand.torsion>
0.2978

> <Gold.PLP.Chemscore.Hbond>
2.0000

> <Gold.PLP.Chemscore.CHOScore>
0.0000

> <Gold.PLP.Chemscore.Metal>
0.0000

> <Gold.Chemscore.Hbonds>
donor molecule, donor type, donor heavy atom, donor atom, acceptor molecule, acceptor atom, score
      P1  H  6896  6907       L1     7  0.90
      P1  H  7997  8008       L1    12  1.00

> <Gold.PLP.Chemscore.Internal.Correction>
0.0312

> <Gold.Rescore>
     Score         DG    S(hbond)    S(metal)    S(lipo)     H(rot)  DE(clash)    DE(int)     intcor
     13.66     -14.06       1.24        0.00      85.00       2.15       0.07       0.33       ----

> <Gold.Chemscore.Fitness>
13.6563

> <Gold.Chemscore.DG>
-14.0569

> <Gold.Chemscore.ZeroCoef>
-5.4800

> <Gold.Chemscore.Hbond>
1.2364

> <Gold.Chemscore.Metal>
0.0000

> <Gold.Chemscore.Lipo>
84.9971

> <Gold.Chemscore.Internal_Hbond>
0.0000

> <Gold.Chemscore.DEClash>
0.0669

> <Gold.Chemscore.DEInternal>
0.3337

> <Gold.Chemscore.Rot>
2.1474

> <Gold.Chemscore.Internal.Correction>
   9.000000E+99

> <Gold.Chemscore.Hbonds>
donor molecule, donor type, donor heavy atom, donor atom, acceptor molecule, acceptor atom, score
      P1  H  6896  6907       L1     7  0.17
      P1  H  7997  8008       L1    12  0.39

> <Gold.Chemscore.Hbond.Weighted>
-4.1296

> <Gold.Chemscore.Metal.Weighted>
-0.0000

> <Gold.Chemscore.Lipo.Weighted>
-9.9447

> <Gold.Chemscore.Internal_Hbond.Weighted>
0.0000

> <Gold.Chemscore.DEClash.Weighted>
0.0669

> <Gold.Chemscore.DEInternal.Weighted>
0.3337

> <Gold.Chemscore.Rot.Weighted>
5.4974

> <Gold.Chemscore.Internal.Correction.Weighted>
   9.000000E+99

> <Gold.Protein.RotatedTorsions>
[ 6907 6896 6895 6894 ] final   64.12 input  -60.11 | X-H torsion
[ 7974 7965 7964 7962 ] final  157.71 input  175.53 | X-H torsion
[ 8008 7997 7996 7995 ] final  -80.77 input   59.86 | X-H torsion
[ 10167 10162 10161 10158 ] final  110.20 input  -65.29 | X-H torsion
[ 10718 10713 10712 10709 ] final  176.62 input   66.30 | X-H torsion
[ 10763 10752 10751 10750 ] final  -12.71 input  -60.55 | X-H torsion
[ 11005 11000 10999 10996 ] final  118.29 input  -57.11 | X-H torsion

> <Gold.Protein.ActiveResidues>
 VAL166  LYS551  ARG553  GLY616  TRP617  ASP618  TYR619  PRO620  LYS621  CYS622 
 ASP623  PHE694  ASN695  SER759  ASP760  ASP761  ALA762  ILE779  LEU786  VAL792 
 PHE793  MET794  SER795  GLU796  ALA797  LYS798  CYS799  TRP800  GLU811  SER814 

> <Gold.Protein.RotatedAtoms>
  152.4307  134.5783  159.9940 H   0  0  0  0  0  0  0  0  0  0  0  0  # atno 6907 bound_to 6896
  151.5907  133.3361  159.3035 H   0  0  0  0  0  0  0  0  0  0  0  0  # atno 6908 bound_to 6896
  150.8200  134.7438  159.6828 H   0  0  0  0  0  0  0  0  0  0  0  0  # atno 6909 bound_to 6896
  144.7887  139.7378  143.6230 H   0  0  0  0  0  0  0  0  0  0  0  0  # atno 7974 bound_to 7965
  154.5917  140.0658  156.9247 H   0  0  0  0  0  0  0  0  0  0  0  0  # atno 8008 bound_to 7997
  155.2285  140.3335  155.4288 H   0  0  0  0  0  0  0  0  0  0  0  0  # atno 8009 bound_to 7997
  156.2260  140.1819  156.7346 H   0  0  0  0  0  0  0  0  0  0  0  0  # atno 8010 bound_to 7997
  139.6707  144.7125  151.1694 H   0  0  0  0  0  0  0  0  0  0  0  0  # atno 10167 bound_to 10162
  156.9174  130.9929  151.3010 H   0  0  0  0  0  0  0  0  0  0  0  0  # atno 10718 bound_to 10713
  153.5026  135.7017  153.5824 H   0  0  0  0  0  0  0  0  0  0  0  0  # atno 10763 bound_to 10752
  153.3949  135.3886  155.1948 H   0  0  0  0  0  0  0  0  0  0  0  0  # atno 10764 bound_to 10752
  154.8709  135.3867  154.4498 H   0  0  0  0  0  0  0  0  0  0  0  0  # atno 10765 bound_to 10752
  139.9104  134.9619  156.7481 H   0  0  0  0  0  0  0  0  0  0  0  0  # atno 11005 bound_to 11000
  146.2130  139.5500  142.9668 LP  0  0  0  0  0  0  0  0  0  0  0  0  # atno 17320 bound_to 7965
  145.5851  141.0377  143.2100 LP  0  0  0  0  0  0  0  0  0  0  0  0  # atno 17321 bound_to 7965
  140.7617  143.5849  150.8856 LP  0  0  0  0  0  0  0  0  0  0  0  0  # atno 17342 bound_to 10162
  139.9514  143.6268  152.3028 LP  0  0  0  0  0  0  0  0  0  0  0  0  # atno 17343 bound_to 10162
  157.5929  130.8457  149.8686 LP  0  0  0  0  0  0  0  0  0  0  0  0  # atno 17370 bound_to 10713
  156.0507  130.3718  150.1208 LP  0  0  0  0  0  0  0  0  0  0  0  0  # atno 17371 bound_to 10713
  140.6795  133.9487  155.7902 LP  0  0  0  0  0  0  0  0  0  0  0  0  # atno 17394 bound_to 11000
  141.0520  134.0471  157.3771 LP  0  0  0  0  0  0  0  0  0  0  0  0  # atno 17395 bound_to 11000

$$$$
