AV-unprocessed.smi:2559|AV-procd|sdf|10034|dock2
  -GOLD-   2272014 73D 1   1.00000     0.00000
 Structure written by MMmdl.
 44 46  0  0  0  0  0  0  0  0  1 V2000
  146.7592  141.5883  154.1364 C   0  0  0  0  0  0  0  0  0  0  0  0
  147.9150  140.6923  154.2121 N   0  0  0  0  0  0  0  0  0  0  0  0
  147.9854  139.5953  153.3927 C   0  0  0  0  0  0  0  0  0  0  0  0
  147.0996  139.3202  152.5834 O   0  0  0  0  0  0  0  0  0  0  0  0
  149.0897  138.7956  153.4965 N   0  0  0  0  0  0  0  0  0  0  0  0
  150.1462  138.9525  154.3305 C   0  0  0  0  0  0  0  0  0  0  0  0
  151.1095  138.1900  154.3440 O   0  0  0  0  0  0  0  0  0  0  0  0
  150.0212  140.1264  155.2082 C   0  0  0  0  0  0  0  0  0  0  0  0
  148.9554  140.9655  155.1455 C   0  0  0  0  0  0  0  0  0  0  0  0
  149.0936  142.0079  156.0481 N   0  0  0  0  0  0  0  0  0  0  0  0
  150.2551  141.7375  156.6491 C   0  0  0  0  0  0  0  0  0  0  0  0
  150.8037  142.5495  157.6434 N   0  0  0  0  0  0  0  0  0  0  0  0
  152.2276  142.8240  157.8413 C   0  0  0  0  0  0  0  0  0  0  0  0
  152.5001  144.3304  157.9976 C   0  0  0  0  0  0  0  0  0  0  0  0
  151.6965  144.8999  159.1743 C   0  0  0  0  0  0  0  0  0  0  0  0
  150.2161  144.5200  159.0318 C   0  0  0  0  0  0  0  0  0  0  0  0
  150.0587  143.0038  158.8169 C   0  0  0  0  0  0  0  0  0  0  0  0
  150.8895  140.6260  156.1836 N   0  0  0  0  0  0  0  0  0  0  0  0
  152.2014  140.1030  156.5658 C   0  0  0  0  0  0  0  0  0  0  0  0
  152.2636  139.7131  158.0576 C   0  0  2  0  0  0  0  0  0  0  0  0
  153.5724  139.3354  158.4380 O   0  0  0  0  0  0  0  0  0  0  0  0
  151.2717  138.6041  158.4555 C   0  0  0  0  0  0  0  0  0  0  0  0
  149.9395  138.9519  158.1363 O   0  0  0  0  0  0  0  0  0  0  0  0
  149.1231  137.9982  152.8782 H   0  0  0  0  0  0  0  0  0  0  0  0
  146.6295  141.9652  153.1205 H   0  0  0  0  0  0  0  0  0  0  0  0
  146.8550  142.4538  154.7917 H   0  0  0  0  0  0  0  0  0  0  0  0
  145.8488  141.0595  154.4221 H   0  0  0  0  0  0  0  0  0  0  0  0
  152.5624  142.2972  158.7360 H   0  0  0  0  0  0  0  0  0  0  0  0
  152.8142  142.4072  157.0234 H   0  0  0  0  0  0  0  0  0  0  0  0
  153.5649  144.5043  158.1537 H   0  0  0  0  0  0  0  0  0  0  0  0
  152.2312  144.8545  157.0805 H   0  0  0  0  0  0  0  0  0  0  0  0
  152.0869  144.4987  160.1105 H   0  0  0  0  0  0  0  0  0  0  0  0
  151.8096  145.9831  159.2256 H   0  0  0  0  0  0  0  0  0  0  0  0
  149.6633  144.8322  159.9183 H   0  0  0  0  0  0  0  0  0  0  0  0
  149.7787  145.0561  158.1886 H   0  0  0  0  0  0  0  0  0  0  0  0
  149.0022  142.7635  158.6937 H   0  0  0  0  0  0  0  0  0  0  0  0
  150.4010  142.4572  159.6965 H   0  0  0  0  0  0  0  0  0  0  0  0
  152.4446  139.2430  155.9490 H   0  0  0  0  0  0  0  0  0  0  0  0
  152.9707  140.8326  156.3242 H   0  0  0  0  0  0  0  0  0  0  0  0
  152.0205  140.5937  158.6525 H   0  0  0  0  0  0  0  0  0  0  0  0
  153.5111  138.6994  159.1339 H   0  0  0  0  0  0  0  0  0  0  0  0
  151.5278  137.6630  157.9677 H   0  0  0  0  0  0  0  0  0  0  0  0
  151.3247  138.4269  159.5300 H   0  0  0  0  0  0  0  0  0  0  0  0
  149.3709  138.2494  158.4128 H   0  0  0  0  0  0  0  0  0  0  0  0
  1  2  1  0  0  0  0
  1 25  1  0  0  0  0
  1 26  1  0  0  0  0
  1 27  1  0  0  0  0
  2  9  1  0  0  0  0
  2  3  1  0  0  0  0
  3  4  2  0  0  0  0
  3  5  1  0  0  0  0
  5 24  1  0  0  0  0
  5  6  1  0  0  0  0
  6  7  2  0  0  0  0
  6  8  1  0  0  0  0
  8 18  1  0  0  0  0
  8  9  2  0  0  0  0
  9 10  1  0  0  0  0
 10 11  2  0  0  0  0
 11 12  1  0  0  0  0
 11 18  1  0  0  0  0
 12 17  1  0  0  0  0
 12 13  1  0  0  0  0
 13 14  1  0  0  0  0
 13 28  1  0  0  0  0
 13 29  1  0  0  0  0
 14 15  1  0  0  0  0
 14 30  1  0  0  0  0
 14 31  1  0  0  0  0
 15 16  1  0  0  0  0
 15 32  1  0  0  0  0
 15 33  1  0  0  0  0
 16 17  1  0  0  0  0
 16 34  1  0  0  0  0
 16 35  1  0  0  0  0
 17 36  1  0  0  0  0
 17 37  1  0  0  0  0
 18 19  1  0  0  0  0
 19 20  1  0  0  0  0
 19 38  1  0  0  0  0
 19 39  1  0  0  0  0
 20 21  1  0  0  0  0
 20 22  1  0  0  0  0
 20 40  1  0  0  0  0
 21 41  1  0  0  0  0
 22 23  1  0  0  0  0
 22 42  1  0  0  0  0
 22 43  1  0  0  0  0
 23 44  1  0  0  0  0
M  END
> <s_m_source_file>
AV-unprocessed.smi

> <i_m_source_file_index>
2559

> <i_lp_mmshare_version>
43012

> <i_f3d_flags>
0

> <s_epik_input>
Tz1jMVtuSF1jKD1PKW4oW0NIM10pYyhjMTIpbmMobjJbQ0gyXVtDQEhdKFtPSF0pW0NIMl1bT0hdKU4zW0NIMl1bQ0gyXVtDSDJdW0NIMl1bQ0gyXTM=

> <s_epik_cmdline>
J2VwaWtfcHl0aG9uJywgJy1waCcsICc3LjAnLCAnLXRuJywgJzgnLCAnLW1hJywgJzIwMCcsICctbWV0YWxfYmluZGluZycsICctaW1hZScsICc8aW5maWxlLm1hZT4nLCAnLW9tYWUnLCAnPG91dGZpbGUubWFlPic=

> <r_lp_tautomer_probability>
1

> <r_epik_Ionization_Penalty>
0.0023969

> <r_epik_Ionization_Penalty_Charging>
9.35512e-05

> <r_epik_Ionization_Penalty_Neutral>
0.00230335

> <r_epik_State_Penalty>
-0

> <r_epik_Charging_Adjusted_Penalty>
9.35512e-05

> <i_epik_Tot_Q>
0

> <i_epik_Tot_abs_Q>
0

> <r_epik_Metal_State_Penalty>
0.0757518

> <b_epik_Metal_Only>
0

> <s_lp_Force_Field>
OPLS_2005

> <r_lp_Energy>
44.2112

> <b_lp_Chiralities_Consistent>
1

> <s_lp_Variant>
AV-unprocessed.smi:2559-1

> <Gold.Version>
5.8.1

> <Gold.Id.Protein>
6NUR|6NUR_protein|mol2

> <Gold.PLP.Fitness>
42.4782

> <Gold.PLP.PLP>
-37.3104

> <Gold.PLP.part.hbond>
-3.0000

> <Gold.PLP.part.metal>
0.0000

> <Gold.PLP.part.buried>
-4.6074

> <Gold.PLP.part.nonpolar>
-33.5734

> <Gold.PLP.part.repulsive>
4.0206

> <Gold.PLP.ligand.clash>
0.0000

> <Gold.PLP.ligand.torsion>
0.6901

> <Gold.PLP.Chemscore.Hbond>
2.0000

> <Gold.PLP.Chemscore.CHOScore>
0.0000

> <Gold.PLP.Chemscore.Metal>
0.0000

> <Gold.Chemscore.Hbonds>
donor molecule, donor type, donor heavy atom, donor atom, acceptor molecule, acceptor atom, score
      L1  H     5    24       P1  7948  1.00
      P1  H  7997  8008       L1    21  1.00

> <Gold.PLP.Chemscore.Internal.Correction>
0.5480

> <Gold.Rescore>
     Score         DG    S(hbond)    S(metal)    S(lipo)     H(rot)  DE(clash)    DE(int)     intcor
      6.22     -13.87       1.82        0.00      84.72       2.97       4.58       3.08       ----

> <Gold.Chemscore.Fitness>
6.2168

> <Gold.Chemscore.DG>
-13.8747

> <Gold.Chemscore.ZeroCoef>
-5.4800

> <Gold.Chemscore.Hbond>
1.8209

> <Gold.Chemscore.Metal>
0.0000

> <Gold.Chemscore.Lipo>
84.7212

> <Gold.Chemscore.Internal_Hbond>
0.0000

> <Gold.Chemscore.DEClash>
4.5803

> <Gold.Chemscore.DEInternal>
3.0776

> <Gold.Chemscore.Rot>
2.9685

> <Gold.Chemscore.Internal.Correction>
   9.000000E+99

> <Gold.Chemscore.Hbonds>
donor molecule, donor type, donor heavy atom, donor atom, acceptor molecule, acceptor atom, score
      L1  H     5    24       P1  7948  0.94
      P1  H  7997  8008       L1    21  0.65

> <Gold.Chemscore.Hbond.Weighted>
-6.0817

> <Gold.Chemscore.Metal.Weighted>
-0.0000

> <Gold.Chemscore.Lipo.Weighted>
-9.9124

> <Gold.Chemscore.Internal_Hbond.Weighted>
0.0000

> <Gold.Chemscore.DEClash.Weighted>
4.5803

> <Gold.Chemscore.DEInternal.Weighted>
3.0776

> <Gold.Chemscore.Rot.Weighted>
7.5994

> <Gold.Chemscore.Internal.Correction.Weighted>
   9.000000E+99

> <Gold.Protein.RotatedTorsions>
[ 6907 6896 6895 6894 ] final  171.98 input  -60.11 | X-H torsion
[ 7974 7965 7964 7962 ] final  -27.34 input  175.53 | X-H torsion
[ 8008 7997 7996 7995 ] final  -98.25 input   59.86 | X-H torsion
[ 10167 10162 10161 10158 ] final   21.49 input  -65.29 | X-H torsion
[ 10718 10713 10712 10709 ] final   66.22 input   66.30 | X-H torsion
[ 10763 10752 10751 10750 ] final -176.13 input  -60.55 | X-H torsion
[ 11005 11000 10999 10996 ] final   63.37 input  -57.11 | X-H torsion

> <Gold.Protein.ActiveResidues>
 VAL166  LYS551  ARG553  GLY616  TRP617  ASP618  TYR619  PRO620  LYS621  CYS622 
 ASP623  PHE694  ASN695  SER759  ASP760  ASP761  ALA762  ILE779  LEU786  VAL792 
 PHE793  MET794  SER795  GLU796  ALA797  LYS798  CYS799  TRP800  GLU811  SER814 

> <Gold.Protein.RotatedAtoms>
  151.7916  133.3360  159.3500 H   0  0  0  0  0  0  0  0  0  0  0  0  # atno 6907 bound_to 6896
  150.7390  134.5837  159.5961 H   0  0  0  0  0  0  0  0  0  0  0  0  # atno 6908 bound_to 6896
  152.3206  134.7386  160.0366 H   0  0  0  0  0  0  0  0  0  0  0  0  # atno 6909 bound_to 6896
  146.1364  140.5139  142.8671 H   0  0  0  0  0  0  0  0  0  0  0  0  # atno 7974 bound_to 7965
  154.7987  140.0456  157.1256 H   0  0  0  0  0  0  0  0  0  0  0  0  # atno 8008 bound_to 7997
  154.9504  140.3064  155.5058 H   0  0  0  0  0  0  0  0  0  0  0  0  # atno 8009 bound_to 7997
  156.2959  140.2289  156.4581 H   0  0  0  0  0  0  0  0  0  0  0  0  # atno 8010 bound_to 7997
  140.5423  143.9656  150.6526 H   0  0  0  0  0  0  0  0  0  0  0  0  # atno 10167 bound_to 10162
  157.6155  130.9256  150.0080 H   0  0  0  0  0  0  0  0  0  0  0  0  # atno 10718 bound_to 10713
  154.5761  135.2832  155.0779 H   0  0  0  0  0  0  0  0  0  0  0  0  # atno 10763 bound_to 10752
  154.2133  135.6404  153.5126 H   0  0  0  0  0  0  0  0  0  0  0  0  # atno 10764 bound_to 10752
  153.0073  135.5497  154.6400 H   0  0  0  0  0  0  0  0  0  0  0  0  # atno 10765 bound_to 10752
  140.0029  134.6414  155.9901 H   0  0  0  0  0  0  0  0  0  0  0  0  # atno 11005 bound_to 11000
  144.7745  140.5709  143.6647 LP  0  0  0  0  0  0  0  0  0  0  0  0  # atno 17320 bound_to 7965
  145.5145  139.1478  143.3586 LP  0  0  0  0  0  0  0  0  0  0  0  0  # atno 17321 bound_to 7965
  140.3060  143.3229  152.0926 LP  0  0  0  0  0  0  0  0  0  0  0  0  # atno 17342 bound_to 10162
  139.4993  144.6667  151.6340 LP  0  0  0  0  0  0  0  0  0  0  0  0  # atno 17343 bound_to 10162
  156.1276  130.3644  149.9785 LP  0  0  0  0  0  0  0  0  0  0  0  0  # atno 17370 bound_to 10713
  156.7852  130.9236  151.3646 LP  0  0  0  0  0  0  0  0  0  0  0  0  # atno 17371 bound_to 10713
  141.1655  133.6537  156.4466 LP  0  0  0  0  0  0  0  0  0  0  0  0  # atno 17394 bound_to 11000
  140.4694  134.6767  157.5122 LP  0  0  0  0  0  0  0  0  0  0  0  0  # atno 17395 bound_to 11000

$$$$
