AV-unprocessed.smi:540|AV-procd|sdf|2869|dock7
  -GOLD-   2262023363D 1   1.00000     0.00000
 Structure written by MMmdl.
 49 51  0  0  0  0  0  0  0  0  1 V2000
  150.3421  145.0284  160.1913 C   0  0  0  0  0  0  0  0  0  0  0  0
  151.8525  145.0733  159.9501 C   0  0  0  0  0  0  0  0  0  0  0  0
  152.4541  143.9684  160.6031 O   0  0  0  0  0  0  0  0  0  0  0  0
  153.0058  143.0306  159.6952 C   0  0  0  0  0  0  0  0  0  0  0  0
  152.3792  141.6573  159.9636 C   0  0  0  0  0  0  0  0  0  0  0  0
  152.2749  140.8687  158.7388 N   0  0  0  0  0  0  0  0  0  0  0  0
  152.8514  139.6681  158.4517 C   0  0  0  0  0  0  0  0  0  0  0  0
  153.6928  139.0069  159.3492 N   0  0  0  0  0  0  0  0  0  0  0  0
  154.5946  139.6268  160.3200 C   0  0  0  0  0  0  0  0  0  0  0  0
  154.3718  139.0671  161.7365 C   0  0  0  0  0  0  0  0  0  0  0  0
  154.5701  137.5414  161.7580 C   0  0  0  0  0  0  0  0  0  0  0  0
  154.2561  136.9456  163.1374 C   0  0  0  0  0  0  0  0  0  0  0  0
  153.7194  136.8978  160.6485 C   0  0  0  0  0  0  0  0  0  0  0  0
  153.9748  137.5742  159.2895 C   0  0  0  0  0  0  0  0  0  0  0  0
  152.5036  139.1544  157.2686 N   0  0  0  0  0  0  0  0  0  0  0  0
  151.6538  140.1155  156.7444 C   0  0  0  0  0  0  0  0  0  0  0  0
  151.4918  141.1444  157.6151 C   0  0  0  0  0  0  0  0  0  0  0  0
  150.5997  142.2786  157.3317 C   0  0  0  0  0  0  0  0  0  0  0  0
  150.4102  143.2086  158.1121 O   0  0  0  0  0  0  0  0  0  0  0  0
  149.9962  142.1920  156.1215 N   0  0  0  0  0  0  0  0  0  0  0  0
  150.1238  141.1917  155.1977 C   0  0  0  0  0  0  0  0  0  0  0  0
  149.5011  141.2503  154.1374 O   0  0  0  0  0  0  0  0  0  0  0  0
  150.9547  140.1447  155.5039 N   0  0  0  0  0  0  0  0  0  0  0  0
  151.1209  139.0403  154.5570 C   0  0  0  0  0  0  0  0  0  0  0  0
  149.3756  142.9495  155.8765 H   0  0  0  0  0  0  0  0  0  0  0  0
  149.8441  145.8652  159.7012 H   0  0  0  0  0  0  0  0  0  0  0  0
  150.1140  145.0802  161.2562 H   0  0  0  0  0  0  0  0  0  0  0  0
  149.9111  144.1066  159.7998 H   0  0  0  0  0  0  0  0  0  0  0  0
  152.0577  145.0354  158.8791 H   0  0  0  0  0  0  0  0  0  0  0  0
  152.2651  146.0075  160.3342 H   0  0  0  0  0  0  0  0  0  0  0  0
  152.7984  143.3431  158.6709 H   0  0  0  0  0  0  0  0  0  0  0  0
  154.0895  142.9816  159.8123 H   0  0  0  0  0  0  0  0  0  0  0  0
  152.9558  141.1154  160.7100 H   0  0  0  0  0  0  0  0  0  0  0  0
  151.3978  141.7741  160.4121 H   0  0  0  0  0  0  0  0  0  0  0  0
  155.6235  139.4382  160.0102 H   0  0  0  0  0  0  0  0  0  0  0  0
  154.4834  140.7102  160.3068 H   0  0  0  0  0  0  0  0  0  0  0  0
  155.0622  139.5438  162.4329 H   0  0  0  0  0  0  0  0  0  0  0  0
  153.3671  139.3147  162.0801 H   0  0  0  0  0  0  0  0  0  0  0  0
  155.6186  137.3361  161.5368 H   0  0  0  0  0  0  0  0  0  0  0  0
  153.2165  137.1198  163.4172 H   0  0  0  0  0  0  0  0  0  0  0  0
  154.8874  137.3883  163.9082 H   0  0  0  0  0  0  0  0  0  0  0  0
  154.4288  135.8691  163.1478 H   0  0  0  0  0  0  0  0  0  0  0  0
  153.9415  135.8326  160.5775 H   0  0  0  0  0  0  0  0  0  0  0  0
  152.6606  136.9767  160.8994 H   0  0  0  0  0  0  0  0  0  0  0  0
  153.3466  137.1088  158.5292 H   0  0  0  0  0  0  0  0  0  0  0  0
  155.0077  137.4197  158.9748 H   0  0  0  0  0  0  0  0  0  0  0  0
  151.3930  139.4136  153.5685 H   0  0  0  0  0  0  0  0  0  0  0  0
  150.1911  138.4778  154.4647 H   0  0  0  0  0  0  0  0  0  0  0  0
  151.9005  138.3419  154.8611 H   0  0  0  0  0  0  0  0  0  0  0  0
  1  2  1  0  0  0  0
  1 26  1  0  0  0  0
  1 27  1  0  0  0  0
  1 28  1  0  0  0  0
  2  3  1  0  0  0  0
  2 29  1  0  0  0  0
  2 30  1  0  0  0  0
  3  4  1  0  0  0  0
  4  5  1  0  0  0  0
  4 31  1  0  0  0  0
  4 32  1  0  0  0  0
  5  6  1  0  0  0  0
  5 33  1  0  0  0  0
  5 34  1  0  0  0  0
  6 17  1  0  0  0  0
  6  7  1  0  0  0  0
  7  8  1  0  0  0  0
  7 15  2  0  0  0  0
  8 14  1  0  0  0  0
  8  9  1  0  0  0  0
  9 10  1  0  0  0  0
  9 35  1  0  0  0  0
  9 36  1  0  0  0  0
 10 11  1  0  0  0  0
 10 37  1  0  0  0  0
 10 38  1  0  0  0  0
 11 12  1  0  0  0  0
 11 13  1  0  0  0  0
 11 39  1  0  0  0  0
 12 40  1  0  0  0  0
 12 41  1  0  0  0  0
 12 42  1  0  0  0  0
 13 14  1  0  0  0  0
 13 43  1  0  0  0  0
 13 44  1  0  0  0  0
 14 45  1  0  0  0  0
 14 46  1  0  0  0  0
 15 16  1  0  0  0  0
 16 23  1  0  0  0  0
 16 17  2  0  0  0  0
 17 18  1  0  0  0  0
 18 19  2  0  0  0  0
 18 20  1  0  0  0  0
 20 25  1  0  0  0  0
 20 21  1  0  0  0  0
 21 22  2  0  0  0  0
 21 23  1  0  0  0  0
 23 24  1  0  0  0  0
 24 47  1  0  0  0  0
 24 48  1  0  0  0  0
 24 49  1  0  0  0  0
M  END
> <s_m_source_file>
AV-unprocessed.smi

> <i_m_source_file_index>
540

> <i_lp_mmshare_version>
43012

> <i_f3d_flags>
0

> <s_epik_input>
W0NIM11uMWMoPU8pW25IXWMoPU8pYyhjMTIpbihbQ0gyXVtDSDJdT1tDSDJdW0NIM10pYyhuMilOM1tDSDJdW0NIMl1bQ0hdKFtDSDNdKVtDSDJdW0NIMl0z

> <s_epik_cmdline>
J2VwaWtfcHl0aG9uJywgJy1waCcsICc3LjAnLCAnLXRuJywgJzgnLCAnLW1hJywgJzIwMCcsICctbWV0YWxfYmluZGluZycsICctaW1hZScsICc8aW5maWxlLm1hZT4nLCAnLW9tYWUnLCAnPG91dGZpbGUubWFlPic=

> <r_lp_tautomer_probability>
1

> <r_epik_Ionization_Penalty>
0.000763957

> <r_epik_Ionization_Penalty_Charging>
0.000121351

> <r_epik_Ionization_Penalty_Neutral>
0.000642606

> <r_epik_State_Penalty>
-0

> <r_epik_Charging_Adjusted_Penalty>
0.000121351

> <i_epik_Tot_Q>
0

> <i_epik_Tot_abs_Q>
0

> <r_epik_Metal_State_Penalty>
0.0930422

> <b_epik_Metal_Only>
0

> <s_lp_Force_Field>
OPLS_2005

> <r_lp_Energy>
38.5385

> <b_lp_Chiralities_Consistent>
1

> <s_lp_Variant>
AV-unprocessed.smi:540-1

> <Gold.Version>
5.8.1

> <Gold.Id.Protein>
6NUR|6NUR_protein|mol2

> <Gold.PLP.Fitness>
50.8626

> <Gold.PLP.PLP>
-48.2455

> <Gold.PLP.part.hbond>
-3.2692

> <Gold.PLP.part.metal>
0.0000

> <Gold.PLP.part.buried>
-3.9008

> <Gold.PLP.part.nonpolar>
-40.2047

> <Gold.PLP.part.repulsive>
0.5124

> <Gold.PLP.ligand.clash>
0.0000

> <Gold.PLP.ligand.torsion>
1.2335

> <Gold.PLP.Chemscore.Hbond>
1.5366

> <Gold.PLP.Chemscore.CHOScore>
0.0000

> <Gold.PLP.Chemscore.Metal>
0.0000

> <Gold.Chemscore.Hbonds>
donor molecule, donor type, donor heavy atom, donor atom, acceptor molecule, acceptor atom, score
      L1  H    20    25       P1  8028  1.00
      P1  H  8011  8017       L1    22  0.50

> <Gold.PLP.Chemscore.Internal.Correction>
0.4741

> <Gold.Rescore>
     Score         DG    S(hbond)    S(metal)    S(lipo)     H(rot)  DE(clash)    DE(int)     intcor
     15.52     -18.06       1.61        0.00      96.30       1.58       0.47       2.07       ----

> <Gold.Chemscore.Fitness>
15.5222

> <Gold.Chemscore.DG>
-18.0641

> <Gold.Chemscore.ZeroCoef>
-5.4800

> <Gold.Chemscore.Hbond>
1.6057

> <Gold.Chemscore.Metal>
0.0000

> <Gold.Chemscore.Lipo>
96.3023

> <Gold.Chemscore.Internal_Hbond>
0.0000

> <Gold.Chemscore.DEClash>
0.4726

> <Gold.Chemscore.DEInternal>
2.0694

> <Gold.Chemscore.Rot>
1.5806

> <Gold.Chemscore.Internal.Correction>
   9.000000E+99

> <Gold.Chemscore.Hbonds>
donor molecule, donor type, donor heavy atom, donor atom, acceptor molecule, acceptor atom, score
      L1  H    20    25       P1  8028  0.98
      P1  H  8011  8017       L1    22  0.49

> <Gold.Chemscore.Hbond.Weighted>
-5.3630

> <Gold.Chemscore.Metal.Weighted>
-0.0000

> <Gold.Chemscore.Lipo.Weighted>
-11.2674

> <Gold.Chemscore.Internal_Hbond.Weighted>
0.0000

> <Gold.Chemscore.DEClash.Weighted>
0.4726

> <Gold.Chemscore.DEInternal.Weighted>
2.0694

> <Gold.Chemscore.Rot.Weighted>
4.0463

> <Gold.Chemscore.Internal.Correction.Weighted>
   9.000000E+99

> <Gold.Protein.RotatedTorsions>
[ 6907 6896 6895 6894 ] final  -26.78 input  -60.11 | X-H torsion
[ 7974 7965 7964 7962 ] final   95.00 input  175.53 | X-H torsion
[ 8008 7997 7996 7995 ] final  -90.17 input   59.86 | X-H torsion
[ 10167 10162 10161 10158 ] final  -32.93 input  -65.29 | X-H torsion
[ 10718 10713 10712 10709 ] final  141.89 input   66.30 | X-H torsion
[ 10763 10752 10751 10750 ] final -100.33 input  -60.55 | X-H torsion
[ 11005 11000 10999 10996 ] final  -99.33 input  -57.11 | X-H torsion

> <Gold.Protein.ActiveResidues>
 VAL166  LYS551  ARG553  GLY616  TRP617  ASP618  TYR619  PRO620  LYS621  CYS622 
 ASP623  PHE694  ASN695  SER759  ASP760  ASP761  ALA762  ILE779  LEU786  VAL792 
 PHE793  MET794  SER795  GLU796  ALA797  LYS798  CYS799  TRP800  GLU811  SER814 

> <Gold.Protein.RotatedAtoms>
  151.1562  135.0251  159.8689 H   0  0  0  0  0  0  0  0  0  0  0  0  # atno 6907 bound_to 6896
  152.5452  134.1332  159.8458 H   0  0  0  0  0  0  0  0  0  0  0  0  # atno 6908 bound_to 6896
  151.1422  133.4917  159.2629 H   0  0  0  0  0  0  0  0  0  0  0  0  # atno 6909 bound_to 6896
  145.4580  139.2289  143.3003 H   0  0  0  0  0  0  0  0  0  0  0  0  # atno 7974 bound_to 7965
  154.6953  140.0533  157.0404 H   0  0  0  0  0  0  0  0  0  0  0  0  # atno 8008 bound_to 7997
  155.0759  140.3204  155.4597 H   0  0  0  0  0  0  0  0  0  0  0  0  # atno 8009 bound_to 7997
  156.2742  140.2073  156.5887 H   0  0  0  0  0  0  0  0  0  0  0  0  # atno 8010 bound_to 7997
  140.7213  143.3658  151.1874 H   0  0  0  0  0  0  0  0  0  0  0  0  # atno 10167 bound_to 10162
  157.3869  131.0999  151.0685 H   0  0  0  0  0  0  0  0  0  0  0  0  # atno 10718 bound_to 10713
  154.7570  135.4939  153.9394 H   0  0  0  0  0  0  0  0  0  0  0  0  # atno 10763 bound_to 10752
  153.1208  135.6731  153.9347 H   0  0  0  0  0  0  0  0  0  0  0  0  # atno 10764 bound_to 10752
  153.9080  135.3102  155.3427 H   0  0  0  0  0  0  0  0  0  0  0  0  # atno 10765 bound_to 10752
  141.1312  133.8313  157.0957 H   0  0  0  0  0  0  0  0  0  0  0  0  # atno 11005 bound_to 11000
  146.2467  140.5346  142.8911 LP  0  0  0  0  0  0  0  0  0  0  0  0  # atno 17320 bound_to 7965
  144.8020  140.6231  143.6472 LP  0  0  0  0  0  0  0  0  0  0  0  0  # atno 17321 bound_to 7965
  139.7219  143.9210  152.2988 LP  0  0  0  0  0  0  0  0  0  0  0  0  # atno 17342 bound_to 10162
  139.8969  144.6934  150.8707 LP  0  0  0  0  0  0  0  0  0  0  0  0  # atno 17343 bound_to 10162
  157.1733  130.6277  149.5647 LP  0  0  0  0  0  0  0  0  0  0  0  0  # atno 17370 bound_to 10713
  155.9789  130.4778  150.6681 LP  0  0  0  0  0  0  0  0  0  0  0  0  # atno 17371 bound_to 10713
  140.0364  134.9876  157.0879 LP  0  0  0  0  0  0  0  0  0  0  0  0  # atno 17394 bound_to 11000
  140.4203  134.1887  155.7164 LP  0  0  0  0  0  0  0  0  0  0  0  0  # atno 17395 bound_to 11000

$$$$
