AV-unprocessed.smi:2660|AV-procd|sdf|10315|dock3
  -GOLD-   2272014333D 1   1.00000     0.00000
 Structure written by MMmdl.
 36 37  0  0  0  0  0  0  0  0  1 V2000
  155.9155  133.3192  158.0664 N   0  0  0  0  0  0  0  0  0  0  0  0
  155.1343  134.4044  158.1325 C   0  0  0  0  0  0  0  0  0  0  0  0
  154.5319  134.7638  157.1210 O   0  0  0  0  0  0  0  0  0  0  0  0
  155.1002  135.0483  159.4649 C   0  0  0  0  0  0  0  0  0  0  0  0
  155.8997  134.6621  160.4848 C   0  0  0  0  0  0  0  0  0  0  0  0
  155.8177  135.3113  161.7643 C   0  0  0  0  0  0  0  0  0  0  0  0
  155.0075  136.3728  161.9330 C   0  0  0  0  0  0  0  0  0  0  0  0
  154.8158  136.9997  163.3199 C   0  0  0  0  0  0  0  0  0  0  0  0
  153.5352  136.9711  163.6914 F   0  0  0  0  0  0  0  0  0  0  0  0
  155.5017  136.3378  164.2499 F   0  0  0  0  0  0  0  0  0  0  0  0
  155.1850  138.2815  163.3263 F   0  0  0  0  0  0  0  0  0  0  0  0
  154.2291  136.8529  160.8336 N   0  0  0  0  0  0  0  0  0  0  0  0
  153.4976  138.1428  160.9301 C   0  0  0  0  0  0  0  0  0  0  0  0
  154.1370  139.2773  160.0868 C   0  0  1  0  0  0  0  0  0  0  0  0
  153.8720  139.0213  158.7218 O   0  0  0  0  0  0  0  0  0  0  0  0
  153.7015  140.6726  160.5209 C   0  0  0  0  0  0  0  0  0  0  0  0
  153.0387  141.5387  159.6224 C   0  0  0  0  0  0  0  0  0  0  0  0
  152.6297  142.8200  160.0399 C   0  0  0  0  0  0  0  0  0  0  0  0
  152.8820  143.2459  161.3576 C   0  0  0  0  0  0  0  0  0  0  0  0
  153.5451  142.3899  162.2574 C   0  0  0  0  0  0  0  0  0  0  0  0
  153.9551  141.1091  161.8397 C   0  0  0  0  0  0  0  0  0  0  0  0
  154.1511  136.1775  159.6372 C   0  0  0  0  0  0  0  0  0  0  0  0
  153.3456  136.5383  158.7738 O   0  0  0  0  0  0  0  0  0  0  0  0
  155.9958  132.8145  157.1954 H   0  0  0  0  0  0  0  0  0  0  0  0
  156.4184  133.0066  158.8837 H   0  0  0  0  0  0  0  0  0  0  0  0
  156.6112  133.8561  160.3841 H   0  0  0  0  0  0  0  0  0  0  0  0
  156.3861  134.9066  162.5882 H   0  0  0  0  0  0  0  0  0  0  0  0
  152.4636  137.9901  160.6142 H   0  0  0  0  0  0  0  0  0  0  0  0
  153.3978  138.5106  161.9450 H   0  0  0  0  0  0  0  0  0  0  0  0
  155.2225  139.2360  160.1764 H   0  0  0  0  0  0  0  0  0  0  0  0
  153.4509  138.1786  158.6507 H   0  0  0  0  0  0  0  0  0  0  0  0
  152.8302  141.2222  158.6110 H   0  0  0  0  0  0  0  0  0  0  0  0
  152.1199  143.4754  159.3492 H   0  0  0  0  0  0  0  0  0  0  0  0
  152.5678  144.2283  161.6776 H   0  0  0  0  0  0  0  0  0  0  0  0
  153.7389  142.7158  163.2686 H   0  0  0  0  0  0  0  0  0  0  0  0
  154.4610  140.4591  162.5386 H   0  0  0  0  0  0  0  0  0  0  0  0
  1  2  1  0  0  0  0
  1 24  1  0  0  0  0
  1 25  1  0  0  0  0
  2  3  2  0  0  0  0
  2  4  1  0  0  0  0
  4 22  1  0  0  0  0
  4  5  2  0  0  0  0
  5  6  1  0  0  0  0
  5 26  1  0  0  0  0
  6  7  2  0  0  0  0
  6 27  1  0  0  0  0
  7  8  1  0  0  0  0
  7 12  1  0  0  0  0
  8  9  1  0  0  0  0
  8 10  1  0  0  0  0
  8 11  1  0  0  0  0
 12 13  1  0  0  0  0
 12 22  1  0  0  0  0
 13 14  1  0  0  0  0
 13 28  1  0  0  0  0
 13 29  1  0  0  0  0
 14 15  1  0  0  0  0
 14 16  1  0  0  0  0
 14 30  1  0  0  0  0
 15 31  1  0  0  0  0
 16 21  1  0  0  0  0
 16 17  2  0  0  0  0
 17 18  1  0  0  0  0
 17 32  1  0  0  0  0
 18 19  2  0  0  0  0
 18 33  1  0  0  0  0
 19 20  1  0  0  0  0
 19 34  1  0  0  0  0
 20 21  2  0  0  0  0
 20 35  1  0  0  0  0
 21 36  1  0  0  0  0
 22 23  2  0  0  0  0
M  END
> <s_m_source_file>
AV-unprocessed.smi

> <i_m_source_file_index>
2660

> <i_lp_mmshare_version>
43012

> <i_f3d_flags>
0

> <s_epik_input>
W05IMl1DKD1PKWMxW2NIXVtjSF1jKEMoRikoRilGKW4oYzE9TylbQ0gyXVtDQEhdKFtPSF0pYzJbY0hdW2NIXVtjSF1bY0hdW2NIXTI=

> <s_epik_cmdline>
J2VwaWtfcHl0aG9uJywgJy1waCcsICc3LjAnLCAnLXRuJywgJzgnLCAnLW1hJywgJzIwMCcsICctbWV0YWxfYmluZGluZycsICctaW1hZScsICc8aW5maWxlLm1hZT4nLCAnLW9tYWUnLCAnPG91dGZpbGUubWFlPic=

> <r_lp_tautomer_probability>
1

> <r_epik_Ionization_Penalty>
1.58596e-06

> <r_epik_Ionization_Penalty_Charging>
5.13453e-09

> <r_epik_Ionization_Penalty_Neutral>
1.58083e-06

> <r_epik_State_Penalty>
-0

> <r_epik_Charging_Adjusted_Penalty>
5.13453e-09

> <i_epik_Tot_Q>
0

> <i_epik_Tot_abs_Q>
0

> <r_epik_Metal_State_Penalty>
-0

> <b_epik_Metal_Only>
0

> <s_lp_Force_Field>
OPLS_2005

> <r_lp_Energy>
32.13

> <b_lp_Chiralities_Consistent>
1

> <s_lp_Variant>
AV-unprocessed.smi:2660-2

> <Gold.Version>
5.8.1

> <Gold.Id.Protein>
6NUR|6NUR_protein|mol2

> <Gold.PLP.Fitness>
44.0823

> <Gold.PLP.PLP>
-40.4183

> <Gold.PLP.part.hbond>
-2.0724

> <Gold.PLP.part.metal>
0.0000

> <Gold.PLP.part.buried>
-4.5804

> <Gold.PLP.part.nonpolar>
-33.4319

> <Gold.PLP.part.repulsive>
0.0135

> <Gold.PLP.ligand.clash>
3.7063

> <Gold.PLP.ligand.torsion>
0.3385

> <Gold.PLP.Chemscore.Hbond>
2.0000

> <Gold.PLP.Chemscore.CHOScore>
0.0000

> <Gold.PLP.Chemscore.Metal>
0.0000

> <Gold.Chemscore.Hbonds>
donor molecule, donor type, donor heavy atom, donor atom, acceptor molecule, acceptor atom, score
      P1  H  7997  8009       L1    15  0.99
      P1  H 10752 10764       L1     3  1.00

> <Gold.PLP.Chemscore.Internal.Correction>
2.0474

> <Gold.Rescore>
     Score         DG    S(hbond)    S(metal)    S(lipo)     H(rot)  DE(clash)    DE(int)     intcor
     11.95     -18.08       1.99        0.00      99.29       2.21       0.09       6.05       ----

> <Gold.Chemscore.Fitness>
11.9500

> <Gold.Chemscore.DG>
-18.0816

> <Gold.Chemscore.ZeroCoef>
-5.4800

> <Gold.Chemscore.Hbond>
1.9875

> <Gold.Chemscore.Metal>
0.0000

> <Gold.Chemscore.Lipo>
99.2943

> <Gold.Chemscore.Internal_Hbond>
0.0000

> <Gold.Chemscore.DEClash>
0.0858

> <Gold.Chemscore.DEInternal>
6.0458

> <Gold.Chemscore.Rot>
2.2086

> <Gold.Chemscore.Internal.Correction>
   9.000000E+99

> <Gold.Chemscore.Hbonds>
donor molecule, donor type, donor heavy atom, donor atom, acceptor molecule, acceptor atom, score
      P1  H  7997  8009       L1    15  0.92
      P1  H 10752 10764       L1     3  0.99

> <Gold.Chemscore.Hbond.Weighted>
-6.6381

> <Gold.Chemscore.Metal.Weighted>
-0.0000

> <Gold.Chemscore.Lipo.Weighted>
-11.6174

> <Gold.Chemscore.Internal_Hbond.Weighted>
0.0000

> <Gold.Chemscore.DEClash.Weighted>
0.0858

> <Gold.Chemscore.DEInternal.Weighted>
6.0458

> <Gold.Chemscore.Rot.Weighted>
5.6540

> <Gold.Chemscore.Internal.Correction.Weighted>
   9.000000E+99

> <Gold.Protein.RotatedTorsions>
[ 6907 6896 6895 6894 ] final  -18.60 input  -60.11 | X-H torsion
[ 7974 7965 7964 7962 ] final  141.27 input  175.53 | X-H torsion
[ 8008 7997 7996 7995 ] final  138.94 input   59.86 | X-H torsion
[ 10167 10162 10161 10158 ] final   28.50 input  -65.29 | X-H torsion
[ 10718 10713 10712 10709 ] final   77.22 input   66.30 | X-H torsion
[ 10763 10752 10751 10750 ] final   32.03 input  -60.55 | X-H torsion
[ 11005 11000 10999 10996 ] final -171.20 input  -57.11 | X-H torsion

> <Gold.Protein.ActiveResidues>
 VAL166  LYS551  ARG553  GLY616  TRP617  ASP618  TYR619  PRO620  LYS621  CYS622 
 ASP623  PHE694  ASN695  SER759  ASP760  ASP761  ALA762  ILE779  LEU786  VAL792 
 PHE793  MET794  SER795  GLU796  ALA797  LYS798  CYS799  TRP800  GLU811  SER814 

> <Gold.Protein.RotatedAtoms>
  151.2757  135.0698  159.9150 H   0  0  0  0  0  0  0  0  0  0  0  0  # atno 6907 bound_to 6896
  152.5343  134.0083  159.7937 H   0  0  0  0  0  0  0  0  0  0  0  0  # atno 6908 bound_to 6896
  151.0329  133.5724  159.2690 H   0  0  0  0  0  0  0  0  0  0  0  0  # atno 6909 bound_to 6896
  144.9111  139.5292  143.5708 H   0  0  0  0  0  0  0  0  0  0  0  0  # atno 7974 bound_to 7965
  156.2994  140.2380  156.4157 H   0  0  0  0  0  0  0  0  0  0  0  0  # atno 8008 bound_to 7997
  154.8401  140.0429  157.1556 H   0  0  0  0  0  0  0  0  0  0  0  0  # atno 8009 bound_to 7997
  154.9112  140.2990  155.5269 H   0  0  0  0  0  0  0  0  0  0  0  0  # atno 8010 bound_to 7997
  140.4847  144.0561  150.6277 H   0  0  0  0  0  0  0  0  0  0  0  0  # atno 10167 bound_to 10162
  157.6702  130.9811  150.1610 H   0  0  0  0  0  0  0  0  0  0  0  0  # atno 10718 bound_to 10713
  153.0284  135.6424  154.1291 H   0  0  0  0  0  0  0  0  0  0  0  0  # atno 10763 bound_to 10752
  154.1017  135.2859  155.3252 H   0  0  0  0  0  0  0  0  0  0  0  0  # atno 10764 bound_to 10752
  154.6394  135.5465  153.7835 H   0  0  0  0  0  0  0  0  0  0  0  0  # atno 10765 bound_to 10752
  140.5109  134.5802  157.5018 H   0  0  0  0  0  0  0  0  0  0  0  0  # atno 11005 bound_to 11000
  146.3159  139.7918  142.8984 LP  0  0  0  0  0  0  0  0  0  0  0  0  # atno 17320 bound_to 7965
  145.3453  141.0296  143.3369 LP  0  0  0  0  0  0  0  0  0  0  0  0  # atno 17321 bound_to 7965
  140.3813  143.2801  152.0167 LP  0  0  0  0  0  0  0  0  0  0  0  0  # atno 17342 bound_to 10162
  139.4840  144.6152  151.7359 LP  0  0  0  0  0  0  0  0  0  0  0  0  # atno 17343 bound_to 10162
  156.2387  130.3689  149.8362 LP  0  0  0  0  0  0  0  0  0  0  0  0  # atno 17370 bound_to 10713
  156.6168  130.8610  151.3467 LP  0  0  0  0  0  0  0  0  0  0  0  0  # atno 17371 bound_to 10713
  139.9659  134.7373  156.0139 LP  0  0  0  0  0  0  0  0  0  0  0  0  # atno 17394 bound_to 11000
  141.1386  133.6569  156.3664 LP  0  0  0  0  0  0  0  0  0  0  0  0  # atno 17395 bound_to 11000

$$$$
