AV-unprocessed.smi:212|AV-procd|sdf|1623|dock5
  -GOLD-   2262019563D 1   1.00000     0.00000
 Structure written by MMmdl.
 65 68  0  0  0  0  0  0  0  0  2 V2000
  143.0219  136.9790  152.9906 C   0  0  0  0  0  0  0  0  0  0  0  0
  144.4788  137.3467  152.6618 C   0  0  2  0  0  0  0  0  0  0  0  0
  145.1246  136.3477  151.6786 C   0  0  0  0  0  0  0  0  0  0  0  0
  145.4119  135.0433  152.3326 N   0  3  1  0  0  0  0  0  0  0  0  0
  145.9159  134.0094  151.3907 C   0  0  0  0  0  0  0  0  0  0  0  0
  144.7841  133.3546  150.5640 C   0  0  0  0  0  0  0  0  0  0  0  0
  145.3406  132.1753  149.7484 C   0  0  0  0  0  0  0  0  0  0  0  0
  143.6110  132.8869  151.4458 C   0  0  0  0  0  0  0  0  0  0  0  0
  144.2893  134.2925  149.6288 O   0  0  0  0  0  0  0  0  0  0  0  0
  146.2619  135.1992  153.5396 C   0  0  0  0  0  0  0  0  0  0  0  0
  145.6357  136.1974  154.5310 C   0  0  0  0  0  0  0  0  0  0  0  0
  145.2950  137.4602  153.8735 N   0  0  0  0  0  0  0  0  0  0  0  0
  146.2053  138.4693  153.8847 C   0  0  0  0  0  0  0  0  0  0  0  0
  146.5901  139.0503  152.7169 N   0  0  0  0  0  0  0  0  0  0  0  0
  147.4755  140.0513  152.7190 C   0  0  0  0  0  0  0  0  0  0  0  0
  148.0924  140.6170  153.7580 N   0  0  0  0  0  0  0  0  0  0  0  0
  147.7175  140.0333  154.9316 C   0  0  0  0  0  0  0  0  0  0  0  0
  146.7899  138.9647  155.0846 C   0  0  0  0  0  0  0  0  0  0  0  0
  146.6714  138.6309  156.4291 N   0  0  0  0  0  0  0  0  0  0  0  0
  147.4774  139.4592  157.0361 C   0  0  0  0  0  0  0  0  0  0  0  0
  148.1403  140.3400  156.2118 N   0  0  0  0  0  0  0  0  0  0  0  0
  149.0885  141.3647  156.6110 C   0  0  0  0  0  0  0  0  0  0  0  0
  150.4404  140.7870  157.0990 C   0  0  1  0  0  0  0  0  0  0  0  0
  151.2163  140.0550  155.9770 C   0  0  0  0  0  0  0  0  0  0  0  0
  152.4086  139.4753  156.4661 O   0  0  0  0  0  0  0  0  0  0  0  0
  151.2983  141.8683  157.8030 C   0  0  2  0  0  0  0  0  0  0  0  0
  152.2958  141.3368  158.8172 C   0  0  0  0  0  0  0  0  0  0  0  0
  152.6135  142.5812  159.6384 C   0  0  0  0  0  0  0  0  0  0  0  0
  151.4161  143.3501  159.6478 O   0  0  0  0  0  0  0  0  0  0  0  0
  150.5027  142.8404  158.6810 C   0  0  0  0  0  0  0  0  0  0  0  0
  142.4128  136.9574  152.0865 H   0  0  0  0  0  0  0  0  0  0  0  0
  142.5794  137.7125  153.6654 H   0  0  0  0  0  0  0  0  0  0  0  0
  142.9408  135.9999  153.4630 H   0  0  0  0  0  0  0  0  0  0  0  0
  144.4443  138.3084  152.1502 H   0  0  0  0  0  0  0  0  0  0  0  0
  144.4756  136.2071  150.8145 H   0  0  0  0  0  0  0  0  0  0  0  0
  146.0593  136.7639  151.2990 H   0  0  0  0  0  0  0  0  0  0  0  0
  146.6781  134.4357  150.7356 H   0  0  0  0  0  0  0  0  0  0  0  0
  146.4246  133.2221  151.9498 H   0  0  0  0  0  0  0  0  0  0  0  0
  145.7372  131.3969  150.4010 H   0  0  0  0  0  0  0  0  0  0  0  0
  146.1483  132.4927  149.0877 H   0  0  0  0  0  0  0  0  0  0  0  0
  144.5688  131.7191  149.1272 H   0  0  0  0  0  0  0  0  0  0  0  0
  143.9454  132.1721  152.1988 H   0  0  0  0  0  0  0  0  0  0  0  0
  142.8387  132.3979  150.8508 H   0  0  0  0  0  0  0  0  0  0  0  0
  143.1370  133.7190  151.9679 H   0  0  0  0  0  0  0  0  0  0  0  0
  145.0223  134.6881  149.1817 H   0  0  0  0  0  0  0  0  0  0  0  0
  146.3859  134.2336  154.0313 H   0  0  0  0  0  0  0  0  0  0  0  0
  147.2559  135.5325  153.2383 H   0  0  0  0  0  0  0  0  0  0  0  0
  144.7239  135.7727  154.9513 H   0  0  0  0  0  0  0  0  0  0  0  0
  146.3009  136.3636  155.3795 H   0  0  0  0  0  0  0  0  0  0  0  0
  147.7256  140.4574  151.7500 H   0  0  0  0  0  0  0  0  0  0  0  0
  147.6074  139.4550  158.1089 H   0  0  0  0  0  0  0  0  0  0  0  0
  149.2468  142.0376  155.7672 H   0  0  0  0  0  0  0  0  0  0  0  0
  148.6186  141.9597  157.3944 H   0  0  0  0  0  0  0  0  0  0  0  0
  150.2066  140.0295  157.8485 H   0  0  0  0  0  0  0  0  0  0  0  0
  150.6048  139.2724  155.5286 H   0  0  0  0  0  0  0  0  0  0  0  0
  151.4663  140.7372  155.1647 H   0  0  0  0  0  0  0  0  0  0  0  0
  152.3402  138.5359  156.3886 H   0  0  0  0  0  0  0  0  0  0  0  0
  151.8431  142.4473  157.0555 H   0  0  0  0  0  0  0  0  0  0  0  0
  151.8312  140.5793  159.4501 H   0  0  0  0  0  0  0  0  0  0  0  0
  153.1861  140.9030  158.3608 H   0  0  0  0  0  0  0  0  0  0  0  0
  152.9437  142.3419  160.6496 H   0  0  0  0  0  0  0  0  0  0  0  0
  153.3973  143.1655  159.1547 H   0  0  0  0  0  0  0  0  0  0  0  0
  150.0532  143.6496  158.1048 H   0  0  0  0  0  0  0  0  0  0  0  0
  149.7031  142.3200  159.2101 H   0  0  0  0  0  0  0  0  0  0  0  0
  144.5245  134.6963  152.6677 H   0  0  0  0  0  0  0  0  0  0  0  0
  1  2  1  0  0  0  0
  1 31  1  0  0  0  0
  1 32  1  0  0  0  0
  1 33  1  0  0  0  0
  2 12  1  0  0  0  0
  2  3  1  0  0  0  0
  2 34  1  0  0  0  0
  3  4  1  0  0  0  0
  3 35  1  0  0  0  0
  3 36  1  0  0  0  0
  4  5  1  0  0  0  0
  4 10  1  0  0  0  0
  4 65  1  0  0  0  0
  5  6  1  0  0  0  0
  5 37  1  0  0  0  0
  5 38  1  0  0  0  0
  6  7  1  0  0  0  0
  6  8  1  0  0  0  0
  6  9  1  0  0  0  0
  7 39  1  0  0  0  0
  7 40  1  0  0  0  0
  7 41  1  0  0  0  0
  8 42  1  0  0  0  0
  8 43  1  0  0  0  0
  8 44  1  0  0  0  0
  9 45  1  0  0  0  0
 10 11  1  0  0  0  0
 10 46  1  0  0  0  0
 10 47  1  0  0  0  0
 11 12  1  0  0  0  0
 11 48  1  0  0  0  0
 11 49  1  0  0  0  0
 12 13  1  0  0  0  0
 13 18  1  0  0  0  0
 13 14  2  0  0  0  0
 14 15  1  0  0  0  0
 15 16  2  0  0  0  0
 15 50  1  0  0  0  0
 16 17  1  0  0  0  0
 17 21  1  0  0  0  0
 17 18  2  0  0  0  0
 18 19  1  0  0  0  0
 19 20  2  0  0  0  0
 20 21  1  0  0  0  0
 20 51  1  0  0  0  0
 21 22  1  0  0  0  0
 22 23  1  0  0  0  0
 22 52  1  0  0  0  0
 22 53  1  0  0  0  0
 23 24  1  0  0  0  0
 23 26  1  0  0  0  0
 23 54  1  0  0  0  0
 24 25  1  0  0  0  0
 24 55  1  0  0  0  0
 24 56  1  0  0  0  0
 25 57  1  0  0  0  0
 26 30  1  0  0  0  0
 26 27  1  0  0  0  0
 26 58  1  0  0  0  0
 27 28  1  0  0  0  0
 27 59  1  0  0  0  0
 27 60  1  0  0  0  0
 28 29  1  0  0  0  0
 28 61  1  0  0  0  0
 28 62  1  0  0  0  0
 29 30  1  0  0  0  0
 30 63  1  0  0  0  0
 30 64  1  0  0  0  0
M  CHG  1   4   1
M  END
> <s_m_source_file>
AV-unprocessed.smi

> <i_m_source_file_index>
212

> <i_lp_mmshare_version>
43012

> <i_f3d_flags>
0

> <s_epik_input>
W0NIM11bQ0BASF0xW0NIMl1OKFtDSDJdQyhbQ0gzXSkoW0NIM10pW09IXSlbQ0gyXVtDSDJdTjFjKG5bY0hdbjIpYyhjMjMpbltjSF1uM1tDSDJdW0NASF0oW0NIMl1bT0hdKVtDQEBIXTRbQ0gyXVtDSDJdT1tDSDJdNA==

> <s_epik_cmdline>
J2VwaWtfcHl0aG9uJywgJy1waCcsICc3LjAnLCAnLXRuJywgJzgnLCAnLW1hJywgJzIwMCcsICctbWV0YWxfYmluZGluZycsICctaW1hZScsICc8aW5maWxlLm1hZT4nLCAnLW9tYWUnLCAnPG91dGZpbGUubWFlPic=

> <r_lp_tautomer_probability>
1

> <r_epik_Ionization_Penalty>
0.00182193

> <r_epik_Ionization_Penalty_Charging>
0.00173996

> <r_epik_Ionization_Penalty_Neutral>
8.19718e-05

> <r_epik_State_Penalty>
-0

> <r_epik_Charging_Adjusted_Penalty>
0.00173996

> <i_epik_Tot_Q>
1

> <i_epik_Tot_abs_Q>
1

> <r_epik_Metal_State_Penalty>
-0

> <b_epik_Metal_Only>
0

> <s_lp_Force_Field>
OPLS_2005

> <r_lp_Energy>
57.8669

> <b_lp_Chiralities_Consistent>
1

> <s_lp_Variant>
AV-unprocessed.smi:212-7

> <Gold.Version>
5.8.1

> <Gold.Id.Protein>
6NUR|6NUR_protein|mol2

> <Gold.PLP.Fitness>
47.1639

> <Gold.PLP.PLP>
-41.0231

> <Gold.PLP.part.hbond>
-2.1779

> <Gold.PLP.part.metal>
0.0000

> <Gold.PLP.part.buried>
-5.7319

> <Gold.PLP.part.nonpolar>
-33.6271

> <Gold.PLP.part.repulsive>
0.6443

> <Gold.PLP.ligand.clash>
0.0000

> <Gold.PLP.ligand.torsion>
1.4319

> <Gold.PLP.Chemscore.Hbond>
2.0000

> <Gold.PLP.Chemscore.CHOScore>
0.5843

> <Gold.PLP.Chemscore.Metal>
0.0000

> <Gold.Chemscore.Hbonds>
donor molecule, donor type, donor heavy atom, donor atom, acceptor molecule, acceptor atom, score
      L1  H     9    45       P1  7921  0.99
      P1  H  7997  8008       L1    25  1.00
      L1  C    15    50       P1  7957  0.62

> <Gold.PLP.Chemscore.Internal.Correction>
1.2518

> <Gold.Rescore>
     Score         DG    S(hbond)    S(metal)    S(lipo)     H(rot)  DE(clash)    DE(int)     intcor
     12.03     -15.28       1.99        0.00     101.32       3.40       1.43       1.82       ----

> <Gold.Chemscore.Fitness>
12.0302

> <Gold.Chemscore.DG>
-15.2771

> <Gold.Chemscore.ZeroCoef>
-5.4800

> <Gold.Chemscore.Hbond>
1.9891

> <Gold.Chemscore.Metal>
0.0000

> <Gold.Chemscore.Lipo>
101.3166

> <Gold.Chemscore.Internal_Hbond>
0.0000

> <Gold.Chemscore.DEClash>
1.4291

> <Gold.Chemscore.DEInternal>
1.8178

> <Gold.Chemscore.Rot>
3.3986

> <Gold.Chemscore.Internal.Correction>
   9.000000E+99

> <Gold.Chemscore.Hbonds>
donor molecule, donor type, donor heavy atom, donor atom, acceptor molecule, acceptor atom, score
      L1  H     9    45       P1  7921  0.94
      P1  H  7997  8008       L1    25  0.77

> <Gold.Chemscore.Hbond.Weighted>
-6.6436

> <Gold.Chemscore.Metal.Weighted>
-0.0000

> <Gold.Chemscore.Lipo.Weighted>
-11.8540

> <Gold.Chemscore.Internal_Hbond.Weighted>
0.0000

> <Gold.Chemscore.DEClash.Weighted>
1.4291

> <Gold.Chemscore.DEInternal.Weighted>
1.8178

> <Gold.Chemscore.Rot.Weighted>
8.7005

> <Gold.Chemscore.Internal.Correction.Weighted>
   9.000000E+99

> <Gold.Protein.RotatedTorsions>
[ 6907 6896 6895 6894 ] final  161.39 input  -60.11 | X-H torsion
[ 7974 7965 7964 7962 ] final   74.24 input  175.53 | X-H torsion
[ 8008 7997 7996 7995 ] final  -47.31 input   59.86 | X-H torsion
[ 10167 10162 10161 10158 ] final -169.36 input  -65.29 | X-H torsion
[ 10718 10713 10712 10709 ] final -119.58 input   66.30 | X-H torsion
[ 10763 10752 10751 10750 ] final  -17.84 input  -60.55 | X-H torsion
[ 11005 11000 10999 10996 ] final  129.08 input  -57.11 | X-H torsion

> <Gold.Protein.ActiveResidues>
 VAL166  LYS551  ARG553  GLY616  TRP617  ASP618  TYR619  PRO620  LYS621  CYS622 
 ASP623  PHE694  ASN695  SER759  ASP760  ASP761  ALA762  ILE779  LEU786  VAL792 
 PHE793  MET794  SER795  GLU796  ALA797  LYS798  CYS799  TRP800  GLU811  SER814 

> <Gold.Protein.RotatedAtoms>
  151.9563  133.3681  159.4018 H   0  0  0  0  0  0  0  0  0  0  0  0  # atno 6907 bound_to 6896
  150.6972  134.4287  159.5247 H   0  0  0  0  0  0  0  0  0  0  0  0  # atno 6908 bound_to 6896
  152.1968  134.8623  160.0563 H   0  0  0  0  0  0  0  0  0  0  0  0  # atno 6909 bound_to 6896
  145.7308  139.2683  143.1542 H   0  0  0  0  0  0  0  0  0  0  0  0  # atno 7974 bound_to 7965
  154.4015  140.1350  156.4154 H   0  0  0  0  0  0  0  0  0  0  0  0  # atno 8008 bound_to 7997
  155.7694  140.3484  155.5219 H   0  0  0  0  0  0  0  0  0  0  0  0  # atno 8009 bound_to 7997
  155.8782  140.0983  157.1494 H   0  0  0  0  0  0  0  0  0  0  0  0  # atno 8010 bound_to 7997
  139.5927  144.1177  152.1654 H   0  0  0  0  0  0  0  0  0  0  0  0  # atno 10167 bound_to 10162
  156.1192  130.6310  150.9434 H   0  0  0  0  0  0  0  0  0  0  0  0  # atno 10718 bound_to 10713
  153.5801  135.7005  153.5467 H   0  0  0  0  0  0  0  0  0  0  0  0  # atno 10763 bound_to 10752
  153.3269  135.4058  155.1463 H   0  0  0  0  0  0  0  0  0  0  0  0  # atno 10764 bound_to 10752
  154.8619  135.3709  154.5328 H   0  0  0  0  0  0  0  0  0  0  0  0  # atno 10765 bound_to 10752
  139.9595  134.9605  156.9095 H   0  0  0  0  0  0  0  0  0  0  0  0  # atno 11005 bound_to 11000
  146.0539  140.8040  142.9768 LP  0  0  0  0  0  0  0  0  0  0  0  0  # atno 17320 bound_to 7965
  144.6893  140.3095  143.7250 LP  0  0  0  0  0  0  0  0  0  0  0  0  # atno 17321 bound_to 7965
  140.0756  144.5743  150.7160 LP  0  0  0  0  0  0  0  0  0  0  0  0  # atno 17342 bound_to 10162
  140.7187  143.2568  151.4351 LP  0  0  0  0  0  0  0  0  0  0  0  0  # atno 17343 bound_to 10162
  157.6376  131.0914  150.8318 LP  0  0  0  0  0  0  0  0  0  0  0  0  # atno 17370 bound_to 10713
  156.8417  130.5050  149.5320 LP  0  0  0  0  0  0  0  0  0  0  0  0  # atno 17371 bound_to 10713
  140.5532  134.0607  155.7375 LP  0  0  0  0  0  0  0  0  0  0  0  0  # atno 17394 bound_to 11000
  141.1271  133.9365  157.2613 LP  0  0  0  0  0  0  0  0  0  0  0  0  # atno 17395 bound_to 11000

$$$$
