AV-unprocessed.smi:315|AV-procd|sdf|2316|dock3
  -GOLD-   2262022223D 1   1.00000     0.00000
 Structure written by MMmdl.
 47 49  0  0  0  0  0  0  0  0  2 V2000
  151.7900  137.6525  155.7890 C   0  0  0  0  0  0  0  0  0  0  0  0
  151.5288  138.3719  154.4634 C   0  0  0  0  0  0  0  0  0  0  0  0
  150.1472  138.2430  154.1460 O   0  0  0  0  0  0  0  0  0  0  0  0
  149.3471  139.3693  154.1826 C   0  0  0  0  0  0  0  0  0  0  0  0
  149.9027  140.5471  154.5613 N   0  0  0  0  0  0  0  0  0  0  0  0
  149.1177  141.6438  154.5971 C   0  0  0  0  0  0  0  0  0  0  0  0
  147.7498  141.6235  154.2672 C   0  0  0  0  0  0  0  0  0  0  0  0
  147.1714  140.4020  153.8747 C   0  0  0  0  0  0  0  0  0  0  0  0
  147.9862  139.2455  153.8194 C   0  0  0  0  0  0  0  0  0  0  0  0
  147.5179  137.9551  153.4523 N   0  0  0  0  0  0  0  0  0  0  0  0
  146.2809  137.5643  153.0915 C   0  0  0  0  0  0  0  0  0  0  0  0
  145.2855  138.2842  153.0930 O   0  0  0  0  0  0  0  0  0  0  0  0
  146.2102  136.2788  152.7016 N   0  0  0  0  0  0  0  0  0  0  0  0
  145.0277  135.5419  152.2505 C   0  0  2  0  0  0  0  0  0  0  0  0
  143.7009  136.0511  152.8410 C   0  0  0  0  0  0  0  0  0  0  0  0
  142.8652  134.7874  153.1251 C   0  0  0  0  0  0  0  0  0  0  0  0
  143.6517  133.6360  152.6265 N   0  3  1  0  0  0  0  0  0  0  0  0
  143.2136  133.2045  151.2705 C   0  0  0  0  0  0  0  0  0  0  0  0
  144.1690  132.1738  150.6556 C   0  0  0  0  0  0  0  0  0  0  0  0
  145.5852  132.7490  150.5757 C   0  0  0  0  0  0  0  0  0  0  0  0
  146.0555  133.1485  151.9786 C   0  0  0  0  0  0  0  0  0  0  0  0
  145.0640  134.0812  152.7105 C   0  0  1  0  0  0  0  0  0  0  0  0
  152.8412  137.7225  156.0693 H   0  0  0  0  0  0  0  0  0  0  0  0
  151.5320  136.5956  155.7180 H   0  0  0  0  0  0  0  0  0  0  0  0
  151.1987  138.0890  156.5942 H   0  0  0  0  0  0  0  0  0  0  0  0
  151.8016  139.4243  154.5562 H   0  0  0  0  0  0  0  0  0  0  0  0
  152.1447  137.9290  153.6792 H   0  0  0  0  0  0  0  0  0  0  0  0
  149.5931  142.5636  154.9033 H   0  0  0  0  0  0  0  0  0  0  0  0
  147.1565  142.5245  154.3182 H   0  0  0  0  0  0  0  0  0  0  0  0
  146.1193  140.3779  153.6388 H   0  0  0  0  0  0  0  0  0  0  0  0
  148.2396  137.2562  153.3563 H   0  0  0  0  0  0  0  0  0  0  0  0
  147.0757  135.7583  152.7167 H   0  0  0  0  0  0  0  0  0  0  0  0
  144.9728  135.5711  151.1609 H   0  0  0  0  0  0  0  0  0  0  0  0
  143.8612  136.6043  153.7677 H   0  0  0  0  0  0  0  0  0  0  0  0
  143.1940  136.7203  152.1448 H   0  0  0  0  0  0  0  0  0  0  0  0
  142.7329  134.6709  154.2013 H   0  0  0  0  0  0  0  0  0  0  0  0
  141.8694  134.8378  152.6818 H   0  0  0  0  0  0  0  0  0  0  0  0
  142.2101  132.7829  151.3396 H   0  0  0  0  0  0  0  0  0  0  0  0
  143.1417  134.0700  150.6096 H   0  0  0  0  0  0  0  0  0  0  0  0
  144.1681  131.2606  151.2522 H   0  0  0  0  0  0  0  0  0  0  0  0
  143.8241  131.8953  149.6593 H   0  0  0  0  0  0  0  0  0  0  0  0
  146.2668  132.0135  150.1478 H   0  0  0  0  0  0  0  0  0  0  0  0
  145.6025  133.6130  149.9106 H   0  0  0  0  0  0  0  0  0  0  0  0
  146.1819  132.2413  152.5710 H   0  0  0  0  0  0  0  0  0  0  0  0
  147.0415  133.6112  151.9267 H   0  0  0  0  0  0  0  0  0  0  0  0
  145.3286  134.0731  153.7701 H   0  0  0  0  0  0  0  0  0  0  0  0
  143.5231  132.8490  153.2464 H   0  0  0  0  0  0  0  0  0  0  0  0
  1  2  1  0  0  0  0
  1 23  1  0  0  0  0
  1 24  1  0  0  0  0
  1 25  1  0  0  0  0
  2  3  1  0  0  0  0
  2 26  1  0  0  0  0
  2 27  1  0  0  0  0
  3  4  1  0  0  0  0
  4  9  1  0  0  0  0
  4  5  2  0  0  0  0
  5  6  1  0  0  0  0
  6  7  2  0  0  0  0
  6 28  1  0  0  0  0
  7  8  1  0  0  0  0
  7 29  1  0  0  0  0
  8  9  2  0  0  0  0
  8 30  1  0  0  0  0
  9 10  1  0  0  0  0
 10 11  1  0  0  0  0
 10 31  1  0  0  0  0
 11 12  2  0  0  0  0
 11 13  1  0  0  0  0
 13 14  1  0  0  0  0
 13 32  1  0  0  0  0
 14 22  1  0  0  0  0
 14 15  1  0  0  0  0
 14 33  1  0  0  0  0
 15 16  1  0  0  0  0
 15 34  1  0  0  0  0
 15 35  1  0  0  0  0
 16 17  1  0  0  0  0
 16 36  1  0  0  0  0
 16 37  1  0  0  0  0
 17 22  1  0  0  0  0
 17 18  1  0  0  0  0
 17 47  1  0  0  0  0
 18 19  1  0  0  0  0
 18 38  1  0  0  0  0
 18 39  1  0  0  0  0
 19 20  1  0  0  0  0
 19 40  1  0  0  0  0
 19 41  1  0  0  0  0
 20 21  1  0  0  0  0
 20 42  1  0  0  0  0
 20 43  1  0  0  0  0
 21 22  1  0  0  0  0
 21 44  1  0  0  0  0
 21 45  1  0  0  0  0
 22 46  1  0  0  0  0
M  CHG  1  17   1
M  END
> <s_m_source_file>
AV-unprocessed.smi

> <i_m_source_file_index>
315

> <i_lp_mmshare_version>
43012

> <i_f3d_flags>
0

> <s_epik_input>
W0NIM11bQ0gyXU9jMW5bY0hdW2NIXVtjSF1jMVtOSF1DKD1PKVtOSF1bQ0BIXShbQ0gyXVtDSDJdMilbQ0BASF0oTjIzKVtDSDJdW0NIMl1bQ0gyXVtDSDJdMw==

> <s_epik_cmdline>
J2VwaWtfcHl0aG9uJywgJy1waCcsICc3LjAnLCAnLXRuJywgJzgnLCAnLW1hJywgJzIwMCcsICctbWV0YWxfYmluZGluZycsICctaW1hZScsICc8aW5maWxlLm1hZT4nLCAnLW9tYWUnLCAnPG91dGZpbGUubWFlPic=

> <r_lp_tautomer_probability>
1

> <r_epik_Ionization_Penalty>
0.00106455

> <r_epik_Ionization_Penalty_Charging>
0.000974069

> <r_epik_Ionization_Penalty_Neutral>
9.04821e-05

> <r_epik_State_Penalty>
0.000633842

> <r_epik_Charging_Adjusted_Penalty>
0.00160791

> <i_epik_Tot_Q>
1

> <i_epik_Tot_abs_Q>
1

> <r_epik_Metal_State_Penalty>
-0

> <b_epik_Metal_Only>
0

> <s_lp_Force_Field>
OPLS_2005

> <r_lp_Energy>
51.3526

> <b_lp_Chiralities_Consistent>
1

> <s_lp_Variant>
AV-unprocessed.smi:315-1

> <Gold.Version>
5.8.1

> <Gold.Id.Protein>
6NUR|6NUR_protein|mol2

> <Gold.PLP.Fitness>
49.3498

> <Gold.PLP.PLP>
-35.6647

> <Gold.PLP.part.hbond>
-4.0000

> <Gold.PLP.part.metal>
0.0000

> <Gold.PLP.part.buried>
-3.4600

> <Gold.PLP.part.nonpolar>
-30.4433

> <Gold.PLP.part.repulsive>
2.7840

> <Gold.PLP.ligand.clash>
0.0067

> <Gold.PLP.ligand.torsion>
0.7204

> <Gold.PLP.Chemscore.Hbond>
4.0399

> <Gold.PLP.Chemscore.CHOScore>
1.0000

> <Gold.PLP.Chemscore.Metal>
0.0000

> <Gold.Chemscore.Hbonds>
donor molecule, donor type, donor heavy atom, donor atom, acceptor molecule, acceptor atom, score
      L1  H    10    31       P1  7948  0.69
      L1  H    13    32       P1  7948  0.48
      L1  H    17    47       P1 10957  1.89
      P1  H  7989  7998       L1     5  0.80
      L1  C     6    28       P1  8028  1.00

> <Gold.PLP.Chemscore.Internal.Correction>
0.0130

> <Gold.Rescore>
     Score         DG    S(hbond)    S(metal)    S(lipo)     H(rot)  DE(clash)    DE(int)     intcor
     16.41     -21.24       2.82        0.00      84.35       1.38       1.59       3.24       ----

> <Gold.Chemscore.Fitness>
16.4069

> <Gold.Chemscore.DG>
-21.2400

> <Gold.Chemscore.ZeroCoef>
-5.4800

> <Gold.Chemscore.Hbond>
2.8193

> <Gold.Chemscore.Metal>
0.0000

> <Gold.Chemscore.Lipo>
84.3481

> <Gold.Chemscore.Internal_Hbond>
0.0000

> <Gold.Chemscore.DEClash>
1.5908

> <Gold.Chemscore.DEInternal>
3.2423

> <Gold.Chemscore.Rot>
1.3770

> <Gold.Chemscore.Internal.Correction>
   9.000000E+99

> <Gold.Chemscore.Hbonds>
donor molecule, donor type, donor heavy atom, donor atom, acceptor molecule, acceptor atom, score
      L1  H    10    31       P1  7948  0.67
      L1  H    13    32       P1  7948  0.48
      L1  H    17    47       P1 10957  0.49
      P1  H  7989  7998       L1     5  0.44

> <Gold.Chemscore.Hbond.Weighted>
-9.4165

> <Gold.Chemscore.Metal.Weighted>
-0.0000

> <Gold.Chemscore.Lipo.Weighted>
-9.8687

> <Gold.Chemscore.Internal_Hbond.Weighted>
0.0000

> <Gold.Chemscore.DEClash.Weighted>
1.5908

> <Gold.Chemscore.DEInternal.Weighted>
3.2423

> <Gold.Chemscore.Rot.Weighted>
3.5252

> <Gold.Chemscore.Internal.Correction.Weighted>
   9.000000E+99

> <Gold.Protein.RotatedTorsions>
[ 6907 6896 6895 6894 ] final -136.59 input  -60.11 | X-H torsion
[ 7974 7965 7964 7962 ] final -153.51 input  175.53 | X-H torsion
[ 8008 7997 7996 7995 ] final  -78.01 input   59.86 | X-H torsion
[ 10167 10162 10161 10158 ] final  -73.70 input  -65.29 | X-H torsion
[ 10718 10713 10712 10709 ] final  -97.06 input   66.30 | X-H torsion
[ 10763 10752 10751 10750 ] final   31.02 input  -60.55 | X-H torsion
[ 11005 11000 10999 10996 ] final -166.37 input  -57.11 | X-H torsion

> <Gold.Protein.ActiveResidues>
 VAL166  LYS551  ARG553  GLY616  TRP617  ASP618  TYR619  PRO620  LYS621  CYS622 
 ASP623  PHE694  ASN695  SER759  ASP760  ASP761  ALA762  ILE779  LEU786  VAL792 
 PHE793  MET794  SER795  GLU796  ALA797  LYS798  CYS799  TRP800  GLU811  SER814 

> <Gold.Protein.RotatedAtoms>
  151.0119  133.5957  159.2681 H   0  0  0  0  0  0  0  0  0  0  0  0  # atno 6907 bound_to 6896
  151.3105  135.0792  159.9280 H   0  0  0  0  0  0  0  0  0  0  0  0  # atno 6908 bound_to 6896
  152.5302  133.9785  159.7849 H   0  0  0  0  0  0  0  0  0  0  0  0  # atno 6909 bound_to 6896
  144.7737  140.4515  143.5889 H   0  0  0  0  0  0  0  0  0  0  0  0  # atno 7974 bound_to 7965
  154.5649  140.0701  156.8877 H   0  0  0  0  0  0  0  0  0  0  0  0  # atno 8008 bound_to 7997
  155.2741  140.3367  155.4245 H   0  0  0  0  0  0  0  0  0  0  0  0  # atno 8009 bound_to 7997
  156.2073  140.1745  156.7758 H   0  0  0  0  0  0  0  0  0  0  0  0  # atno 8010 bound_to 7997
  140.5089  143.2348  151.7627 H   0  0  0  0  0  0  0  0  0  0  0  0  # atno 10167 bound_to 10162
  156.0075  130.5178  150.6318 H   0  0  0  0  0  0  0  0  0  0  0  0  # atno 10718 bound_to 10713
  153.0338  135.6449  154.1135 H   0  0  0  0  0  0  0  0  0  0  0  0  # atno 10763 bound_to 10752
  154.0853  135.2870  155.3284 H   0  0  0  0  0  0  0  0  0  0  0  0  # atno 10764 bound_to 10752
  154.6502  135.5429  153.7956 H   0  0  0  0  0  0  0  0  0  0  0  0  # atno 10765 bound_to 10752
  140.5653  134.5292  157.5151 H   0  0  0  0  0  0  0  0  0  0  0  0  # atno 11005 bound_to 11000
  145.6249  139.1529  143.3001 LP  0  0  0  0  0  0  0  0  0  0  0  0  # atno 17320 bound_to 7965
  146.1901  140.6357  142.9149 LP  0  0  0  0  0  0  0  0  0  0  0  0  # atno 17321 bound_to 7965
  139.4891  144.4419  151.9755 LP  0  0  0  0  0  0  0  0  0  0  0  0  # atno 17342 bound_to 10162
  140.3510  144.3089  150.5949 LP  0  0  0  0  0  0  0  0  0  0  0  0  # atno 17343 bound_to 10162
  157.4115  131.0824  151.1217 LP  0  0  0  0  0  0  0  0  0  0  0  0  # atno 17370 bound_to 10713
  157.1847  130.6325  149.5684 LP  0  0  0  0  0  0  0  0  0  0  0  0  # atno 17371 bound_to 10713
  139.9388  134.7825  156.0732 LP  0  0  0  0  0  0  0  0  0  0  0  0  # atno 17394 bound_to 11000
  141.1090  133.6650  156.2932 LP  0  0  0  0  0  0  0  0  0  0  0  0  # atno 17395 bound_to 11000

$$$$
