AV-unprocessed.smi:102|AV-procd|sdf|967|dock4
  -GOLD-   2262017513D 1   1.00000     0.00000
 Structure written by MMmdl.
 43 44  0  0  0  0  0  0  0  0  2 V2000
  146.6925  142.1860  154.0810 C   0  0  0  0  0  0  0  0  0  0  0  0
  147.0224  142.1157  155.5662 C   0  0  0  0  0  0  0  0  0  0  0  0
  146.1710  142.3419  156.4265 O   0  0  0  0  0  0  0  0  0  0  0  0
  148.3032  141.7927  155.7891 O   0  0  0  0  0  0  0  0  0  0  0  0
  148.9624  142.2726  156.9501 C   0  0  0  0  0  0  0  0  0  0  0  0
  150.4430  141.8693  156.9214 C   0  0  2  0  0  0  0  0  0  0  0  0
  150.6341  140.7057  156.1317 O   0  0  0  0  0  0  0  0  0  0  0  0
  151.7789  140.0322  156.5615 C   0  0  2  0  0  0  0  0  0  0  0  0
  151.4364  138.5618  156.6855 N   0  0  0  0  0  0  0  0  0  0  0  0
  150.4469  138.1540  157.5636 C   0  0  0  0  0  0  0  0  0  0  0  0
  150.1319  136.8512  157.7070 C   0  0  0  0  0  0  0  0  0  0  0  0
  149.1686  136.4869  158.5708 F   0  0  0  0  0  0  0  0  0  0  0  0
  150.8469  135.8452  156.9239 C   0  0  0  0  0  0  0  0  0  0  0  0
  150.5492  134.6587  157.0510 O   0  0  0  0  0  0  0  0  0  0  0  0
  151.8282  136.2743  156.0778 N   0  5  0  0  0  0  0  0  0  0  0  0
  152.1576  137.5919  155.9367 C   0  0  0  0  0  0  0  0  0  0  0  0
  153.0625  137.9816  155.1987 O   0  0  0  0  0  0  0  0  0  0  0  0
  152.2352  140.6489  157.9039 C   0  0  2  0  0  0  0  0  0  0  0  0
  152.4694  139.6611  158.9034 O   0  0  0  0  0  0  0  0  0  0  0  0
  153.4592  138.7667  158.7594 C   0  0  0  0  0  0  0  0  0  0  0  0
  153.5484  137.8104  159.9409 C   0  0  0  0  0  0  0  0  0  0  0  0
  154.2357  138.6884  157.8071 O   0  0  0  0  0  0  0  0  0  0  0  0
  151.0573  141.5336  158.2818 C   0  0  1  0  0  0  0  0  0  0  0  0
  151.5266  142.7016  158.9420 O   0  0  0  0  0  0  0  0  0  0  0  0
  150.6814  143.7090  159.2175 C   0  0  0  0  0  0  0  0  0  0  0  0
  151.3757  145.0642  159.2176 C   0  0  0  0  0  0  0  0  0  0  0  0
  149.4763  143.6046  159.4463 O   0  0  0  0  0  0  0  0  0  0  0  0
  147.2468  141.4269  153.5284 H   0  0  0  0  0  0  0  0  0  0  0  0
  146.9569  143.1657  153.6829 H   0  0  0  0  0  0  0  0  0  0  0  0
  145.6272  142.0214  153.9186 H   0  0  0  0  0  0  0  0  0  0  0  0
  148.8660  143.3573  157.0086 H   0  0  0  0  0  0  0  0  0  0  0  0
  148.4894  141.8549  157.8399 H   0  0  0  0  0  0  0  0  0  0  0  0
  151.0235  142.6652  156.4517 H   0  0  0  0  0  0  0  0  0  0  0  0
  152.5338  140.1217  155.7800 H   0  0  0  0  0  0  0  0  0  0  0  0
  149.9194  138.8872  158.1544 H   0  0  0  0  0  0  0  0  0  0  0  0
  153.1245  141.2474  157.6993 H   0  0  0  0  0  0  0  0  0  0  0  0
  153.8792  138.3427  160.8327 H   0  0  0  0  0  0  0  0  0  0  0  0
  154.2569  137.0083  159.7329 H   0  0  0  0  0  0  0  0  0  0  0  0
  152.5733  137.3665  160.1434 H   0  0  0  0  0  0  0  0  0  0  0  0
  150.3601  140.9550  158.8900 H   0  0  0  0  0  0  0  0  0  0  0  0
  151.5705  145.3885  158.1952 H   0  0  0  0  0  0  0  0  0  0  0  0
  152.3250  145.0061  159.7506 H   0  0  0  0  0  0  0  0  0  0  0  0
  150.7516  145.8135  159.7053 H   0  0  0  0  0  0  0  0  0  0  0  0
  1  2  1  0  0  0  0
  1 28  1  0  0  0  0
  1 29  1  0  0  0  0
  1 30  1  0  0  0  0
  2  3  2  0  0  0  0
  2  4  1  0  0  0  0
  4  5  1  0  0  0  0
  5  6  1  0  0  0  0
  5 31  1  0  0  0  0
  5 32  1  0  0  0  0
  6 23  1  0  0  0  0
  6  7  1  0  0  0  0
  6 33  1  0  0  0  0
  7  8  1  0  0  0  0
  8  9  1  0  0  0  0
  8 18  1  0  0  0  0
  8 34  1  0  0  0  0
  9 16  1  0  0  0  0
  9 10  1  0  0  0  0
 10 11  2  0  0  0  0
 10 35  1  0  0  0  0
 11 12  1  0  0  0  0
 11 13  1  0  0  0  0
 13 14  2  0  0  0  0
 13 15  1  0  0  0  0
 15 16  1  0  0  0  0
 16 17  2  0  0  0  0
 18 19  1  0  0  0  0
 18 23  1  0  0  0  0
 18 36  1  0  0  0  0
 19 20  1  0  0  0  0
 20 21  1  0  0  0  0
 20 22  2  0  0  0  0
 21 37  1  0  0  0  0
 21 38  1  0  0  0  0
 21 39  1  0  0  0  0
 23 24  1  0  0  0  0
 23 40  1  0  0  0  0
 24 25  1  0  0  0  0
 25 26  1  0  0  0  0
 25 27  2  0  0  0  0
 26 41  1  0  0  0  0
 26 42  1  0  0  0  0
 26 43  1  0  0  0  0
M  CHG  1  15  -1
M  END
> <s_m_source_file>
AV-unprocessed.smi

> <i_m_source_file_index>
102

> <i_lp_mmshare_version>
43012

> <i_f3d_flags>
0

> <s_epik_input>
W0NIM11DKD1PKU9bQ0gyXVtDQEBIXTFPW0NASF0oW0NAQEhdKE9DKD1PKVtDSDNdKVtDQEhdMU9DKD1PKVtDSDNdKW4yW2NIXWMoRiljKD1PKVtuSF1jMj1P

> <s_epik_cmdline>
J2VwaWtfcHl0aG9uJywgJy1waCcsICc3LjAnLCAnLXRuJywgJzgnLCAnLW1hJywgJzIwMCcsICctbWV0YWxfYmluZGluZycsICctaW1hZScsICc8aW5maWxlLm1hZT4nLCAnLW9tYWUnLCAnPG91dGZpbGUubWFlPic=

> <r_epik_Ionization_Penalty>
1.40304

> <r_epik_Ionization_Penalty_Charging>
1.43915e-08

> <r_epik_Ionization_Penalty_Neutral>
1.40304

> <r_epik_State_Penalty>
1.48536

> <r_epik_Charging_Adjusted_Penalty>
1.48536

> <i_epik_Tot_Q>
-1

> <i_epik_Tot_abs_Q>
1

> <r_epik_Metal_State_Penalty>
0.00663881

> <b_epik_Metal_Only>
0

> <s_epik_Chemistry_Notes>
This compound has an ester and may undergo hydrolysis at high or low pH. This compound contains an acetal/aminal-like group ( X-CH(R)-Y where X, Y are N, S, or O) that may be acid/base labile, releasing an aldehyde.

> <s_lp_Force_Field>
OPLS_2005

> <r_lp_Energy>
21.6407

> <b_lp_Chiralities_Consistent>
1

> <s_lp_Variant>
AV-unprocessed.smi:102-23

> <Gold.Version>
5.8.1

> <Gold.Id.Protein>
6NUR|6NUR_protein|mol2

> <Gold.PLP.Fitness>
40.0237

> <Gold.PLP.PLP>
-32.3175

> <Gold.PLP.part.hbond>
-4.7188

> <Gold.PLP.part.metal>
0.0000

> <Gold.PLP.part.buried>
-4.7766

> <Gold.PLP.part.nonpolar>
-24.3128

> <Gold.PLP.part.repulsive>
0.8919

> <Gold.PLP.ligand.clash>
0.0000

> <Gold.PLP.ligand.torsion>
1.2562

> <Gold.PLP.Chemscore.Hbond>
3.3744

> <Gold.PLP.Chemscore.CHOScore>
0.0000

> <Gold.PLP.Chemscore.Metal>
0.0000

> <Gold.Chemscore.Hbonds>
donor molecule, donor type, donor heavy atom, donor atom, acceptor molecule, acceptor atom, score
      P1  H  6896  6907       L1    14  0.12
      P1  H  7997  8009       L1    22  0.99
      P1  H 10752 10763       L1    15  2.00

> <Gold.PLP.Chemscore.Internal.Correction>
0.0955

> <Gold.Rescore>
     Score         DG    S(hbond)    S(metal)    S(lipo)     H(rot)  DE(clash)    DE(int)     intcor
      5.45      -9.87       2.55        0.00      52.28       4.00       0.39       4.03       ----

> <Gold.Chemscore.Fitness>
5.4508

> <Gold.Chemscore.DG>
-9.8731

> <Gold.Chemscore.ZeroCoef>
-5.4800

> <Gold.Chemscore.Hbond>
2.5461

> <Gold.Chemscore.Metal>
0.0000

> <Gold.Chemscore.Lipo>
52.2783

> <Gold.Chemscore.Internal_Hbond>
0.0000

> <Gold.Chemscore.DEClash>
0.3901

> <Gold.Chemscore.DEInternal>
4.0322

> <Gold.Chemscore.Rot>
3.9951

> <Gold.Chemscore.Internal.Correction>
   9.000000E+99

> <Gold.Chemscore.Hbonds>
donor molecule, donor type, donor heavy atom, donor atom, acceptor molecule, acceptor atom, score
      P1  H  6896  6907       L1    14  0.09
      P1  H  7997  8009       L1    22  0.89
      P1  H 10752 10763       L1    15  0.26

> <Gold.Chemscore.Hbond.Weighted>
-8.5040

> <Gold.Chemscore.Metal.Weighted>
-0.0000

> <Gold.Chemscore.Lipo.Weighted>
-6.1166

> <Gold.Chemscore.Internal_Hbond.Weighted>
0.0000

> <Gold.Chemscore.DEClash.Weighted>
0.3901

> <Gold.Chemscore.DEInternal.Weighted>
4.0322

> <Gold.Chemscore.Rot.Weighted>
10.2274

> <Gold.Chemscore.Internal.Correction.Weighted>
   9.000000E+99

> <Gold.Protein.RotatedTorsions>
[ 6907 6896 6895 6894 ] final -107.25 input  -60.11 | X-H torsion
[ 7974 7965 7964 7962 ] final  145.11 input  175.53 | X-H torsion
[ 8008 7997 7996 7995 ] final  135.32 input   59.86 | X-H torsion
[ 10167 10162 10161 10158 ] final  164.01 input  -65.29 | X-H torsion
[ 10718 10713 10712 10709 ] final  -55.92 input   66.30 | X-H torsion
[ 10763 10752 10751 10750 ] final   84.57 input  -60.55 | X-H torsion
[ 11005 11000 10999 10996 ] final  -38.40 input  -57.11 | X-H torsion

> <Gold.Protein.ActiveResidues>
 VAL166  LYS551  ARG553  GLY616  TRP617  ASP618  TYR619  PRO620  LYS621  CYS622 
 ASP623  PHE694  ASN695  SER759  ASP760  ASP761  ALA762  ILE779  LEU786  VAL792 
 PHE793  MET794  SER795  GLU796  ALA797  LYS798  CYS799  TRP800  GLU811  SER814 

> <Gold.Protein.RotatedAtoms>
  150.7434  133.9854  159.3589 H   0  0  0  0  0  0  0  0  0  0  0  0  # atno 6907 bound_to 6896
  151.7798  135.0762  160.0381 H   0  0  0  0  0  0  0  0  0  0  0  0  # atno 6908 bound_to 6896
  152.3281  133.5891  159.5827 H   0  0  0  0  0  0  0  0  0  0  0  0  # atno 6909 bound_to 6896
  144.8780  139.5743  143.5856 H   0  0  0  0  0  0  0  0  0  0  0  0  # atno 7974 bound_to 7965
  156.3002  140.2473  156.3562 H   0  0  0  0  0  0  0  0  0  0  0  0  # atno 8008 bound_to 7997
  154.8919  140.0409  157.1863 H   0  0  0  0  0  0  0  0  0  0  0  0  # atno 8009 bound_to 7997
  154.8589  140.2917  155.5555 H   0  0  0  0  0  0  0  0  0  0  0  0  # atno 8010 bound_to 7997
  139.4882  144.4279  151.9106 H   0  0  0  0  0  0  0  0  0  0  0  0  # atno 10167 bound_to 10162
  156.1330  130.4158  150.0235 H   0  0  0  0  0  0  0  0  0  0  0  0  # atno 10718 bound_to 10713
  153.1394  135.4649  154.9472 H   0  0  0  0  0  0  0  0  0  0  0  0  # atno 10763 bound_to 10752
  154.7734  135.3166  154.8145 H   0  0  0  0  0  0  0  0  0  0  0  0  # atno 10764 bound_to 10752
  153.8671  135.6907  153.4831 H   0  0  0  0  0  0  0  0  0  0  0  0  # atno 10765 bound_to 10752
  141.0025  133.6948  156.2048 H   0  0  0  0  0  0  0  0  0  0  0  0  # atno 11005 bound_to 11000
  146.2975  139.7324  142.9115 LP  0  0  0  0  0  0  0  0  0  0  0  0  # atno 17320 bound_to 7965
  145.4007  141.0384  143.3072 LP  0  0  0  0  0  0  0  0  0  0  0  0  # atno 17321 bound_to 7965
  140.3726  144.2837  150.5918 LP  0  0  0  0  0  0  0  0  0  0  0  0  # atno 17342 bound_to 10162
  140.5305  143.2244  151.8245 LP  0  0  0  0  0  0  0  0  0  0  0  0  # atno 17343 bound_to 10162
  156.8142  130.9336  151.3643 LP  0  0  0  0  0  0  0  0  0  0  0  0  # atno 17370 bound_to 10713
  157.6506  130.8881  149.9625 LP  0  0  0  0  0  0  0  0  0  0  0  0  # atno 17371 bound_to 10713
  140.6866  134.4710  157.5589 LP  0  0  0  0  0  0  0  0  0  0  0  0  # atno 17394 bound_to 11000
  139.9046  134.8478  156.1758 LP  0  0  0  0  0  0  0  0  0  0  0  0  # atno 17395 bound_to 11000

$$$$
