AV-unprocessed.smi:194|AV-procd|sdf|1521|dock4
  -GOLD-   2262019363D 1   1.00000     0.00000
 Structure written by MMmdl.
 53 55  0  0  0  0  0  0  0  0  1 V2000
  145.7588  134.4766  162.3827 C   0  0  0  0  0  0  0  0  0  0  0  0
  147.2853  134.5494  162.1284 C   0  0  1  0  0  0  0  0  0  0  0  0
  147.6671  133.6655  160.9163 C   0  0  0  0  0  0  0  0  0  0  0  0
  147.8204  131.8971  161.4625 S   0  0  1  0  0  0  0  0  0  0  0  0
  146.0051  131.5732  161.6517 C   0  0  0  0  0  0  0  0  0  0  0  0
  148.2895  131.0975  160.2457 O   0  0  0  0  0  0  0  0  0  0  0  0
  147.7464  135.9358  161.9395 N   0  0  0  0  0  0  0  0  0  0  0  0
  147.4919  136.8877  163.0178 C   0  0  0  0  0  0  0  0  0  0  0  0
  147.4412  136.4963  160.7473 C   0  0  0  0  0  0  0  0  0  0  0  0
  146.1308  136.7201  160.4817 N   0  0  0  0  0  0  0  0  0  0  0  0
  145.7727  137.2787  159.3217 C   0  0  0  0  0  0  0  0  0  0  0  0
  146.5489  137.6741  158.3100 N   0  0  0  0  0  0  0  0  0  0  0  0
  147.8670  137.4358  158.5699 C   0  0  0  0  0  0  0  0  0  0  0  0
  148.3975  136.8584  159.7574 C   0  0  0  0  0  0  0  0  0  0  0  0
  149.7820  136.7834  159.6733 N   0  0  0  0  0  0  0  0  0  0  0  0
  150.0551  137.2949  158.5045 C   0  0  0  0  0  0  0  0  0  0  0  0
  148.9638  137.6951  157.7652 N   0  0  0  0  0  0  0  0  0  0  0  0
  148.9860  138.3014  156.4416 C   0  0  0  0  0  0  0  0  0  0  0  0
  149.4322  139.7944  156.3825 C   0  0  0  0  0  0  0  0  0  0  0  0
  149.4002  140.3287  154.9187 C   0  0  0  0  0  0  0  0  0  0  0  0
  150.1983  139.5831  154.0218 O   0  0  0  0  0  0  0  0  0  0  0  0
  148.5789  140.6715  157.3348 C   0  0  0  0  0  0  0  0  0  0  0  0
  149.1838  142.0686  157.5548 C   0  0  0  0  0  0  0  0  0  0  0  0
  150.4979  141.9448  158.0827 O   0  0  0  0  0  0  0  0  0  0  0  0
  151.3873  141.2796  157.1958 C   0  0  0  0  0  0  0  0  0  0  0  0
  150.8882  139.8487  156.9135 C   0  0  0  0  0  0  0  0  0  0  0  0
  145.4132  133.4510  162.5059 H   0  0  0  0  0  0  0  0  0  0  0  0
  145.2009  134.9135  161.5537 H   0  0  0  0  0  0  0  0  0  0  0  0
  145.4673  135.0024  163.2920 H   0  0  0  0  0  0  0  0  0  0  0  0
  147.7991  134.1513  163.0042 H   0  0  0  0  0  0  0  0  0  0  0  0
  146.9286  133.7503  160.1186 H   0  0  0  0  0  0  0  0  0  0  0  0
  148.6330  133.9469  160.4986 H   0  0  0  0  0  0  0  0  0  0  0  0
  145.5664  132.2664  162.3695 H   0  0  0  0  0  0  0  0  0  0  0  0
  145.8406  130.5561  162.0070 H   0  0  0  0  0  0  0  0  0  0  0  0
  145.4960  131.6921  160.6953 H   0  0  0  0  0  0  0  0  0  0  0  0
  147.5477  137.9233  162.6772 H   0  0  0  0  0  0  0  0  0  0  0  0
  148.2348  136.7694  163.8066 H   0  0  0  0  0  0  0  0  0  0  0  0
  146.5035  136.7270  163.4496 H   0  0  0  0  0  0  0  0  0  0  0  0
  144.7124  137.4313  159.1844 H   0  0  0  0  0  0  0  0  0  0  0  0
  151.0681  137.3843  158.1401 H   0  0  0  0  0  0  0  0  0  0  0  0
  149.6409  137.6907  155.8186 H   0  0  0  0  0  0  0  0  0  0  0  0
  147.9896  138.1959  156.0101 H   0  0  0  0  0  0  0  0  0  0  0  0
  148.3914  140.3165  154.5110 H   0  0  0  0  0  0  0  0  0  0  0  0
  149.7242  141.3696  154.8889 H   0  0  0  0  0  0  0  0  0  0  0  0
  149.7511  139.5317  153.1909 H   0  0  0  0  0  0  0  0  0  0  0  0
  147.5549  140.7678  156.9738 H   0  0  0  0  0  0  0  0  0  0  0  0
  148.5067  140.1812  158.3065 H   0  0  0  0  0  0  0  0  0  0  0  0
  149.1969  142.6490  156.6316 H   0  0  0  0  0  0  0  0  0  0  0  0
  148.5757  142.6268  158.2669 H   0  0  0  0  0  0  0  0  0  0  0  0
  151.5062  141.8580  156.2797 H   0  0  0  0  0  0  0  0  0  0  0  0
  152.3725  141.2398  157.6609 H   0  0  0  0  0  0  0  0  0  0  0  0
  150.9564  139.2876  157.8468 H   0  0  0  0  0  0  0  0  0  0  0  0
  151.5656  139.3529  156.2170 H   0  0  0  0  0  0  0  0  0  0  0  0
  1  2  1  0  0  0  0
  1 27  1  0  0  0  0
  1 28  1  0  0  0  0
  1 29  1  0  0  0  0
  2  3  1  0  0  0  0
  2  7  1  0  0  0  0
  2 30  1  0  0  0  0
  3  4  1  0  0  0  0
  3 31  1  0  0  0  0
  3 32  1  0  0  0  0
  4  5  1  0  0  0  0
  4  6  2  0  0  0  0
  5 33  1  0  0  0  0
  5 34  1  0  0  0  0
  5 35  1  0  0  0  0
  7  8  1  0  0  0  0
  7  9  1  0  0  0  0
  8 36  1  0  0  0  0
  8 37  1  0  0  0  0
  8 38  1  0  0  0  0
  9 14  1  0  0  0  0
  9 10  2  0  0  0  0
 10 11  1  0  0  0  0
 11 12  2  0  0  0  0
 11 39  1  0  0  0  0
 12 13  1  0  0  0  0
 13 17  1  0  0  0  0
 13 14  2  0  0  0  0
 14 15  1  0  0  0  0
 15 16  2  0  0  0  0
 16 17  1  0  0  0  0
 16 40  1  0  0  0  0
 17 18  1  0  0  0  0
 18 19  1  0  0  0  0
 18 41  1  0  0  0  0
 18 42  1  0  0  0  0
 19 26  1  0  0  0  0
 19 20  1  0  0  0  0
 19 22  1  0  0  0  0
 20 21  1  0  0  0  0
 20 43  1  0  0  0  0
 20 44  1  0  0  0  0
 21 45  1  0  0  0  0
 22 23  1  0  0  0  0
 22 46  1  0  0  0  0
 22 47  1  0  0  0  0
 23 24  1  0  0  0  0
 23 48  1  0  0  0  0
 23 49  1  0  0  0  0
 24 25  1  0  0  0  0
 25 26  1  0  0  0  0
 25 50  1  0  0  0  0
 25 51  1  0  0  0  0
 26 52  1  0  0  0  0
 26 53  1  0  0  0  0
M  END
> <s_m_source_file>
AV-unprocessed.smi

> <i_m_source_file_index>
194

> <i_lp_mmshare_version>
43012

> <i_f3d_flags>
0

> <s_epik_input>
W0NIM11bU0BAXSg9TylbQ0gyXVtDQEBIXShbQ0gzXSlOKFtDSDNdKWMobltjSF1uMSljKGMxMiluW2NIXW4yW0NIMl1DMyhbQ0gyXVtPSF0pW0NIMl1bQ0gyXU9bQ0gyXVtDSDJdMw==

> <s_epik_cmdline>
J2VwaWtfcHl0aG9uJywgJy1waCcsICc3LjAnLCAnLXRuJywgJzgnLCAnLW1hJywgJzIwMCcsICctbWV0YWxfYmluZGluZycsICctaW1hZScsICc8aW5maWxlLm1hZT4nLCAnLW9tYWUnLCAnPG91dGZpbGUubWFlPic=

> <r_lp_tautomer_probability>
1

> <r_epik_Ionization_Penalty>
0.00101625

> <r_epik_Ionization_Penalty_Charging>
0

> <r_epik_Ionization_Penalty_Neutral>
0.00101625

> <r_epik_State_Penalty>
0.000568005

> <r_epik_Charging_Adjusted_Penalty>
0.000568005

> <i_epik_Tot_Q>
0

> <i_epik_Tot_abs_Q>
0

> <r_epik_Metal_State_Penalty>
-0

> <b_epik_Metal_Only>
0

> <s_lp_Force_Field>
OPLS_2005

> <r_lp_Energy>
31.1686

> <b_lp_Chiralities_Consistent>
1

> <s_lp_Variant>
AV-unprocessed.smi:194-2

> <Gold.Version>
5.8.1

> <Gold.Id.Protein>
6NUR|6NUR_protein|mol2

> <Gold.PLP.Fitness>
43.8612

> <Gold.PLP.PLP>
-35.9143

> <Gold.PLP.part.hbond>
-3.0000

> <Gold.PLP.part.metal>
0.0000

> <Gold.PLP.part.buried>
-5.5460

> <Gold.PLP.part.nonpolar>
-27.0396

> <Gold.PLP.part.repulsive>
0.0415

> <Gold.PLP.ligand.clash>
0.0000

> <Gold.PLP.ligand.torsion>
0.7840

> <Gold.PLP.Chemscore.Hbond>
2.9587

> <Gold.PLP.Chemscore.CHOScore>
0.0000

> <Gold.PLP.Chemscore.Metal>
0.0000

> <Gold.Chemscore.Hbonds>
donor molecule, donor type, donor heavy atom, donor atom, acceptor molecule, acceptor atom, score
      L1  H    21    45       P1  7957  0.84
      P1  H  6896  6909       L1    15  0.62
      P1  H  7989  7998       L1    21  0.85

> <Gold.PLP.Chemscore.Internal.Correction>
0.6388

> <Gold.Rescore>
     Score         DG    S(hbond)    S(metal)    S(lipo)     H(rot)  DE(clash)    DE(int)     intcor
     11.65     -13.07       2.40        0.00      68.83       3.31       0.08       1.34       ----

> <Gold.Chemscore.Fitness>
11.6479

> <Gold.Chemscore.DG>
-13.0675

> <Gold.Chemscore.ZeroCoef>
-5.4800

> <Gold.Chemscore.Hbond>
2.3973

> <Gold.Chemscore.Metal>
0.0000

> <Gold.Chemscore.Lipo>
68.8322

> <Gold.Chemscore.Internal_Hbond>
0.0000

> <Gold.Chemscore.DEClash>
0.0807

> <Gold.Chemscore.DEInternal>
1.3390

> <Gold.Chemscore.Rot>
3.3098

> <Gold.Chemscore.Internal.Correction>
   9.000000E+99

> <Gold.Chemscore.Hbonds>
donor molecule, donor type, donor heavy atom, donor atom, acceptor molecule, acceptor atom, score
      L1  H    21    45       P1  7957  0.78
      P1  H  6896  6909       L1    15  0.30
      P1  H  7989  7998       L1    21  0.06

> <Gold.Chemscore.Hbond.Weighted>
-8.0071

> <Gold.Chemscore.Metal.Weighted>
-0.0000

> <Gold.Chemscore.Lipo.Weighted>
-8.0534

> <Gold.Chemscore.Internal_Hbond.Weighted>
0.0000

> <Gold.Chemscore.DEClash.Weighted>
0.0807

> <Gold.Chemscore.DEInternal.Weighted>
1.3390

> <Gold.Chemscore.Rot.Weighted>
8.4730

> <Gold.Chemscore.Internal.Correction.Weighted>
   9.000000E+99

> <Gold.Protein.RotatedTorsions>
[ 6907 6896 6895 6894 ] final   69.45 input  -60.11 | X-H torsion
[ 7974 7965 7964 7962 ] final  -68.87 input  175.53 | X-H torsion
[ 8008 7997 7996 7995 ] final    1.71 input   59.86 | X-H torsion
[ 10167 10162 10161 10158 ] final  -47.43 input  -65.29 | X-H torsion
[ 10718 10713 10712 10709 ] final   81.79 input   66.30 | X-H torsion
[ 10763 10752 10751 10750 ] final   61.74 input  -60.55 | X-H torsion
[ 11005 11000 10999 10996 ] final -145.10 input  -57.11 | X-H torsion

> <Gold.Protein.ActiveResidues>
 VAL166  LYS551  ARG553  GLY616  TRP617  ASP618  TYR619  PRO620  LYS621  CYS622 
 ASP623  PHE694  ASN695  SER759  ASP760  ASP761  ALA762  ILE779  LEU786  VAL792 
 PHE793  MET794  SER795  GLU796  ALA797  LYS798  CYS799  TRP800  GLU811  SER814 

> <Gold.Protein.RotatedAtoms>
  152.4687  134.5013  159.9725 H   0  0  0  0  0  0  0  0  0  0  0  0  # atno 6907 bound_to 6896
  151.5045  133.3491  159.2882 H   0  0  0  0  0  0  0  0  0  0  0  0  # atno 6908 bound_to 6896
  150.8685  134.8082  159.7198 H   0  0  0  0  0  0  0  0  0  0  0  0  # atno 6909 bound_to 6896
  145.7110  140.9078  143.0680 H   0  0  0  0  0  0  0  0  0  0  0  0  # atno 7974 bound_to 7965
  154.6830  140.2637  155.6889 H   0  0  0  0  0  0  0  0  0  0  0  0  # atno 8008 bound_to 7997
  156.2704  140.2806  156.1304 H   0  0  0  0  0  0  0  0  0  0  0  0  # atno 8009 bound_to 7997
  155.1004  140.0374  157.2685 H   0  0  0  0  0  0  0  0  0  0  0  0  # atno 8010 bound_to 7997
  140.6775  143.2785  151.3925 H   0  0  0  0  0  0  0  0  0  0  0  0  # atno 10167 bound_to 10162
  157.6842  131.0019  150.2279 H   0  0  0  0  0  0  0  0  0  0  0  0  # atno 10718 bound_to 10713
  152.9960  135.5490  154.6081 H   0  0  0  0  0  0  0  0  0  0  0  0  # atno 10763 bound_to 10752
  154.5408  135.2819  155.1099 H   0  0  0  0  0  0  0  0  0  0  0  0  # atno 10764 bound_to 10752
  154.2378  135.6422  153.5249 H   0  0  0  0  0  0  0  0  0  0  0  0  # atno 10765 bound_to 10752
  140.7957  134.2916  157.4997 H   0  0  0  0  0  0  0  0  0  0  0  0  # atno 11005 bound_to 11000
  144.6942  139.9075  143.7462 LP  0  0  0  0  0  0  0  0  0  0  0  0  # atno 17320 bound_to 7965
  146.0712  139.3701  143.0522 LP  0  0  0  0  0  0  0  0  0  0  0  0  # atno 17321 bound_to 7965
  139.6077  144.1164  152.2266 LP  0  0  0  0  0  0  0  0  0  0  0  0  # atno 17342 bound_to 10162
  140.0568  144.5889  150.7294 LP  0  0  0  0  0  0  0  0  0  0  0  0  # atno 17343 bound_to 10162
  156.2918  130.3746  149.7834 LP  0  0  0  0  0  0  0  0  0  0  0  0  # atno 17370 bound_to 10713
  156.5492  130.8334  151.3294 LP  0  0  0  0  0  0  0  0  0  0  0  0  # atno 17371 bound_to 10713
  139.8726  134.9400  156.3758 LP  0  0  0  0  0  0  0  0  0  0  0  0  # atno 17394 bound_to 11000
  140.9345  133.7556  156.0067 LP  0  0  0  0  0  0  0  0  0  0  0  0  # atno 17395 bound_to 11000

$$$$
