AV-unprocessed.smi:103|AV-procd|sdf|987|dock1
  -GOLD-   2262017553D 1   1.00000     0.00000
 Structure written by MMmdl.
 53 55  0  0  0  0  0  0  0  0  1 V2000
  153.7339  142.1206  161.6179 C   0  0  0  0  0  0  0  0  0  0  0  0
  153.4254  141.5528  160.2386 C   0  0  0  0  0  0  0  0  0  0  0  0
  153.2661  142.2859  159.2625 O   0  0  0  0  0  0  0  0  0  0  0  0
  153.3575  140.2128  160.2392 O   0  0  0  0  0  0  0  0  0  0  0  0
  153.0416  139.5289  159.0379 C   0  0  0  0  0  0  0  0  0  0  0  0
  151.5208  139.5342  158.8263 C   0  0  2  0  0  0  0  0  0  0  0  0
  150.9443  138.3003  159.2272 O   0  0  0  0  0  0  0  0  0  0  0  0
  149.6777  138.2193  158.6613 C   0  0  2  0  0  0  0  0  0  0  0  0
  149.3180  136.7761  158.5193 N   0  0  0  0  0  0  0  0  0  0  0  0
  148.5536  135.9659  159.3345 C   0  0  0  0  0  0  0  0  0  0  0  0
  147.7724  136.4382  160.8729 S   0  0  0  0  0  0  0  0  0  0  0  0
  146.9774  134.8647  161.3944 C   0  0  0  0  0  0  0  0  0  0  0  0
  148.8475  136.7758  161.8179 O   0  0  0  0  0  0  0  0  0  0  0  0
  146.7309  137.4237  160.5426 O   0  0  0  0  0  0  0  0  0  0  0  0
  148.4648  134.7090  158.9920 N   0  0  0  0  0  0  0  0  0  0  0  0
  149.1771  134.6560  157.8019 C   0  0  0  0  0  0  0  0  0  0  0  0
  149.4724  133.6258  156.8739 C   0  0  0  0  0  0  0  0  0  0  0  0
  149.0489  132.3632  157.0235 N   0  0  0  0  0  0  0  0  0  0  0  0
  150.2160  133.9301  155.7845 N   0  0  0  0  0  0  0  0  0  0  0  0
  150.6516  135.1825  155.6123 C   0  0  0  0  0  0  0  0  0  0  0  0
  150.4600  136.2487  156.3937 N   0  0  0  0  0  0  0  0  0  0  0  0
  149.7084  135.9406  157.4919 C   0  0  0  0  0  0  0  0  0  0  0  0
  149.7716  138.8920  157.2826 C   0  0  1  0  0  0  0  0  0  0  0  0
  148.5948  139.6215  156.9227 O   0  0  0  0  0  0  0  0  0  0  0  0
  148.2207  140.7769  157.5163 C   0  0  0  0  0  0  0  0  0  0  0  0
  146.9576  141.3575  156.8958 C   0  0  0  0  0  0  0  0  0  0  0  0
  148.7864  141.3354  158.4555 O   0  0  0  0  0  0  0  0  0  0  0  0
  151.0648  139.7111  157.3675 C   0  0  2  0  0  0  0  0  0  0  0  0
  152.0253  139.1859  156.4569 O   0  0  0  0  0  0  0  0  0  0  0  0
  151.8388  139.3032  155.1310 C   0  0  0  0  0  0  0  0  0  0  0  0
  152.9559  138.6496  154.3295 C   0  0  0  0  0  0  0  0  0  0  0  0
  150.8902  139.8606  154.5786 O   0  0  0  0  0  0  0  0  0  0  0  0
  153.1312  141.6244  162.3784 H   0  0  0  0  0  0  0  0  0  0  0  0
  153.5171  143.1886  161.6492 H   0  0  0  0  0  0  0  0  0  0  0  0
  154.7869  141.9739  161.8586 H   0  0  0  0  0  0  0  0  0  0  0  0
  153.5292  140.0388  158.2056 H   0  0  0  0  0  0  0  0  0  0  0  0
  153.4226  138.5071  159.0675 H   0  0  0  0  0  0  0  0  0  0  0  0
  151.0731  140.3276  159.4267 H   0  0  0  0  0  0  0  0  0  0  0  0
  148.9527  138.6568  159.3441 H   0  0  0  0  0  0  0  0  0  0  0  0
  146.4565  135.0184  162.3391 H   0  0  0  0  0  0  0  0  0  0  0  0
  147.7364  134.0933  161.5194 H   0  0  0  0  0  0  0  0  0  0  0  0
  146.2632  134.5504  160.6335 H   0  0  0  0  0  0  0  0  0  0  0  0
  148.4918  132.1106  157.8273 H   0  0  0  0  0  0  0  0  0  0  0  0
  149.2855  131.6668  156.3317 H   0  0  0  0  0  0  0  0  0  0  0  0
  151.2394  135.3550  154.7230 H   0  0  0  0  0  0  0  0  0  0  0  0
  149.8998  138.1106  156.5328 H   0  0  0  0  0  0  0  0  0  0  0  0
  147.0814  141.4725  155.8188 H   0  0  0  0  0  0  0  0  0  0  0  0
  146.7339  142.3347  157.3245 H   0  0  0  0  0  0  0  0  0  0  0  0
  146.1101  140.6971  157.0799 H   0  0  0  0  0  0  0  0  0  0  0  0
  150.9060  140.7707  157.1618 H   0  0  0  0  0  0  0  0  0  0  0  0
  153.9187  139.0856  154.5964 H   0  0  0  0  0  0  0  0  0  0  0  0
  152.7953  138.7938  153.2610 H   0  0  0  0  0  0  0  0  0  0  0  0
  152.9906  137.5791  154.5326 H   0  0  0  0  0  0  0  0  0  0  0  0
  1  2  1  0  0  0  0
  1 33  1  0  0  0  0
  1 34  1  0  0  0  0
  1 35  1  0  0  0  0
  2  3  2  0  0  0  0
  2  4  1  0  0  0  0
  4  5  1  0  0  0  0
  5  6  1  0  0  0  0
  5 36  1  0  0  0  0
  5 37  1  0  0  0  0
  6 28  1  0  0  0  0
  6  7  1  0  0  0  0
  6 38  1  0  0  0  0
  7  8  1  0  0  0  0
  8  9  1  0  0  0  0
  8 23  1  0  0  0  0
  8 39  1  0  0  0  0
  9 22  1  0  0  0  0
  9 10  1  0  0  0  0
 10 11  1  0  0  0  0
 10 15  2  0  0  0  0
 11 12  1  0  0  0  0
 11 13  2  0  0  0  0
 11 14  2  0  0  0  0
 12 40  1  0  0  0  0
 12 41  1  0  0  0  0
 12 42  1  0  0  0  0
 15 16  1  0  0  0  0
 16 22  2  0  0  0  0
 16 17  1  0  0  0  0
 17 18  1  0  0  0  0
 17 19  2  0  0  0  0
 18 43  1  0  0  0  0
 18 44  1  0  0  0  0
 19 20  1  0  0  0  0
 20 21  2  0  0  0  0
 20 45  1  0  0  0  0
 21 22  1  0  0  0  0
 23 24  1  0  0  0  0
 23 28  1  0  0  0  0
 23 46  1  0  0  0  0
 24 25  1  0  0  0  0
 25 26  1  0  0  0  0
 25 27  2  0  0  0  0
 26 47  1  0  0  0  0
 26 48  1  0  0  0  0
 26 49  1  0  0  0  0
 28 29  1  0  0  0  0
 28 50  1  0  0  0  0
 29 30  1  0  0  0  0
 30 31  1  0  0  0  0
 30 32  2  0  0  0  0
 31 51  1  0  0  0  0
 31 52  1  0  0  0  0
 31 53  1  0  0  0  0
M  END
> <s_m_source_file>
AV-unprocessed.smi

> <i_m_source_file_index>
103

> <i_lp_mmshare_version>
43012

> <i_f3d_flags>
0

> <s_epik_input>
W0NIM11DKD1PKU9bQ0gyXVtDQEBIXTFPW0NASF0oW0NAQEhdKE9DKD1PKVtDSDNdKVtDQEhdMU9DKD1PKVtDSDNdKW4oYyhuMilTKD1PKSg9TylbQ0gzXSljKGMyMyluW2NIXW5jM1tOSDJd

> <s_epik_cmdline>
J2VwaWtfcHl0aG9uJywgJy1waCcsICc3LjAnLCAnLXRuJywgJzgnLCAnLW1hJywgJzIwMCcsICctbWV0YWxfYmluZGluZycsICctaW1hZScsICc8aW5maWxlLm1hZT4nLCAnLW9tYWUnLCAnPG91dGZpbGUubWFlPic=

> <r_lp_tautomer_probability>
1

> <r_epik_Ionization_Penalty>
1.51338e-05

> <r_epik_Ionization_Penalty_Charging>
0

> <r_epik_Ionization_Penalty_Neutral>
1.51338e-05

> <r_epik_State_Penalty>
-0

> <r_epik_Charging_Adjusted_Penalty>
0

> <i_epik_Tot_Q>
0

> <i_epik_Tot_abs_Q>
0

> <r_epik_Metal_State_Penalty>
-0

> <b_epik_Metal_Only>
0

> <s_epik_Chemistry_Notes>
This compound has an ester and may undergo hydrolysis at high or low pH. This compound contains an acetal/aminal-like group ( X-CH(R)-Y where X, Y are N, S, or O) that may be acid/base labile, releasing an aldehyde.

> <s_lp_Force_Field>
OPLS_2005

> <r_lp_Energy>
18.7655

> <b_lp_Chiralities_Consistent>
1

> <s_lp_Variant>
AV-unprocessed.smi:103-11

> <Gold.Version>
5.8.1

> <Gold.Id.Protein>
6NUR|6NUR_protein|mol2

> <Gold.PLP.Fitness>
44.9285

> <Gold.PLP.PLP>
-39.0712

> <Gold.PLP.part.hbond>
-3.8739

> <Gold.PLP.part.metal>
0.0000

> <Gold.PLP.part.buried>
-7.8770

> <Gold.PLP.part.nonpolar>
-26.3850

> <Gold.PLP.part.repulsive>
0.2110

> <Gold.PLP.ligand.clash>
0.0000

> <Gold.PLP.ligand.torsion>
2.6531

> <Gold.PLP.Chemscore.Hbond>
2.8450

> <Gold.PLP.Chemscore.CHOScore>
0.0000

> <Gold.PLP.Chemscore.Metal>
0.0000

> <Gold.Chemscore.Hbonds>
donor molecule, donor type, donor heavy atom, donor atom, acceptor molecule, acceptor atom, score
      P1  H  6931  6943       L1    13  0.86
      P1  H  6934  6947       L1    14  1.00
      P1  H  7989  7998       L1    32  1.00

> <Gold.PLP.Chemscore.Internal.Correction>
2.6286

> <Gold.Rescore>
     Score         DG    S(hbond)    S(metal)    S(lipo)     H(rot)  DE(clash)    DE(int)     intcor
      4.87      -9.11       2.66        0.00      47.97       4.25       0.03       4.21       ----

> <Gold.Chemscore.Fitness>
4.8654

> <Gold.Chemscore.DG>
-9.1076

> <Gold.Chemscore.ZeroCoef>
-5.4800

> <Gold.Chemscore.Hbond>
2.6597

> <Gold.Chemscore.Metal>
0.0000

> <Gold.Chemscore.Lipo>
47.9715

> <Gold.Chemscore.Internal_Hbond>
0.0000

> <Gold.Chemscore.DEClash>
0.0291

> <Gold.Chemscore.DEInternal>
4.2130

> <Gold.Chemscore.Rot>
4.2456

> <Gold.Chemscore.Internal.Correction>
   9.000000E+99

> <Gold.Chemscore.Hbonds>
donor molecule, donor type, donor heavy atom, donor atom, acceptor molecule, acceptor atom, score
      P1  H  6931  6943       L1    13  0.69
      P1  H  6934  6947       L1    14  0.88
      P1  H  7989  7998       L1    32  0.40

> <Gold.Chemscore.Hbond.Weighted>
-8.8836

> <Gold.Chemscore.Metal.Weighted>
-0.0000

> <Gold.Chemscore.Lipo.Weighted>
-5.6127

> <Gold.Chemscore.Internal_Hbond.Weighted>
0.0000

> <Gold.Chemscore.DEClash.Weighted>
0.0291

> <Gold.Chemscore.DEInternal.Weighted>
4.2130

> <Gold.Chemscore.Rot.Weighted>
10.8687

> <Gold.Chemscore.Internal.Correction.Weighted>
   9.000000E+99

> <Gold.Protein.RotatedTorsions>
[ 6907 6896 6895 6894 ] final  177.44 input  -60.11 | X-H torsion
[ 7974 7965 7964 7962 ] final -165.44 input  175.53 | X-H torsion
[ 8008 7997 7996 7995 ] final -158.00 input   59.86 | X-H torsion
[ 10167 10162 10161 10158 ] final  142.51 input  -65.29 | X-H torsion
[ 10718 10713 10712 10709 ] final -140.72 input   66.30 | X-H torsion
[ 10763 10752 10751 10750 ] final   70.62 input  -60.55 | X-H torsion
[ 11005 11000 10999 10996 ] final   58.95 input  -57.11 | X-H torsion

> <Gold.Protein.ActiveResidues>
 VAL166  LYS551  ARG553  GLY616  TRP617  ASP618  TYR619  PRO620  LYS621  CYS622 
 ASP623  PHE694  ASN695  SER759  ASP760  ASP761  ALA762  ILE779  LEU786  VAL792 
 PHE793  MET794  SER795  GLU796  ALA797  LYS798  CYS799  TRP800  GLU811  SER814 

> <Gold.Protein.RotatedAtoms>
  151.7039  133.3311  159.3273 H   0  0  0  0  0  0  0  0  0  0  0  0  # atno 6907 bound_to 6896
  150.7723  134.6591  159.6339 H   0  0  0  0  0  0  0  0  0  0  0  0  # atno 6908 bound_to 6896
  152.3753  134.6676  160.0214 H   0  0  0  0  0  0  0  0  0  0  0  0  # atno 6909 bound_to 6896
  144.7270  140.2814  143.6235 H   0  0  0  0  0  0  0  0  0  0  0  0  # atno 7974 bound_to 7965
  155.7409  140.0814  157.2246 H   0  0  0  0  0  0  0  0  0  0  0  0  # atno 8008 bound_to 7997
  154.4022  140.1578  156.2670 H   0  0  0  0  0  0  0  0  0  0  0  0  # atno 8009 bound_to 7997
  155.9021  140.3409  155.6037 H   0  0  0  0  0  0  0  0  0  0  0  0  # atno 8010 bound_to 7997
  139.4992  144.6102  151.6289 H   0  0  0  0  0  0  0  0  0  0  0  0  # atno 10167 bound_to 10162
  156.3256  130.7558  151.1665 H   0  0  0  0  0  0  0  0  0  0  0  0  # atno 10718 bound_to 10713
  153.0352  135.5167  154.7469 H   0  0  0  0  0  0  0  0  0  0  0  0  # atno 10763 bound_to 10752
  154.6451  135.2917  155.0058 H   0  0  0  0  0  0  0  0  0  0  0  0  # atno 10764 bound_to 10752
  154.0961  135.6643  153.4913 H   0  0  0  0  0  0  0  0  0  0  0  0  # atno 10765 bound_to 10752
  140.0340  134.5970  155.9469 H   0  0  0  0  0  0  0  0  0  0  0  0  # atno 11005 bound_to 11000
  145.7946  139.1940  143.2083 LP  0  0  0  0  0  0  0  0  0  0  0  0  # atno 17320 bound_to 7965
  146.0727  140.7851  142.9680 LP  0  0  0  0  0  0  0  0  0  0  0  0  # atno 17321 bound_to 7965
  140.5774  144.0004  150.6249 LP  0  0  0  0  0  0  0  0  0  0  0  0  # atno 17342 bound_to 10162
  140.3142  143.3178  152.0849 LP  0  0  0  0  0  0  0  0  0  0  0  0  # atno 17343 bound_to 10162
  157.7420  131.0495  150.5052 LP  0  0  0  0  0  0  0  0  0  0  0  0  # atno 17370 bound_to 10713
  156.5211  130.4162  149.6250 LP  0  0  0  0  0  0  0  0  0  0  0  0  # atno 17371 bound_to 10713
  141.1847  133.6553  156.5167 LP  0  0  0  0  0  0  0  0  0  0  0  0  # atno 17394 bound_to 11000
  140.4178  134.7214  157.4873 LP  0  0  0  0  0  0  0  0  0  0  0  0  # atno 17395 bound_to 11000

$$$$
