AV-unprocessed.smi:2797|AV-procd|sdf|10784|dock2
  -GOLD-   2272015223D 1   1.00000     0.00000
 Structure written by MMmdl.
 38 39  0  0  0  0  0  0  0  0  2 V2000
  150.8197  137.9746  157.6356 C   0  0  0  0  0  0  0  0  0  0  0  0
  150.7886  137.6120  156.2602 O   0  0  0  0  0  0  0  0  0  0  0  0
  149.7680  138.2047  155.4490 C   0  0  0  0  0  0  0  0  0  0  0  0
  148.4182  137.4999  155.6402 C   0  0  0  0  0  0  0  0  0  0  0  0
  148.1662  136.5455  154.5648 N   0  0  0  0  0  0  0  0  0  0  0  0
  147.3959  135.4528  154.6561 C   0  0  0  0  0  0  0  0  0  0  0  0
  146.8454  135.0902  155.6950 O   0  0  0  0  0  0  0  0  0  0  0  0
  147.3240  134.8113  153.4777 N   0  0  0  0  0  0  0  0  0  0  0  0
  146.5986  133.6308  153.1515 C   0  0  0  0  0  0  0  0  0  0  0  0
  146.3989  132.5670  154.0676 C   0  0  0  0  0  0  0  0  0  0  0  0
  145.6522  131.4412  153.6701 C   0  0  0  0  0  0  0  0  0  0  0  0
  145.1240  131.3876  152.4300 N   0  3  0  0  0  0  0  0  0  0  0  0
  145.2701  132.3795  151.5240 C   0  0  0  0  0  0  0  0  0  0  0  0
  144.6172  132.1968  150.1676 C   0  0  0  0  0  0  0  0  0  0  0  0
  146.0114  133.5357  151.8649 C   0  0  0  0  0  0  0  0  0  0  0  0
  146.2000  134.8160  150.7140 Cl  0  0  0  0  0  0  0  0  0  0  0  0
  149.8297  139.7227  155.7074 C   0  0  0  0  0  0  0  0  0  0  0  0
  150.8137  139.8526  154.5434 C   0  0  0  0  0  0  0  0  0  0  0  0
  150.2625  138.5252  154.0208 C   0  0  0  0  0  0  0  0  0  0  0  0
  151.6811  137.4987  158.1039 H   0  0  0  0  0  0  0  0  0  0  0  0
  149.9356  137.6349  158.1724 H   0  0  0  0  0  0  0  0  0  0  0  0
  150.9249  139.0477  157.7850 H   0  0  0  0  0  0  0  0  0  0  0  0
  148.4275  136.9335  156.5717 H   0  0  0  0  0  0  0  0  0  0  0  0
  147.5991  138.2109  155.7489 H   0  0  0  0  0  0  0  0  0  0  0  0
  148.5853  136.7572  153.6712 H   0  0  0  0  0  0  0  0  0  0  0  0
  147.9053  135.1786  152.7385 H   0  0  0  0  0  0  0  0  0  0  0  0
  146.7920  132.5971  155.0722 H   0  0  0  0  0  0  0  0  0  0  0  0
  145.4570  130.5902  154.3065 H   0  0  0  0  0  0  0  0  0  0  0  0
  145.3682  132.2273  149.3778 H   0  0  0  0  0  0  0  0  0  0  0  0
  143.8925  132.9909  149.9856 H   0  0  0  0  0  0  0  0  0  0  0  0
  144.0955  131.2413  150.1009 H   0  0  0  0  0  0  0  0  0  0  0  0
  148.8817  140.2250  155.5073 H   0  0  0  0  0  0  0  0  0  0  0  0
  150.2321  140.0100  156.6796 H   0  0  0  0  0  0  0  0  0  0  0  0
  150.6415  140.7086  153.8905 H   0  0  0  0  0  0  0  0  0  0  0  0
  151.8557  139.7836  154.8599 H   0  0  0  0  0  0  0  0  0  0  0  0
  151.0157  137.8619  153.5991 H   0  0  0  0  0  0  0  0  0  0  0  0
  149.4405  138.6710  153.3179 H   0  0  0  0  0  0  0  0  0  0  0  0
  144.5846  130.5627  152.1659 H   0  0  0  0  0  0  0  0  0  0  0  0
  1  2  1  0  0  0  0
  1 20  1  0  0  0  0
  1 21  1  0  0  0  0
  1 22  1  0  0  0  0
  2  3  1  0  0  0  0
  3 19  1  0  0  0  0
  3  4  1  0  0  0  0
  3 17  1  0  0  0  0
  4  5  1  0  0  0  0
  4 23  1  0  0  0  0
  4 24  1  0  0  0  0
  5  6  1  0  0  0  0
  5 25  1  0  0  0  0
  6  7  2  0  0  0  0
  6  8  1  0  0  0  0
  8  9  1  0  0  0  0
  8 26  1  0  0  0  0
  9 15  1  0  0  0  0
  9 10  2  0  0  0  0
 10 11  1  0  0  0  0
 10 27  1  0  0  0  0
 11 12  2  0  0  0  0
 11 28  1  0  0  0  0
 12 13  1  0  0  0  0
 12 38  1  0  0  0  0
 13 14  1  0  0  0  0
 13 15  2  0  0  0  0
 14 29  1  0  0  0  0
 14 30  1  0  0  0  0
 14 31  1  0  0  0  0
 15 16  1  0  0  0  0
 17 18  1  0  0  0  0
 17 32  1  0  0  0  0
 17 33  1  0  0  0  0
 18 19  1  0  0  0  0
 18 34  1  0  0  0  0
 18 35  1  0  0  0  0
 19 36  1  0  0  0  0
 19 37  1  0  0  0  0
M  CHG  1  12   1
M  END
> <s_m_source_file>
AV-unprocessed.smi

> <i_m_source_file_index>
2797

> <i_lp_mmshare_version>
43012

> <i_f3d_flags>
0

> <s_epik_input>
W0NIMl0xW0NIMl1bQ0gyXUMxKE9bQ0gzXSlbQ0gyXVtOSF1DKD1PKVtOSF1jMltjSF1bY0hdbmMoW0NIM10pYzJDbA==

> <s_epik_cmdline>
J2VwaWtfcHl0aG9uJywgJy1waCcsICc3LjAnLCAnLXRuJywgJzgnLCAnLW1hJywgJzIwMCcsICctbWV0YWxfYmluZGluZycsICctaW1hZScsICc8aW5maWxlLm1hZT4nLCAnLW9tYWUnLCAnPG91dGZpbGUubWFlPic=

> <r_epik_Ionization_Penalty>
2.42651

> <r_epik_Ionization_Penalty_Charging>
2.42649

> <r_epik_Ionization_Penalty_Neutral>
1.93283e-05

> <r_epik_State_Penalty>
2.58622

> <r_epik_Charging_Adjusted_Penalty>
5.01271

> <i_epik_Tot_Q>
1

> <i_epik_Tot_abs_Q>
1

> <r_epik_Metal_State_Penalty>
2.59605

> <b_epik_Metal_Only>
0

> <s_lp_Force_Field>
OPLS_2005

> <r_lp_Energy>
25.6694

> <b_lp_Chiralities_Consistent>
1

> <s_lp_Variant>
AV-unprocessed.smi:2797-2

> <Gold.Version>
5.8.1

> <Gold.Id.Protein>
6NUR|6NUR_protein|mol2

> <Gold.PLP.Fitness>
36.6431

> <Gold.PLP.PLP>
-30.3793

> <Gold.PLP.part.hbond>
-3.0000

> <Gold.PLP.part.metal>
0.0000

> <Gold.PLP.part.buried>
-3.5907

> <Gold.PLP.part.nonpolar>
-23.8014

> <Gold.PLP.part.repulsive>
0.0974

> <Gold.PLP.ligand.clash>
0.0000

> <Gold.PLP.ligand.torsion>
1.5130

> <Gold.PLP.Chemscore.Hbond>
3.0000

> <Gold.PLP.Chemscore.CHOScore>
0.0000

> <Gold.PLP.Chemscore.Metal>
0.0000

> <Gold.Chemscore.Hbonds>
donor molecule, donor type, donor heavy atom, donor atom, acceptor molecule, acceptor atom, score
      L1  H     5    25       P1  7948  0.99
      L1  H     8    26       P1  7948  1.00

> <Gold.PLP.Chemscore.Internal.Correction>
0.2897

> <Gold.Rescore>
     Score         DG    S(hbond)    S(metal)    S(lipo)     H(rot)  DE(clash)    DE(int)     intcor
     16.28     -18.38       2.36        0.00      74.28       1.44       0.03       2.07       ----

> <Gold.Chemscore.Fitness>
16.2793

> <Gold.Chemscore.DG>
-18.3806

> <Gold.Chemscore.ZeroCoef>
-5.4800

> <Gold.Chemscore.Hbond>
2.3623

> <Gold.Chemscore.Metal>
0.0000

> <Gold.Chemscore.Lipo>
74.2782

> <Gold.Chemscore.Internal_Hbond>
0.0000

> <Gold.Chemscore.DEClash>
0.0310

> <Gold.Chemscore.DEInternal>
2.0703

> <Gold.Chemscore.Rot>
1.4375

> <Gold.Chemscore.Internal.Correction>
   9.000000E+99

> <Gold.Chemscore.Hbonds>
donor molecule, donor type, donor heavy atom, donor atom, acceptor molecule, acceptor atom, score
      L1  H     5    25       P1  7948  0.93
      L1  H     8    26       P1  7948  0.99

> <Gold.Chemscore.Hbond.Weighted>
-7.8900

> <Gold.Chemscore.Metal.Weighted>
-0.0000

> <Gold.Chemscore.Lipo.Weighted>
-8.6905

> <Gold.Chemscore.Internal_Hbond.Weighted>
0.0000

> <Gold.Chemscore.DEClash.Weighted>
0.0310

> <Gold.Chemscore.DEInternal.Weighted>
2.0703

> <Gold.Chemscore.Rot.Weighted>
3.6800

> <Gold.Chemscore.Internal.Correction.Weighted>
   9.000000E+99

> <Gold.Protein.RotatedTorsions>
[ 6907 6896 6895 6894 ] final   34.85 input  -60.11 | X-H torsion
[ 7974 7965 7964 7962 ] final   83.66 input  175.53 | X-H torsion
[ 8008 7997 7996 7995 ] final   99.63 input   59.86 | X-H torsion
[ 10167 10162 10161 10158 ] final  -23.70 input  -65.29 | X-H torsion
[ 10718 10713 10712 10709 ] final  164.12 input   66.30 | X-H torsion
[ 10763 10752 10751 10750 ] final -157.80 input  -60.55 | X-H torsion
[ 11005 11000 10999 10996 ] final -137.88 input  -57.11 | X-H torsion

> <Gold.Protein.ActiveResidues>
 VAL166  LYS551  ARG553  GLY616  TRP617  ASP618  TYR619  PRO620  LYS621  CYS622 
 ASP623  PHE694  ASN695  SER759  ASP760  ASP761  ALA762  ILE779  LEU786  VAL792 
 PHE793  MET794  SER795  GLU796  ALA797  LYS798  CYS799  TRP800  GLU811  SER814 

> <Gold.Protein.RotatedAtoms>
  152.1081  134.9294  160.0567 H   0  0  0  0  0  0  0  0  0  0  0  0  # atno 6907 bound_to 6896
  152.0482  133.4002  159.4374 H   0  0  0  0  0  0  0  0  0  0  0  0  # atno 6908 bound_to 6896
  150.6842  134.3259  159.4850 H   0  0  0  0  0  0  0  0  0  0  0  0  # atno 6909 bound_to 6896
  145.6089  139.2365  143.2203 H   0  0  0  0  0  0  0  0  0  0  0  0  # atno 7974 bound_to 7965
  156.1124  140.3225  155.8092 H   0  0  0  0  0  0  0  0  0  0  0  0  # atno 8008 bound_to 7997
  155.4649  140.0542  157.3004 H   0  0  0  0  0  0  0  0  0  0  0  0  # atno 8009 bound_to 7997
  154.4769  140.2036  155.9870 H   0  0  0  0  0  0  0  0  0  0  0  0  # atno 8010 bound_to 7997
  140.7288  143.4419  151.0644 H   0  0  0  0  0  0  0  0  0  0  0  0  # atno 10167 bound_to 10162
  157.0988  131.0437  151.2506 H   0  0  0  0  0  0  0  0  0  0  0  0  # atno 10718 bound_to 10713
  154.7608  135.3117  154.8383 H   0  0  0  0  0  0  0  0  0  0  0  0  # atno 10763 bound_to 10752
  153.9144  135.6802  153.4754 H   0  0  0  0  0  0  0  0  0  0  0  0  # atno 10764 bound_to 10752
  153.1208  135.4823  154.9124 H   0  0  0  0  0  0  0  0  0  0  0  0  # atno 10765 bound_to 10752
  140.8669  134.2099  157.4674 H   0  0  0  0  0  0  0  0  0  0  0  0  # atno 11005 bound_to 11000
  146.1519  140.6913  142.9318 LP  0  0  0  0  0  0  0  0  0  0  0  0  # atno 17320 bound_to 7965
  144.7278  140.4579  143.6960 LP  0  0  0  0  0  0  0  0  0  0  0  0  # atno 17321 bound_to 7965
  139.8087  143.7981  152.3169 LP  0  0  0  0  0  0  0  0  0  0  0  0  # atno 17342 bound_to 10162
  139.8023  144.7369  150.9808 LP  0  0  0  0  0  0  0  0  0  0  0  0  # atno 17343 bound_to 10162
  157.4659  130.7680  149.7278 LP  0  0  0  0  0  0  0  0  0  0  0  0  # atno 17370 bound_to 10713
  155.9879  130.3963  150.3144 LP  0  0  0  0  0  0  0  0  0  0  0  0  # atno 17371 bound_to 10713
  139.8710  134.9756  156.4889 LP  0  0  0  0  0  0  0  0  0  0  0  0  # atno 17394 bound_to 11000
  140.8618  133.8054  155.9273 LP  0  0  0  0  0  0  0  0  0  0  0  0  # atno 17395 bound_to 11000

$$$$
