AV-unprocessed.smi:2474|AV-procd|sdf|9751|dock1
  -GOLD-   2272013393D 1   1.00000     0.00000
 Structure written by MMmdl.
 40 41  0  0  0  0  0  0  0  0  1 V2000
  144.1779  144.6036  155.2889 C   0  0  0  0  0  0  0  0  0  0  0  0
  145.1049  143.4451  155.1437 C   0  0  0  0  0  0  0  0  0  0  0  0
  145.2523  142.3756  155.9916 C   0  0  0  0  0  0  0  0  0  0  0  0
  146.2245  141.4608  155.5823 N   0  0  0  0  0  0  0  0  0  0  0  0
  146.8149  141.8182  154.4382 C   0  0  0  0  0  0  0  0  0  0  0  0
  147.9486  141.0608  153.8128 C   0  0  2  0  0  0  0  0  0  0  0  0
  147.4674  139.7958  153.0876 C   0  0  0  0  0  0  0  0  0  0  0  0
  149.1134  140.7886  154.7920 C   0  0  0  0  0  0  0  0  0  0  0  0
  149.5962  142.0162  155.4217 N   0  0  0  0  0  0  0  0  0  0  0  0
  150.6143  142.0931  156.2906 C   0  0  0  0  0  0  0  0  0  0  0  0
  151.3566  141.1527  156.5732 O   0  0  0  0  0  0  0  0  0  0  0  0
  150.6860  143.3026  156.8623 N   0  0  0  0  0  0  0  0  0  0  0  0
  151.5680  143.6505  157.9719 C   0  0  2  0  0  0  0  0  0  0  0  0
  151.6469  142.4743  158.9698 C   0  0  0  0  0  0  0  0  0  0  0  0
  152.5977  142.7544  160.1435 C   0  0  0  0  0  0  0  0  0  0  0  0
  152.1626  143.9722  160.9705 C   0  0  0  0  0  0  0  0  0  0  0  0
  152.1689  145.4830  159.9677 S   0  0  0  0  0  0  0  0  0  0  0  0
  151.0555  144.9357  158.6443 C   0  0  0  0  0  0  0  0  0  0  0  0
  146.1850  143.3252  153.7800 S   0  0  0  0  0  0  0  0  0  0  0  0
  143.5997  144.5308  156.2103 H   0  0  0  0  0  0  0  0  0  0  0  0
  143.4779  144.6457  154.4542 H   0  0  0  0  0  0  0  0  0  0  0  0
  144.7331  145.5416  155.3143 H   0  0  0  0  0  0  0  0  0  0  0  0
  144.7151  142.1905  156.9099 H   0  0  0  0  0  0  0  0  0  0  0  0
  148.3501  141.7132  153.0362 H   0  0  0  0  0  0  0  0  0  0  0  0
  146.7151  140.0366  152.3360 H   0  0  0  0  0  0  0  0  0  0  0  0
  147.0264  139.0825  153.7846 H   0  0  0  0  0  0  0  0  0  0  0  0
  148.2932  139.2964  152.5805 H   0  0  0  0  0  0  0  0  0  0  0  0
  148.8084  140.0631  155.5482 H   0  0  0  0  0  0  0  0  0  0  0  0
  149.9483  140.3354  154.2569 H   0  0  0  0  0  0  0  0  0  0  0  0
  149.0547  142.8517  155.2548 H   0  0  0  0  0  0  0  0  0  0  0  0
  150.0321  144.0104  156.5623 H   0  0  0  0  0  0  0  0  0  0  0  0
  152.5658  143.8499  157.5758 H   0  0  0  0  0  0  0  0  0  0  0  0
  150.6519  142.2439  159.3527 H   0  0  0  0  0  0  0  0  0  0  0  0
  151.9877  141.5751  158.4546 H   0  0  0  0  0  0  0  0  0  0  0  0
  152.6366  141.8766  160.7891 H   0  0  0  0  0  0  0  0  0  0  0  0
  153.6114  142.9038  159.7700 H   0  0  0  0  0  0  0  0  0  0  0  0
  151.1624  143.8187  161.3770 H   0  0  0  0  0  0  0  0  0  0  0  0
  152.8343  144.1127  161.8174 H   0  0  0  0  0  0  0  0  0  0  0  0
  150.9727  145.7410  157.9137 H   0  0  0  0  0  0  0  0  0  0  0  0
  150.0604  144.7797  159.0630 H   0  0  0  0  0  0  0  0  0  0  0  0
  1  2  1  0  0  0  0
  1 20  1  0  0  0  0
  1 21  1  0  0  0  0
  1 22  1  0  0  0  0
  2 19  1  0  0  0  0
  2  3  2  0  0  0  0
  3  4  1  0  0  0  0
  3 23  1  0  0  0  0
  4  5  2  0  0  0  0
  5  6  1  0  0  0  0
  5 19  1  0  0  0  0
  6  7  1  0  0  0  0
  6  8  1  0  0  0  0
  6 24  1  0  0  0  0
  7 25  1  0  0  0  0
  7 26  1  0  0  0  0
  7 27  1  0  0  0  0
  8  9  1  0  0  0  0
  8 28  1  0  0  0  0
  8 29  1  0  0  0  0
  9 10  1  0  0  0  0
  9 30  1  0  0  0  0
 10 11  2  0  0  0  0
 10 12  1  0  0  0  0
 12 13  1  0  0  0  0
 12 31  1  0  0  0  0
 13 18  1  0  0  0  0
 13 14  1  0  0  0  0
 13 32  1  0  0  0  0
 14 15  1  0  0  0  0
 14 33  1  0  0  0  0
 14 34  1  0  0  0  0
 15 16  1  0  0  0  0
 15 35  1  0  0  0  0
 15 36  1  0  0  0  0
 16 17  1  0  0  0  0
 16 37  1  0  0  0  0
 16 38  1  0  0  0  0
 17 18  1  0  0  0  0
 18 39  1  0  0  0  0
 18 40  1  0  0  0  0
M  END
> <s_m_source_file>
AV-unprocessed.smi

> <i_m_source_file_index>
2474

> <i_lp_mmshare_version>
43012

> <i_f3d_flags>
0

> <s_epik_input>
W0NIM11jMVtjSF1uYyhzMSlbQ0BIXShbQ0gzXSlbQ0gyXVtOSF1DKD1PKVtOSF1bQ0BASF0yW0NIMl1bQ0gyXVtDSDJdU1tDSDJdMg==

> <s_epik_cmdline>
J2VwaWtfcHl0aG9uJywgJy1waCcsICc3LjAnLCAnLXRuJywgJzgnLCAnLW1hJywgJzIwMCcsICctbWV0YWxfYmluZGluZycsICctaW1hZScsICc8aW5maWxlLm1hZT4nLCAnLW9tYWUnLCAnPG91dGZpbGUubWFlPic=

> <r_epik_Ionization_Penalty>
0.000644338

> <r_epik_Ionization_Penalty_Charging>
0

> <r_epik_Ionization_Penalty_Neutral>
0.000644338

> <r_epik_State_Penalty>
0.000374131

> <r_epik_Charging_Adjusted_Penalty>
0.000374131

> <i_epik_Tot_Q>
0

> <i_epik_Tot_abs_Q>
0

> <r_epik_Metal_State_Penalty>
-0

> <b_epik_Metal_Only>
0

> <s_lp_Force_Field>
OPLS_2005

> <r_lp_Energy>
-6.83814

> <b_lp_Chiralities_Consistent>
1

> <s_lp_Variant>
AV-unprocessed.smi:2474-1

> <Gold.Version>
5.8.1

> <Gold.Id.Protein>
6NUR|6NUR_protein|mol2

> <Gold.PLP.Fitness>
49.1380

> <Gold.PLP.PLP>
-44.2856

> <Gold.PLP.part.hbond>
-2.0000

> <Gold.PLP.part.metal>
0.0000

> <Gold.PLP.part.buried>
-4.7957

> <Gold.PLP.part.nonpolar>
-36.6988

> <Gold.PLP.part.repulsive>
0.3189

> <Gold.PLP.ligand.clash>
0.0000

> <Gold.PLP.ligand.torsion>
0.5474

> <Gold.PLP.Chemscore.Hbond>
1.9280

> <Gold.PLP.Chemscore.CHOScore>
0.0000

> <Gold.PLP.Chemscore.Metal>
0.0000

> <Gold.Chemscore.Hbonds>
donor molecule, donor type, donor heavy atom, donor atom, acceptor molecule, acceptor atom, score
      L1  H     9    30       P1  8028  0.91
      L1  H    12    31       P1  8028  1.00

> <Gold.PLP.Chemscore.Internal.Correction>
0.1633

> <Gold.Rescore>
     Score         DG    S(hbond)    S(metal)    S(lipo)     H(rot)  DE(clash)    DE(int)     intcor
     19.30     -21.23       1.87        0.00     113.27       1.46       0.07       1.86       ----

> <Gold.Chemscore.Fitness>
19.2979

> <Gold.Chemscore.DG>
-21.2322

> <Gold.Chemscore.ZeroCoef>
-5.4800

> <Gold.Chemscore.Hbond>
1.8687

> <Gold.Chemscore.Metal>
0.0000

> <Gold.Chemscore.Lipo>
113.2666

> <Gold.Chemscore.Internal_Hbond>
0.0000

> <Gold.Chemscore.DEClash>
0.0707

> <Gold.Chemscore.DEInternal>
1.8635

> <Gold.Chemscore.Rot>
1.4616

> <Gold.Chemscore.Internal.Correction>
   9.000000E+99

> <Gold.Chemscore.Hbonds>
donor molecule, donor type, donor heavy atom, donor atom, acceptor molecule, acceptor atom, score
      L1  H     9    30       P1  8028  0.89
      L1  H    12    31       P1  8028  0.98

> <Gold.Chemscore.Hbond.Weighted>
-6.2416

> <Gold.Chemscore.Metal.Weighted>
-0.0000

> <Gold.Chemscore.Lipo.Weighted>
-13.2522

> <Gold.Chemscore.Internal_Hbond.Weighted>
0.0000

> <Gold.Chemscore.DEClash.Weighted>
0.0707

> <Gold.Chemscore.DEInternal.Weighted>
1.8635

> <Gold.Chemscore.Rot.Weighted>
3.7416

> <Gold.Chemscore.Internal.Correction.Weighted>
   9.000000E+99

> <Gold.Protein.RotatedTorsions>
[ 6907 6896 6895 6894 ] final  -10.62 input  -60.11 | X-H torsion
[ 7974 7965 7964 7962 ] final  121.44 input  175.53 | X-H torsion
[ 8008 7997 7996 7995 ] final   11.23 input   59.86 | X-H torsion
[ 10167 10162 10161 10158 ] final    1.10 input  -65.29 | X-H torsion
[ 10718 10713 10712 10709 ] final   84.19 input   66.30 | X-H torsion
[ 10763 10752 10751 10750 ] final   85.31 input  -60.55 | X-H torsion
[ 11005 11000 10999 10996 ] final  157.79 input  -57.11 | X-H torsion

> <Gold.Protein.ActiveResidues>
 VAL166  LYS551  ARG553  GLY616  TRP617  ASP618  TYR619  PRO620  LYS621  CYS622 
 ASP623  PHE694  ASN695  SER759  ASP760  ASP761  ALA762  ILE779  LEU786  VAL792 
 PHE793  MET794  SER795  GLU796  ALA797  LYS798  CYS799  TRP800  GLU811  SER814 

> <Gold.Protein.RotatedAtoms>
  151.3990  135.0968  159.9549 H   0  0  0  0  0  0  0  0  0  0  0  0  # atno 6907 bound_to 6896
  152.5056  133.8906  159.7402 H   0  0  0  0  0  0  0  0  0  0  0  0  # atno 6908 bound_to 6896
  150.9376  133.6637  159.2826 H   0  0  0  0  0  0  0  0  0  0  0  0  # atno 6909 bound_to 6896
  145.1192  139.3400  143.4723 H   0  0  0  0  0  0  0  0  0  0  0  0  # atno 7974 bound_to 7965
  154.8040  140.2857  155.5900 H   0  0  0  0  0  0  0  0  0  0  0  0  # atno 8008 bound_to 7997
  156.2980  140.2581  156.2844 H   0  0  0  0  0  0  0  0  0  0  0  0  # atno 8009 bound_to 7997
  154.9524  140.0379  157.2140 H   0  0  0  0  0  0  0  0  0  0  0  0  # atno 8010 bound_to 7997
  140.6698  143.7079  150.7900 H   0  0  0  0  0  0  0  0  0  0  0  0  # atno 10167 bound_to 10162
  157.6893  131.0123  150.2636 H   0  0  0  0  0  0  0  0  0  0  0  0  # atno 10718 bound_to 10713
  153.1463  135.4622  154.9570 H   0  0  0  0  0  0  0  0  0  0  0  0  # atno 10763 bound_to 10752
  154.7788  135.3182  154.8036 H   0  0  0  0  0  0  0  0  0  0  0  0  # atno 10764 bound_to 10752
  153.8550  135.6918  153.4842 H   0  0  0  0  0  0  0  0  0  0  0  0  # atno 10765 bound_to 10752
  140.1803  134.8480  157.2795 H   0  0  0  0  0  0  0  0  0  0  0  0  # atno 11005 bound_to 11000
  146.3522  140.1145  142.8602 LP  0  0  0  0  0  0  0  0  0  0  0  0  # atno 17320 bound_to 7965
  145.0759  140.9187  143.4854 LP  0  0  0  0  0  0  0  0  0  0  0  0  # atno 17321 bound_to 7965
  140.0762  143.5013  152.2554 LP  0  0  0  0  0  0  0  0  0  0  0  0  # atno 17342 bound_to 10162
  139.5962  144.7568  151.3280 LP  0  0  0  0  0  0  0  0  0  0  0  0  # atno 17343 bound_to 10162
  156.3211  130.3786  149.7574 LP  0  0  0  0  0  0  0  0  0  0  0  0  # atno 17370 bound_to 10713
  156.5144  130.8186  151.3181 LP  0  0  0  0  0  0  0  0  0  0  0  0  # atno 17371 bound_to 10713
  140.2275  134.3949  155.7537 LP  0  0  0  0  0  0  0  0  0  0  0  0  # atno 17394 bound_to 11000
  141.2222  133.7197  156.8588 LP  0  0  0  0  0  0  0  0  0  0  0  0  # atno 17395 bound_to 11000

$$$$
