AV-unprocessed.smi:3343|AV-procd|sdf|12896|dock6
  -GOLD-   2272019303D 1   1.00000     0.00000
 Structure written by MMmdl.
 42 43  0  0  0  0  0  0  0  0  2 V2000
  152.4514  138.0233  154.8641 C   0  0  0  0  0  0  0  0  0  0  0  0
  150.9550  138.1477  154.5219 C   0  0  1  0  0  0  0  0  0  0  0  0
  150.0808  137.1787  155.3320 C   0  0  0  0  0  0  0  0  0  0  0  0
  150.0626  137.2266  156.5628 O   0  0  0  0  0  0  0  0  0  0  0  0
  149.3546  136.2996  154.6237 N   0  0  0  0  0  0  0  0  0  0  0  0
  148.4542  135.3046  155.1939 C   0  0  0  0  0  0  0  0  0  0  0  0
  146.9933  135.5551  154.7729 C   0  0  0  0  0  0  0  0  0  0  0  0
  146.7762  135.3284  153.3226 N   0  3  0  0  0  0  0  0  0  0  0  0
  145.6089  136.0792  152.7999 C   0  0  0  0  0  0  0  0  0  0  0  0
  145.4805  135.8917  151.2734 C   0  0  0  0  0  0  0  0  0  0  0  0
  145.3736  134.4808  150.8982 N   0  0  0  0  0  0  0  0  0  0  0  0
  144.0893  133.8882  151.2556 C   0  0  0  0  0  0  0  0  0  0  0  0
  146.5182  133.7366  151.4260 C   0  0  0  0  0  0  0  0  0  0  0  0
  146.6630  133.8947  152.9545 C   0  0  0  0  0  0  0  0  0  0  0  0
  150.4855  139.5147  154.6986 N   0  0  0  0  0  0  0  0  0  0  0  0
  149.4757  140.0089  155.4207 C   0  0  0  0  0  0  0  0  0  0  0  0
  149.3368  141.3233  155.3211 N   0  0  0  0  0  0  0  0  0  0  0  0
  150.3617  141.5960  154.4602 C   0  0  0  0  0  0  0  0  0  0  0  0
  151.0774  140.5478  154.0524 N   0  0  0  0  0  0  0  0  0  0  0  0
  152.8045  137.0009  154.7247 H   0  0  0  0  0  0  0  0  0  0  0  0
  152.6590  138.3087  155.8961 H   0  0  0  0  0  0  0  0  0  0  0  0
  153.0507  138.6659  154.2184 H   0  0  0  0  0  0  0  0  0  0  0  0
  150.8423  137.8871  153.4675 H   0  0  0  0  0  0  0  0  0  0  0  0
  149.4218  136.3337  153.6162 H   0  0  0  0  0  0  0  0  0  0  0  0
  148.7715  134.3029  154.8987 H   0  0  0  0  0  0  0  0  0  0  0  0
  148.5606  135.3572  156.2768 H   0  0  0  0  0  0  0  0  0  0  0  0
  146.3096  134.9329  155.3525 H   0  0  0  0  0  0  0  0  0  0  0  0
  146.7400  136.5901  155.0071 H   0  0  0  0  0  0  0  0  0  0  0  0
  144.6998  135.7650  153.3142 H   0  0  0  0  0  0  0  0  0  0  0  0
  145.7352  137.1410  153.0145 H   0  0  0  0  0  0  0  0  0  0  0  0
  144.6172  136.4390  150.8931 H   0  0  0  0  0  0  0  0  0  0  0  0
  146.3561  136.3157  150.7796 H   0  0  0  0  0  0  0  0  0  0  0  0
  144.0376  132.8588  150.8997 H   0  0  0  0  0  0  0  0  0  0  0  0
  143.2756  134.4408  150.7849 H   0  0  0  0  0  0  0  0  0  0  0  0
  143.9142  133.8817  152.3306 H   0  0  0  0  0  0  0  0  0  0  0  0
  146.4245  132.6832  151.1593 H   0  0  0  0  0  0  0  0  0  0  0  0
  147.4227  134.0992  150.9356 H   0  0  0  0  0  0  0  0  0  0  0  0
  147.5538  133.3555  153.2746 H   0  0  0  0  0  0  0  0  0  0  0  0
  145.8216  133.4383  153.4773 H   0  0  0  0  0  0  0  0  0  0  0  0
  148.8283  139.3946  156.0294 H   0  0  0  0  0  0  0  0  0  0  0  0
  150.5849  142.5970  154.1209 H   0  0  0  0  0  0  0  0  0  0  0  0
  147.5859  135.6968  152.8444 H   0  0  0  0  0  0  0  0  0  0  0  0
  1  2  1  0  0  0  0
  1 20  1  0  0  0  0
  1 21  1  0  0  0  0
  1 22  1  0  0  0  0
  2  3  1  0  0  0  0
  2 15  1  0  0  0  0
  2 23  1  0  0  0  0
  3  4  2  0  0  0  0
  3  5  1  0  0  0  0
  5  6  1  0  0  0  0
  5 24  1  0  0  0  0
  6  7  1  0  0  0  0
  6 25  1  0  0  0  0
  6 26  1  0  0  0  0
  7  8  1  0  0  0  0
  7 27  1  0  0  0  0
  7 28  1  0  0  0  0
  8 14  1  0  0  0  0
  8  9  1  0  0  0  0
  8 42  1  0  0  0  0
  9 10  1  0  0  0  0
  9 29  1  0  0  0  0
  9 30  1  0  0  0  0
 10 11  1  0  0  0  0
 10 31  1  0  0  0  0
 10 32  1  0  0  0  0
 11 12  1  0  0  0  0
 11 13  1  0  0  0  0
 12 33  1  0  0  0  0
 12 34  1  0  0  0  0
 12 35  1  0  0  0  0
 13 14  1  0  0  0  0
 13 36  1  0  0  0  0
 13 37  1  0  0  0  0
 14 38  1  0  0  0  0
 14 39  1  0  0  0  0
 15 19  1  0  0  0  0
 15 16  1  0  0  0  0
 16 17  2  0  0  0  0
 16 40  1  0  0  0  0
 17 18  1  0  0  0  0
 18 19  2  0  0  0  0
 18 41  1  0  0  0  0
M  CHG  1   8   1
M  END
> <s_m_source_file>
AV-unprocessed.smi

> <i_m_source_file_index>
3343

> <i_lp_mmshare_version>
43012

> <i_f3d_flags>
0

> <s_epik_input>
bjFbY0hdbltjSF1uMVtDQEhdKFtDSDNdKUMoPU8pW05IXVtDSDJdW0NIMl1OMltDSDJdW0NIMl1OKFtDSDNdKVtDSDJdW0NIMl0y

> <s_epik_cmdline>
J2VwaWtfcHl0aG9uJywgJy1waCcsICc3LjAnLCAnLXRuJywgJzgnLCAnLW1hJywgJzIwMCcsICctbWV0YWxfYmluZGluZycsICctaW1hZScsICc8aW5maWxlLm1hZT4nLCAnLW9tYWUnLCAnPG91dGZpbGUubWFlPic=

> <r_epik_Ionization_Penalty>
0.559944

> <r_epik_Ionization_Penalty_Charging>
0.558624

> <r_epik_Ionization_Penalty_Neutral>
0.00131959

> <r_epik_State_Penalty>
2.08679

> <r_epik_Charging_Adjusted_Penalty>
2.64542

> <i_epik_Tot_Q>
1

> <i_epik_Tot_abs_Q>
1

> <r_epik_Metal_State_Penalty>
2.0868

> <b_epik_Metal_Only>
0

> <s_lp_Force_Field>
OPLS_2005

> <r_lp_Energy>
21.6118

> <b_lp_Chiralities_Consistent>
1

> <s_lp_Variant>
AV-unprocessed.smi:3343-6

> <Gold.Version>
5.8.1

> <Gold.Id.Protein>
6NUR|6NUR_protein|mol2

> <Gold.PLP.Fitness>
43.4589

> <Gold.PLP.PLP>
-29.1033

> <Gold.PLP.part.hbond>
-3.0081

> <Gold.PLP.part.metal>
0.0000

> <Gold.PLP.part.buried>
-4.4651

> <Gold.PLP.part.nonpolar>
-22.6958

> <Gold.PLP.part.repulsive>
0.3734

> <Gold.PLP.ligand.clash>
0.0000

> <Gold.PLP.ligand.torsion>
0.2824

> <Gold.PLP.Chemscore.Hbond>
3.9440

> <Gold.PLP.Chemscore.CHOScore>
0.9974

> <Gold.PLP.Chemscore.Metal>
0.0000

> <Gold.Chemscore.Hbonds>
donor molecule, donor type, donor heavy atom, donor atom, acceptor molecule, acceptor atom, score
      L1  H     5    24       P1  7948  1.00
      L1  H     8    42       P1  7948  2.00

> <Gold.PLP.Chemscore.Internal.Correction>
0.0961

> <Gold.Rescore>
     Score         DG    S(hbond)    S(metal)    S(lipo)     H(rot)  DE(clash)    DE(int)     intcor
     13.36     -13.96       2.90        0.00      47.29       2.63       0.00       0.59       ----

> <Gold.Chemscore.Fitness>
13.3635

> <Gold.Chemscore.DG>
-13.9559

> <Gold.Chemscore.ZeroCoef>
-5.4800

> <Gold.Chemscore.Hbond>
2.8954

> <Gold.Chemscore.Metal>
0.0000

> <Gold.Chemscore.Lipo>
47.2853

> <Gold.Chemscore.Internal_Hbond>
0.0000

> <Gold.Chemscore.DEClash>
0.0015

> <Gold.Chemscore.DEInternal>
0.5909

> <Gold.Chemscore.Rot>
2.6278

> <Gold.Chemscore.Internal.Correction>
   9.000000E+99

> <Gold.Chemscore.Hbonds>
donor molecule, donor type, donor heavy atom, donor atom, acceptor molecule, acceptor atom, score
      L1  H     5    24       P1  7948  0.74
      L1  H     8    42       P1  7948  1.00

> <Gold.Chemscore.Hbond.Weighted>
-9.6706

> <Gold.Chemscore.Metal.Weighted>
-0.0000

> <Gold.Chemscore.Lipo.Weighted>
-5.5324

> <Gold.Chemscore.Internal_Hbond.Weighted>
0.0000

> <Gold.Chemscore.DEClash.Weighted>
0.0015

> <Gold.Chemscore.DEInternal.Weighted>
0.5909

> <Gold.Chemscore.Rot.Weighted>
6.7271

> <Gold.Chemscore.Internal.Correction.Weighted>
   9.000000E+99

> <Gold.Protein.RotatedTorsions>
[ 6907 6896 6895 6894 ] final   23.28 input  -60.11 | X-H torsion
[ 7974 7965 7964 7962 ] final  120.81 input  175.53 | X-H torsion
[ 8008 7997 7996 7995 ] final   24.85 input   59.86 | X-H torsion
[ 10167 10162 10161 10158 ] final -156.77 input  -65.29 | X-H torsion
[ 10718 10713 10712 10709 ] final  -82.60 input   66.30 | X-H torsion
[ 10763 10752 10751 10750 ] final  148.95 input  -60.55 | X-H torsion
[ 11005 11000 10999 10996 ] final -107.81 input  -57.11 | X-H torsion

> <Gold.Protein.ActiveResidues>
 VAL166  LYS551  ARG553  GLY616  TRP617  ASP618  TYR619  PRO620  LYS621  CYS622 
 ASP623  PHE694  ASN695  SER759  ASP760  ASP761  ALA762  ILE779  LEU786  VAL792 
 PHE793  MET794  SER795  GLU796  ALA797  LYS798  CYS799  TRP800  GLU811  SER814 

> <Gold.Protein.RotatedAtoms>
  151.9399  135.0218  160.0534 H   0  0  0  0  0  0  0  0  0  0  0  0  # atno 6907 bound_to 6896
  152.2045  133.4861  159.5085 H   0  0  0  0  0  0  0  0  0  0  0  0  # atno 6908 bound_to 6896
  150.6962  134.1464  159.4167 H   0  0  0  0  0  0  0  0  0  0  0  0  # atno 6909 bound_to 6896
  145.1268  139.3353  143.4686 H   0  0  0  0  0  0  0  0  0  0  0  0  # atno 7974 bound_to 7965
  155.0026  140.3127  155.4861 H   0  0  0  0  0  0  0  0  0  0  0  0  # atno 8008 bound_to 7997
  156.2922  140.2229  156.5078 H   0  0  0  0  0  0  0  0  0  0  0  0  # atno 8009 bound_to 7997
  154.7605  140.0459  157.0957 H   0  0  0  0  0  0  0  0  0  0  0  0  # atno 8010 bound_to 7997
  139.6824  143.9559  152.2343 H   0  0  0  0  0  0  0  0  0  0  0  0  # atno 10167 bound_to 10162
  156.0030  130.4639  150.4129 H   0  0  0  0  0  0  0  0  0  0  0  0  # atno 10718 bound_to 10713
  154.0632  135.2872  155.3321 H   0  0  0  0  0  0  0  0  0  0  0  0  # atno 10763 bound_to 10752
  154.6795  135.5269  153.8247 H   0  0  0  0  0  0  0  0  0  0  0  0  # atno 10764 bound_to 10752
  153.0514  135.6578  154.0819 H   0  0  0  0  0  0  0  0  0  0  0  0  # atno 10765 bound_to 10752
  141.0935  133.9013  157.2020 H   0  0  0  0  0  0  0  0  0  0  0  0  # atno 11005 bound_to 11000
  146.3517  140.1250  142.8599 LP  0  0  0  0  0  0  0  0  0  0  0  0  # atno 17320 bound_to 7965
  145.0679  140.9135  143.4899 LP  0  0  0  0  0  0  0  0  0  0  0  0  # atno 17321 bound_to 7965
  139.9353  144.6716  150.8321 LP  0  0  0  0  0  0  0  0  0  0  0  0  # atno 17342 bound_to 10162
  140.7656  143.3281  151.2471 LP  0  0  0  0  0  0  0  0  0  0  0  0  # atno 17343 bound_to 10162
  157.2191  131.0478  151.2557 LP  0  0  0  0  0  0  0  0  0  0  0  0  # atno 17370 bound_to 10713
  157.3817  130.7235  149.6635 LP  0  0  0  0  0  0  0  0  0  0  0  0  # atno 17371 bound_to 10713
  139.9766  135.0112  156.9645 LP  0  0  0  0  0  0  0  0  0  0  0  0  # atno 17394 bound_to 11000
  140.5197  134.0920  155.7289 LP  0  0  0  0  0  0  0  0  0  0  0  0  # atno 17395 bound_to 11000

$$$$
