AV-unprocessed.smi:1240|AV-procd|sdf|5205|dock8
  -GOLD-   22720 4293D 1   1.00000     0.00000
 Structure written by MMmdl.
 48 50  0  0  0  0  0  0  0  0  2 V2000
  145.2760  135.0405  154.1445 O   0  0  0  0  0  0  0  0  0  0  0  0
  146.3275  135.2252  153.5321 C   0  0  0  0  0  0  0  0  0  0  0  0
  147.3107  136.0203  153.9769 N   0  0  0  0  0  0  0  0  0  0  0  0
  147.2795  136.7711  155.2299 C   0  0  0  0  0  0  0  0  0  0  0  0
  148.5898  137.5723  155.5134 C   0  0  2  0  0  0  0  0  0  0  0  0
  149.0746  137.2599  156.9710 C   0  0  1  0  0  0  0  0  0  0  0  0
  148.2450  137.7127  158.1604 C   0  0  0  0  0  0  0  0  0  0  0  0
  148.9038  136.9457  159.3002 C   0  0  0  0  0  0  0  0  0  0  0  0
  149.2779  135.6942  158.7339 O   0  0  0  0  0  0  0  0  0  0  0  0
  149.2451  135.7741  157.3104 C   0  0  0  0  0  0  0  0  0  0  0  0
  148.5189  139.0240  155.2073 N   0  0  0  0  0  0  0  0  0  0  0  0
  149.8395  139.6629  155.2859 C   0  0  0  0  0  0  0  0  0  0  0  0
  149.7622  141.1842  155.0808 C   0  0  0  0  0  0  0  0  0  0  0  0
  149.1893  141.4560  153.8078 O   0  0  0  0  0  0  0  0  0  0  0  0
  147.8966  140.8817  153.6600 C   0  0  0  0  0  0  0  0  0  0  0  0
  147.9670  139.3609  153.8908 C   0  0  0  0  0  0  0  0  0  0  0  0
  146.6355  134.6887  152.3385 N   0  0  0  0  0  0  0  0  0  0  0  0
  145.8546  133.8131  151.5357 C   0  0  0  0  0  0  0  0  0  0  0  0
  146.5292  133.0370  150.5669 C   0  0  0  0  0  0  0  0  0  0  0  0
  145.7966  132.1466  149.7557 C   0  0  0  0  0  0  0  0  0  0  0  0
  144.4609  132.0338  149.9171 N   0  3  0  0  0  0  0  0  0  0  0  0
  143.7745  132.7420  150.8393 C   0  0  0  0  0  0  0  0  0  0  0  0
  144.4530  133.6484  151.6791 C   0  0  0  0  0  0  0  0  0  0  0  0
  148.1405  136.1194  153.4102 H   0  0  0  0  0  0  0  0  0  0  0  0
  146.4152  137.4348  155.1811 H   0  0  0  0  0  0  0  0  0  0  0  0
  147.0779  136.0673  156.0377 H   0  0  0  0  0  0  0  0  0  0  0  0
  149.3362  137.1440  154.8427 H   0  0  0  0  0  0  0  0  0  0  0  0
  150.0496  137.7326  157.0991 H   0  0  0  0  0  0  0  0  0  0  0  0
  148.2522  138.7922  158.3131 H   0  0  0  0  0  0  0  0  0  0  0  0
  147.2140  137.3684  158.0814 H   0  0  0  0  0  0  0  0  0  0  0  0
  149.8025  137.4619  159.6401 H   0  0  0  0  0  0  0  0  0  0  0  0
  148.2413  136.8163  160.1562 H   0  0  0  0  0  0  0  0  0  0  0  0
  148.3945  135.1940  156.9502 H   0  0  0  0  0  0  0  0  0  0  0  0
  150.1516  135.3468  156.8812 H   0  0  0  0  0  0  0  0  0  0  0  0
  150.3388  139.4631  156.2282 H   0  0  0  0  0  0  0  0  0  0  0  0
  150.4927  139.2403  154.5207 H   0  0  0  0  0  0  0  0  0  0  0  0
  149.1694  141.6524  155.8682 H   0  0  0  0  0  0  0  0  0  0  0  0
  150.7588  141.6242  155.1229 H   0  0  0  0  0  0  0  0  0  0  0  0
  147.2046  141.3455  154.3647 H   0  0  0  0  0  0  0  0  0  0  0  0
  147.5250  141.0965  152.6581 H   0  0  0  0  0  0  0  0  0  0  0  0
  148.5672  138.9012  153.1041 H   0  0  0  0  0  0  0  0  0  0  0  0
  146.9542  138.9713  153.7921 H   0  0  0  0  0  0  0  0  0  0  0  0
  147.5034  134.9978  151.9258 H   0  0  0  0  0  0  0  0  0  0  0  0
  147.5984  133.1260  150.4385 H   0  0  0  0  0  0  0  0  0  0  0  0
  146.2360  131.5247  148.9894 H   0  0  0  0  0  0  0  0  0  0  0  0
  142.7106  132.5594  150.8817 H   0  0  0  0  0  0  0  0  0  0  0  0
  143.8873  134.1893  152.4223 H   0  0  0  0  0  0  0  0  0  0  0  0
  143.9491  131.3827  149.3208 H   0  0  0  0  0  0  0  0  0  0  0  0
  1  2  2  0  0  0  0
  2  3  1  0  0  0  0
  2 17  1  0  0  0  0
  3  4  1  0  0  0  0
  3 24  1  0  0  0  0
  4  5  1  0  0  0  0
  4 25  1  0  0  0  0
  4 26  1  0  0  0  0
  5  6  1  0  0  0  0
  5 11  1  0  0  0  0
  5 27  1  0  0  0  0
  6 10  1  0  0  0  0
  6  7  1  0  0  0  0
  6 28  1  0  0  0  0
  7  8  1  0  0  0  0
  7 29  1  0  0  0  0
  7 30  1  0  0  0  0
  8  9  1  0  0  0  0
  8 31  1  0  0  0  0
  8 32  1  0  0  0  0
  9 10  1  0  0  0  0
 10 33  1  0  0  0  0
 10 34  1  0  0  0  0
 11 16  1  0  0  0  0
 11 12  1  0  0  0  0
 12 13  1  0  0  0  0
 12 35  1  0  0  0  0
 12 36  1  0  0  0  0
 13 14  1  0  0  0  0
 13 37  1  0  0  0  0
 13 38  1  0  0  0  0
 14 15  1  0  0  0  0
 15 16  1  0  0  0  0
 15 39  1  0  0  0  0
 15 40  1  0  0  0  0
 16 41  1  0  0  0  0
 16 42  1  0  0  0  0
 17 18  1  0  0  0  0
 17 43  1  0  0  0  0
 18 23  1  0  0  0  0
 18 19  2  0  0  0  0
 19 20  1  0  0  0  0
 19 44  1  0  0  0  0
 20 21  2  0  0  0  0
 20 45  1  0  0  0  0
 21 22  1  0  0  0  0
 21 48  1  0  0  0  0
 22 23  2  0  0  0  0
 22 46  1  0  0  0  0
 23 47  1  0  0  0  0
M  CHG  1  21   1
M  END
> <s_m_source_file>
AV-unprocessed.smi

> <i_m_source_file_index>
1240

> <i_lp_mmshare_version>
43012

> <i_f3d_flags>
0

> <s_epik_input>
W2NIXTFbY0hdbltjSF1bY0hdYzFbTkhdQyg9TylbTkhdW0NIMl1bQ0BIXShbQ0BASF0yW0NIMl1bQ0gyXU9bQ0gyXTIpTjNbQ0gyXVtDSDJdT1tDSDJdW0NIMl0z

> <s_epik_cmdline>
J2VwaWtfcHl0aG9uJywgJy1waCcsICc3LjAnLCAnLXRuJywgJzgnLCAnLW1hJywgJzIwMCcsICctbWV0YWxfYmluZGluZycsICctaW1hZScsICc8aW5maWxlLm1hZT4nLCAnLW9tYWUnLCAnPG91dGZpbGUubWFlPic=

> <r_epik_Ionization_Penalty>
1.15944

> <r_epik_Ionization_Penalty_Charging>
1.0344

> <r_epik_Ionization_Penalty_Neutral>
0.125034

> <r_epik_State_Penalty>
1.2199

> <r_epik_Charging_Adjusted_Penalty>
2.25431

> <i_epik_Tot_Q>
1

> <i_epik_Tot_abs_Q>
1

> <r_epik_Metal_State_Penalty>
1.3155

> <b_epik_Metal_Only>
0

> <s_lp_Force_Field>
OPLS_2005

> <r_lp_Energy>
67.1195

> <b_lp_Chiralities_Consistent>
1

> <s_lp_Variant>
AV-unprocessed.smi:1240-11

> <Gold.Version>
5.8.1

> <Gold.Id.Protein>
6NUR|6NUR_protein|mol2

> <Gold.PLP.Fitness>
42.3712

> <Gold.PLP.PLP>
-32.5604

> <Gold.PLP.part.hbond>
-5.0000

> <Gold.PLP.part.metal>
0.0000

> <Gold.PLP.part.buried>
-3.4836

> <Gold.PLP.part.nonpolar>
-23.9881

> <Gold.PLP.part.repulsive>
1.0722

> <Gold.PLP.ligand.clash>
0.0000

> <Gold.PLP.ligand.torsion>
0.8156

> <Gold.PLP.Chemscore.Hbond>
3.7520

> <Gold.PLP.Chemscore.CHOScore>
0.0000

> <Gold.PLP.Chemscore.Metal>
0.0000

> <Gold.Chemscore.Hbonds>
donor molecule, donor type, donor heavy atom, donor atom, acceptor molecule, acceptor atom, score
      L1  H     3    24       P1  7948  1.00
      L1  H    17    43       P1  7948  1.00
      P1  H  6896  6908       L1     9  1.00
      P1  H  8011  8017       L1    14  0.77

> <Gold.PLP.Chemscore.Internal.Correction>
0.1860

> <Gold.Rescore>
     Score         DG    S(hbond)    S(metal)    S(lipo)     H(rot)  DE(clash)    DE(int)     intcor
     20.09     -22.28       3.67        0.00      75.97       1.69       0.22       1.97       ----

> <Gold.Chemscore.Fitness>
20.0883

> <Gold.Chemscore.DG>
-22.2830

> <Gold.Chemscore.ZeroCoef>
-5.4800

> <Gold.Chemscore.Hbond>
3.6660

> <Gold.Chemscore.Metal>
0.0000

> <Gold.Chemscore.Lipo>
75.9655

> <Gold.Chemscore.Internal_Hbond>
0.0000

> <Gold.Chemscore.DEClash>
0.2212

> <Gold.Chemscore.DEInternal>
1.9734

> <Gold.Chemscore.Rot>
1.6912

> <Gold.Chemscore.Internal.Correction>
   9.000000E+99

> <Gold.Chemscore.Hbonds>
donor molecule, donor type, donor heavy atom, donor atom, acceptor molecule, acceptor atom, score
      L1  H     3    24       P1  7948  0.96
      L1  H    17    43       P1  7948  0.85
      P1  H  6896  6908       L1     9  0.80
      P1  H  8011  8017       L1    14  0.69

> <Gold.Chemscore.Hbond.Weighted>
-12.2444

> <Gold.Chemscore.Metal.Weighted>
-0.0000

> <Gold.Chemscore.Lipo.Weighted>
-8.8880

> <Gold.Chemscore.Internal_Hbond.Weighted>
0.0000

> <Gold.Chemscore.DEClash.Weighted>
0.2212

> <Gold.Chemscore.DEInternal.Weighted>
1.9734

> <Gold.Chemscore.Rot.Weighted>
4.3295

> <Gold.Chemscore.Internal.Correction.Weighted>
   9.000000E+99

> <Gold.Protein.RotatedTorsions>
[ 6907 6896 6895 6894 ] final  155.37 input  -60.11 | X-H torsion
[ 7974 7965 7964 7962 ] final  -95.25 input  175.53 | X-H torsion
[ 8008 7997 7996 7995 ] final -118.55 input   59.86 | X-H torsion
[ 10167 10162 10161 10158 ] final  121.53 input  -65.29 | X-H torsion
[ 10718 10713 10712 10709 ] final   89.44 input   66.30 | X-H torsion
[ 10763 10752 10751 10750 ] final  -81.71 input  -60.55 | X-H torsion
[ 11005 11000 10999 10996 ] final  -41.87 input  -57.11 | X-H torsion

> <Gold.Protein.ActiveResidues>
 VAL166  LYS551  ARG553  GLY616  TRP617  ASP618  TYR619  PRO620  LYS621  CYS622 
 ASP623  PHE694  ASN695  SER759  ASP760  ASP761  ALA762  ILE779  LEU786  VAL792 
 PHE793  MET794  SER795  GLU796  ALA797  LYS798  CYS799  TRP800  GLU811  SER814 

> <Gold.Protein.RotatedAtoms>
  152.0452  133.3994  159.4353 H   0  0  0  0  0  0  0  0  0  0  0  0  # atno 6907 bound_to 6896
  150.6873  134.3370  159.4861 H   0  0  0  0  0  0  0  0  0  0  0  0  # atno 6908 bound_to 6896
  152.1173  134.9230  160.0615 H   0  0  0  0  0  0  0  0  0  0  0  0  # atno 6909 bound_to 6896
  145.3626  140.9494  143.2492 H   0  0  0  0  0  0  0  0  0  0  0  0  # atno 7974 bound_to 7965
  155.1014  140.0396  157.2698 H   0  0  0  0  0  0  0  0  0  0  0  0  # atno 8008 bound_to 7997
  154.6755  140.2621  155.6937 H   0  0  0  0  0  0  0  0  0  0  0  0  # atno 8009 bound_to 7997
  156.2675  140.2789  156.1280 H   0  0  0  0  0  0  0  0  0  0  0  0  # atno 8010 bound_to 7997
  139.5914  144.7026  151.3281 H   0  0  0  0  0  0  0  0  0  0  0  0  # atno 10167 bound_to 10162
  157.6955  131.0333  150.3427 H   0  0  0  0  0  0  0  0  0  0  0  0  # atno 10718 bound_to 10713
  154.5669  135.5616  153.7059 H   0  0  0  0  0  0  0  0  0  0  0  0  # atno 10763 bound_to 10752
  153.0036  135.6287  154.2167 H   0  0  0  0  0  0  0  0  0  0  0  0  # atno 10764 bound_to 10752
  154.2106  135.2874  155.2939 H   0  0  0  0  0  0  0  0  0  0  0  0  # atno 10765 bound_to 10752
  141.0276  133.6834  156.2517 H   0  0  0  0  0  0  0  0  0  0  0  0  # atno 11005 bound_to 11000
  144.8635  139.5142  143.6801 LP  0  0  0  0  0  0  0  0  0  0  0  0  # atno 17320 bound_to 7965
  146.2921  139.7168  142.9153 LP  0  0  0  0  0  0  0  0  0  0  0  0  # atno 17321 bound_to 7965
  140.7176  143.7224  150.7685 LP  0  0  0  0  0  0  0  0  0  0  0  0  # atno 17342 bound_to 10162
  140.0781  143.4996  152.2545 LP  0  0  0  0  0  0  0  0  0  0  0  0  # atno 17343 bound_to 10162
  156.3885  130.3893  149.7047 LP  0  0  0  0  0  0  0  0  0  0  0  0  # atno 17370 bound_to 10713
  156.4405  130.7859  151.2880 LP  0  0  0  0  0  0  0  0  0  0  0  0  # atno 17371 bound_to 10713
  140.6463  134.5113  157.5574 LP  0  0  0  0  0  0  0  0  0  0  0  0  # atno 17394 bound_to 11000
  139.9186  134.8194  156.1284 LP  0  0  0  0  0  0  0  0  0  0  0  0  # atno 17395 bound_to 11000

$$$$
