AV-unprocessed.smi:1994|AV-procd|sdf|8072|dock9
  -GOLD-   2272010283D 1   1.00000     0.00000
 Structure written by MMmdl.
 39 41  0  0  0  0  0  0  0  0  1 V2000
  150.6386  145.4133  159.9737 C   0  0  0  0  0  0  0  0  0  0  0  0
  151.5652  144.3138  160.3859 C   0  0  0  0  0  0  0  0  0  0  0  0
  151.9287  144.1287  161.6552 N   0  0  0  0  0  0  0  0  0  0  0  0
  152.7760  143.0406  161.5720 C   0  0  0  0  0  0  0  0  0  0  0  0
  153.4927  142.3556  162.5793 C   0  0  0  0  0  0  0  0  0  0  0  0
  154.3104  141.2545  162.2502 C   0  0  0  0  0  0  0  0  0  0  0  0
  154.4215  140.8224  160.9127 C   0  0  0  0  0  0  0  0  0  0  0  0
  153.7143  141.4895  159.8941 C   0  0  0  0  0  0  0  0  0  0  0  0
  152.9009  142.5891  160.2273 C   0  0  0  0  0  0  0  0  0  0  0  0
  152.0910  143.4457  159.4872 N   0  0  0  0  0  0  0  0  0  0  0  0
  151.8718  143.4050  158.0476 C   0  0  0  0  0  0  0  0  0  0  0  0
  150.8665  142.3135  157.6274 C   0  0  2  0  0  0  0  0  0  0  0  0
  151.2039  141.0852  158.2410 O   0  0  0  0  0  0  0  0  0  0  0  0
  150.8338  142.1007  156.1071 C   0  0  0  0  0  0  0  0  0  0  0  0
  150.3885  140.7787  155.8337 O   0  0  0  0  0  0  0  0  0  0  0  0
  149.2040  140.6164  155.1467 C   0  0  0  0  0  0  0  0  0  0  0  0
  148.3280  141.6799  154.8098 C   0  0  0  0  0  0  0  0  0  0  0  0
  147.1363  141.4263  154.1029 C   0  0  0  0  0  0  0  0  0  0  0  0
  146.8043  140.1121  153.7257 C   0  0  0  0  0  0  0  0  0  0  0  0
  147.6666  139.0506  154.0557 C   0  0  0  0  0  0  0  0  0  0  0  0
  148.8591  139.3030  154.7614 C   0  0  0  0  0  0  0  0  0  0  0  0
  149.6807  138.2720  155.0727 F   0  0  0  0  0  0  0  0  0  0  0  0
  150.3042  145.9774  160.8451 H   0  0  0  0  0  0  0  0  0  0  0  0
  149.7609  145.0053  159.4735 H   0  0  0  0  0  0  0  0  0  0  0  0
  151.1458  146.1002  159.2959 H   0  0  0  0  0  0  0  0  0  0  0  0
  153.4139  142.6787  163.6068 H   0  0  0  0  0  0  0  0  0  0  0  0
  154.8549  140.7391  163.0281 H   0  0  0  0  0  0  0  0  0  0  0  0
  155.0502  139.9783  160.6692 H   0  0  0  0  0  0  0  0  0  0  0  0
  153.7951  141.1593  158.8692 H   0  0  0  0  0  0  0  0  0  0  0  0
  151.5280  144.3859  157.7186 H   0  0  0  0  0  0  0  0  0  0  0  0
  152.8314  143.2441  157.5547 H   0  0  0  0  0  0  0  0  0  0  0  0
  149.8663  142.5826  157.9674 H   0  0  0  0  0  0  0  0  0  0  0  0
  151.9879  141.2122  158.7533 H   0  0  0  0  0  0  0  0  0  0  0  0
  150.1741  142.8349  155.6410 H   0  0  0  0  0  0  0  0  0  0  0  0
  151.8361  142.2368  155.6971 H   0  0  0  0  0  0  0  0  0  0  0  0
  148.5476  142.7014  155.0806 H   0  0  0  0  0  0  0  0  0  0  0  0
  146.4760  142.2428  153.8494 H   0  0  0  0  0  0  0  0  0  0  0  0
  145.8901  139.9187  153.1840 H   0  0  0  0  0  0  0  0  0  0  0  0
  147.4140  138.0408  153.7672 H   0  0  0  0  0  0  0  0  0  0  0  0
  1  2  1  0  0  0  0
  1 23  1  0  0  0  0
  1 24  1  0  0  0  0
  1 25  1  0  0  0  0
  2 10  1  0  0  0  0
  2  3  2  0  0  0  0
  3  4  1  0  0  0  0
  4  9  2  0  0  0  0
  4  5  1  0  0  0  0
  5  6  2  0  0  0  0
  5 26  1  0  0  0  0
  6  7  1  0  0  0  0
  6 27  1  0  0  0  0
  7  8  2  0  0  0  0
  7 28  1  0  0  0  0
  8  9  1  0  0  0  0
  8 29  1  0  0  0  0
  9 10  1  0  0  0  0
 10 11  1  0  0  0  0
 11 12  1  0  0  0  0
 11 30  1  0  0  0  0
 11 31  1  0  0  0  0
 12 13  1  0  0  0  0
 12 14  1  0  0  0  0
 12 32  1  0  0  0  0
 13 33  1  0  0  0  0
 14 15  1  0  0  0  0
 14 34  1  0  0  0  0
 14 35  1  0  0  0  0
 15 16  1  0  0  0  0
 16 21  1  0  0  0  0
 16 17  2  0  0  0  0
 17 18  1  0  0  0  0
 17 36  1  0  0  0  0
 18 19  2  0  0  0  0
 18 37  1  0  0  0  0
 19 20  1  0  0  0  0
 19 38  1  0  0  0  0
 20 21  2  0  0  0  0
 20 39  1  0  0  0  0
 21 22  1  0  0  0  0
M  END
> <s_m_source_file>
AV-unprocessed.smi

> <i_m_source_file_index>
1994

> <i_lp_mmshare_version>
43012

> <i_f3d_flags>
0

> <s_epik_input>
W2NIXTFbY0hdW2NIXVtjSF1jKGMxMiluKGMobjIpW0NIM10pW0NIMl1bQ0BIXShbT0hdKVtDSDJdT2MzW2NIXVtjSF1bY0hdW2NIXWMzRg==

> <s_epik_cmdline>
J2VwaWtfcHl0aG9uJywgJy1waCcsICc3LjAnLCAnLXRuJywgJzgnLCAnLW1hJywgJzIwMCcsICctbWV0YWxfYmluZGluZycsICctaW1hZScsICc8aW5maWxlLm1hZT4nLCAnLW9tYWUnLCAnPG91dGZpbGUubWFlPic=

> <r_lp_tautomer_probability>
1

> <r_epik_Ionization_Penalty>
0.112614

> <r_epik_Ionization_Penalty_Charging>
0

> <r_epik_Ionization_Penalty_Neutral>
0.112614

> <r_epik_State_Penalty>
0.10231

> <r_epik_Charging_Adjusted_Penalty>
0.10231

> <i_epik_Tot_Q>
0

> <i_epik_Tot_abs_Q>
0

> <r_epik_Metal_State_Penalty>
0.000111664

> <b_epik_Metal_Only>
0

> <s_lp_Force_Field>
OPLS_2005

> <r_lp_Energy>
14.6988

> <b_lp_Chiralities_Consistent>
1

> <s_lp_Variant>
AV-unprocessed.smi:1994-1

> <Gold.Version>
5.8.1

> <Gold.Id.Protein>
6NUR|6NUR_protein|mol2

> <Gold.PLP.Fitness>
53.2720

> <Gold.PLP.PLP>
-55.2212

> <Gold.PLP.part.hbond>
-0.5982

> <Gold.PLP.part.metal>
0.0000

> <Gold.PLP.part.buried>
-4.6641

> <Gold.PLP.part.nonpolar>
-48.9485

> <Gold.PLP.part.repulsive>
0.2367

> <Gold.PLP.ligand.clash>
0.0000

> <Gold.PLP.ligand.torsion>
1.0375

> <Gold.PLP.Chemscore.Hbond>
0.0328

> <Gold.PLP.Chemscore.CHOScore>
0.0000

> <Gold.PLP.Chemscore.Metal>
0.0000

> <Gold.PLP.Chemscore.Internal.Correction>
0.0275

> <Gold.Rescore>
     Score         DG    S(hbond)    S(metal)    S(lipo)     H(rot)  DE(clash)    DE(int)     intcor
     14.59     -16.32       0.00        0.00     140.57       2.19       0.65       1.08       ----

> <Gold.Chemscore.Fitness>
14.5878

> <Gold.Chemscore.DG>
-16.3239

> <Gold.Chemscore.ZeroCoef>
-5.4800

> <Gold.Chemscore.Hbond>
0.0000

> <Gold.Chemscore.Metal>
0.0000

> <Gold.Chemscore.Lipo>
140.5704

> <Gold.Chemscore.Internal_Hbond>
0.0000

> <Gold.Chemscore.DEClash>
0.6532

> <Gold.Chemscore.DEInternal>
1.0829

> <Gold.Chemscore.Rot>
2.1886

> <Gold.Chemscore.Internal.Correction>
   9.000000E+99

> <Gold.Chemscore.Hbond.Weighted>
-0.0000

> <Gold.Chemscore.Metal.Weighted>
-0.0000

> <Gold.Chemscore.Lipo.Weighted>
-16.4467

> <Gold.Chemscore.Internal_Hbond.Weighted>
0.0000

> <Gold.Chemscore.DEClash.Weighted>
0.6532

> <Gold.Chemscore.DEInternal.Weighted>
1.0829

> <Gold.Chemscore.Rot.Weighted>
5.6028

> <Gold.Chemscore.Internal.Correction.Weighted>
   9.000000E+99

> <Gold.Protein.RotatedTorsions>
[ 6907 6896 6895 6894 ] final  -16.93 input  -60.11 | X-H torsion
[ 7974 7965 7964 7962 ] final   10.74 input  175.53 | X-H torsion
[ 8008 7997 7996 7995 ] final   38.31 input   59.86 | X-H torsion
[ 10167 10162 10161 10158 ] final   10.17 input  -65.29 | X-H torsion
[ 10718 10713 10712 10709 ] final -152.56 input   66.30 | X-H torsion
[ 10763 10752 10751 10750 ] final -111.61 input  -60.55 | X-H torsion
[ 11005 11000 10999 10996 ] final   49.65 input  -57.11 | X-H torsion

> <Gold.Protein.ActiveResidues>
 VAL166  LYS551  ARG553  GLY616  TRP617  ASP618  TYR619  PRO620  LYS621  CYS622 
 ASP623  PHE694  ASN695  SER759  ASP760  ASP761  ALA762  ILE779  LEU786  VAL792 
 PHE793  MET794  SER795  GLU796  ALA797  LYS798  CYS799  TRP800  GLU811  SER814 

> <Gold.Protein.RotatedAtoms>
  151.3011  135.0769  159.9238 H   0  0  0  0  0  0  0  0  0  0  0  0  # atno 6907 bound_to 6896
  152.5297  133.9832  159.7827 H   0  0  0  0  0  0  0  0  0  0  0  0  # atno 6908 bound_to 6896
  151.0119  133.5905  159.2712 H   0  0  0  0  0  0  0  0  0  0  0  0  # atno 6909 bound_to 6896
  146.2383  139.9589  142.8461 H   0  0  0  0  0  0  0  0  0  0  0  0  # atno 7974 bound_to 7965
  155.2181  140.3329  155.4319 H   0  0  0  0  0  0  0  0  0  0  0  0  # atno 8008 bound_to 7997
  156.2344  140.1865  156.7206 H   0  0  0  0  0  0  0  0  0  0  0  0  # atno 8009 bound_to 7997
  154.6033  140.0620  156.9383 H   0  0  0  0  0  0  0  0  0  0  0  0  # atno 8010 bound_to 7997
  140.6211  143.8203  150.7176 H   0  0  0  0  0  0  0  0  0  0  0  0  # atno 10167 bound_to 10162
  156.4742  130.8272  151.2501 H   0  0  0  0  0  0  0  0  0  0  0  0  # atno 10718 bound_to 10713
  154.8309  135.4521  154.1066 H   0  0  0  0  0  0  0  0  0  0  0  0  # atno 10763 bound_to 10752
  153.2340  135.6909  153.7864 H   0  0  0  0  0  0  0  0  0  0  0  0  # atno 10764 bound_to 10752
  153.7236  135.3338  155.3248 H   0  0  0  0  0  0  0  0  0  0  0  0  # atno 10765 bound_to 10752
  140.1085  134.4987  155.8699 H   0  0  0  0  0  0  0  0  0  0  0  0  # atno 11005 bound_to 11000
  145.1789  140.9757  143.4277 LP  0  0  0  0  0  0  0  0  0  0  0  0  # atno 17320 bound_to 7965
  144.9960  139.3644  143.6191 LP  0  0  0  0  0  0  0  0  0  0  0  0  # atno 17321 bound_to 7965
  140.1793  143.4128  152.1944 LP  0  0  0  0  0  0  0  0  0  0  0  0  # atno 17342 bound_to 10162
  139.5439  144.7281  151.4645 LP  0  0  0  0  0  0  0  0  0  0  0  0  # atno 17343 bound_to 10162
  157.7489  131.0066  150.3159 LP  0  0  0  0  0  0  0  0  0  0  0  0  # atno 17370 bound_to 10713
  156.3588  130.3843  149.7269 LP  0  0  0  0  0  0  0  0  0  0  0  0  # atno 17371 bound_to 10713
  141.2124  133.6719  156.6657 LP  0  0  0  0  0  0  0  0  0  0  0  0  # atno 17394 bound_to 11000
  140.3124  134.8075  157.4186 LP  0  0  0  0  0  0  0  0  0  0  0  0  # atno 17395 bound_to 11000

$$$$
