AV-unprocessed.smi:1801|AV-procd|sdf|7267|dock9
  -GOLD-   22720 8523D 1   1.00000     0.00000
 Structure written by MMmdl.
 38 39  0  0  0  0  0  0  0  0  2 V2000
  149.3426  131.5066  154.3571 C   0  0  0  0  0  0  0  0  0  0  0  0
  149.1159  132.9015  153.7500 C   0  0  2  0  0  0  0  0  0  0  0  0
  149.5730  133.9909  154.7485 C   0  0  0  0  0  0  0  0  0  0  0  0
  149.4903  135.3482  154.2140 N   0  0  0  0  0  0  0  0  0  0  0  0
  149.6723  136.4749  154.9182 C   0  0  0  0  0  0  0  0  0  0  0  0
  149.9446  136.4879  156.1187 O   0  0  0  0  0  0  0  0  0  0  0  0
  149.5199  137.5628  154.1430 N   0  0  0  0  0  0  0  0  0  0  0  0
  149.6837  138.9273  154.5007 C   0  0  0  0  0  0  0  0  0  0  0  0
  150.7894  139.4158  155.0843 N   0  0  0  0  0  0  0  0  0  0  0  0
  150.6923  140.7812  155.3196 N   0  0  0  0  0  0  0  0  0  0  0  0
  149.5199  141.2683  154.9036 C   0  0  0  0  0  0  0  0  0  0  0  0
  148.4208  140.1071  154.1793 S   0  0  0  0  0  0  0  0  0  0  0  0
  147.6466  133.0889  153.3037 C   0  0  0  0  0  0  0  0  0  0  0  0
  147.2505  132.1349  152.2404 N   0  3  0  0  0  0  0  0  0  0  0  0
  146.7990  130.8224  152.7432 C   0  0  0  0  0  0  0  0  0  0  0  0
  145.9492  130.2429  151.6176 C   0  0  0  0  0  0  0  0  0  0  0  0
  145.2359  131.4721  151.0631 C   0  0  0  0  0  0  0  0  0  0  0  0
  146.2158  132.6297  151.2991 C   0  0  0  0  0  0  0  0  0  0  0  0
  148.7244  131.3533  155.2423 H   0  0  0  0  0  0  0  0  0  0  0  0
  150.3836  131.3732  154.6533 H   0  0  0  0  0  0  0  0  0  0  0  0
  149.1064  130.7161  153.6447 H   0  0  0  0  0  0  0  0  0  0  0  0
  149.7580  132.9745  152.8722 H   0  0  0  0  0  0  0  0  0  0  0  0
  148.9572  133.9503  155.6476 H   0  0  0  0  0  0  0  0  0  0  0  0
  150.5981  133.8012  155.0709 H   0  0  0  0  0  0  0  0  0  0  0  0
  149.2610  135.4349  153.2346 H   0  0  0  0  0  0  0  0  0  0  0  0
  149.2645  137.3965  153.1808 H   0  0  0  0  0  0  0  0  0  0  0  0
  149.3015  142.3193  155.0220 H   0  0  0  0  0  0  0  0  0  0  0  0
  146.9902  132.9574  154.1653 H   0  0  0  0  0  0  0  0  0  0  0  0
  147.4702  134.1000  152.9356 H   0  0  0  0  0  0  0  0  0  0  0  0
  147.6399  130.1813  153.0084 H   0  0  0  0  0  0  0  0  0  0  0  0
  146.1827  130.9598  153.6336 H   0  0  0  0  0  0  0  0  0  0  0  0
  146.5930  129.8086  150.8513 H   0  0  0  0  0  0  0  0  0  0  0  0
  145.2604  129.4696  151.9592 H   0  0  0  0  0  0  0  0  0  0  0  0
  144.9629  131.3594  150.0132 H   0  0  0  0  0  0  0  0  0  0  0  0
  144.3184  131.6479  151.6269 H   0  0  0  0  0  0  0  0  0  0  0  0
  145.6867  133.5003  151.6905 H   0  0  0  0  0  0  0  0  0  0  0  0
  146.7020  132.9301  150.3704 H   0  0  0  0  0  0  0  0  0  0  0  0
  148.0728  131.9491  151.6837 H   0  0  0  0  0  0  0  0  0  0  0  0
  1  2  1  0  0  0  0
  1 19  1  0  0  0  0
  1 20  1  0  0  0  0
  1 21  1  0  0  0  0
  2  3  1  0  0  0  0
  2 13  1  0  0  0  0
  2 22  1  0  0  0  0
  3  4  1  0  0  0  0
  3 23  1  0  0  0  0
  3 24  1  0  0  0  0
  4  5  1  0  0  0  0
  4 25  1  0  0  0  0
  5  6  2  0  0  0  0
  5  7  1  0  0  0  0
  7  8  1  0  0  0  0
  7 26  1  0  0  0  0
  8 12  1  0  0  0  0
  8  9  2  0  0  0  0
  9 10  1  0  0  0  0
 10 11  2  0  0  0  0
 11 12  1  0  0  0  0
 11 27  1  0  0  0  0
 13 14  1  0  0  0  0
 13 28  1  0  0  0  0
 13 29  1  0  0  0  0
 14 18  1  0  0  0  0
 14 15  1  0  0  0  0
 14 38  1  0  0  0  0
 15 16  1  0  0  0  0
 15 30  1  0  0  0  0
 15 31  1  0  0  0  0
 16 17  1  0  0  0  0
 16 32  1  0  0  0  0
 16 33  1  0  0  0  0
 17 18  1  0  0  0  0
 17 34  1  0  0  0  0
 17 35  1  0  0  0  0
 18 36  1  0  0  0  0
 18 37  1  0  0  0  0
M  CHG  1  14   1
M  END
> <s_m_source_file>
AV-unprocessed.smi

> <i_m_source_file_index>
1801

> <i_lp_mmshare_version>
43012

> <i_f3d_flags>
0

> <s_epik_input>
W0NIMl0xW0NIMl1bQ0gyXVtDSDJdTjFbQ0gyXVtDQEhdKFtDSDNdKVtDSDJdW05IXUMoPU8pW05IXWMybm5bY0hdczI=

> <s_epik_cmdline>
J2VwaWtfcHl0aG9uJywgJy1waCcsICc3LjAnLCAnLXRuJywgJzgnLCAnLW1hJywgJzIwMCcsICctbWV0YWxfYmluZGluZycsICctaW1hZScsICc8aW5maWxlLm1hZT4nLCAnLW9tYWUnLCAnPG91dGZpbGUubWFlPic=

> <r_lp_tautomer_probability>
1

> <r_epik_Ionization_Penalty>
0.00281598

> <r_epik_Ionization_Penalty_Charging>
0.000371708

> <r_epik_Ionization_Penalty_Neutral>
0.00244427

> <r_epik_State_Penalty>
-0

> <r_epik_Charging_Adjusted_Penalty>
0.000371708

> <i_epik_Tot_Q>
1

> <i_epik_Tot_abs_Q>
1

> <r_epik_Metal_State_Penalty>
0.350595

> <b_epik_Metal_Only>
0

> <s_lp_Force_Field>
OPLS_2005

> <r_lp_Energy>
28.9171

> <b_lp_Chiralities_Consistent>
1

> <s_lp_Variant>
AV-unprocessed.smi:1801-1

> <Gold.Version>
5.8.1

> <Gold.Id.Protein>
6NUR|6NUR_protein|mol2

> <Gold.PLP.Fitness>
43.3281

> <Gold.PLP.PLP>
-32.8755

> <Gold.PLP.part.hbond>
-4.5417

> <Gold.PLP.part.metal>
0.0000

> <Gold.PLP.part.buried>
-2.6935

> <Gold.PLP.part.nonpolar>
-26.3225

> <Gold.PLP.part.repulsive>
0.1968

> <Gold.PLP.ligand.clash>
0.0000

> <Gold.PLP.ligand.torsion>
0.8538

> <Gold.PLP.Chemscore.Hbond>
3.0405

> <Gold.PLP.Chemscore.CHOScore>
1.0000

> <Gold.PLP.Chemscore.Metal>
0.0000

> <Gold.Chemscore.Hbonds>
donor molecule, donor type, donor heavy atom, donor atom, acceptor molecule, acceptor atom, score
      L1  H     4    25       P1  7948  0.95
      L1  H     7    26       P1  7948  0.98
      L1  H    14    38       P1 10747  0.99
      P1  H  7989  7998       L1    10  0.10
      L1  C    11    27       P1  8028  1.00

> <Gold.PLP.Chemscore.Internal.Correction>
0.0387

> <Gold.Rescore>
     Score         DG    S(hbond)    S(metal)    S(lipo)     H(rot)  DE(clash)    DE(int)     intcor
     15.69     -16.71       2.57        0.00      65.59       1.97       0.03       0.99       ----

> <Gold.Chemscore.Fitness>
15.6909

> <Gold.Chemscore.DG>
-16.7074

> <Gold.Chemscore.ZeroCoef>
-5.4800

> <Gold.Chemscore.Hbond>
2.5712

> <Gold.Chemscore.Metal>
0.0000

> <Gold.Chemscore.Lipo>
65.5938

> <Gold.Chemscore.Internal_Hbond>
0.0000

> <Gold.Chemscore.DEClash>
0.0270

> <Gold.Chemscore.DEInternal>
0.9895

> <Gold.Chemscore.Rot>
1.9667

> <Gold.Chemscore.Internal.Correction>
   9.000000E+99

> <Gold.Chemscore.Hbonds>
donor molecule, donor type, donor heavy atom, donor atom, acceptor molecule, acceptor atom, score
      L1  H     4    25       P1  7948  0.21
      L1  H     7    26       P1  7948  0.92
      L1  H    14    38       P1 10747  0.91

> <Gold.Chemscore.Hbond.Weighted>
-8.5878

> <Gold.Chemscore.Metal.Weighted>
-0.0000

> <Gold.Chemscore.Lipo.Weighted>
-7.6745

> <Gold.Chemscore.Internal_Hbond.Weighted>
0.0000

> <Gold.Chemscore.DEClash.Weighted>
0.0270

> <Gold.Chemscore.DEInternal.Weighted>
0.9895

> <Gold.Chemscore.Rot.Weighted>
5.0348

> <Gold.Chemscore.Internal.Correction.Weighted>
   9.000000E+99

> <Gold.Protein.RotatedTorsions>
[ 6907 6896 6895 6894 ] final  102.79 input  -60.11 | X-H torsion
[ 7974 7965 7964 7962 ] final -149.43 input  175.53 | X-H torsion
[ 8008 7997 7996 7995 ] final   97.21 input   59.86 | X-H torsion
[ 10167 10162 10161 10158 ] final  -67.38 input  -65.29 | X-H torsion
[ 10718 10713 10712 10709 ] final  -39.75 input   66.30 | X-H torsion
[ 10763 10752 10751 10750 ] final -168.09 input  -60.55 | X-H torsion
[ 11005 11000 10999 10996 ] final  -17.52 input  -57.11 | X-H torsion

> <Gold.Protein.ActiveResidues>
 VAL166  LYS551  ARG553  GLY616  TRP617  ASP618  TYR619  PRO620  LYS621  CYS622 
 ASP623  PHE694  ASN695  SER759  ASP760  ASP761  ALA762  ILE779  LEU786  VAL792 
 PHE793  MET794  SER795  GLU796  ALA797  LYS798  CYS799  TRP800  GLU811  SER814 

> <Gold.Protein.RotatedAtoms>
  152.5314  133.9922  159.7855 H   0  0  0  0  0  0  0  0  0  0  0  0  # atno 6907 bound_to 6896
  151.0156  133.5916  159.2684 H   0  0  0  0  0  0  0  0  0  0  0  0  # atno 6908 bound_to 6896
  151.2975  135.0766  159.9280 H   0  0  0  0  0  0  0  0  0  0  0  0  # atno 6909 bound_to 6896
  144.7968  140.5065  143.5735 H   0  0  0  0  0  0  0  0  0  0  0  0  # atno 7974 bound_to 7965
  156.0878  140.3261  155.7776 H   0  0  0  0  0  0  0  0  0  0  0  0  # atno 8008 bound_to 7997
  155.5047  140.0572  157.2950 H   0  0  0  0  0  0  0  0  0  0  0  0  # atno 8009 bound_to 7997
  154.4619  140.1971  156.0237 H   0  0  0  0  0  0  0  0  0  0  0  0  # atno 8010 bound_to 7997
  140.5587  143.2312  151.6770 H   0  0  0  0  0  0  0  0  0  0  0  0  # atno 10167 bound_to 10162
  156.2890  130.4226  149.8258 H   0  0  0  0  0  0  0  0  0  0  0  0  # atno 10718 bound_to 10713
  154.6664  135.2932  154.9799 H   0  0  0  0  0  0  0  0  0  0  0  0  # atno 10763 bound_to 10752
  154.0841  135.6600  153.4846 H   0  0  0  0  0  0  0  0  0  0  0  0  # atno 10764 bound_to 10752
  153.0460  135.5204  154.7639 H   0  0  0  0  0  0  0  0  0  0  0  0  # atno 10765 bound_to 10752
  140.8176  133.8092  155.9627 H   0  0  0  0  0  0  0  0  0  0  0  0  # atno 11005 bound_to 11000
  145.5654  139.1481  143.3318 LP  0  0  0  0  0  0  0  0  0  0  0  0  # atno 17320 bound_to 7965
  146.2238  140.5788  142.9005 LP  0  0  0  0  0  0  0  0  0  0  0  0  # atno 17321 bound_to 7965
  139.5060  144.3698  152.0481 LP  0  0  0  0  0  0  0  0  0  0  0  0  # atno 17342 bound_to 10162
  140.2822  144.3847  150.6115 LP  0  0  0  0  0  0  0  0  0  0  0  0  # atno 17343 bound_to 10162
  156.5678  130.8411  151.3347 LP  0  0  0  0  0  0  0  0  0  0  0  0  # atno 17370 bound_to 10713
  157.7337  130.9734  150.1990 LP  0  0  0  0  0  0  0  0  0  0  0  0  # atno 17371 bound_to 10713
  140.9132  134.2234  157.4973 LP  0  0  0  0  0  0  0  0  0  0  0  0  # atno 17394 bound_to 11000
  139.8710  134.9759  156.4902 LP  0  0  0  0  0  0  0  0  0  0  0  0  # atno 17395 bound_to 11000

$$$$
