AV-unprocessed.smi:21|AV-procd|sdf|152|dock1
  -GOLD-   2262015373D 1   1.00000     0.00000
 Structure written by MMmdl.
 62 65  0  0  0  0  0  0  0  0  2 V2000
  145.4623  134.5732  150.7566 C   0  0  0  0  0  0  0  0  0  0  0  0
  144.5121  133.9017  151.5678 O   0  0  0  0  0  0  0  0  0  0  0  0
  145.0217  132.7264  152.1801 C   0  0  2  0  0  0  0  0  0  0  0  0
  146.3614  133.0088  152.8451 C   0  0  0  0  0  0  0  0  0  0  0  0
  147.0026  131.6206  152.9341 C   0  0  2  0  0  0  0  0  0  0  0  0
  148.5398  131.6459  153.0496 C   0  0  0  0  0  0  0  0  0  0  0  0
  149.0210  131.0114  154.2793 N   0  0  0  0  0  0  0  0  0  0  0  0
  148.4930  129.6953  154.6171 C   0  0  0  0  0  0  0  0  0  0  0  0
  149.7050  131.7350  155.2131 C   0  0  0  0  0  0  0  0  0  0  0  0
  150.2335  131.0728  156.2772 N   0  0  0  0  0  0  0  0  0  0  0  0
  150.9122  131.7235  157.2253 C   0  0  0  0  0  0  0  0  0  0  0  0
  151.1814  133.0254  157.3101 N   0  0  0  0  0  0  0  0  0  0  0  0
  150.6601  133.7051  156.2507 C   0  0  0  0  0  0  0  0  0  0  0  0
  149.9170  133.1488  155.1676 C   0  0  0  0  0  0  0  0  0  0  0  0
  149.5715  134.1652  154.2811 N   0  0  0  0  0  0  0  0  0  0  0  0
  150.0695  135.2486  154.8094 C   0  0  0  0  0  0  0  0  0  0  0  0
  150.7333  135.0632  155.9989 N   0  0  0  0  0  0  0  0  0  0  0  0
  151.3791  136.0854  156.8045 C   0  0  0  0  0  0  0  0  0  0  0  0
  150.4561  137.2846  157.1380 C   0  0  1  0  0  0  0  0  0  0  0  0
  149.2690  136.8210  158.0147 C   0  0  0  0  0  0  0  0  0  0  0  0
  149.7326  136.1460  159.1654 O   0  0  0  0  0  0  0  0  0  0  0  0
  151.2349  138.4898  157.7365 C   0  0  1  0  0  0  0  0  0  0  0  0
  151.8957  138.2498  159.0948 C   0  0  0  0  0  0  0  0  0  0  0  0
  153.3020  138.8311  158.9363 C   0  0  0  0  0  0  0  0  0  0  0  0
  153.2040  139.6980  157.8175 O   0  0  0  0  0  0  0  0  0  0  0  0
  152.3712  139.0479  156.8726 C   0  0  0  0  0  0  0  0  0  0  0  0
  146.5620  130.9196  151.7046 N   0  3  1  0  0  0  0  0  0  0  0  0
  146.3717  129.4624  151.8736 C   0  0  0  0  0  0  0  0  0  0  0  0
  145.3680  131.6208  151.1745 C   0  0  0  0  0  0  0  0  0  0  0  0
  144.3290  132.3470  152.9339 H   0  0  0  0  0  0  0  0  0  0  0  0
  146.5742  131.1043  153.7955 H   0  0  0  0  0  0  0  0  0  0  0  0
  145.0024  135.4556  150.3116 H   0  0  0  0  0  0  0  0  0  0  0  0
  145.8108  133.9320  149.9460 H   0  0  0  0  0  0  0  0  0  0  0  0
  146.3241  134.9036  151.3373 H   0  0  0  0  0  0  0  0  0  0  0  0
  146.9590  133.6606  152.2056 H   0  0  0  0  0  0  0  0  0  0  0  0
  146.2579  133.4941  153.8163 H   0  0  0  0  0  0  0  0  0  0  0  0
  148.9703  131.0975  152.2113 H   0  0  0  0  0  0  0  0  0  0  0  0
  148.9132  132.6638  152.9371 H   0  0  0  0  0  0  0  0  0  0  0  0
  147.6682  129.7802  155.3251 H   0  0  0  0  0  0  0  0  0  0  0  0
  149.2697  129.0649  155.0512 H   0  0  0  0  0  0  0  0  0  0  0  0
  148.1172  129.1865  153.7290 H   0  0  0  0  0  0  0  0  0  0  0  0
  151.2927  131.1138  158.0316 H   0  0  0  0  0  0  0  0  0  0  0  0
  149.9588  136.2185  154.3462 H   0  0  0  0  0  0  0  0  0  0  0  0
  151.7336  135.6100  157.7196 H   0  0  0  0  0  0  0  0  0  0  0  0
  152.2674  136.4315  156.2745 H   0  0  0  0  0  0  0  0  0  0  0  0
  150.0371  137.6403  156.1952 H   0  0  0  0  0  0  0  0  0  0  0  0
  148.6576  137.6667  158.3299 H   0  0  0  0  0  0  0  0  0  0  0  0
  148.6121  136.1387  157.4776 H   0  0  0  0  0  0  0  0  0  0  0  0
  149.1303  136.3113  159.8747 H   0  0  0  0  0  0  0  0  0  0  0  0
  150.5356  139.3093  157.9041 H   0  0  0  0  0  0  0  0  0  0  0  0
  151.3474  138.7830  159.8725 H   0  0  0  0  0  0  0  0  0  0  0  0
  151.9324  137.2027  159.3927 H   0  0  0  0  0  0  0  0  0  0  0  0
  153.6409  139.3620  159.8262 H   0  0  0  0  0  0  0  0  0  0  0  0
  154.0212  138.0408  158.7153 H   0  0  0  0  0  0  0  0  0  0  0  0
  152.9448  138.2623  156.3809 H   0  0  0  0  0  0  0  0  0  0  0  0
  152.0165  139.7403  156.1090 H   0  0  0  0  0  0  0  0  0  0  0  0
  145.5761  129.2501  152.5890 H   0  0  0  0  0  0  0  0  0  0  0  0
  147.2883  128.9927  152.2312 H   0  0  0  0  0  0  0  0  0  0  0  0
  146.1086  129.0002  150.9217 H   0  0  0  0  0  0  0  0  0  0  0  0
  144.5213  130.9539  151.0046 H   0  0  0  0  0  0  0  0  0  0  0  0
  145.6414  132.0550  150.2120 H   0  0  0  0  0  0  0  0  0  0  0  0
  147.2914  131.0498  151.0179 H   0  0  0  0  0  0  0  0  0  0  0  0
  1  2  1  0  0  0  0
  1 32  1  0  0  0  0
  1 33  1  0  0  0  0
  1 34  1  0  0  0  0
  2  3  1  0  0  0  0
  3 30  1  0  0  0  0
  3 29  1  0  0  0  0
  3  4  1  0  0  0  0
  4  5  1  0  0  0  0
  4 35  1  0  0  0  0
  4 36  1  0  0  0  0
  5 31  1  0  0  0  0
  5  6  1  0  0  0  0
  5 27  1  0  0  0  0
  6  7  1  0  0  0  0
  6 37  1  0  0  0  0
  6 38  1  0  0  0  0
  7  8  1  0  0  0  0
  7  9  1  0  0  0  0
  8 39  1  0  0  0  0
  8 40  1  0  0  0  0
  8 41  1  0  0  0  0
  9 14  1  0  0  0  0
  9 10  2  0  0  0  0
 10 11  1  0  0  0  0
 11 12  2  0  0  0  0
 11 42  1  0  0  0  0
 12 13  1  0  0  0  0
 13 17  1  0  0  0  0
 13 14  2  0  0  0  0
 14 15  1  0  0  0  0
 15 16  2  0  0  0  0
 16 17  1  0  0  0  0
 16 43  1  0  0  0  0
 17 18  1  0  0  0  0
 18 19  1  0  0  0  0
 18 44  1  0  0  0  0
 18 45  1  0  0  0  0
 19 20  1  0  0  0  0
 19 22  1  0  0  0  0
 19 46  1  0  0  0  0
 20 21  1  0  0  0  0
 20 47  1  0  0  0  0
 20 48  1  0  0  0  0
 21 49  1  0  0  0  0
 22 26  1  0  0  0  0
 22 23  1  0  0  0  0
 22 50  1  0  0  0  0
 23 24  1  0  0  0  0
 23 51  1  0  0  0  0
 23 52  1  0  0  0  0
 24 25  1  0  0  0  0
 24 53  1  0  0  0  0
 24 54  1  0  0  0  0
 25 26  1  0  0  0  0
 26 55  1  0  0  0  0
 26 56  1  0  0  0  0
 27 28  1  0  0  0  0
 27 29  1  0  0  0  0
 27 62  1  0  0  0  0
 28 57  1  0  0  0  0
 28 58  1  0  0  0  0
 28 59  1  0  0  0  0
 29 60  1  0  0  0  0
 29 61  1  0  0  0  0
M  CHG  1  27   1
M  END
> <s_m_source_file>
AV-unprocessed.smi

> <i_m_source_file_index>
21

> <i_lp_mmshare_version>
43012

> <i_f3d_flags>
0

> <s_epik_input>
W0NIM11PW0NASF0xW0NIMl1bQ0BIXShOKFtDSDNdKVtDSDJdMSlbQ0gyXU4oW0NIM10pYyhuW2NIXW4yKWMoYzIzKW5bY0hdbjNbQ0gyXVtDQEhdKFtDSDJdW09IXSlbQ0BASF00W0NIMl1bQ0gyXU9bQ0gyXTQ=

> <s_epik_cmdline>
J2VwaWtfcHl0aG9uJywgJy1waCcsICc3LjAnLCAnLXRuJywgJzgnLCAnLW1hJywgJzIwMCcsICctbWV0YWxfYmluZGluZycsICctaW1hZScsICc8aW5maWxlLm1hZT4nLCAnLW9tYWUnLCAnPG91dGZpbGUubWFlPic=

> <r_lp_tautomer_probability>
1

> <r_epik_Ionization_Penalty>
0.0157465

> <r_epik_Ionization_Penalty_Charging>
0.015354

> <r_epik_Ionization_Penalty_Neutral>
0.000392529

> <r_epik_State_Penalty>
0.0120612

> <r_epik_Charging_Adjusted_Penalty>
0.0274152

> <i_epik_Tot_Q>
1

> <i_epik_Tot_abs_Q>
1

> <r_epik_Metal_State_Penalty>
0.0121253

> <b_epik_Metal_Only>
0

> <s_lp_Force_Field>
OPLS_2005

> <r_lp_Energy>
58.5761

> <b_lp_Chiralities_Consistent>
1

> <s_lp_Variant>
AV-unprocessed.smi:21-32

> <Gold.Version>
5.8.1

> <Gold.Id.Protein>
6NUR|6NUR_protein|mol2

> <Gold.PLP.Fitness>
51.1465

> <Gold.PLP.PLP>
-39.1640

> <Gold.PLP.part.hbond>
-4.0000

> <Gold.PLP.part.metal>
0.0000

> <Gold.PLP.part.buried>
-3.4339

> <Gold.PLP.part.nonpolar>
-31.2872

> <Gold.PLP.part.repulsive>
0.3030

> <Gold.PLP.ligand.clash>
0.0000

> <Gold.PLP.ligand.torsion>
1.1057

> <Gold.PLP.Chemscore.Hbond>
3.8960

> <Gold.PLP.Chemscore.CHOScore>
0.5699

> <Gold.PLP.Chemscore.Metal>
0.0000

> <Gold.Chemscore.Hbonds>
donor molecule, donor type, donor heavy atom, donor atom, acceptor molecule, acceptor atom, score
      L1  H    27    62       P1 10747  1.00
      P1  H  6896  6907       L1    21  1.00
      P1  H  6896  6909       L1    12  0.91
      P1  H  7997  8008       L1    25  1.00
      L1  C    16    43       P1  7948  0.51

> <Gold.PLP.Chemscore.Internal.Correction>
0.7962

> <Gold.Rescore>
     Score         DG    S(hbond)    S(metal)    S(lipo)     H(rot)  DE(clash)    DE(int)     intcor
     15.95     -19.86       3.72        0.00      83.88       3.08       0.63       3.28       ----

> <Gold.Chemscore.Fitness>
15.9466

> <Gold.Chemscore.DG>
-19.8566

> <Gold.Chemscore.ZeroCoef>
-5.4800

> <Gold.Chemscore.Hbond>
3.7235

> <Gold.Chemscore.Metal>
0.0000

> <Gold.Chemscore.Lipo>
83.8821

> <Gold.Chemscore.Internal_Hbond>
0.0000

> <Gold.Chemscore.DEClash>
0.6285

> <Gold.Chemscore.DEInternal>
3.2815

> <Gold.Chemscore.Rot>
3.0758

> <Gold.Chemscore.Internal.Correction>
   9.000000E+99

> <Gold.Chemscore.Hbonds>
donor molecule, donor type, donor heavy atom, donor atom, acceptor molecule, acceptor atom, score
      L1  H    27    62       P1 10747  0.98
      P1  H  6896  6907       L1    21  0.60
      P1  H  6896  6909       L1    12  0.44
      P1  H  7997  8008       L1    25  0.34

> <Gold.Chemscore.Hbond.Weighted>
-12.4366

> <Gold.Chemscore.Metal.Weighted>
-0.0000

> <Gold.Chemscore.Lipo.Weighted>
-9.8142

> <Gold.Chemscore.Internal_Hbond.Weighted>
0.0000

> <Gold.Chemscore.DEClash.Weighted>
0.6285

> <Gold.Chemscore.DEInternal.Weighted>
3.2815

> <Gold.Chemscore.Rot.Weighted>
7.8741

> <Gold.Chemscore.Internal.Correction.Weighted>
   9.000000E+99

> <Gold.Protein.RotatedTorsions>
[ 6907 6896 6895 6894 ] final  -37.98 input  -60.11 | X-H torsion
[ 7974 7965 7964 7962 ] final  113.99 input  175.53 | X-H torsion
[ 8008 7997 7996 7995 ] final  -77.87 input   59.86 | X-H torsion
[ 10167 10162 10161 10158 ] final   81.48 input  -65.29 | X-H torsion
[ 10718 10713 10712 10709 ] final  148.59 input   66.30 | X-H torsion
[ 10763 10752 10751 10750 ] final   29.42 input  -60.55 | X-H torsion
[ 11005 11000 10999 10996 ] final  100.64 input  -57.11 | X-H torsion

> <Gold.Protein.ActiveResidues>
 VAL166  LYS551  ARG553  GLY616  TRP617  ASP618  TYR619  PRO620  LYS621  CYS622 
 ASP623  PHE694  ASN695  SER759  ASP760  ASP761  ALA762  ILE779  LEU786  VAL792 
 PHE793  MET794  SER795  GLU796  ALA797  LYS798  CYS799  TRP800  GLU811  SER814 

> <Gold.Protein.RotatedAtoms>
  151.0081  134.9375  159.7991 H   0  0  0  0  0  0  0  0  0  0  0  0  # atno 6907 bound_to 6896
  152.5295  134.3065  159.9107 H   0  0  0  0  0  0  0  0  0  0  0  0  # atno 6908 bound_to 6896
  151.3071  133.4055  159.2678 H   0  0  0  0  0  0  0  0  0  0  0  0  # atno 6909 bound_to 6896
  145.2101  139.2910  143.4273 H   0  0  0  0  0  0  0  0  0  0  0  0  # atno 7974 bound_to 7965
  154.5636  140.0703  156.8857 H   0  0  0  0  0  0  0  0  0  0  0  0  # atno 8008 bound_to 7997
  155.2765  140.3368  155.4243 H   0  0  0  0  0  0  0  0  0  0  0  0  # atno 8009 bound_to 7997
  156.2062  140.1741  156.7779 H   0  0  0  0  0  0  0  0  0  0  0  0  # atno 8010 bound_to 7997
  139.9389  144.6103  150.8272 H   0  0  0  0  0  0  0  0  0  0  0  0  # atno 10167 bound_to 10162
  157.3067  131.0880  151.1348 H   0  0  0  0  0  0  0  0  0  0  0  0  # atno 10718 bound_to 10713
  153.0432  135.6489  154.0887 H   0  0  0  0  0  0  0  0  0  0  0  0  # atno 10763 bound_to 10752
  154.0590  135.2889  155.3329 H   0  0  0  0  0  0  0  0  0  0  0  0  # atno 10764 bound_to 10752
  154.6670  135.5370  153.8155 H   0  0  0  0  0  0  0  0  0  0  0  0  # atno 10765 bound_to 10752
  139.8771  134.9149  156.4786 H   0  0  0  0  0  0  0  0  0  0  0  0  # atno 11005 bound_to 11000
  146.3399  140.2373  142.8595 LP  0  0  0  0  0  0  0  0  0  0  0  0  # atno 17320 bound_to 7965
  144.9864  140.8507  143.5366 LP  0  0  0  0  0  0  0  0  0  0  0  0  # atno 17321 bound_to 7965
  140.7617  143.3180  151.2689 LP  0  0  0  0  0  0  0  0  0  0  0  0  # atno 17342 bound_to 10162
  139.6721  144.0002  152.2759 LP  0  0  0  0  0  0  0  0  0  0  0  0  # atno 17343 bound_to 10162
  157.2686  130.6693  149.6008 LP  0  0  0  0  0  0  0  0  0  0  0  0  # atno 17370 bound_to 10713
  155.9675  130.4486  150.5626 LP  0  0  0  0  0  0  0  0  0  0  0  0  # atno 17371 bound_to 10713
  140.8743  133.7965  155.9398 LP  0  0  0  0  0  0  0  0  0  0  0  0  # atno 17394 bound_to 11000
  140.8920  134.2484  157.5089 LP  0  0  0  0  0  0  0  0  0  0  0  0  # atno 17395 bound_to 11000

$$$$
