AV-unprocessed.smi:1697|AV-procd|sdf|6804|dock1
  -GOLD-   22720 7573D 1   1.00000     0.00000
 Structure written by MMmdl.
 54 56  0  0  0  0  0  0  0  0  2 V2000
  143.8232  145.8644  156.9747 C   0  0  0  0  0  0  0  0  0  0  0  0
  143.1213  144.5134  156.7782 C   0  0  0  0  0  0  0  0  0  0  0  0
  143.9690  143.4161  157.0954 O   0  0  0  0  0  0  0  0  0  0  0  0
  145.1797  143.3468  156.3524 C   0  0  2  0  0  0  0  0  0  0  0  0
  144.8374  143.0089  154.8946 C   0  0  0  0  0  0  0  0  0  0  0  0
  146.1136  142.7824  154.0665 C   0  0  0  0  0  0  0  0  0  0  0  0
  146.9583  141.7154  154.6633 N   0  3  1  0  0  0  0  0  0  0  0  0
  148.1296  141.3778  153.8141 C   0  0  0  0  0  0  0  0  0  0  0  0
  149.2755  140.7415  154.6243 C   0  0  1  0  0  0  0  0  0  0  0  0
  150.0223  139.8938  153.7720 O   0  0  0  0  0  0  0  0  0  0  0  0
  150.2117  141.8023  155.2337 C   0  0  0  0  0  0  0  0  0  0  0  0
  151.0787  141.2464  156.2567 N   0  0  0  0  0  0  0  0  0  0  0  0
  151.7700  140.0915  156.2046 C   0  0  0  0  0  0  0  0  0  0  0  0
  152.5022  139.7722  157.2679 N   0  0  0  0  0  0  0  0  0  0  0  0
  152.2599  140.8464  158.1071 C   0  0  0  0  0  0  0  0  0  0  0  0
  152.7385  141.1225  159.4065 C   0  0  0  0  0  0  0  0  0  0  0  0
  152.3513  142.2995  160.0865 C   0  0  0  0  0  0  0  0  0  0  0  0
  152.8876  142.5551  161.4840 C   0  0  0  0  0  0  0  0  0  0  0  0
  151.4727  143.2233  159.4652 C   0  0  0  0  0  0  0  0  0  0  0  0
  151.0429  144.4940  160.1768 C   0  0  0  0  0  0  0  0  0  0  0  0
  150.9860  142.9633  158.1672 C   0  0  0  0  0  0  0  0  0  0  0  0
  151.3764  141.7875  157.5024 C   0  0  0  0  0  0  0  0  0  0  0  0
  147.3243  142.0311  156.0706 C   0  0  0  0  0  0  0  0  0  0  0  0
  146.0703  142.2383  156.9347 C   0  0  0  0  0  0  0  0  0  0  0  0
  143.1268  146.6872  156.8126 H   0  0  0  0  0  0  0  0  0  0  0  0
  144.6499  145.9951  156.2770 H   0  0  0  0  0  0  0  0  0  0  0  0
  144.2172  145.9570  157.9871 H   0  0  0  0  0  0  0  0  0  0  0  0
  142.2592  144.4633  157.4436 H   0  0  0  0  0  0  0  0  0  0  0  0
  142.7334  144.4173  155.7631 H   0  0  0  0  0  0  0  0  0  0  0  0
  145.7185  144.2964  156.3715 H   0  0  0  0  0  0  0  0  0  0  0  0
  144.2164  142.1125  154.8591 H   0  0  0  0  0  0  0  0  0  0  0  0
  144.2454  143.8128  154.4557 H   0  0  0  0  0  0  0  0  0  0  0  0
  145.8327  142.5046  153.0499 H   0  0  0  0  0  0  0  0  0  0  0  0
  146.6882  143.7076  153.9967 H   0  0  0  0  0  0  0  0  0  0  0  0
  147.8343  140.6822  153.0267 H   0  0  0  0  0  0  0  0  0  0  0  0
  148.4730  142.2801  153.3056 H   0  0  0  0  0  0  0  0  0  0  0  0
  148.8718  140.1330  155.4327 H   0  0  0  0  0  0  0  0  0  0  0  0
  149.6624  139.9462  152.8994 H   0  0  0  0  0  0  0  0  0  0  0  0
  150.8273  142.2650  154.4609 H   0  0  0  0  0  0  0  0  0  0  0  0
  149.6271  142.6031  155.6885 H   0  0  0  0  0  0  0  0  0  0  0  0
  151.7296  139.4454  155.3396 H   0  0  0  0  0  0  0  0  0  0  0  0
  153.4073  140.4188  159.8798 H   0  0  0  0  0  0  0  0  0  0  0  0
  152.0696  142.6063  162.2028 H   0  0  0  0  0  0  0  0  0  0  0  0
  153.4381  143.4954  161.5171 H   0  0  0  0  0  0  0  0  0  0  0  0
  153.5639  141.7616  161.8028 H   0  0  0  0  0  0  0  0  0  0  0  0
  150.3646  145.0848  159.5608 H   0  0  0  0  0  0  0  0  0  0  0  0
  151.9091  145.1138  160.4089 H   0  0  0  0  0  0  0  0  0  0  0  0
  150.5279  144.2555  161.1073 H   0  0  0  0  0  0  0  0  0  0  0  0
  150.3165  143.6580  157.6823 H   0  0  0  0  0  0  0  0  0  0  0  0
  147.9179  141.2260  156.5016 H   0  0  0  0  0  0  0  0  0  0  0  0
  147.9466  142.9270  156.0947 H   0  0  0  0  0  0  0  0  0  0  0  0
  146.3616  142.4834  157.9559 H   0  0  0  0  0  0  0  0  0  0  0  0
  145.5087  141.3047  156.9910 H   0  0  0  0  0  0  0  0  0  0  0  0
  146.3828  140.8851  154.6877 H   0  0  0  0  0  0  0  0  0  0  0  0
  1  2  1  0  0  0  0
  1 25  1  0  0  0  0
  1 26  1  0  0  0  0
  1 27  1  0  0  0  0
  2  3  1  0  0  0  0
  2 28  1  0  0  0  0
  2 29  1  0  0  0  0
  3  4  1  0  0  0  0
  4 24  1  0  0  0  0
  4  5  1  0  0  0  0
  4 30  1  0  0  0  0
  5  6  1  0  0  0  0
  5 31  1  0  0  0  0
  5 32  1  0  0  0  0
  6  7  1  0  0  0  0
  6 33  1  0  0  0  0
  6 34  1  0  0  0  0
  7  8  1  0  0  0  0
  7 23  1  0  0  0  0
  7 54  1  0  0  0  0
  8  9  1  0  0  0  0
  8 35  1  0  0  0  0
  8 36  1  0  0  0  0
  9 10  1  0  0  0  0
  9 11  1  0  0  0  0
  9 37  1  0  0  0  0
 10 38  1  0  0  0  0
 11 12  1  0  0  0  0
 11 39  1  0  0  0  0
 11 40  1  0  0  0  0
 12 22  1  0  0  0  0
 12 13  1  0  0  0  0
 13 14  2  0  0  0  0
 13 41  1  0  0  0  0
 14 15  1  0  0  0  0
 15 22  2  0  0  0  0
 15 16  1  0  0  0  0
 16 17  2  0  0  0  0
 16 42  1  0  0  0  0
 17 18  1  0  0  0  0
 17 19  1  0  0  0  0
 18 43  1  0  0  0  0
 18 44  1  0  0  0  0
 18 45  1  0  0  0  0
 19 20  1  0  0  0  0
 19 21  2  0  0  0  0
 20 46  1  0  0  0  0
 20 47  1  0  0  0  0
 20 48  1  0  0  0  0
 21 22  1  0  0  0  0
 21 49  1  0  0  0  0
 23 24  1  0  0  0  0
 23 50  1  0  0  0  0
 23 51  1  0  0  0  0
 24 52  1  0  0  0  0
 24 53  1  0  0  0  0
M  CHG  1   7   1
M  END
> <s_m_source_file>
AV-unprocessed.smi

> <i_m_source_file_index>
1697

> <i_lp_mmshare_version>
43012

> <i_f3d_flags>
0

> <s_epik_input>
W0NIM11bQ0gyXU9bQ0hdMVtDSDJdW0NIMl1OKFtDSDJdW0NIMl0xKVtDSDJdW0NASF0oW09IXSlbQ0gyXW4oW2NIXW4yKWMoYzIzKVtjSF1jKFtDSDNdKWMoW2NIXTMpW0NIM10=

> <s_epik_cmdline>
J2VwaWtfcHl0aG9uJywgJy1waCcsICc3LjAnLCAnLXRuJywgJzgnLCAnLW1hJywgJzIwMCcsICctbWV0YWxfYmluZGluZycsICctaW1hZScsICc8aW5maWxlLm1hZT4nLCAnLW9tYWUnLCAnPG91dGZpbGUubWFlPic=

> <r_epik_Ionization_Penalty>
0.112476

> <r_epik_Ionization_Penalty_Charging>
0.0244612

> <r_epik_Ionization_Penalty_Neutral>
0.0880147

> <r_epik_State_Penalty>
0.0961447

> <r_epik_Charging_Adjusted_Penalty>
0.120606

> <i_epik_Tot_Q>
1

> <i_epik_Tot_abs_Q>
1

> <r_epik_Metal_State_Penalty>
0.0206204

> <b_epik_Metal_Only>
0

> <s_lp_Force_Field>
OPLS_2005

> <r_lp_Energy>
24.3812

> <b_lp_Chiralities_Consistent>
1

> <s_lp_Variant>
AV-unprocessed.smi:1697-2

> <Gold.Version>
5.8.1

> <Gold.Id.Protein>
6NUR|6NUR_protein|mol2

> <Gold.PLP.Fitness>
55.4779

> <Gold.PLP.PLP>
-48.1634

> <Gold.PLP.part.hbond>
-3.0000

> <Gold.PLP.part.metal>
0.0000

> <Gold.PLP.part.buried>
-4.4864

> <Gold.PLP.part.nonpolar>
-40.7215

> <Gold.PLP.part.repulsive>
0.0867

> <Gold.PLP.ligand.clash>
0.0029

> <Gold.PLP.ligand.torsion>
0.9709

> <Gold.PLP.Chemscore.Hbond>
2.8480

> <Gold.PLP.Chemscore.CHOScore>
0.0000

> <Gold.PLP.Chemscore.Metal>
0.0000

> <Gold.Chemscore.Hbonds>
donor molecule, donor type, donor heavy atom, donor atom, acceptor molecule, acceptor atom, score
      L1  H    10    38       P1  7957  1.00
      P1  H  7989  7998       L1    10  0.75
      P1  H  7997  8009       L1    14  1.00

> <Gold.PLP.Chemscore.Internal.Correction>
0.7151

> <Gold.Rescore>
     Score         DG    S(hbond)    S(metal)    S(lipo)     H(rot)  DE(clash)    DE(int)     intcor
     17.07     -19.76       1.77        0.00     121.28       2.27       0.72       1.97       ----

> <Gold.Chemscore.Fitness>
17.0740

> <Gold.Chemscore.DG>
-19.7578

> <Gold.Chemscore.ZeroCoef>
-5.4800

> <Gold.Chemscore.Hbond>
1.7671

> <Gold.Chemscore.Metal>
0.0000

> <Gold.Chemscore.Lipo>
121.2768

> <Gold.Chemscore.Internal_Hbond>
0.0000

> <Gold.Chemscore.DEClash>
0.7152

> <Gold.Chemscore.DEInternal>
1.9686

> <Gold.Chemscore.Rot>
2.2710

> <Gold.Chemscore.Internal.Correction>
   9.000000E+99

> <Gold.Chemscore.Hbonds>
donor molecule, donor type, donor heavy atom, donor atom, acceptor molecule, acceptor atom, score
      L1  H    10    38       P1  7957  0.99
      P1  H  7989  7998       L1    10  0.07
      P1  H  7997  8009       L1    14  0.12

> <Gold.Chemscore.Hbond.Weighted>
-5.9021

> <Gold.Chemscore.Metal.Weighted>
-0.0000

> <Gold.Chemscore.Lipo.Weighted>
-14.1894

> <Gold.Chemscore.Internal_Hbond.Weighted>
0.0000

> <Gold.Chemscore.DEClash.Weighted>
0.7152

> <Gold.Chemscore.DEInternal.Weighted>
1.9686

> <Gold.Chemscore.Rot.Weighted>
5.8137

> <Gold.Chemscore.Internal.Correction.Weighted>
   9.000000E+99

> <Gold.Protein.RotatedTorsions>
[ 6907 6896 6895 6894 ] final  -53.65 input  -60.11 | X-H torsion
[ 7974 7965 7964 7962 ] final  -24.66 input  175.53 | X-H torsion
[ 8008 7997 7996 7995 ] final -171.90 input   59.86 | X-H torsion
[ 10167 10162 10161 10158 ] final -146.80 input  -65.29 | X-H torsion
[ 10718 10713 10712 10709 ] final   99.17 input   66.30 | X-H torsion
[ 10763 10752 10751 10750 ] final  -99.10 input  -60.55 | X-H torsion
[ 11005 11000 10999 10996 ] final   61.71 input  -57.11 | X-H torsion

> <Gold.Protein.ActiveResidues>
 VAL166  LYS551  ARG553  GLY616  TRP617  ASP618  TYR619  PRO620  LYS621  CYS622 
 ASP623  PHE694  ASN695  SER759  ASP760  ASP761  ALA762  ILE779  LEU786  VAL792 
 PHE793  MET794  SER795  GLU796  ALA797  LYS798  CYS799  TRP800  GLU811  SER814 

> <Gold.Protein.RotatedAtoms>
  150.8408  134.7699  159.6930 H   0  0  0  0  0  0  0  0  0  0  0  0  # atno 6907 bound_to 6896
  152.4495  134.5420  159.9851 H   0  0  0  0  0  0  0  0  0  0  0  0  # atno 6908 bound_to 6896
  151.5560  133.3372  159.2998 H   0  0  0  0  0  0  0  0  0  0  0  0  # atno 6909 bound_to 6896
  146.1540  140.4782  142.8599 H   0  0  0  0  0  0  0  0  0  0  0  0  # atno 7974 bound_to 7965
  155.9375  140.1102  157.1082 H   0  0  0  0  0  0  0  0  0  0  0  0  # atno 8008 bound_to 7997
  154.4082  140.1225  156.4949 H   0  0  0  0  0  0  0  0  0  0  0  0  # atno 8009 bound_to 7997
  155.7003  140.3472  155.4932 H   0  0  0  0  0  0  0  0  0  0  0  0  # atno 8010 bound_to 7997
  139.7680  143.8280  152.2619 H   0  0  0  0  0  0  0  0  0  0  0  0  # atno 10167 bound_to 10162
  157.6881  131.0662  150.4908 H   0  0  0  0  0  0  0  0  0  0  0  0  # atno 10718 bound_to 10713
  154.7470  135.4985  153.9221 H   0  0  0  0  0  0  0  0  0  0  0  0  # atno 10763 bound_to 10752
  153.1102  135.6707  153.9521 H   0  0  0  0  0  0  0  0  0  0  0  0  # atno 10764 bound_to 10752
  153.9283  135.3081  155.3425 H   0  0  0  0  0  0  0  0  0  0  0  0  # atno 10765 bound_to 10752
  140.0142  134.6250  155.9734 H   0  0  0  0  0  0  0  0  0  0  0  0  # atno 11005 bound_to 11000
  144.7940  140.6087  143.6522 LP  0  0  0  0  0  0  0  0  0  0  0  0  # atno 17320 bound_to 7965
  145.4753  139.1500  143.3792 LP  0  0  0  0  0  0  0  0  0  0  0  0  # atno 17321 bound_to 7965
  139.8305  144.7256  150.9456 LP  0  0  0  0  0  0  0  0  0  0  0  0  # atno 17342 bound_to 10162
  140.7812  143.4074  151.1048 LP  0  0  0  0  0  0  0  0  0  0  0  0  # atno 17343 bound_to 10162
  156.5234  130.4167  149.6238 LP  0  0  0  0  0  0  0  0  0  0  0  0  # atno 17370 bound_to 10713
  156.3133  130.7241  151.2138 LP  0  0  0  0  0  0  0  0  0  0  0  0  # atno 17371 bound_to 10713
  141.1732  133.6538  156.4728 LP  0  0  0  0  0  0  0  0  0  0  0  0  # atno 17394 bound_to 11000
  140.4500  134.6937  157.5035 LP  0  0  0  0  0  0  0  0  0  0  0  0  # atno 17395 bound_to 11000

$$$$
