AV-unprocessed.smi:467|AV-procd|sdf|2644|dock9
  -GOLD-   2262023 53D 1   1.00000     0.00000
 Structure written by MMmdl.
 44 46  0  0  0  0  0  0  0  0  1 V2000
  154.1875  142.4091  163.3689 C   0  0  0  0  0  0  0  0  0  0  0  0
  153.4978  142.6256  162.0335 C   0  0  0  0  0  0  0  0  0  0  0  0
  152.6215  143.7241  161.8823 C   0  0  0  0  0  0  0  0  0  0  0  0
  151.9658  143.9638  160.6547 C   0  0  0  0  0  0  0  0  0  0  0  0
  151.0846  144.9665  160.2870 N   0  0  0  0  0  0  0  0  0  0  0  0
  150.8288  144.6472  159.0215 C   0  0  0  0  0  0  0  0  0  0  0  0
  151.4389  143.5538  158.5255 N   0  0  0  0  0  0  0  0  0  0  0  0
  151.3127  143.0175  157.1817 C   0  0  0  0  0  0  0  0  0  0  0  0
  150.2230  141.9333  157.0770 C   0  0  1  0  0  0  0  0  0  0  0  0
  148.9518  142.5505  157.0189 O   0  0  0  0  0  0  0  0  0  0  0  0
  150.4025  141.0731  155.8104 C   0  0  0  0  0  0  0  0  0  0  0  0
  151.5576  140.1731  155.8156 N   0  0  0  0  0  0  0  0  0  0  0  0
  151.7577  139.4959  154.5352 C   0  0  0  0  0  0  0  0  0  0  0  0
  152.9592  138.5352  154.5759 C   0  0  0  0  0  0  0  0  0  0  0  0
  152.7841  137.5919  155.6277 O   0  0  0  0  0  0  0  0  0  0  0  0
  152.6333  138.2122  156.9002 C   0  0  0  0  0  0  0  0  0  0  0  0
  151.4285  139.1680  156.8657 C   0  0  0  0  0  0  0  0  0  0  0  0
  152.2081  143.0641  159.5757 C   0  0  0  0  0  0  0  0  0  0  0  0
  153.0755  141.9664  159.7149 C   0  0  0  0  0  0  0  0  0  0  0  0
  153.7274  141.7449  160.9459 C   0  0  0  0  0  0  0  0  0  0  0  0
  154.6712  140.5633  161.0815 C   0  0  0  0  0  0  0  0  0  0  0  0
  153.8606  143.1396  164.1094 H   0  0  0  0  0  0  0  0  0  0  0  0
  155.2680  142.5036  163.2587 H   0  0  0  0  0  0  0  0  0  0  0  0
  153.9645  141.4163  163.7596 H   0  0  0  0  0  0  0  0  0  0  0  0
  152.4476  144.3963  162.7096 H   0  0  0  0  0  0  0  0  0  0  0  0
  150.1588  145.2427  158.4186 H   0  0  0  0  0  0  0  0  0  0  0  0
  151.1047  143.8399  156.4957 H   0  0  0  0  0  0  0  0  0  0  0  0
  152.2796  142.6063  156.8883 H   0  0  0  0  0  0  0  0  0  0  0  0
  150.2673  141.3159  157.9734 H   0  0  0  0  0  0  0  0  0  0  0  0
  148.9940  143.2581  156.3936 H   0  0  0  0  0  0  0  0  0  0  0  0
  149.4925  140.4869  155.6723 H   0  0  0  0  0  0  0  0  0  0  0  0
  150.4659  141.7272  154.9393 H   0  0  0  0  0  0  0  0  0  0  0  0
  150.8591  138.9385  154.2665 H   0  0  0  0  0  0  0  0  0  0  0  0
  151.9254  140.2214  153.7405 H   0  0  0  0  0  0  0  0  0  0  0  0
  153.0506  138.0018  153.6297 H   0  0  0  0  0  0  0  0  0  0  0  0
  153.8892  139.0867  154.7241 H   0  0  0  0  0  0  0  0  0  0  0  0
  152.4853  137.4424  157.6576 H   0  0  0  0  0  0  0  0  0  0  0  0
  153.5460  138.7499  157.1621 H   0  0  0  0  0  0  0  0  0  0  0  0
  151.3313  139.6565  157.8360 H   0  0  0  0  0  0  0  0  0  0  0  0
  150.5152  138.5900  156.7149 H   0  0  0  0  0  0  0  0  0  0  0  0
  153.2424  141.3057  158.8770 H   0  0  0  0  0  0  0  0  0  0  0  0
  154.7479  140.0066  160.1470 H   0  0  0  0  0  0  0  0  0  0  0  0
  154.3182  139.8778  161.8520 H   0  0  0  0  0  0  0  0  0  0  0  0
  155.6718  140.9029  161.3503 H   0  0  0  0  0  0  0  0  0  0  0  0
  1  2  1  0  0  0  0
  1 22  1  0  0  0  0
  1 23  1  0  0  0  0
  1 24  1  0  0  0  0
  2 20  1  0  0  0  0
  2  3  2  0  0  0  0
  3  4  1  0  0  0  0
  3 25  1  0  0  0  0
  4 18  2  0  0  0  0
  4  5  1  0  0  0  0
  5  6  2  0  0  0  0
  6  7  1  0  0  0  0
  6 26  1  0  0  0  0
  7  8  1  0  0  0  0
  7 18  1  0  0  0  0
  8  9  1  0  0  0  0
  8 27  1  0  0  0  0
  8 28  1  0  0  0  0
  9 10  1  0  0  0  0
  9 11  1  0  0  0  0
  9 29  1  0  0  0  0
 10 30  1  0  0  0  0
 11 12  1  0  0  0  0
 11 31  1  0  0  0  0
 11 32  1  0  0  0  0
 12 17  1  0  0  0  0
 12 13  1  0  0  0  0
 13 14  1  0  0  0  0
 13 33  1  0  0  0  0
 13 34  1  0  0  0  0
 14 15  1  0  0  0  0
 14 35  1  0  0  0  0
 14 36  1  0  0  0  0
 15 16  1  0  0  0  0
 16 17  1  0  0  0  0
 16 37  1  0  0  0  0
 16 38  1  0  0  0  0
 17 39  1  0  0  0  0
 17 40  1  0  0  0  0
 18 19  1  0  0  0  0
 19 20  2  0  0  0  0
 19 41  1  0  0  0  0
 20 21  1  0  0  0  0
 21 42  1  0  0  0  0
 21 43  1  0  0  0  0
 21 44  1  0  0  0  0
M  END
> <s_m_source_file>
AV-unprocessed.smi

> <i_m_source_file_index>
467

> <i_lp_mmshare_version>
43012

> <i_f3d_flags>
0

> <s_epik_input>
W0NIM11jKFtjSF0xKWMoW0NIM10pW2NIXWMoYzEyKW4oW2NIXW4yKVtDSDJdW0NASF0oW09IXSlbQ0gyXU4zW0NIMl1bQ0gyXU9bQ0gyXVtDSDJdMw==

> <s_epik_cmdline>
J2VwaWtfcHl0aG9uJywgJy1waCcsICc3LjAnLCAnLXRuJywgJzgnLCAnLW1hJywgJzIwMCcsICctbWV0YWxfYmluZGluZycsICctaW1hZScsICc8aW5maWxlLm1hZT4nLCAnLW9tYWUnLCAnPG91dGZpbGUubWFlPic=

> <r_epik_Ionization_Penalty>
0.345029

> <r_epik_Ionization_Penalty_Charging>
0

> <r_epik_Ionization_Penalty_Neutral>
0.345029

> <r_epik_State_Penalty>
0.314465

> <r_epik_Charging_Adjusted_Penalty>
0.314465

> <i_epik_Tot_Q>
0

> <i_epik_Tot_abs_Q>
0

> <r_epik_Metal_State_Penalty>
0.239717

> <b_epik_Metal_Only>
0

> <s_lp_Force_Field>
OPLS_2005

> <r_lp_Energy>
29.8688

> <b_lp_Chiralities_Consistent>
1

> <s_lp_Variant>
AV-unprocessed.smi:467-2

> <Gold.Version>
5.8.1

> <Gold.Id.Protein>
6NUR|6NUR_protein|mol2

> <Gold.PLP.Fitness>
57.2859

> <Gold.PLP.PLP>
-51.4123

> <Gold.PLP.part.hbond>
-1.8719

> <Gold.PLP.part.metal>
0.0000

> <Gold.PLP.part.buried>
-3.9537

> <Gold.PLP.part.nonpolar>
-44.8087

> <Gold.PLP.part.repulsive>
0.1794

> <Gold.PLP.ligand.clash>
0.0000

> <Gold.PLP.ligand.torsion>
0.5940

> <Gold.PLP.Chemscore.Hbond>
1.3359

> <Gold.PLP.Chemscore.CHOScore>
1.0056

> <Gold.PLP.Chemscore.Metal>
0.0000

> <Gold.Chemscore.Hbonds>
donor molecule, donor type, donor heavy atom, donor atom, acceptor molecule, acceptor atom, score
      L1  H    10    30       P1  8028  1.00
      P1  H 10752 10764       L1    15  0.30
      L1  C     6    26       P1  8029  0.79

> <Gold.PLP.Chemscore.Internal.Correction>
0.0370

> <Gold.Rescore>
     Score         DG    S(hbond)    S(metal)    S(lipo)     H(rot)  DE(clash)    DE(int)     intcor
     19.12     -19.83       1.00        0.00     138.43       2.02       0.06       0.65       ----

> <Gold.Chemscore.Fitness>
19.1169

> <Gold.Chemscore.DG>
-19.8281

> <Gold.Chemscore.ZeroCoef>
-5.4800

> <Gold.Chemscore.Hbond>
0.9968

> <Gold.Chemscore.Metal>
0.0000

> <Gold.Chemscore.Lipo>
138.4342

> <Gold.Chemscore.Internal_Hbond>
0.0000

> <Gold.Chemscore.DEClash>
0.0573

> <Gold.Chemscore.DEInternal>
0.6539

> <Gold.Chemscore.Rot>
2.0227

> <Gold.Chemscore.Internal.Correction>
   9.000000E+99

> <Gold.Chemscore.Hbonds>
donor molecule, donor type, donor heavy atom, donor atom, acceptor molecule, acceptor atom, score
      L1  H    10    30       P1  8028  0.99
      P1  H 10752 10764       L1    15  0.26

> <Gold.Chemscore.Hbond.Weighted>
-3.3293

> <Gold.Chemscore.Metal.Weighted>
-0.0000

> <Gold.Chemscore.Lipo.Weighted>
-16.1968

> <Gold.Chemscore.Internal_Hbond.Weighted>
0.0000

> <Gold.Chemscore.DEClash.Weighted>
0.0573

> <Gold.Chemscore.DEInternal.Weighted>
0.6539

> <Gold.Chemscore.Rot.Weighted>
5.1780

> <Gold.Chemscore.Internal.Correction.Weighted>
   9.000000E+99

> <Gold.Protein.RotatedTorsions>
[ 6907 6896 6895 6894 ] final   16.96 input  -60.11 | X-H torsion
[ 7974 7965 7964 7962 ] final -157.93 input  175.53 | X-H torsion
[ 8008 7997 7996 7995 ] final -100.31 input   59.86 | X-H torsion
[ 10167 10162 10161 10158 ] final   56.24 input  -65.29 | X-H torsion
[ 10718 10713 10712 10709 ] final   77.75 input   66.30 | X-H torsion
[ 10763 10752 10751 10750 ] final  -33.20 input  -60.55 | X-H torsion
[ 11005 11000 10999 10996 ] final  163.74 input  -57.11 | X-H torsion

> <Gold.Protein.ActiveResidues>
 VAL166  LYS551  ARG553  GLY616  TRP617  ASP618  TYR619  PRO620  LYS621  CYS622 
 ASP623  PHE694  ASN695  SER759  ASP760  ASP761  ALA762  ILE779  LEU786  VAL792 
 PHE793  MET794  SER795  GLU796  ALA797  LYS798  CYS799  TRP800  GLU811  SER814 

> <Gold.Protein.RotatedAtoms>
  151.8421  135.0586  160.0449 H   0  0  0  0  0  0  0  0  0  0  0  0  # atno 6907 bound_to 6896
  152.2801  133.5458  159.5500 H   0  0  0  0  0  0  0  0  0  0  0  0  # atno 6908 bound_to 6896
  150.7186  134.0492  159.3835 H   0  0  0  0  0  0  0  0  0  0  0  0  # atno 6909 bound_to 6896
  144.7527  140.3900  143.6035 H   0  0  0  0  0  0  0  0  0  0  0  0  # atno 7974 bound_to 7965
  154.8269  140.0442  157.1450 H   0  0  0  0  0  0  0  0  0  0  0  0  # atno 8008 bound_to 7997
  154.9196  140.3025  155.5203 H   0  0  0  0  0  0  0  0  0  0  0  0  # atno 8009 bound_to 7997
  156.2984  140.2343  156.4244 H   0  0  0  0  0  0  0  0  0  0  0  0  # atno 8010 bound_to 7997
  140.2109  144.3890  150.6489 H   0  0  0  0  0  0  0  0  0  0  0  0  # atno 10167 bound_to 10162
  157.6721  130.9836  150.1687 H   0  0  0  0  0  0  0  0  0  0  0  0  # atno 10718 bound_to 10713
  153.8263  135.6870  153.4820 H   0  0  0  0  0  0  0  0  0  0  0  0  # atno 10763 bound_to 10752
  153.1538  135.4607  154.9673 H   0  0  0  0  0  0  0  0  0  0  0  0  # atno 10764 bound_to 10752
  154.7906  135.3300  154.7730 H   0  0  0  0  0  0  0  0  0  0  0  0  # atno 10765 bound_to 10752
  140.2389  134.8066  157.3391 H   0  0  0  0  0  0  0  0  0  0  0  0  # atno 11005 bound_to 11000
  145.6887  139.1634  143.2659 LP  0  0  0  0  0  0  0  0  0  0  0  0  # atno 17320 bound_to 7965
  146.1499  140.6940  142.9327 LP  0  0  0  0  0  0  0  0  0  0  0  0  # atno 17321 bound_to 7965
  140.6324  143.2189  151.6467 LP  0  0  0  0  0  0  0  0  0  0  0  0  # atno 17342 bound_to 10162
  139.5180  144.3297  152.0837 LP  0  0  0  0  0  0  0  0  0  0  0  0  # atno 17343 bound_to 10162
  156.2446  130.3694  149.8299 LP  0  0  0  0  0  0  0  0  0  0  0  0  # atno 17370 bound_to 10713
  156.6089  130.8578  151.3449 LP  0  0  0  0  0  0  0  0  0  0  0  0  # atno 17371 bound_to 10713
  140.1674  134.4652  155.7854 LP  0  0  0  0  0  0  0  0  0  0  0  0  # atno 17394 bound_to 11000
  141.2212  133.6927  156.7649 LP  0  0  0  0  0  0  0  0  0  0  0  0  # atno 17395 bound_to 11000

$$$$
