AV-unprocessed.smi:1514|AV-procd|sdf|6115|dock5
  -GOLD-   22720 6253D 1   1.00000     0.00000
 Structure written by MMmdl.
 48 49  0  0  0  0  0  0  0  0  2 V2000
  144.6944  131.4179  150.7948 C   0  0  0  0  0  0  0  0  0  0  0  0
  145.1327  132.1535  152.0694 C   0  0  0  0  0  0  0  0  0  0  0  0
  146.4671  132.7421  151.9323 N   0  0  0  0  0  0  0  0  0  0  0  0
  146.5165  133.7794  150.8994 C   0  0  0  0  0  0  0  0  0  0  0  0
  145.7726  135.0616  151.3293 C   0  0  0  0  0  0  0  0  0  0  0  0
  146.3404  135.5984  152.5897 N   0  3  0  0  0  0  0  0  0  0  0  0
  145.7039  136.8753  152.9974 C   0  0  0  0  0  0  0  0  0  0  0  0
  146.0899  138.0473  152.0742 C   0  0  0  0  0  0  0  0  0  0  0  0
  147.3668  138.6362  152.4609 N   0  0  0  0  0  0  0  0  0  0  0  0
  147.6661  139.0723  153.6932 C   0  0  0  0  0  0  0  0  0  0  0  0
  146.8737  139.0273  154.6345 O   0  0  0  0  0  0  0  0  0  0  0  0
  148.9200  139.5545  153.7487 N   0  0  0  0  0  0  0  0  0  0  0  0
  149.5791  140.0860  154.8125 C   0  0  0  0  0  0  0  0  0  0  0  0
  149.2669  141.1929  155.5536 C   0  0  0  0  0  0  0  0  0  0  0  0
  150.3200  141.2350  156.5131 C   0  0  0  0  0  0  0  0  0  0  0  0
  150.5295  142.2355  157.6111 C   0  0  0  0  0  0  0  0  0  0  0  0
  151.1900  140.2423  156.3635 N   0  0  0  0  0  0  0  0  0  0  0  0
  150.7350  139.5276  155.3118 N   0  0  0  0  0  0  0  0  0  0  0  0
  151.4570  138.3517  154.8662 C   0  0  0  0  0  0  0  0  0  0  0  0
  146.3088  134.5554  153.6461 C   0  0  0  0  0  0  0  0  0  0  0  0
  147.0381  133.2809  153.1714 C   0  0  0  0  0  0  0  0  0  0  0  0
  143.6530  131.1063  150.8756 H   0  0  0  0  0  0  0  0  0  0  0  0
  145.2842  130.5196  150.6156 H   0  0  0  0  0  0  0  0  0  0  0  0
  144.7780  132.0606  149.9177 H   0  0  0  0  0  0  0  0  0  0  0  0
  144.4202  132.9588  152.2528 H   0  0  0  0  0  0  0  0  0  0  0  0
  145.0712  131.4866  152.9284 H   0  0  0  0  0  0  0  0  0  0  0  0
  147.5611  134.0158  150.6920 H   0  0  0  0  0  0  0  0  0  0  0  0
  146.1004  133.3929  149.9683 H   0  0  0  0  0  0  0  0  0  0  0  0
  145.8727  135.8082  150.5407 H   0  0  0  0  0  0  0  0  0  0  0  0
  144.7041  134.8765  151.4480 H   0  0  0  0  0  0  0  0  0  0  0  0
  144.6194  136.7609  152.9619 H   0  0  0  0  0  0  0  0  0  0  0  0
  145.9561  137.0910  154.0369 H   0  0  0  0  0  0  0  0  0  0  0  0
  146.1452  137.7347  151.0311 H   0  0  0  0  0  0  0  0  0  0  0  0
  145.3285  138.8262  152.1244 H   0  0  0  0  0  0  0  0  0  0  0  0
  148.0748  138.7067  151.7442 H   0  0  0  0  0  0  0  0  0  0  0  0
  149.4487  139.5225  152.8896 H   0  0  0  0  0  0  0  0  0  0  0  0
  148.4339  141.8710  155.4469 H   0  0  0  0  0  0  0  0  0  0  0  0
  149.6768  142.9091  157.6980 H   0  0  0  0  0  0  0  0  0  0  0  0
  151.4147  142.8433  157.4229 H   0  0  0  0  0  0  0  0  0  0  0  0
  150.6609  141.7419  158.5743 H   0  0  0  0  0  0  0  0  0  0  0  0
  151.7669  138.4834  153.8294 H   0  0  0  0  0  0  0  0  0  0  0  0
  150.8112  137.4763  154.9379 H   0  0  0  0  0  0  0  0  0  0  0  0
  152.3429  138.1881  155.4814 H   0  0  0  0  0  0  0  0  0  0  0  0
  146.8032  134.9209  154.5453 H   0  0  0  0  0  0  0  0  0  0  0  0
  145.2787  134.3364  153.9296 H   0  0  0  0  0  0  0  0  0  0  0  0
  147.0324  132.5258  153.9564 H   0  0  0  0  0  0  0  0  0  0  0  0
  148.0885  133.5137  152.9914 H   0  0  0  0  0  0  0  0  0  0  0  0
  147.3114  135.8009  152.3996 H   0  0  0  0  0  0  0  0  0  0  0  0
  1  2  1  0  0  0  0
  1 22  1  0  0  0  0
  1 23  1  0  0  0  0
  1 24  1  0  0  0  0
  2  3  1  0  0  0  0
  2 25  1  0  0  0  0
  2 26  1  0  0  0  0
  3 21  1  0  0  0  0
  3  4  1  0  0  0  0
  4  5  1  0  0  0  0
  4 27  1  0  0  0  0
  4 28  1  0  0  0  0
  5  6  1  0  0  0  0
  5 29  1  0  0  0  0
  5 30  1  0  0  0  0
  6  7  1  0  0  0  0
  6 20  1  0  0  0  0
  6 48  1  0  0  0  0
  7  8  1  0  0  0  0
  7 31  1  0  0  0  0
  7 32  1  0  0  0  0
  8  9  1  0  0  0  0
  8 33  1  0  0  0  0
  8 34  1  0  0  0  0
  9 10  1  0  0  0  0
  9 35  1  0  0  0  0
 10 11  2  0  0  0  0
 10 12  1  0  0  0  0
 12 13  1  0  0  0  0
 12 36  1  0  0  0  0
 13 18  1  0  0  0  0
 13 14  2  0  0  0  0
 14 15  1  0  0  0  0
 14 37  1  0  0  0  0
 15 16  1  0  0  0  0
 15 17  2  0  0  0  0
 16 38  1  0  0  0  0
 16 39  1  0  0  0  0
 16 40  1  0  0  0  0
 17 18  1  0  0  0  0
 18 19  1  0  0  0  0
 19 41  1  0  0  0  0
 19 42  1  0  0  0  0
 19 43  1  0  0  0  0
 20 21  1  0  0  0  0
 20 44  1  0  0  0  0
 20 45  1  0  0  0  0
 21 46  1  0  0  0  0
 21 47  1  0  0  0  0
M  CHG  1   6   1
M  END
> <s_m_source_file>
AV-unprocessed.smi

> <i_m_source_file_index>
1514

> <i_lp_mmshare_version>
43012

> <i_f3d_flags>
0

> <s_epik_input>
W0NIM11bQ0gyXU4xW0NIMl1bQ0gyXU4oW0NIMl1bQ0gyXTEpW0NIMl1bQ0gyXVtOSF1DKD1PKVtOSF1jMltjSF1jKFtDSDNdKW5uMltDSDNd

> <s_epik_cmdline>
J2VwaWtfcHl0aG9uJywgJy1waCcsICc3LjAnLCAnLXRuJywgJzgnLCAnLW1hJywgJzIwMCcsICctbWV0YWxfYmluZGluZycsICctaW1hZScsICc8aW5maWxlLm1hZT4nLCAnLW9tYWUnLCAnPG91dGZpbGUubWFlPic=

> <r_epik_Ionization_Penalty>
0.237948

> <r_epik_Ionization_Penalty_Charging>
0.236594

> <r_epik_Ionization_Penalty_Neutral>
0.00135429

> <r_epik_State_Penalty>
1.1865

> <r_epik_Charging_Adjusted_Penalty>
1.42309

> <i_epik_Tot_Q>
1

> <i_epik_Tot_abs_Q>
1

> <r_epik_Metal_State_Penalty>
1.18651

> <b_epik_Metal_Only>
0

> <s_lp_Force_Field>
OPLS_2005

> <r_lp_Energy>
18.1448

> <b_lp_Chiralities_Consistent>
1

> <s_lp_Variant>
AV-unprocessed.smi:1514-2

> <Gold.Version>
5.8.1

> <Gold.Id.Protein>
6NUR|6NUR_protein|mol2

> <Gold.PLP.Fitness>
49.2516

> <Gold.PLP.PLP>
-40.1734

> <Gold.PLP.part.hbond>
-3.6622

> <Gold.PLP.part.metal>
0.0000

> <Gold.PLP.part.buried>
-3.9322

> <Gold.PLP.part.nonpolar>
-32.3877

> <Gold.PLP.part.repulsive>
0.4779

> <Gold.PLP.ligand.clash>
0.0000

> <Gold.PLP.ligand.torsion>
0.8391

> <Gold.PLP.Chemscore.Hbond>
3.5680

> <Gold.PLP.Chemscore.CHOScore>
0.0000

> <Gold.PLP.Chemscore.Metal>
0.0000

> <Gold.Chemscore.Hbonds>
donor molecule, donor type, donor heavy atom, donor atom, acceptor molecule, acceptor atom, score
      L1  H     6    48       P1  7948  2.00
      L1  H     9    35       P1  7957  0.72
      L1  H    12    36       P1  7957  0.98

> <Gold.PLP.Chemscore.Internal.Correction>
0.0524

> <Gold.Rescore>
     Score         DG    S(hbond)    S(metal)    S(lipo)     H(rot)  DE(clash)    DE(int)     intcor
     16.34     -19.26       2.92        0.00      71.31       1.69       0.24       2.68       ----

> <Gold.Chemscore.Fitness>
16.3416

> <Gold.Chemscore.DG>
-19.2588

> <Gold.Chemscore.ZeroCoef>
-5.4800

> <Gold.Chemscore.Hbond>
2.9237

> <Gold.Chemscore.Metal>
0.0000

> <Gold.Chemscore.Lipo>
71.3123

> <Gold.Chemscore.Internal_Hbond>
0.0000

> <Gold.Chemscore.DEClash>
0.2386

> <Gold.Chemscore.DEInternal>
2.6786

> <Gold.Chemscore.Rot>
1.6914

> <Gold.Chemscore.Internal.Correction>
   9.000000E+99

> <Gold.Chemscore.Hbonds>
donor molecule, donor type, donor heavy atom, donor atom, acceptor molecule, acceptor atom, score
      L1  H     6    48       P1  7948  1.00
      L1  H     9    35       P1  7957  0.53
      L1  H    12    36       P1  7957  0.93

> <Gold.Chemscore.Hbond.Weighted>
-9.7652

> <Gold.Chemscore.Metal.Weighted>
-0.0000

> <Gold.Chemscore.Lipo.Weighted>
-8.3435

> <Gold.Chemscore.Internal_Hbond.Weighted>
0.0000

> <Gold.Chemscore.DEClash.Weighted>
0.2386

> <Gold.Chemscore.DEInternal.Weighted>
2.6786

> <Gold.Chemscore.Rot.Weighted>
4.3299

> <Gold.Chemscore.Internal.Correction.Weighted>
   9.000000E+99

> <Gold.Protein.RotatedTorsions>
[ 6907 6896 6895 6894 ] final -174.84 input  -60.11 | X-H torsion
[ 7974 7965 7964 7962 ] final -177.23 input  175.53 | X-H torsion
[ 8008 7997 7996 7995 ] final  -92.09 input   59.86 | X-H torsion
[ 10167 10162 10161 10158 ] final  -96.97 input  -65.29 | X-H torsion
[ 10718 10713 10712 10709 ] final   87.08 input   66.30 | X-H torsion
[ 10763 10752 10751 10750 ] final  -76.94 input  -60.55 | X-H torsion
[ 11005 11000 10999 10996 ] final   87.55 input  -57.11 | X-H torsion

> <Gold.Protein.ActiveResidues>
 VAL166  LYS551  ARG553  GLY616  TRP617  ASP618  TYR619  PRO620  LYS621  CYS622 
 ASP623  PHE694  ASN695  SER759  ASP760  ASP761  ALA762  ILE779  LEU786  VAL792 
 PHE793  MET794  SER795  GLU796  ALA797  LYS798  CYS799  TRP800  GLU811  SER814 

> <Gold.Protein.RotatedAtoms>
  151.5789  133.3380  159.3004 H   0  0  0  0  0  0  0  0  0  0  0  0  # atno 6907 bound_to 6896
  150.8325  134.7587  159.6876 H   0  0  0  0  0  0  0  0  0  0  0  0  # atno 6908 bound_to 6896
  152.4406  134.5605  159.9944 H   0  0  0  0  0  0  0  0  0  0  0  0  # atno 6909 bound_to 6896
  144.7127  140.1050  143.6414 H   0  0  0  0  0  0  0  0  0  0  0  0  # atno 7974 bound_to 7965
  154.7187  140.0512  157.0619 H   0  0  0  0  0  0  0  0  0  0  0  0  # atno 8008 bound_to 7997
  155.0456  140.3173  155.4690 H   0  0  0  0  0  0  0  0  0  0  0  0  # atno 8009 bound_to 7997
  156.2810  140.2125  156.5581 H   0  0  0  0  0  0  0  0  0  0  0  0  # atno 8010 bound_to 7997
  140.2883  143.3237  152.0371 H   0  0  0  0  0  0  0  0  0  0  0  0  # atno 10167 bound_to 10162
  157.6936  131.0241  150.3070 H   0  0  0  0  0  0  0  0  0  0  0  0  # atno 10718 bound_to 10713
  154.5065  135.5780  153.6571 H   0  0  0  0  0  0  0  0  0  0  0  0  # atno 10763 bound_to 10752
  152.9888  135.6148  154.2935 H   0  0  0  0  0  0  0  0  0  0  0  0  # atno 10764 bound_to 10752
  154.2846  135.2850  155.2661 H   0  0  0  0  0  0  0  0  0  0  0  0  # atno 10765 bound_to 10752
  139.8917  134.8429  156.2875 H   0  0  0  0  0  0  0  0  0  0  0  0  # atno 11005 bound_to 11000
  145.9504  139.2730  143.1215 LP  0  0  0  0  0  0  0  0  0  0  0  0  # atno 17320 bound_to 7965
  145.9328  140.9036  143.0347 LP  0  0  0  0  0  0  0  0  0  0  0  0  # atno 17321 bound_to 7965
  139.4944  144.6543  151.6607 LP  0  0  0  0  0  0  0  0  0  0  0  0  # atno 17342 bound_to 10162
  140.5754  144.0038  150.6239 LP  0  0  0  0  0  0  0  0  0  0  0  0  # atno 17343 bound_to 10162
  156.3577  130.3841  149.7276 LP  0  0  0  0  0  0  0  0  0  0  0  0  # atno 17370 bound_to 10713
  156.4733  130.8007  151.3024 LP  0  0  0  0  0  0  0  0  0  0  0  0  # atno 17371 bound_to 10713
  140.9998  133.7158  156.0942 LP  0  0  0  0  0  0  0  0  0  0  0  0  # atno 17394 bound_to 11000
  140.7513  134.4041  157.5541 LP  0  0  0  0  0  0  0  0  0  0  0  0  # atno 17395 bound_to 11000

$$$$
