AV-unprocessed.smi:2978|AV-procd|sdf|11368|dock10
  -GOLD-   2272016283D 1   1.00000     0.00000
 Structure written by MMmdl.
 32 33  0  0  0  0  0  0  0  0  1 V2000
  150.1741  141.1610  157.9450 O   0  0  0  0  0  0  0  0  0  0  0  0
  150.5280  142.0010  157.1163 C   0  0  0  0  0  0  0  0  0  0  0  0
  151.4962  143.1281  157.5046 C   0  0  0  0  0  0  0  0  0  0  0  0
  152.0133  143.0055  158.8756 N   0  0  0  0  0  0  0  0  0  0  0  0
  151.6846  144.0678  159.6997 N   0  0  0  0  0  0  0  0  0  0  0  0
  152.0693  144.0590  160.9293 C   0  0  0  0  0  0  0  0  0  0  0  0
  152.8434  142.9720  161.4868 C   0  0  0  0  0  0  0  0  0  0  0  0
  153.3301  143.0157  163.1447 Cl  0  0  0  0  0  0  0  0  0  0  0  0
  153.1668  141.9393  160.6686 C   0  0  0  0  0  0  0  0  0  0  0  0
  154.0939  140.6043  161.2624 Cl  0  0  0  0  0  0  0  0  0  0  0  0
  152.7459  141.9152  159.2608 C   0  0  0  0  0  0  0  0  0  0  0  0
  153.0214  140.9984  158.4856 O   0  0  0  0  0  0  0  0  0  0  0  0
  150.0901  142.0140  155.8481 N   0  0  0  0  0  0  0  0  0  0  0  0
  149.1618  141.0528  155.2617 C   0  0  0  0  0  0  0  0  0  0  0  0
  149.8981  139.8584  154.6316 C   0  0  2  0  0  0  0  0  0  0  0  0
  149.5508  138.4930  155.2274 C   0  0  0  0  0  0  0  0  0  0  0  0
  150.7924  137.6948  154.9046 C   0  0  0  0  0  0  0  0  0  0  0  0
  151.8912  138.7314  155.1189 C   0  0  0  0  0  0  0  0  0  0  0  0
  151.3045  139.9956  154.8182 O   0  0  0  0  0  0  0  0  0  0  0  0
  152.3258  143.1597  156.7956 H   0  0  0  0  0  0  0  0  0  0  0  0
  150.9720  144.0774  157.3825 H   0  0  0  0  0  0  0  0  0  0  0  0
  151.8321  144.8721  161.6156 H   0  0  0  0  0  0  0  0  0  0  0  0
  150.4284  142.7454  155.2396 H   0  0  0  0  0  0  0  0  0  0  0  0
  148.5102  140.6955  156.0595 H   0  0  0  0  0  0  0  0  0  0  0  0
  148.5090  141.5304  154.5290 H   0  0  0  0  0  0  0  0  0  0  0  0
  149.7160  139.8357  153.5557 H   0  0  0  0  0  0  0  0  0  0  0  0
  149.4266  138.5640  156.3089 H   0  0  0  0  0  0  0  0  0  0  0  0
  148.6426  138.0615  154.8057 H   0  0  0  0  0  0  0  0  0  0  0  0
  150.9114  136.8112  155.5322 H   0  0  0  0  0  0  0  0  0  0  0  0
  150.7721  137.3758  153.8616 H   0  0  0  0  0  0  0  0  0  0  0  0
  152.2092  138.7384  156.1621 H   0  0  0  0  0  0  0  0  0  0  0  0
  152.7678  138.5414  154.4992 H   0  0  0  0  0  0  0  0  0  0  0  0
  1  2  2  0  0  0  0
  2  3  1  0  0  0  0
  2 13  1  0  0  0  0
  3  4  1  0  0  0  0
  3 20  1  0  0  0  0
  3 21  1  0  0  0  0
  4 11  1  0  0  0  0
  4  5  1  0  0  0  0
  5  6  2  0  0  0  0
  6  7  1  0  0  0  0
  6 22  1  0  0  0  0
  7  8  1  0  0  0  0
  7  9  2  0  0  0  0
  9 10  1  0  0  0  0
  9 11  1  0  0  0  0
 11 12  2  0  0  0  0
 13 14  1  0  0  0  0
 13 23  1  0  0  0  0
 14 15  1  0  0  0  0
 14 24  1  0  0  0  0
 14 25  1  0  0  0  0
 15 19  1  0  0  0  0
 15 16  1  0  0  0  0
 15 26  1  0  0  0  0
 16 17  1  0  0  0  0
 16 27  1  0  0  0  0
 16 28  1  0  0  0  0
 17 18  1  0  0  0  0
 17 29  1  0  0  0  0
 17 30  1  0  0  0  0
 18 19  1  0  0  0  0
 18 31  1  0  0  0  0
 18 32  1  0  0  0  0
M  END
> <s_m_source_file>
AV-unprocessed.smi

> <i_m_source_file_index>
2978

> <i_lp_mmshare_version>
43012

> <i_f3d_flags>
0

> <s_epik_input>
TzFbQ0gyXVtDSDJdW0NIMl1bQ0BIXTFbQ0gyXVtOSF1DKD1PKVtDSDJdbjJuW2NIXWMoQ2wpYyhDbCljMj1P

> <s_epik_cmdline>
J2VwaWtfcHl0aG9uJywgJy1waCcsICc3LjAnLCAnLXRuJywgJzgnLCAnLW1hJywgJzIwMCcsICctbWV0YWxfYmluZGluZycsICctaW1hZScsICc8aW5maWxlLm1hZT4nLCAnLW9tYWUnLCAnPG91dGZpbGUubWFlPic=

> <r_lp_tautomer_probability>
1

> <r_epik_Ionization_Penalty>
2.68881e-08

> <r_epik_Ionization_Penalty_Charging>
2.90862e-11

> <r_epik_Ionization_Penalty_Neutral>
2.6859e-08

> <r_epik_State_Penalty>
-0

> <r_epik_Charging_Adjusted_Penalty>
2.90862e-11

> <i_epik_Tot_Q>
0

> <i_epik_Tot_abs_Q>
0

> <r_epik_Metal_State_Penalty>
-0

> <b_epik_Metal_Only>
0

> <s_lp_Force_Field>
OPLS_2005

> <r_lp_Energy>
31.3125

> <b_lp_Chiralities_Consistent>
1

> <s_lp_Variant>
AV-unprocessed.smi:2978-1

> <Gold.Version>
5.8.1

> <Gold.Id.Protein>
6NUR|6NUR_protein|mol2

> <Gold.PLP.Fitness>
46.1241

> <Gold.PLP.PLP>
-44.2253

> <Gold.PLP.part.hbond>
-2.9351

> <Gold.PLP.part.metal>
0.0000

> <Gold.PLP.part.buried>
-4.2517

> <Gold.PLP.part.nonpolar>
-36.6744

> <Gold.PLP.part.repulsive>
0.2624

> <Gold.PLP.ligand.clash>
0.0000

> <Gold.PLP.ligand.torsion>
0.9597

> <Gold.PLP.Chemscore.Hbond>
1.2702

> <Gold.PLP.Chemscore.CHOScore>
0.0000

> <Gold.PLP.Chemscore.Metal>
0.0000

> <Gold.Chemscore.Hbonds>
donor molecule, donor type, donor heavy atom, donor atom, acceptor molecule, acceptor atom, score
      P1  H  7989  7998       L1    19  0.95
      P1  H  7997  8009       L1    12  0.15

> <Gold.PLP.Chemscore.Internal.Correction>
0.0076

> <Gold.Rescore>
     Score         DG    S(hbond)    S(metal)    S(lipo)     H(rot)  DE(clash)    DE(int)     intcor
     14.84     -16.24       1.42        0.00      91.44       1.83       0.34       1.06       ----

> <Gold.Chemscore.Fitness>
14.8375

> <Gold.Chemscore.DG>
-16.2426

> <Gold.Chemscore.ZeroCoef>
-5.4800

> <Gold.Chemscore.Hbond>
1.4233

> <Gold.Chemscore.Metal>
0.0000

> <Gold.Chemscore.Lipo>
91.4426

> <Gold.Chemscore.Internal_Hbond>
0.0000

> <Gold.Chemscore.DEClash>
0.3402

> <Gold.Chemscore.DEInternal>
1.0649

> <Gold.Chemscore.Rot>
1.8320

> <Gold.Chemscore.Internal.Correction>
   9.000000E+99

> <Gold.Chemscore.Hbonds>
donor molecule, donor type, donor heavy atom, donor atom, acceptor molecule, acceptor atom, score
      P1  H  7989  7998       L1    19  0.21
      P1  H  7997  8009       L1    12  0.14

> <Gold.Chemscore.Hbond.Weighted>
-4.7538

> <Gold.Chemscore.Metal.Weighted>
-0.0000

> <Gold.Chemscore.Lipo.Weighted>
-10.6988

> <Gold.Chemscore.Internal_Hbond.Weighted>
0.0000

> <Gold.Chemscore.DEClash.Weighted>
0.3402

> <Gold.Chemscore.DEInternal.Weighted>
1.0649

> <Gold.Chemscore.Rot.Weighted>
4.6900

> <Gold.Chemscore.Internal.Correction.Weighted>
   9.000000E+99

> <Gold.Protein.RotatedTorsions>
[ 6907 6896 6895 6894 ] final   68.43 input  -60.11 | X-H torsion
[ 7974 7965 7964 7962 ] final   37.55 input  175.53 | X-H torsion
[ 8008 7997 7996 7995 ] final  154.88 input   59.86 | X-H torsion
[ 10167 10162 10161 10158 ] final  125.62 input  -65.29 | X-H torsion
[ 10718 10713 10712 10709 ] final -118.82 input   66.30 | X-H torsion
[ 10763 10752 10751 10750 ] final   86.29 input  -60.55 | X-H torsion
[ 11005 11000 10999 10996 ] final  138.39 input  -57.11 | X-H torsion

> <Gold.Protein.ActiveResidues>
 VAL166  LYS551  ARG553  GLY616  TRP617  ASP618  TYR619  PRO620  LYS621  CYS622 
 ASP623  PHE694  ASN695  SER759  ASP760  ASP761  ALA762  ILE779  LEU786  VAL792 
 PHE793  MET794  SER795  GLU796  ALA797  LYS798  CYS799  TRP800  GLU811  SER814 

> <Gold.Protein.RotatedAtoms>
  152.4619  134.5164  159.9769 H   0  0  0  0  0  0  0  0  0  0  0  0  # atno 6907 bound_to 6896
  151.5211  133.3460  159.2909 H   0  0  0  0  0  0  0  0  0  0  0  0  # atno 6908 bound_to 6896
  150.8586  134.7961  159.7127 H   0  0  0  0  0  0  0  0  0  0  0  0  # atno 6909 bound_to 6896
  146.1129  139.5880  142.9340 H   0  0  0  0  0  0  0  0  0  0  0  0  # atno 7974 bound_to 7965
  156.2508  140.1954  156.6715 H   0  0  0  0  0  0  0  0  0  0  0  0  # atno 8008 bound_to 7997
  154.6389  140.0586  156.9848 H   0  0  0  0  0  0  0  0  0  0  0  0  # atno 8009 bound_to 7997
  155.1593  140.3258  155.4417 H   0  0  0  0  0  0  0  0  0  0  0  0  # atno 8010 bound_to 7997
  139.5676  144.6920  151.3868 H   0  0  0  0  0  0  0  0  0  0  0  0  # atno 10167 bound_to 10162
  156.1134  130.6267  150.9338 H   0  0  0  0  0  0  0  0  0  0  0  0  # atno 10718 bound_to 10713
  153.1556  135.4586  154.9699 H   0  0  0  0  0  0  0  0  0  0  0  0  # atno 10763 bound_to 10752
  154.7858  135.3203  154.7891 H   0  0  0  0  0  0  0  0  0  0  0  0  # atno 10764 bound_to 10752
  153.8389  135.6932  153.4860 H   0  0  0  0  0  0  0  0  0  0  0  0  # atno 10765 bound_to 10752
  140.0180  134.9409  157.0416 H   0  0  0  0  0  0  0  0  0  0  0  0  # atno 11005 bound_to 11000
  145.5626  141.0403  143.2218 LP  0  0  0  0  0  0  0  0  0  0  0  0  # atno 17320 bound_to 7965
  144.7527  139.7152  143.7266 LP  0  0  0  0  0  0  0  0  0  0  0  0  # atno 17321 bound_to 7965
  140.6960  143.7749  150.7327 LP  0  0  0  0  0  0  0  0  0  0  0  0  # atno 17342 bound_to 10162
  140.1245  143.4582  152.2292 LP  0  0  0  0  0  0  0  0  0  0  0  0  # atno 17343 bound_to 10162
  157.6317  131.0920  150.8429 LP  0  0  0  0  0  0  0  0  0  0  0  0  # atno 17370 bound_to 10713
  156.8536  130.5089  149.5309 LP  0  0  0  0  0  0  0  0  0  0  0  0  # atno 17371 bound_to 10713
  140.4437  134.1655  155.7176 LP  0  0  0  0  0  0  0  0  0  0  0  0  # atno 17394 bound_to 11000
  141.1755  133.8522  157.1433 LP  0  0  0  0  0  0  0  0  0  0  0  0  # atno 17395 bound_to 11000

$$$$
