AV-unprocessed.smi:3252|AV-procd|sdf|12439|dock1
  -GOLD-   2272018333D 1   1.00000     0.00000
 Structure written by MMmdl.
 37 38  0  0  0  0  0  0  0  0  2 V2000
  144.4657  136.6386  152.3694 C   0  0  0  0  0  0  0  0  0  0  0  0
  145.7491  137.4811  152.3622 C   0  0  0  0  0  0  0  0  0  0  0  0
  145.6732  138.6466  153.2783 N   0  3  1  0  0  0  0  0  0  0  0  0
  145.5346  138.2386  154.6963 C   0  0  0  0  0  0  0  0  0  0  0  0
  145.4156  139.4738  155.6037 C   0  0  0  0  0  0  0  0  0  0  0  0
  146.5441  140.3163  155.4078 O   0  0  0  0  0  0  0  0  0  0  0  0
  146.6293  140.8016  154.0717 C   0  0  1  0  0  0  0  0  0  0  0  0
  147.8254  141.7650  153.9833 C   0  0  0  0  0  0  0  0  0  0  0  0
  149.1010  141.0670  153.8755 N   0  0  0  0  0  0  0  0  0  0  0  0
  149.9184  140.8422  154.9930 C   0  0  0  0  0  0  0  0  0  0  0  0
  149.5006  141.3428  156.2441 C   0  0  0  0  0  0  0  0  0  0  0  0
  150.3154  141.1228  157.3721 C   0  0  0  0  0  0  0  0  0  0  0  0
  151.5202  140.4111  157.2092 C   0  0  0  0  0  0  0  0  0  0  0  0
  152.3967  140.1606  158.3406 C   0  0  0  0  0  0  0  0  0  0  0  0
  153.0945  139.9611  159.2415 N   0  0  0  0  0  0  0  0  0  0  0  0
  151.8541  139.9488  155.9202 C   0  0  0  0  0  0  0  0  0  0  0  0
  151.0762  140.1564  154.8356 N   0  0  0  0  0  0  0  0  0  0  0  0
  146.8013  139.5985  153.1244 C   0  0  0  0  0  0  0  0  0  0  0  0
  144.5940  135.7426  151.7621 H   0  0  0  0  0  0  0  0  0  0  0  0
  143.6150  137.1835  151.9611 H   0  0  0  0  0  0  0  0  0  0  0  0
  144.2089  136.3184  153.3794 H   0  0  0  0  0  0  0  0  0  0  0  0
  146.5725  136.8376  152.6753 H   0  0  0  0  0  0  0  0  0  0  0  0
  145.9844  137.8139  151.3503 H   0  0  0  0  0  0  0  0  0  0  0  0
  144.6528  137.6084  154.8180 H   0  0  0  0  0  0  0  0  0  0  0  0
  146.3995  137.6417  154.9910 H   0  0  0  0  0  0  0  0  0  0  0  0
  144.4945  140.0225  155.4001 H   0  0  0  0  0  0  0  0  0  0  0  0
  145.3801  139.1693  156.6498 H   0  0  0  0  0  0  0  0  0  0  0  0
  145.7096  141.3299  153.8143 H   0  0  0  0  0  0  0  0  0  0  0  0
  147.7138  142.4157  153.1155 H   0  0  0  0  0  0  0  0  0  0  0  0
  147.8479  142.4219  154.8537 H   0  0  0  0  0  0  0  0  0  0  0  0
  149.3884  140.7220  152.9708 H   0  0  0  0  0  0  0  0  0  0  0  0
  148.5723  141.8864  156.3432 H   0  0  0  0  0  0  0  0  0  0  0  0
  150.0162  141.4969  158.3407 H   0  0  0  0  0  0  0  0  0  0  0  0
  152.7685  139.3997  155.7478 H   0  0  0  0  0  0  0  0  0  0  0  0
  147.7423  139.0864  153.3327 H   0  0  0  0  0  0  0  0  0  0  0  0
  146.8537  139.9578  152.0971 H   0  0  0  0  0  0  0  0  0  0  0  0
  144.8283  139.1476  153.0423 H   0  0  0  0  0  0  0  0  0  0  0  0
  1  2  1  0  0  0  0
  1 19  1  0  0  0  0
  1 20  1  0  0  0  0
  1 21  1  0  0  0  0
  2  3  1  0  0  0  0
  2 22  1  0  0  0  0
  2 23  1  0  0  0  0
  3 18  1  0  0  0  0
  3  4  1  0  0  0  0
  3 37  1  0  0  0  0
  4  5  1  0  0  0  0
  4 24  1  0  0  0  0
  4 25  1  0  0  0  0
  5  6  1  0  0  0  0
  5 26  1  0  0  0  0
  5 27  1  0  0  0  0
  6  7  1  0  0  0  0
  7  8  1  0  0  0  0
  7 18  1  0  0  0  0
  7 28  1  0  0  0  0
  8  9  1  0  0  0  0
  8 29  1  0  0  0  0
  8 30  1  0  0  0  0
  9 10  1  0  0  0  0
  9 31  1  0  0  0  0
 10 17  1  0  0  0  0
 10 11  2  0  0  0  0
 11 12  1  0  0  0  0
 11 32  1  0  0  0  0
 12 13  2  0  0  0  0
 12 33  1  0  0  0  0
 13 14  1  0  0  0  0
 13 16  1  0  0  0  0
 14 15  3  0  0  0  0
 16 17  2  0  0  0  0
 16 34  1  0  0  0  0
 18 35  1  0  0  0  0
 18 36  1  0  0  0  0
M  CHG  1   3   1
M  END
> <s_m_source_file>
AV-unprocessed.smi

> <i_m_source_file_index>
3252

> <i_lp_mmshare_version>
43012

> <i_f3d_flags>
0

> <s_epik_input>
W0NIM11bQ0gyXU4xW0NIMl1bQ0gyXU9bQ0BIXShbQ0gyXTEpW0NIMl1bTkhdYzJbY0hdW2NIXWMoQyNOKVtjSF1uMg==

> <s_epik_cmdline>
J2VwaWtfcHl0aG9uJywgJy1waCcsICc3LjAnLCAnLXRuJywgJzgnLCAnLW1hJywgJzIwMCcsICctbWV0YWxfYmluZGluZycsICctaW1hZScsICc8aW5maWxlLm1hZT4nLCAnLW9tYWUnLCAnPG91dGZpbGUubWFlPic=

> <r_epik_Ionization_Penalty>
0.178512

> <r_epik_Ionization_Penalty_Charging>
0.178504

> <r_epik_Ionization_Penalty_Neutral>
8.15545e-06

> <r_epik_State_Penalty>
0.167974

> <r_epik_Charging_Adjusted_Penalty>
0.346478

> <i_epik_Tot_Q>
1

> <i_epik_Tot_abs_Q>
1

> <r_epik_Metal_State_Penalty>
0.167974

> <b_epik_Metal_Only>
0

> <s_lp_Force_Field>
OPLS_2005

> <r_lp_Energy>
17.3379

> <b_lp_Chiralities_Consistent>
1

> <s_lp_Variant>
AV-unprocessed.smi:3252-1

> <Gold.Version>
5.8.1

> <Gold.Id.Protein>
6NUR|6NUR_protein|mol2

> <Gold.PLP.Fitness>
38.5617

> <Gold.PLP.PLP>
-27.2735

> <Gold.PLP.part.hbond>
-3.0000

> <Gold.PLP.part.metal>
0.0000

> <Gold.PLP.part.buried>
-3.5810

> <Gold.PLP.part.nonpolar>
-21.6555

> <Gold.PLP.part.repulsive>
1.2154

> <Gold.PLP.ligand.clash>
0.0000

> <Gold.PLP.ligand.torsion>
0.3683

> <Gold.PLP.Chemscore.Hbond>
4.0000

> <Gold.PLP.Chemscore.CHOScore>
0.0000

> <Gold.PLP.Chemscore.Metal>
0.0000

> <Gold.Chemscore.Hbonds>
donor molecule, donor type, donor heavy atom, donor atom, acceptor molecule, acceptor atom, score
      L1  H     3    37       P1 10175  2.00
      L1  H     9    31       P1  7957  1.00
      P1  H  7989  7998       L1    17  1.00

> <Gold.PLP.Chemscore.Internal.Correction>
0.0248

> <Gold.Rescore>
     Score         DG    S(hbond)    S(metal)    S(lipo)     H(rot)  DE(clash)    DE(int)     intcor
     16.04     -16.59       2.63        0.00      51.99       1.47       0.19       0.36       ----

> <Gold.Chemscore.Fitness>
16.0422

> <Gold.Chemscore.DG>
-16.5864

> <Gold.Chemscore.ZeroCoef>
-5.4800

> <Gold.Chemscore.Hbond>
2.6292

> <Gold.Chemscore.Metal>
0.0000

> <Gold.Chemscore.Lipo>
51.9931

> <Gold.Chemscore.Internal_Hbond>
0.0000

> <Gold.Chemscore.DEClash>
0.1889

> <Gold.Chemscore.DEInternal>
0.3552

> <Gold.Chemscore.Rot>
1.4681

> <Gold.Chemscore.Internal.Correction>
   9.000000E+99

> <Gold.Chemscore.Hbonds>
donor molecule, donor type, donor heavy atom, donor atom, acceptor molecule, acceptor atom, score
      L1  H     3    37       P1 10175  1.00
      L1  H     9    31       P1  7957  0.99
      P1  H  7989  7998       L1    17  0.25

> <Gold.Chemscore.Hbond.Weighted>
-8.7816

> <Gold.Chemscore.Metal.Weighted>
-0.0000

> <Gold.Chemscore.Lipo.Weighted>
-6.0832

> <Gold.Chemscore.Internal_Hbond.Weighted>
0.0000

> <Gold.Chemscore.DEClash.Weighted>
0.1889

> <Gold.Chemscore.DEInternal.Weighted>
0.3552

> <Gold.Chemscore.Rot.Weighted>
3.7584

> <Gold.Chemscore.Internal.Correction.Weighted>
   9.000000E+99

> <Gold.Protein.RotatedTorsions>
[ 6907 6896 6895 6894 ] final -147.57 input  -60.11 | X-H torsion
[ 7974 7965 7964 7962 ] final   60.68 input  175.53 | X-H torsion
[ 8008 7997 7996 7995 ] final  159.09 input   59.86 | X-H torsion
[ 10167 10162 10161 10158 ] final  -92.54 input  -65.29 | X-H torsion
[ 10718 10713 10712 10709 ] final  135.66 input   66.30 | X-H torsion
[ 10763 10752 10751 10750 ] final   78.00 input  -60.55 | X-H torsion
[ 11005 11000 10999 10996 ] final   11.77 input  -57.11 | X-H torsion

> <Gold.Protein.ActiveResidues>
 VAL166  LYS551  ARG553  GLY616  TRP617  ASP618  TYR619  PRO620  LYS621  CYS622 
 ASP623  PHE694  ASN695  SER759  ASP760  ASP761  ALA762  ILE779  LEU786  VAL792 
 PHE793  MET794  SER795  GLU796  ALA797  LYS798  CYS799  TRP800  GLU811  SER814 

> <Gold.Protein.RotatedAtoms>
  151.1575  133.4867  159.2594 H   0  0  0  0  0  0  0  0  0  0  0  0  # atno 6907 bound_to 6896
  151.1489  135.0217  159.8669 H   0  0  0  0  0  0  0  0  0  0  0  0  # atno 6908 bound_to 6896
  152.5463  134.1461  159.8552 H   0  0  0  0  0  0  0  0  0  0  0  0  # atno 6909 bound_to 6896
  145.8933  139.3527  143.0636 H   0  0  0  0  0  0  0  0  0  0  0  0  # atno 7974 bound_to 7965
  156.2261  140.1840  156.7359 H   0  0  0  0  0  0  0  0  0  0  0  0  # atno 8008 bound_to 7997
  154.5944  140.0645  156.9311 H   0  0  0  0  0  0  0  0  0  0  0  0  # atno 8009 bound_to 7997
  155.2281  140.3312  155.4309 H   0  0  0  0  0  0  0  0  0  0  0  0  # atno 8010 bound_to 7997
  140.3337  143.2980  151.9913 H   0  0  0  0  0  0  0  0  0  0  0  0  # atno 10167 bound_to 10162
  157.4547  131.1069  150.9991 H   0  0  0  0  0  0  0  0  0  0  0  0  # atno 10718 bound_to 10713
  153.0841  135.4893  154.8561 H   0  0  0  0  0  0  0  0  0  0  0  0  # atno 10763 bound_to 10752
  154.7188  135.3035  154.9084 H   0  0  0  0  0  0  0  0  0  0  0  0  # atno 10764 bound_to 10752
  153.9754  135.6796  153.4801 H   0  0  0  0  0  0  0  0  0  0  0  0  # atno 10765 bound_to 10752
  140.4994  134.0761  155.7790 H   0  0  0  0  0  0  0  0  0  0  0  0  # atno 11005 bound_to 11000
  145.8881  140.9321  143.0566 LP  0  0  0  0  0  0  0  0  0  0  0  0  # atno 17320 bound_to 7965
  144.6731  140.0869  143.7467 LP  0  0  0  0  0  0  0  0  0  0  0  0  # atno 17321 bound_to 7965
  139.4852  144.6214  151.7248 LP  0  0  0  0  0  0  0  0  0  0  0  0  # atno 17342 bound_to 10162
  140.5373  144.0635  150.6075 LP  0  0  0  0  0  0  0  0  0  0  0  0  # atno 17343 bound_to 10162
  157.0809  130.5902  149.5420 LP  0  0  0  0  0  0  0  0  0  0  0  0  # atno 17370 bound_to 10713
  156.0002  130.5080  150.7635 LP  0  0  0  0  0  0  0  0  0  0  0  0  # atno 17371 bound_to 10713
  141.1443  133.9083  157.2252 LP  0  0  0  0  0  0  0  0  0  0  0  0  # atno 17394 bound_to 11000
  139.9722  135.0125  156.9541 LP  0  0  0  0  0  0  0  0  0  0  0  0  # atno 17395 bound_to 11000

$$$$
