AV-unprocessed.smi:36|AV-procd|sdf|298|dock2
  -GOLD-   2262016 93D 1   1.00000     0.00000
 Structure written by MMmdl.
 63 66  0  0  0  0  0  0  0  0  2 V2000
  146.1671  134.6052  162.4501 C   0  0  0  0  0  0  0  0  0  0  0  0
  144.7303  134.8765  161.9741 C   0  0  0  0  0  0  0  0  0  0  0  0
  143.7280  134.3989  163.0380 C   0  0  0  0  0  0  0  0  0  0  0  0
  144.5373  136.3812  161.7204 C   0  0  0  0  0  0  0  0  0  0  0  0
  144.4094  133.9285  160.3468 Si  0  0  0  0  0  0  0  0  0  0  0  0
  144.7403  132.0694  160.5660 C   0  0  0  0  0  0  0  0  0  0  0  0
  142.6338  134.1998  159.7284 C   0  0  0  0  0  0  0  0  0  0  0  0
  145.4729  134.5344  159.1796 O   0  0  0  0  0  0  0  0  0  0  0  0
  145.6307  133.9746  157.8928 C   0  0  0  0  0  0  0  0  0  0  0  0
  146.5674  134.8778  157.0783 C   0  0  1  0  0  0  0  0  0  0  0  0
  147.7101  135.2616  157.8421 O   0  0  0  0  0  0  0  0  0  0  0  0
  148.8291  135.3836  157.0156 C   0  0  2  0  0  0  0  0  0  0  0  0
  149.3855  136.7640  157.1535 N   0  0  0  0  0  0  0  0  0  0  0  0
  149.6949  137.4100  158.2952 C   0  0  0  0  0  0  0  0  0  0  0  0
  150.1897  138.6415  158.1902 N   0  0  0  0  0  0  0  0  0  0  0  0
  150.1981  138.8238  156.8152 C   0  0  0  0  0  0  0  0  0  0  0  0
  150.6132  139.9101  155.9960 C   0  0  0  0  0  0  0  0  0  0  0  0
  151.1171  141.0483  156.4979 N   0  5  0  0  0  0  0  0  0  0  0  0
  151.8752  141.0120  157.6232 C   0  0  0  0  0  0  0  0  0  0  0  0
  152.5785  140.0854  158.0319 O   0  0  0  0  0  0  0  0  0  0  0  0
  151.8687  142.3083  158.3885 C   0  0  0  0  0  0  0  0  0  0  0  0
  151.4412  143.4955  157.7507 C   0  0  0  0  0  0  0  0  0  0  0  0
  151.4516  144.7234  158.4406 C   0  0  0  0  0  0  0  0  0  0  0  0
  151.8996  144.7793  159.7737 C   0  0  0  0  0  0  0  0  0  0  0  0
  152.3403  143.6067  160.4152 C   0  0  0  0  0  0  0  0  0  0  0  0
  152.3295  142.3780  159.7261 C   0  0  0  0  0  0  0  0  0  0  0  0
  150.4664  139.7594  154.6549 N   0  0  0  0  0  0  0  0  0  0  0  0
  149.9694  138.6233  154.1522 C   0  0  0  0  0  0  0  0  0  0  0  0
  149.5610  137.5270  154.7980 N   0  0  0  0  0  0  0  0  0  0  0  0
  149.6911  137.6696  156.1493 C   0  0  0  0  0  0  0  0  0  0  0  0
  148.3801  135.1112  155.5771 C   0  0  0  0  0  0  0  0  0  0  0  0
  147.1417  134.2659  155.7939 C   0  0  1  0  0  0  0  0  0  0  0  0
  147.4823  132.9015  155.9570 O   0  0  0  0  0  0  0  0  0  0  0  0
  146.3840  135.1375  163.3768 H   0  0  0  0  0  0  0  0  0  0  0  0
  146.8991  134.9259  161.7085 H   0  0  0  0  0  0  0  0  0  0  0  0
  146.3298  133.5432  162.6362 H   0  0  0  0  0  0  0  0  0  0  0  0
  143.8435  133.3347  163.2446 H   0  0  0  0  0  0  0  0  0  0  0  0
  142.6997  134.5616  162.7133 H   0  0  0  0  0  0  0  0  0  0  0  0
  143.8645  134.9325  163.9792 H   0  0  0  0  0  0  0  0  0  0  0  0
  144.6901  136.9606  162.6315 H   0  0  0  0  0  0  0  0  0  0  0  0
  143.5310  136.5960  161.3584 H   0  0  0  0  0  0  0  0  0  0  0  0
  145.2400  136.7525  160.9744 H   0  0  0  0  0  0  0  0  0  0  0  0
  144.1017  131.6377  161.3364 H   0  0  0  0  0  0  0  0  0  0  0  0
  145.7738  131.8780  160.8537 H   0  0  0  0  0  0  0  0  0  0  0  0
  144.5530  131.5160  159.6461 H   0  0  0  0  0  0  0  0  0  0  0  0
  141.8987  133.8425  160.4493 H   0  0  0  0  0  0  0  0  0  0  0  0
  142.4524  133.6722  158.7923 H   0  0  0  0  0  0  0  0  0  0  0  0
  142.4288  135.2548  159.5499 H   0  0  0  0  0  0  0  0  0  0  0  0
  146.0203  132.9583  157.9553 H   0  0  0  0  0  0  0  0  0  0  0  0
  144.6493  133.9218  157.4209 H   0  0  0  0  0  0  0  0  0  0  0  0
  146.0319  135.7876  156.8036 H   0  0  0  0  0  0  0  0  0  0  0  0
  149.6196  134.7138  157.3567 H   0  0  0  0  0  0  0  0  0  0  0  0
  149.5552  136.9474  159.2609 H   0  0  0  0  0  0  0  0  0  0  0  0
  151.0963  143.4701  156.7271 H   0  0  0  0  0  0  0  0  0  0  0  0
  151.1171  145.6230  157.9452 H   0  0  0  0  0  0  0  0  0  0  0  0
  151.9086  145.7211  160.3020 H   0  0  0  0  0  0  0  0  0  0  0  0
  152.6905  143.6492  161.4359 H   0  0  0  0  0  0  0  0  0  0  0  0
  152.6816  141.4913  160.2337 H   0  0  0  0  0  0  0  0  0  0  0  0
  149.8900  138.5863  153.0759 H   0  0  0  0  0  0  0  0  0  0  0  0
  148.1099  136.0468  155.0854 H   0  0  0  0  0  0  0  0  0  0  0  0
  149.1654  134.6245  154.9976 H   0  0  0  0  0  0  0  0  0  0  0  0
  146.4439  134.3490  154.9602 H   0  0  0  0  0  0  0  0  0  0  0  0
  148.3458  132.8528  156.3381 H   0  0  0  0  0  0  0  0  0  0  0  0
  1  2  1  0  0  0  0
  1 34  1  0  0  0  0
  1 35  1  0  0  0  0
  1 36  1  0  0  0  0
  2  3  1  0  0  0  0
  2  4  1  0  0  0  0
  2  5  1  0  0  0  0
  3 37  1  0  0  0  0
  3 38  1  0  0  0  0
  3 39  1  0  0  0  0
  4 40  1  0  0  0  0
  4 41  1  0  0  0  0
  4 42  1  0  0  0  0
  5  6  1  0  0  0  0
  5  7  1  0  0  0  0
  5  8  1  0  0  0  0
  6 43  1  0  0  0  0
  6 44  1  0  0  0  0
  6 45  1  0  0  0  0
  7 46  1  0  0  0  0
  7 47  1  0  0  0  0
  7 48  1  0  0  0  0
  8  9  1  0  0  0  0
  9 10  1  0  0  0  0
  9 49  1  0  0  0  0
  9 50  1  0  0  0  0
 10 32  1  0  0  0  0
 10 11  1  0  0  0  0
 10 51  1  0  0  0  0
 11 12  1  0  0  0  0
 12 13  1  0  0  0  0
 12 31  1  0  0  0  0
 12 52  1  0  0  0  0
 13 30  1  0  0  0  0
 13 14  1  0  0  0  0
 14 15  2  0  0  0  0
 14 53  1  0  0  0  0
 15 16  1  0  0  0  0
 16 30  2  0  0  0  0
 16 17  1  0  0  0  0
 17 18  1  0  0  0  0
 17 27  2  0  0  0  0
 18 19  1  0  0  0  0
 19 20  2  0  0  0  0
 19 21  1  0  0  0  0
 21 26  1  0  0  0  0
 21 22  2  0  0  0  0
 22 23  1  0  0  0  0
 22 54  1  0  0  0  0
 23 24  2  0  0  0  0
 23 55  1  0  0  0  0
 24 25  1  0  0  0  0
 24 56  1  0  0  0  0
 25 26  2  0  0  0  0
 25 57  1  0  0  0  0
 26 58  1  0  0  0  0
 27 28  1  0  0  0  0
 28 29  2  0  0  0  0
 28 59  1  0  0  0  0
 29 30  1  0  0  0  0
 31 32  1  0  0  0  0
 31 60  1  0  0  0  0
 31 61  1  0  0  0  0
 32 33  1  0  0  0  0
 32 62  1  0  0  0  0
 33 63  1  0  0  0  0
M  CHG  1  18  -1
M  END
> <s_m_source_file>
AV-unprocessed.smi

> <i_m_source_file_index>
36

> <i_lp_mmshare_version>
43012

> <i_f3d_flags>
0

> <s_epik_input>
W0NIM11DKFtDSDNdKShbQ0gzXSlbU2ldKFtDSDNdKShbQ0gzXSlPW0NIMl1bQ0BASF0xT1tDQEhdKFtDSDJdW0NASF0xW09IXSluKFtjSF1uMiljKGMyMyluW2NIXW5jM1tOSF1DKD1PKWM0W2NIXVtjSF1bY0hdW2NIXVtjSF00

> <s_epik_cmdline>
J2VwaWtfcHl0aG9uJywgJy1waCcsICc3LjAnLCAnLXRuJywgJzgnLCAnLW1hJywgJzIwMCcsICctbWV0YWxfYmluZGluZycsICctaW1hZScsICc8aW5maWxlLm1hZT4nLCAnLW9tYWUnLCAnPG91dGZpbGUubWFlPic=

> <r_lp_tautomer_probability>
1

> <r_epik_Ionization_Penalty>
4.75685

> <r_epik_Ionization_Penalty_Charging>
3.55822

> <r_epik_Ionization_Penalty_Neutral>
1.19863

> <r_epik_State_Penalty>
3.564

> <r_epik_Charging_Adjusted_Penalty>
7.12222

> <i_epik_Tot_Q>
-1

> <i_epik_Tot_abs_Q>
1

> <r_epik_Metal_State_Penalty>
0.523258

> <b_epik_Metal_Only>
1

> <s_epik_Chemistry_Notes>
This compound contains an acetal/aminal-like group ( X-CH(R)-Y where X, Y are N, S, or O) that may be acid/base labile, releasing an aldehyde.

> <s_lp_Force_Field>
OPLS_2005

> <r_lp_Energy>
38.0647

> <b_lp_Chiralities_Consistent>
1

> <s_lp_Variant>
AV-unprocessed.smi:36-20

> <Gold.Version>
5.8.1

> <Gold.Id.Protein>
6NUR|6NUR_protein|mol2

> <Gold.PLP.Fitness>
53.5498

> <Gold.PLP.PLP>
-44.9514

> <Gold.PLP.part.hbond>
-2.0000

> <Gold.PLP.part.metal>
0.0000

> <Gold.PLP.part.buried>
-7.7204

> <Gold.PLP.part.nonpolar>
-35.7278

> <Gold.PLP.part.repulsive>
0.2891

> <Gold.PLP.ligand.clash>
0.0000

> <Gold.PLP.ligand.torsion>
0.8613

> <Gold.PLP.Chemscore.Hbond>
2.0000

> <Gold.PLP.Chemscore.CHOScore>
1.3878

> <Gold.PLP.Chemscore.Metal>
0.0000

> <Gold.Chemscore.Hbonds>
donor molecule, donor type, donor heavy atom, donor atom, acceptor molecule, acceptor atom, score
      P1  H  7989  7998       L1    27  1.00
      P1  H  7997  8010       L1    20  0.49
      L1  C    28    59       P1  7948  0.33
      L1  C    28    59       P1  7957  1.00

> <Gold.PLP.Chemscore.Internal.Correction>
0.1578

> <Gold.Rescore>
     Score         DG    S(hbond)    S(metal)    S(lipo)     H(rot)  DE(clash)    DE(int)     intcor
     14.38     -17.61       1.85        0.00     109.40       2.67       0.07       3.16       ----

> <Gold.Chemscore.Fitness>
14.3764

> <Gold.Chemscore.DG>
-17.6104

> <Gold.Chemscore.ZeroCoef>
-5.4800

> <Gold.Chemscore.Hbond>
1.8461

> <Gold.Chemscore.Metal>
0.0000

> <Gold.Chemscore.Lipo>
109.4037

> <Gold.Chemscore.Internal_Hbond>
0.0000

> <Gold.Chemscore.DEClash>
0.0734

> <Gold.Chemscore.DEInternal>
3.1606

> <Gold.Chemscore.Rot>
2.6702

> <Gold.Chemscore.Internal.Correction>
   9.000000E+99

> <Gold.Chemscore.Hbonds>
donor molecule, donor type, donor heavy atom, donor atom, acceptor molecule, acceptor atom, score
      P1  H  7989  7998       L1    27  0.88
      P1  H  7997  8010       L1    20  0.37

> <Gold.Chemscore.Hbond.Weighted>
-6.1660

> <Gold.Chemscore.Metal.Weighted>
-0.0000

> <Gold.Chemscore.Lipo.Weighted>
-12.8002

> <Gold.Chemscore.Internal_Hbond.Weighted>
0.0000

> <Gold.Chemscore.DEClash.Weighted>
0.0734

> <Gold.Chemscore.DEInternal.Weighted>
3.1606

> <Gold.Chemscore.Rot.Weighted>
6.8358

> <Gold.Chemscore.Internal.Correction.Weighted>
   9.000000E+99

> <Gold.Protein.RotatedTorsions>
[ 6907 6896 6895 6894 ] final   32.63 input  -60.11 | X-H torsion
[ 7974 7965 7964 7962 ] final   61.80 input  175.53 | X-H torsion
[ 8008 7997 7996 7995 ] final   37.24 input   59.86 | X-H torsion
[ 10167 10162 10161 10158 ] final -122.32 input  -65.29 | X-H torsion
[ 10718 10713 10712 10709 ] final -114.28 input   66.30 | X-H torsion
[ 10763 10752 10751 10750 ] final  -19.92 input  -60.55 | X-H torsion
[ 11005 11000 10999 10996 ] final    3.33 input  -57.11 | X-H torsion

> <Gold.Protein.ActiveResidues>
 VAL166  LYS551  ARG553  GLY616  TRP617  ASP618  TYR619  PRO620  LYS621  CYS622 
 ASP623  PHE694  ASN695  SER759  ASP760  ASP761  ALA762  ILE779  LEU786  VAL792 
 PHE793  MET794  SER795  GLU796  ALA797  LYS798  CYS799  TRP800  GLU811  SER814 

> <Gold.Protein.RotatedAtoms>
  152.0772  134.9495  160.0573 H   0  0  0  0  0  0  0  0  0  0  0  0  # atno 6907 bound_to 6896
  152.0797  133.4142  159.4504 H   0  0  0  0  0  0  0  0  0  0  0  0  # atno 6908 bound_to 6896
  150.6836  134.2916  159.4712 H   0  0  0  0  0  0  0  0  0  0  0  0  # atno 6909 bound_to 6896
  145.8806  139.3440  143.0708 H   0  0  0  0  0  0  0  0  0  0  0  0  # atno 7974 bound_to 7965
  155.2005  140.3315  155.4344 H   0  0  0  0  0  0  0  0  0  0  0  0  # atno 8008 bound_to 7997
  156.2409  140.1894  156.7042 H   0  0  0  0  0  0  0  0  0  0  0  0  # atno 8009 bound_to 7997
  154.6145  140.0604  156.9522 H   0  0  0  0  0  0  0  0  0  0  0  0  # atno 8010 bound_to 7997
  140.0155  143.5398  152.2244 H   0  0  0  0  0  0  0  0  0  0  0  0  # atno 10167 bound_to 10162
  156.0820  130.6018  150.8754 H   0  0  0  0  0  0  0  0  0  0  0  0  # atno 10718 bound_to 10713
  153.6123  135.6996  153.5342 H   0  0  0  0  0  0  0  0  0  0  0  0  # atno 10763 bound_to 10752
  153.3006  135.4130  155.1249 H   0  0  0  0  0  0  0  0  0  0  0  0  # atno 10764 bound_to 10752
  154.8561  135.3648  154.5662 H   0  0  0  0  0  0  0  0  0  0  0  0  # atno 10765 bound_to 10752
  140.5943  133.9894  155.8103 H   0  0  0  0  0  0  0  0  0  0  0  0  # atno 11005 bound_to 11000
  145.9028  140.9231  143.0494 LP  0  0  0  0  0  0  0  0  0  0  0  0  # atno 17320 bound_to 7965
  144.6727  140.1055  143.7458 LP  0  0  0  0  0  0  0  0  0  0  0  0  # atno 17321 bound_to 7965
  139.6175  144.7622  151.2813 LP  0  0  0  0  0  0  0  0  0  0  0  0  # atno 17342 bound_to 10162
  140.7364  143.6709  150.8083 LP  0  0  0  0  0  0  0  0  0  0  0  0  # atno 17343 bound_to 10162
  157.5940  131.0943  150.9072 LP  0  0  0  0  0  0  0  0  0  0  0  0  # atno 17370 bound_to 10713
  156.9242  130.5326  149.5279 LP  0  0  0  0  0  0  0  0  0  0  0  0  # atno 17371 bound_to 10713
  141.0914  133.9911  157.3231 LP  0  0  0  0  0  0  0  0  0  0  0  0  # atno 17394 bound_to 11000
  139.9260  135.0201  156.8235 LP  0  0  0  0  0  0  0  0  0  0  0  0  # atno 17395 bound_to 11000

$$$$
