AV-unprocessed.smi:1798|AV-procd|sdf|7260|dock10
  -GOLD-   22720 8513D 1   1.00000     0.00000
 Structure written by MMmdl.
 40 41  0  0  0  0  0  0  0  0  3 V2000
  153.8470  140.4699  160.9812 C   0  0  0  0  0  0  0  0  0  0  0  0
  153.6035  139.3605  159.9481 C   0  0  2  0  0  0  0  0  0  0  0  0
  152.5390  139.7762  158.9146 C   0  0  0  0  0  0  0  0  0  0  0  0
  152.2875  138.6658  157.8785 C   0  0  0  0  0  0  0  0  0  0  0  0
  151.9108  137.3251  158.5376 C   0  0  2  0  0  0  0  0  0  0  0  0
  150.5710  137.4057  159.1171 N   0  0  0  0  0  0  0  0  0  0  0  0
  149.5780  136.5274  158.9120 C   0  0  0  0  0  0  0  0  0  0  0  0
  149.6965  135.5285  158.2008 O   0  0  0  0  0  0  0  0  0  0  0  0
  148.2612  136.8241  159.6436 C   0  0  0  0  0  0  0  0  0  0  0  0
  147.7967  135.7088  160.4856 N   0  0  0  0  0  0  0  0  0  0  0  0
  147.7168  134.4394  159.8795 C   0  0  0  0  0  0  0  0  0  0  0  0
  147.3001  133.3492  160.5529 C   0  0  0  0  0  0  0  0  0  0  0  0
  147.2209  132.0542  159.9134 N   0  3  0  0  0  0  0  0  0  0  0  0
  146.9281  131.0781  160.5961 O   0  0  0  0  0  0  0  0  0  0  0  0
  147.4489  131.9690  158.7103 O   0  5  0  0  0  0  0  0  0  0  0  0
  146.9295  133.5176  161.9447 C   0  0  0  0  0  0  0  0  0  0  0  0
  146.9995  134.7299  162.5290 C   0  0  0  0  0  0  0  0  0  0  0  0
  147.4498  135.9156  161.7927 C   0  0  0  0  0  0  0  0  0  0  0  0
  147.5109  137.0267  162.3195 O   0  0  0  0  0  0  0  0  0  0  0  0
  152.9603  136.9213  159.5950 C   0  0  0  0  0  0  0  0  0  0  0  0
  153.2063  138.0359  160.6270 C   0  0  0  0  0  0  0  0  0  0  0  0
  152.9443  140.6843  161.5540 H   0  0  0  0  0  0  0  0  0  0  0  0
  154.1621  141.3946  160.4969 H   0  0  0  0  0  0  0  0  0  0  0  0
  154.6283  140.1850  161.6861 H   0  0  0  0  0  0  0  0  0  0  0  0
  154.5416  139.1965  159.4157 H   0  0  0  0  0  0  0  0  0  0  0  0
  151.6062  140.0220  159.4234 H   0  0  0  0  0  0  0  0  0  0  0  0
  152.8548  140.6854  158.4015 H   0  0  0  0  0  0  0  0  0  0  0  0
  151.5094  138.9753  157.1796 H   0  0  0  0  0  0  0  0  0  0  0  0
  153.1904  138.5278  157.2824 H   0  0  0  0  0  0  0  0  0  0  0  0
  151.8939  136.5636  157.7556 H   0  0  0  0  0  0  0  0  0  0  0  0
  150.3868  138.1932  159.7218 H   0  0  0  0  0  0  0  0  0  0  0  0
  148.4018  137.7236  160.2446 H   0  0  0  0  0  0  0  0  0  0  0  0
  147.4948  137.0882  158.9122 H   0  0  0  0  0  0  0  0  0  0  0  0
  148.0083  134.4208  158.8392 H   0  0  0  0  0  0  0  0  0  0  0  0
  146.5920  132.6737  162.5283 H   0  0  0  0  0  0  0  0  0  0  0  0
  146.7174  134.8332  163.5665 H   0  0  0  0  0  0  0  0  0  0  0  0
  152.6609  136.0031  160.1017 H   0  0  0  0  0  0  0  0  0  0  0  0
  153.9006  136.6921  159.0917 H   0  0  0  0  0  0  0  0  0  0  0  0
  153.9895  137.7228  161.3181 H   0  0  0  0  0  0  0  0  0  0  0  0
  152.3083  138.1828  161.2288 H   0  0  0  0  0  0  0  0  0  0  0  0
  1  2  1  0  0  0  0
  1 22  1  0  0  0  0
  1 23  1  0  0  0  0
  1 24  1  0  0  0  0
  2 21  1  0  0  0  0
  2  3  1  0  0  0  0
  2 25  1  0  0  0  0
  3  4  1  0  0  0  0
  3 26  1  0  0  0  0
  3 27  1  0  0  0  0
  4  5  1  0  0  0  0
  4 28  1  0  0  0  0
  4 29  1  0  0  0  0
  5  6  1  0  0  0  0
  5 20  1  0  0  0  0
  5 30  1  0  0  0  0
  6  7  1  0  0  0  0
  6 31  1  0  0  0  0
  7  8  2  0  0  0  0
  7  9  1  0  0  0  0
  9 10  1  0  0  0  0
  9 32  1  0  0  0  0
  9 33  1  0  0  0  0
 10 18  1  0  0  0  0
 10 11  1  0  0  0  0
 11 12  2  0  0  0  0
 11 34  1  0  0  0  0
 12 13  1  0  0  0  0
 12 16  1  0  0  0  0
 13 14  2  0  0  0  0
 13 15  1  0  0  0  0
 16 17  2  0  0  0  0
 16 35  1  0  0  0  0
 17 18  1  0  0  0  0
 17 36  1  0  0  0  0
 18 19  2  0  0  0  0
 20 21  1  0  0  0  0
 20 37  1  0  0  0  0
 20 38  1  0  0  0  0
 21 39  1  0  0  0  0
 21 40  1  0  0  0  0
M  CHG  1  13   1
M  CHG  1  15  -1
M  END
> <s_m_source_file>
AV-unprocessed.smi

> <i_m_source_file_index>
1798

> <i_lp_mmshare_version>
43012

> <i_f3d_flags>
0

> <s_epik_input>
W0NIM11bQ0BASF0xW0NIMl1bQ0gyXVtDQEhdKFtDSDJdW0NIMl0xKVtOSF1DKD1PKVtDSDJdbjJbY0hdYyhbTitdKD1PKVtPLV0pW2NIXVtjSF1jMj1P

> <s_epik_cmdline>
J2VwaWtfcHl0aG9uJywgJy1waCcsICc3LjAnLCAnLXRuJywgJzgnLCAnLW1hJywgJzIwMCcsICctbWV0YWxfYmluZGluZycsICctaW1hZScsICc8aW5maWxlLm1hZT4nLCAnLW9tYWUnLCAnPG91dGZpbGUubWFlPic=

> <r_lp_tautomer_probability>
1

> <r_epik_Ionization_Penalty>
1.91292e-08

> <r_epik_Ionization_Penalty_Charging>
8.23013e-11

> <r_epik_Ionization_Penalty_Neutral>
1.90469e-08

> <r_epik_State_Penalty>
-0

> <r_epik_Charging_Adjusted_Penalty>
8.23013e-11

> <i_epik_Tot_Q>
0

> <i_epik_Tot_abs_Q>
2

> <r_epik_Metal_State_Penalty>
-0

> <b_epik_Metal_Only>
0

> <s_lp_Force_Field>
OPLS_2005

> <r_lp_Energy>
19.5482

> <b_lp_Chiralities_Consistent>
1

> <s_lp_Variant>
AV-unprocessed.smi:1798-2

> <Gold.Version>
5.8.1

> <Gold.Id.Protein>
6NUR|6NUR_protein|mol2

> <Gold.PLP.Fitness>
43.8769

> <Gold.PLP.PLP>
-37.4387

> <Gold.PLP.part.hbond>
-3.0000

> <Gold.PLP.part.metal>
0.0000

> <Gold.PLP.part.buried>
-4.6959

> <Gold.PLP.part.nonpolar>
-30.0087

> <Gold.PLP.part.repulsive>
0.1802

> <Gold.PLP.ligand.clash>
0.0000

> <Gold.PLP.ligand.torsion>
0.2300

> <Gold.PLP.Chemscore.Hbond>
2.2960

> <Gold.PLP.Chemscore.CHOScore>
0.0000

> <Gold.PLP.Chemscore.Metal>
0.0000

> <Gold.Chemscore.Hbonds>
donor molecule, donor type, donor heavy atom, donor atom, acceptor molecule, acceptor atom, score
      P1  H  6896  6909       L1     8  0.60
      P1  H  6931  6943       L1    19  0.94

> <Gold.PLP.Chemscore.Internal.Correction>
0.0102

> <Gold.Rescore>
     Score         DG    S(hbond)    S(metal)    S(lipo)     H(rot)  DE(clash)    DE(int)     intcor
     16.26     -17.86       2.32        0.00      73.39       1.55       0.01       1.58       ----

> <Gold.Chemscore.Fitness>
16.2593

> <Gold.Chemscore.DG>
-17.8563

> <Gold.Chemscore.ZeroCoef>
-5.4800

> <Gold.Chemscore.Hbond>
2.3229

> <Gold.Chemscore.Metal>
0.0000

> <Gold.Chemscore.Lipo>
73.3918

> <Gold.Chemscore.Internal_Hbond>
0.0000

> <Gold.Chemscore.DEClash>
0.0127

> <Gold.Chemscore.DEInternal>
1.5843

> <Gold.Chemscore.Rot>
1.5505

> <Gold.Chemscore.Internal.Correction>
   9.000000E+99

> <Gold.Chemscore.Hbonds>
donor molecule, donor type, donor heavy atom, donor atom, acceptor molecule, acceptor atom, score
      P1  H  6896  6909       L1     8  0.04
      P1  H  6931  6943       L1    19  0.87
      P1  H  6934  6947       L1    19  0.04

> <Gold.Chemscore.Hbond.Weighted>
-7.7586

> <Gold.Chemscore.Metal.Weighted>
-0.0000

> <Gold.Chemscore.Lipo.Weighted>
-8.5868

> <Gold.Chemscore.Internal_Hbond.Weighted>
0.0000

> <Gold.Chemscore.DEClash.Weighted>
0.0127

> <Gold.Chemscore.DEInternal.Weighted>
1.5843

> <Gold.Chemscore.Rot.Weighted>
3.9692

> <Gold.Chemscore.Internal.Correction.Weighted>
   9.000000E+99

> <Gold.Protein.RotatedTorsions>
[ 6907 6896 6895 6894 ] final   51.43 input  -60.11 | X-H torsion
[ 7974 7965 7964 7962 ] final  -60.15 input  175.53 | X-H torsion
[ 8008 7997 7996 7995 ] final   -7.78 input   59.86 | X-H torsion
[ 10167 10162 10161 10158 ] final -122.88 input  -65.29 | X-H torsion
[ 10718 10713 10712 10709 ] final   95.68 input   66.30 | X-H torsion
[ 10763 10752 10751 10750 ] final   72.07 input  -60.55 | X-H torsion
[ 11005 11000 10999 10996 ] final -127.88 input  -57.11 | X-H torsion

> <Gold.Protein.ActiveResidues>
 VAL166  LYS551  ARG553  GLY616  TRP617  ASP618  TYR619  PRO620  LYS621  CYS622 
 ASP623  PHE694  ASN695  SER759  ASP760  ASP761  ALA762  ILE779  LEU786  VAL792 
 PHE793  MET794  SER795  GLU796  ALA797  LYS798  CYS799  TRP800  GLU811  SER814 

> <Gold.Protein.RotatedAtoms>
  152.3125  134.7480  160.0332 H   0  0  0  0  0  0  0  0  0  0  0  0  # atno 6907 bound_to 6896
  151.7956  133.3359  159.3520 H   0  0  0  0  0  0  0  0  0  0  0  0  # atno 6908 bound_to 6896
  150.7327  134.5732  159.5945 H   0  0  0  0  0  0  0  0  0  0  0  0  # atno 6909 bound_to 6896
  145.8189  140.8552  143.0143 H   0  0  0  0  0  0  0  0  0  0  0  0  # atno 7974 bound_to 7965
  154.5805  140.2398  155.8060 H   0  0  0  0  0  0  0  0  0  0  0  0  # atno 8008 bound_to 7997
  156.2175  140.3007  155.9831 H   0  0  0  0  0  0  0  0  0  0  0  0  # atno 8009 bound_to 7997
  155.2549  140.0412  157.2981 H   0  0  0  0  0  0  0  0  0  0  0  0  # atno 8010 bound_to 7997
  140.0095  143.5456  152.2269 H   0  0  0  0  0  0  0  0  0  0  0  0  # atno 10167 bound_to 10162
  157.6936  131.0553  150.4376 H   0  0  0  0  0  0  0  0  0  0  0  0  # atno 10718 bound_to 10713
  153.0436  135.5113  154.7688 H   0  0  0  0  0  0  0  0  0  0  0  0  # atno 10763 bound_to 10752
  154.6605  135.2938  154.9874 H   0  0  0  0  0  0  0  0  0  0  0  0  # atno 10764 bound_to 10752
  154.0727  135.6675  153.4879 H   0  0  0  0  0  0  0  0  0  0  0  0  # atno 10765 bound_to 10752
  140.9562  134.0998  157.4013 H   0  0  0  0  0  0  0  0  0  0  0  0  # atno 11005 bound_to 11000
  144.6749  140.0504  143.7479 LP  0  0  0  0  0  0  0  0  0  0  0  0  # atno 17320 bound_to 7965
  145.9696  139.2860  143.1106 LP  0  0  0  0  0  0  0  0  0  0  0  0  # atno 17321 bound_to 7965
  139.6215  144.7630  151.2731 LP  0  0  0  0  0  0  0  0  0  0  0  0  # atno 17342 bound_to 10162
  140.7387  143.6640  150.8139 LP  0  0  0  0  0  0  0  0  0  0  0  0  # atno 17343 bound_to 10162
  156.4737  130.4058  149.6502 LP  0  0  0  0  0  0  0  0  0  0  0  0  # atno 17370 bound_to 10713
  156.3573  130.7463  151.2431 LP  0  0  0  0  0  0  0  0  0  0  0  0  # atno 17371 bound_to 10713
  139.8863  135.0080  156.6490 LP  0  0  0  0  0  0  0  0  0  0  0  0  # atno 17394 bound_to 11000
  140.7532  133.8880  155.8362 LP  0  0  0  0  0  0  0  0  0  0  0  0  # atno 17395 bound_to 11000

$$$$
