AV-unprocessed.smi:2735|AV-procd|sdf|10541|dock9
  -GOLD-   2272014593D 1   1.00000     0.00000
 Structure written by MMmdl.
 42 42  0  0  0  0  0  0  0  0  2 V2000
  154.3623  140.5066  160.1661 C   0  0  0  0  0  0  0  0  0  0  0  0
  153.4228  141.5039  159.5554 C   0  0  0  0  0  0  0  0  0  0  0  0
  153.4428  142.9204  159.6731 C   0  0  0  0  0  0  0  0  0  0  0  0
  152.3817  143.3367  158.9198 C   0  0  0  0  0  0  0  0  0  0  0  0
  151.8974  144.7220  158.6405 C   0  0  0  0  0  0  0  0  0  0  0  0
  151.7713  142.2010  158.4107 N   0  0  0  0  0  0  0  0  0  0  0  0
  150.6245  142.1060  157.5062 C   0  0  2  0  0  0  0  0  0  0  0  0
  149.3220  142.6513  158.1278 C   0  0  0  0  0  0  0  0  0  0  0  0
  150.4570  140.6594  157.0188 C   0  0  0  0  0  0  0  0  0  0  0  0
  149.9597  139.8064  157.7548 O   0  0  0  0  0  0  0  0  0  0  0  0
  150.8847  140.4003  155.7731 N   0  0  0  0  0  0  0  0  0  0  0  0
  150.8929  139.0879  155.1289 C   0  0  1  0  0  0  0  0  0  0  0  0
  149.8236  139.0649  154.0104 C   0  0  0  0  0  0  0  0  0  0  0  0
  148.3649  139.2407  154.4920 C   0  0  0  0  0  0  0  0  0  0  0  0
  147.9717  138.2163  155.5696 C   0  0  0  0  0  0  0  0  0  0  0  0
  147.3931  139.1673  153.3046 C   0  0  0  0  0  0  0  0  0  0  0  0
  152.2676  138.8473  154.4838 C   0  0  0  0  0  0  0  0  0  0  0  0
  153.1243  139.7468  154.6252 O   0  0  0  0  0  0  0  0  0  0  0  0
  152.4450  137.7709  153.8691 O   0  5  0  0  0  0  0  0  0  0  0  0
  152.4285  141.0806  158.7945 N   0  0  0  0  0  0  0  0  0  0  0  0
  150.6986  138.2967  155.8546 H   0  0  0  0  0  0  0  0  0  0  0  0
  155.1410  141.0031  160.7455 H   0  0  0  0  0  0  0  0  0  0  0  0
  154.8517  139.9067  159.3985 H   0  0  0  0  0  0  0  0  0  0  0  0
  153.8330  139.8276  160.8345 H   0  0  0  0  0  0  0  0  0  0  0  0
  154.1381  143.5397  160.2200 H   0  0  0  0  0  0  0  0  0  0  0  0
  152.5062  145.4590  159.1641 H   0  0  0  0  0  0  0  0  0  0  0  0
  150.8656  144.8481  158.9678 H   0  0  0  0  0  0  0  0  0  0  0  0
  151.9490  144.9453  157.5752 H   0  0  0  0  0  0  0  0  0  0  0  0
  150.8423  142.7334  156.6408 H   0  0  0  0  0  0  0  0  0  0  0  0
  148.5079  142.6363  157.4024 H   0  0  0  0  0  0  0  0  0  0  0  0
  149.4490  143.6842  158.4526 H   0  0  0  0  0  0  0  0  0  0  0  0
  149.0003  142.0685  158.9920 H   0  0  0  0  0  0  0  0  0  0  0  0
  151.2891  141.1596  155.2454 H   0  0  0  0  0  0  0  0  0  0  0  0
  150.0460  139.8498  153.2849 H   0  0  0  0  0  0  0  0  0  0  0  0
  149.8973  138.1252  153.4601 H   0  0  0  0  0  0  0  0  0  0  0  0
  148.2592  140.2357  154.9254 H   0  0  0  0  0  0  0  0  0  0  0  0
  148.1076  137.1943  155.2146 H   0  0  0  0  0  0  0  0  0  0  0  0
  146.9263  138.3319  155.8568 H   0  0  0  0  0  0  0  0  0  0  0  0
  148.5654  138.3381  156.4753 H   0  0  0  0  0  0  0  0  0  0  0  0
  147.4365  138.1928  152.8171 H   0  0  0  0  0  0  0  0  0  0  0  0
  147.6275  139.9247  152.5562 H   0  0  0  0  0  0  0  0  0  0  0  0
  146.3647  139.3334  153.6263 H   0  0  0  0  0  0  0  0  0  0  0  0
  1  2  1  0  0  0  0
  1 22  1  0  0  0  0
  1 23  1  0  0  0  0
  1 24  1  0  0  0  0
  2 20  2  0  0  0  0
  2  3  1  0  0  0  0
  3  4  2  0  0  0  0
  3 25  1  0  0  0  0
  4  5  1  0  0  0  0
  4  6  1  0  0  0  0
  5 26  1  0  0  0  0
  5 27  1  0  0  0  0
  5 28  1  0  0  0  0
  6  7  1  0  0  0  0
  6 20  1  0  0  0  0
  7  8  1  0  0  0  0
  7  9  1  0  0  0  0
  7 29  1  0  0  0  0
  8 30  1  0  0  0  0
  8 31  1  0  0  0  0
  8 32  1  0  0  0  0
  9 10  2  0  0  0  0
  9 11  1  0  0  0  0
 11 12  1  0  0  0  0
 11 33  1  0  0  0  0
 12 21  1  0  0  0  0
 12 13  1  0  0  0  0
 12 17  1  0  0  0  0
 13 14  1  0  0  0  0
 13 34  1  0  0  0  0
 13 35  1  0  0  0  0
 14 15  1  0  0  0  0
 14 16  1  0  0  0  0
 14 36  1  0  0  0  0
 15 37  1  0  0  0  0
 15 38  1  0  0  0  0
 15 39  1  0  0  0  0
 16 40  1  0  0  0  0
 16 41  1  0  0  0  0
 16 42  1  0  0  0  0
 17 18  2  0  0  0  0
 17 19  1  0  0  0  0
M  CHG  1  19  -1
M  END
> <s_m_source_file>
AV-unprocessed.smi

> <i_m_source_file_index>
2735

> <i_lp_mmshare_version>
43012

> <i_f3d_flags>
0

> <s_epik_input>
W0NIM11jMVtjSF1jKFtDSDNdKW4objEpW0NASF0oW0NIM10pQyg9TylbTkhdW0NASF0oQyg9TylbT0hdKVtDSDJdW0NIXShbQ0gzXSlbQ0gzXQ==

> <s_epik_cmdline>
J2VwaWtfcHl0aG9uJywgJy1waCcsICc3LjAnLCAnLXRuJywgJzgnLCAnLW1hJywgJzIwMCcsICctbWV0YWxfYmluZGluZycsICctaW1hZScsICc8aW5maWxlLm1hZT4nLCAnLW9tYWUnLCAnPG91dGZpbGUubWFlPic=

> <r_lp_tautomer_probability>
1

> <r_epik_Ionization_Penalty>
0.0012303

> <r_epik_Ionization_Penalty_Charging>
0.000186407

> <r_epik_Ionization_Penalty_Neutral>
0.0010439

> <r_epik_State_Penalty>
-0

> <r_epik_Charging_Adjusted_Penalty>
0.000186407

> <i_epik_Tot_Q>
-1

> <i_epik_Tot_abs_Q>
1

> <r_epik_Metal_State_Penalty>
-0

> <b_epik_Metal_Only>
0

> <s_lp_Force_Field>
OPLS_2005

> <r_lp_Energy>
6.85708

> <b_lp_Chiralities_Consistent>
1

> <s_lp_Variant>
AV-unprocessed.smi:2735-1

> <Gold.Version>
5.8.1

> <Gold.Id.Protein>
6NUR|6NUR_protein|mol2

> <Gold.PLP.Fitness>
50.1986

> <Gold.PLP.PLP>
-40.5731

> <Gold.PLP.part.hbond>
-3.0000

> <Gold.PLP.part.metal>
0.0000

> <Gold.PLP.part.buried>
-4.5430

> <Gold.PLP.part.nonpolar>
-33.3961

> <Gold.PLP.part.repulsive>
0.2758

> <Gold.PLP.ligand.clash>
0.0000

> <Gold.PLP.ligand.torsion>
0.5397

> <Gold.PLP.Chemscore.Hbond>
3.5274

> <Gold.PLP.Chemscore.CHOScore>
0.0000

> <Gold.PLP.Chemscore.Metal>
0.0000

> <Gold.Chemscore.Hbonds>
donor molecule, donor type, donor heavy atom, donor atom, acceptor molecule, acceptor atom, score
      P1  H  7989  7998       L1    18  0.02
      P1  H  7997  8010       L1    18  2.00
      P1  H 10752 10765       L1    19  0.98

> <Gold.PLP.Chemscore.Internal.Correction>
0.1227

> <Gold.Rescore>
     Score         DG    S(hbond)    S(metal)    S(lipo)     H(rot)  DE(clash)    DE(int)     intcor
     15.87     -16.57       1.88        0.00      90.02       2.24       0.02       0.67       ----

> <Gold.Chemscore.Fitness>
15.8704

> <Gold.Chemscore.DG>
-16.5685

> <Gold.Chemscore.ZeroCoef>
-5.4800

> <Gold.Chemscore.Hbond>
1.8825

> <Gold.Chemscore.Metal>
0.0000

> <Gold.Chemscore.Lipo>
90.0202

> <Gold.Chemscore.Internal_Hbond>
0.0000

> <Gold.Chemscore.DEClash>
0.0234

> <Gold.Chemscore.DEInternal>
0.6746

> <Gold.Chemscore.Rot>
2.2388

> <Gold.Chemscore.Internal.Correction>
   9.000000E+99

> <Gold.Chemscore.Hbonds>
donor molecule, donor type, donor heavy atom, donor atom, acceptor molecule, acceptor atom, score
      P1  H  7997  8010       L1    18  1.00
      P1  H 10752 10765       L1    19  0.50

> <Gold.Chemscore.Hbond.Weighted>
-6.2875

> <Gold.Chemscore.Metal.Weighted>
-0.0000

> <Gold.Chemscore.Lipo.Weighted>
-10.5324

> <Gold.Chemscore.Internal_Hbond.Weighted>
0.0000

> <Gold.Chemscore.DEClash.Weighted>
0.0234

> <Gold.Chemscore.DEInternal.Weighted>
0.6746

> <Gold.Chemscore.Rot.Weighted>
5.7314

> <Gold.Chemscore.Internal.Correction.Weighted>
   9.000000E+99

> <Gold.Protein.RotatedTorsions>
[ 6907 6896 6895 6894 ] final   77.58 input  -60.11 | X-H torsion
[ 7974 7965 7964 7962 ] final  -96.22 input  175.53 | X-H torsion
[ 8008 7997 7996 7995 ] final  106.14 input   59.86 | X-H torsion
[ 10167 10162 10161 10158 ] final  -88.30 input  -65.29 | X-H torsion
[ 10718 10713 10712 10709 ] final   -1.73 input   66.30 | X-H torsion
[ 10763 10752 10751 10750 ] final  153.02 input  -60.55 | X-H torsion
[ 11005 11000 10999 10996 ] final    1.50 input  -57.11 | X-H torsion

> <Gold.Protein.ActiveResidues>
 VAL166  LYS551  ARG553  GLY616  TRP617  ASP618  TYR619  PRO620  LYS621  CYS622 
 ASP623  PHE694  ASN695  SER759  ASP760  ASP761  ALA762  ILE779  LEU786  VAL792 
 PHE793  MET794  SER795  GLU796  ALA797  LYS798  CYS799  TRP800  GLU811  SER814 

> <Gold.Protein.RotatedAtoms>
  152.5123  134.3796  159.9346 H   0  0  0  0  0  0  0  0  0  0  0  0  # atno 6907 bound_to 6896
  151.3752  133.3834  159.2712 H   0  0  0  0  0  0  0  0  0  0  0  0  # atno 6908 bound_to 6896
  150.9547  134.8962  159.7752 H   0  0  0  0  0  0  0  0  0  0  0  0  # atno 6909 bound_to 6896
  145.3497  140.9474  143.2561 H   0  0  0  0  0  0  0  0  0  0  0  0  # atno 7974 bound_to 7965
  156.1718  140.3118  155.8987 H   0  0  0  0  0  0  0  0  0  0  0  0  # atno 8008 bound_to 7997
  155.3571  140.0474  157.3063 H   0  0  0  0  0  0  0  0  0  0  0  0  # atno 8009 bound_to 7997
  154.5248  140.2211  155.8919 H   0  0  0  0  0  0  0  0  0  0  0  0  # atno 8010 bound_to 7997
  140.3761  143.2771  151.9442 H   0  0  0  0  0  0  0  0  0  0  0  0  # atno 10167 bound_to 10162
  156.8013  130.5394  149.5721 H   0  0  0  0  0  0  0  0  0  0  0  0  # atno 10718 bound_to 10713
  154.1294  135.2827  155.3189 H   0  0  0  0  0  0  0  0  0  0  0  0  # atno 10763 bound_to 10752
  154.6366  135.5417  153.7744 H   0  0  0  0  0  0  0  0  0  0  0  0  # atno 10764 bound_to 10752
  153.0286  135.6476  154.1445 H   0  0  0  0  0  0  0  0  0  0  0  0  # atno 10765 bound_to 10752
  140.6148  133.9716  155.8195 H   0  0  0  0  0  0  0  0  0  0  0  0  # atno 11005 bound_to 11000
  144.8727  139.5015  143.6760 LP  0  0  0  0  0  0  0  0  0  0  0  0  # atno 17320 bound_to 7965
  146.2973  139.7317  142.9117 LP  0  0  0  0  0  0  0  0  0  0  0  0  # atno 17321 bound_to 7965
  139.4799  144.5862  151.7849 LP  0  0  0  0  0  0  0  0  0  0  0  0  # atno 17342 bound_to 10162
  140.4985  144.1204  150.5965 LP  0  0  0  0  0  0  0  0  0  0  0  0  # atno 17343 bound_to 10162
  156.1100  130.6033  151.0031 LP  0  0  0  0  0  0  0  0  0  0  0  0  # atno 17370 bound_to 10713
  157.6552  131.0890  150.7962 LP  0  0  0  0  0  0  0  0  0  0  0  0  # atno 17371 bound_to 10713
  141.0783  134.0101  157.3424 LP  0  0  0  0  0  0  0  0  0  0  0  0  # atno 17394 bound_to 11000
  139.9177  135.0198  156.7946 LP  0  0  0  0  0  0  0  0  0  0  0  0  # atno 17395 bound_to 11000

$$$$
