AV-unprocessed.smi:1200|AV-procd|sdf|5026|dock9
  -GOLD-   22720 4 43D 1   1.00000     0.00000
 Structure written by MMmdl.
 42 43  0  0  0  0  0  0  0  0  3 V2000
  143.9880  146.1458  156.3826 C   0  0  0  0  0  0  0  0  0  0  0  0
  143.7693  144.8547  155.7408 N   0  5  0  0  0  0  0  0  0  0  0  0
  144.3332  143.6961  156.1756 C   0  0  0  0  0  0  0  0  0  0  0  0
  145.0691  143.4709  157.1425 O   0  0  0  0  0  0  0  0  0  0  0  0
  143.9285  142.5156  155.2852 C   0  0  0  0  0  0  0  0  0  0  0  0
  145.1345  141.8911  154.6869 N   0  3  2  0  0  0  0  0  0  0  0  0
  145.9309  141.1331  155.6843 C   0  0  0  0  0  0  0  0  0  0  0  0
  147.0880  140.3713  155.0125 C   0  0  0  0  0  0  0  0  0  0  0  0
  147.9921  141.3016  154.1853 C   0  0  2  0  0  0  0  0  0  0  0  0
  148.7937  142.1531  155.0639 N   0  0  0  0  0  0  0  0  0  0  0  0
  149.7098  141.7172  155.9408 C   0  0  0  0  0  0  0  0  0  0  0  0
  149.9918  140.5289  156.0916 O   0  0  0  0  0  0  0  0  0  0  0  0
  150.2755  142.7423  156.6009 N   0  0  0  0  0  0  0  0  0  0  0  0
  151.2742  142.7045  157.6116 C   0  0  0  0  0  0  0  0  0  0  0  0
  151.9567  143.8430  158.1050 C   0  0  0  0  0  0  0  0  0  0  0  0
  152.9391  143.6690  159.0988 C   0  0  0  0  0  0  0  0  0  0  0  0
  153.2093  142.3652  159.5576 C   0  0  0  0  0  0  0  0  0  0  0  0
  152.5769  141.2700  159.0869 N   0  0  0  0  0  0  0  0  0  0  0  0
  151.6364  141.4445  158.1342 C   0  0  0  0  0  0  0  0  0  0  0  0
  147.1334  142.1321  153.2112 C   0  0  0  0  0  0  0  0  0  0  0  0
  145.9788  142.8531  153.9286 C   0  0  0  0  0  0  0  0  0  0  0  0
  143.4681  146.9501  155.8625 H   0  0  0  0  0  0  0  0  0  0  0  0
  145.0417  146.4253  156.4097 H   0  0  0  0  0  0  0  0  0  0  0  0
  143.6300  146.1626  157.4123 H   0  0  0  0  0  0  0  0  0  0  0  0
  143.3316  141.7676  155.8121 H   0  0  0  0  0  0  0  0  0  0  0  0
  143.2891  142.9207  154.4996 H   0  0  0  0  0  0  0  0  0  0  0  0
  146.3133  141.8180  156.4427 H   0  0  0  0  0  0  0  0  0  0  0  0
  145.2886  140.4181  156.1997 H   0  0  0  0  0  0  0  0  0  0  0  0
  147.6748  139.8416  155.7640 H   0  0  0  0  0  0  0  0  0  0  0  0
  146.6726  139.6042  154.3577 H   0  0  0  0  0  0  0  0  0  0  0  0
  148.6751  140.6773  153.6061 H   0  0  0  0  0  0  0  0  0  0  0  0
  148.6309  143.1476  155.0067 H   0  0  0  0  0  0  0  0  0  0  0  0
  149.9931  143.6667  156.3099 H   0  0  0  0  0  0  0  0  0  0  0  0
  151.7601  144.8376  157.7370 H   0  0  0  0  0  0  0  0  0  0  0  0
  153.4766  144.5165  159.4973 H   0  0  0  0  0  0  0  0  0  0  0  0
  153.9571  142.1973  160.3184 H   0  0  0  0  0  0  0  0  0  0  0  0
  151.1525  140.5456  157.7805 H   0  0  0  0  0  0  0  0  0  0  0  0
  147.7499  142.8541  152.6746 H   0  0  0  0  0  0  0  0  0  0  0  0
  146.7175  141.4701  152.4504 H   0  0  0  0  0  0  0  0  0  0  0  0
  145.3775  143.3794  153.1868 H   0  0  0  0  0  0  0  0  0  0  0  0
  146.3697  143.6121  154.6081 H   0  0  0  0  0  0  0  0  0  0  0  0
  144.7891  141.2137  154.0218 H   0  0  0  0  0  0  0  0  0  0  0  0
  1  2  1  0  0  0  0
  1 22  1  0  0  0  0
  1 23  1  0  0  0  0
  1 24  1  0  0  0  0
  2  3  1  0  0  0  0
  3  4  2  0  0  0  0
  3  5  1  0  0  0  0
  5  6  1  0  0  0  0
  5 25  1  0  0  0  0
  5 26  1  0  0  0  0
  6 21  1  0  0  0  0
  6  7  1  0  0  0  0
  6 42  1  0  0  0  0
  7  8  1  0  0  0  0
  7 27  1  0  0  0  0
  7 28  1  0  0  0  0
  8  9  1  0  0  0  0
  8 29  1  0  0  0  0
  8 30  1  0  0  0  0
  9 10  1  0  0  0  0
  9 20  1  0  0  0  0
  9 31  1  0  0  0  0
 10 11  1  0  0  0  0
 10 32  1  0  0  0  0
 11 12  2  0  0  0  0
 11 13  1  0  0  0  0
 13 14  1  0  0  0  0
 13 33  1  0  0  0  0
 14 19  1  0  0  0  0
 14 15  2  0  0  0  0
 15 16  1  0  0  0  0
 15 34  1  0  0  0  0
 16 17  2  0  0  0  0
 16 35  1  0  0  0  0
 17 18  1  0  0  0  0
 17 36  1  0  0  0  0
 18 19  2  0  0  0  0
 19 37  1  0  0  0  0
 20 21  1  0  0  0  0
 20 38  1  0  0  0  0
 20 39  1  0  0  0  0
 21 40  1  0  0  0  0
 21 41  1  0  0  0  0
M  CHG  1   2  -1
M  CHG  1   6   1
M  END
> <s_m_source_file>
AV-unprocessed.smi

> <i_m_source_file_index>
1200

> <i_lp_mmshare_version>
43012

> <i_f3d_flags>
0

> <s_epik_input>
W0NIM11bTkhdQyg9TylbQ0gyXU4xW0NIMl1bQ0gyXVtDSF0oW0NIMl1bQ0gyXTEpW05IXUMoPU8pW05IXWMyW2NIXVtjSF1bY0hdbltjSF0y

> <s_epik_cmdline>
J2VwaWtfcHl0aG9uJywgJy1waCcsICc3LjAnLCAnLXRuJywgJzgnLCAnLW1hJywgJzIwMCcsICctbWV0YWxfYmluZGluZycsICctaW1hZScsICc8aW5maWxlLm1hZT4nLCAnLW9tYWUnLCAnPG91dGZpbGUubWFlPic=

> <r_epik_Ionization_Penalty>
6.14345

> <r_epik_Ionization_Penalty_Charging>
6.13946

> <r_epik_Ionization_Penalty_Neutral>
0.00398477

> <r_epik_State_Penalty>
6.94483

> <r_epik_Charging_Adjusted_Penalty>
13.0843

> <i_epik_Tot_Q>
0

> <i_epik_Tot_abs_Q>
2

> <r_epik_Metal_State_Penalty>
2.87819

> <b_epik_Metal_Only>
1

> <s_lp_Force_Field>
OPLS_2005

> <r_lp_Energy>
15.1129

> <b_lp_Chiralities_Consistent>
1

> <s_lp_Variant>
AV-unprocessed.smi:1200-5

> <Gold.Version>
5.8.1

> <Gold.Id.Protein>
6NUR|6NUR_protein|mol2

> <Gold.PLP.Fitness>
47.2182

> <Gold.PLP.PLP>
-35.3435

> <Gold.PLP.part.hbond>
-3.0000

> <Gold.PLP.part.metal>
0.0000

> <Gold.PLP.part.buried>
-6.6618

> <Gold.PLP.part.nonpolar>
-26.8728

> <Gold.PLP.part.repulsive>
0.4415

> <Gold.PLP.ligand.clash>
0.0000

> <Gold.PLP.ligand.torsion>
0.0795

> <Gold.PLP.Chemscore.Hbond>
4.0000

> <Gold.PLP.Chemscore.CHOScore>
0.0000

> <Gold.PLP.Chemscore.Metal>
0.0000

> <Gold.Chemscore.Hbonds>
donor molecule, donor type, donor heavy atom, donor atom, acceptor molecule, acceptor atom, score
      L1  H     6    42       P1 10175  2.00
      L1  H    10    32       P1  8028  1.00
      L1  H    13    33       P1  8028  1.00

> <Gold.PLP.Chemscore.Internal.Correction>
0.0338

> <Gold.Rescore>
     Score         DG    S(hbond)    S(metal)    S(lipo)     H(rot)  DE(clash)    DE(int)     intcor
     17.23     -20.80       2.70        0.00      89.74       1.63       1.14       2.44       ----

> <Gold.Chemscore.Fitness>
17.2264

> <Gold.Chemscore.DG>
-20.8039

> <Gold.Chemscore.ZeroCoef>
-5.4800

> <Gold.Chemscore.Hbond>
2.6954

> <Gold.Chemscore.Metal>
0.0000

> <Gold.Chemscore.Lipo>
89.7408

> <Gold.Chemscore.Internal_Hbond>
0.0000

> <Gold.Chemscore.DEClash>
1.1403

> <Gold.Chemscore.DEInternal>
2.4371

> <Gold.Chemscore.Rot>
1.6323

> <Gold.Chemscore.Internal.Correction>
   9.000000E+99

> <Gold.Chemscore.Hbonds>
donor molecule, donor type, donor heavy atom, donor atom, acceptor molecule, acceptor atom, score
      L1  H     6    42       P1 10175  0.61
      L1  H    10    32       P1  8028  0.94
      L1  H    13    33       P1  8028  0.97

> <Gold.Chemscore.Hbond.Weighted>
-9.0028

> <Gold.Chemscore.Metal.Weighted>
-0.0000

> <Gold.Chemscore.Lipo.Weighted>
-10.4997

> <Gold.Chemscore.Internal_Hbond.Weighted>
0.0000

> <Gold.Chemscore.DEClash.Weighted>
1.1403

> <Gold.Chemscore.DEInternal.Weighted>
2.4371

> <Gold.Chemscore.Rot.Weighted>
4.1786

> <Gold.Chemscore.Internal.Correction.Weighted>
   9.000000E+99

> <Gold.Protein.RotatedTorsions>
[ 6907 6896 6895 6894 ] final  150.02 input  -60.11 | X-H torsion
[ 7974 7965 7964 7962 ] final   65.75 input  175.53 | X-H torsion
[ 8008 7997 7996 7995 ] final  169.41 input   59.86 | X-H torsion
[ 10167 10162 10161 10158 ] final  157.96 input  -65.29 | X-H torsion
[ 10718 10713 10712 10709 ] final  176.54 input   66.30 | X-H torsion
[ 10763 10752 10751 10750 ] final  138.06 input  -60.55 | X-H torsion
[ 11005 11000 10999 10996 ] final  -17.43 input  -57.11 | X-H torsion

> <Gold.Protein.ActiveResidues>
 VAL166  LYS551  ARG553  GLY616  TRP617  ASP618  TYR619  PRO620  LYS621  CYS622 
 ASP623  PHE694  ASN695  SER759  ASP760  ASP761  ALA762  ILE779  LEU786  VAL792 
 PHE793  MET794  SER795  GLU796  ALA797  LYS798  CYS799  TRP800  GLU811  SER814 

> <Gold.Protein.RotatedAtoms>
  152.1201  133.4348  159.4671 H   0  0  0  0  0  0  0  0  0  0  0  0  # atno 6907 bound_to 6896
  150.6871  134.2545  159.4533 H   0  0  0  0  0  0  0  0  0  0  0  0  # atno 6908 bound_to 6896
  152.0421  134.9704  160.0624 H   0  0  0  0  0  0  0  0  0  0  0  0  # atno 6909 bound_to 6896
  145.8348  139.3160  143.0966 H   0  0  0  0  0  0  0  0  0  0  0  0  # atno 7974 bound_to 7965
  156.1460  140.1565  156.8846 H   0  0  0  0  0  0  0  0  0  0  0  0  # atno 8008 bound_to 7997
  154.5029  140.0820  156.7872 H   0  0  0  0  0  0  0  0  0  0  0  0  # atno 8009 bound_to 7997
  155.3988  140.3413  155.4258 H   0  0  0  0  0  0  0  0  0  0  0  0  # atno 8010 bound_to 7997
  139.4825  144.4869  151.8365 H   0  0  0  0  0  0  0  0  0  0  0  0  # atno 10167 bound_to 10162
  156.9186  130.9933  151.3008 H   0  0  0  0  0  0  0  0  0  0  0  0  # atno 10718 bound_to 10713
  153.8834  135.3041  155.3446 H   0  0  0  0  0  0  0  0  0  0  0  0  # atno 10763 bound_to 10752
  154.7751  135.4865  153.9730 H   0  0  0  0  0  0  0  0  0  0  0  0  # atno 10764 bound_to 10752
  153.1339  135.6809  153.9232 H   0  0  0  0  0  0  0  0  0  0  0  0  # atno 10765 bound_to 10752
  140.8167  133.8099  155.9618 H   0  0  0  0  0  0  0  0  0  0  0  0  # atno 11005 bound_to 11000
  145.9531  140.8893  143.0249 LP  0  0  0  0  0  0  0  0  0  0  0  0  # atno 17320 bound_to 7965
  144.6737  140.1707  143.7414 LP  0  0  0  0  0  0  0  0  0  0  0  0  # atno 17321 bound_to 7965
  140.4349  144.2065  150.5889 LP  0  0  0  0  0  0  0  0  0  0  0  0  # atno 17342 bound_to 10162
  140.4742  143.2402  151.9047 LP  0  0  0  0  0  0  0  0  0  0  0  0  # atno 17343 bound_to 10162
  157.5922  130.8452  149.8676 LP  0  0  0  0  0  0  0  0  0  0  0  0  # atno 17370 bound_to 10713
  156.0502  130.3719  150.1220 LP  0  0  0  0  0  0  0  0  0  0  0  0  # atno 17371 bound_to 10713
  140.9142  134.2223  157.4967 LP  0  0  0  0  0  0  0  0  0  0  0  0  # atno 17394 bound_to 11000
  139.8711  134.9763  156.4917 LP  0  0  0  0  0  0  0  0  0  0  0  0  # atno 17395 bound_to 11000

$$$$
