AV-unprocessed.smi:287|AV-procd|sdf|2199|dock3
  -GOLD-   2262022 13D 1   1.00000     0.00000
 Structure written by MMmdl.
 55 58  0  0  0  0  0  0  0  0  1 V2000
  151.9920  143.8398  159.3558 C   0  0  0  0  0  0  0  0  0  0  0  0
  151.6114  142.6566  158.5336 C   0  0  0  0  0  0  0  0  0  0  0  0
  150.8763  142.4949  157.3958 C   0  0  0  0  0  0  0  0  0  0  0  0
  150.8577  141.1004  157.0943 C   0  0  0  0  0  0  0  0  0  0  0  0
  150.1469  140.4528  155.9132 C   0  0  1  0  0  0  0  0  0  0  0  0
  149.4024  141.5250  155.1008 C   0  0  0  0  0  0  0  0  0  0  0  0
  151.0395  139.8435  155.0004 O   0  0  0  0  0  0  0  0  0  0  0  0
  149.1658  139.3430  156.3565 C   0  0  0  0  0  0  0  0  0  0  0  0
  148.3573  138.8331  155.2541 N   0  0  0  0  0  0  0  0  0  0  0  0
  148.1154  137.5111  155.1401 C   0  0  0  0  0  0  0  0  0  0  0  0
  148.9469  136.5946  155.7007 N   0  0  0  0  0  0  0  0  0  0  0  0
  148.6857  135.2906  155.5681 C   0  0  0  0  0  0  0  0  0  0  0  0
  147.6712  134.7035  154.9296 N   0  0  0  0  0  0  0  0  0  0  0  0
  146.8310  135.6208  154.3680 C   0  0  0  0  0  0  0  0  0  0  0  0
  146.9849  137.0337  154.4290 C   0  0  0  0  0  0  0  0  0  0  0  0
  145.9468  137.6521  153.7449 N   0  0  0  0  0  0  0  0  0  0  0  0
  145.2219  136.6580  153.3076 C   0  0  0  0  0  0  0  0  0  0  0  0
  145.6804  135.4016  153.6371 N   0  0  0  0  0  0  0  0  0  0  0  0
  145.0620  134.0889  153.2834 C   0  0  1  0  0  0  0  0  0  0  0  0
  144.7491  134.1038  151.9275 O   0  0  0  0  0  0  0  0  0  0  0  0
  144.9452  132.8028  151.3932 C   0  0  1  0  0  0  0  0  0  0  0  0
  145.0699  132.8508  149.8605 C   0  0  0  0  0  0  0  0  0  0  0  0
  144.1544  133.7850  149.3299 O   0  0  0  0  0  0  0  0  0  0  0  0
  146.1820  132.2926  152.1494 C   0  0  1  0  0  0  0  0  0  0  0  0
  147.3841  132.7079  151.5282 O   0  0  0  0  0  0  0  0  0  0  0  0
  146.0443  132.9304  153.5302 C   0  0  2  0  0  0  0  0  0  0  0  0
  145.4986  131.9878  154.4323 O   0  0  0  0  0  0  0  0  0  0  0  0
  151.6105  140.5176  158.0858 C   0  0  0  0  0  0  0  0  0  0  0  0
  152.0180  139.1137  158.3911 C   0  0  0  0  0  0  0  0  0  0  0  0
  152.0682  141.4539  158.9634 O   0  0  0  0  0  0  0  0  0  0  0  0
  144.1535  134.0332  153.8854 H   0  0  0  0  0  0  0  0  0  0  0  0
  144.0944  132.1821  151.6816 H   0  0  0  0  0  0  0  0  0  0  0  0
  146.1994  131.2025  152.1908 H   0  0  0  0  0  0  0  0  0  0  0  0
  146.9968  133.2920  153.9223 H   0  0  0  0  0  0  0  0  0  0  0  0
  151.4635  144.7324  159.0205 H   0  0  0  0  0  0  0  0  0  0  0  0
  153.0622  144.0328  159.2822 H   0  0  0  0  0  0  0  0  0  0  0  0
  151.7470  143.6770  160.4054 H   0  0  0  0  0  0  0  0  0  0  0  0
  150.3959  143.2886  156.8429 H   0  0  0  0  0  0  0  0  0  0  0  0
  148.6540  142.0340  155.7093 H   0  0  0  0  0  0  0  0  0  0  0  0
  148.8856  141.0910  154.2438 H   0  0  0  0  0  0  0  0  0  0  0  0
  150.0890  142.2841  154.7234 H   0  0  0  0  0  0  0  0  0  0  0  0
  151.8197  139.5895  155.4689 H   0  0  0  0  0  0  0  0  0  0  0  0
  149.7448  138.5044  156.7465 H   0  0  0  0  0  0  0  0  0  0  0  0
  148.5264  139.6864  157.1712 H   0  0  0  0  0  0  0  0  0  0  0  0
  148.0745  139.5128  154.5621 H   0  0  0  0  0  0  0  0  0  0  0  0
  149.3898  134.6217  156.0402 H   0  0  0  0  0  0  0  0  0  0  0  0
  144.3227  136.8157  152.7300 H   0  0  0  0  0  0  0  0  0  0  0  0
  146.0861  133.0996  149.5523 H   0  0  0  0  0  0  0  0  0  0  0  0
  144.8265  131.8785  149.4317 H   0  0  0  0  0  0  0  0  0  0  0  0
  144.6167  134.3545  148.7340 H   0  0  0  0  0  0  0  0  0  0  0  0
  147.6758  132.0238  150.9459 H   0  0  0  0  0  0  0  0  0  0  0  0
  144.5638  132.1189  154.4746 H   0  0  0  0  0  0  0  0  0  0  0  0
  152.5442  138.6717  157.5451 H   0  0  0  0  0  0  0  0  0  0  0  0
  151.1457  138.4976  158.6090 H   0  0  0  0  0  0  0  0  0  0  0  0
  152.6806  139.0733  159.2557 H   0  0  0  0  0  0  0  0  0  0  0  0
  1  2  1  0  0  0  0
  1 35  1  0  0  0  0
  1 36  1  0  0  0  0
  1 37  1  0  0  0  0
  2 30  1  0  0  0  0
  2  3  2  0  0  0  0
  3  4  1  0  0  0  0
  3 38  1  0  0  0  0
  4  5  1  0  0  0  0
  4 28  2  0  0  0  0
  5  6  1  0  0  0  0
  5  7  1  0  0  0  0
  5  8  1  0  0  0  0
  6 39  1  0  0  0  0
  6 40  1  0  0  0  0
  6 41  1  0  0  0  0
  7 42  1  0  0  0  0
  8  9  1  0  0  0  0
  8 43  1  0  0  0  0
  8 44  1  0  0  0  0
  9 10  1  0  0  0  0
  9 45  1  0  0  0  0
 10 15  1  0  0  0  0
 10 11  2  0  0  0  0
 11 12  1  0  0  0  0
 12 13  2  0  0  0  0
 12 46  1  0  0  0  0
 13 14  1  0  0  0  0
 14 18  1  0  0  0  0
 14 15  2  0  0  0  0
 15 16  1  0  0  0  0
 16 17  2  0  0  0  0
 17 18  1  0  0  0  0
 17 47  1  0  0  0  0
 18 19  1  0  0  0  0
 19 31  1  0  0  0  0
 19 26  1  0  0  0  0
 19 20  1  0  0  0  0
 20 21  1  0  0  0  0
 21 32  1  0  0  0  0
 21 22  1  0  0  0  0
 21 24  1  0  0  0  0
 22 23  1  0  0  0  0
 22 48  1  0  0  0  0
 22 49  1  0  0  0  0
 23 50  1  0  0  0  0
 24 33  1  0  0  0  0
 24 25  1  0  0  0  0
 24 26  1  0  0  0  0
 25 51  1  0  0  0  0
 26 34  1  0  0  0  0
 26 27  1  0  0  0  0
 27 52  1  0  0  0  0
 28 29  1  0  0  0  0
 28 30  1  0  0  0  0
 29 53  1  0  0  0  0
 29 54  1  0  0  0  0
 29 55  1  0  0  0  0
M  END
> <s_m_source_file>
AV-unprocessed.smi

> <i_m_source_file_index>
287

> <i_lp_mmshare_version>
43012

> <i_f3d_flags>
0

> <s_epik_input>
W0NIM11jMVtjSF1jKGMobzEpW0NIM10pW0NAQF0oW0NIM10pKFtPSF0pW0NIMl1bTkhdYyhuW2NIXW4yKWMoYzIzKW5bY0hdbjNbQ0BASF00T1tDQEhdKFtDSDJdW09IXSlbQ0BASF0oW09IXSlbQ0BIXTRbT0hd

> <s_epik_cmdline>
J2VwaWtfcHl0aG9uJywgJy1waCcsICc3LjAnLCAnLXRuJywgJzgnLCAnLW1hJywgJzIwMCcsICctbWV0YWxfYmluZGluZycsICctaW1hZScsICc8aW5maWxlLm1hZT4nLCAnLW9tYWUnLCAnPG91dGZpbGUubWFlPic=

> <r_lp_tautomer_probability>
1

> <r_epik_Ionization_Penalty>
0.000992612

> <r_epik_Ionization_Penalty_Charging>
0

> <r_epik_Ionization_Penalty_Neutral>
0.000992612

> <r_epik_State_Penalty>
-0

> <r_epik_Charging_Adjusted_Penalty>
0

> <i_epik_Tot_Q>
0

> <i_epik_Tot_abs_Q>
0

> <r_epik_Metal_State_Penalty>
-0

> <b_epik_Metal_Only>
0

> <s_epik_Chemistry_Notes>
This compound contains an acetal/aminal-like group ( X-CH(R)-Y where X, Y are N, S, or O) that may be acid/base labile, releasing an aldehyde.

> <s_lp_Force_Field>
OPLS_2005

> <r_lp_Energy>
38.8116

> <b_lp_Chiralities_Consistent>
1

> <s_lp_Variant>
AV-unprocessed.smi:287-23

> <Gold.Version>
5.8.1

> <Gold.Id.Protein>
6NUR|6NUR_protein|mol2

> <Gold.PLP.Fitness>
47.7550

> <Gold.PLP.PLP>
-37.3187

> <Gold.PLP.part.hbond>
-4.5654

> <Gold.PLP.part.metal>
0.0000

> <Gold.PLP.part.buried>
-4.3387

> <Gold.PLP.part.nonpolar>
-27.9220

> <Gold.PLP.part.repulsive>
0.4354

> <Gold.PLP.ligand.clash>
0.0000

> <Gold.PLP.ligand.torsion>
0.8660

> <Gold.PLP.Chemscore.Hbond>
4.0000

> <Gold.PLP.Chemscore.CHOScore>
0.0000

> <Gold.PLP.Chemscore.Metal>
0.0000

> <Gold.Chemscore.Hbonds>
donor molecule, donor type, donor heavy atom, donor atom, acceptor molecule, acceptor atom, score
      L1  H    23    50       P1  7921  1.00
      L1  H    25    51       P1 10747  1.00
      L1  H    27    52       P1 10957  1.00
      P1  H  7989  7998       L1     7  1.00

> <Gold.PLP.Chemscore.Internal.Correction>
0.1682

> <Gold.Rescore>
     Score         DG    S(hbond)    S(metal)    S(lipo)     H(rot)  DE(clash)    DE(int)     intcor
     12.54     -14.92       3.67        0.00      91.15       5.27       0.29       2.08       ----

> <Gold.Chemscore.Fitness>
12.5432

> <Gold.Chemscore.DG>
-14.9177

> <Gold.Chemscore.ZeroCoef>
-5.4800

> <Gold.Chemscore.Hbond>
3.6698

> <Gold.Chemscore.Metal>
0.0000

> <Gold.Chemscore.Lipo>
91.1506

> <Gold.Chemscore.Internal_Hbond>
0.0000

> <Gold.Chemscore.DEClash>
0.2904

> <Gold.Chemscore.DEInternal>
2.0840

> <Gold.Chemscore.Rot>
5.2672

> <Gold.Chemscore.Internal.Correction>
   9.000000E+99

> <Gold.Chemscore.Hbonds>
donor molecule, donor type, donor heavy atom, donor atom, acceptor molecule, acceptor atom, score
      L1  H    23    50       P1  7921  0.96
      L1  H    25    51       P1 10747  0.96
      L1  H    27    52       P1 10957  0.34
      P1  H  7989  7998       L1     7  0.53

> <Gold.Chemscore.Hbond.Weighted>
-12.2570

> <Gold.Chemscore.Metal.Weighted>
-0.0000

> <Gold.Chemscore.Lipo.Weighted>
-10.6646

> <Gold.Chemscore.Internal_Hbond.Weighted>
0.0000

> <Gold.Chemscore.DEClash.Weighted>
0.2904

> <Gold.Chemscore.DEInternal.Weighted>
2.0840

> <Gold.Chemscore.Rot.Weighted>
13.4839

> <Gold.Chemscore.Internal.Correction.Weighted>
   9.000000E+99

> <Gold.Protein.RotatedTorsions>
[ 6907 6896 6895 6894 ] final   99.58 input  -60.11 | X-H torsion
[ 7974 7965 7964 7962 ] final   69.92 input  175.53 | X-H torsion
[ 8008 7997 7996 7995 ] final  -65.97 input   59.86 | X-H torsion
[ 10167 10162 10161 10158 ] final   24.87 input  -65.29 | X-H torsion
[ 10718 10713 10712 10709 ] final  -71.18 input   66.30 | X-H torsion
[ 10763 10752 10751 10750 ] final   94.96 input  -60.55 | X-H torsion
[ 11005 11000 10999 10996 ] final -125.05 input  -57.11 | X-H torsion

> <Gold.Protein.ActiveResidues>
 VAL166  LYS551  ARG553  GLY616  TRP617  ASP618  TYR619  PRO620  LYS621  CYS622 
 ASP623  PHE694  ASN695  SER759  ASP760  ASP761  ALA762  ILE779  LEU786  VAL792 
 PHE793  MET794  SER795  GLU796  ALA797  LYS798  CYS799  TRP800  GLU811  SER814 

> <Gold.Protein.RotatedAtoms>
  152.5389  134.0406  159.8065 H   0  0  0  0  0  0  0  0  0  0  0  0  # atno 6907 bound_to 6896
  151.0563  133.5574  159.2645 H   0  0  0  0  0  0  0  0  0  0  0  0  # atno 6908 bound_to 6896
  151.2490  135.0623  159.9108 H   0  0  0  0  0  0  0  0  0  0  0  0  # atno 6909 bound_to 6896
  145.7845  139.2904  143.1246 H   0  0  0  0  0  0  0  0  0  0  0  0  # atno 7974 bound_to 7965
  154.4705  140.0922  156.7131 H   0  0  0  0  0  0  0  0  0  0  0  0  # atno 8008 bound_to 7997
  155.4738  140.3465  155.4311 H   0  0  0  0  0  0  0  0  0  0  0  0  # atno 8009 bound_to 7997
  156.1030  140.1427  156.9430 H   0  0  0  0  0  0  0  0  0  0  0  0  # atno 8010 bound_to 7997
  140.5152  144.0093  150.6391 H   0  0  0  0  0  0  0  0  0  0  0  0  # atno 10167 bound_to 10162
  156.0374  130.4346  150.2405 H   0  0  0  0  0  0  0  0  0  0  0  0  # atno 10718 bound_to 10713
  153.2477  135.4271  155.0765 H   0  0  0  0  0  0  0  0  0  0  0  0  # atno 10763 bound_to 10752
  154.8368  135.3418  154.6558 H   0  0  0  0  0  0  0  0  0  0  0  0  # atno 10764 bound_to 10752
  153.6980  135.7030  153.5128 H   0  0  0  0  0  0  0  0  0  0  0  0  # atno 10765 bound_to 10752
  140.9793  134.0696  157.3783 H   0  0  0  0  0  0  0  0  0  0  0  0  # atno 11005 bound_to 11000
  146.0040  140.8495  143.0004 LP  0  0  0  0  0  0  0  0  0  0  0  0  # atno 17320 bound_to 7965
  144.6791  140.2393  143.7345 LP  0  0  0  0  0  0  0  0  0  0  0  0  # atno 17321 bound_to 7965
  140.3427  143.3010  152.0571 LP  0  0  0  0  0  0  0  0  0  0  0  0  # atno 17342 bound_to 10162
  139.4907  144.6431  151.6836 LP  0  0  0  0  0  0  0  0  0  0  0  0  # atno 17343 bound_to 10162
  157.0503  131.0061  151.3256 LP  0  0  0  0  0  0  0  0  0  0  0  0  # atno 17370 bound_to 10713
  157.5145  130.7959  149.7741 LP  0  0  0  0  0  0  0  0  0  0  0  0  # atno 17371 bound_to 10713
  139.8943  135.0135  156.6945 LP  0  0  0  0  0  0  0  0  0  0  0  0  # atno 17394 bound_to 11000
  140.7211  133.9140  155.8147 LP  0  0  0  0  0  0  0  0  0  0  0  0  # atno 17395 bound_to 11000

$$$$
