AV-unprocessed.smi:2557|AV-procd|sdf|10027|dock3
  -GOLD-   2272014 73D 1   1.00000     0.00000
 Structure written by MMmdl.
 38 40  0  0  0  0  0  0  0  0  2 V2000
  152.7550  139.7930  154.8869 O   0  5  0  0  0  0  0  0  0  0  0  0
  151.7938  139.3731  155.5738 C   0  0  0  0  0  0  0  0  0  0  0  0
  151.0110  138.2194  155.4844 C   0  0  0  0  0  0  0  0  0  0  0  0
  151.2597  137.2014  154.4509 C   0  0  0  0  0  0  0  0  0  0  0  0
  152.1320  137.2547  153.5849 O   0  0  0  0  0  0  0  0  0  0  0  0
  150.4292  136.1421  154.5053 N   0  0  0  0  0  0  0  0  0  0  0  0
  149.4154  136.0003  155.4551 C   0  0  0  0  0  0  0  0  0  0  0  0
  148.6366  134.6994  155.2537 C   0  0  0  0  0  0  0  0  0  0  0  0
  149.5574  133.5470  154.7914 C   0  0  0  0  0  0  0  0  0  0  0  0
  148.7809  132.2290  154.6331 C   0  0  0  0  0  0  0  0  0  0  0  0
  147.5884  132.3925  153.6785 C   0  0  0  0  0  0  0  0  0  0  0  0
  146.6634  133.5282  154.1409 C   0  0  0  0  0  0  0  0  0  0  0  0
  147.4378  134.8482  154.2869 C   0  0  0  0  0  0  0  0  0  0  0  0
  149.1455  136.8656  156.3851 N   0  0  0  0  0  0  0  0  0  0  0  0
  149.9570  137.9759  156.3937 N   0  0  0  0  0  0  0  0  0  0  0  0
  151.4709  140.3780  156.6053 C   0  0  0  0  0  0  0  0  0  0  0  0
  151.6416  140.0914  157.9777 C   0  0  0  0  0  0  0  0  0  0  0  0
  151.3103  141.0811  158.9237 C   0  0  0  0  0  0  0  0  0  0  0  0
  150.8314  142.2981  158.5883 N   0  0  0  0  0  0  0  0  0  0  0  0
  150.6622  142.5665  157.2758 C   0  0  0  0  0  0  0  0  0  0  0  0
  150.9620  141.6470  156.2518 C   0  0  0  0  0  0  0  0  0  0  0  0
  148.2274  134.4193  156.2263 H   0  0  0  0  0  0  0  0  0  0  0  0
  150.0258  133.8074  153.8409 H   0  0  0  0  0  0  0  0  0  0  0  0
  150.3705  133.3967  155.5027 H   0  0  0  0  0  0  0  0  0  0  0  0
  149.4466  131.4474  154.2656 H   0  0  0  0  0  0  0  0  0  0  0  0
  148.4241  131.8968  155.6088 H   0  0  0  0  0  0  0  0  0  0  0  0
  147.9513  132.6041  152.6719 H   0  0  0  0  0  0  0  0  0  0  0  0
  147.0298  131.4582  153.6161 H   0  0  0  0  0  0  0  0  0  0  0  0
  145.8453  133.6539  153.4311 H   0  0  0  0  0  0  0  0  0  0  0  0
  146.2068  133.2636  155.0955 H   0  0  0  0  0  0  0  0  0  0  0  0
  146.7609  135.6261  154.6429 H   0  0  0  0  0  0  0  0  0  0  0  0
  147.7856  135.1650  153.3023 H   0  0  0  0  0  0  0  0  0  0  0  0
  149.7539  138.6534  157.1206 H   0  0  0  0  0  0  0  0  0  0  0  0
  152.0200  139.1312  158.2961 H   0  0  0  0  0  0  0  0  0  0  0  0
  151.4329  140.8896  159.9794 H   0  0  0  0  0  0  0  0  0  0  0  0
  150.2751  143.5451  157.0337 H   0  0  0  0  0  0  0  0  0  0  0  0
  150.8079  141.9090  155.2153 H   0  0  0  0  0  0  0  0  0  0  0  0
  150.5540  135.4138  153.8180 H   0  0  0  0  0  0  0  0  0  0  0  0
  1  2  1  0  0  0  0
  2  3  2  0  0  0  0
  2 16  1  0  0  0  0
  3 15  1  0  0  0  0
  3  4  1  0  0  0  0
  4  5  2  0  0  0  0
  4  6  1  0  0  0  0
  6  7  1  0  0  0  0
  6 38  1  0  0  0  0
  7  8  1  0  0  0  0
  7 14  2  0  0  0  0
  8 13  1  0  0  0  0
  8  9  1  0  0  0  0
  8 22  1  0  0  0  0
  9 10  1  0  0  0  0
  9 23  1  0  0  0  0
  9 24  1  0  0  0  0
 10 11  1  0  0  0  0
 10 25  1  0  0  0  0
 10 26  1  0  0  0  0
 11 12  1  0  0  0  0
 11 27  1  0  0  0  0
 11 28  1  0  0  0  0
 12 13  1  0  0  0  0
 12 29  1  0  0  0  0
 12 30  1  0  0  0  0
 13 31  1  0  0  0  0
 13 32  1  0  0  0  0
 14 15  1  0  0  0  0
 15 33  1  0  0  0  0
 16 21  1  0  0  0  0
 16 17  2  0  0  0  0
 17 18  1  0  0  0  0
 17 34  1  0  0  0  0
 18 19  2  0  0  0  0
 18 35  1  0  0  0  0
 19 20  1  0  0  0  0
 20 21  2  0  0  0  0
 20 36  1  0  0  0  0
 21 37  1  0  0  0  0
M  CHG  1   1  -1
M  END
> <s_m_source_file>
AV-unprocessed.smi

> <i_m_source_file_index>
2557

> <i_lp_mmshare_version>
43012

> <i_f3d_flags>
0

> <s_epik_input>
W2NIXTFbY0hdbltjSF1bY0hdYzFDKD1PKUMyPUMoW09IXSlOPUMoW05IXVtOSF0yKVtDSF0zW0NIMl1bQ0gyXVtDSDJdW0NIMl1bQ0gyXTM=

> <s_epik_cmdline>
J2VwaWtfcHl0aG9uJywgJy1waCcsICc3LjAnLCAnLXRuJywgJzgnLCAnLW1hJywgJzIwMCcsICctbWV0YWxfYmluZGluZycsICctaW1hZScsICc8aW5maWxlLm1hZT4nLCAnLW9tYWUnLCAnPG91dGZpbGUubWFlPic=

> <r_epik_Ionization_Penalty>
0.0900605

> <r_epik_Ionization_Penalty_Charging>
0.000501436

> <r_epik_Ionization_Penalty_Neutral>
0.0895591

> <r_epik_State_Penalty>
0.142021

> <r_epik_Charging_Adjusted_Penalty>
0.142522

> <i_epik_Tot_Q>
-1

> <i_epik_Tot_abs_Q>
1

> <r_epik_Metal_State_Penalty>
0.0730028

> <b_epik_Metal_Only>
0

> <s_epik_Chemistry_Notes>
This compound has an imine and may undergo hydrolysis.

> <s_lp_Force_Field>
OPLS_2005

> <r_lp_Energy>
31.0156

> <b_lp_Chiralities_Consistent>
1

> <s_lp_Variant>
AV-unprocessed.smi:2557-1

> <Gold.Version>
5.8.1

> <Gold.Id.Protein>
6NUR|6NUR_protein|mol2

> <Gold.PLP.Fitness>
39.0077

> <Gold.PLP.PLP>
-27.6096

> <Gold.PLP.part.hbond>
-5.0000

> <Gold.PLP.part.metal>
0.0000

> <Gold.PLP.part.buried>
1.3597

> <Gold.PLP.part.nonpolar>
-26.2085

> <Gold.PLP.part.repulsive>
3.5435

> <Gold.PLP.ligand.clash>
0.0000

> <Gold.PLP.ligand.torsion>
1.9808

> <Gold.PLP.Chemscore.Hbond>
3.4048

> <Gold.PLP.Chemscore.CHOScore>
1.0000

> <Gold.PLP.Chemscore.Metal>
0.0000

> <Gold.Chemscore.Hbonds>
donor molecule, donor type, donor heavy atom, donor atom, acceptor molecule, acceptor atom, score
      P1  H  7989  7998       L1     1  0.43
      P1  H  7997  8009       L1     1  2.00
      P1  H 10752 10764       L1     5  0.94
      L1  C    20    36       P1  8028  1.00

> <Gold.PLP.Chemscore.Internal.Correction>
2.1452

> <Gold.Rescore>
     Score         DG    S(hbond)    S(metal)    S(lipo)     H(rot)  DE(clash)    DE(int)     intcor
     14.32     -16.40       1.69        0.00      66.91       1.00       0.52       1.57       ----

> <Gold.Chemscore.Fitness>
14.3160

> <Gold.Chemscore.DG>
-16.4038

> <Gold.Chemscore.ZeroCoef>
-5.4800

> <Gold.Chemscore.Hbond>
1.6934

> <Gold.Chemscore.Metal>
0.0000

> <Gold.Chemscore.Lipo>
66.9058

> <Gold.Chemscore.Internal_Hbond>
0.0000

> <Gold.Chemscore.DEClash>
0.5198

> <Gold.Chemscore.DEInternal>
1.5679

> <Gold.Chemscore.Rot>
1.0000

> <Gold.Chemscore.Internal.Correction>
   9.000000E+99

> <Gold.Chemscore.Hbonds>
donor molecule, donor type, donor heavy atom, donor atom, acceptor molecule, acceptor atom, score
      P1  H  7989  7998       L1     1  0.09
      P1  H  7997  8009       L1     1  0.88
      P1  H 10752 10764       L1     5  0.59

> <Gold.Chemscore.Hbond.Weighted>
-5.6558

> <Gold.Chemscore.Metal.Weighted>
-0.0000

> <Gold.Chemscore.Lipo.Weighted>
-7.8280

> <Gold.Chemscore.Internal_Hbond.Weighted>
0.0000

> <Gold.Chemscore.DEClash.Weighted>
0.5198

> <Gold.Chemscore.DEInternal.Weighted>
1.5679

> <Gold.Chemscore.Rot.Weighted>
2.5600

> <Gold.Chemscore.Internal.Correction.Weighted>
   9.000000E+99

> <Gold.Protein.RotatedTorsions>
[ 6907 6896 6895 6894 ] final   80.27 input  -60.11 | X-H torsion
[ 7974 7965 7964 7962 ] final -179.40 input  175.53 | X-H torsion
[ 8008 7997 7996 7995 ] final -136.02 input   59.86 | X-H torsion
[ 10167 10162 10161 10158 ] final   56.28 input  -65.29 | X-H torsion
[ 10718 10713 10712 10709 ] final -179.25 input   66.30 | X-H torsion
[ 10763 10752 10751 10750 ] final -114.05 input  -60.55 | X-H torsion
[ 11005 11000 10999 10996 ] final   -8.94 input  -57.11 | X-H torsion

> <Gold.Protein.ActiveResidues>
 VAL166  LYS551  ARG553  GLY616  TRP617  ASP618  TYR619  PRO620  LYS621  CYS622 
 ASP623  PHE694  ASN695  SER759  ASP760  ASP761  ALA762  ILE779  LEU786  VAL792 
 PHE793  MET794  SER795  GLU796  ALA797  LYS798  CYS799  TRP800  GLU811  SER814 

> <Gold.Protein.RotatedAtoms>
  152.5229  134.3383  159.9207 H   0  0  0  0  0  0  0  0  0  0  0  0  # atno 6907 bound_to 6896
  151.3332  133.3986  159.2672 H   0  0  0  0  0  0  0  0  0  0  0  0  # atno 6908 bound_to 6896
  150.9863  134.9226  159.7931 H   0  0  0  0  0  0  0  0  0  0  0  0  # atno 6909 bound_to 6896
  144.7136  140.0723  143.6429 H   0  0  0  0  0  0  0  0  0  0  0  0  # atno 7974 bound_to 7965
  155.3884  140.0498  157.3041 H   0  0  0  0  0  0  0  0  0  0  0  0  # atno 8008 bound_to 7997
  154.5048  140.2170  155.9234 H   0  0  0  0  0  0  0  0  0  0  0  0  # atno 8009 bound_to 7997
  156.1512  140.3135  155.8657 H   0  0  0  0  0  0  0  0  0  0  0  0  # atno 8010 bound_to 7997
  140.2104  144.3895  150.6491 H   0  0  0  0  0  0  0  0  0  0  0  0  # atno 10167 bound_to 10162
  156.8563  130.9736  151.3087 H   0  0  0  0  0  0  0  0  0  0  0  0  # atno 10718 bound_to 10713
  154.8423  135.4432  154.1445 H   0  0  0  0  0  0  0  0  0  0  0  0  # atno 10763 bound_to 10752
  153.2622  135.6937  153.7573 H   0  0  0  0  0  0  0  0  0  0  0  0  # atno 10764 bound_to 10752
  153.6845  135.3397  155.3162 H   0  0  0  0  0  0  0  0  0  0  0  0  # atno 10765 bound_to 10752
  140.7289  133.8766  155.8877 H   0  0  0  0  0  0  0  0  0  0  0  0  # atno 11005 bound_to 11000
  145.9773  139.2914  143.1063 LP  0  0  0  0  0  0  0  0  0  0  0  0  # atno 17320 bound_to 7965
  145.9050  140.9218  143.0483 LP  0  0  0  0  0  0  0  0  0  0  0  0  # atno 17321 bound_to 7965
  140.6328  143.2190  151.6460 LP  0  0  0  0  0  0  0  0  0  0  0  0  # atno 17342 bound_to 10162
  139.5182  144.3291  152.0842 LP  0  0  0  0  0  0  0  0  0  0  0  0  # atno 17343 bound_to 10162
  157.6275  130.8703  149.9215 LP  0  0  0  0  0  0  0  0  0  0  0  0  # atno 17370 bound_to 10713
  156.0801  130.3674  150.0598 LP  0  0  0  0  0  0  0  0  0  0  0  0  # atno 17371 bound_to 10713
  140.9939  134.1242  157.4382 LP  0  0  0  0  0  0  0  0  0  0  0  0  # atno 17394 bound_to 11000
  139.8831  135.0048  156.6275 LP  0  0  0  0  0  0  0  0  0  0  0  0  # atno 17395 bound_to 11000

$$$$
