AV-unprocessed.smi:196|AV-procd|sdf|1537|dock8
  -GOLD-   2262019393D 1   1.00000     0.00000
 Structure written by MMmdl.
 47 50  0  0  0  0  0  0  0  0  1 V2000
  146.8660  139.0483  151.4487 C   0  0  0  0  0  0  0  0  0  0  0  0
  146.7580  138.9956  152.9809 C   0  0  1  0  0  0  0  0  0  0  0  0
  146.2812  137.7211  153.4114 O   0  0  0  0  0  0  0  0  0  0  0  0
  147.1847  137.1497  154.3476 C   0  0  0  0  0  0  0  0  0  0  0  0
  147.9020  138.3440  154.9628 C   0  0  0  0  0  0  0  0  0  0  0  0
  148.0513  139.2856  153.7764 C   0  0  1  0  0  0  0  0  0  0  0  0
  149.1992  138.8959  153.0381 O   0  0  0  0  0  0  0  0  0  0  0  0
  148.1998  140.7754  154.1655 C   0  0  0  0  0  0  0  0  0  0  0  0
  148.8122  140.9753  155.4693 N   0  0  0  0  0  0  0  0  0  0  0  0
  148.2027  141.4800  156.5962 C   0  0  0  0  0  0  0  0  0  0  0  0
  148.9657  141.5656  157.6517 N   0  0  0  0  0  0  0  0  0  0  0  0
  150.1909  141.0726  157.2214 C   0  0  0  0  0  0  0  0  0  0  0  0
  151.4489  140.8764  157.8504 C   0  0  0  0  0  0  0  0  0  0  0  0
  151.6429  141.2139  159.1530 N   0  0  0  0  0  0  0  0  0  0  0  0
  151.1940  142.5758  159.4225 C   0  0  0  0  0  0  0  0  0  0  0  0
  152.4564  143.4534  159.4497 C   0  0  2  0  0  0  0  0  0  0  0  0
  152.5289  144.2263  158.3655 F   0  0  0  0  0  0  0  0  0  0  0  0
  153.6324  142.4691  159.4840 C   0  0  0  0  0  0  0  0  0  0  0  0
  152.9653  141.1174  159.7878 C   0  0  2  0  0  0  0  0  0  0  0  0
  153.8139  139.8656  159.4773 C   0  0  0  0  0  0  0  0  0  0  0  0
  153.2404  138.6767  159.6810 N   0  0  0  0  0  0  0  0  0  0  0  0
  154.9510  139.9610  159.0181 O   0  0  0  0  0  0  0  0  0  0  0  0
  152.4600  140.3749  157.0914 N   0  0  0  0  0  0  0  0  0  0  0  0
  152.2467  140.0598  155.8107 C   0  0  0  0  0  0  0  0  0  0  0  0
  151.1233  140.1741  155.0995 N   0  0  0  0  0  0  0  0  0  0  0  0
  150.1124  140.6955  155.8519 C   0  0  0  0  0  0  0  0  0  0  0  0
  152.4531  144.1147  160.3167 H   0  0  0  0  0  0  0  0  0  0  0  0
  152.7734  141.0713  160.8614 H   0  0  0  0  0  0  0  0  0  0  0  0
  147.2443  140.0148  151.1153 H   0  0  0  0  0  0  0  0  0  0  0  0
  145.8898  138.8971  150.9883 H   0  0  0  0  0  0  0  0  0  0  0  0
  147.5308  138.2737  151.0657 H   0  0  0  0  0  0  0  0  0  0  0  0
  145.9916  139.7080  153.2899 H   0  0  0  0  0  0  0  0  0  0  0  0
  146.6632  136.5437  155.0884 H   0  0  0  0  0  0  0  0  0  0  0  0
  147.8902  136.5087  153.8173 H   0  0  0  0  0  0  0  0  0  0  0  0
  147.2577  138.7921  155.7201 H   0  0  0  0  0  0  0  0  0  0  0  0
  148.8470  138.0803  155.4398 H   0  0  0  0  0  0  0  0  0  0  0  0
  149.1399  137.9697  152.8609 H   0  0  0  0  0  0  0  0  0  0  0  0
  148.7989  141.3009  153.4206 H   0  0  0  0  0  0  0  0  0  0  0  0
  147.2249  141.2647  154.1710 H   0  0  0  0  0  0  0  0  0  0  0  0
  147.1675  141.7892  156.6085 H   0  0  0  0  0  0  0  0  0  0  0  0
  150.4585  142.9451  158.7042 H   0  0  0  0  0  0  0  0  0  0  0  0
  150.7091  142.5825  160.3996 H   0  0  0  0  0  0  0  0  0  0  0  0
  154.1420  142.4474  158.5196 H   0  0  0  0  0  0  0  0  0  0  0  0
  154.3701  142.7438  160.2387 H   0  0  0  0  0  0  0  0  0  0  0  0
  153.7530  137.8288  159.4879 H   0  0  0  0  0  0  0  0  0  0  0  0
  152.2917  138.6317  160.0239 H   0  0  0  0  0  0  0  0  0  0  0  0
  153.0979  139.6599  155.2798 H   0  0  0  0  0  0  0  0  0  0  0  0
  1  2  1  0  0  0  0
  1 29  1  0  0  0  0
  1 30  1  0  0  0  0
  1 31  1  0  0  0  0
  2  6  1  0  0  0  0
  2  3  1  0  0  0  0
  2 32  1  0  0  0  0
  3  4  1  0  0  0  0
  4  5  1  0  0  0  0
  4 33  1  0  0  0  0
  4 34  1  0  0  0  0
  5  6  1  0  0  0  0
  5 35  1  0  0  0  0
  5 36  1  0  0  0  0
  6  7  1  0  0  0  0
  6  8  1  0  0  0  0
  7 37  1  0  0  0  0
  8  9  1  0  0  0  0
  8 38  1  0  0  0  0
  8 39  1  0  0  0  0
  9 26  1  0  0  0  0
  9 10  1  0  0  0  0
 10 11  2  0  0  0  0
 10 40  1  0  0  0  0
 11 12  1  0  0  0  0
 12 26  2  0  0  0  0
 12 13  1  0  0  0  0
 13 14  1  0  0  0  0
 13 23  2  0  0  0  0
 14 19  1  0  0  0  0
 14 15  1  0  0  0  0
 15 16  1  0  0  0  0
 15 41  1  0  0  0  0
 15 42  1  0  0  0  0
 16 27  1  0  0  0  0
 16 17  1  0  0  0  0
 16 18  1  0  0  0  0
 18 19  1  0  0  0  0
 18 43  1  0  0  0  0
 18 44  1  0  0  0  0
 19 28  1  0  0  0  0
 19 20  1  0  0  0  0
 20 21  1  0  0  0  0
 20 22  2  0  0  0  0
 21 45  1  0  0  0  0
 21 46  1  0  0  0  0
 23 24  1  0  0  0  0
 24 25  2  0  0  0  0
 24 47  1  0  0  0  0
 25 26  1  0  0  0  0
M  END
> <s_m_source_file>
AV-unprocessed.smi

> <i_m_source_file_index>
196

> <i_lp_mmshare_version>
43012

> <i_f3d_flags>
0

> <s_epik_input>
W0NIMl0xW0NIMl1PW0NAQEhdKFtDSDNdKVtDQEBdMShbT0hdKVtDSDJdbihbY0hdbjIpYyhjMjMpbltjSF1uYzNONFtDSDJdW0NASF0oRilbQ0gyXVtDQEhdNEMoPU8pW05IMl0=

> <s_epik_cmdline>
J2VwaWtfcHl0aG9uJywgJy1waCcsICc3LjAnLCAnLXRuJywgJzgnLCAnLW1hJywgJzIwMCcsICctbWV0YWxfYmluZGluZycsICctaW1hZScsICc8aW5maWxlLm1hZT4nLCAnLW9tYWUnLCAnPG91dGZpbGUubWFlPic=

> <r_lp_tautomer_probability>
1

> <r_epik_Ionization_Penalty>
0.000857933

> <r_epik_Ionization_Penalty_Charging>
0

> <r_epik_Ionization_Penalty_Neutral>
0.000857933

> <r_epik_State_Penalty>
0.000462053

> <r_epik_Charging_Adjusted_Penalty>
0.000462053

> <i_epik_Tot_Q>
0

> <i_epik_Tot_abs_Q>
0

> <r_epik_Metal_State_Penalty>
-0

> <b_epik_Metal_Only>
0

> <s_lp_Force_Field>
OPLS_2005

> <r_lp_Energy>
51.2848

> <b_lp_Chiralities_Consistent>
1

> <s_lp_Variant>
AV-unprocessed.smi:196-10

> <Gold.Version>
5.8.1

> <Gold.Id.Protein>
6NUR|6NUR_protein|mol2

> <Gold.PLP.Fitness>
50.3574

> <Gold.PLP.PLP>
-42.9678

> <Gold.PLP.part.hbond>
-4.4281

> <Gold.PLP.part.metal>
0.0000

> <Gold.PLP.part.buried>
-2.6888

> <Gold.PLP.part.nonpolar>
-36.0370

> <Gold.PLP.part.repulsive>
0.3951

> <Gold.PLP.ligand.clash>
0.0000

> <Gold.PLP.ligand.torsion>
0.8346

> <Gold.PLP.Chemscore.Hbond>
3.0000

> <Gold.PLP.Chemscore.CHOScore>
0.0000

> <Gold.PLP.Chemscore.Metal>
0.0000

> <Gold.Chemscore.Hbonds>
donor molecule, donor type, donor heavy atom, donor atom, acceptor molecule, acceptor atom, score
      L1  H     7    37       P1  7948  1.00
      P1  H  7989  7998       L1    25  1.00
      P1  H  7997  8009       L1    22  0.93

> <Gold.PLP.Chemscore.Internal.Correction>
0.0588

> <Gold.Rescore>
     Score         DG    S(hbond)    S(metal)    S(lipo)     H(rot)  DE(clash)    DE(int)     intcor
     12.38     -14.82       2.48        0.00      75.64       3.04       0.25       2.20       ----

> <Gold.Chemscore.Fitness>
12.3820

> <Gold.Chemscore.DG>
-14.8248

> <Gold.Chemscore.ZeroCoef>
-5.4800

> <Gold.Chemscore.Hbond>
2.4794

> <Gold.Chemscore.Metal>
0.0000

> <Gold.Chemscore.Lipo>
75.6359

> <Gold.Chemscore.Internal_Hbond>
0.0000

> <Gold.Chemscore.DEClash>
0.2476

> <Gold.Chemscore.DEInternal>
2.1953

> <Gold.Chemscore.Rot>
3.0413

> <Gold.Chemscore.Internal.Correction>
   9.000000E+99

> <Gold.Chemscore.Hbonds>
donor molecule, donor type, donor heavy atom, donor atom, acceptor molecule, acceptor atom, score
      L1  H     7    37       P1  7948  0.96
      P1  H  7989  7998       L1    25  0.49
      P1  H  7997  8009       L1    22  0.90

> <Gold.Chemscore.Hbond.Weighted>
-8.2810

> <Gold.Chemscore.Metal.Weighted>
-0.0000

> <Gold.Chemscore.Lipo.Weighted>
-8.8494

> <Gold.Chemscore.Internal_Hbond.Weighted>
0.0000

> <Gold.Chemscore.DEClash.Weighted>
0.2476

> <Gold.Chemscore.DEInternal.Weighted>
2.1953

> <Gold.Chemscore.Rot.Weighted>
7.7856

> <Gold.Chemscore.Internal.Correction.Weighted>
   9.000000E+99

> <Gold.Protein.RotatedTorsions>
[ 6907 6896 6895 6894 ] final   49.35 input  -60.11 | X-H torsion
[ 7974 7965 7964 7962 ] final   24.79 input  175.53 | X-H torsion
[ 8008 7997 7996 7995 ] final  100.46 input   59.86 | X-H torsion
[ 10167 10162 10161 10158 ] final   69.66 input  -65.29 | X-H torsion
[ 10718 10713 10712 10709 ] final -141.73 input   66.30 | X-H torsion
[ 10763 10752 10751 10750 ] final   40.52 input  -60.55 | X-H torsion
[ 11005 11000 10999 10996 ] final  -21.88 input  -57.11 | X-H torsion

> <Gold.Protein.ActiveResidues>
 VAL166  LYS551  ARG553  GLY616  TRP617  ASP618  TYR619  PRO620  LYS621  CYS622 
 ASP623  PHE694  ASN695  SER759  ASP760  ASP761  ALA762  ILE779  LEU786  VAL792 
 PHE793  MET794  SER795  GLU796  ALA797  LYS798  CYS799  TRP800  GLU811  SER814 

> <Gold.Protein.RotatedAtoms>
  152.2898  134.7734  160.0379 H   0  0  0  0  0  0  0  0  0  0  0  0  # atno 6907 bound_to 6896
  151.8284  133.3399  159.3614 H   0  0  0  0  0  0  0  0  0  0  0  0  # atno 6908 bound_to 6896
  150.7225  134.5435  159.5803 H   0  0  0  0  0  0  0  0  0  0  0  0  # atno 6909 bound_to 6896
  146.1920  139.7555  142.8825 H   0  0  0  0  0  0  0  0  0  0  0  0  # atno 7974 bound_to 7965
  156.1205  140.3213  155.8201 H   0  0  0  0  0  0  0  0  0  0  0  0  # atno 8008 bound_to 7997
  155.4513  140.0532  157.3018 H   0  0  0  0  0  0  0  0  0  0  0  0  # atno 8009 bound_to 7997
  154.4824  140.2058  155.9747 H   0  0  0  0  0  0  0  0  0  0  0  0  # atno 8010 bound_to 7997
  140.0654  144.5197  150.7264 H   0  0  0  0  0  0  0  0  0  0  0  0  # atno 10167 bound_to 10162
  156.3375  130.7620  151.1750 H   0  0  0  0  0  0  0  0  0  0  0  0  # atno 10718 bound_to 10713
  152.9934  135.6189  154.2639 H   0  0  0  0  0  0  0  0  0  0  0  0  # atno 10763 bound_to 10752
  154.2375  135.2790  155.2868 H   0  0  0  0  0  0  0  0  0  0  0  0  # atno 10764 bound_to 10752
  154.5398  135.5764  153.6887 H   0  0  0  0  0  0  0  0  0  0  0  0  # atno 10765 bound_to 10752
  140.8603  133.7793  156.0067 H   0  0  0  0  0  0  0  0  0  0  0  0  # atno 11005 bound_to 11000
  145.3762  141.0351  143.3203 LP  0  0  0  0  0  0  0  0  0  0  0  0  # atno 17320 bound_to 7965
  144.8506  139.5328  143.6858 LP  0  0  0  0  0  0  0  0  0  0  0  0  # atno 17321 bound_to 7965
  140.7151  143.2538  151.4458 LP  0  0  0  0  0  0  0  0  0  0  0  0  # atno 17342 bound_to 10162
  139.5868  144.1587  152.2039 LP  0  0  0  0  0  0  0  0  0  0  0  0  # atno 17343 bound_to 10162
  157.7441  131.0464  150.4890 LP  0  0  0  0  0  0  0  0  0  0  0  0  # atno 17370 bound_to 10713
  156.5065  130.4129  149.6324 LP  0  0  0  0  0  0  0  0  0  0  0  0  # atno 17371 bound_to 10713
  140.8690  134.2749  157.5199 LP  0  0  0  0  0  0  0  0  0  0  0  0  # atno 17394 bound_to 11000
  139.8707  134.9557  156.4216 LP  0  0  0  0  0  0  0  0  0  0  0  0  # atno 17395 bound_to 11000

$$$$
