AV-unprocessed.smi:2888|AV-procd|sdf|11105|dock7
  -GOLD-   2272015573D 1   1.00000     0.00000
 Structure written by MMmdl.
 34 36  0  0  0  0  0  0  0  0  2 V2000
  152.7094  139.8956  158.6553 C   0  0  0  0  0  0  0  0  0  0  0  0
  152.0780  141.2050  158.2325 C   0  0  0  0  0  0  0  0  0  0  0  0
  152.4411  142.4264  158.8256 C   0  0  0  0  0  0  0  0  0  0  0  0
  151.7856  143.5791  158.3513 C   0  0  0  0  0  0  0  0  0  0  0  0
  152.0840  144.9578  158.9005 C   0  0  0  0  0  0  0  0  0  0  0  0
  150.8560  143.4771  157.3683 N   0  3  0  0  0  0  0  0  0  0  0  0
  150.5607  142.2770  156.8456 C   0  0  0  0  0  0  0  0  0  0  0  0
  149.6092  142.2347  155.8427 N   0  0  0  0  0  0  0  0  0  0  0  0
  149.1792  141.0118  155.1751 C   0  0  1  0  0  0  0  0  0  0  0  0
  148.2793  140.1316  156.0460 C   0  0  0  0  0  0  0  0  0  0  0  0
  147.0603  139.9296  155.1344 C   0  0  1  0  0  0  0  0  0  0  0  0
  146.1912  141.1923  155.0690 C   0  0  0  0  0  0  0  0  0  0  0  0
  147.0544  142.1193  154.2151 C   0  0  0  0  0  0  0  0  0  0  0  0
  148.2877  141.2420  153.9389 C   0  0  2  0  0  0  0  0  0  0  0  0
  147.6695  139.9692  153.8543 O   0  0  0  0  0  0  0  0  0  0  0  0
  151.1500  141.1446  157.2566 N   0  0  0  0  0  0  0  0  0  0  0  0
  153.3754  140.0365  159.5069 H   0  0  0  0  0  0  0  0  0  0  0  0
  153.2897  139.4721  157.8352 H   0  0  0  0  0  0  0  0  0  0  0  0
  151.9411  139.1765  158.9403 H   0  0  0  0  0  0  0  0  0  0  0  0
  153.1859  142.4787  159.6067 H   0  0  0  0  0  0  0  0  0  0  0  0
  152.7374  144.9004  159.7716 H   0  0  0  0  0  0  0  0  0  0  0  0
  151.1623  145.4575  159.1998 H   0  0  0  0  0  0  0  0  0  0  0  0
  152.5772  145.5677  158.1432 H   0  0  0  0  0  0  0  0  0  0  0  0
  149.3190  143.1153  155.4434 H   0  0  0  0  0  0  0  0  0  0  0  0
  150.0591  140.4354  154.8861 H   0  0  0  0  0  0  0  0  0  0  0  0
  148.7709  139.1810  156.2556 H   0  0  0  0  0  0  0  0  0  0  0  0
  148.0050  140.5867  156.9988 H   0  0  0  0  0  0  0  0  0  0  0  0
  146.4993  139.0174  155.3392 H   0  0  0  0  0  0  0  0  0  0  0  0
  145.2429  140.9867  154.5708 H   0  0  0  0  0  0  0  0  0  0  0  0
  145.9769  141.6016  156.0570 H   0  0  0  0  0  0  0  0  0  0  0  0
  146.5413  142.3599  153.2832 H   0  0  0  0  0  0  0  0  0  0  0  0
  147.2969  143.0575  154.7146 H   0  0  0  0  0  0  0  0  0  0  0  0
  148.8386  141.5276  153.0422 H   0  0  0  0  0  0  0  0  0  0  0  0
  150.3904  144.3204  157.0325 H   0  0  0  0  0  0  0  0  0  0  0  0
  1  2  1  0  0  0  0
  1 17  1  0  0  0  0
  1 18  1  0  0  0  0
  1 19  1  0  0  0  0
  2 16  1  0  0  0  0
  2  3  2  0  0  0  0
  3  4  1  0  0  0  0
  3 20  1  0  0  0  0
  4  5  1  0  0  0  0
  4  6  2  0  0  0  0
  5 21  1  0  0  0  0
  5 22  1  0  0  0  0
  5 23  1  0  0  0  0
  6  7  1  0  0  0  0
  6 34  1  0  0  0  0
  7  8  1  0  0  0  0
  7 16  2  0  0  0  0
  8  9  1  0  0  0  0
  8 24  1  0  0  0  0
  9 14  1  0  0  0  0
  9 10  1  0  0  0  0
  9 25  1  0  0  0  0
 10 11  1  0  0  0  0
 10 26  1  0  0  0  0
 10 27  1  0  0  0  0
 11 15  1  0  0  0  0
 11 12  1  0  0  0  0
 11 28  1  0  0  0  0
 12 13  1  0  0  0  0
 12 29  1  0  0  0  0
 12 30  1  0  0  0  0
 13 14  1  0  0  0  0
 13 31  1  0  0  0  0
 13 32  1  0  0  0  0
 14 15  1  0  0  0  0
 14 33  1  0  0  0  0
M  CHG  1   6   1
M  END
> <s_m_source_file>
AV-unprocessed.smi

> <i_m_source_file_index>
2888

> <i_lp_mmshare_version>
43012

> <i_f3d_flags>
0

> <s_epik_input>
W0NIM11jMVtjSF1jKFtDSDNdKW5jKG4xKVtOSF1bQ0BIXShbQ0gyXVtDQEBIXTIzKVtDQEBIXShPMylbQ0gyXVtDSDJdMg==

> <s_epik_cmdline>
J2VwaWtfcHl0aG9uJywgJy1waCcsICc3LjAnLCAnLXRuJywgJzgnLCAnLW1hJywgJzIwMCcsICctbWV0YWxfYmluZGluZycsICctaW1hZScsICc8aW5maWxlLm1hZT4nLCAnLW9tYWUnLCAnPG91dGZpbGUubWFlPic=

> <r_lp_tautomer_probability>
0.505494

> <r_epik_Ionization_Penalty>
2.49163

> <r_epik_Ionization_Penalty_Charging>
2.49163

> <r_epik_Ionization_Penalty_Neutral>
3.7631e-06

> <r_epik_State_Penalty>
2.656

> <r_epik_Charging_Adjusted_Penalty>
5.14762

> <i_epik_Tot_Q>
1

> <i_epik_Tot_abs_Q>
1

> <r_epik_Metal_State_Penalty>
2.66479

> <b_epik_Metal_Only>
0

> <s_lp_Force_Field>
OPLS_2005

> <r_lp_Energy>
36.4531

> <b_lp_Chiralities_Consistent>
1

> <s_lp_Variant>
AV-unprocessed.smi:2888-6

> <Gold.Version>
5.8.1

> <Gold.Id.Protein>
6NUR|6NUR_protein|mol2

> <Gold.PLP.Fitness>
40.9620

> <Gold.PLP.PLP>
-31.0276

> <Gold.PLP.part.hbond>
-2.0000

> <Gold.PLP.part.metal>
0.0000

> <Gold.PLP.part.buried>
-3.8054

> <Gold.PLP.part.nonpolar>
-26.0667

> <Gold.PLP.part.repulsive>
0.3378

> <Gold.PLP.ligand.clash>
0.0000

> <Gold.PLP.ligand.torsion>
0.1251

> <Gold.PLP.Chemscore.Hbond>
3.3920

> <Gold.PLP.Chemscore.CHOScore>
0.0000

> <Gold.PLP.Chemscore.Metal>
0.0000

> <Gold.Chemscore.Hbonds>
donor molecule, donor type, donor heavy atom, donor atom, acceptor molecule, acceptor atom, score
      L1  H     6    34       P1  8028  1.41
      L1  H     8    24       P1  8028  1.98

> <Gold.PLP.Chemscore.Internal.Correction>
0.0088

> <Gold.Rescore>
     Score         DG    S(hbond)    S(metal)    S(lipo)     H(rot)  DE(clash)    DE(int)     intcor
     17.71     -17.81       1.69        0.00      79.05       1.00       0.00       0.10       ----

> <Gold.Chemscore.Fitness>
17.7119

> <Gold.Chemscore.DG>
-17.8129

> <Gold.Chemscore.ZeroCoef>
-5.4800

> <Gold.Chemscore.Hbond>
1.6899

> <Gold.Chemscore.Metal>
0.0000

> <Gold.Chemscore.Lipo>
79.0471

> <Gold.Chemscore.Internal_Hbond>
0.0000

> <Gold.Chemscore.DEClash>
0.0004

> <Gold.Chemscore.DEInternal>
0.1006

> <Gold.Chemscore.Rot>
1.0000

> <Gold.Chemscore.Internal.Correction>
   9.000000E+99

> <Gold.Chemscore.Hbonds>
donor molecule, donor type, donor heavy atom, donor atom, acceptor molecule, acceptor atom, score
      L1  H     6    34       P1  8028  0.59
      L1  H     8    24       P1  8028  0.94

> <Gold.Chemscore.Hbond.Weighted>
-5.6444

> <Gold.Chemscore.Metal.Weighted>
-0.0000

> <Gold.Chemscore.Lipo.Weighted>
-9.2485

> <Gold.Chemscore.Internal_Hbond.Weighted>
0.0000

> <Gold.Chemscore.DEClash.Weighted>
0.0004

> <Gold.Chemscore.DEInternal.Weighted>
0.1006

> <Gold.Chemscore.Rot.Weighted>
2.5600

> <Gold.Chemscore.Internal.Correction.Weighted>
   9.000000E+99

> <Gold.Protein.RotatedTorsions>
[ 6907 6896 6895 6894 ] final -108.23 input  -60.11 | X-H torsion
[ 7974 7965 7964 7962 ] final  -78.02 input  175.53 | X-H torsion
[ 8008 7997 7996 7995 ] final  111.98 input   59.86 | X-H torsion
[ 10167 10162 10161 10158 ] final  109.61 input  -65.29 | X-H torsion
[ 10718 10713 10712 10709 ] final    9.20 input   66.30 | X-H torsion
[ 10763 10752 10751 10750 ] final  125.92 input  -60.55 | X-H torsion
[ 11005 11000 10999 10996 ] final -141.58 input  -57.11 | X-H torsion

> <Gold.Protein.ActiveResidues>
 VAL166  LYS551  ARG553  GLY616  TRP617  ASP618  TYR619  PRO620  LYS621  CYS622 
 ASP623  PHE694  ASN695  SER759  ASP760  ASP761  ALA762  ILE779  LEU786  VAL792 
 PHE793  MET794  SER795  GLU796  ALA797  LYS798  CYS799  TRP800  GLU811  SER814 

> <Gold.Protein.RotatedAtoms>
  150.7490  133.9708  159.3544 H   0  0  0  0  0  0  0  0  0  0  0  0  # atno 6907 bound_to 6896
  151.7642  135.0800  160.0359 H   0  0  0  0  0  0  0  0  0  0  0  0  # atno 6908 bound_to 6896
  152.3383  133.6000  159.5894 H   0  0  0  0  0  0  0  0  0  0  0  0  # atno 6909 bound_to 6896
  145.5919  140.9427  143.1287 H   0  0  0  0  0  0  0  0  0  0  0  0  # atno 7974 bound_to 7965
  156.2161  140.3008  155.9844 H   0  0  0  0  0  0  0  0  0  0  0  0  # atno 8008 bound_to 7997
  155.2601  140.0429  157.3013 H   0  0  0  0  0  0  0  0  0  0  0  0  # atno 8009 bound_to 7997
  154.5770  140.2364  155.8116 H   0  0  0  0  0  0  0  0  0  0  0  0  # atno 8010 bound_to 7997
  139.6753  144.7122  151.1613 H   0  0  0  0  0  0  0  0  0  0  0  0  # atno 10167 bound_to 10162
  156.9629  130.5939  149.5663 H   0  0  0  0  0  0  0  0  0  0  0  0  # atno 10718 bound_to 10713
  153.6850  135.3308  155.3188 H   0  0  0  0  0  0  0  0  0  0  0  0  # atno 10763 bound_to 10752
  154.8455  135.4418  154.1567 H   0  0  0  0  0  0  0  0  0  0  0  0  # atno 10764 bound_to 10752
  153.2594  135.6989  153.7672 H   0  0  0  0  0  0  0  0  0  0  0  0  # atno 10765 bound_to 10752
  140.8310  134.2517  157.4856 H   0  0  0  0  0  0  0  0  0  0  0  0  # atno 11005 bound_to 11000
  144.7347  139.7620  143.7334 LP  0  0  0  0  0  0  0  0  0  0  0  0  # atno 17320 bound_to 7965
  146.1640  139.4765  142.9970 LP  0  0  0  0  0  0  0  0  0  0  0  0  # atno 17321 bound_to 7965
  140.7633  143.5781  150.8923 LP  0  0  0  0  0  0  0  0  0  0  0  0  # atno 17342 bound_to 10162
  139.9450  143.6338  152.3044 LP  0  0  0  0  0  0  0  0  0  0  0  0  # atno 17343 bound_to 10162
  156.0315  130.5406  150.8545 LP  0  0  0  0  0  0  0  0  0  0  0  0  # atno 17370 bound_to 10713
  157.5646  131.0946  150.9509 LP  0  0  0  0  0  0  0  0  0  0  0  0  # atno 17371 bound_to 10713
  139.8705  134.9586  156.4305 LP  0  0  0  0  0  0  0  0  0  0  0  0  # atno 17394 bound_to 11000
  140.8998  133.7788  155.9667 LP  0  0  0  0  0  0  0  0  0  0  0  0  # atno 17395 bound_to 11000

$$$$
