AV-unprocessed.smi:1795|AV-procd|sdf|7239|dock4
  -GOLD-   22720 8483D 1   1.00000     0.00000
 Structure written by MMmdl.
 47 48  0  0  0  0  0  0  0  0  1 V2000
  153.1483  138.5870  154.8568 C   0  0  0  0  0  0  0  0  0  0  0  0
  151.6952  138.1754  154.5631 C   0  0  2  0  0  0  0  0  0  0  0  0
  150.7641  139.3742  154.2917 C   0  0  0  0  0  0  0  0  0  0  0  0
  150.4134  140.1341  155.4979 N   0  0  0  0  0  0  0  0  0  0  0  0
  149.4973  141.2645  155.2155 C   0  0  1  0  0  0  0  0  0  0  0  0
  148.3486  140.8798  154.2474 C   0  0  0  0  0  0  0  0  0  0  0  0
  148.8790  141.8858  156.4983 C   0  0  0  0  0  0  0  0  0  0  0  0
  149.7720  142.8488  157.1348 N   0  0  0  0  0  0  0  0  0  0  0  0
  151.0411  142.6034  157.4906 C   0  0  0  0  0  0  0  0  0  0  0  0
  151.5941  141.5179  157.3076 O   0  0  0  0  0  0  0  0  0  0  0  0
  151.7822  143.7708  158.1594 C   0  0  0  0  0  0  0  0  0  0  0  0
  152.2319  143.4787  159.5309 N   0  0  0  0  0  0  0  0  0  0  0  0
  153.0496  142.3445  159.7066 C   0  0  0  0  0  0  0  0  0  0  0  0
  153.5183  141.9867  160.9125 C   0  0  0  0  0  0  0  0  0  0  0  0
  153.1631  142.7998  162.0512 C   0  0  0  0  0  0  0  0  0  0  0  0
  152.3856  143.8895  161.8939 C   0  0  0  0  0  0  0  0  0  0  0  0
  151.8730  144.2858  160.5770 C   0  0  0  0  0  0  0  0  0  0  0  0
  151.1650  145.2815  160.4240 O   0  0  0  0  0  0  0  0  0  0  0  0
  149.8662  139.1928  156.4793 C   0  0  0  0  0  0  0  0  0  0  0  0
  150.8288  138.0345  156.7954 C   0  0  1  0  0  0  0  0  0  0  0  0
  150.2124  137.0220  157.7666 C   0  0  0  0  0  0  0  0  0  0  0  0
  151.1571  137.3486  155.5922 O   0  0  0  0  0  0  0  0  0  0  0  0
  153.5829  139.1083  154.0036 H   0  0  0  0  0  0  0  0  0  0  0  0
  153.7675  137.7129  155.0587 H   0  0  0  0  0  0  0  0  0  0  0  0
  153.2203  139.2545  155.7150 H   0  0  0  0  0  0  0  0  0  0  0  0
  151.7181  137.5615  153.6624 H   0  0  0  0  0  0  0  0  0  0  0  0
  151.2636  140.0065  153.5611 H   0  0  0  0  0  0  0  0  0  0  0  0
  149.8513  139.0106  153.8169 H   0  0  0  0  0  0  0  0  0  0  0  0
  150.0753  142.0502  154.7261 H   0  0  0  0  0  0  0  0  0  0  0  0
  147.6358  141.6902  154.0985 H   0  0  0  0  0  0  0  0  0  0  0  0
  147.7906  140.0202  154.6206 H   0  0  0  0  0  0  0  0  0  0  0  0
  148.7137  140.6393  153.2499 H   0  0  0  0  0  0  0  0  0  0  0  0
  147.9226  142.3513  156.2531 H   0  0  0  0  0  0  0  0  0  0  0  0
  148.6808  141.1331  157.2591 H   0  0  0  0  0  0  0  0  0  0  0  0
  149.3941  143.7664  157.3214 H   0  0  0  0  0  0  0  0  0  0  0  0
  152.6302  144.0545  157.5331 H   0  0  0  0  0  0  0  0  0  0  0  0
  151.1248  144.6417  158.1574 H   0  0  0  0  0  0  0  0  0  0  0  0
  153.2738  141.7951  158.8039 H   0  0  0  0  0  0  0  0  0  0  0  0
  154.1477  141.1163  161.0274 H   0  0  0  0  0  0  0  0  0  0  0  0
  153.5239  142.5337  163.0339 H   0  0  0  0  0  0  0  0  0  0  0  0
  152.1319  144.4870  162.7573 H   0  0  0  0  0  0  0  0  0  0  0  0
  149.6620  139.6975  157.4217 H   0  0  0  0  0  0  0  0  0  0  0  0
  148.9159  138.7950  156.1195 H   0  0  0  0  0  0  0  0  0  0  0  0
  151.7380  138.4308  157.2484 H   0  0  0  0  0  0  0  0  0  0  0  0
  149.9574  137.4940  158.7157 H   0  0  0  0  0  0  0  0  0  0  0  0
  150.9090  136.2102  157.9770 H   0  0  0  0  0  0  0  0  0  0  0  0
  149.3030  136.5829  157.3553 H   0  0  0  0  0  0  0  0  0  0  0  0
  1  2  1  0  0  0  0
  1 23  1  0  0  0  0
  1 24  1  0  0  0  0
  1 25  1  0  0  0  0
  2 22  1  0  0  0  0
  2  3  1  0  0  0  0
  2 26  1  0  0  0  0
  3  4  1  0  0  0  0
  3 27  1  0  0  0  0
  3 28  1  0  0  0  0
  4  5  1  0  0  0  0
  4 19  1  0  0  0  0
  5  6  1  0  0  0  0
  5  7  1  0  0  0  0
  5 29  1  0  0  0  0
  6 30  1  0  0  0  0
  6 31  1  0  0  0  0
  6 32  1  0  0  0  0
  7  8  1  0  0  0  0
  7 33  1  0  0  0  0
  7 34  1  0  0  0  0
  8  9  1  0  0  0  0
  8 35  1  0  0  0  0
  9 10  2  0  0  0  0
  9 11  1  0  0  0  0
 11 12  1  0  0  0  0
 11 36  1  0  0  0  0
 11 37  1  0  0  0  0
 12 17  1  0  0  0  0
 12 13  1  0  0  0  0
 13 14  2  0  0  0  0
 13 38  1  0  0  0  0
 14 15  1  0  0  0  0
 14 39  1  0  0  0  0
 15 16  2  0  0  0  0
 15 40  1  0  0  0  0
 16 17  1  0  0  0  0
 16 41  1  0  0  0  0
 17 18  2  0  0  0  0
 19 20  1  0  0  0  0
 19 42  1  0  0  0  0
 19 43  1  0  0  0  0
 20 21  1  0  0  0  0
 20 22  1  0  0  0  0
 20 44  1  0  0  0  0
 21 45  1  0  0  0  0
 21 46  1  0  0  0  0
 21 47  1  0  0  0  0
M  END
> <s_m_source_file>
AV-unprocessed.smi

> <i_m_source_file_index>
1795

> <i_lp_mmshare_version>
43012

> <i_f3d_flags>
0

> <s_epik_input>
W0NIM11bQ0BASF0xW0NIMl1OKFtDSDJdW0NASF0oTzEpW0NIM10pW0NASF0oW0NIM10pW0NIMl1bTkhdQyg9TylbQ0gyXW4yW2NIXVtjSF1bY0hdW2NIXWMyPU8=

> <s_epik_cmdline>
J2VwaWtfcHl0aG9uJywgJy1waCcsICc3LjAnLCAnLXRuJywgJzgnLCAnLW1hJywgJzIwMCcsICctbWV0YWxfYmluZGluZycsICctaW1hZScsICc8aW5maWxlLm1hZT4nLCAnLW9tYWUnLCAnPG91dGZpbGUubWFlPic=

> <r_lp_tautomer_probability>
1

> <r_epik_Ionization_Penalty>
0.237383

> <r_epik_Ionization_Penalty_Charging>
3.58805e-07

> <r_epik_Ionization_Penalty_Neutral>
0.237382

> <r_epik_State_Penalty>
0.228245

> <r_epik_Charging_Adjusted_Penalty>
0.228245

> <i_epik_Tot_Q>
0

> <i_epik_Tot_abs_Q>
0

> <r_epik_Metal_State_Penalty>
0.228221

> <b_epik_Metal_Only>
0

> <s_lp_Force_Field>
OPLS_2005

> <r_lp_Energy>
40.7521

> <b_lp_Chiralities_Consistent>
1

> <s_lp_Variant>
AV-unprocessed.smi:1795-3

> <Gold.Version>
5.8.1

> <Gold.Id.Protein>
6NUR|6NUR_protein|mol2

> <Gold.PLP.Fitness>
47.4713

> <Gold.PLP.PLP>
-47.5204

> <Gold.PLP.part.hbond>
-1.0000

> <Gold.PLP.part.metal>
0.0000

> <Gold.PLP.part.buried>
-3.6881

> <Gold.PLP.part.nonpolar>
-43.4996

> <Gold.PLP.part.repulsive>
0.3087

> <Gold.PLP.ligand.clash>
0.0000

> <Gold.PLP.ligand.torsion>
0.5704

> <Gold.PLP.Chemscore.Hbond>
0.3360

> <Gold.PLP.Chemscore.CHOScore>
0.0000

> <Gold.PLP.Chemscore.Metal>
0.0000

> <Gold.Chemscore.Hbonds>
donor molecule, donor type, donor heavy atom, donor atom, acceptor molecule, acceptor atom, score
      L1  H     8    35       P1  8028  0.27

> <Gold.PLP.Chemscore.Internal.Correction>
0.0837

> <Gold.Rescore>
     Score         DG    S(hbond)    S(metal)    S(lipo)     H(rot)  DE(clash)    DE(int)     intcor
     12.70     -16.33       0.70        0.00     112.73       1.83       0.15       3.48       ----

> <Gold.Chemscore.Fitness>
12.6998

> <Gold.Chemscore.DG>
-16.3349

> <Gold.Chemscore.ZeroCoef>
-5.4800

> <Gold.Chemscore.Hbond>
0.7000

> <Gold.Chemscore.Metal>
0.0000

> <Gold.Chemscore.Lipo>
112.7291

> <Gold.Chemscore.Internal_Hbond>
0.0000

> <Gold.Chemscore.DEClash>
0.1514

> <Gold.Chemscore.DEInternal>
3.4836

> <Gold.Chemscore.Rot>
1.8251

> <Gold.Chemscore.Internal.Correction>
   9.000000E+99

> <Gold.Chemscore.Hbonds>
donor molecule, donor type, donor heavy atom, donor atom, acceptor molecule, acceptor atom, score
      L1  H     8    35       P1  8028  0.14

> <Gold.Chemscore.Hbond.Weighted>
-2.3380

> <Gold.Chemscore.Metal.Weighted>
-0.0000

> <Gold.Chemscore.Lipo.Weighted>
-13.1893

> <Gold.Chemscore.Internal_Hbond.Weighted>
0.0000

> <Gold.Chemscore.DEClash.Weighted>
0.1514

> <Gold.Chemscore.DEInternal.Weighted>
3.4836

> <Gold.Chemscore.Rot.Weighted>
4.6724

> <Gold.Chemscore.Internal.Correction.Weighted>
   9.000000E+99

> <Gold.Protein.RotatedTorsions>
[ 6907 6896 6895 6894 ] final -162.40 input  -60.11 | X-H torsion
[ 7974 7965 7964 7962 ] final   -8.47 input  175.53 | X-H torsion
[ 8008 7997 7996 7995 ] final  -26.49 input   59.86 | X-H torsion
[ 10167 10162 10161 10158 ] final   23.27 input  -65.29 | X-H torsion
[ 10718 10713 10712 10709 ] final  160.17 input   66.30 | X-H torsion
[ 10763 10752 10751 10750 ] final  113.23 input  -60.55 | X-H torsion
[ 11005 11000 10999 10996 ] final  147.01 input  -57.11 | X-H torsion

> <Gold.Protein.ActiveResidues>
 VAL166  LYS551  ARG553  GLY616  TRP617  ASP618  TYR619  PRO620  LYS621  CYS622 
 ASP623  PHE694  ASN695  SER759  ASP760  ASP761  ALA762  ILE779  LEU786  VAL792 
 PHE793  MET794  SER795  GLU796  ALA797  LYS798  CYS799  TRP800  GLU811  SER814 

> <Gold.Protein.RotatedAtoms>
  151.3796  133.3826  159.2708 H   0  0  0  0  0  0  0  0  0  0  0  0  # atno 6907 bound_to 6896
  150.9587  134.8979  159.7728 H   0  0  0  0  0  0  0  0  0  0  0  0  # atno 6908 bound_to 6896
  152.5141  134.3755  159.9385 H   0  0  0  0  0  0  0  0  0  0  0  0  # atno 6909 bound_to 6896
  146.2279  140.2473  142.8346 H   0  0  0  0  0  0  0  0  0  0  0  0  # atno 7974 bound_to 7965
  154.4422  140.1898  156.0784 H   0  0  0  0  0  0  0  0  0  0  0  0  # atno 8008 bound_to 7997
  156.0458  140.3314  155.7268 H   0  0  0  0  0  0  0  0  0  0  0  0  # atno 8009 bound_to 7997
  155.5632  140.0605  157.2815 H   0  0  0  0  0  0  0  0  0  0  0  0  # atno 8010 bound_to 7997
  140.5282  143.9887  150.6451 H   0  0  0  0  0  0  0  0  0  0  0  0  # atno 10167 bound_to 10162
  157.1541  131.0571  151.2265 H   0  0  0  0  0  0  0  0  0  0  0  0  # atno 10718 bound_to 10713
  153.4895  135.3662  155.2484 H   0  0  0  0  0  0  0  0  0  0  0  0  # atno 10763 bound_to 10752
  154.8752  135.3973  154.3605 H   0  0  0  0  0  0  0  0  0  0  0  0  # atno 10764 bound_to 10752
  153.4223  135.7080  153.6352 H   0  0  0  0  0  0  0  0  0  0  0  0  # atno 10765 bound_to 10752
  140.0840  134.9080  157.1546 H   0  0  0  0  0  0  0  0  0  0  0  0  # atno 11005 bound_to 11000
  144.9439  140.8107  143.5614 LP  0  0  0  0  0  0  0  0  0  0  0  0  # atno 17320 bound_to 7965
  145.2427  139.2065  143.4984 LP  0  0  0  0  0  0  0  0  0  0  0  0  # atno 17321 bound_to 7965
  140.3254  143.3111  152.0741 LP  0  0  0  0  0  0  0  0  0  0  0  0  # atno 17342 bound_to 10162
  139.4945  144.6545  151.6602 LP  0  0  0  0  0  0  0  0  0  0  0  0  # atno 17343 bound_to 10162
  157.4193  130.7428  149.6900 LP  0  0  0  0  0  0  0  0  0  0  0  0  # atno 17370 bound_to 10713
  155.9765  130.4075  150.3774 LP  0  0  0  0  0  0  0  0  0  0  0  0  # atno 17371 bound_to 10713
  140.3447  134.2665  155.7207 LP  0  0  0  0  0  0  0  0  0  0  0  0  # atno 17394 bound_to 11000
  141.2056  133.7855  157.0222 LP  0  0  0  0  0  0  0  0  0  0  0  0  # atno 17395 bound_to 11000

$$$$
