AV-unprocessed.smi:790|AV-procd|sdf|3746|dock2
  -GOLD-   22720 1173D 1   1.00000     0.00000
 Structure written by MMmdl.
 38 40  0  0  0  0  0  0  0  0  1 V2000
  147.3043  134.1927  155.4275 O   0  0  0  0  0  0  0  0  0  0  0  0
  147.8271  134.6731  154.4225 C   0  0  0  0  0  0  0  0  0  0  0  0
  148.9186  135.4568  154.4092 N   0  0  0  0  0  0  0  0  0  0  0  0
  149.7101  135.8984  155.5038 C   0  0  0  0  0  0  0  0  0  0  0  0
  150.7330  136.8736  155.4113 C   0  0  0  0  0  0  0  0  0  0  0  0
  151.4330  137.2365  156.5783 C   0  0  0  0  0  0  0  0  0  0  0  0
  151.0825  136.6172  157.7936 C   0  0  0  0  0  0  0  0  0  0  0  0
  150.1023  135.6957  157.8985 N   0  0  0  0  0  0  0  0  0  0  0  0
  149.4349  135.3538  156.7760 C   0  0  0  0  0  0  0  0  0  0  0  0
  147.3479  134.4947  153.1835 N   0  0  0  0  0  0  0  0  0  0  0  0
  146.1699  133.6987  152.8371 C   0  0  2  0  0  0  0  0  0  0  0  0
  146.5601  132.5680  151.8612 C   0  0  1  0  0  0  0  0  0  0  0  0
  145.4254  131.5283  151.8169 C   0  0  0  0  0  0  0  0  0  0  0  0
  144.3217  132.2724  151.0413 C   0  0  0  0  0  0  0  0  0  0  0  0
  144.9708  133.6393  150.7455 C   0  0  2  0  0  0  0  0  0  0  0  0
  146.4198  133.2386  150.4999 C   0  0  0  0  0  0  0  0  0  0  0  0
  145.0577  134.4622  152.0547 C   0  0  2  0  0  0  0  0  0  0  0  0
  145.3018  135.9699  151.8139 C   0  0  0  0  0  0  0  0  0  0  0  0
  144.0776  136.6412  151.6035 O   0  0  0  0  0  0  0  0  0  0  0  0
  149.1830  135.8308  153.5095 H   0  0  0  0  0  0  0  0  0  0  0  0
  150.9858  137.3585  154.4818 H   0  0  0  0  0  0  0  0  0  0  0  0
  152.2183  137.9769  156.5430 H   0  0  0  0  0  0  0  0  0  0  0  0
  151.5994  136.8728  158.7066 H   0  0  0  0  0  0  0  0  0  0  0  0
  148.6551  134.6161  156.8985 H   0  0  0  0  0  0  0  0  0  0  0  0
  147.8366  134.9347  152.4176 H   0  0  0  0  0  0  0  0  0  0  0  0
  145.7593  133.2646  153.7508 H   0  0  0  0  0  0  0  0  0  0  0  0
  147.5377  132.1264  152.0596 H   0  0  0  0  0  0  0  0  0  0  0  0
  145.7380  130.6347  151.2751 H   0  0  0  0  0  0  0  0  0  0  0  0
  145.1019  131.2198  152.8118 H   0  0  0  0  0  0  0  0  0  0  0  0
  144.0872  131.7471  150.1147 H   0  0  0  0  0  0  0  0  0  0  0  0
  143.3981  132.3645  151.6137 H   0  0  0  0  0  0  0  0  0  0  0  0
  144.4955  134.1653  149.9171 H   0  0  0  0  0  0  0  0  0  0  0  0
  147.0915  134.0869  150.3609 H   0  0  0  0  0  0  0  0  0  0  0  0
  146.5419  132.5489  149.6627 H   0  0  0  0  0  0  0  0  0  0  0  0
  144.1195  134.3712  152.6043 H   0  0  0  0  0  0  0  0  0  0  0  0
  145.7794  136.4250  152.6816 H   0  0  0  0  0  0  0  0  0  0  0  0
  145.9532  136.1393  150.9565 H   0  0  0  0  0  0  0  0  0  0  0  0
  144.1173  137.0817  150.7684 H   0  0  0  0  0  0  0  0  0  0  0  0
  1  2  2  0  0  0  0
  2  3  1  0  0  0  0
  2 10  1  0  0  0  0
  3  4  1  0  0  0  0
  3 20  1  0  0  0  0
  4  9  1  0  0  0  0
  4  5  2  0  0  0  0
  5  6  1  0  0  0  0
  5 21  1  0  0  0  0
  6  7  2  0  0  0  0
  6 22  1  0  0  0  0
  7  8  1  0  0  0  0
  7 23  1  0  0  0  0
  8  9  2  0  0  0  0
  9 24  1  0  0  0  0
 10 11  1  0  0  0  0
 10 25  1  0  0  0  0
 11 17  1  0  0  0  0
 11 12  1  0  0  0  0
 11 26  1  0  0  0  0
 12 16  1  0  0  0  0
 12 13  1  0  0  0  0
 12 27  1  0  0  0  0
 13 14  1  0  0  0  0
 13 28  1  0  0  0  0
 13 29  1  0  0  0  0
 14 15  1  0  0  0  0
 14 30  1  0  0  0  0
 14 31  1  0  0  0  0
 15 16  1  0  0  0  0
 15 17  1  0  0  0  0
 15 32  1  0  0  0  0
 16 33  1  0  0  0  0
 16 34  1  0  0  0  0
 17 18  1  0  0  0  0
 17 35  1  0  0  0  0
 18 19  1  0  0  0  0
 18 36  1  0  0  0  0
 18 37  1  0  0  0  0
 19 38  1  0  0  0  0
M  END
> <s_m_source_file>
AV-unprocessed.smi

> <i_m_source_file_index>
790

> <i_lp_mmshare_version>
43012

> <i_f3d_flags>
0

> <s_epik_input>
W0NIMl0xW0NIMl1bQ0BASF0oW0NIMl0yKVtDQEBIXShbQ0gyXVtPSF0pW0NAQEhdKFtDQEhdMTIpW05IXUMoPU8pW05IXWMzW2NIXVtjSF1bY0hdbltjSF0z

> <s_epik_cmdline>
J2VwaWtfcHl0aG9uJywgJy1waCcsICc3LjAnLCAnLXRuJywgJzgnLCAnLW1hJywgJzIwMCcsICctbWV0YWxfYmluZGluZycsICctaW1hZScsICc8aW5maWxlLm1hZT4nLCAnLW9tYWUnLCAnPG91dGZpbGUubWFlPic=

> <r_epik_Ionization_Penalty>
0.00497582

> <r_epik_Ionization_Penalty_Charging>
0

> <r_epik_Ionization_Penalty_Neutral>
0.00497582

> <r_epik_State_Penalty>
0.00358602

> <r_epik_Charging_Adjusted_Penalty>
0.00358602

> <i_epik_Tot_Q>
0

> <i_epik_Tot_abs_Q>
0

> <r_epik_Metal_State_Penalty>
-0

> <b_epik_Metal_Only>
0

> <s_lp_Force_Field>
OPLS_2005

> <r_lp_Energy>
52.0711

> <b_lp_Chiralities_Consistent>
1

> <s_lp_Variant>
AV-unprocessed.smi:790-7

> <Gold.Version>
5.8.1

> <Gold.Id.Protein>
6NUR|6NUR_protein|mol2

> <Gold.PLP.Fitness>
37.0038

> <Gold.PLP.PLP>
-26.2857

> <Gold.PLP.part.hbond>
-4.0000

> <Gold.PLP.part.metal>
0.0000

> <Gold.PLP.part.buried>
-4.4445

> <Gold.PLP.part.nonpolar>
-18.4240

> <Gold.PLP.part.repulsive>
0.0315

> <Gold.PLP.ligand.clash>
0.0000

> <Gold.PLP.ligand.torsion>
0.2934

> <Gold.PLP.Chemscore.Hbond>
3.7636

> <Gold.PLP.Chemscore.CHOScore>
0.0000

> <Gold.PLP.Chemscore.Metal>
0.0000

> <Gold.Chemscore.Hbonds>
donor molecule, donor type, donor heavy atom, donor atom, acceptor molecule, acceptor atom, score
      L1  H     3    20       P1  7948  1.00
      L1  H    10    25       P1  7948  0.99
      L1  H    19    38       P1 10171  0.98
      P1  H  6896  6908       L1     8  0.77

> <Gold.PLP.Chemscore.Internal.Correction>
0.0141

> <Gold.Rescore>
     Score         DG    S(hbond)    S(metal)    S(lipo)     H(rot)  DE(clash)    DE(int)     intcor
     17.91     -19.62       3.47        0.00      60.75       1.78       0.00       1.71       ----

> <Gold.Chemscore.Fitness>
17.9077

> <Gold.Chemscore.DG>
-19.6186

> <Gold.Chemscore.ZeroCoef>
-5.4800

> <Gold.Chemscore.Hbond>
3.4681

> <Gold.Chemscore.Metal>
0.0000

> <Gold.Chemscore.Lipo>
60.7491

> <Gold.Chemscore.Internal_Hbond>
0.0000

> <Gold.Chemscore.DEClash>
0.0000

> <Gold.Chemscore.DEInternal>
1.7109

> <Gold.Chemscore.Rot>
1.7783

> <Gold.Chemscore.Internal.Correction>
   9.000000E+99

> <Gold.Chemscore.Hbonds>
donor molecule, donor type, donor heavy atom, donor atom, acceptor molecule, acceptor atom, score
      L1  H     3    20       P1  7948  0.74
      L1  H    10    25       P1  7948  0.83
      L1  H    19    38       P1 10171  0.93
      P1  H  6896  6908       L1     8  0.25

> <Gold.Chemscore.Hbond.Weighted>
-11.5834

> <Gold.Chemscore.Metal.Weighted>
-0.0000

> <Gold.Chemscore.Lipo.Weighted>
-7.1076

> <Gold.Chemscore.Internal_Hbond.Weighted>
0.0000

> <Gold.Chemscore.DEClash.Weighted>
0.0000

> <Gold.Chemscore.DEInternal.Weighted>
1.7109

> <Gold.Chemscore.Rot.Weighted>
4.5525

> <Gold.Chemscore.Internal.Correction.Weighted>
   9.000000E+99

> <Gold.Protein.RotatedTorsions>
[ 6907 6896 6895 6894 ] final  169.52 input  -60.11 | X-H torsion
[ 7974 7965 7964 7962 ] final -121.33 input  175.53 | X-H torsion
[ 8008 7997 7996 7995 ] final   47.93 input   59.86 | X-H torsion
[ 10167 10162 10161 10158 ] final   48.27 input  -65.29 | X-H torsion
[ 10718 10713 10712 10709 ] final    9.08 input   66.30 | X-H torsion
[ 10763 10752 10751 10750 ] final  -66.26 input  -60.55 | X-H torsion
[ 11005 11000 10999 10996 ] final  108.32 input  -57.11 | X-H torsion

> <Gold.Protein.ActiveResidues>
 VAL166  LYS551  ARG553  GLY616  TRP617  ASP618  TYR619  PRO620  LYS621  CYS622 
 ASP623  PHE694  ASN695  SER759  ASP760  ASP761  ALA762  ILE779  LEU786  VAL792 
 PHE793  MET794  SER795  GLU796  ALA797  LYS798  CYS799  TRP800  GLU811  SER814 

> <Gold.Protein.RotatedAtoms>
  151.8306  133.3408  159.3611 H   0  0  0  0  0  0  0  0  0  0  0  0  # atno 6907 bound_to 6896
  150.7265  134.5487  159.5793 H   0  0  0  0  0  0  0  0  0  0  0  0  # atno 6908 bound_to 6896
  152.2939  134.7691  160.0423 H   0  0  0  0  0  0  0  0  0  0  0  0  # atno 6909 bound_to 6896
  145.0415  140.8148  143.4263 H   0  0  0  0  0  0  0  0  0  0  0  0  # atno 7974 bound_to 7965
  155.3772  140.3427  155.4245 H   0  0  0  0  0  0  0  0  0  0  0  0  # atno 8008 bound_to 7997
  156.1630  140.1607  156.8613 H   0  0  0  0  0  0  0  0  0  0  0  0  # atno 8009 bound_to 7997
  154.5158  140.0779  156.8060 H   0  0  0  0  0  0  0  0  0  0  0  0  # atno 8010 bound_to 7997
  140.2950  144.3001  150.6231 H   0  0  0  0  0  0  0  0  0  0  0  0  # atno 10167 bound_to 10162
  156.9611  130.5933  149.5662 H   0  0  0  0  0  0  0  0  0  0  0  0  # atno 10718 bound_to 10713
  154.3572  135.6124  153.5672 H   0  0  0  0  0  0  0  0  0  0  0  0  # atno 10763 bound_to 10752
  152.9795  135.5806  154.4675 H   0  0  0  0  0  0  0  0  0  0  0  0  # atno 10764 bound_to 10752
  154.4406  135.2850  155.1827 H   0  0  0  0  0  0  0  0  0  0  0  0  # atno 10765 bound_to 10752
  139.8842  134.9427  156.5955 H   0  0  0  0  0  0  0  0  0  0  0  0  # atno 11005 bound_to 11000
  145.1642  139.2441  143.5376 LP  0  0  0  0  0  0  0  0  0  0  0  0  # atno 17320 bound_to 7965
  146.3510  140.1377  142.8595 LP  0  0  0  0  0  0  0  0  0  0  0  0  # atno 17321 bound_to 7965
  140.5699  143.2182  151.7617 LP  0  0  0  0  0  0  0  0  0  0  0  0  # atno 17342 bound_to 10162
  139.4928  144.4231  151.9956 LP  0  0  0  0  0  0  0  0  0  0  0  0  # atno 17343 bound_to 10162
  156.0322  130.5412  150.8563 LP  0  0  0  0  0  0  0  0  0  0  0  0  # atno 17370 bound_to 10713
  157.5657  131.0946  150.9493 LP  0  0  0  0  0  0  0  0  0  0  0  0  # atno 17371 bound_to 10713
  140.7923  133.8572  155.8657 LP  0  0  0  0  0  0  0  0  0  0  0  0  # atno 17394 bound_to 11000
  140.9666  134.1586  157.4611 LP  0  0  0  0  0  0  0  0  0  0  0  0  # atno 17395 bound_to 11000

$$$$
