AV-unprocessed.smi:910|AV-procd|sdf|4135|dock1
  -GOLD-   22720 2 43D 1   1.00000     0.00000
 Structure written by MMmdl.
 45 46  0  0  0  0  0  0  0  0  2 V2000
  146.2751  134.1701  162.8786 C   0  0  0  0  0  0  0  0  0  0  0  0
  147.1935  135.0389  162.0778 C   0  0  0  0  0  0  0  0  0  0  0  0
  147.6303  134.6857  160.8099 N   0  0  0  0  0  0  0  0  0  0  0  0
  148.4152  135.6852  160.4034 C   0  0  0  0  0  0  0  0  0  0  0  0
  149.0564  135.7638  159.2261 N   0  5  0  0  0  0  0  0  0  0  0  0
  148.9304  136.8752  158.4661 C   0  0  0  0  0  0  0  0  0  0  0  0
  148.0567  137.0875  157.6217 O   0  0  0  0  0  0  0  0  0  0  0  0
  149.8736  137.7995  158.6982 N   0  0  0  0  0  0  0  0  0  0  0  0
  149.9763  139.0982  158.0402 C   0  0  0  0  0  0  0  0  0  0  0  0
  151.4395  139.5309  157.8762 C   0  0  0  0  0  0  0  0  0  0  0  0
  151.8104  140.3340  158.9872 O   0  0  0  0  0  0  0  0  0  0  0  0
  152.2783  141.6300  158.6383 C   0  0  1  0  0  0  0  0  0  0  0  0
  151.1445  142.3973  157.9259 C   0  0  0  0  0  0  0  0  0  0  0  0
  151.5406  143.8532  157.6404 C   0  0  0  0  0  0  0  0  0  0  0  0
  151.9604  144.5721  158.9303 C   0  0  0  0  0  0  0  0  0  0  0  0
  153.0932  143.8155  159.6405 C   0  0  0  0  0  0  0  0  0  0  0  0
  152.7082  142.3518  159.9353 C   0  0  2  0  0  0  0  0  0  0  0  0
  153.8620  141.6188  160.6385 C   0  0  0  0  0  0  0  0  0  0  0  0
  148.5232  136.6666  161.3442 O   0  0  0  0  0  0  0  0  0  0  0  0
  147.7471  136.2512  162.3911 C   0  0  0  0  0  0  0  0  0  0  0  0
  147.6595  137.1390  163.5853 C   0  0  0  0  0  0  0  0  0  0  0  0
  146.7444  133.8598  163.8119 H   0  0  0  0  0  0  0  0  0  0  0  0
  145.9987  133.2680  162.3319 H   0  0  0  0  0  0  0  0  0  0  0  0
  145.3553  134.6988  163.1290 H   0  0  0  0  0  0  0  0  0  0  0  0
  150.5686  137.5878  159.3991 H   0  0  0  0  0  0  0  0  0  0  0  0
  149.4931  139.0354  157.0650 H   0  0  0  0  0  0  0  0  0  0  0  0
  149.4243  139.8467  158.6108 H   0  0  0  0  0  0  0  0  0  0  0  0
  152.0831  138.6511  157.8411 H   0  0  0  0  0  0  0  0  0  0  0  0
  151.5735  140.0642  156.9347 H   0  0  0  0  0  0  0  0  0  0  0  0
  153.1456  141.5572  157.9788 H   0  0  0  0  0  0  0  0  0  0  0  0
  150.8765  141.9062  156.9907 H   0  0  0  0  0  0  0  0  0  0  0  0
  150.2476  142.3810  158.5467 H   0  0  0  0  0  0  0  0  0  0  0  0
  152.3621  143.8752  156.9235 H   0  0  0  0  0  0  0  0  0  0  0  0
  150.7079  144.3808  157.1746 H   0  0  0  0  0  0  0  0  0  0  0  0
  152.2782  145.5897  158.7025 H   0  0  0  0  0  0  0  0  0  0  0  0
  151.1021  144.6578  159.5981 H   0  0  0  0  0  0  0  0  0  0  0  0
  153.9903  143.8424  159.0199 H   0  0  0  0  0  0  0  0  0  0  0  0
  153.3460  144.3286  160.5689 H   0  0  0  0  0  0  0  0  0  0  0  0
  151.8561  142.3610  160.6170 H   0  0  0  0  0  0  0  0  0  0  0  0
  154.7420  141.5578  159.9974 H   0  0  0  0  0  0  0  0  0  0  0  0
  153.5789  140.6020  160.9114 H   0  0  0  0  0  0  0  0  0  0  0  0
  154.1526  142.1329  161.5548 H   0  0  0  0  0  0  0  0  0  0  0  0
  147.1359  136.6440  164.4033 H   0  0  0  0  0  0  0  0  0  0  0  0
  147.1211  138.0557  163.3447 H   0  0  0  0  0  0  0  0  0  0  0  0
  148.6542  137.4125  163.9370 H   0  0  0  0  0  0  0  0  0  0  0  0
  1 22  1  0  0  0  0
  1 23  1  0  0  0  0
  1 24  1  0  0  0  0
  1  2  1  0  0  0  0
  2  3  1  0  0  0  0
  2 20  2  0  0  0  0
  3  4  2  0  0  0  0
  4 19  1  0  0  0  0
  4  5  1  0  0  0  0
  5  6  1  0  0  0  0
  6  8  1  0  0  0  0
  6  7  2  0  0  0  0
  8  9  1  0  0  0  0
  8 25  1  0  0  0  0
  9 10  1  0  0  0  0
  9 26  1  0  0  0  0
  9 27  1  0  0  0  0
 10 11  1  0  0  0  0
 10 28  1  0  0  0  0
 10 29  1  0  0  0  0
 11 12  1  0  0  0  0
 12 17  1  0  0  0  0
 12 13  1  0  0  0  0
 12 30  1  0  0  0  0
 13 14  1  0  0  0  0
 13 31  1  0  0  0  0
 13 32  1  0  0  0  0
 14 15  1  0  0  0  0
 14 33  1  0  0  0  0
 14 34  1  0  0  0  0
 15 16  1  0  0  0  0
 15 35  1  0  0  0  0
 15 36  1  0  0  0  0
 16 17  1  0  0  0  0
 16 37  1  0  0  0  0
 16 38  1  0  0  0  0
 17 18  1  0  0  0  0
 17 39  1  0  0  0  0
 18 40  1  0  0  0  0
 18 41  1  0  0  0  0
 18 42  1  0  0  0  0
 19 20  1  0  0  0  0
 20 21  1  0  0  0  0
 21 43  1  0  0  0  0
 21 44  1  0  0  0  0
 21 45  1  0  0  0  0
M  CHG  1   5  -1
M  END
> <s_m_source_file>
AV-unprocessed.smi

> <i_m_source_file_index>
910

> <i_lp_mmshare_version>
43012

> <i_f3d_flags>
0

> <s_epik_input>
W0NIM11jMW5jKG9jMVtDSDNdKVtOSF1DKD1PKVtOSF1bQ0gyXVtDSDJdT1tDQEBIXTJbQ0gyXVtDSDJdW0NIMl1bQ0gyXVtDQEhdMltDSDNd

> <s_epik_cmdline>
J2VwaWtfcHl0aG9uJywgJy1waCcsICc3LjAnLCAnLXRuJywgJzgnLCAnLW1hJywgJzIwMCcsICctbWV0YWxfYmluZGluZycsICctaW1hZScsICc8aW5maWxlLm1hZT4nLCAnLW9tYWUnLCAnPG91dGZpbGUubWFlPic=

> <r_lp_tautomer_probability>
0.107061

> <r_epik_Ionization_Penalty>
10.1763

> <r_epik_Ionization_Penalty_Charging>
7.13067

> <r_epik_Ionization_Penalty_Neutral>
3.04564

> <r_epik_State_Penalty>
5.57927

> <r_epik_Charging_Adjusted_Penalty>
12.7099

> <i_epik_Tot_Q>
-1

> <i_epik_Tot_abs_Q>
1

> <r_epik_Metal_State_Penalty>
1.52303

> <b_epik_Metal_Only>
1

> <s_lp_Force_Field>
OPLS_2005

> <r_lp_Energy>
4.71828

> <b_lp_Chiralities_Consistent>
1

> <s_lp_Variant>
AV-unprocessed.smi:910-20

> <Gold.Version>
5.8.1

> <Gold.Id.Protein>
6NUR|6NUR_protein|mol2

> <Gold.PLP.Fitness>
50.3920

> <Gold.PLP.PLP>
-45.2239

> <Gold.PLP.part.hbond>
-2.0000

> <Gold.PLP.part.metal>
0.0000

> <Gold.PLP.part.buried>
-5.6503

> <Gold.PLP.part.nonpolar>
-38.5027

> <Gold.PLP.part.repulsive>
0.1643

> <Gold.PLP.ligand.clash>
0.0000

> <Gold.PLP.ligand.torsion>
1.9866

> <Gold.PLP.Chemscore.Hbond>
3.0000

> <Gold.PLP.Chemscore.CHOScore>
0.0000

> <Gold.PLP.Chemscore.Metal>
0.0000

> <Gold.Chemscore.Hbonds>
donor molecule, donor type, donor heavy atom, donor atom, acceptor molecule, acceptor atom, score
      P1  H  6896  6907       L1     5  2.00
      P1  H  6931  6943       L1    19  1.00

> <Gold.PLP.Chemscore.Internal.Correction>
0.1413

> <Gold.Rescore>
     Score         DG    S(hbond)    S(metal)    S(lipo)     H(rot)  DE(clash)    DE(int)     intcor
     19.39     -21.48       1.78        0.00     121.26       1.62       0.14       1.95       ----

> <Gold.Chemscore.Fitness>
19.3877

> <Gold.Chemscore.DG>
-21.4790

> <Gold.Chemscore.ZeroCoef>
-5.4800

> <Gold.Chemscore.Hbond>
1.7818

> <Gold.Chemscore.Metal>
0.0000

> <Gold.Chemscore.Lipo>
121.2556

> <Gold.Chemscore.Internal_Hbond>
0.0000

> <Gold.Chemscore.DEClash>
0.1423

> <Gold.Chemscore.DEInternal>
1.9490

> <Gold.Chemscore.Rot>
1.6169

> <Gold.Chemscore.Internal.Correction>
   9.000000E+99

> <Gold.Chemscore.Hbonds>
donor molecule, donor type, donor heavy atom, donor atom, acceptor molecule, acceptor atom, score
      P1  H  6896  6907       L1     5  0.29
      P1  H  6931  6943       L1    19  0.30

> <Gold.Chemscore.Hbond.Weighted>
-5.9513

> <Gold.Chemscore.Metal.Weighted>
-0.0000

> <Gold.Chemscore.Lipo.Weighted>
-14.1869

> <Gold.Chemscore.Internal_Hbond.Weighted>
0.0000

> <Gold.Chemscore.DEClash.Weighted>
0.1423

> <Gold.Chemscore.DEInternal.Weighted>
1.9490

> <Gold.Chemscore.Rot.Weighted>
4.1393

> <Gold.Chemscore.Internal.Correction.Weighted>
   9.000000E+99

> <Gold.Protein.RotatedTorsions>
[ 6907 6896 6895 6894 ] final  -58.81 input  -60.11 | X-H torsion
[ 7974 7965 7964 7962 ] final -174.42 input  175.53 | X-H torsion
[ 8008 7997 7996 7995 ] final  -70.31 input   59.86 | X-H torsion
[ 10167 10162 10161 10158 ] final  140.85 input  -65.29 | X-H torsion
[ 10718 10713 10712 10709 ] final -132.45 input   66.30 | X-H torsion
[ 10763 10752 10751 10750 ] final -138.88 input  -60.55 | X-H torsion
[ 11005 11000 10999 10996 ] final   -8.93 input  -57.11 | X-H torsion

> <Gold.Protein.ActiveResidues>
 VAL166  LYS551  ARG553  GLY616  TRP617  ASP618  TYR619  PRO620  LYS621  CYS622 
 ASP623  PHE694  ASN695  SER759  ASP760  ASP761  ALA762  ILE779  LEU786  VAL792 
 PHE793  MET794  SER795  GLU796  ALA797  LYS798  CYS799  TRP800  GLU811  SER814 

> <Gold.Protein.RotatedAtoms>
  150.7978  134.7050  159.6571 H   0  0  0  0  0  0  0  0  0  0  0  0  # atno 6907 bound_to 6896
  152.4092  134.6150  160.0045 H   0  0  0  0  0  0  0  0  0  0  0  0  # atno 6908 bound_to 6896
  151.6398  133.3290  159.3164 H   0  0  0  0  0  0  0  0  0  0  0  0  # atno 6909 bound_to 6896
  144.7132  140.1473  143.6387 H   0  0  0  0  0  0  0  0  0  0  0  0  # atno 7974 bound_to 7965
  154.5002  140.0837  156.7782 H   0  0  0  0  0  0  0  0  0  0  0  0  # atno 8008 bound_to 7997
  155.4021  140.3437  155.4239 H   0  0  0  0  0  0  0  0  0  0  0  0  # atno 8009 bound_to 7997
  156.1446  140.1540  156.8854 H   0  0  0  0  0  0  0  0  0  0  0  0  # atno 8010 bound_to 7997
  139.5037  144.6208  151.6055 H   0  0  0  0  0  0  0  0  0  0  0  0  # atno 10167 bound_to 10162
  156.2347  130.7059  151.0895 H   0  0  0  0  0  0  0  0  0  0  0  0  # atno 10718 bound_to 10713
  154.8625  135.3599  154.5456 H   0  0  0  0  0  0  0  0  0  0  0  0  # atno 10763 bound_to 10752
  153.6076  135.7010  153.5364 H   0  0  0  0  0  0  0  0  0  0  0  0  # atno 10764 bound_to 10752
  153.3236  135.4144  155.1398 H   0  0  0  0  0  0  0  0  0  0  0  0  # atno 10765 bound_to 10752
  140.7288  133.8767  155.8876 H   0  0  0  0  0  0  0  0  0  0  0  0  # atno 11005 bound_to 11000
  145.9148  139.2509  143.1416 LP  0  0  0  0  0  0  0  0  0  0  0  0  # atno 17320 bound_to 7965
  145.9680  140.8783  143.0177 LP  0  0  0  0  0  0  0  0  0  0  0  0  # atno 17321 bound_to 7965
  140.5910  143.9780  150.6324 LP  0  0  0  0  0  0  0  0  0  0  0  0  # atno 17342 bound_to 10162
  140.2960  143.3292  152.1017 LP  0  0  0  0  0  0  0  0  0  0  0  0  # atno 17343 bound_to 10162
  157.7149  131.0715  150.6365 LP  0  0  0  0  0  0  0  0  0  0  0  0  # atno 17370 bound_to 10713
  156.6434  130.4465  149.5744 LP  0  0  0  0  0  0  0  0  0  0  0  0  # atno 17371 bound_to 10713
  140.9939  134.1241  157.4382 LP  0  0  0  0  0  0  0  0  0  0  0  0  # atno 17394 bound_to 11000
  139.8831  135.0049  156.6277 LP  0  0  0  0  0  0  0  0  0  0  0  0  # atno 17395 bound_to 11000

$$$$
