AV-unprocessed.smi:51|AV-procd|sdf|505|dock1
  -GOLD-   2262016373D 1   1.00000     0.00000
 Structure written by MMmdl.
 26 27  0  0  0  0  0  0  0  0  3 V2000
  153.1426  139.1839  155.5218 O   0  0  0  0  0  0  0  0  0  0  0  0
  152.1419  138.4722  155.2896 C   0  0  0  0  0  0  0  0  0  0  0  0
  152.1682  137.3079  154.8328 O   0  5  0  0  0  0  0  0  0  0  0  0
  150.7689  139.1030  155.5674 C   0  0  2  0  0  0  0  0  0  0  0  0
  149.9205  139.2187  154.2868 C   0  0  0  0  0  0  0  0  0  0  0  0
  149.1266  140.5093  154.4950 C   0  0  2  0  0  0  0  0  0  0  0  0
  148.7115  141.0973  153.2806 O   0  0  0  0  0  0  0  0  0  0  0  0
  150.0928  141.4016  155.2745 C   0  0  0  0  0  0  0  0  0  0  0  0
  150.8726  140.4699  156.0758 N   0  0  0  0  0  0  0  0  0  0  0  0
  151.4305  140.8184  157.3224 C   0  0  0  0  0  0  0  0  0  0  0  0
  151.3237  142.1197  157.8583 C   0  0  0  0  0  0  0  0  0  0  0  0
  151.9060  142.3494  159.1176 C   0  0  0  0  0  0  0  0  0  0  0  0
  152.5459  141.3494  159.7693 N   0  3  0  0  0  0  0  0  0  0  0  0
  152.6202  140.1361  159.2040 C   0  0  0  0  0  0  0  0  0  0  0  0
  152.0858  139.8555  158.0102 N   0  0  0  0  0  0  0  0  0  0  0  0
  150.2293  138.5056  156.3034 H   0  0  0  0  0  0  0  0  0  0  0  0
  150.5545  139.3173  153.4032 H   0  0  0  0  0  0  0  0  0  0  0  0
  149.2752  138.3532  154.1342 H   0  0  0  0  0  0  0  0  0  0  0  0
  148.2503  140.2973  155.1093 H   0  0  0  0  0  0  0  0  0  0  0  0
  148.6480  140.4189  152.6260 H   0  0  0  0  0  0  0  0  0  0  0  0
  150.7712  141.9352  154.6068 H   0  0  0  0  0  0  0  0  0  0  0  0
  149.5511  142.1340  155.8743 H   0  0  0  0  0  0  0  0  0  0  0  0
  150.8134  142.9185  157.3406 H   0  0  0  0  0  0  0  0  0  0  0  0
  151.8805  143.3027  159.6249 H   0  0  0  0  0  0  0  0  0  0  0  0
  153.1425  139.3713  159.7597 H   0  0  0  0  0  0  0  0  0  0  0  0
  152.9644  141.5270  160.6824 H   0  0  0  0  0  0  0  0  0  0  0  0
  1  2  2  0  0  0  0
  2  3  1  0  0  0  0
  2  4  1  0  0  0  0
  4  9  1  0  0  0  0
  4  5  1  0  0  0  0
  4 16  1  0  0  0  0
  5  6  1  0  0  0  0
  5 17  1  0  0  0  0
  5 18  1  0  0  0  0
  6  7  1  0  0  0  0
  6  8  1  0  0  0  0
  6 19  1  0  0  0  0
  7 20  1  0  0  0  0
  8  9  1  0  0  0  0
  8 21  1  0  0  0  0
  8 22  1  0  0  0  0
  9 10  1  0  0  0  0
 10 15  1  0  0  0  0
 10 11  2  0  0  0  0
 11 12  1  0  0  0  0
 11 23  1  0  0  0  0
 12 13  2  0  0  0  0
 12 24  1  0  0  0  0
 13 14  1  0  0  0  0
 13 26  1  0  0  0  0
 14 15  2  0  0  0  0
 14 25  1  0  0  0  0
M  CHG  1   3  -1
M  CHG  1  13   1
M  END
> <s_m_source_file>
AV-unprocessed.smi

> <i_m_source_file_index>
51

> <i_lp_mmshare_version>
43012

> <i_f3d_flags>
0

> <s_epik_input>
Tz1DKFtPSF0pW0NAQEhdMVtDSDJdW0NAQEhdKFtPSF0pW0NIMl1OMWMyW2NIXVtjSF1uW2NIXW4y

> <s_epik_cmdline>
J2VwaWtfcHl0aG9uJywgJy1waCcsICc3LjAnLCAnLXRuJywgJzgnLCAnLW1hJywgJzIwMCcsICctbWV0YWxfYmluZGluZycsICctaW1hZScsICc8aW5maWxlLm1hZT4nLCAnLW9tYWUnLCAnPG91dGZpbGUubWFlPic=

> <r_lp_tautomer_probability>
0.999336

> <r_epik_Ionization_Penalty>
0.688427

> <r_epik_Ionization_Penalty_Charging>
0.688427

> <r_epik_Ionization_Penalty_Neutral>
1.98379e-07

> <r_epik_State_Penalty>
0.709817

> <r_epik_Charging_Adjusted_Penalty>
1.39824

> <i_epik_Tot_Q>
0

> <i_epik_Tot_abs_Q>
2

> <r_epik_Metal_State_Penalty>
0.873261

> <b_epik_Metal_Only>
0

> <s_lp_Force_Field>
OPLS_2005

> <r_lp_Energy>
15.0263

> <b_lp_Chiralities_Consistent>
1

> <s_lp_Variant>
AV-unprocessed.smi:51-7

> <Gold.Version>
5.8.1

> <Gold.Id.Protein>
6NUR|6NUR_protein|mol2

> <Gold.PLP.Fitness>
44.7660

> <Gold.PLP.PLP>
-29.0582

> <Gold.PLP.part.hbond>
-4.0000

> <Gold.PLP.part.metal>
0.0000

> <Gold.PLP.part.buried>
-3.6801

> <Gold.PLP.part.nonpolar>
-21.4236

> <Gold.PLP.part.repulsive>
0.2155

> <Gold.PLP.ligand.clash>
0.0000

> <Gold.PLP.ligand.torsion>
0.0282

> <Gold.PLP.Chemscore.Hbond>
5.2400

> <Gold.PLP.Chemscore.CHOScore>
0.0000

> <Gold.PLP.Chemscore.Metal>
0.0000

> <Gold.Chemscore.Hbonds>
donor molecule, donor type, donor heavy atom, donor atom, acceptor molecule, acceptor atom, score
      L1  H     7    20       P1  7957  0.66
      P1  H  7997  8008       L1     1  2.00
      P1  H  8011  8017       L1     7  1.00
      P1  H 10752 10765       L1     3  1.60

> <Gold.PLP.Chemscore.Internal.Correction>
0.0442

> <Gold.Rescore>
     Score         DG    S(hbond)    S(metal)    S(lipo)     H(rot)  DE(clash)    DE(int)     intcor
     15.36     -16.71       3.05        0.00      46.01       1.70       0.14       1.21       ----

> <Gold.Chemscore.Fitness>
15.3557

> <Gold.Chemscore.DG>
-16.7062

> <Gold.Chemscore.ZeroCoef>
-5.4800

> <Gold.Chemscore.Hbond>
3.0540

> <Gold.Chemscore.Metal>
0.0000

> <Gold.Chemscore.Lipo>
46.0086

> <Gold.Chemscore.Internal_Hbond>
0.0000

> <Gold.Chemscore.DEClash>
0.1438

> <Gold.Chemscore.DEInternal>
1.2067

> <Gold.Chemscore.Rot>
1.7020

> <Gold.Chemscore.Internal.Correction>
   9.000000E+99

> <Gold.Chemscore.Hbonds>
donor molecule, donor type, donor heavy atom, donor atom, acceptor molecule, acceptor atom, score
      L1  H     7    20       P1  7957  0.66
      P1  H  7997  8008       L1     1  0.95
      P1  H  8011  8017       L1     7  0.24
      P1  H 10752 10765       L1     3  0.80

> <Gold.Chemscore.Hbond.Weighted>
-10.2003

> <Gold.Chemscore.Metal.Weighted>
-0.0000

> <Gold.Chemscore.Lipo.Weighted>
-5.3830

> <Gold.Chemscore.Internal_Hbond.Weighted>
0.0000

> <Gold.Chemscore.DEClash.Weighted>
0.1438

> <Gold.Chemscore.DEInternal.Weighted>
1.2067

> <Gold.Chemscore.Rot.Weighted>
4.3571

> <Gold.Chemscore.Internal.Correction.Weighted>
   9.000000E+99

> <Gold.Protein.RotatedTorsions>
[ 6907 6896 6895 6894 ] final   60.51 input  -60.11 | X-H torsion
[ 7974 7965 7964 7962 ] final   99.96 input  175.53 | X-H torsion
[ 8008 7997 7996 7995 ] final   -9.99 input   59.86 | X-H torsion
[ 10167 10162 10161 10158 ] final   73.86 input  -65.29 | X-H torsion
[ 10718 10713 10712 10709 ] final   93.48 input   66.30 | X-H torsion
[ 10763 10752 10751 10750 ] final  165.38 input  -60.55 | X-H torsion
[ 11005 11000 10999 10996 ] final -108.72 input  -57.11 | X-H torsion

> <Gold.Protein.ActiveResidues>
 VAL166  LYS551  ARG553  GLY616  TRP617  ASP618  TYR619  PRO620  LYS621  CYS622 
 ASP623  PHE694  ASN695  SER759  ASP760  ASP761  ALA762  ILE779  LEU786  VAL792 
 PHE793  MET794  SER795  GLU796  ALA797  LYS798  CYS799  TRP800  GLU811  SER814 

> <Gold.Protein.RotatedAtoms>
  152.4009  134.6287  160.0069 H   0  0  0  0  0  0  0  0  0  0  0  0  # atno 6907 bound_to 6896
  151.6493  133.3316  159.3156 H   0  0  0  0  0  0  0  0  0  0  0  0  # atno 6908 bound_to 6896
  150.7910  134.6976  159.6576 H   0  0  0  0  0  0  0  0  0  0  0  0  # atno 6909 bound_to 6896
  145.3920  139.2361  143.3347 H   0  0  0  0  0  0  0  0  0  0  0  0  # atno 7974 bound_to 7965
  154.5595  140.2340  155.8357 H   0  0  0  0  0  0  0  0  0  0  0  0  # atno 8008 bound_to 7997
  156.2017  140.3050  155.9500 H   0  0  0  0  0  0  0  0  0  0  0  0  # atno 8009 bound_to 7997
  155.2916  140.0427  157.3014 H   0  0  0  0  0  0  0  0  0  0  0  0  # atno 8010 bound_to 7997
  140.0199  144.5548  150.7590 H   0  0  0  0  0  0  0  0  0  0  0  0  # atno 10167 bound_to 10162
  157.6954  131.0479  150.4040 H   0  0  0  0  0  0  0  0  0  0  0  0  # atno 10718 bound_to 10713
  154.3231  135.2755  155.2509 H   0  0  0  0  0  0  0  0  0  0  0  0  # atno 10763 bound_to 10752
  154.4854  135.5847  153.6423 H   0  0  0  0  0  0  0  0  0  0  0  0  # atno 10764 bound_to 10752
  152.9874  135.6121  154.3417 H   0  0  0  0  0  0  0  0  0  0  0  0  # atno 10765 bound_to 10752
  141.0886  133.9095  157.2128 H   0  0  0  0  0  0  0  0  0  0  0  0  # atno 11005 bound_to 11000
  146.2793  140.4604  142.8783 LP  0  0  0  0  0  0  0  0  0  0  0  0  # atno 17320 bound_to 7965
  144.8434  140.6891  143.6215 LP  0  0  0  0  0  0  0  0  0  0  0  0  # atno 17321 bound_to 7965
  140.7346  143.2731  151.3825 LP  0  0  0  0  0  0  0  0  0  0  0  0  # atno 17342 bound_to 10162
  139.6147  144.1028  152.2333 LP  0  0  0  0  0  0  0  0  0  0  0  0  # atno 17343 bound_to 10162
  156.4431  130.3995  149.6684 LP  0  0  0  0  0  0  0  0  0  0  0  0  # atno 17370 bound_to 10713
  156.3861  130.7603  151.2600 LP  0  0  0  0  0  0  0  0  0  0  0  0  # atno 17371 bound_to 10713
  139.9708  135.0129  156.9507 LP  0  0  0  0  0  0  0  0  0  0  0  0  # atno 17394 bound_to 11000
  140.5305  134.0818  155.7314 LP  0  0  0  0  0  0  0  0  0  0  0  0  # atno 17395 bound_to 11000

$$$$
