AV-unprocessed.smi:2640|AV-procd|sdf|10270|dock10
  -GOLD-   2272014283D 1   1.00000     0.00000
 Structure written by MMmdl.
 41 42  0  0  0  0  0  0  0  0  1 V2000
  144.4304  137.0358  152.8453 O   0  0  0  0  0  0  0  0  0  0  0  0
  145.5869  137.0588  152.4254 C   0  0  0  0  0  0  0  0  0  0  0  0
  146.3993  138.3497  152.4934 C   0  0  0  0  0  0  0  0  0  0  0  0
  147.5175  138.2295  153.4324 N   0  0  0  0  0  0  0  0  0  0  0  0
  148.2452  139.4865  153.5301 C   0  0  0  0  0  0  0  0  0  0  0  0
  149.0351  139.5481  154.8484 C   0  0  0  0  0  0  0  0  0  0  0  0
  150.3861  139.0341  154.7064 N   0  0  0  0  0  0  0  0  0  0  0  0
  150.7852  137.7762  154.3062 C   0  0  0  0  0  0  0  0  0  0  0  0
  152.1501  137.7551  154.3335 C   0  0  0  0  0  0  0  0  0  0  0  0
  152.4997  139.0648  154.7666 C   0  0  0  0  0  0  0  0  0  0  0  0
  151.4418  139.8278  154.9888 N   0  0  0  0  0  0  0  0  0  0  0  0
  146.2047  135.9908  151.8946 N   0  0  0  0  0  0  0  0  0  0  0  0
  145.6053  134.6678  151.7076 C   0  0  2  0  0  0  0  0  0  0  0  0
  146.6900  133.7450  151.1064 C   0  0  0  0  0  0  0  0  0  0  0  0
  146.4270  132.2470  151.3386 C   0  0  0  0  0  0  0  0  0  0  0  0
  145.1780  131.6920  150.6372 C   0  0  0  0  0  0  0  0  0  0  0  0
  143.8635  132.3303  151.1174 C   0  0  0  0  0  0  0  0  0  0  0  0
  143.6527  133.6520  150.5413 N   0  0  0  0  0  0  0  0  0  0  0  0
  144.4060  134.7456  150.7335 C   0  0  0  0  0  0  0  0  0  0  0  0
  144.1449  135.7912  150.1384 O   0  0  0  0  0  0  0  0  0  0  0  0
  146.7764  138.5911  151.4982 H   0  0  0  0  0  0  0  0  0  0  0  0
  145.7422  139.1657  152.7985 H   0  0  0  0  0  0  0  0  0  0  0  0
  148.1568  137.4991  153.1507 H   0  0  0  0  0  0  0  0  0  0  0  0
  148.9238  139.5983  152.6828 H   0  0  0  0  0  0  0  0  0  0  0  0
  147.5379  140.3157  153.4891 H   0  0  0  0  0  0  0  0  0  0  0  0
  149.1049  140.5826  155.1862 H   0  0  0  0  0  0  0  0  0  0  0  0
  148.5175  138.9990  155.6368 H   0  0  0  0  0  0  0  0  0  0  0  0
  150.0720  137.0092  154.0419 H   0  0  0  0  0  0  0  0  0  0  0  0
  152.8001  136.9300  154.0829 H   0  0  0  0  0  0  0  0  0  0  0  0
  153.4836  139.4809  154.9252 H   0  0  0  0  0  0  0  0  0  0  0  0
  147.1508  136.1118  151.5640 H   0  0  0  0  0  0  0  0  0  0  0  0
  145.2782  134.2824  152.6750 H   0  0  0  0  0  0  0  0  0  0  0  0
  146.8284  133.9440  150.0421 H   0  0  0  0  0  0  0  0  0  0  0  0
  147.6498  133.9750  151.5724 H   0  0  0  0  0  0  0  0  0  0  0  0
  147.2951  131.6849  150.9935 H   0  0  0  0  0  0  0  0  0  0  0  0
  146.3570  132.0540  152.4100 H   0  0  0  0  0  0  0  0  0  0  0  0
  145.2751  131.7975  149.5557 H   0  0  0  0  0  0  0  0  0  0  0  0
  145.1313  130.6196  150.8290 H   0  0  0  0  0  0  0  0  0  0  0  0
  143.0270  131.7067  150.8017 H   0  0  0  0  0  0  0  0  0  0  0  0
  143.8186  132.3748  152.2066 H   0  0  0  0  0  0  0  0  0  0  0  0
  142.8713  133.7412  149.9079 H   0  0  0  0  0  0  0  0  0  0  0  0
  1  2  2  0  0  0  0
  2  3  1  0  0  0  0
  2 12  1  0  0  0  0
  3  4  1  0  0  0  0
  3 21  1  0  0  0  0
  3 22  1  0  0  0  0
  4  5  1  0  0  0  0
  4 23  1  0  0  0  0
  5  6  1  0  0  0  0
  5 24  1  0  0  0  0
  5 25  1  0  0  0  0
  6  7  1  0  0  0  0
  6 26  1  0  0  0  0
  6 27  1  0  0  0  0
  7 11  1  0  0  0  0
  7  8  1  0  0  0  0
  8  9  2  0  0  0  0
  8 28  1  0  0  0  0
  9 10  1  0  0  0  0
  9 29  1  0  0  0  0
 10 11  2  0  0  0  0
 10 30  1  0  0  0  0
 12 13  1  0  0  0  0
 12 31  1  0  0  0  0
 13 19  1  0  0  0  0
 13 14  1  0  0  0  0
 13 32  1  0  0  0  0
 14 15  1  0  0  0  0
 14 33  1  0  0  0  0
 14 34  1  0  0  0  0
 15 16  1  0  0  0  0
 15 35  1  0  0  0  0
 15 36  1  0  0  0  0
 16 17  1  0  0  0  0
 16 37  1  0  0  0  0
 16 38  1  0  0  0  0
 17 18  1  0  0  0  0
 17 39  1  0  0  0  0
 17 40  1  0  0  0  0
 18 19  1  0  0  0  0
 18 41  1  0  0  0  0
 19 20  2  0  0  0  0
M  END
> <s_m_source_file>
AV-unprocessed.smi

> <i_m_source_file_index>
2640

> <i_lp_mmshare_version>
43012

> <i_f3d_flags>
0

> <s_epik_input>
Tz1DMVtOSF1bQ0gyXVtDSDJdW0NIMl1bQ0gyXVtDQEhdMVtOSF1DKD1PKVtDSDJdW05IXVtDSDJdW0NIMl1uMltjSF1bY0hdW2NIXW4y

> <s_epik_cmdline>
J2VwaWtfcHl0aG9uJywgJy1waCcsICc3LjAnLCAnLXRuJywgJzgnLCAnLW1hJywgJzIwMCcsICctbWV0YWxfYmluZGluZycsICctaW1hZScsICc8aW5maWxlLm1hZT4nLCAnLW9tYWUnLCAnPG91dGZpbGUubWFlPic=

> <r_lp_tautomer_probability>
1

> <r_epik_Ionization_Penalty>
0.641667

> <r_epik_Ionization_Penalty_Charging>
0

> <r_epik_Ionization_Penalty_Neutral>
0.641667

> <r_epik_State_Penalty>
0.657743

> <r_epik_Charging_Adjusted_Penalty>
0.657743

> <i_epik_Tot_Q>
0

> <i_epik_Tot_abs_Q>
0

> <r_epik_Metal_State_Penalty>
0.656014

> <b_epik_Metal_Only>
0

> <s_lp_Force_Field>
OPLS_2005

> <r_lp_Energy>
11.9791

> <b_lp_Chiralities_Consistent>
1

> <s_lp_Variant>
AV-unprocessed.smi:2640-3

> <Gold.Version>
5.8.1

> <Gold.Id.Protein>
6NUR|6NUR_protein|mol2

> <Gold.PLP.Fitness>
50.0145

> <Gold.PLP.PLP>
-36.2117

> <Gold.PLP.part.hbond>
-4.0000

> <Gold.PLP.part.metal>
0.0000

> <Gold.PLP.part.buried>
-0.9081

> <Gold.PLP.part.nonpolar>
-35.1647

> <Gold.PLP.part.repulsive>
2.4797

> <Gold.PLP.ligand.clash>
0.0000

> <Gold.PLP.ligand.torsion>
0.3657

> <Gold.PLP.Chemscore.Hbond>
3.8480

> <Gold.PLP.Chemscore.CHOScore>
0.9914

> <Gold.PLP.Chemscore.Metal>
0.0000

> <Gold.Chemscore.Hbonds>
donor molecule, donor type, donor heavy atom, donor atom, acceptor molecule, acceptor atom, score
      L1  H     4    23       P1  7948  1.00
      L1  H    12    31       P1  7948  1.00
      L1  H    18    41       P1 10186  0.98
      P1  H  7989  7998       L1    11  0.80
      L1  C     8    28       P1  7948  0.99

> <Gold.PLP.Chemscore.Internal.Correction>
0.0160

> <Gold.Rescore>
     Score         DG    S(hbond)    S(metal)    S(lipo)     H(rot)  DE(clash)    DE(int)     intcor
     17.04     -19.89       3.37        0.00      78.97       2.37       1.74       1.11       ----

> <Gold.Chemscore.Fitness>
17.0421

> <Gold.Chemscore.DG>
-19.8910

> <Gold.Chemscore.ZeroCoef>
-5.4800

> <Gold.Chemscore.Hbond>
3.3675

> <Gold.Chemscore.Metal>
0.0000

> <Gold.Chemscore.Lipo>
78.9652

> <Gold.Chemscore.Internal_Hbond>
0.0000

> <Gold.Chemscore.DEClash>
1.7427

> <Gold.Chemscore.DEInternal>
1.1062

> <Gold.Chemscore.Rot>
2.3732

> <Gold.Chemscore.Internal.Correction>
   9.000000E+99

> <Gold.Chemscore.Hbonds>
donor molecule, donor type, donor heavy atom, donor atom, acceptor molecule, acceptor atom, score
      L1  H     4    23       P1  7948  0.96
      L1  H    12    31       P1  7948  0.97
      L1  H    18    41       P1 10186  0.88
      P1  H  7989  7998       L1    11  0.06

> <Gold.Chemscore.Hbond.Weighted>
-11.2474

> <Gold.Chemscore.Metal.Weighted>
-0.0000

> <Gold.Chemscore.Lipo.Weighted>
-9.2389

> <Gold.Chemscore.Internal_Hbond.Weighted>
0.0000

> <Gold.Chemscore.DEClash.Weighted>
1.7427

> <Gold.Chemscore.DEInternal.Weighted>
1.1062

> <Gold.Chemscore.Rot.Weighted>
6.0753

> <Gold.Chemscore.Internal.Correction.Weighted>
   9.000000E+99

> <Gold.Protein.RotatedTorsions>
[ 6907 6896 6895 6894 ] final   96.16 input  -60.11 | X-H torsion
[ 7974 7965 7964 7962 ] final   71.94 input  175.53 | X-H torsion
[ 8008 7997 7996 7995 ] final  151.29 input   59.86 | X-H torsion
[ 10167 10162 10161 10158 ] final  141.37 input  -65.29 | X-H torsion
[ 10718 10713 10712 10709 ] final  -13.14 input   66.30 | X-H torsion
[ 10763 10752 10751 10750 ] final  124.64 input  -60.55 | X-H torsion
[ 11005 11000 10999 10996 ] final  -80.49 input  -57.11 | X-H torsion

> <Gold.Protein.ActiveResidues>
 VAL166  LYS551  ARG553  GLY616  TRP617  ASP618  TYR619  PRO620  LYS621  CYS622 
 ASP623  PHE694  ASN695  SER759  ASP760  ASP761  ALA762  ILE779  LEU786  VAL792 
 PHE793  MET794  SER795  GLU796  ALA797  LYS798  CYS799  TRP800  GLU811  SER814 

> <Gold.Protein.RotatedAtoms>
  152.5437  134.0929  159.8284 H   0  0  0  0  0  0  0  0  0  0  0  0  # atno 6907 bound_to 6896
  151.1016  133.5232  159.2617 H   0  0  0  0  0  0  0  0  0  0  0  0  # atno 6908 bound_to 6896
  151.1984  135.0441  159.8916 H   0  0  0  0  0  0  0  0  0  0  0  0  # atno 6909 bound_to 6896
  145.7596  139.2795  143.1384 H   0  0  0  0  0  0  0  0  0  0  0  0  # atno 7974 bound_to 7965
  156.2680  140.2052  156.6151 H   0  0  0  0  0  0  0  0  0  0  0  0  # atno 8008 bound_to 7997
  154.6800  140.0541  157.0280 H   0  0  0  0  0  0  0  0  0  0  0  0  # atno 8009 bound_to 7997
  155.1013  140.3206  155.4549 H   0  0  0  0  0  0  0  0  0  0  0  0  # atno 8010 bound_to 7997
  139.5022  144.6176  151.6128 H   0  0  0  0  0  0  0  0  0  0  0  0  # atno 10167 bound_to 10162
  156.6345  130.4910  149.6117 H   0  0  0  0  0  0  0  0  0  0  0  0  # atno 10718 bound_to 10713
  153.6646  135.3340  155.3136 H   0  0  0  0  0  0  0  0  0  0  0  0  # atno 10763 bound_to 10752
  154.8506  135.4371  154.1769 H   0  0  0  0  0  0  0  0  0  0  0  0  # atno 10764 bound_to 10752
  153.2744  135.7003  153.7523 H   0  0  0  0  0  0  0  0  0  0  0  0  # atno 10765 bound_to 10752
  141.1668  133.7152  156.8280 H   0  0  0  0  0  0  0  0  0  0  0  0  # atno 11005 bound_to 11000
  146.0277  140.8288  142.9891 LP  0  0  0  0  0  0  0  0  0  0  0  0  # atno 17320 bound_to 7965
  144.6833  140.2722  143.7304 LP  0  0  0  0  0  0  0  0  0  0  0  0  # atno 17321 bound_to 7965
  140.5868  143.9850  150.6300 LP  0  0  0  0  0  0  0  0  0  0  0  0  # atno 17342 bound_to 10162
  140.3017  143.3256  152.0965 LP  0  0  0  0  0  0  0  0  0  0  0  0  # atno 17343 bound_to 10162
  156.2208  130.6736  151.1366 LP  0  0  0  0  0  0  0  0  0  0  0  0  # atno 17370 bound_to 10713
  157.7190  131.0693  150.6213 LP  0  0  0  0  0  0  0  0  0  0  0  0  # atno 17371 bound_to 10713
  140.2071  134.8854  157.3234 LP  0  0  0  0  0  0  0  0  0  0  0  0  # atno 17394 bound_to 11000
  140.2125  134.4121  155.7605 LP  0  0  0  0  0  0  0  0  0  0  0  0  # atno 17395 bound_to 11000

$$$$
