AV-unprocessed.smi:1258|AV-procd|sdf|5287|dock7
  -GOLD-   22720 4403D 1   1.00000     0.00000
 Structure written by MMmdl.
 33 34  0  0  0  0  0  0  0  0  1 V2000
  151.8497  145.8671  160.1056 C   0  0  0  0  0  0  0  0  0  0  0  0
  151.9583  144.3364  160.1483 C   0  0  2  0  0  0  0  0  0  0  0  0
  152.4459  143.8445  161.5247 C   0  0  0  0  0  0  0  0  0  0  0  0
  152.5642  142.3126  161.5716 C   0  0  0  0  0  0  0  0  0  0  0  0
  153.4712  141.7835  160.4459 C   0  0  0  0  0  0  0  0  0  0  0  0
  153.0102  142.2645  159.0567 C   0  0  1  0  0  0  0  0  0  0  0  0
  151.7465  141.6229  158.7047 N   0  0  0  0  0  0  0  0  0  0  0  0
  151.5744  140.6921  157.7530 C   0  0  0  0  0  0  0  0  0  0  0  0
  152.5021  140.1904  157.1194 O   0  0  0  0  0  0  0  0  0  0  0  0
  150.1318  140.2707  157.4622 C   0  0  0  0  0  0  0  0  0  0  0  0
  149.7851  140.4942  156.0690 N   0  0  0  0  0  0  0  0  0  0  0  0
  149.8417  141.5962  155.3182 C   0  0  0  0  0  0  0  0  0  0  0  0
  149.4583  141.3603  154.0731 N   0  0  0  0  0  0  0  0  0  0  0  0
  149.1471  140.0110  154.0903 N   0  0  0  0  0  0  0  0  0  0  0  0
  149.3380  139.4917  155.2720 N   0  0  0  0  0  0  0  0  0  0  0  0
  152.8804  143.8042  159.0306 C   0  0  0  0  0  0  0  0  0  0  0  0
  152.8198  146.3393  160.2645 H   0  0  0  0  0  0  0  0  0  0  0  0
  151.1708  146.2337  160.8761 H   0  0  0  0  0  0  0  0  0  0  0  0
  151.4678  146.2065  159.1423 H   0  0  0  0  0  0  0  0  0  0  0  0
  150.9558  143.9383  159.9834 H   0  0  0  0  0  0  0  0  0  0  0  0
  153.4158  144.2892  161.7521 H   0  0  0  0  0  0  0  0  0  0  0  0
  151.7625  144.1810  162.3051 H   0  0  0  0  0  0  0  0  0  0  0  0
  152.9586  142.0023  162.5394 H   0  0  0  0  0  0  0  0  0  0  0  0
  151.5720  141.8670  161.4891 H   0  0  0  0  0  0  0  0  0  0  0  0
  154.4922  142.1248  160.6217 H   0  0  0  0  0  0  0  0  0  0  0  0
  153.5069  140.6938  160.4759 H   0  0  0  0  0  0  0  0  0  0  0  0
  153.7611  141.9603  158.3254 H   0  0  0  0  0  0  0  0  0  0  0  0
  150.9247  141.9656  159.1803 H   0  0  0  0  0  0  0  0  0  0  0  0
  149.9909  139.2150  157.6989 H   0  0  0  0  0  0  0  0  0  0  0  0
  149.4493  140.8401  158.0938 H   0  0  0  0  0  0  0  0  0  0  0  0
  150.1713  142.5595  155.6785 H   0  0  0  0  0  0  0  0  0  0  0  0
  152.5174  144.1360  158.0570 H   0  0  0  0  0  0  0  0  0  0  0  0
  153.8722  144.2442  159.1436 H   0  0  0  0  0  0  0  0  0  0  0  0
  1  2  1  0  0  0  0
  1 17  1  0  0  0  0
  1 18  1  0  0  0  0
  1 19  1  0  0  0  0
  2 16  1  0  0  0  0
  2  3  1  0  0  0  0
  2 20  1  0  0  0  0
  3  4  1  0  0  0  0
  3 21  1  0  0  0  0
  3 22  1  0  0  0  0
  4  5  1  0  0  0  0
  4 23  1  0  0  0  0
  4 24  1  0  0  0  0
  5  6  1  0  0  0  0
  5 25  1  0  0  0  0
  5 26  1  0  0  0  0
  6  7  1  0  0  0  0
  6 16  1  0  0  0  0
  6 27  1  0  0  0  0
  7  8  1  0  0  0  0
  7 28  1  0  0  0  0
  8  9  2  0  0  0  0
  8 10  1  0  0  0  0
 10 11  1  0  0  0  0
 10 29  1  0  0  0  0
 10 30  1  0  0  0  0
 11 15  1  0  0  0  0
 11 12  1  0  0  0  0
 12 13  2  0  0  0  0
 12 31  1  0  0  0  0
 13 14  1  0  0  0  0
 14 15  2  0  0  0  0
 16 32  1  0  0  0  0
 16 33  1  0  0  0  0
M  END
> <s_m_source_file>
AV-unprocessed.smi

> <i_m_source_file_index>
1258

> <i_lp_mmshare_version>
43012

> <i_f3d_flags>
0

> <s_epik_input>
W0NIM11bQ0BASF0xW0NIMl1bQ0gyXVtDSDJdW0NASF0oW0NIMl0xKVtOSF1DKD1PKVtDSDJdbjJbY0hdbm5uMg==

> <s_epik_cmdline>
J2VwaWtfcHl0aG9uJywgJy1waCcsICc3LjAnLCAnLXRuJywgJzgnLCAnLW1hJywgJzIwMCcsICctbWV0YWxfYmluZGluZycsICctaW1hZScsICc8aW5maWxlLm1hZT4nLCAnLW9tYWUnLCAnPG91dGZpbGUubWFlPic=

> <r_lp_tautomer_probability>
1

> <r_epik_Ionization_Penalty>
5.03816e-07

> <r_epik_Ionization_Penalty_Charging>
0

> <r_epik_Ionization_Penalty_Neutral>
5.03816e-07

> <r_epik_State_Penalty>
-0

> <r_epik_Charging_Adjusted_Penalty>
0

> <i_epik_Tot_Q>
0

> <i_epik_Tot_abs_Q>
0

> <r_epik_Metal_State_Penalty>
-0

> <b_epik_Metal_Only>
0

> <s_lp_Force_Field>
OPLS_2005

> <r_lp_Energy>
9.71314

> <b_lp_Chiralities_Consistent>
1

> <s_lp_Variant>
AV-unprocessed.smi:1258-1

> <Gold.Version>
5.8.1

> <Gold.Id.Protein>
6NUR|6NUR_protein|mol2

> <Gold.PLP.Fitness>
44.9849

> <Gold.PLP.PLP>
-37.1913

> <Gold.PLP.part.hbond>
-3.0000

> <Gold.PLP.part.metal>
0.0000

> <Gold.PLP.part.buried>
-3.1403

> <Gold.PLP.part.nonpolar>
-29.7614

> <Gold.PLP.part.repulsive>
1.4384

> <Gold.PLP.ligand.clash>
0.0000

> <Gold.PLP.ligand.torsion>
0.0914

> <Gold.PLP.Chemscore.Hbond>
1.7024

> <Gold.PLP.Chemscore.CHOScore>
0.9541

> <Gold.PLP.Chemscore.Metal>
0.0000

> <Gold.Chemscore.Hbonds>
donor molecule, donor type, donor heavy atom, donor atom, acceptor molecule, acceptor atom, score
      P1  H  7989  7998       L1    13  0.04
      P1  H  7997  8010       L1     9  1.00
      P1  H  8011  8017       L1    13  0.67
      L1  C    12    31       P1  8028  0.95

> <Gold.PLP.Chemscore.Internal.Correction>
0.0070

> <Gold.Rescore>
     Score         DG    S(hbond)    S(metal)    S(lipo)     H(rot)  DE(clash)    DE(int)     intcor
     15.44     -15.70       1.54        0.00      85.24       1.92       0.11       0.16       ----

> <Gold.Chemscore.Fitness>
15.4402

> <Gold.Chemscore.DG>
-15.7047

> <Gold.Chemscore.ZeroCoef>
-5.4800

> <Gold.Chemscore.Hbond>
1.5445

> <Gold.Chemscore.Metal>
0.0000

> <Gold.Chemscore.Lipo>
85.2412

> <Gold.Chemscore.Internal_Hbond>
0.0000

> <Gold.Chemscore.DEClash>
0.1058

> <Gold.Chemscore.DEInternal>
0.1586

> <Gold.Chemscore.Rot>
1.9169

> <Gold.Chemscore.Internal.Correction>
   9.000000E+99

> <Gold.Chemscore.Hbonds>
donor molecule, donor type, donor heavy atom, donor atom, acceptor molecule, acceptor atom, score
      P1  H  7997  8010       L1     9  0.96
      P1  H  8011  8017       L1    13  0.63

> <Gold.Chemscore.Hbond.Weighted>
-5.1587

> <Gold.Chemscore.Metal.Weighted>
-0.0000

> <Gold.Chemscore.Lipo.Weighted>
-9.9732

> <Gold.Chemscore.Internal_Hbond.Weighted>
0.0000

> <Gold.Chemscore.DEClash.Weighted>
0.1058

> <Gold.Chemscore.DEInternal.Weighted>
0.1586

> <Gold.Chemscore.Rot.Weighted>
4.9073

> <Gold.Chemscore.Internal.Correction.Weighted>
   9.000000E+99

> <Gold.Protein.RotatedTorsions>
[ 6907 6896 6895 6894 ] final  -58.39 input  -60.11 | X-H torsion
[ 7974 7965 7964 7962 ] final  -56.03 input  175.53 | X-H torsion
[ 8008 7997 7996 7995 ] final   62.69 input   59.86 | X-H torsion
[ 10167 10162 10161 10158 ] final -172.86 input  -65.29 | X-H torsion
[ 10718 10713 10712 10709 ] final  169.69 input   66.30 | X-H torsion
[ 10763 10752 10751 10750 ] final -150.94 input  -60.55 | X-H torsion
[ 11005 11000 10999 10996 ] final  110.65 input  -57.11 | X-H torsion

> <Gold.Protein.ActiveResidues>
 VAL166  LYS551  ARG553  GLY616  TRP617  ASP618  TYR619  PRO620  LYS621  CYS622 
 ASP623  PHE694  ASN695  SER759  ASP760  ASP761  ALA762  ILE779  LEU786  VAL792 
 PHE793  MET794  SER795  GLU796  ALA797  LYS798  CYS799  TRP800  GLU811  SER814 

> <Gold.Protein.RotatedAtoms>
  150.8011  134.7105  159.6600 H   0  0  0  0  0  0  0  0  0  0  0  0  # atno 6907 bound_to 6896
  152.4127  134.6092  160.0031 H   0  0  0  0  0  0  0  0  0  0  0  0  # atno 6908 bound_to 6896
  151.6330  133.3294  159.3149 H   0  0  0  0  0  0  0  0  0  0  0  0  # atno 6909 bound_to 6896
  145.8674  140.8241  142.9906 H   0  0  0  0  0  0  0  0  0  0  0  0  # atno 7974 bound_to 7965
  155.6183  140.3495  155.4644 H   0  0  0  0  0  0  0  0  0  0  0  0  # atno 8008 bound_to 7997
  156.0099  140.1231  157.0488 H   0  0  0  0  0  0  0  0  0  0  0  0  # atno 8009 bound_to 7997
  154.4277  140.1083  156.5801 H   0  0  0  0  0  0  0  0  0  0  0  0  # atno 8010 bound_to 7997
  139.5721  144.1618  152.1398 H   0  0  0  0  0  0  0  0  0  0  0  0  # atno 10167 bound_to 10162
  157.0190  131.0226  151.2780 H   0  0  0  0  0  0  0  0  0  0  0  0  # atno 10718 bound_to 10713
  154.8088  135.3272  154.7360 H   0  0  0  0  0  0  0  0  0  0  0  0  # atno 10763 bound_to 10752
  153.8013  135.6903  153.4859 H   0  0  0  0  0  0  0  0  0  0  0  0  # atno 10764 bound_to 10752
  153.1852  135.4571  155.0025 H   0  0  0  0  0  0  0  0  0  0  0  0  # atno 10765 bound_to 10752
  139.8886  134.9489  156.6311 H   0  0  0  0  0  0  0  0  0  0  0  0  # atno 11005 bound_to 11000
  144.6726  140.1187  143.7451 LP  0  0  0  0  0  0  0  0  0  0  0  0  # atno 17320 bound_to 7965
  145.9177  139.2526  143.1400 LP  0  0  0  0  0  0  0  0  0  0  0  0  # atno 17321 bound_to 7965
  140.1153  144.5421  150.6898 LP  0  0  0  0  0  0  0  0  0  0  0  0  # atno 17342 bound_to 10162
  140.7005  143.2431  151.4879 LP  0  0  0  0  0  0  0  0  0  0  0  0  # atno 17343 bound_to 10162
  157.5263  130.8030  149.7866 LP  0  0  0  0  0  0  0  0  0  0  0  0  # atno 17370 bound_to 10713
  156.0109  130.3834  150.2269 LP  0  0  0  0  0  0  0  0  0  0  0  0  # atno 17371 bound_to 10713
  140.7665  133.8773  155.8459 LP  0  0  0  0  0  0  0  0  0  0  0  0  # atno 17394 bound_to 11000
  140.9878  134.1320  157.4436 LP  0  0  0  0  0  0  0  0  0  0  0  0  # atno 17395 bound_to 11000

$$$$
