AV-unprocessed.smi:1645|AV-procd|sdf|6617|dock3
  -GOLD-   22720 7313D 1   1.00000     0.00000
 Structure written by MMmdl.
 55 58  0  0  0  0  0  0  0  0  4 V2000
  148.5758  137.3431  156.1128 O   0  0  0  0  0  0  0  0  0  0  0  0
  148.2113  137.8506  155.0462 C   0  0  0  0  0  0  0  0  0  0  0  0
  148.5424  139.1197  154.7490 N   0  0  0  0  0  0  0  0  0  0  0  0
  149.2889  140.0468  155.5236 C   0  0  0  0  0  0  0  0  0  0  0  0
  150.2466  139.5366  156.4258 C   0  0  0  0  0  0  0  0  0  0  0  0
  151.0136  140.4255  157.2066 C   0  0  0  0  0  0  0  0  0  0  0  0
  150.8180  141.8180  157.0616 C   0  0  0  0  0  0  0  0  0  0  0  0
  151.5204  142.7767  157.8025 N   0  0  0  0  0  0  0  0  0  0  0  0
  150.6541  143.8103  158.3627 C   0  0  0  0  0  0  0  0  0  0  0  0
  151.4892  144.9432  158.9834 C   0  0  0  0  0  0  0  0  0  0  0  0
  152.4813  144.3883  160.0183 C   0  0  0  0  0  0  0  0  0  0  0  0
  153.3425  143.2796  159.3905 C   0  0  0  0  0  0  0  0  0  0  0  0
  152.4611  142.1906  158.7535 C   0  0  0  0  0  0  0  0  0  0  0  0
  149.9099  142.2685  156.1691 N   0  3  0  0  0  0  0  0  0  0  0  0
  149.1544  141.4510  155.4044 C   0  0  0  0  0  0  0  0  0  0  0  0
  147.4884  137.2649  154.0546 N   0  5  0  0  0  0  0  0  0  0  0  0
  146.1529  137.6998  153.6214 C   0  0  1  0  0  0  0  0  0  0  0  0
  146.2862  138.6914  152.4486 C   0  0  0  0  0  0  0  0  0  0  0  0
  146.2282  137.8406  151.1623 C   0  0  0  0  0  0  0  0  0  0  0  0
  145.9959  136.4530  151.6110 N   0  3  2  0  0  0  0  0  0  0  0  0
  145.2463  135.5640  150.6958 C   0  0  0  0  0  0  0  0  0  0  0  0
  145.1631  134.1491  151.3041 C   0  0  0  0  0  0  0  0  0  0  0  0
  144.5807  134.1715  152.7322 C   0  0  0  0  0  0  0  0  0  0  0  0
  145.3543  135.1559  153.6304 C   0  0  0  0  0  0  0  0  0  0  0  0
  145.3929  136.5432  152.9511 C   0  0  1  0  0  0  0  0  0  0  0  0
  148.2907  139.4269  153.8210 H   0  0  0  0  0  0  0  0  0  0  0  0
  150.3866  138.4704  156.5291 H   0  0  0  0  0  0  0  0  0  0  0  0
  151.7388  140.0386  157.9073 H   0  0  0  0  0  0  0  0  0  0  0  0
  150.0067  144.2117  157.5817 H   0  0  0  0  0  0  0  0  0  0  0  0
  150.0052  143.3719  159.1221 H   0  0  0  0  0  0  0  0  0  0  0  0
  152.0351  145.4664  158.1972 H   0  0  0  0  0  0  0  0  0  0  0  0
  150.8334  145.6801  159.4482 H   0  0  0  0  0  0  0  0  0  0  0  0
  153.1154  145.1887  160.4006 H   0  0  0  0  0  0  0  0  0  0  0  0
  151.9340  143.9880  160.8727 H   0  0  0  0  0  0  0  0  0  0  0  0
  153.9947  143.7116  158.6299 H   0  0  0  0  0  0  0  0  0  0  0  0
  153.9952  142.8393  160.1445 H   0  0  0  0  0  0  0  0  0  0  0  0
  151.9107  141.6586  159.5308 H   0  0  0  0  0  0  0  0  0  0  0  0
  153.0883  141.4565  158.2460 H   0  0  0  0  0  0  0  0  0  0  0  0
  148.4814  141.9526  154.7250 H   0  0  0  0  0  0  0  0  0  0  0  0
  145.5614  138.1253  154.4331 H   0  0  0  0  0  0  0  0  0  0  0  0
  145.4421  139.3819  152.4607 H   0  0  0  0  0  0  0  0  0  0  0  0
  147.1910  139.2990  152.5031 H   0  0  0  0  0  0  0  0  0  0  0  0
  145.4156  138.1825  150.5189 H   0  0  0  0  0  0  0  0  0  0  0  0
  147.1558  137.8961  150.5914 H   0  0  0  0  0  0  0  0  0  0  0  0
  144.2457  135.9655  150.5283 H   0  0  0  0  0  0  0  0  0  0  0  0
  145.7479  135.5302  149.7283 H   0  0  0  0  0  0  0  0  0  0  0  0
  144.5598  133.5033  150.6654 H   0  0  0  0  0  0  0  0  0  0  0  0
  146.1612  133.7096  151.3310 H   0  0  0  0  0  0  0  0  0  0  0  0
  143.5308  134.4643  152.6916 H   0  0  0  0  0  0  0  0  0  0  0  0
  144.6064  133.1709  153.1644 H   0  0  0  0  0  0  0  0  0  0  0  0
  144.8771  135.2161  154.6098 H   0  0  0  0  0  0  0  0  0  0  0  0
  146.3610  134.7673  153.7946 H   0  0  0  0  0  0  0  0  0  0  0  0
  144.3600  136.8749  152.8233 H   0  0  0  0  0  0  0  0  0  0  0  0
  146.9100  136.0481  151.7553 H   0  0  0  0  0  0  0  0  0  0  0  0
  149.7867  143.2759  156.0674 H   0  0  0  0  0  0  0  0  0  0  0  0
  1  2  2  0  0  0  0
  2  3  1  0  0  0  0
  2 16  1  0  0  0  0
  3  4  1  0  0  0  0
  3 26  1  0  0  0  0
  4 15  1  0  0  0  0
  4  5  2  0  0  0  0
  5  6  1  0  0  0  0
  5 27  1  0  0  0  0
  6  7  2  0  0  0  0
  6 28  1  0  0  0  0
  7  8  1  0  0  0  0
  7 14  1  0  0  0  0
  8 13  1  0  0  0  0
  8  9  1  0  0  0  0
  9 10  1  0  0  0  0
  9 29  1  0  0  0  0
  9 30  1  0  0  0  0
 10 11  1  0  0  0  0
 10 31  1  0  0  0  0
 10 32  1  0  0  0  0
 11 12  1  0  0  0  0
 11 33  1  0  0  0  0
 11 34  1  0  0  0  0
 12 13  1  0  0  0  0
 12 35  1  0  0  0  0
 12 36  1  0  0  0  0
 13 37  1  0  0  0  0
 13 38  1  0  0  0  0
 14 15  2  0  0  0  0
 14 55  1  0  0  0  0
 15 39  1  0  0  0  0
 16 17  1  0  0  0  0
 17 25  1  0  0  0  0
 17 18  1  0  0  0  0
 17 40  1  0  0  0  0
 18 19  1  0  0  0  0
 18 41  1  0  0  0  0
 18 42  1  0  0  0  0
 19 20  1  0  0  0  0
 19 43  1  0  0  0  0
 19 44  1  0  0  0  0
 20 25  1  0  0  0  0
 20 21  1  0  0  0  0
 20 54  1  0  0  0  0
 21 22  1  0  0  0  0
 21 45  1  0  0  0  0
 21 46  1  0  0  0  0
 22 23  1  0  0  0  0
 22 47  1  0  0  0  0
 22 48  1  0  0  0  0
 23 24  1  0  0  0  0
 23 49  1  0  0  0  0
 23 50  1  0  0  0  0
 24 25  1  0  0  0  0
 24 51  1  0  0  0  0
 24 52  1  0  0  0  0
 25 53  1  0  0  0  0
M  CHG  1  14   1
M  CHG  1  16  -1
M  CHG  1  20   1
M  END
> <s_m_source_file>
AV-unprocessed.smi

> <i_m_source_file_index>
1645

> <i_lp_mmshare_version>
43012

> <i_f3d_flags>
0

> <s_epik_input>
W0NIMl0xW0NIMl1bQ0gyXVtDSDJdW0NASF0oTjEyKVtDQEBIXShbQ0gyXVtDSDJdMilbTkhdQyg9TylbTkhdYzNbY0hdW2NIXWMobltjSF0zKU40W0NIMl1bQ0gyXVtDSDJdW0NIMl1bQ0gyXTQ=

> <s_epik_cmdline>
J2VwaWtfcHl0aG9uJywgJy1waCcsICc3LjAnLCAnLXRuJywgJzgnLCAnLW1hJywgJzIwMCcsICctbWV0YWxfYmluZGluZycsICctaW1hZScsICc8aW5maWxlLm1hZT4nLCAnLW9tYWUnLCAnPG91dGZpbGUubWFlPic=

> <r_lp_tautomer_probability>
0.999994

> <r_epik_Ionization_Penalty>
8.55589

> <r_epik_Ionization_Penalty_Charging>
8.55589

> <r_epik_Ionization_Penalty_Neutral>
3.8092e-06

> <r_epik_State_Penalty>
8.15703

> <r_epik_Charging_Adjusted_Penalty>
16.7129

> <i_epik_Tot_Q>
1

> <i_epik_Tot_abs_Q>
3

> <r_epik_Metal_State_Penalty>
4.13781

> <b_epik_Metal_Only>
1

> <s_lp_Force_Field>
OPLS_2005

> <r_lp_Energy>
55.818

> <b_lp_Chiralities_Consistent>
1

> <s_lp_Variant>
AV-unprocessed.smi:1645-18

> <Gold.Version>
5.8.1

> <Gold.Id.Protein>
6NUR|6NUR_protein|mol2

> <Gold.PLP.Fitness>
46.7722

> <Gold.PLP.PLP>
-37.1638

> <Gold.PLP.part.hbond>
-2.0000

> <Gold.PLP.part.metal>
0.0000

> <Gold.PLP.part.buried>
-1.0147

> <Gold.PLP.part.nonpolar>
-36.8199

> <Gold.PLP.part.repulsive>
2.4803

> <Gold.PLP.ligand.clash>
0.0000

> <Gold.PLP.ligand.torsion>
1.2573

> <Gold.PLP.Chemscore.Hbond>
3.9680

> <Gold.PLP.Chemscore.CHOScore>
0.0000

> <Gold.PLP.Chemscore.Metal>
0.0000

> <Gold.Chemscore.Hbonds>
donor molecule, donor type, donor heavy atom, donor atom, acceptor molecule, acceptor atom, score
      L1  H    14    55       P1  8028  2.00
      L1  H    20    54       P1  7948  2.00

> <Gold.PLP.Chemscore.Internal.Correction>
0.2188

> <Gold.Rescore>
     Score         DG    S(hbond)    S(metal)    S(lipo)     H(rot)  DE(clash)    DE(int)     intcor
     18.23     -23.52       1.98        0.00     123.46       1.17       2.63       2.67       ----

> <Gold.Chemscore.Fitness>
18.2270

> <Gold.Chemscore.DG>
-23.5208

> <Gold.Chemscore.ZeroCoef>
-5.4800

> <Gold.Chemscore.Hbond>
1.9758

> <Gold.Chemscore.Metal>
0.0000

> <Gold.Chemscore.Lipo>
123.4612

> <Gold.Chemscore.Internal_Hbond>
0.0000

> <Gold.Chemscore.DEClash>
2.6286

> <Gold.Chemscore.DEInternal>
2.6652

> <Gold.Chemscore.Rot>
1.1731

> <Gold.Chemscore.Internal.Correction>
   9.000000E+99

> <Gold.Chemscore.Hbonds>
donor molecule, donor type, donor heavy atom, donor atom, acceptor molecule, acceptor atom, score
      L1  H    14    55       P1  8028  0.98
      L1  H    20    54       P1  7948  0.89

> <Gold.Chemscore.Hbond.Weighted>
-6.5990

> <Gold.Chemscore.Metal.Weighted>
-0.0000

> <Gold.Chemscore.Lipo.Weighted>
-14.4450

> <Gold.Chemscore.Internal_Hbond.Weighted>
0.0000

> <Gold.Chemscore.DEClash.Weighted>
2.6286

> <Gold.Chemscore.DEInternal.Weighted>
2.6652

> <Gold.Chemscore.Rot.Weighted>
3.0032

> <Gold.Chemscore.Internal.Correction.Weighted>
   9.000000E+99

> <Gold.Protein.RotatedTorsions>
[ 6907 6896 6895 6894 ] final  -78.79 input  -60.11 | X-H torsion
[ 7974 7965 7964 7962 ] final   71.66 input  175.53 | X-H torsion
[ 8008 7997 7996 7995 ] final -104.77 input   59.86 | X-H torsion
[ 10167 10162 10161 10158 ] final -128.04 input  -65.29 | X-H torsion
[ 10718 10713 10712 10709 ] final -142.32 input   66.30 | X-H torsion
[ 10763 10752 10751 10750 ] final -143.79 input  -60.55 | X-H torsion
[ 11005 11000 10999 10996 ] final   22.33 input  -57.11 | X-H torsion

> <Gold.Protein.ActiveResidues>
 VAL166  LYS551  ARG553  GLY616  TRP617  ASP618  TYR619  PRO620  LYS621  CYS622 
 ASP623  PHE694  ASN695  SER759  ASP760  ASP761  ALA762  ILE779  LEU786  VAL792 
 PHE793  MET794  SER795  GLU796  ALA797  LYS798  CYS799  TRP800  GLU811  SER814 

> <Gold.Protein.RotatedAtoms>
  150.6964  134.4218  159.5208 H   0  0  0  0  0  0  0  0  0  0  0  0  # atno 6907 bound_to 6896
  152.1960  134.8627  160.0522 H   0  0  0  0  0  0  0  0  0  0  0  0  # atno 6908 bound_to 6896
  151.9565  133.3647  159.4056 H   0  0  0  0  0  0  0  0  0  0  0  0  # atno 6909 bound_to 6896
  145.7630  139.2809  143.1365 H   0  0  0  0  0  0  0  0  0  0  0  0  # atno 7974 bound_to 7965
  154.8902  140.0416  157.1834 H   0  0  0  0  0  0  0  0  0  0  0  0  # atno 8008 bound_to 7997
  154.8549  140.2935  155.5554 H   0  0  0  0  0  0  0  0  0  0  0  0  # atno 8009 bound_to 7997
  156.2997  140.2458  156.3513 H   0  0  0  0  0  0  0  0  0  0  0  0  # atno 8010 bound_to 7997
  139.9545  143.6018  152.2465 H   0  0  0  0  0  0  0  0  0  0  0  0  # atno 10167 bound_to 10162
  156.3445  130.7655  151.1797 H   0  0  0  0  0  0  0  0  0  0  0  0  # atno 10718 bound_to 10713
  154.8455  135.3458  154.6243 H   0  0  0  0  0  0  0  0  0  0  0  0  # atno 10763 bound_to 10752
  153.6852  135.6978  153.5111 H   0  0  0  0  0  0  0  0  0  0  0  0  # atno 10764 bound_to 10752
  153.2638  135.4314  155.0876 H   0  0  0  0  0  0  0  0  0  0  0  0  # atno 10765 bound_to 10752
  140.3818  134.1912  155.7663 H   0  0  0  0  0  0  0  0  0  0  0  0  # atno 11005 bound_to 11000
  146.0245  140.8317  142.9907 LP  0  0  0  0  0  0  0  0  0  0  0  0  # atno 17320 bound_to 7965
  144.6827  140.2677  143.7310 LP  0  0  0  0  0  0  0  0  0  0  0  0  # atno 17321 bound_to 7965
  139.6602  144.7662  151.1978 LP  0  0  0  0  0  0  0  0  0  0  0  0  # atno 17342 bound_to 10162
  140.7572  143.6022  150.8688 LP  0  0  0  0  0  0  0  0  0  0  0  0  # atno 17343 bound_to 10162
  157.7452  131.0445  150.4797 LP  0  0  0  0  0  0  0  0  0  0  0  0  # atno 17370 bound_to 10713
  156.4982  130.4111  149.6368 LP  0  0  0  0  0  0  0  0  0  0  0  0  # atno 17371 bound_to 10713
  141.1921  133.8181  157.0853 LP  0  0  0  0  0  0  0  0  0  0  0  0  # atno 17394 bound_to 11000
  140.0473  134.9824  157.1072 LP  0  0  0  0  0  0  0  0  0  0  0  0  # atno 17395 bound_to 11000

$$$$
