AV-unprocessed.smi:2867|AV-procd|sdf|11024|dock6
  -GOLD-   2272015483D 1   1.00000     0.00000
 Structure written by MMmdl.
 41 43  0  0  0  0  0  0  0  0  2 V2000
  154.9663  143.4590  164.0089 C   0  0  0  0  0  0  0  0  0  0  0  0
  153.7873  143.7427  163.2774 O   0  0  0  0  0  0  0  0  0  0  0  0
  153.2586  142.5983  162.6268 C   0  0  0  0  0  0  0  0  0  0  0  0
  154.3605  141.9325  161.7914 C   0  0  0  0  0  0  0  0  0  0  0  0
  153.8305  140.8611  160.9330 N   0  0  0  0  0  0  0  0  0  0  0  0
  153.0233  140.9025  159.8351 C   0  0  0  0  0  0  0  0  0  0  0  0
  152.4413  142.1027  159.2156 C   0  0  0  0  0  0  0  0  0  0  0  0
  151.6952  141.9953  158.0218 C   0  0  0  0  0  0  0  0  0  0  0  0
  151.1349  143.1375  157.4176 C   0  0  0  0  0  0  0  0  0  0  0  0
  151.3112  144.4031  158.0069 C   0  0  0  0  0  0  0  0  0  0  0  0
  152.0466  144.5223  159.2007 C   0  0  0  0  0  0  0  0  0  0  0  0
  152.2158  145.7374  159.7737 F   0  0  0  0  0  0  0  0  0  0  0  0
  152.6054  143.3774  159.8006 C   0  0  0  0  0  0  0  0  0  0  0  0
  152.8643  139.6363  159.3649 N   0  3  0  0  0  0  0  0  0  0  0  0
  153.5789  138.7576  160.1814 C   0  0  0  0  0  0  0  0  0  0  0  0
  153.7258  137.3758  160.1162 C   0  0  0  0  0  0  0  0  0  0  0  0
  154.5394  136.7847  161.1059 C   0  0  0  0  0  0  0  0  0  0  0  0
  154.7707  135.0107  161.0970 S   0  0  0  0  0  0  0  0  0  0  0  0
  156.4629  134.8710  160.8215 N   0  0  0  0  0  0  0  0  0  0  0  0
  154.4965  134.4956  162.4471 O   0  0  0  0  0  0  0  0  0  0  0  0
  154.0822  134.4510  159.9238 O   0  0  0  0  0  0  0  0  0  0  0  0
  155.1727  137.5527  162.1056 C   0  0  0  0  0  0  0  0  0  0  0  0
  155.0151  138.9534  162.1593 C   0  0  0  0  0  0  0  0  0  0  0  0
  154.2049  139.5350  161.1837 C   0  0  0  0  0  0  0  0  0  0  0  0
  155.3206  144.3670  164.4972 H   0  0  0  0  0  0  0  0  0  0  0  0
  155.7593  143.0977  163.3530 H   0  0  0  0  0  0  0  0  0  0  0  0
  154.7818  142.7115  164.7814 H   0  0  0  0  0  0  0  0  0  0  0  0
  152.8719  141.8941  163.3651 H   0  0  0  0  0  0  0  0  0  0  0  0
  152.4272  142.8848  161.9812 H   0  0  0  0  0  0  0  0  0  0  0  0
  154.8806  142.6635  161.1723 H   0  0  0  0  0  0  0  0  0  0  0  0
  155.1140  141.5035  162.4495 H   0  0  0  0  0  0  0  0  0  0  0  0
  151.5564  141.0296  157.5577 H   0  0  0  0  0  0  0  0  0  0  0  0
  150.5706  143.0424  156.5015 H   0  0  0  0  0  0  0  0  0  0  0  0
  150.8823  145.2802  157.5451 H   0  0  0  0  0  0  0  0  0  0  0  0
  153.1621  143.4814  160.7204 H   0  0  0  0  0  0  0  0  0  0  0  0
  153.2450  136.7853  159.3500 H   0  0  0  0  0  0  0  0  0  0  0  0
  156.9552  135.7544  160.9530 H   0  0  0  0  0  0  0  0  0  0  0  0
  156.6788  134.4119  159.9370 H   0  0  0  0  0  0  0  0  0  0  0  0
  155.7907  137.0645  162.8455 H   0  0  0  0  0  0  0  0  0  0  0  0
  155.5048  139.5349  162.9262 H   0  0  0  0  0  0  0  0  0  0  0  0
  152.3110  139.3962  158.5525 H   0  0  0  0  0  0  0  0  0  0  0  0
  1  2  1  0  0  0  0
  1 25  1  0  0  0  0
  1 26  1  0  0  0  0
  1 27  1  0  0  0  0
  2  3  1  0  0  0  0
  3  4  1  0  0  0  0
  3 28  1  0  0  0  0
  3 29  1  0  0  0  0
  4  5  1  0  0  0  0
  4 30  1  0  0  0  0
  4 31  1  0  0  0  0
  5 24  1  0  0  0  0
  5  6  1  0  0  0  0
  6  7  1  0  0  0  0
  6 14  2  0  0  0  0
  7 13  1  0  0  0  0
  7  8  2  0  0  0  0
  8  9  1  0  0  0  0
  8 32  1  0  0  0  0
  9 10  2  0  0  0  0
  9 33  1  0  0  0  0
 10 11  1  0  0  0  0
 10 34  1  0  0  0  0
 11 12  1  0  0  0  0
 11 13  2  0  0  0  0
 13 35  1  0  0  0  0
 14 15  1  0  0  0  0
 14 41  1  0  0  0  0
 15 24  2  0  0  0  0
 15 16  1  0  0  0  0
 16 17  2  0  0  0  0
 16 36  1  0  0  0  0
 17 18  1  0  0  0  0
 17 22  1  0  0  0  0
 18 19  1  0  0  0  0
 18 20  2  0  0  0  0
 18 21  2  0  0  0  0
 19 37  1  0  0  0  0
 19 38  1  0  0  0  0
 22 23  2  0  0  0  0
 22 39  1  0  0  0  0
 23 24  1  0  0  0  0
 23 40  1  0  0  0  0
M  CHG  1  14   1
M  END
> <s_m_source_file>
AV-unprocessed.smi

> <i_m_source_file_index>
2867

> <i_lp_mmshare_version>
43012

> <i_f3d_flags>
0

> <s_epik_input>
W05IMl1TKD1PKSg9TyljKFtjSF0xKVtjSF1bY0hdYyhjMTIpbihbQ0gyXVtDSDJdT1tDSDNdKWMobjIpLWMzW2NIXVtjSF1bY0hdYyhGKVtjSF0z

> <s_epik_cmdline>
J2VwaWtfcHl0aG9uJywgJy1waCcsICc3LjAnLCAnLXRuJywgJzgnLCAnLW1hJywgJzIwMCcsICctbWV0YWxfYmluZGluZycsICctaW1hZScsICc8aW5maWxlLm1hZT4nLCAnLW9tYWUnLCAnPG91dGZpbGUubWFlPic=

> <r_epik_Ionization_Penalty>
1.25825

> <r_epik_Ionization_Penalty_Charging>
1.24336

> <r_epik_Ionization_Penalty_Neutral>
0.014884

> <r_epik_State_Penalty>
1.4115

> <r_epik_Charging_Adjusted_Penalty>
2.65486

> <i_epik_Tot_Q>
1

> <i_epik_Tot_abs_Q>
1

> <r_epik_Metal_State_Penalty>
3.65574

> <b_epik_Metal_Only>
0

> <s_lp_Force_Field>
OPLS_2005

> <r_lp_Energy>
21.7235

> <b_lp_Chiralities_Consistent>
1

> <s_lp_Variant>
AV-unprocessed.smi:2867-2

> <Gold.Version>
5.8.1

> <Gold.Id.Protein>
6NUR|6NUR_protein|mol2

> <Gold.PLP.Fitness>
51.4675

> <Gold.PLP.PLP>
-48.7568

> <Gold.PLP.part.hbond>
-1.0000

> <Gold.PLP.part.metal>
0.0000

> <Gold.PLP.part.buried>
-3.7124

> <Gold.PLP.part.nonpolar>
-43.8265

> <Gold.PLP.part.repulsive>
0.2472

> <Gold.PLP.ligand.clash>
0.0000

> <Gold.PLP.ligand.torsion>
1.1458

> <Gold.PLP.Chemscore.Hbond>
1.0000

> <Gold.PLP.Chemscore.CHOScore>
0.0000

> <Gold.PLP.Chemscore.Metal>
0.0000

> <Gold.Chemscore.Hbonds>
donor molecule, donor type, donor heavy atom, donor atom, acceptor molecule, acceptor atom, score
      P1  H  6896  6909       L1    21  1.00

> <Gold.PLP.Chemscore.Internal.Correction>
2.0022

> <Gold.Rescore>
     Score         DG    S(hbond)    S(metal)    S(lipo)     H(rot)  DE(clash)    DE(int)     intcor
     16.06     -19.82       0.98        0.00     126.93       1.47       1.58       2.19       ----

> <Gold.Chemscore.Fitness>
16.0589

> <Gold.Chemscore.DG>
-19.8244

> <Gold.Chemscore.ZeroCoef>
-5.4800

> <Gold.Chemscore.Hbond>
0.9780

> <Gold.Chemscore.Metal>
0.0000

> <Gold.Chemscore.Lipo>
126.9311

> <Gold.Chemscore.Internal_Hbond>
0.0000

> <Gold.Chemscore.DEClash>
1.5770

> <Gold.Chemscore.DEInternal>
2.1885

> <Gold.Chemscore.Rot>
1.4738

> <Gold.Chemscore.Internal.Correction>
   9.000000E+99

> <Gold.Chemscore.Hbonds>
donor molecule, donor type, donor heavy atom, donor atom, acceptor molecule, acceptor atom, score
      P1  H  6896  6909       L1    21  0.84

> <Gold.Chemscore.Hbond.Weighted>
-3.2664

> <Gold.Chemscore.Metal.Weighted>
-0.0000

> <Gold.Chemscore.Lipo.Weighted>
-14.8509

> <Gold.Chemscore.Internal_Hbond.Weighted>
0.0000

> <Gold.Chemscore.DEClash.Weighted>
1.5770

> <Gold.Chemscore.DEInternal.Weighted>
2.1885

> <Gold.Chemscore.Rot.Weighted>
3.7730

> <Gold.Chemscore.Internal.Correction.Weighted>
   9.000000E+99

> <Gold.Protein.RotatedTorsions>
[ 6907 6896 6895 6894 ] final -172.74 input  -60.11 | X-H torsion
[ 7974 7965 7964 7962 ] final  -89.93 input  175.53 | X-H torsion
[ 8008 7997 7996 7995 ] final  -89.85 input   59.86 | X-H torsion
[ 10167 10162 10161 10158 ] final   25.19 input  -65.29 | X-H torsion
[ 10718 10713 10712 10709 ] final  -41.53 input   66.30 | X-H torsion
[ 10763 10752 10751 10750 ] final   15.14 input  -60.55 | X-H torsion
[ 11005 11000 10999 10996 ] final  -93.67 input  -57.11 | X-H torsion

> <Gold.Protein.ActiveResidues>
 VAL166  LYS551  ARG553  GLY616  TRP617  ASP618  TYR619  PRO620  LYS621  CYS622 
 ASP623  PHE694  ASN695  SER759  ASP760  ASP761  ALA762  ILE779  LEU786  VAL792 
 PHE793  MET794  SER795  GLU796  ALA797  LYS798  CYS799  TRP800  GLU811  SER814 

> <Gold.Protein.RotatedAtoms>
  151.5450  133.3426  159.2942 H   0  0  0  0  0  0  0  0  0  0  0  0  # atno 6907 bound_to 6896
  150.8513  134.7841  159.7022 H   0  0  0  0  0  0  0  0  0  0  0  0  # atno 6908 bound_to 6896
  152.4558  134.5302  159.9860 H   0  0  0  0  0  0  0  0  0  0  0  0  # atno 6909 bound_to 6896
  145.4333  140.9556  143.2116 H   0  0  0  0  0  0  0  0  0  0  0  0  # atno 7974 bound_to 7965
  154.6915  140.0537  157.0368 H   0  0  0  0  0  0  0  0  0  0  0  0  # atno 8008 bound_to 7997
  155.0811  140.3209  155.4582 H   0  0  0  0  0  0  0  0  0  0  0  0  # atno 8009 bound_to 7997
  156.2730  140.2065  156.5938 H   0  0  0  0  0  0  0  0  0  0  0  0  # atno 8010 bound_to 7997
  140.5127  144.0134  150.6380 H   0  0  0  0  0  0  0  0  0  0  0  0  # atno 10167 bound_to 10162
  156.2694  130.4205  149.8455 H   0  0  0  0  0  0  0  0  0  0  0  0  # atno 10718 bound_to 10713
  153.1553  135.6786  153.8821 H   0  0  0  0  0  0  0  0  0  0  0  0  # atno 10763 bound_to 10752
  153.8234  135.3127  155.3413 H   0  0  0  0  0  0  0  0  0  0  0  0  # atno 10764 bound_to 10752
  154.7893  135.4844  154.0104 H   0  0  0  0  0  0  0  0  0  0  0  0  # atno 10765 bound_to 10752
  141.1491  133.7903  157.0192 H   0  0  0  0  0  0  0  0  0  0  0  0  # atno 11005 bound_to 11000
  144.8169  139.5861  143.7004 LP  0  0  0  0  0  0  0  0  0  0  0  0  # atno 17320 bound_to 7965
  146.2595  139.6379  142.9371 LP  0  0  0  0  0  0  0  0  0  0  0  0  # atno 17321 bound_to 7965
  140.3461  143.2991  152.0537 LP  0  0  0  0  0  0  0  0  0  0  0  0  # atno 17342 bound_to 10162
  139.4900  144.6408  151.6882 LP  0  0  0  0  0  0  0  0  0  0  0  0  # atno 17343 bound_to 10162
  156.5942  130.8519  151.3416 LP  0  0  0  0  0  0  0  0  0  0  0  0  # atno 17370 bound_to 10713
  157.7278  130.9648  150.1716 LP  0  0  0  0  0  0  0  0  0  0  0  0  # atno 17371 bound_to 10713
  140.0827  134.9639  157.1650 LP  0  0  0  0  0  0  0  0  0  0  0  0  # atno 17394 bound_to 11000
  140.3554  134.2552  155.7193 LP  0  0  0  0  0  0  0  0  0  0  0  0  # atno 17395 bound_to 11000

$$$$
