AV-unprocessed.smi:2057|AV-procd|sdf|8341|dock1
  -GOLD-   2272011 03D 1   1.00000     0.00000
 Structure written by MMmdl.
 44 46  0  0  0  0  0  0  0  0  1 V2000
  151.3573  145.1137  158.8383 C   0  0  0  0  0  0  0  0  0  0  0  0
  152.3370  144.4755  159.6446 O   0  0  0  0  0  0  0  0  0  0  0  0
  152.4541  143.1045  159.5619 C   0  0  0  0  0  0  0  0  0  0  0  0
  153.3658  142.4859  160.4368 C   0  0  0  0  0  0  0  0  0  0  0  0
  153.5565  141.0926  160.4139 C   0  0  0  0  0  0  0  0  0  0  0  0
  152.8289  140.2782  159.5112 C   0  0  0  0  0  0  0  0  0  0  0  0
  152.9851  138.9088  159.4308 O   0  0  0  0  0  0  0  0  0  0  0  0
  153.7790  138.2581  160.4118 C   0  0  0  0  0  0  0  0  0  0  0  0
  151.8972  140.8916  158.6379 C   0  0  0  0  0  0  0  0  0  0  0  0
  151.1009  140.0446  157.6493 C   0  0  1  0  0  0  0  0  0  0  0  0
  149.7210  139.9887  157.9590 O   0  0  0  0  0  0  0  0  0  0  0  0
  151.2943  140.5513  156.2068 C   0  0  0  0  0  0  0  0  0  0  0  0
  150.3380  139.9652  155.2779 N   0  0  0  0  0  0  0  0  0  0  0  0
  150.3684  138.7433  154.6885 C   0  0  0  0  0  0  0  0  0  0  0  0
  151.4851  137.7730  154.9507 C   0  0  0  0  0  0  0  0  0  0  0  0
  151.3142  136.5199  154.3198 O   0  0  0  0  0  0  0  0  0  0  0  0
  149.3475  138.4737  153.8704 N   0  0  0  0  0  0  0  0  0  0  0  0
  148.5852  139.6233  153.9413 C   0  0  0  0  0  0  0  0  0  0  0  0
  147.3706  139.9626  153.3032 C   0  0  0  0  0  0  0  0  0  0  0  0
  146.7689  141.2173  153.5346 C   0  0  0  0  0  0  0  0  0  0  0  0
  147.3716  142.1489  154.4049 C   0  0  0  0  0  0  0  0  0  0  0  0
  148.5821  141.8308  155.0501 C   0  0  0  0  0  0  0  0  0  0  0  0
  149.1778  140.5768  154.8156 C   0  0  0  0  0  0  0  0  0  0  0  0
  151.7232  142.2943  158.6602 C   0  0  0  0  0  0  0  0  0  0  0  0
  151.3927  146.1890  159.0132 H   0  0  0  0  0  0  0  0  0  0  0  0
  150.3514  144.7727  159.0867 H   0  0  0  0  0  0  0  0  0  0  0  0
  151.5444  144.9460  157.7768 H   0  0  0  0  0  0  0  0  0  0  0  0
  153.9321  143.0881  161.1321 H   0  0  0  0  0  0  0  0  0  0  0  0
  154.2743  140.6732  161.1019 H   0  0  0  0  0  0  0  0  0  0  0  0
  153.8011  137.1885  160.2028 H   0  0  0  0  0  0  0  0  0  0  0  0
  153.3647  138.3895  161.4124 H   0  0  0  0  0  0  0  0  0  0  0  0
  154.8085  138.6180  160.3947 H   0  0  0  0  0  0  0  0  0  0  0  0
  151.4503  139.0138  157.7117 H   0  0  0  0  0  0  0  0  0  0  0  0
  149.2448  139.7959  157.1658 H   0  0  0  0  0  0  0  0  0  0  0  0
  151.2353  141.6391  156.1681 H   0  0  0  0  0  0  0  0  0  0  0  0
  152.2944  140.2914  155.8569 H   0  0  0  0  0  0  0  0  0  0  0  0
  152.4261  138.2050  154.6106 H   0  0  0  0  0  0  0  0  0  0  0  0
  151.5689  137.6081  156.0251 H   0  0  0  0  0  0  0  0  0  0  0  0
  151.2780  136.6613  153.3859 H   0  0  0  0  0  0  0  0  0  0  0  0
  146.9008  139.2563  152.6350 H   0  0  0  0  0  0  0  0  0  0  0  0
  145.8402  141.4659  153.0421 H   0  0  0  0  0  0  0  0  0  0  0  0
  146.9043  143.1075  154.5770 H   0  0  0  0  0  0  0  0  0  0  0  0
  149.0476  142.5415  155.7170 H   0  0  0  0  0  0  0  0  0  0  0  0
  151.0215  142.7361  157.9694 H   0  0  0  0  0  0  0  0  0  0  0  0
  1  2  1  0  0  0  0
  1 25  1  0  0  0  0
  1 26  1  0  0  0  0
  1 27  1  0  0  0  0
  2  3  1  0  0  0  0
  3 24  1  0  0  0  0
  3  4  2  0  0  0  0
  4  5  1  0  0  0  0
  4 28  1  0  0  0  0
  5  6  2  0  0  0  0
  5 29  1  0  0  0  0
  6  7  1  0  0  0  0
  6  9  1  0  0  0  0
  7  8  1  0  0  0  0
  8 30  1  0  0  0  0
  8 31  1  0  0  0  0
  8 32  1  0  0  0  0
  9 10  1  0  0  0  0
  9 24  2  0  0  0  0
 10 11  1  0  0  0  0
 10 12  1  0  0  0  0
 10 33  1  0  0  0  0
 11 34  1  0  0  0  0
 12 13  1  0  0  0  0
 12 35  1  0  0  0  0
 12 36  1  0  0  0  0
 13 23  1  0  0  0  0
 13 14  1  0  0  0  0
 14 15  1  0  0  0  0
 14 17  2  0  0  0  0
 15 16  1  0  0  0  0
 15 37  1  0  0  0  0
 15 38  1  0  0  0  0
 16 39  1  0  0  0  0
 17 18  1  0  0  0  0
 18 23  2  0  0  0  0
 18 19  1  0  0  0  0
 19 20  2  0  0  0  0
 19 40  1  0  0  0  0
 20 21  1  0  0  0  0
 20 41  1  0  0  0  0
 21 22  2  0  0  0  0
 21 42  1  0  0  0  0
 22 23  1  0  0  0  0
 22 43  1  0  0  0  0
 24 44  1  0  0  0  0
M  END
> <s_m_source_file>
AV-unprocessed.smi

> <i_m_source_file_index>
2057

> <i_lp_mmshare_version>
43012

> <i_f3d_flags>
0

> <s_epik_input>
W0NIM11PYzFbY0hdW2NIXWMoT1tDSDNdKWMoW2NIXTEpW0NASF0oW09IXSlbQ0gyXW4oYyhuMilbQ0gyXVtPSF0pYyhjMjMpW2NIXVtjSF1bY0hdW2NIXTM=

> <s_epik_cmdline>
J2VwaWtfcHl0aG9uJywgJy1waCcsICc3LjAnLCAnLXRuJywgJzgnLCAnLW1hJywgJzIwMCcsICctbWV0YWxfYmluZGluZycsICctaW1hZScsICc8aW5maWxlLm1hZT4nLCAnLW9tYWUnLCAnPG91dGZpbGUubWFlPic=

> <r_lp_tautomer_probability>
1

> <r_epik_Ionization_Penalty>
0.0634722

> <r_epik_Ionization_Penalty_Charging>
0

> <r_epik_Ionization_Penalty_Neutral>
0.0634722

> <r_epik_State_Penalty>
0.0551572

> <r_epik_Charging_Adjusted_Penalty>
0.0551572

> <i_epik_Tot_Q>
0

> <i_epik_Tot_abs_Q>
0

> <r_epik_Metal_State_Penalty>
5.78034e-05

> <b_epik_Metal_Only>
0

> <s_lp_Force_Field>
OPLS_2005

> <r_lp_Energy>
19.4747

> <b_lp_Chiralities_Consistent>
1

> <s_lp_Variant>
AV-unprocessed.smi:2057-2

> <Gold.Version>
5.8.1

> <Gold.Id.Protein>
6NUR|6NUR_protein|mol2

> <Gold.PLP.Fitness>
54.8908

> <Gold.PLP.PLP>
-50.0843

> <Gold.PLP.part.hbond>
-2.0937

> <Gold.PLP.part.metal>
0.0000

> <Gold.PLP.part.buried>
-1.5570

> <Gold.PLP.part.nonpolar>
-47.1998

> <Gold.PLP.part.repulsive>
1.4699

> <Gold.PLP.ligand.clash>
0.0000

> <Gold.PLP.ligand.torsion>
0.6050

> <Gold.PLP.Chemscore.Hbond>
1.9600

> <Gold.PLP.Chemscore.CHOScore>
0.0000

> <Gold.PLP.Chemscore.Metal>
0.0000

> <Gold.Chemscore.Hbonds>
donor molecule, donor type, donor heavy atom, donor atom, acceptor molecule, acceptor atom, score
      L1  H    16    39       P1  7949  1.00
      P1  H 10752 10763       L1    16  1.00

> <Gold.PLP.Chemscore.Internal.Correction>
0.1366

> <Gold.Rescore>
     Score         DG    S(hbond)    S(metal)    S(lipo)     H(rot)  DE(clash)    DE(int)     intcor
     16.98     -18.28       1.61        0.00     132.64       3.17       0.66       0.64       ----

> <Gold.Chemscore.Fitness>
16.9837

> <Gold.Chemscore.DG>
-18.2806

> <Gold.Chemscore.ZeroCoef>
-5.4800

> <Gold.Chemscore.Hbond>
1.6131

> <Gold.Chemscore.Metal>
0.0000

> <Gold.Chemscore.Lipo>
132.6403

> <Gold.Chemscore.Internal_Hbond>
0.0000

> <Gold.Chemscore.DEClash>
0.6572

> <Gold.Chemscore.DEInternal>
0.6397

> <Gold.Chemscore.Rot>
3.1665

> <Gold.Chemscore.Internal.Correction>
   9.000000E+99

> <Gold.Chemscore.Hbonds>
donor molecule, donor type, donor heavy atom, donor atom, acceptor molecule, acceptor atom, score
      L1  H    16    39       P1  7949  0.60
      P1  H 10752 10763       L1    16  0.22

> <Gold.Chemscore.Hbond.Weighted>
-5.3879

> <Gold.Chemscore.Metal.Weighted>
-0.0000

> <Gold.Chemscore.Lipo.Weighted>
-15.5189

> <Gold.Chemscore.Internal_Hbond.Weighted>
0.0000

> <Gold.Chemscore.DEClash.Weighted>
0.6572

> <Gold.Chemscore.DEInternal.Weighted>
0.6397

> <Gold.Chemscore.Rot.Weighted>
8.1062

> <Gold.Chemscore.Internal.Correction.Weighted>
   9.000000E+99

> <Gold.Protein.RotatedTorsions>
[ 6907 6896 6895 6894 ] final -113.77 input  -60.11 | X-H torsion
[ 7974 7965 7964 7962 ] final   -9.33 input  175.53 | X-H torsion
[ 8008 7997 7996 7995 ] final   24.85 input   59.86 | X-H torsion
[ 10167 10162 10161 10158 ] final   57.59 input  -65.29 | X-H torsion
[ 10718 10713 10712 10709 ] final  -36.43 input   66.30 | X-H torsion
[ 10763 10752 10751 10750 ] final   58.82 input  -60.55 | X-H torsion
[ 11005 11000 10999 10996 ] final  117.09 input  -57.11 | X-H torsion

> <Gold.Protein.ActiveResidues>
 VAL166  LYS551  ARG553  GLY616  TRP617  ASP618  TYR619  PRO620  LYS621  CYS622 
 ASP623  PHE694  ASN695  SER759  ASP760  ASP761  ALA762  ILE779  LEU786  VAL792 
 PHE793  MET794  SER795  GLU796  ALA797  LYS798  CYS799  TRP800  GLU811  SER814 

> <Gold.Protein.RotatedAtoms>
  150.7853  133.8897  159.3309 H   0  0  0  0  0  0  0  0  0  0  0  0  # atno 6907 bound_to 6896
  151.6749  135.0968  160.0214 H   0  0  0  0  0  0  0  0  0  0  0  0  # atno 6908 bound_to 6896
  152.3915  133.6647  159.6277 H   0  0  0  0  0  0  0  0  0  0  0  0  # atno 6909 bound_to 6896
  146.2255  140.2600  142.8351 H   0  0  0  0  0  0  0  0  0  0  0  0  # atno 7974 bound_to 7965
  155.0027  140.3127  155.4861 H   0  0  0  0  0  0  0  0  0  0  0  0  # atno 8008 bound_to 7997
  156.2922  140.2229  156.5078 H   0  0  0  0  0  0  0  0  0  0  0  0  # atno 8009 bound_to 7997
  154.7604  140.0459  157.0957 H   0  0  0  0  0  0  0  0  0  0  0  0  # atno 8010 bound_to 7997
  140.1964  144.4033  150.6548 H   0  0  0  0  0  0  0  0  0  0  0  0  # atno 10167 bound_to 10162
  156.3269  130.4273  149.7908 H   0  0  0  0  0  0  0  0  0  0  0  0  # atno 10718 bound_to 10713
  152.9880  135.5593  154.5614 H   0  0  0  0  0  0  0  0  0  0  0  0  # atno 10763 bound_to 10752
  154.5032  135.2798  155.1405 H   0  0  0  0  0  0  0  0  0  0  0  0  # atno 10764 bound_to 10752
  154.2827  135.6341  153.5406 H   0  0  0  0  0  0  0  0  0  0  0  0  # atno 10765 bound_to 10752
  139.9063  134.9606  156.7297 H   0  0  0  0  0  0  0  0  0  0  0  0  # atno 11005 bound_to 11000
  144.9347  140.8013  143.5668 LP  0  0  0  0  0  0  0  0  0  0  0  0  # atno 17320 bound_to 7965
  145.2547  139.2017  143.4924 LP  0  0  0  0  0  0  0  0  0  0  0  0  # atno 17321 bound_to 7965
  140.6421  143.2205  151.6268 LP  0  0  0  0  0  0  0  0  0  0  0  0  # atno 17342 bound_to 10162
  139.5235  144.3132  152.0975 LP  0  0  0  0  0  0  0  0  0  0  0  0  # atno 17343 bound_to 10162
  156.5195  130.8208  151.3198 LP  0  0  0  0  0  0  0  0  0  0  0  0  # atno 17370 bound_to 10713
  157.7423  130.9887  150.2506 LP  0  0  0  0  0  0  0  0  0  0  0  0  # atno 17371 bound_to 10713
  140.6935  133.9369  155.7980 LP  0  0  0  0  0  0  0  0  0  0  0  0  # atno 17394 bound_to 11000
  141.0424  134.0602  157.3885 LP  0  0  0  0  0  0  0  0  0  0  0  0  # atno 17395 bound_to 11000

$$$$
