AV-unprocessed.smi:1809|AV-procd|sdf|7327|dock6
  -GOLD-   22720 8583D 1   1.00000     0.00000
 Structure written by MMmdl.
 39 41  0  0  0  0  0  0  0  0  3 V2000
  146.6800  133.9094  161.9878 C   0  0  0  0  0  0  0  0  0  0  0  0
  147.2075  135.1038  161.2697 C   0  0  0  0  0  0  0  0  0  0  0  0
  147.1137  136.3421  161.7605 N   0  0  0  0  0  0  0  0  0  0  0  0
  147.6764  137.2846  160.9118 N   0  0  0  0  0  0  0  0  0  0  0  0
  148.1961  136.7464  159.7993 C   0  0  0  0  0  0  0  0  0  0  0  0
  148.7832  137.4889  158.8461 N   0  5  0  0  0  0  0  0  0  0  0  0
  149.5153  136.8916  157.8798 C   0  0  0  0  0  0  0  0  0  0  0  0
  149.9520  135.7384  157.8973 O   0  0  0  0  0  0  0  0  0  0  0  0
  149.7591  137.6794  156.8256 N   0  0  0  0  0  0  0  0  0  0  0  0
  150.5380  137.2926  155.6583 C   0  0  0  0  0  0  0  0  0  0  0  0
  151.4238  138.4592  155.1804 C   0  0  2  0  0  0  0  0  0  0  0  0
  152.1565  139.1673  156.3454 C   0  0  0  0  0  0  0  0  0  0  0  0
  151.1868  139.9952  157.0871 N   0  3  1  0  0  0  0  0  0  0  0  0
  151.6688  140.7541  158.2535 C   0  0  0  0  0  0  0  0  0  0  0  0
  150.6672  141.9155  158.4116 C   0  0  0  0  0  0  0  0  0  0  0  0
  149.7440  141.8415  157.1819 C   0  0  0  0  0  0  0  0  0  0  0  0
  150.5302  140.9670  156.2101 C   0  0  2  0  0  0  0  0  0  0  0  0
  149.7504  140.2160  155.1243 C   0  0  0  0  0  0  0  0  0  0  0  0
  150.6805  139.4080  154.3983 O   0  0  0  0  0  0  0  0  0  0  0  0
  148.0076  134.9952  159.7110 S   0  0  0  0  0  0  0  0  0  0  0  0
  147.3949  133.5842  162.7437 H   0  0  0  0  0  0  0  0  0  0  0  0
  146.5132  133.0909  161.2874 H   0  0  0  0  0  0  0  0  0  0  0  0
  145.7349  134.1479  162.4760 H   0  0  0  0  0  0  0  0  0  0  0  0
  149.3867  138.6179  156.8453 H   0  0  0  0  0  0  0  0  0  0  0  0
  151.1386  136.4133  155.8937 H   0  0  0  0  0  0  0  0  0  0  0  0
  149.8532  136.9987  154.8614 H   0  0  0  0  0  0  0  0  0  0  0  0
  152.1819  138.0390  154.5182 H   0  0  0  0  0  0  0  0  0  0  0  0
  152.6188  138.4405  157.0143 H   0  0  0  0  0  0  0  0  0  0  0  0
  152.9551  139.8008  155.9569 H   0  0  0  0  0  0  0  0  0  0  0  0
  151.7195  140.1199  159.1389 H   0  0  0  0  0  0  0  0  0  0  0  0
  152.6682  141.1455  158.0570 H   0  0  0  0  0  0  0  0  0  0  0  0
  150.0923  141.8290  159.3342 H   0  0  0  0  0  0  0  0  0  0  0  0
  151.1976  142.8679  158.4430 H   0  0  0  0  0  0  0  0  0  0  0  0
  148.8052  141.3554  157.4517 H   0  0  0  0  0  0  0  0  0  0  0  0
  149.5082  142.8227  156.7688 H   0  0  0  0  0  0  0  0  0  0  0  0
  151.2971  141.5839  155.7362 H   0  0  0  0  0  0  0  0  0  0  0  0
  148.9521  139.6073  155.5497 H   0  0  0  0  0  0  0  0  0  0  0  0
  149.2816  140.9205  154.4369 H   0  0  0  0  0  0  0  0  0  0  0  0
  150.4607  139.3791  157.4245 H   0  0  0  0  0  0  0  0  0  0  0  0
  1  2  1  0  0  0  0
  1 21  1  0  0  0  0
  1 22  1  0  0  0  0
  1 23  1  0  0  0  0
  2 20  1  0  0  0  0
  2  3  2  0  0  0  0
  3  4  1  0  0  0  0
  4  5  2  0  0  0  0
  5  6  1  0  0  0  0
  5 20  1  0  0  0  0
  6  7  1  0  0  0  0
  7  8  2  0  0  0  0
  7  9  1  0  0  0  0
  9 10  1  0  0  0  0
  9 24  1  0  0  0  0
 10 11  1  0  0  0  0
 10 25  1  0  0  0  0
 10 26  1  0  0  0  0
 11 19  1  0  0  0  0
 11 12  1  0  0  0  0
 11 27  1  0  0  0  0
 12 13  1  0  0  0  0
 12 28  1  0  0  0  0
 12 29  1  0  0  0  0
 13 17  1  0  0  0  0
 13 14  1  0  0  0  0
 13 39  1  0  0  0  0
 14 15  1  0  0  0  0
 14 30  1  0  0  0  0
 14 31  1  0  0  0  0
 15 16  1  0  0  0  0
 15 32  1  0  0  0  0
 15 33  1  0  0  0  0
 16 17  1  0  0  0  0
 16 34  1  0  0  0  0
 16 35  1  0  0  0  0
 17 18  1  0  0  0  0
 17 36  1  0  0  0  0
 18 19  1  0  0  0  0
 18 37  1  0  0  0  0
 18 38  1  0  0  0  0
M  CHG  1   6  -1
M  CHG  1  13   1
M  END
> <s_m_source_file>
AV-unprocessed.smi

> <i_m_source_file_index>
1809

> <i_lp_mmshare_version>
43012

> <i_f3d_flags>
0

> <s_epik_input>
W0NIM11jMW5uYyhzMSlbTkhdQyg9TylbTkhdW0NIMl1bQ0BIXShbQ0gyXTIpT1tDSDJdW0NAQEhdKE4yMylbQ0gyXVtDSDJdW0NIMl0z

> <s_epik_cmdline>
J2VwaWtfcHl0aG9uJywgJy1waCcsICc3LjAnLCAnLXRuJywgJzgnLCAnLW1hJywgJzIwMCcsICctbWV0YWxfYmluZGluZycsICctaW1hZScsICc8aW5maWxlLm1hZT4nLCAnLW9tYWUnLCAnPG91dGZpbGUubWFlPic=

> <r_lp_tautomer_probability>
1

> <r_epik_Ionization_Penalty>
3.2601

> <r_epik_Ionization_Penalty_Charging>
3.1406

> <r_epik_Ionization_Penalty_Neutral>
0.119497

> <r_epik_State_Penalty>
3.08894

> <r_epik_Charging_Adjusted_Penalty>
6.22954

> <i_epik_Tot_Q>
0

> <i_epik_Tot_abs_Q>
2

> <r_epik_Metal_State_Penalty>
0.510807

> <b_epik_Metal_Only>
1

> <s_lp_Force_Field>
OPLS_2005

> <r_lp_Energy>
31.1042

> <b_lp_Chiralities_Consistent>
1

> <s_lp_Variant>
AV-unprocessed.smi:1809-19

> <Gold.Version>
5.8.1

> <Gold.Id.Protein>
6NUR|6NUR_protein|mol2

> <Gold.PLP.Fitness>
40.2040

> <Gold.PLP.PLP>
-30.3644

> <Gold.PLP.part.hbond>
-4.0000

> <Gold.PLP.part.metal>
0.0000

> <Gold.PLP.part.buried>
-5.5500

> <Gold.PLP.part.nonpolar>
-22.0860

> <Gold.PLP.part.repulsive>
0.2036

> <Gold.PLP.ligand.clash>
0.0000

> <Gold.PLP.ligand.torsion>
0.3886

> <Gold.PLP.Chemscore.Hbond>
3.5280

> <Gold.PLP.Chemscore.CHOScore>
0.0000

> <Gold.PLP.Chemscore.Metal>
0.0000

> <Gold.Chemscore.Hbonds>
donor molecule, donor type, donor heavy atom, donor atom, acceptor molecule, acceptor atom, score
      P1  H  6896  6907       L1     8  0.67
      P1  H  6931  6943       L1     4  0.82
      P1  H  6934  6947       L1     4  0.90
      P1  H  7989  7998       L1    19  0.90

> <Gold.PLP.Chemscore.Internal.Correction>
0.0328

> <Gold.Rescore>
     Score         DG    S(hbond)    S(metal)    S(lipo)     H(rot)  DE(clash)    DE(int)     intcor
     14.98     -19.13       2.86        0.00      64.06       1.32       0.01       4.13       ----

> <Gold.Chemscore.Fitness>
14.9843

> <Gold.Chemscore.DG>
-19.1297

> <Gold.Chemscore.ZeroCoef>
-5.4800

> <Gold.Chemscore.Hbond>
2.8579

> <Gold.Chemscore.Metal>
0.0000

> <Gold.Chemscore.Lipo>
64.0630

> <Gold.Chemscore.Internal_Hbond>
0.0000

> <Gold.Chemscore.DEClash>
0.0121

> <Gold.Chemscore.DEInternal>
4.1332

> <Gold.Chemscore.Rot>
1.3246

> <Gold.Chemscore.Internal.Correction>
   9.000000E+99

> <Gold.Chemscore.Hbonds>
donor molecule, donor type, donor heavy atom, donor atom, acceptor molecule, acceptor atom, score
      P1  H  6896  6907       L1     8  0.66
      P1  H  6931  6943       L1     4  0.41
      P1  H  6934  6947       L1     4  0.85
      P1  H  7989  7998       L1    19  0.17

> <Gold.Chemscore.Hbond.Weighted>
-9.5453

> <Gold.Chemscore.Metal.Weighted>
-0.0000

> <Gold.Chemscore.Lipo.Weighted>
-7.4954

> <Gold.Chemscore.Internal_Hbond.Weighted>
0.0000

> <Gold.Chemscore.DEClash.Weighted>
0.0121

> <Gold.Chemscore.DEInternal.Weighted>
4.1332

> <Gold.Chemscore.Rot.Weighted>
3.3910

> <Gold.Chemscore.Internal.Correction.Weighted>
   9.000000E+99

> <Gold.Protein.RotatedTorsions>
[ 6907 6896 6895 6894 ] final  -68.58 input  -60.11 | X-H torsion
[ 7974 7965 7964 7962 ] final  143.66 input  175.53 | X-H torsion
[ 8008 7997 7996 7995 ] final  166.05 input   59.86 | X-H torsion
[ 10167 10162 10161 10158 ] final  154.57 input  -65.29 | X-H torsion
[ 10718 10713 10712 10709 ] final -104.20 input   66.30 | X-H torsion
[ 10763 10752 10751 10750 ] final  -27.84 input  -60.55 | X-H torsion
[ 11005 11000 10999 10996 ] final   55.56 input  -57.11 | X-H torsion

> <Gold.Protein.ActiveResidues>
 VAL166  LYS551  ARG553  GLY616  TRP617  ASP618  TYR619  PRO620  LYS621  CYS622 
 ASP623  PHE694  ASN695  SER759  ASP760  ASP761  ALA762  ILE779  LEU786  VAL792 
 PHE793  MET794  SER795  GLU796  ALA797  LYS798  CYS799  TRP800  GLU811  SER814 

> <Gold.Protein.RotatedAtoms>
  150.7349  134.5719  159.5894 H   0  0  0  0  0  0  0  0  0  0  0  0  # atno 6907 bound_to 6896
  152.3155  134.7441  160.0335 H   0  0  0  0  0  0  0  0  0  0  0  0  # atno 6908 bound_to 6896
  151.7975  133.3330  159.3554 H   0  0  0  0  0  0  0  0  0  0  0  0  # atno 6909 bound_to 6896
  144.8902  139.5570  143.5802 H   0  0  0  0  0  0  0  0  0  0  0  0  # atno 7974 bound_to 7965
  156.1750  140.1653  156.8379 H   0  0  0  0  0  0  0  0  0  0  0  0  # atno 8008 bound_to 7997
  154.5297  140.0759  156.8357 H   0  0  0  0  0  0  0  0  0  0  0  0  # atno 8009 bound_to 7997
  155.3432  140.3386  155.4241 H   0  0  0  0  0  0  0  0  0  0  0  0  # atno 8010 bound_to 7997
  139.4823  144.5175  151.7929 H   0  0  0  0  0  0  0  0  0  0  0  0  # atno 10167 bound_to 10162
  156.0295  130.5503  150.7362 H   0  0  0  0  0  0  0  0  0  0  0  0  # atno 10718 bound_to 10713
  153.7387  135.6934  153.4972 H   0  0  0  0  0  0  0  0  0  0  0  0  # atno 10763 bound_to 10752
  153.2084  135.4411  155.0350 H   0  0  0  0  0  0  0  0  0  0  0  0  # atno 10764 bound_to 10752
  154.8228  135.3431  154.6913 H   0  0  0  0  0  0  0  0  0  0  0  0  # atno 10765 bound_to 10752
  140.0598  134.5619  155.9166 H   0  0  0  0  0  0  0  0  0  0  0  0  # atno 11005 bound_to 11000
  146.3049  139.7547  142.9064 LP  0  0  0  0  0  0  0  0  0  0  0  0  # atno 17320 bound_to 7965
  145.3797  141.0356  143.3184 LP  0  0  0  0  0  0  0  0  0  0  0  0  # atno 17321 bound_to 7965
  140.4685  144.1621  150.5915 LP  0  0  0  0  0  0  0  0  0  0  0  0  # atno 17342 bound_to 10162
  140.4408  143.2527  151.9475 LP  0  0  0  0  0  0  0  0  0  0  0  0  # atno 17343 bound_to 10162
  157.4942  131.0913  151.0391 LP  0  0  0  0  0  0  0  0  0  0  0  0  # atno 17370 bound_to 10713
  157.0790  130.5895  149.5417 LP  0  0  0  0  0  0  0  0  0  0  0  0  # atno 17371 bound_to 10713
  141.1968  133.6593  156.5709 LP  0  0  0  0  0  0  0  0  0  0  0  0  # atno 17394 bound_to 11000
  140.3788  134.7541  157.4647 LP  0  0  0  0  0  0  0  0  0  0  0  0  # atno 17395 bound_to 11000

$$$$
