AV-unprocessed.smi:158|AV-procd|sdf|1325|dock9
  -GOLD-   2262019 23D 1   1.00000     0.00000
 Structure written by MMmdl.
 31 33  0  0  0  0  0  0  0  0  1 V2000
  144.4357  142.0903  155.0011 N   0  0  0  0  0  0  0  0  0  0  0  0
  145.6155  142.0725  155.6366 C   0  0  0  0  0  0  0  0  0  0  0  0
  145.7089  142.6876  156.8384 N   0  0  0  0  0  0  0  0  0  0  0  0
  146.8693  142.6938  157.5058 C   0  0  0  0  0  0  0  0  0  0  0  0
  146.8761  143.5062  159.0262 Cl  0  0  0  0  0  0  0  0  0  0  0  0
  148.0255  142.1402  157.1262 N   0  0  0  0  0  0  0  0  0  0  0  0
  147.9356  141.5183  155.9146 C   0  0  0  0  0  0  0  0  0  0  0  0
  146.7682  141.4412  155.1092 C   0  0  0  0  0  0  0  0  0  0  0  0
  147.0410  140.7365  153.9445 N   0  0  0  0  0  0  0  0  0  0  0  0
  148.3029  140.4183  154.0593 C   0  0  0  0  0  0  0  0  0  0  0  0
  148.9196  140.8503  155.2131 N   0  0  0  0  0  0  0  0  0  0  0  0
  150.3444  140.6401  155.6190 C   0  0  2  0  0  0  0  0  0  0  0  0
  151.0055  139.9136  154.6263 O   0  0  0  0  0  0  0  0  0  0  0  0
  151.6407  138.7678  155.1899 C   0  0  1  0  0  0  0  0  0  0  0  0
  152.9612  138.4595  154.4635 C   0  0  0  0  0  0  0  0  0  0  0  0
  153.8393  139.5615  154.5509 O   0  0  0  0  0  0  0  0  0  0  0  0
  151.7251  139.0487  156.6988 C   0  0  1  0  0  0  0  0  0  0  0  0
  152.8798  139.7860  157.0547 O   0  0  0  0  0  0  0  0  0  0  0  0
  150.4715  139.8658  156.9396 C   0  0  2  0  0  0  0  0  0  0  0  0
  149.4297  139.0506  157.1211 F   0  0  0  0  0  0  0  0  0  0  0  0
  150.7742  141.6410  155.6736 H   0  0  0  0  0  0  0  0  0  0  0  0
  150.9542  137.9330  155.0388 H   0  0  0  0  0  0  0  0  0  0  0  0
  151.7259  138.1254  157.2794 H   0  0  0  0  0  0  0  0  0  0  0  0
  150.5237  140.5386  157.7963 H   0  0  0  0  0  0  0  0  0  0  0  0
  144.3421  141.6385  154.1026 H   0  0  0  0  0  0  0  0  0  0  0  0
  143.6444  142.5579  155.4188 H   0  0  0  0  0  0  0  0  0  0  0  0
  148.8235  139.8561  153.2978 H   0  0  0  0  0  0  0  0  0  0  0  0
  153.4449  137.5990  154.9261 H   0  0  0  0  0  0  0  0  0  0  0  0
  152.7932  138.2038  153.4172 H   0  0  0  0  0  0  0  0  0  0  0  0
  153.8481  140.0053  153.7164 H   0  0  0  0  0  0  0  0  0  0  0  0
  152.6065  140.5471  157.5446 H   0  0  0  0  0  0  0  0  0  0  0  0
  1  2  1  0  0  0  0
  1 25  1  0  0  0  0
  1 26  1  0  0  0  0
  2  8  1  0  0  0  0
  2  3  2  0  0  0  0
  3  4  1  0  0  0  0
  4  5  1  0  0  0  0
  4  6  2  0  0  0  0
  6  7  1  0  0  0  0
  7 11  1  0  0  0  0
  7  8  2  0  0  0  0
  8  9  1  0  0  0  0
  9 10  2  0  0  0  0
 10 11  1  0  0  0  0
 10 27  1  0  0  0  0
 11 12  1  0  0  0  0
 12 21  1  0  0  0  0
 12 19  1  0  0  0  0
 12 13  1  0  0  0  0
 13 14  1  0  0  0  0
 14 22  1  0  0  0  0
 14 15  1  0  0  0  0
 14 17  1  0  0  0  0
 15 16  1  0  0  0  0
 15 28  1  0  0  0  0
 15 29  1  0  0  0  0
 16 30  1  0  0  0  0
 17 23  1  0  0  0  0
 17 18  1  0  0  0  0
 17 19  1  0  0  0  0
 18 31  1  0  0  0  0
 19 24  1  0  0  0  0
 19 20  1  0  0  0  0
M  END
> <s_m_source_file>
AV-unprocessed.smi

> <i_m_source_file_index>
158

> <i_lp_mmshare_version>
43012

> <i_f3d_flags>
0

> <s_epik_input>
Q2xjKG4xKW5jKFtOSDJdKWMoYzEyKW5bY0hdbjJbQ0BASF0zT1tDQEhdKFtDSDJdW09IXSlbQ0BASF0oW09IXSlbQ0BASF0zRg==

> <s_epik_cmdline>
J2VwaWtfcHl0aG9uJywgJy1waCcsICc3LjAnLCAnLXRuJywgJzgnLCAnLW1hJywgJzIwMCcsICctbWV0YWxfYmluZGluZycsICctaW1hZScsICc8aW5maWxlLm1hZT4nLCAnLW9tYWUnLCAnPG91dGZpbGUubWFlPic=

> <r_lp_tautomer_probability>
1

> <r_epik_Ionization_Penalty>
6.51543e-05

> <r_epik_Ionization_Penalty_Charging>
0

> <r_epik_Ionization_Penalty_Neutral>
6.51543e-05

> <r_epik_State_Penalty>
-0

> <r_epik_Charging_Adjusted_Penalty>
0

> <i_epik_Tot_Q>
0

> <i_epik_Tot_abs_Q>
0

> <r_epik_Metal_State_Penalty>
-0

> <b_epik_Metal_Only>
0

> <s_epik_Chemistry_Notes>
This compound contains an acetal/aminal-like group ( X-CH(R)-Y where X, Y are N, S, or O) that may be acid/base labile, releasing an aldehyde.

> <s_lp_Force_Field>
OPLS_2005

> <r_lp_Energy>
35.164

> <b_lp_Chiralities_Consistent>
1

> <s_lp_Variant>
AV-unprocessed.smi:158-3

> <Gold.Version>
5.8.1

> <Gold.Id.Protein>
6NUR|6NUR_protein|mol2

> <Gold.PLP.Fitness>
38.3338

> <Gold.PLP.PLP>
-25.3459

> <Gold.PLP.part.hbond>
-4.5535

> <Gold.PLP.part.metal>
0.0000

> <Gold.PLP.part.buried>
-4.1241

> <Gold.PLP.part.nonpolar>
-18.3999

> <Gold.PLP.part.repulsive>
0.4864

> <Gold.PLP.ligand.clash>
0.0000

> <Gold.PLP.ligand.torsion>
0.0012

> <Gold.PLP.Chemscore.Hbond>
3.3300

> <Gold.PLP.Chemscore.CHOScore>
1.0000

> <Gold.PLP.Chemscore.Metal>
0.0000

> <Gold.Chemscore.Hbonds>
donor molecule, donor type, donor heavy atom, donor atom, acceptor molecule, acceptor atom, score
      L1  H     1    25       P1 10175  0.77
      P1  H  7989  7998       L1    13  1.00
      P1  H  7997  8008       L1    18  0.41
      P1  H  7997  8009       L1    16  1.00
      L1  C    10    27       P1  7957  1.00

> <Gold.PLP.Chemscore.Internal.Correction>
0.0002

> <Gold.Rescore>
     Score         DG    S(hbond)    S(metal)    S(lipo)     H(rot)  DE(clash)    DE(int)     intcor
     10.29     -10.46       2.83        0.00      30.00       3.12       0.15       0.03       ----

> <Gold.Chemscore.Fitness>
10.2889

> <Gold.Chemscore.DG>
-10.4633

> <Gold.Chemscore.ZeroCoef>
-5.4800

> <Gold.Chemscore.Hbond>
2.8349

> <Gold.Chemscore.Metal>
0.0000

> <Gold.Chemscore.Lipo>
29.9987

> <Gold.Chemscore.Internal_Hbond>
0.0000

> <Gold.Chemscore.DEClash>
0.1455

> <Gold.Chemscore.DEInternal>
0.0290

> <Gold.Chemscore.Rot>
3.1230

> <Gold.Chemscore.Internal.Correction>
   9.000000E+99

> <Gold.Chemscore.Hbonds>
donor molecule, donor type, donor heavy atom, donor atom, acceptor molecule, acceptor atom, score
      L1  H     1    25       P1 10175  0.13
      P1  H  7989  7998       L1    13  0.81
      P1  H  7997  8008       L1    18  0.09
      P1  H  7997  8009       L1    16  0.61

> <Gold.Chemscore.Hbond.Weighted>
-9.4684

> <Gold.Chemscore.Metal.Weighted>
-0.0000

> <Gold.Chemscore.Lipo.Weighted>
-3.5098

> <Gold.Chemscore.Internal_Hbond.Weighted>
0.0000

> <Gold.Chemscore.DEClash.Weighted>
0.1455

> <Gold.Chemscore.DEInternal.Weighted>
0.0290

> <Gold.Chemscore.Rot.Weighted>
7.9950

> <Gold.Chemscore.Internal.Correction.Weighted>
   9.000000E+99

> <Gold.Protein.RotatedTorsions>
[ 6907 6896 6895 6894 ] final   28.56 input  -60.11 | X-H torsion
[ 7974 7965 7964 7962 ] final  107.05 input  175.53 | X-H torsion
[ 8008 7997 7996 7995 ] final -100.24 input   59.86 | X-H torsion
[ 10167 10162 10161 10158 ] final   25.03 input  -65.29 | X-H torsion
[ 10718 10713 10712 10709 ] final  164.60 input   66.30 | X-H torsion
[ 10763 10752 10751 10750 ] final   81.23 input  -60.55 | X-H torsion
[ 11005 11000 10999 10996 ] final   87.98 input  -57.11 | X-H torsion

> <Gold.Protein.ActiveResidues>
 VAL166  LYS551  ARG553  GLY616  TRP617  ASP618  TYR619  PRO620  LYS621  CYS622 
 ASP623  PHE694  ASN695  SER759  ASP760  ASP761  ALA762  ILE779  LEU786  VAL792 
 PHE793  MET794  SER795  GLU796  ALA797  LYS798  CYS799  TRP800  GLU811  SER814 

> <Gold.Protein.RotatedAtoms>
  152.0187  134.9835  160.0569 H   0  0  0  0  0  0  0  0  0  0  0  0  # atno 6907 bound_to 6896
  152.1358  133.4430  159.4751 H   0  0  0  0  0  0  0  0  0  0  0  0  # atno 6908 bound_to 6896
  150.6860  134.2284  159.4468 H   0  0  0  0  0  0  0  0  0  0  0  0  # atno 6909 bound_to 6896
  145.2986  139.2577  143.3826 H   0  0  0  0  0  0  0  0  0  0  0  0  # atno 7974 bound_to 7965
  154.8259  140.0442  157.1443 H   0  0  0  0  0  0  0  0  0  0  0  0  # atno 8008 bound_to 7997
  154.9207  140.3026  155.5197 H   0  0  0  0  0  0  0  0  0  0  0  0  # atno 8009 bound_to 7997
  156.2983  140.2341  156.4257 H   0  0  0  0  0  0  0  0  0  0  0  0  # atno 8010 bound_to 7997
  140.5140  144.0114  150.6385 H   0  0  0  0  0  0  0  0  0  0  0  0  # atno 10167 bound_to 10162
  157.0920  131.0420  151.2533 H   0  0  0  0  0  0  0  0  0  0  0  0  # atno 10718 bound_to 10713
  153.1099  135.4773  154.9017 H   0  0  0  0  0  0  0  0  0  0  0  0  # atno 10763 bound_to 10752
  154.7470  135.3096  154.8629 H   0  0  0  0  0  0  0  0  0  0  0  0  # atno 10764 bound_to 10752
  153.9221  135.6854  153.4801 H   0  0  0  0  0  0  0  0  0  0  0  0  # atno 10765 bound_to 10752
  139.8907  134.8457  156.2935 H   0  0  0  0  0  0  0  0  0  0  0  0  # atno 11005 bound_to 11000
  146.3160  140.3495  142.8655 LP  0  0  0  0  0  0  0  0  0  0  0  0  # atno 17320 bound_to 7965
  144.9112  140.7760  143.5806 LP  0  0  0  0  0  0  0  0  0  0  0  0  # atno 17321 bound_to 7965
  140.3444  143.3000  152.0554 LP  0  0  0  0  0  0  0  0  0  0  0  0  # atno 17342 bound_to 10162
  139.4904  144.6419  151.6859 LP  0  0  0  0  0  0  0  0  0  0  0  0  # atno 17343 bound_to 10162
  157.4713  130.7710  149.7326 LP  0  0  0  0  0  0  0  0  0  0  0  0  # atno 17370 bound_to 10713
  155.9895  130.3951  150.3068 LP  0  0  0  0  0  0  0  0  0  0  0  0  # atno 17371 bound_to 10713
  140.9960  133.7180  156.0887 LP  0  0  0  0  0  0  0  0  0  0  0  0  # atno 17394 bound_to 11000
  140.7561  134.3991  157.5533 LP  0  0  0  0  0  0  0  0  0  0  0  0  # atno 17395 bound_to 11000

$$$$
