AV-unprocessed.smi:276|AV-procd|sdf|2076|dock2
  -GOLD-   2262021343D 1   1.00000     0.00000
 Structure written by MMmdl.
 57 61  0  0  0  0  0  0  0  0  1 V2000
  149.2307  130.4097  155.0145 C   0  0  0  0  0  0  0  0  0  0  0  0
  149.8686  131.3879  155.8167 O   0  0  0  0  0  0  0  0  0  0  0  0
  150.2998  132.5123  155.0672 C   0  0  2  0  0  0  0  0  0  0  0  0
  150.7185  133.7160  155.9189 C   0  0  0  0  0  0  0  0  0  0  0  0
  150.0504  134.5992  154.8570 C   0  0  2  0  0  0  0  0  0  0  0  0
  149.3915  135.7771  155.4271 N   0  0  0  0  0  0  0  0  0  0  0  0
  148.6954  135.5716  156.6908 C   0  0  0  0  0  0  0  0  0  0  0  0
  150.1303  136.9086  155.4776 C   0  0  0  0  0  0  0  0  0  0  0  0
  151.3978  136.8358  154.9996 N   0  0  0  0  0  0  0  0  0  0  0  0
  152.1942  137.9076  155.0459 C   0  0  0  0  0  0  0  0  0  0  0  0
  151.9252  139.1278  155.5151 N   0  0  0  0  0  0  0  0  0  0  0  0
  150.6428  139.2106  155.9713 C   0  0  0  0  0  0  0  0  0  0  0  0
  149.6795  138.1629  155.9803 C   0  0  0  0  0  0  0  0  0  0  0  0
  148.4786  138.6314  156.5013 N   0  0  0  0  0  0  0  0  0  0  0  0
  148.7261  139.8754  156.8070 C   0  0  0  0  0  0  0  0  0  0  0  0
  150.0049  140.3018  156.5309 N   0  0  0  0  0  0  0  0  0  0  0  0
  150.5573  141.6193  156.7827 C   0  0  0  0  0  0  0  0  0  0  0  0
  150.7578  141.9109  158.2850 C   0  0  1  0  0  0  0  0  0  0  0  0
  151.8721  141.1531  158.7115 O   0  0  0  0  0  0  0  0  0  0  0  0
  150.9945  143.4012  158.6182 C   0  0  2  0  0  0  0  0  0  0  0  0
  152.1613  144.0438  157.8679 C   0  0  0  0  0  0  0  0  0  0  0  0
  152.4779  145.2596  158.7176 C   0  0  0  0  0  0  0  0  0  0  0  0
  151.9962  144.8571  160.1132 C   0  0  0  0  0  0  0  0  0  0  0  0
  151.4137  143.5671  159.9661 O   0  0  0  0  0  0  0  0  0  0  0  0
  149.1470  133.3799  154.5257 C   0  0  0  0  0  0  0  0  0  0  0  0
  148.5960  133.1409  153.1139 C   0  0  0  0  0  0  0  0  0  0  0  0
  147.1828  133.4037  153.6436 C   0  0  0  0  0  0  0  0  0  0  0  0
  147.7126  133.2152  155.0692 C   0  0  0  0  0  0  0  0  0  0  0  0
  148.9196  129.5720  155.6382 H   0  0  0  0  0  0  0  0  0  0  0  0
  149.9028  130.0249  154.2466 H   0  0  0  0  0  0  0  0  0  0  0  0
  148.3422  130.8171  154.5303 H   0  0  0  0  0  0  0  0  0  0  0  0
  151.0261  132.2674  154.2886 H   0  0  0  0  0  0  0  0  0  0  0  0
  150.2167  133.7440  156.8882 H   0  0  0  0  0  0  0  0  0  0  0  0
  151.7956  133.8531  156.0158 H   0  0  0  0  0  0  0  0  0  0  0  0
  150.7499  134.8238  154.0507 H   0  0  0  0  0  0  0  0  0  0  0  0
  149.3983  135.2943  157.4776 H   0  0  0  0  0  0  0  0  0  0  0  0
  147.9574  134.7746  156.5990 H   0  0  0  0  0  0  0  0  0  0  0  0
  148.1674  136.4738  157.0032 H   0  0  0  0  0  0  0  0  0  0  0  0
  153.1914  137.7655  154.6565 H   0  0  0  0  0  0  0  0  0  0  0  0
  147.9812  140.5165  157.2555 H   0  0  0  0  0  0  0  0  0  0  0  0
  151.5073  141.6958  156.2519 H   0  0  0  0  0  0  0  0  0  0  0  0
  149.8915  142.3610  156.3390 H   0  0  0  0  0  0  0  0  0  0  0  0
  149.8911  141.5557  158.8436 H   0  0  0  0  0  0  0  0  0  0  0  0
  152.3469  141.6562  159.3555 H   0  0  0  0  0  0  0  0  0  0  0  0
  150.0844  143.9806  158.4506 H   0  0  0  0  0  0  0  0  0  0  0  0
  153.0182  143.3684  157.8543 H   0  0  0  0  0  0  0  0  0  0  0  0
  151.9157  144.3018  156.8372 H   0  0  0  0  0  0  0  0  0  0  0  0
  153.5389  145.5104  158.6957 H   0  0  0  0  0  0  0  0  0  0  0  0
  151.9182  146.1270  158.3645 H   0  0  0  0  0  0  0  0  0  0  0  0
  152.8137  144.8188  160.8332 H   0  0  0  0  0  0  0  0  0  0  0  0
  151.2491  145.5594  160.4848 H   0  0  0  0  0  0  0  0  0  0  0  0
  148.9351  133.8531  152.3623 H   0  0  0  0  0  0  0  0  0  0  0  0
  148.7315  132.1118  152.7789 H   0  0  0  0  0  0  0  0  0  0  0  0
  146.8358  134.4172  153.4426 H   0  0  0  0  0  0  0  0  0  0  0  0
  146.4440  132.6630  153.3369 H   0  0  0  0  0  0  0  0  0  0  0  0
  147.5055  132.2134  155.4464 H   0  0  0  0  0  0  0  0  0  0  0  0
  147.3859  133.9735  155.7797 H   0  0  0  0  0  0  0  0  0  0  0  0
  1  2  1  0  0  0  0
  1 29  1  0  0  0  0
  1 30  1  0  0  0  0
  1 31  1  0  0  0  0
  2  3  1  0  0  0  0
  3 25  1  0  0  0  0
  3  4  1  0  0  0  0
  3 32  1  0  0  0  0
  4  5  1  0  0  0  0
  4 33  1  0  0  0  0
  4 34  1  0  0  0  0
  5  6  1  0  0  0  0
  5 25  1  0  0  0  0
  5 35  1  0  0  0  0
  6  7  1  0  0  0  0
  6  8  1  0  0  0  0
  7 36  1  0  0  0  0
  7 37  1  0  0  0  0
  7 38  1  0  0  0  0
  8 13  1  0  0  0  0
  8  9  2  0  0  0  0
  9 10  1  0  0  0  0
 10 11  2  0  0  0  0
 10 39  1  0  0  0  0
 11 12  1  0  0  0  0
 12 16  1  0  0  0  0
 12 13  2  0  0  0  0
 13 14  1  0  0  0  0
 14 15  2  0  0  0  0
 15 16  1  0  0  0  0
 15 40  1  0  0  0  0
 16 17  1  0  0  0  0
 17 18  1  0  0  0  0
 17 41  1  0  0  0  0
 17 42  1  0  0  0  0
 18 19  1  0  0  0  0
 18 20  1  0  0  0  0
 18 43  1  0  0  0  0
 19 44  1  0  0  0  0
 20 24  1  0  0  0  0
 20 21  1  0  0  0  0
 20 45  1  0  0  0  0
 21 22  1  0  0  0  0
 21 46  1  0  0  0  0
 21 47  1  0  0  0  0
 22 23  1  0  0  0  0
 22 48  1  0  0  0  0
 22 49  1  0  0  0  0
 23 24  1  0  0  0  0
 23 50  1  0  0  0  0
 23 51  1  0  0  0  0
 25 28  1  0  0  0  0
 25 26  1  0  0  0  0
 26 27  1  0  0  0  0
 26 52  1  0  0  0  0
 26 53  1  0  0  0  0
 27 28  1  0  0  0  0
 27 54  1  0  0  0  0
 27 55  1  0  0  0  0
 28 56  1  0  0  0  0
 28 57  1  0  0  0  0
M  END
> <s_m_source_file>
AV-unprocessed.smi

> <i_m_source_file_index>
276

> <i_lp_mmshare_version>
43012

> <i_f3d_flags>
0

> <s_epik_input>
W0NIMl0xW0NIMl1bQ0gyXUMxMltDQEhdKE9bQ0gzXSlbQ0gyXVtDQEhdMk4oW0NIM10pYyhuW2NIXW4zKWMoYzM0KW5bY0hdbjRbQ0gyXVtDQEhdKFtPSF0pW0NAQEhdNVtDSDJdW0NIMl1bQ0gyXU81

> <s_epik_cmdline>
J2VwaWtfcHl0aG9uJywgJy1waCcsICc3LjAnLCAnLXRuJywgJzgnLCAnLW1hJywgJzIwMCcsICctbWV0YWxfYmluZGluZycsICctaW1hZScsICc8aW5maWxlLm1hZT4nLCAnLW9tYWUnLCAnPG91dGZpbGUubWFlPic=

> <r_lp_tautomer_probability>
1

> <r_epik_Ionization_Penalty>
0.00204117

> <r_epik_Ionization_Penalty_Charging>
0

> <r_epik_Ionization_Penalty_Neutral>
0.00204117

> <r_epik_State_Penalty>
0.00127401

> <r_epik_Charging_Adjusted_Penalty>
0.00127401

> <i_epik_Tot_Q>
0

> <i_epik_Tot_abs_Q>
0

> <r_epik_Metal_State_Penalty>
-0

> <b_epik_Metal_Only>
0

> <s_lp_Force_Field>
OPLS_2005

> <r_lp_Energy>
54.0539

> <b_lp_Chiralities_Consistent>
1

> <s_lp_Variant>
AV-unprocessed.smi:276-7

> <Gold.Version>
5.8.1

> <Gold.Id.Protein>
6NUR|6NUR_protein|mol2

> <Gold.PLP.Fitness>
44.7059

> <Gold.PLP.PLP>
-42.9364

> <Gold.PLP.part.hbond>
-1.1698

> <Gold.PLP.part.metal>
0.0000

> <Gold.PLP.part.buried>
-7.5316

> <Gold.PLP.part.nonpolar>
-34.0710

> <Gold.PLP.part.repulsive>
0.3063

> <Gold.PLP.ligand.clash>
0.0000

> <Gold.PLP.ligand.torsion>
0.8577

> <Gold.PLP.Chemscore.Hbond>
0.8500

> <Gold.PLP.Chemscore.CHOScore>
0.0000

> <Gold.PLP.Chemscore.Metal>
0.0000

> <Gold.Chemscore.Hbonds>
donor molecule, donor type, donor heavy atom, donor atom, acceptor molecule, acceptor atom, score
      P1  H 10752 10764       L1     9  0.60

> <Gold.PLP.Chemscore.Internal.Correction>
0.9348

> <Gold.Rescore>
     Score         DG    S(hbond)    S(metal)    S(lipo)     H(rot)  DE(clash)    DE(int)     intcor
      9.50     -10.78       0.00        0.00     104.62       2.72       0.05       1.22       ----

> <Gold.Chemscore.Fitness>
9.5044

> <Gold.Chemscore.DG>
-10.7779

> <Gold.Chemscore.ZeroCoef>
-5.4800

> <Gold.Chemscore.Hbond>
0.0040

> <Gold.Chemscore.Metal>
0.0000

> <Gold.Chemscore.Lipo>
104.6203

> <Gold.Chemscore.Internal_Hbond>
0.0000

> <Gold.Chemscore.DEClash>
0.0498

> <Gold.Chemscore.DEInternal>
1.2237

> <Gold.Chemscore.Rot>
2.7172

> <Gold.Chemscore.Internal.Correction>
   9.000000E+99

> <Gold.Chemscore.Hbonds>
donor molecule, donor type, donor heavy atom, donor atom, acceptor molecule, acceptor atom, score
      P1  H 10752 10764       L1     9  0.04

> <Gold.Chemscore.Hbond.Weighted>
-0.0133

> <Gold.Chemscore.Metal.Weighted>
-0.0000

> <Gold.Chemscore.Lipo.Weighted>
-12.2406

> <Gold.Chemscore.Internal_Hbond.Weighted>
0.0000

> <Gold.Chemscore.DEClash.Weighted>
0.0498

> <Gold.Chemscore.DEInternal.Weighted>
1.2237

> <Gold.Chemscore.Rot.Weighted>
6.9560

> <Gold.Chemscore.Internal.Correction.Weighted>
   9.000000E+99

> <Gold.Protein.RotatedTorsions>
[ 6907 6896 6895 6894 ] final  -40.68 input  -60.11 | X-H torsion
[ 7974 7965 7964 7962 ] final   -0.46 input  175.53 | X-H torsion
[ 8008 7997 7996 7995 ] final -115.36 input   59.86 | X-H torsion
[ 10167 10162 10161 10158 ] final  179.47 input  -65.29 | X-H torsion
[ 10718 10713 10712 10709 ] final   63.26 input   66.30 | X-H torsion
[ 10763 10752 10751 10750 ] final  -68.40 input  -60.55 | X-H torsion
[ 11005 11000 10999 10996 ] final   21.66 input  -57.11 | X-H torsion

> <Gold.Protein.ActiveResidues>
 VAL166  LYS551  ARG553  GLY616  TRP617  ASP618  TYR619  PRO620  LYS621  CYS622 
 ASP623  PHE694  ASN695  SER759  ASP760  ASP761  ALA762  ILE779  LEU786  VAL792 
 PHE793  MET794  SER795  GLU796  ALA797  LYS798  CYS799  TRP800  GLU811  SER814 

> <Gold.Protein.RotatedAtoms>
  150.9756  134.9121  159.7813 H   0  0  0  0  0  0  0  0  0  0  0  0  # atno 6907 bound_to 6896
  152.5205  134.3481  159.9251 H   0  0  0  0  0  0  0  0  0  0  0  0  # atno 6908 bound_to 6896
  151.3489  133.3892  159.2713 H   0  0  0  0  0  0  0  0  0  0  0  0  # atno 6909 bound_to 6896
  146.2427  140.1274  142.8339 H   0  0  0  0  0  0  0  0  0  0  0  0  # atno 7974 bound_to 7965
  155.0508  140.0393  157.2543 H   0  0  0  0  0  0  0  0  0  0  0  0  # atno 8008 bound_to 7997
  154.7139  140.2698  155.6580 H   0  0  0  0  0  0  0  0  0  0  0  0  # atno 8009 bound_to 7997
  156.2797  140.2716  156.1789 H   0  0  0  0  0  0  0  0  0  0  0  0  # atno 8010 bound_to 7997
  139.5338  144.2558  152.0748 H   0  0  0  0  0  0  0  0  0  0  0  0  # atno 10167 bound_to 10162
  157.5959  130.9095  149.9693 H   0  0  0  0  0  0  0  0  0  0  0  0  # atno 10718 bound_to 10713
  154.3884  135.6058  153.5829 H   0  0  0  0  0  0  0  0  0  0  0  0  # atno 10763 bound_to 10752
  152.9787  135.5878  154.4327 H   0  0  0  0  0  0  0  0  0  0  0  0  # atno 10764 bound_to 10752
  154.4107  135.2844  155.2016 H   0  0  0  0  0  0  0  0  0  0  0  0  # atno 10765 bound_to 10752
  140.3891  134.1838  155.7662 H   0  0  0  0  0  0  0  0  0  0  0  0  # atno 11005 bound_to 11000
  145.0355  140.8905  143.5084 LP  0  0  0  0  0  0  0  0  0  0  0  0  # atno 17320 bound_to 7965
  145.1345  139.2611  143.5522 LP  0  0  0  0  0  0  0  0  0  0  0  0  # atno 17321 bound_to 7965
  140.2025  144.4644  150.6424 LP  0  0  0  0  0  0  0  0  0  0  0  0  # atno 17342 bound_to 10162
  140.6532  143.2230  151.6029 LP  0  0  0  0  0  0  0  0  0  0  0  0  # atno 17343 bound_to 10162
  156.1021  130.3655  150.0199 LP  0  0  0  0  0  0  0  0  0  0  0  0  # atno 17370 bound_to 10713
  156.8312  130.9393  151.3637 LP  0  0  0  0  0  0  0  0  0  0  0  0  # atno 17371 bound_to 10713
  141.1897  133.8233  157.0947 LP  0  0  0  0  0  0  0  0  0  0  0  0  # atno 17394 bound_to 11000
  140.0420  134.9849  157.0979 LP  0  0  0  0  0  0  0  0  0  0  0  0  # atno 17395 bound_to 11000

$$$$
