AV-unprocessed.smi:1069|AV-procd|sdf|4675|dock2
  -GOLD-   22720 3193D 1   1.00000     0.00000
 Structure written by MMmdl.
 54 55  0  0  0  0  0  0  0  0  1 V2000
  151.9275  139.2741  157.6474 C   0  0  0  0  0  0  0  0  0  0  0  0
  150.8398  138.8606  156.6421 C   0  0  0  0  0  0  0  0  0  0  0  0
  151.2105  137.5347  155.9513 C   0  0  0  0  0  0  0  0  0  0  0  0
  150.5963  139.9877  155.6153 C   0  0  0  0  0  0  0  0  0  0  0  0
  151.5046  140.2645  154.8296 O   0  0  0  0  0  0  0  0  0  0  0  0
  149.3962  140.6198  155.5711 N   0  0  0  0  0  0  0  0  0  0  0  0
  149.0205  141.5252  154.4783 C   0  0  0  0  0  0  0  0  0  0  0  0
  147.9376  140.8383  153.6253 C   0  0  0  0  0  0  0  0  0  0  0  0
  146.7224  140.4169  154.4814 C   0  0  0  0  0  0  0  0  0  0  0  0
  145.8193  139.5989  153.6775 N   0  0  0  0  0  0  0  0  0  0  0  0
  146.0460  138.3314  153.3050 C   0  0  0  0  0  0  0  0  0  0  0  0
  147.0695  137.7133  153.5943 O   0  0  0  0  0  0  0  0  0  0  0  0
  145.0211  137.8518  152.5801 N   0  0  0  0  0  0  0  0  0  0  0  0
  144.8537  136.5602  152.0105 C   0  0  0  0  0  0  0  0  0  0  0  0
  145.9673  135.9350  151.4150 C   0  0  0  0  0  0  0  0  0  0  0  0
  145.8845  134.7151  150.8444 N   0  0  0  0  0  0  0  0  0  0  0  0
  144.7014  134.0885  150.8859 C   0  0  0  0  0  0  0  0  0  0  0  0
  144.5770  132.7669  150.1078 C   0  0  0  0  0  0  0  0  0  0  0  0
  143.7165  132.9498  148.8355 C   0  0  0  0  0  0  0  0  0  0  0  0
  143.8632  131.6868  150.9545 C   0  0  0  0  0  0  0  0  0  0  0  0
  145.9796  132.2689  149.7148 C   0  0  0  0  0  0  0  0  0  0  0  0
  143.5731  134.6109  151.3835 N   0  0  0  0  0  0  0  0  0  0  0  0
  143.6412  135.8309  151.9578 C   0  0  0  0  0  0  0  0  0  0  0  0
  147.1604  139.6577  155.7566 C   0  0  0  0  0  0  0  0  0  0  0  0
  148.2734  140.4204  156.4952 C   0  0  0  0  0  0  0  0  0  0  0  0
  151.6694  140.2011  158.1605 H   0  0  0  0  0  0  0  0  0  0  0  0
  152.8890  139.4249  157.1545 H   0  0  0  0  0  0  0  0  0  0  0  0
  152.0645  138.5072  158.4101 H   0  0  0  0  0  0  0  0  0  0  0  0
  149.9155  138.6538  157.1795 H   0  0  0  0  0  0  0  0  0  0  0  0
  150.4648  137.2523  155.2071 H   0  0  0  0  0  0  0  0  0  0  0  0
  151.2689  136.7231  156.6769 H   0  0  0  0  0  0  0  0  0  0  0  0
  152.1776  137.5952  155.4504 H   0  0  0  0  0  0  0  0  0  0  0  0
  148.6389  142.4602  154.8911 H   0  0  0  0  0  0  0  0  0  0  0  0
  149.8640  141.8049  153.8460 H   0  0  0  0  0  0  0  0  0  0  0  0
  147.6176  141.5041  152.8230 H   0  0  0  0  0  0  0  0  0  0  0  0
  148.3720  139.9610  153.1432 H   0  0  0  0  0  0  0  0  0  0  0  0
  146.2030  141.3280  154.7851 H   0  0  0  0  0  0  0  0  0  0  0  0
  144.9529  140.0300  153.3904 H   0  0  0  0  0  0  0  0  0  0  0  0
  144.2683  138.4998  152.4003 H   0  0  0  0  0  0  0  0  0  0  0  0
  146.9328  136.4184  151.3877 H   0  0  0  0  0  0  0  0  0  0  0  0
  143.5854  132.0058  148.3053 H   0  0  0  0  0  0  0  0  0  0  0  0
  144.1724  133.6452  148.1297 H   0  0  0  0  0  0  0  0  0  0  0  0
  142.7233  133.3291  149.0789 H   0  0  0  0  0  0  0  0  0  0  0  0
  142.8751  132.0210  151.2730 H   0  0  0  0  0  0  0  0  0  0  0  0
  144.4295  131.4283  151.8499 H   0  0  0  0  0  0  0  0  0  0  0  0
  143.7300  130.7632  150.3899 H   0  0  0  0  0  0  0  0  0  0  0  0
  145.9286  131.3316  149.1598 H   0  0  0  0  0  0  0  0  0  0  0  0
  146.6000  132.0971  150.5950 H   0  0  0  0  0  0  0  0  0  0  0  0
  146.4958  132.9955  149.0865 H   0  0  0  0  0  0  0  0  0  0  0  0
  142.7092  136.2051  152.3492 H   0  0  0  0  0  0  0  0  0  0  0  0
  146.3081  139.5120  156.4211 H   0  0  0  0  0  0  0  0  0  0  0  0
  147.5213  138.6622  155.4928 H   0  0  0  0  0  0  0  0  0  0  0  0
  148.5460  139.9117  157.4178 H   0  0  0  0  0  0  0  0  0  0  0  0
  147.8987  141.3934  156.8165 H   0  0  0  0  0  0  0  0  0  0  0  0
  1  2  1  0  0  0  0
  1 26  1  0  0  0  0
  1 27  1  0  0  0  0
  1 28  1  0  0  0  0
  2  3  1  0  0  0  0
  2  4  1  0  0  0  0
  2 29  1  0  0  0  0
  3 30  1  0  0  0  0
  3 31  1  0  0  0  0
  3 32  1  0  0  0  0
  4  5  2  0  0  0  0
  4  6  1  0  0  0  0
  6 25  1  0  0  0  0
  6  7  1  0  0  0  0
  7  8  1  0  0  0  0
  7 33  1  0  0  0  0
  7 34  1  0  0  0  0
  8  9  1  0  0  0  0
  8 35  1  0  0  0  0
  8 36  1  0  0  0  0
  9 10  1  0  0  0  0
  9 24  1  0  0  0  0
  9 37  1  0  0  0  0
 10 11  1  0  0  0  0
 10 38  1  0  0  0  0
 11 12  2  0  0  0  0
 11 13  1  0  0  0  0
 13 14  1  0  0  0  0
 13 39  1  0  0  0  0
 14 23  1  0  0  0  0
 14 15  2  0  0  0  0
 15 16  1  0  0  0  0
 15 40  1  0  0  0  0
 16 17  2  0  0  0  0
 17 18  1  0  0  0  0
 17 22  1  0  0  0  0
 18 19  1  0  0  0  0
 18 20  1  0  0  0  0
 18 21  1  0  0  0  0
 19 41  1  0  0  0  0
 19 42  1  0  0  0  0
 19 43  1  0  0  0  0
 20 44  1  0  0  0  0
 20 45  1  0  0  0  0
 20 46  1  0  0  0  0
 21 47  1  0  0  0  0
 21 48  1  0  0  0  0
 21 49  1  0  0  0  0
 22 23  2  0  0  0  0
 23 50  1  0  0  0  0
 24 25  1  0  0  0  0
 24 51  1  0  0  0  0
 24 52  1  0  0  0  0
 25 53  1  0  0  0  0
 25 54  1  0  0  0  0
M  END
> <s_m_source_file>
AV-unprocessed.smi

> <i_m_source_file_index>
1069

> <i_lp_mmshare_version>
43012

> <i_f3d_flags>
0

> <s_epik_input>
W0NIM11bQ0hdKFtDSDNdKUMoPU8pTjFbQ0gyXVtDSDJdW0NIXShbQ0gyXVtDSDJdMSlbTkhdQyg9TylbTkhdYzJbY0hdbmMoQyhbQ0gzXSkoW0NIM10pW0NIM10pbltjSF0y

> <s_epik_cmdline>
J2VwaWtfcHl0aG9uJywgJy1waCcsICc3LjAnLCAnLXRuJywgJzgnLCAnLW1hJywgJzIwMCcsICctbWV0YWxfYmluZGluZycsICctaW1hZScsICc8aW5maWxlLm1hZT4nLCAnLW9tYWUnLCAnPG91dGZpbGUubWFlPic=

> <r_lp_tautomer_probability>
1

> <r_epik_Ionization_Penalty>
2.58562e-05

> <r_epik_Ionization_Penalty_Charging>
0

> <r_epik_Ionization_Penalty_Neutral>
2.58562e-05

> <r_epik_State_Penalty>
-0

> <r_epik_Charging_Adjusted_Penalty>
0

> <i_epik_Tot_Q>
0

> <i_epik_Tot_abs_Q>
0

> <r_epik_Metal_State_Penalty>
-0

> <b_epik_Metal_Only>
0

> <s_lp_Force_Field>
OPLS_2005

> <r_lp_Energy>
23.7976

> <b_lp_Chiralities_Consistent>
1

> <s_lp_Variant>
AV-unprocessed.smi:1069-1

> <Gold.Version>
5.8.1

> <Gold.Id.Protein>
6NUR|6NUR_protein|mol2

> <Gold.PLP.Fitness>
46.0566

> <Gold.PLP.PLP>
-35.5394

> <Gold.PLP.part.hbond>
-3.8325

> <Gold.PLP.part.metal>
0.0000

> <Gold.PLP.part.buried>
-2.6100

> <Gold.PLP.part.nonpolar>
-32.3328

> <Gold.PLP.part.repulsive>
1.6034

> <Gold.PLP.ligand.clash>
0.0000

> <Gold.PLP.ligand.torsion>
0.7722

> <Gold.PLP.Chemscore.Hbond>
2.9440

> <Gold.PLP.Chemscore.CHOScore>
1.0000

> <Gold.PLP.Chemscore.Metal>
0.0000

> <Gold.Chemscore.Hbonds>
donor molecule, donor type, donor heavy atom, donor atom, acceptor molecule, acceptor atom, score
      L1  H    10    38       P1 10175  1.00
      L1  H    13    39       P1 10175  0.92
      P1  H  7989  7998       L1     5  0.83
      L1  C    15    40       P1  7948  1.00

> <Gold.PLP.Chemscore.Internal.Correction>
0.2296

> <Gold.Rescore>
     Score         DG    S(hbond)    S(metal)    S(lipo)     H(rot)  DE(clash)    DE(int)     intcor
     18.59     -22.26       2.83        0.00      91.99       1.34       1.85       1.83       ----

> <Gold.Chemscore.Fitness>
18.5862

> <Gold.Chemscore.DG>
-22.2576

> <Gold.Chemscore.ZeroCoef>
-5.4800

> <Gold.Chemscore.Hbond>
2.8253

> <Gold.Chemscore.Metal>
0.0000

> <Gold.Chemscore.Lipo>
91.9915

> <Gold.Chemscore.Internal_Hbond>
0.0000

> <Gold.Chemscore.DEClash>
1.8460

> <Gold.Chemscore.DEInternal>
1.8255

> <Gold.Chemscore.Rot>
1.3366

> <Gold.Chemscore.Internal.Correction>
   9.000000E+99

> <Gold.Chemscore.Hbonds>
donor molecule, donor type, donor heavy atom, donor atom, acceptor molecule, acceptor atom, score
      L1  H    10    38       P1 10175  0.99
      L1  H    13    39       P1 10175  0.84
      P1  H  7989  7998       L1     5  0.80

> <Gold.Chemscore.Hbond.Weighted>
-9.4364

> <Gold.Chemscore.Metal.Weighted>
-0.0000

> <Gold.Chemscore.Lipo.Weighted>
-10.7630

> <Gold.Chemscore.Internal_Hbond.Weighted>
0.0000

> <Gold.Chemscore.DEClash.Weighted>
1.8460

> <Gold.Chemscore.DEInternal.Weighted>
1.8255

> <Gold.Chemscore.Rot.Weighted>
3.4217

> <Gold.Chemscore.Internal.Correction.Weighted>
   9.000000E+99

> <Gold.Protein.RotatedTorsions>
[ 6907 6896 6895 6894 ] final  103.87 input  -60.11 | X-H torsion
[ 7974 7965 7964 7962 ] final  -83.17 input  175.53 | X-H torsion
[ 8008 7997 7996 7995 ] final  -38.08 input   59.86 | X-H torsion
[ 10167 10162 10161 10158 ] final -125.49 input  -65.29 | X-H torsion
[ 10718 10713 10712 10709 ] final  101.49 input   66.30 | X-H torsion
[ 10763 10752 10751 10750 ] final  106.86 input  -60.55 | X-H torsion
[ 11005 11000 10999 10996 ] final -176.01 input  -57.11 | X-H torsion

> <Gold.Protein.ActiveResidues>
 VAL166  LYS551  ARG553  GLY616  TRP617  ASP618  TYR619  PRO620  LYS621  CYS622 
 ASP623  PHE694  ASN695  SER759  ASP760  ASP761  ALA762  ILE779  LEU786  VAL792 
 PHE793  MET794  SER795  GLU796  ALA797  LYS798  CYS799  TRP800  GLU811  SER814 

> <Gold.Protein.RotatedAtoms>
  152.5282  133.9762  159.7784 H   0  0  0  0  0  0  0  0  0  0  0  0  # atno 6907 bound_to 6896
  151.0024  133.6035  159.2700 H   0  0  0  0  0  0  0  0  0  0  0  0  # atno 6908 bound_to 6896
  151.3139  135.0808  159.9335 H   0  0  0  0  0  0  0  0  0  0  0  0  # atno 6909 bound_to 6896
  145.5236  140.9529  143.1642 H   0  0  0  0  0  0  0  0  0  0  0  0  # atno 7974 bound_to 7965
  154.4042  140.1587  156.2642 H   0  0  0  0  0  0  0  0  0  0  0  0  # atno 8008 bound_to 7997
  155.9010  140.3433  155.6004 H   0  0  0  0  0  0  0  0  0  0  0  0  # atno 8009 bound_to 7997
  155.7448  140.0797  157.2219 H   0  0  0  0  0  0  0  0  0  0  0  0  # atno 8010 bound_to 7997
  139.9815  143.5737  152.2376 H   0  0  0  0  0  0  0  0  0  0  0  0  # atno 10167 bound_to 10162
  157.6828  131.0727  150.5260 H   0  0  0  0  0  0  0  0  0  0  0  0  # atno 10718 bound_to 10713
  153.3987  135.3863  155.1973 H   0  0  0  0  0  0  0  0  0  0  0  0  # atno 10763 bound_to 10752
  154.8727  135.3766  154.4646 H   0  0  0  0  0  0  0  0  0  0  0  0  # atno 10764 bound_to 10752
  153.5141  135.7087  153.5827 H   0  0  0  0  0  0  0  0  0  0  0  0  # atno 10765 bound_to 10752
  140.4569  134.6291  157.4826 H   0  0  0  0  0  0  0  0  0  0  0  0  # atno 11005 bound_to 11000
  144.7663  139.6838  143.7213 LP  0  0  0  0  0  0  0  0  0  0  0  0  # atno 17320 bound_to 7965
  146.2090  139.5433  142.9693 LP  0  0  0  0  0  0  0  0  0  0  0  0  # atno 17321 bound_to 7965
  139.6406  144.7654  151.2347 LP  0  0  0  0  0  0  0  0  0  0  0  0  # atno 17342 bound_to 10162
  140.7487  143.6323  150.8411 LP  0  0  0  0  0  0  0  0  0  0  0  0  # atno 17343 bound_to 10162
  156.5572  130.4246  149.6080 LP  0  0  0  0  0  0  0  0  0  0  0  0  # atno 17370 bound_to 10713
  156.2852  130.7093  151.1928 LP  0  0  0  0  0  0  0  0  0  0  0  0  # atno 17371 bound_to 10713
  139.9970  134.6895  155.9592 LP  0  0  0  0  0  0  0  0  0  0  0  0  # atno 17394 bound_to 11000
  141.1639  133.6537  156.4412 LP  0  0  0  0  0  0  0  0  0  0  0  0  # atno 17395 bound_to 11000

$$$$
