AV-unprocessed.smi:265|AV-procd|sdf|2018|dock1
  -GOLD-   2262021223D 1   1.00000     0.00000
 Structure written by MMmdl.
 52 56  0  0  0  0  0  0  0  0  1 V2000
  143.8099  132.5318  148.9752 C   0  0  0  0  0  0  0  0  0  0  0  0
  143.8909  132.2997  150.4921 C   0  0  1  0  0  0  0  0  0  0  0  0
  144.9487  131.3733  150.7278 O   0  0  0  0  0  0  0  0  0  0  0  0
  145.5493  131.6630  151.9778 C   0  0  0  0  0  0  0  0  0  0  0  0
  145.5584  133.1834  151.9929 C   0  0  0  0  0  0  0  0  0  0  0  0
  144.2103  133.5404  151.3733 C   0  0  2  0  0  0  0  0  0  0  0  0
  143.2496  133.5841  152.4159 O   0  0  0  0  0  0  0  0  0  0  0  0
  144.1998  134.9162  150.6568 C   0  0  0  0  0  0  0  0  0  0  0  0
  144.9785  135.9342  151.3460 N   0  0  0  0  0  0  0  0  0  0  0  0
  145.7292  136.9291  150.7618 C   0  0  0  0  0  0  0  0  0  0  0  0
  146.3411  137.7262  151.5940 N   0  0  0  0  0  0  0  0  0  0  0  0
  145.9942  137.2389  152.8485 C   0  0  0  0  0  0  0  0  0  0  0  0
  146.3033  137.6281  154.1826 C   0  0  0  0  0  0  0  0  0  0  0  0
  147.1221  138.6712  154.4697 N   0  0  0  0  0  0  0  0  0  0  0  0
  146.5317  139.8432  155.1259 C   0  0  0  0  0  0  0  0  0  0  0  0
  147.4809  141.0552  155.0658 C   0  0  0  0  0  0  0  0  0  0  0  0
  148.8558  140.6707  155.6281 C   0  0  2  0  0  0  0  0  0  0  0  0
  149.7987  141.7244  155.5017 O   0  0  0  0  0  0  0  0  0  0  0  0
  151.0430  141.4541  156.1571 C   0  0  0  0  0  0  0  0  0  0  0  0
  151.5925  140.0463  155.8418 C   0  0  0  0  0  0  0  0  0  0  0  0
  152.7539  139.7645  156.1272 O   0  0  0  0  0  0  0  0  0  0  0  0
  150.7576  139.1473  155.2955 N   0  0  0  0  0  0  0  0  0  0  0  0
  149.4170  139.4810  154.8340 C   0  0  1  0  0  0  0  0  0  0  0  0
  148.4570  138.2863  154.9333 C   0  0  0  0  0  0  0  0  0  0  0  0
  145.7461  136.9046  155.1905 N   0  0  0  0  0  0  0  0  0  0  0  0
  144.9545  135.8635  154.9161 C   0  0  0  0  0  0  0  0  0  0  0  0
  144.5913  135.3827  153.7256 N   0  0  0  0  0  0  0  0  0  0  0  0
  145.1349  136.1125  152.7098 C   0  0  0  0  0  0  0  0  0  0  0  0
  148.7428  140.4112  156.6832 H   0  0  0  0  0  0  0  0  0  0  0  0
  149.5089  139.7645  153.7837 H   0  0  0  0  0  0  0  0  0  0  0  0
  143.0064  133.2226  148.7192 H   0  0  0  0  0  0  0  0  0  0  0  0
  143.6105  131.5952  148.4542 H   0  0  0  0  0  0  0  0  0  0  0  0
  144.7442  132.9321  148.5809 H   0  0  0  0  0  0  0  0  0  0  0  0
  142.9604  131.8305  150.8173 H   0  0  0  0  0  0  0  0  0  0  0  0
  144.9355  131.2630  152.7862 H   0  0  0  0  0  0  0  0  0  0  0  0
  146.5484  131.2335  152.0541 H   0  0  0  0  0  0  0  0  0  0  0  0
  145.7158  133.6048  152.9868 H   0  0  0  0  0  0  0  0  0  0  0  0
  146.3692  133.5309  151.3519 H   0  0  0  0  0  0  0  0  0  0  0  0
  143.2516  132.7492  152.8587 H   0  0  0  0  0  0  0  0  0  0  0  0
  144.5948  134.8256  149.6448 H   0  0  0  0  0  0  0  0  0  0  0  0
  143.1775  135.2840  150.5584 H   0  0  0  0  0  0  0  0  0  0  0  0
  145.8034  137.0490  149.6907 H   0  0  0  0  0  0  0  0  0  0  0  0
  145.5850  140.1009  154.6488 H   0  0  0  0  0  0  0  0  0  0  0  0
  146.3122  139.5982  156.1660 H   0  0  0  0  0  0  0  0  0  0  0  0
  147.5828  141.3921  154.0334 H   0  0  0  0  0  0  0  0  0  0  0  0
  147.0617  141.8899  155.6280 H   0  0  0  0  0  0  0  0  0  0  0  0
  151.7719  142.2095  155.8627 H   0  0  0  0  0  0  0  0  0  0  0  0
  150.9067  141.5410  157.2356 H   0  0  0  0  0  0  0  0  0  0  0  0
  151.0979  138.2135  155.1173 H   0  0  0  0  0  0  0  0  0  0  0  0
  148.3852  137.9453  155.9671 H   0  0  0  0  0  0  0  0  0  0  0  0
  148.8554  137.4531  154.3554 H   0  0  0  0  0  0  0  0  0  0  0  0
  144.5573  135.3400  155.7731 H   0  0  0  0  0  0  0  0  0  0  0  0
  1  2  1  0  0  0  0
  1 31  1  0  0  0  0
  1 32  1  0  0  0  0
  1 33  1  0  0  0  0
  2  6  1  0  0  0  0
  2  3  1  0  0  0  0
  2 34  1  0  0  0  0
  3  4  1  0  0  0  0
  4  5  1  0  0  0  0
  4 35  1  0  0  0  0
  4 36  1  0  0  0  0
  5  6  1  0  0  0  0
  5 37  1  0  0  0  0
  5 38  1  0  0  0  0
  6  7  1  0  0  0  0
  6  8  1  0  0  0  0
  7 39  1  0  0  0  0
  8  9  1  0  0  0  0
  8 40  1  0  0  0  0
  8 41  1  0  0  0  0
  9 28  1  0  0  0  0
  9 10  1  0  0  0  0
 10 11  2  0  0  0  0
 10 42  1  0  0  0  0
 11 12  1  0  0  0  0
 12 28  2  0  0  0  0
 12 13  1  0  0  0  0
 13 14  1  0  0  0  0
 13 25  2  0  0  0  0
 14 24  1  0  0  0  0
 14 15  1  0  0  0  0
 15 16  1  0  0  0  0
 15 43  1  0  0  0  0
 15 44  1  0  0  0  0
 16 17  1  0  0  0  0
 16 45  1  0  0  0  0
 16 46  1  0  0  0  0
 17 29  1  0  0  0  0
 17 23  1  0  0  0  0
 17 18  1  0  0  0  0
 18 19  1  0  0  0  0
 19 20  1  0  0  0  0
 19 47  1  0  0  0  0
 19 48  1  0  0  0  0
 20 21  2  0  0  0  0
 20 22  1  0  0  0  0
 22 23  1  0  0  0  0
 22 49  1  0  0  0  0
 23 30  1  0  0  0  0
 23 24  1  0  0  0  0
 24 50  1  0  0  0  0
 24 51  1  0  0  0  0
 25 26  1  0  0  0  0
 26 27  2  0  0  0  0
 26 52  1  0  0  0  0
 27 28  1  0  0  0  0
M  END
> <s_m_source_file>
AV-unprocessed.smi

> <i_m_source_file_index>
265

> <i_lp_mmshare_version>
43012

> <i_f3d_flags>
0

> <s_epik_input>
W0NIMl0xW0NIMl1PW0NAQEhdKFtDSDNdKVtDQEBdMShbT0hdKVtDSDJdbihbY0hdbjIpYyhjMjMpbltjSF1uYzNOKFtDSDJdW0NIMl00KVtDSDJdW0NAQEhdKFtDQEhdNDUpW05IXUMoPU8pW0NIMl1PNQ==

> <s_epik_cmdline>
J2VwaWtfcHl0aG9uJywgJy1waCcsICc3LjAnLCAnLXRuJywgJzgnLCAnLW1hJywgJzIwMCcsICctbWV0YWxfYmluZGluZycsICctaW1hZScsICc8aW5maWxlLm1hZT4nLCAnLW9tYWUnLCAnPG91dGZpbGUubWFlPic=

> <r_lp_tautomer_probability>
1

> <r_epik_Ionization_Penalty>
0.00221504

> <r_epik_Ionization_Penalty_Charging>
0

> <r_epik_Ionization_Penalty_Neutral>
0.00221504

> <r_epik_State_Penalty>
-0

> <r_epik_Charging_Adjusted_Penalty>
0

> <i_epik_Tot_Q>
0

> <i_epik_Tot_abs_Q>
0

> <r_epik_Metal_State_Penalty>
-0

> <b_epik_Metal_Only>
0

> <s_lp_Force_Field>
OPLS_2005

> <r_lp_Energy>
44.0648

> <b_lp_Chiralities_Consistent>
1

> <s_lp_Variant>
AV-unprocessed.smi:265-4

> <Gold.Version>
5.8.1

> <Gold.Id.Protein>
6NUR|6NUR_protein|mol2

> <Gold.PLP.Fitness>
38.6151

> <Gold.PLP.PLP>
-34.3656

> <Gold.PLP.part.hbond>
-2.0000

> <Gold.PLP.part.metal>
0.0000

> <Gold.PLP.part.buried>
-5.6014

> <Gold.PLP.part.nonpolar>
-31.5614

> <Gold.PLP.part.repulsive>
1.5778

> <Gold.PLP.ligand.clash>
0.0000

> <Gold.PLP.ligand.torsion>
0.9007

> <Gold.PLP.Chemscore.Hbond>
1.6786

> <Gold.PLP.Chemscore.CHOScore>
0.1941

> <Gold.PLP.Chemscore.Metal>
0.0000

> <Gold.Chemscore.Hbonds>
donor molecule, donor type, donor heavy atom, donor atom, acceptor molecule, acceptor atom, score
      L1  H     7    39       P1 10957  0.43
      P1  H  7997  8008       L1    21  1.00
      L1  C    10    42       P1 10171  0.19

> <Gold.PLP.Chemscore.Internal.Correction>
0.4329

> <Gold.Rescore>
     Score         DG    S(hbond)    S(metal)    S(lipo)     H(rot)  DE(clash)    DE(int)     intcor
      9.16     -12.47       1.83        0.00      56.54       2.25       0.19       3.12       ----

> <Gold.Chemscore.Fitness>
9.1565

> <Gold.Chemscore.DG>
-12.4657

> <Gold.Chemscore.ZeroCoef>
-5.4800

> <Gold.Chemscore.Hbond>
1.8319

> <Gold.Chemscore.Metal>
0.0000

> <Gold.Chemscore.Lipo>
56.5379

> <Gold.Chemscore.Internal_Hbond>
0.0000

> <Gold.Chemscore.DEClash>
0.1851

> <Gold.Chemscore.DEInternal>
3.1241

> <Gold.Chemscore.Rot>
2.2453

> <Gold.Chemscore.Internal.Correction>
   9.000000E+99

> <Gold.Chemscore.Hbonds>
donor molecule, donor type, donor heavy atom, donor atom, acceptor molecule, acceptor atom, score
      L1  H     7    39       P1 10957  0.10
      P1  H  7997  8008       L1    21  0.97

> <Gold.Chemscore.Hbond.Weighted>
-6.1187

> <Gold.Chemscore.Metal.Weighted>
-0.0000

> <Gold.Chemscore.Lipo.Weighted>
-6.6149

> <Gold.Chemscore.Internal_Hbond.Weighted>
0.0000

> <Gold.Chemscore.DEClash.Weighted>
0.1851

> <Gold.Chemscore.DEInternal.Weighted>
3.1241

> <Gold.Chemscore.Rot.Weighted>
5.7479

> <Gold.Chemscore.Internal.Correction.Weighted>
   9.000000E+99

> <Gold.Protein.RotatedTorsions>
[ 6907 6896 6895 6894 ] final  104.71 input  -60.11 | X-H torsion
[ 7974 7965 7964 7962 ] final   10.98 input  175.53 | X-H torsion
[ 8008 7997 7996 7995 ] final  -57.41 input   59.86 | X-H torsion
[ 10167 10162 10161 10158 ] final  -65.52 input  -65.29 | X-H torsion
[ 10718 10713 10712 10709 ] final  -83.78 input   66.30 | X-H torsion
[ 10763 10752 10751 10750 ] final   53.01 input  -60.55 | X-H torsion
[ 11005 11000 10999 10996 ] final  -38.62 input  -57.11 | X-H torsion

> <Gold.Protein.ActiveResidues>
 VAL166  LYS551  ARG553  GLY616  TRP617  ASP618  TYR619  PRO620  LYS621  CYS622 
 ASP623  PHE694  ASN695  SER759  ASP760  ASP761  ALA762  ILE779  LEU786  VAL792 
 PHE793  MET794  SER795  GLU796  ALA797  LYS798  CYS799  TRP800  GLU811  SER814 

> <Gold.Protein.RotatedAtoms>
  152.5255  133.9637  159.7728 H   0  0  0  0  0  0  0  0  0  0  0  0  # atno 6907 bound_to 6896
  150.9922  133.6130  159.2713 H   0  0  0  0  0  0  0  0  0  0  0  0  # atno 6908 bound_to 6896
  151.3269  135.0838  159.9378 H   0  0  0  0  0  0  0  0  0  0  0  0  # atno 6909 bound_to 6896
  146.2379  139.9554  142.8465 H   0  0  0  0  0  0  0  0  0  0  0  0  # atno 7974 bound_to 7965
  154.4267  140.1107  156.5792 H   0  0  0  0  0  0  0  0  0  0  0  0  # atno 8008 bound_to 7997
  155.6130  140.3494  155.4609 H   0  0  0  0  0  0  0  0  0  0  0  0  # atno 8009 bound_to 7997
  156.0084  140.1214  157.0468 H   0  0  0  0  0  0  0  0  0  0  0  0  # atno 8010 bound_to 7997
  140.5723  143.2319  151.6512 H   0  0  0  0  0  0  0  0  0  0  0  0  # atno 10167 bound_to 10162
  156.0014  130.4676  150.4309 H   0  0  0  0  0  0  0  0  0  0  0  0  # atno 10718 bound_to 10713
  152.9792  135.5793  154.4672 H   0  0  0  0  0  0  0  0  0  0  0  0  # atno 10763 bound_to 10752
  154.4239  135.2772  155.1959 H   0  0  0  0  0  0  0  0  0  0  0  0  # atno 10764 bound_to 10752
  154.3696  135.6171  153.5787 H   0  0  0  0  0  0  0  0  0  0  0  0  # atno 10765 bound_to 10752
  141.0041  133.6940  156.2077 H   0  0  0  0  0  0  0  0  0  0  0  0  # atno 11005 bound_to 11000
  145.1822  140.9772  143.4260 LP  0  0  0  0  0  0  0  0  0  0  0  0  # atno 17320 bound_to 7965
  144.9932  139.3669  143.6204 LP  0  0  0  0  0  0  0  0  0  0  0  0  # atno 17321 bound_to 7965
  139.5124  144.3477  152.0681 LP  0  0  0  0  0  0  0  0  0  0  0  0  # atno 17342 bound_to 10162
  140.2616  144.4061  150.6183 LP  0  0  0  0  0  0  0  0  0  0  0  0  # atno 17343 bound_to 10162
  157.2358  131.0514  151.2466 LP  0  0  0  0  0  0  0  0  0  0  0  0  # atno 17370 bound_to 10713
  157.3668  130.7160  149.6538 LP  0  0  0  0  0  0  0  0  0  0  0  0  # atno 17371 bound_to 10713
  140.6841  134.4736  157.5589 LP  0  0  0  0  0  0  0  0  0  0  0  0  # atno 17394 bound_to 11000
  139.9054  134.8461  156.1727 LP  0  0  0  0  0  0  0  0  0  0  0  0  # atno 17395 bound_to 11000

$$$$
