AV-unprocessed.smi:227|AV-procd|sdf|1733|dock10
  -GOLD-   2262020233D 1   1.00000     0.00000
 Structure written by MMmdl.
 54 58  0  0  0  0  0  0  0  0  1 V2000
  149.4271  141.2817  156.8163 O   0  0  0  0  0  0  0  0  0  0  0  0
  149.5349  141.1507  155.4130 C   0  0  0  0  0  0  0  0  0  0  0  0
  149.4052  139.6766  154.9637 C   0  0  2  0  0  0  0  0  0  0  0  0
  148.1098  139.0690  155.5614 C   0  0  0  0  0  0  0  0  0  0  0  0
  147.3441  138.2598  154.6294 N   0  0  0  0  0  0  0  0  0  0  0  0
  146.7856  138.6795  153.4441 C   0  0  0  0  0  0  0  0  0  0  0  0
  146.1366  137.7624  152.7813 N   0  0  0  0  0  0  0  0  0  0  0  0
  146.2312  136.6276  153.5790 C   0  0  0  0  0  0  0  0  0  0  0  0
  145.7602  135.2871  153.4675 C   0  0  0  0  0  0  0  0  0  0  0  0
  145.0316  134.8285  152.4131 N   0  0  0  0  0  0  0  0  0  0  0  0
  145.4747  135.0435  151.0413 C   0  0  1  0  0  0  0  0  0  0  0  0
  146.6395  134.0476  150.8591 C   0  0  0  0  0  0  0  0  0  0  0  0
  146.1795  132.8850  151.7505 C   0  0  0  0  0  0  0  0  0  0  0  0
  144.8084  133.4008  152.2408 C   0  0  2  0  0  0  0  0  0  0  0  0
  143.7544  133.3966  151.1089 C   0  0  2  0  0  0  0  0  0  0  0  0
  143.5151  132.0675  150.3685 C   0  0  0  0  0  0  0  0  0  0  0  0
  142.7544  132.2890  149.2001 O   0  0  0  0  0  0  0  0  0  0  0  0
  144.2707  134.5453  150.2225 C   0  0  0  0  0  0  0  0  0  0  0  0
  146.0935  134.4264  154.4662 N   0  0  0  0  0  0  0  0  0  0  0  0
  146.8079  134.8455  155.5138 C   0  0  0  0  0  0  0  0  0  0  0  0
  147.2966  136.0624  155.7561 N   0  0  0  0  0  0  0  0  0  0  0  0
  146.9868  136.9278  154.7492 C   0  0  0  0  0  0  0  0  0  0  0  0
  150.6919  138.8514  155.2595 C   0  0  2  0  0  0  0  0  0  0  0  0
  151.9871  139.5150  154.8172 C   0  0  0  0  0  0  0  0  0  0  0  0
  152.9570  138.3433  154.7973 C   0  0  0  0  0  0  0  0  0  0  0  0
  152.1896  137.2619  154.2923 O   0  0  0  0  0  0  0  0  0  0  0  0
  150.8057  137.4992  154.5360 C   0  0  0  0  0  0  0  0  0  0  0  0
  149.0450  142.1236  157.0121 H   0  0  0  0  0  0  0  0  0  0  0  0
  148.7599  141.7600  154.9470 H   0  0  0  0  0  0  0  0  0  0  0  0
  150.4853  141.5771  155.0927 H   0  0  0  0  0  0  0  0  0  0  0  0
  149.2818  139.7084  153.8804 H   0  0  0  0  0  0  0  0  0  0  0  0
  148.3456  138.4683  156.4403 H   0  0  0  0  0  0  0  0  0  0  0  0
  147.4496  139.8655  155.9066 H   0  0  0  0  0  0  0  0  0  0  0  0
  146.8843  139.6914  153.0789 H   0  0  0  0  0  0  0  0  0  0  0  0
  145.7427  136.0731  150.8014 H   0  0  0  0  0  0  0  0  0  0  0  0
  146.7818  133.7529  149.8188 H   0  0  0  0  0  0  0  0  0  0  0  0
  147.5804  134.4622  151.2225 H   0  0  0  0  0  0  0  0  0  0  0  0
  146.1345  131.9305  151.2287 H   0  0  0  0  0  0  0  0  0  0  0  0
  146.8628  132.7617  152.5917 H   0  0  0  0  0  0  0  0  0  0  0  0
  144.4513  132.8763  153.1253 H   0  0  0  0  0  0  0  0  0  0  0  0
  142.8027  133.7105  151.5421 H   0  0  0  0  0  0  0  0  0  0  0  0
  144.4705  131.6301  150.0779 H   0  0  0  0  0  0  0  0  0  0  0  0
  143.0168  131.3309  150.9976 H   0  0  0  0  0  0  0  0  0  0  0  0
  142.0651  132.9031  149.4018 H   0  0  0  0  0  0  0  0  0  0  0  0
  143.5123  135.3233  150.1266 H   0  0  0  0  0  0  0  0  0  0  0  0
  144.5534  134.2265  149.2184 H   0  0  0  0  0  0  0  0  0  0  0  0
  147.0195  134.0978  156.2638 H   0  0  0  0  0  0  0  0  0  0  0  0
  150.7613  138.6692  156.3333 H   0  0  0  0  0  0  0  0  0  0  0  0
  151.8835  139.9310  153.8138 H   0  0  0  0  0  0  0  0  0  0  0  0
  152.3144  140.3106  155.4874 H   0  0  0  0  0  0  0  0  0  0  0  0
  153.8378  138.5331  154.1834 H   0  0  0  0  0  0  0  0  0  0  0  0
  153.2882  138.1030  155.8085 H   0  0  0  0  0  0  0  0  0  0  0  0
  150.3878  136.6851  155.1272 H   0  0  0  0  0  0  0  0  0  0  0  0
  150.2940  137.5172  153.5733 H   0  0  0  0  0  0  0  0  0  0  0  0
  1  2  1  0  0  0  0
  1 28  1  0  0  0  0
  2  3  1  0  0  0  0
  2 29  1  0  0  0  0
  2 30  1  0  0  0  0
  3  4  1  0  0  0  0
  3 23  1  0  0  0  0
  3 31  1  0  0  0  0
  4  5  1  0  0  0  0
  4 32  1  0  0  0  0
  4 33  1  0  0  0  0
  5 22  1  0  0  0  0
  5  6  1  0  0  0  0
  6  7  2  0  0  0  0
  6 34  1  0  0  0  0
  7  8  1  0  0  0  0
  8 22  2  0  0  0  0
  8  9  1  0  0  0  0
  9 10  1  0  0  0  0
  9 19  2  0  0  0  0
 10 14  1  0  0  0  0
 10 11  1  0  0  0  0
 11 18  1  0  0  0  0
 11 12  1  0  0  0  0
 11 35  1  0  0  0  0
 12 13  1  0  0  0  0
 12 36  1  0  0  0  0
 12 37  1  0  0  0  0
 13 14  1  0  0  0  0
 13 38  1  0  0  0  0
 13 39  1  0  0  0  0
 14 15  1  0  0  0  0
 14 40  1  0  0  0  0
 15 16  1  0  0  0  0
 15 18  1  0  0  0  0
 15 41  1  0  0  0  0
 16 17  1  0  0  0  0
 16 42  1  0  0  0  0
 16 43  1  0  0  0  0
 17 44  1  0  0  0  0
 18 45  1  0  0  0  0
 18 46  1  0  0  0  0
 19 20  1  0  0  0  0
 20 21  2  0  0  0  0
 20 47  1  0  0  0  0
 21 22  1  0  0  0  0
 23 27  1  0  0  0  0
 23 24  1  0  0  0  0
 23 48  1  0  0  0  0
 24 25  1  0  0  0  0
 24 49  1  0  0  0  0
 24 50  1  0  0  0  0
 25 26  1  0  0  0  0
 25 51  1  0  0  0  0
 25 52  1  0  0  0  0
 26 27  1  0  0  0  0
 27 53  1  0  0  0  0
 27 54  1  0  0  0  0
M  END
> <s_m_source_file>
AV-unprocessed.smi

> <i_m_source_file_index>
227

> <i_lp_mmshare_version>
43012

> <i_f3d_flags>
0

> <s_epik_input>
W0NIMl0xT1tDSDJdW0NIMl1bQ0BIXTFbQ0BIXShbQ0gyXVtPSF0pW0NIMl1uKFtjSF1uMiljKGMyMyluW2NIXW5jM04oW0NASF00NSlbQ0BASF0oW0NIMl1bQ0gyXTQpW0NASF0oW0NIMl01KVtDSDJdW09IXQ==

> <s_epik_cmdline>
J2VwaWtfcHl0aG9uJywgJy1waCcsICc3LjAnLCAnLXRuJywgJzgnLCAnLW1hJywgJzIwMCcsICctbWV0YWxfYmluZGluZycsICctaW1hZScsICc8aW5maWxlLm1hZT4nLCAnLW9tYWUnLCAnPG91dGZpbGUubWFlPic=

> <r_lp_tautomer_probability>
1

> <r_epik_Ionization_Penalty>
0.0055791

> <r_epik_Ionization_Penalty_Charging>
0

> <r_epik_Ionization_Penalty_Neutral>
0.0055791

> <r_epik_State_Penalty>
0.00401299

> <r_epik_Charging_Adjusted_Penalty>
0.00401299

> <i_epik_Tot_Q>
0

> <i_epik_Tot_abs_Q>
0

> <r_epik_Metal_State_Penalty>
-0

> <b_epik_Metal_Only>
0

> <s_lp_Force_Field>
OPLS_2005

> <r_lp_Energy>
89.6515

> <b_lp_Chiralities_Consistent>
1

> <s_lp_Variant>
AV-unprocessed.smi:227-7

> <Gold.Version>
5.8.1

> <Gold.Id.Protein>
6NUR|6NUR_protein|mol2

> <Gold.PLP.Fitness>
50.5310

> <Gold.PLP.PLP>
-40.1279

> <Gold.PLP.part.hbond>
-5.0000

> <Gold.PLP.part.metal>
0.0000

> <Gold.PLP.part.buried>
-0.7348

> <Gold.PLP.part.nonpolar>
-33.2969

> <Gold.PLP.part.repulsive>
0.6027

> <Gold.PLP.ligand.clash>
0.0000

> <Gold.PLP.ligand.torsion>
1.0115

> <Gold.PLP.Chemscore.Hbond>
3.7008

> <Gold.PLP.Chemscore.CHOScore>
0.4040

> <Gold.PLP.Chemscore.Metal>
0.0000

> <Gold.Chemscore.Hbonds>
donor molecule, donor type, donor heavy atom, donor atom, acceptor molecule, acceptor atom, score
      L1  H    17    44       P1 10186  1.00
      P1  H 10752 10763       L1    26  0.77
      P1  H 10785 10796       L1    17  0.12

> <Gold.PLP.Chemscore.Internal.Correction>
0.1118

> <Gold.Rescore>
     Score         DG    S(hbond)    S(metal)    S(lipo)     H(rot)  DE(clash)    DE(int)     intcor
     15.55     -16.83       3.09        0.00      87.77       3.61       0.14       1.14       ----

> <Gold.Chemscore.Fitness>
15.5547

> <Gold.Chemscore.DG>
-16.8335

> <Gold.Chemscore.ZeroCoef>
-5.4800

> <Gold.Chemscore.Hbond>
3.0895

> <Gold.Chemscore.Metal>
0.0000

> <Gold.Chemscore.Lipo>
87.7667

> <Gold.Chemscore.Internal_Hbond>
0.0000

> <Gold.Chemscore.DEClash>
0.1412

> <Gold.Chemscore.DEInternal>
1.1376

> <Gold.Chemscore.Rot>
3.6071

> <Gold.Chemscore.Internal.Correction>
   9.000000E+99

> <Gold.Chemscore.Hbonds>
donor molecule, donor type, donor heavy atom, donor atom, acceptor molecule, acceptor atom, score
      L1  H    17    44       P1 10186  1.00
      P1  H 10752 10763       L1    26  0.68

> <Gold.Chemscore.Hbond.Weighted>
-10.3190

> <Gold.Chemscore.Metal.Weighted>
-0.0000

> <Gold.Chemscore.Lipo.Weighted>
-10.2687

> <Gold.Chemscore.Internal_Hbond.Weighted>
0.0000

> <Gold.Chemscore.DEClash.Weighted>
0.1412

> <Gold.Chemscore.DEInternal.Weighted>
1.1376

> <Gold.Chemscore.Rot.Weighted>
9.2342

> <Gold.Chemscore.Internal.Correction.Weighted>
   9.000000E+99

> <Gold.Protein.RotatedTorsions>
[ 6907 6896 6895 6894 ] final  141.61 input  -60.11 | X-H torsion
[ 7974 7965 7964 7962 ] final  -41.91 input  175.53 | X-H torsion
[ 8008 7997 7996 7995 ] final  101.05 input   59.86 | X-H torsion
[ 10167 10162 10161 10158 ] final   53.84 input  -65.29 | X-H torsion
[ 10718 10713 10712 10709 ] final   91.09 input   66.30 | X-H torsion
[ 10763 10752 10751 10750 ] final   51.84 input  -60.55 | X-H torsion
[ 11005 11000 10999 10996 ] final   -6.78 input  -57.11 | X-H torsion

> <Gold.Protein.ActiveResidues>
 VAL166  LYS551  ARG553  GLY616  TRP617  ASP618  TYR619  PRO620  LYS621  CYS622 
 ASP623  PHE694  ASN695  SER759  ASP760  ASP761  ALA762  ILE779  LEU786  VAL792 
 PHE793  MET794  SER795  GLU796  ALA797  LYS798  CYS799  TRP800  GLU811  SER814 

> <Gold.Protein.RotatedAtoms>
  152.2288  133.5041  159.5203 H   0  0  0  0  0  0  0  0  0  0  0  0  # atno 6907 bound_to 6896
  150.7032  134.1244  159.4055 H   0  0  0  0  0  0  0  0  0  0  0  0  # atno 6908 bound_to 6896
  151.9165  135.0316  160.0569 H   0  0  0  0  0  0  0  0  0  0  0  0  # atno 6909 bound_to 6896
  146.0166  140.6901  142.9199 H   0  0  0  0  0  0  0  0  0  0  0  0  # atno 7974 bound_to 7965
  156.1263  140.3203  155.8282 H   0  0  0  0  0  0  0  0  0  0  0  0  # atno 8008 bound_to 7997
  155.4414  140.0526  157.3027 H   0  0  0  0  0  0  0  0  0  0  0  0  # atno 8009 bound_to 7997
  154.4865  140.2074  155.9658 H   0  0  0  0  0  0  0  0  0  0  0  0  # atno 8010 bound_to 7997
  140.2365  144.3630  150.6395 H   0  0  0  0  0  0  0  0  0  0  0  0  # atno 10167 bound_to 10162
  157.6960  131.0394  150.3676 H   0  0  0  0  0  0  0  0  0  0  0  0  # atno 10718 bound_to 10713
  152.9786  135.5832  154.4481 H   0  0  0  0  0  0  0  0  0  0  0  0  # atno 10763 bound_to 10752
  154.4073  135.2769  155.2061 H   0  0  0  0  0  0  0  0  0  0  0  0  # atno 10764 bound_to 10752
  154.3866  135.6135  153.5874 H   0  0  0  0  0  0  0  0  0  0  0  0  # atno 10765 bound_to 10752
  140.7057  133.8952  155.8714 H   0  0  0  0  0  0  0  0  0  0  0  0  # atno 11005 bound_to 11000
  144.6973  140.3491  143.7185 LP  0  0  0  0  0  0  0  0  0  0  0  0  # atno 17320 bound_to 7965
  145.7259  139.1722  143.2458 LP  0  0  0  0  0  0  0  0  0  0  0  0  # atno 17321 bound_to 7965
  140.6146  143.2171  151.6818 LP  0  0  0  0  0  0  0  0  0  0  0  0  # atno 17342 bound_to 10162
  139.5092  144.3585  152.0584 LP  0  0  0  0  0  0  0  0  0  0  0  0  # atno 17343 bound_to 10162
  156.4105  130.3933  149.6895 LP  0  0  0  0  0  0  0  0  0  0  0  0  # atno 17370 bound_to 10713
  156.4181  130.7755  151.2771 LP  0  0  0  0  0  0  0  0  0  0  0  0  # atno 17371 bound_to 10713
  141.0127  134.0998  157.4205 LP  0  0  0  0  0  0  0  0  0  0  0  0  # atno 17394 bound_to 11000
  139.8885  135.0098  156.6623 LP  0  0  0  0  0  0  0  0  0  0  0  0  # atno 17395 bound_to 11000

$$$$
