AV-unprocessed.smi:1005|AV-procd|sdf|4381|dock3
  -GOLD-   22720 2303D 1   1.00000     0.00000
 Structure written by MMmdl.
 58 60  0  0  0  0  0  0  0  0  4 V2000
  152.6529  143.5818  160.4244 C   0  0  0  0  0  0  0  0  0  0  0  0
  152.2297  142.6835  159.2747 C   0  0  0  0  0  0  0  0  0  0  0  0
  151.3145  143.1900  158.3251 C   0  0  0  0  0  0  0  0  0  0  0  0
  150.9468  142.3452  157.2847 C   0  0  0  0  0  0  0  0  0  0  0  0
  150.0803  142.5460  156.2087 N   0  3  0  0  0  0  0  0  0  0  0  0
  150.0397  141.4218  155.4417 C   0  0  0  0  0  0  0  0  0  0  0  0
  150.8674  140.5041  156.0120 N   0  0  0  0  0  0  0  0  0  0  0  0
  151.1825  139.1332  155.5837 C   0  0  0  0  0  0  0  0  0  0  0  0
  150.3456  138.6770  154.3718 C   0  0  1  0  0  0  0  0  0  0  0  0
  151.0265  137.6444  153.6848 O   0  0  0  0  0  0  0  0  0  0  0  0
  148.9571  138.1568  154.7945 C   0  0  0  0  0  0  0  0  0  0  0  0
  147.9383  138.3349  153.7243 N   0  3  2  0  0  0  0  0  0  0  0  0
  147.7396  139.7389  153.2831 C   0  0  0  0  0  0  0  0  0  0  0  0
  146.8480  140.5208  154.2666 C   0  0  0  0  0  0  0  0  0  0  0  0
  145.6191  139.8303  154.4585 O   0  0  0  0  0  0  0  0  0  0  0  0
  145.8015  138.5324  155.0153 C   0  0  1  0  0  0  0  0  0  0  0  0
  144.4098  137.9146  155.2521 C   0  0  0  0  0  0  0  0  0  0  0  0
  143.5081  138.0415  154.0778 N   0  3  0  0  0  0  0  0  0  0  0  0
  142.0704  137.9441  154.4215 C   0  0  0  0  0  0  0  0  0  0  0  0
  143.8698  137.0971  152.9973 C   0  0  0  0  0  0  0  0  0  0  0  0
  146.6340  137.6927  154.0223 C   0  0  0  0  0  0  0  0  0  0  0  0
  151.4548  141.0365  157.1672 C   0  0  0  0  0  0  0  0  0  0  0  0
  152.3575  140.5221  158.0957 C   0  0  0  0  0  0  0  0  0  0  0  0
  152.7446  141.3662  159.1612 C   0  0  0  0  0  0  0  0  0  0  0  0
  153.7288  140.8322  160.1881 C   0  0  0  0  0  0  0  0  0  0  0  0
  152.1656  144.5559  160.3699 H   0  0  0  0  0  0  0  0  0  0  0  0
  153.7304  143.7474  160.4050 H   0  0  0  0  0  0  0  0  0  0  0  0
  152.3881  143.1305  161.3809 H   0  0  0  0  0  0  0  0  0  0  0  0
  150.9188  144.1922  158.4048 H   0  0  0  0  0  0  0  0  0  0  0  0
  149.4556  141.2849  154.5429 H   0  0  0  0  0  0  0  0  0  0  0  0
  152.2511  139.0528  155.3839 H   0  0  0  0  0  0  0  0  0  0  0  0
  150.9837  138.4815  156.4355 H   0  0  0  0  0  0  0  0  0  0  0  0
  150.2408  139.5205  153.6897 H   0  0  0  0  0  0  0  0  0  0  0  0
  150.4120  137.1926  153.1267 H   0  0  0  0  0  0  0  0  0  0  0  0
  149.0492  137.0991  155.0463 H   0  0  0  0  0  0  0  0  0  0  0  0
  148.6279  138.6533  155.7074 H   0  0  0  0  0  0  0  0  0  0  0  0
  148.6924  140.2479  153.1423 H   0  0  0  0  0  0  0  0  0  0  0  0
  147.2577  139.7200  152.3046 H   0  0  0  0  0  0  0  0  0  0  0  0
  147.3464  140.6737  155.2245 H   0  0  0  0  0  0  0  0  0  0  0  0
  146.6330  141.5114  153.8657 H   0  0  0  0  0  0  0  0  0  0  0  0
  146.3405  138.6083  155.9599 H   0  0  0  0  0  0  0  0  0  0  0  0
  144.5420  136.8581  155.4915 H   0  0  0  0  0  0  0  0  0  0  0  0
  143.9333  138.3682  156.1224 H   0  0  0  0  0  0  0  0  0  0  0  0
  141.8404  136.9781  154.8731 H   0  0  0  0  0  0  0  0  0  0  0  0
  141.4553  138.0535  153.5275 H   0  0  0  0  0  0  0  0  0  0  0  0
  141.7680  138.7277  155.1149 H   0  0  0  0  0  0  0  0  0  0  0  0
  143.7563  136.0632  153.3265 H   0  0  0  0  0  0  0  0  0  0  0  0
  144.9032  137.2445  152.6818 H   0  0  0  0  0  0  0  0  0  0  0  0
  143.2358  137.2484  152.1227 H   0  0  0  0  0  0  0  0  0  0  0  0
  146.0867  137.5902  153.0841 H   0  0  0  0  0  0  0  0  0  0  0  0
  146.7851  136.6794  154.3967 H   0  0  0  0  0  0  0  0  0  0  0  0
  152.7537  139.5216  158.0124 H   0  0  0  0  0  0  0  0  0  0  0  0
  154.0366  139.8128  159.9537 H   0  0  0  0  0  0  0  0  0  0  0  0
  153.2793  140.8247  161.1813 H   0  0  0  0  0  0  0  0  0  0  0  0
  154.6257  141.4512  160.2180 H   0  0  0  0  0  0  0  0  0  0  0  0
  143.6575  138.9656  153.6972 H   0  0  0  0  0  0  0  0  0  0  0  0
  148.3138  137.8346  152.9303 H   0  0  0  0  0  0  0  0  0  0  0  0
  149.5543  143.3877  156.0107 H   0  0  0  0  0  0  0  0  0  0  0  0
  1  2  1  0  0  0  0
  1 26  1  0  0  0  0
  1 27  1  0  0  0  0
  1 28  1  0  0  0  0
  2 24  1  0  0  0  0
  2  3  2  0  0  0  0
  3  4  1  0  0  0  0
  3 29  1  0  0  0  0
  4 22  2  0  0  0  0
  4  5  1  0  0  0  0
  5  6  2  0  0  0  0
  5 58  1  0  0  0  0
  6  7  1  0  0  0  0
  6 30  1  0  0  0  0
  7  8  1  0  0  0  0
  7 22  1  0  0  0  0
  8  9  1  0  0  0  0
  8 31  1  0  0  0  0
  8 32  1  0  0  0  0
  9 10  1  0  0  0  0
  9 11  1  0  0  0  0
  9 33  1  0  0  0  0
 10 34  1  0  0  0  0
 11 12  1  0  0  0  0
 11 35  1  0  0  0  0
 11 36  1  0  0  0  0
 12 21  1  0  0  0  0
 12 13  1  0  0  0  0
 12 57  1  0  0  0  0
 13 14  1  0  0  0  0
 13 37  1  0  0  0  0
 13 38  1  0  0  0  0
 14 15  1  0  0  0  0
 14 39  1  0  0  0  0
 14 40  1  0  0  0  0
 15 16  1  0  0  0  0
 16 17  1  0  0  0  0
 16 21  1  0  0  0  0
 16 41  1  0  0  0  0
 17 18  1  0  0  0  0
 17 42  1  0  0  0  0
 17 43  1  0  0  0  0
 18 19  1  0  0  0  0
 18 20  1  0  0  0  0
 18 56  1  0  0  0  0
 19 44  1  0  0  0  0
 19 45  1  0  0  0  0
 19 46  1  0  0  0  0
 20 47  1  0  0  0  0
 20 48  1  0  0  0  0
 20 49  1  0  0  0  0
 21 50  1  0  0  0  0
 21 51  1  0  0  0  0
 22 23  1  0  0  0  0
 23 24  2  0  0  0  0
 23 52  1  0  0  0  0
 24 25  1  0  0  0  0
 25 53  1  0  0  0  0
 25 54  1  0  0  0  0
 25 55  1  0  0  0  0
M  CHG  1   5   1
M  CHG  1  12   1
M  CHG  1  18   1
M  END
> <s_m_source_file>
AV-unprocessed.smi

> <i_m_source_file_index>
1005

> <i_lp_mmshare_version>
43012

> <i_f3d_flags>
0

> <s_epik_input>
W0NIM11jKFtjSF0xKWMoW0NIM10pW2NIXWMoYzEyKW4oW2NIXW4yKVtDSDJdW0NASF0oW09IXSlbQ0gyXU4zW0NIMl1bQ0gyXU9bQ0BIXShbQ0gyXTMpW0NIMl1OKFtDSDNdKVtDSDNd

> <s_epik_cmdline>
J2VwaWtfcHl0aG9uJywgJy1waCcsICc3LjAnLCAnLXRuJywgJzgnLCAnLW1hJywgJzIwMCcsICctbWV0YWxfYmluZGluZycsICctaW1hZScsICc8aW5maWxlLm1hZT4nLCAnLW9tYWUnLCAnPG91dGZpbGUubWFlPic=

> <r_epik_Ionization_Penalty>
2.30802

> <r_epik_Ionization_Penalty_Charging>
2.30798

> <r_epik_Ionization_Penalty_Neutral>
3.4851e-05

> <r_epik_State_Penalty>
2.52618

> <r_epik_Charging_Adjusted_Penalty>
4.83416

> <i_epik_Tot_Q>
3

> <i_epik_Tot_abs_Q>
3

> <r_epik_Metal_State_Penalty>
6.53149

> <b_epik_Metal_Only>
0

> <s_lp_Force_Field>
OPLS_2005

> <r_lp_Energy>
46.6076

> <b_lp_Chiralities_Consistent>
1

> <s_lp_Variant>
AV-unprocessed.smi:1005-20

> <Gold.Version>
5.8.1

> <Gold.Id.Protein>
6NUR|6NUR_protein|mol2

> <Gold.PLP.Fitness>
59.2639

> <Gold.PLP.PLP>
-41.5304

> <Gold.PLP.part.hbond>
-4.9612

> <Gold.PLP.part.metal>
0.0000

> <Gold.PLP.part.buried>
-3.8737

> <Gold.PLP.part.nonpolar>
-35.8777

> <Gold.PLP.part.repulsive>
2.3578

> <Gold.PLP.ligand.clash>
0.0000

> <Gold.PLP.ligand.torsion>
0.8386

> <Gold.PLP.Chemscore.Hbond>
6.4144

> <Gold.PLP.Chemscore.CHOScore>
0.0000

> <Gold.PLP.Chemscore.Metal>
0.0000

> <Gold.Chemscore.Hbonds>
donor molecule, donor type, donor heavy atom, donor atom, acceptor molecule, acceptor atom, score
      L1  H     5    58       P1  8028  2.00
      L1  H    10    34       P1  7948  0.33
      L1  H    12    57       P1  7948  2.00
      L1  H    18    56       P1 10175  2.00

> <Gold.PLP.Chemscore.Internal.Correction>
0.1675

> <Gold.Rescore>
     Score         DG    S(hbond)    S(metal)    S(lipo)     H(rot)  DE(clash)    DE(int)     intcor
     18.94     -22.11       3.00        0.00     112.59       2.56       2.33       0.84       ----

> <Gold.Chemscore.Fitness>
18.9386

> <Gold.Chemscore.DG>
-22.1129

> <Gold.Chemscore.ZeroCoef>
-5.4800

> <Gold.Chemscore.Hbond>
2.9956

> <Gold.Chemscore.Metal>
0.0000

> <Gold.Chemscore.Lipo>
112.5858

> <Gold.Chemscore.Internal_Hbond>
0.0000

> <Gold.Chemscore.DEClash>
2.3311

> <Gold.Chemscore.DEInternal>
0.8432

> <Gold.Chemscore.Rot>
2.5566

> <Gold.Chemscore.Internal.Correction>
   9.000000E+99

> <Gold.Chemscore.Hbonds>
donor molecule, donor type, donor heavy atom, donor atom, acceptor molecule, acceptor atom, score
      L1  H     5    58       P1  8028  0.93
      L1  H    10    34       P1  7948  0.01
      L1  H    12    57       P1  7948  0.94
      L1  H    18    56       P1 10175  0.99

> <Gold.Chemscore.Hbond.Weighted>
-10.0053

> <Gold.Chemscore.Metal.Weighted>
-0.0000

> <Gold.Chemscore.Lipo.Weighted>
-13.1725

> <Gold.Chemscore.Internal_Hbond.Weighted>
0.0000

> <Gold.Chemscore.DEClash.Weighted>
2.3311

> <Gold.Chemscore.DEInternal.Weighted>
0.8432

> <Gold.Chemscore.Rot.Weighted>
6.5450

> <Gold.Chemscore.Internal.Correction.Weighted>
   9.000000E+99

> <Gold.Protein.RotatedTorsions>
[ 6907 6896 6895 6894 ] final  -84.16 input  -60.11 | X-H torsion
[ 7974 7965 7964 7962 ] final   -0.42 input  175.53 | X-H torsion
[ 8008 7997 7996 7995 ] final  -89.30 input   59.86 | X-H torsion
[ 10167 10162 10161 10158 ] final  111.31 input  -65.29 | X-H torsion
[ 10718 10713 10712 10709 ] final  177.31 input   66.30 | X-H torsion
[ 10763 10752 10751 10750 ] final   26.58 input  -60.55 | X-H torsion
[ 11005 11000 10999 10996 ] final -147.14 input  -57.11 | X-H torsion

> <Gold.Protein.ActiveResidues>
 VAL166  LYS551  ARG553  GLY616  TRP617  ASP618  TYR619  PRO620  LYS621  CYS622 
 ASP623  PHE694  ASN695  SER759  ASP760  ASP761  ALA762  ILE779  LEU786  VAL792 
 PHE793  MET794  SER795  GLU796  ALA797  LYS798  CYS799  TRP800  GLU811  SER814 

> <Gold.Protein.RotatedAtoms>
  150.6879  134.3401  159.4863 H   0  0  0  0  0  0  0  0  0  0  0  0  # atno 6907 bound_to 6896
  152.1255  134.9171  160.0570 H   0  0  0  0  0  0  0  0  0  0  0  0  # atno 6908 bound_to 6896
  152.0361  133.3923  159.4354 H   0  0  0  0  0  0  0  0  0  0  0  0  # atno 6909 bound_to 6896
  146.2427  140.1267  142.8339 H   0  0  0  0  0  0  0  0  0  0  0  0  # atno 7974 bound_to 7965
  154.6850  140.0543  157.0305 H   0  0  0  0  0  0  0  0  0  0  0  0  # atno 8008 bound_to 7997
  155.0898  140.3218  155.4558 H   0  0  0  0  0  0  0  0  0  0  0  0  # atno 8009 bound_to 7997
  156.2708  140.2050  156.6025 H   0  0  0  0  0  0  0  0  0  0  0  0  # atno 8010 bound_to 7997
  139.6621  144.7128  151.1846 H   0  0  0  0  0  0  0  0  0  0  0  0  # atno 10167 bound_to 10162
  156.9072  130.9898  151.3026 H   0  0  0  0  0  0  0  0  0  0  0  0  # atno 10718 bound_to 10713
  153.0613  135.6557  154.0456 H   0  0  0  0  0  0  0  0  0  0  0  0  # atno 10763 bound_to 10752
  154.0123  135.2927  155.3392 H   0  0  0  0  0  0  0  0  0  0  0  0  # atno 10764 bound_to 10752
  154.6952  135.5266  153.8517 H   0  0  0  0  0  0  0  0  0  0  0  0  # atno 10765 bound_to 10752
  140.7747  134.3148  157.5064 H   0  0  0  0  0  0  0  0  0  0  0  0  # atno 11005 bound_to 11000
  145.0361  140.8909  143.5080 LP  0  0  0  0  0  0  0  0  0  0  0  0  # atno 17320 bound_to 7965
  145.1339  139.2614  143.5525 LP  0  0  0  0  0  0  0  0  0  0  0  0  # atno 17321 bound_to 7965
  140.7584  143.5978  150.8730 LP  0  0  0  0  0  0  0  0  0  0  0  0  # atno 17342 bound_to 10162
  139.9636  143.6136  152.2995 LP  0  0  0  0  0  0  0  0  0  0  0  0  # atno 17343 bound_to 10162
  157.5990  130.8498  149.8772 LP  0  0  0  0  0  0  0  0  0  0  0  0  # atno 17370 bound_to 10713
  156.0553  130.3709  150.1105 LP  0  0  0  0  0  0  0  0  0  0  0  0  # atno 17371 bound_to 10713
  139.8751  134.9282  156.3445 LP  0  0  0  0  0  0  0  0  0  0  0  0  # atno 17394 bound_to 11000
  140.9540  133.7432  156.0310 LP  0  0  0  0  0  0  0  0  0  0  0  0  # atno 17395 bound_to 11000

$$$$
