AV-unprocessed.smi:1554|AV-procd|sdf|6246|dock2
  -GOLD-   22720 6433D 1   1.00000     0.00000
 Structure written by MMmdl.
 48 50  0  0  0  0  0  0  0  0  2 V2000
  153.1472  142.8504  161.5597 C   0  0  0  0  0  0  0  0  0  0  0  0
  152.6012  142.5573  160.1731 C   0  0  0  0  0  0  0  0  0  0  0  0
  152.8590  141.2983  159.5855 C   0  0  0  0  0  0  0  0  0  0  0  0
  152.3668  140.9846  158.2999 C   0  0  0  0  0  0  0  0  0  0  0  0
  152.4961  139.8324  157.5435 N   0  0  0  0  0  0  0  0  0  0  0  0
  151.8166  140.1536  156.4466 C   0  0  0  0  0  0  0  0  0  0  0  0
  151.2587  141.3791  156.4041 N   0  0  0  0  0  0  0  0  0  0  0  0
  150.4712  141.9500  155.3264 C   0  0  0  0  0  0  0  0  0  0  0  0
  149.3511  141.0026  154.8557 C   0  0  2  0  0  0  0  0  0  0  0  0
  149.4911  140.7652  153.4675 O   0  0  0  0  0  0  0  0  0  0  0  0
  147.9514  141.5896  155.1222 C   0  0  0  0  0  0  0  0  0  0  0  0
  147.8370  142.1830  156.4820 N   0  3  2  0  0  0  0  0  0  0  0  0
  148.4198  141.3385  157.5529 C   0  0  0  0  0  0  0  0  0  0  0  0
  147.4726  140.1858  157.9300 C   0  0  0  0  0  0  0  0  0  0  0  0
  146.2145  140.7184  158.3247 O   0  0  0  0  0  0  0  0  0  0  0  0
  145.5752  141.4408  157.2782 C   0  0  1  0  0  0  0  0  0  0  0  0
  144.2074  141.9065  157.7890 C   0  0  0  0  0  0  0  0  0  0  0  0
  146.4692  142.6279  156.8559 C   0  0  0  0  0  0  0  0  0  0  0  0
  151.6016  141.9724  157.6138 C   0  0  0  0  0  0  0  0  0  0  0  0
  151.3397  143.2294  158.1866 C   0  0  0  0  0  0  0  0  0  0  0  0
  151.8406  143.5269  159.4712 C   0  0  0  0  0  0  0  0  0  0  0  0
  151.5531  144.8868  160.0824 C   0  0  0  0  0  0  0  0  0  0  0  0
  153.7097  142.0034  161.9535 H   0  0  0  0  0  0  0  0  0  0  0  0
  152.3332  143.0623  162.2531 H   0  0  0  0  0  0  0  0  0  0  0  0
  153.8148  143.7118  161.5345 H   0  0  0  0  0  0  0  0  0  0  0  0
  153.4384  140.5598  160.1197 H   0  0  0  0  0  0  0  0  0  0  0  0
  151.7142  139.4558  155.6286 H   0  0  0  0  0  0  0  0  0  0  0  0
  150.0459  142.8895  155.6815 H   0  0  0  0  0  0  0  0  0  0  0  0
  151.1367  142.2014  154.4992 H   0  0  0  0  0  0  0  0  0  0  0  0
  149.4652  140.0506  155.3730 H   0  0  0  0  0  0  0  0  0  0  0  0
  149.7432  139.8636  153.3368 H   0  0  0  0  0  0  0  0  0  0  0  0
  147.7045  142.3367  154.3680 H   0  0  0  0  0  0  0  0  0  0  0  0
  147.2166  140.7919  155.0030 H   0  0  0  0  0  0  0  0  0  0  0  0
  149.3980  140.9580  157.2569 H   0  0  0  0  0  0  0  0  0  0  0  0
  148.5892  141.9655  158.4291 H   0  0  0  0  0  0  0  0  0  0  0  0
  147.3463  139.4878  157.1010 H   0  0  0  0  0  0  0  0  0  0  0  0
  147.8886  139.6174  158.7620 H   0  0  0  0  0  0  0  0  0  0  0  0
  145.4103  140.7716  156.4328 H   0  0  0  0  0  0  0  0  0  0  0  0
  143.6677  142.4573  157.0185 H   0  0  0  0  0  0  0  0  0  0  0  0
  144.3102  142.5587  158.6567 H   0  0  0  0  0  0  0  0  0  0  0  0
  143.5907  141.0569  158.0829 H   0  0  0  0  0  0  0  0  0  0  0  0
  146.5622  143.3231  157.6913 H   0  0  0  0  0  0  0  0  0  0  0  0
  146.0034  143.1895  156.0470 H   0  0  0  0  0  0  0  0  0  0  0  0
  150.7578  143.9579  157.6416 H   0  0  0  0  0  0  0  0  0  0  0  0
  150.9843  145.5178  159.3992 H   0  0  0  0  0  0  0  0  0  0  0  0
  152.4826  145.4051  160.3192 H   0  0  0  0  0  0  0  0  0  0  0  0
  150.9738  144.7773  160.9994 H   0  0  0  0  0  0  0  0  0  0  0  0
  148.4104  143.0144  156.4464 H   0  0  0  0  0  0  0  0  0  0  0  0
  1  2  1  0  0  0  0
  1 23  1  0  0  0  0
  1 24  1  0  0  0  0
  1 25  1  0  0  0  0
  2 21  1  0  0  0  0
  2  3  2  0  0  0  0
  3  4  1  0  0  0  0
  3 26  1  0  0  0  0
  4 19  2  0  0  0  0
  4  5  1  0  0  0  0
  5  6  2  0  0  0  0
  6  7  1  0  0  0  0
  6 27  1  0  0  0  0
  7  8  1  0  0  0  0
  7 19  1  0  0  0  0
  8  9  1  0  0  0  0
  8 28  1  0  0  0  0
  8 29  1  0  0  0  0
  9 10  1  0  0  0  0
  9 11  1  0  0  0  0
  9 30  1  0  0  0  0
 10 31  1  0  0  0  0
 11 12  1  0  0  0  0
 11 32  1  0  0  0  0
 11 33  1  0  0  0  0
 12 18  1  0  0  0  0
 12 13  1  0  0  0  0
 12 48  1  0  0  0  0
 13 14  1  0  0  0  0
 13 34  1  0  0  0  0
 13 35  1  0  0  0  0
 14 15  1  0  0  0  0
 14 36  1  0  0  0  0
 14 37  1  0  0  0  0
 15 16  1  0  0  0  0
 16 17  1  0  0  0  0
 16 18  1  0  0  0  0
 16 38  1  0  0  0  0
 17 39  1  0  0  0  0
 17 40  1  0  0  0  0
 17 41  1  0  0  0  0
 18 42  1  0  0  0  0
 18 43  1  0  0  0  0
 19 20  1  0  0  0  0
 20 21  2  0  0  0  0
 20 44  1  0  0  0  0
 21 22  1  0  0  0  0
 22 45  1  0  0  0  0
 22 46  1  0  0  0  0
 22 47  1  0  0  0  0
M  CHG  1  12   1
M  END
> <s_m_source_file>
AV-unprocessed.smi

> <i_m_source_file_index>
1554

> <i_lp_mmshare_version>
43012

> <i_f3d_flags>
0

> <s_epik_input>
W0NIM11jKFtjSF0xKWMoW0NIM10pW2NIXWMoYzEyKW4oW2NIXW4yKVtDSDJdW0NASF0oW09IXSlbQ0gyXU4zW0NIMl1bQ0gyXU9bQ0BASF0oW0NIM10pW0NIMl0z

> <s_epik_cmdline>
J2VwaWtfcHl0aG9uJywgJy1waCcsICc3LjAnLCAnLXRuJywgJzgnLCAnLW1hJywgJzIwMCcsICctbWV0YWxfYmluZGluZycsICctaW1hZScsICc8aW5maWxlLm1hZT4nLCAnLW9tYWUnLCAnPG91dGZpbGUubWFlPic=

> <r_epik_Ionization_Penalty>
0.695251

> <r_epik_Ionization_Penalty_Charging>
0.608065

> <r_epik_Ionization_Penalty_Neutral>
0.0871863

> <r_epik_State_Penalty>
0.731955

> <r_epik_Charging_Adjusted_Penalty>
1.34002

> <i_epik_Tot_Q>
1

> <i_epik_Tot_abs_Q>
1

> <r_epik_Metal_State_Penalty>
0.652186

> <b_epik_Metal_Only>
0

> <s_lp_Force_Field>
OPLS_2005

> <r_lp_Energy>
22.7175

> <b_lp_Chiralities_Consistent>
1

> <s_lp_Variant>
AV-unprocessed.smi:1554-7

> <Gold.Version>
5.8.1

> <Gold.Id.Protein>
6NUR|6NUR_protein|mol2

> <Gold.PLP.Fitness>
48.9294

> <Gold.PLP.PLP>
-38.9396

> <Gold.PLP.part.hbond>
-5.5455

> <Gold.PLP.part.metal>
0.0000

> <Gold.PLP.part.buried>
-2.7202

> <Gold.PLP.part.nonpolar>
-29.5891

> <Gold.PLP.part.repulsive>
0.0006

> <Gold.PLP.ligand.clash>
0.0000

> <Gold.PLP.ligand.torsion>
1.0186

> <Gold.PLP.Chemscore.Hbond>
3.9913

> <Gold.PLP.Chemscore.CHOScore>
0.0000

> <Gold.PLP.Chemscore.Metal>
0.0000

> <Gold.Chemscore.Hbonds>
donor molecule, donor type, donor heavy atom, donor atom, acceptor molecule, acceptor atom, score
      L1  H    12    48       P1  8028  2.00
      P1  H  7997  8008       L1     5  0.83
      P1  H  8011  8017       L1    10  1.00

> <Gold.PLP.Chemscore.Internal.Correction>
0.0533

> <Gold.Rescore>
     Score         DG    S(hbond)    S(metal)    S(lipo)     H(rot)  DE(clash)    DE(int)     intcor
     16.72     -20.57       2.29        0.00     108.50       2.05       2.80       1.06       ----

> <Gold.Chemscore.Fitness>
16.7180

> <Gold.Chemscore.DG>
-20.5719

> <Gold.Chemscore.ZeroCoef>
-5.4800

> <Gold.Chemscore.Hbond>
2.2927

> <Gold.Chemscore.Metal>
0.0000

> <Gold.Chemscore.Lipo>
108.4953

> <Gold.Chemscore.Internal_Hbond>
0.0000

> <Gold.Chemscore.DEClash>
2.7988

> <Gold.Chemscore.DEInternal>
1.0550

> <Gold.Chemscore.Rot>
2.0546

> <Gold.Chemscore.Internal.Correction>
   9.000000E+99

> <Gold.Chemscore.Hbonds>
donor molecule, donor type, donor heavy atom, donor atom, acceptor molecule, acceptor atom, score
      L1  H    10    31       P1  7957  0.01
      L1  H    12    48       P1  8028  0.74
      P1  H  7997  8008       L1     5  0.05
      P1  H  8011  8017       L1    10  0.87

> <Gold.Chemscore.Hbond.Weighted>
-7.6576

> <Gold.Chemscore.Metal.Weighted>
-0.0000

> <Gold.Chemscore.Lipo.Weighted>
-12.6939

> <Gold.Chemscore.Internal_Hbond.Weighted>
0.0000

> <Gold.Chemscore.DEClash.Weighted>
2.7988

> <Gold.Chemscore.DEInternal.Weighted>
1.0550

> <Gold.Chemscore.Rot.Weighted>
5.2597

> <Gold.Chemscore.Internal.Correction.Weighted>
   9.000000E+99

> <Gold.Protein.RotatedTorsions>
[ 6907 6896 6895 6894 ] final -111.64 input  -60.11 | X-H torsion
[ 7974 7965 7964 7962 ] final   85.87 input  175.53 | X-H torsion
[ 8008 7997 7996 7995 ] final  -73.61 input   59.86 | X-H torsion
[ 10167 10162 10161 10158 ] final  -50.25 input  -65.29 | X-H torsion
[ 10718 10713 10712 10709 ] final  -87.10 input   66.30 | X-H torsion
[ 10763 10752 10751 10750 ] final  -15.29 input  -60.55 | X-H torsion
[ 11005 11000 10999 10996 ] final  130.69 input  -57.11 | X-H torsion

> <Gold.Protein.ActiveResidues>
 VAL166  LYS551  ARG553  GLY616  TRP617  ASP618  TYR619  PRO620  LYS621  CYS622 
 ASP623  PHE694  ASN695  SER759  ASP760  ASP761  ALA762  ILE779  LEU786  VAL792 
 PHE793  MET794  SER795  GLU796  ALA797  LYS798  CYS799  TRP800  GLU811  SER814 

> <Gold.Protein.RotatedAtoms>
  150.7704  133.9206  159.3396 H   0  0  0  0  0  0  0  0  0  0  0  0  # atno 6907 bound_to 6896
  151.7094  135.0913  160.0274 H   0  0  0  0  0  0  0  0  0  0  0  0  # atno 6908 bound_to 6896
  152.3718  133.6391  159.6129 H   0  0  0  0  0  0  0  0  0  0  0  0  # atno 6909 bound_to 6896
  145.5798  139.2323  143.2359 H   0  0  0  0  0  0  0  0  0  0  0  0  # atno 7974 bound_to 7965
  154.5262  140.0776  156.8262 H   0  0  0  0  0  0  0  0  0  0  0  0  # atno 8008 bound_to 7997
  155.3471  140.3410  155.4221 H   0  0  0  0  0  0  0  0  0  0  0  0  # atno 8009 bound_to 7997
  156.1734  140.1627  156.8394 H   0  0  0  0  0  0  0  0  0  0  0  0  # atno 8010 bound_to 7997
  140.6647  143.2665  151.4332 H   0  0  0  0  0  0  0  0  0  0  0  0  # atno 10167 bound_to 10162
  155.9986  130.4788  150.4815 H   0  0  0  0  0  0  0  0  0  0  0  0  # atno 10718 bound_to 10713
  153.5410  135.7013  153.5636 H   0  0  0  0  0  0  0  0  0  0  0  0  # atno 10763 bound_to 10752
  153.3602  135.3972  155.1712 H   0  0  0  0  0  0  0  0  0  0  0  0  # atno 10764 bound_to 10752
  154.8673  135.3787  154.4915 H   0  0  0  0  0  0  0  0  0  0  0  0  # atno 10765 bound_to 10752
  139.9687  134.9583  156.9331 H   0  0  0  0  0  0  0  0  0  0  0  0  # atno 11005 bound_to 11000
  146.1724  140.6624  142.9227 LP  0  0  0  0  0  0  0  0  0  0  0  0  # atno 17320 bound_to 7965
  144.7399  140.4913  143.6877 LP  0  0  0  0  0  0  0  0  0  0  0  0  # atno 17321 bound_to 7965
  139.5891  144.1538  152.2066 LP  0  0  0  0  0  0  0  0  0  0  0  0  # atno 17342 bound_to 10162
  140.0887  144.5639  150.7070 LP  0  0  0  0  0  0  0  0  0  0  0  0  # atno 17343 bound_to 10162
  157.2820  131.0609  151.2191 LP  0  0  0  0  0  0  0  0  0  0  0  0  # atno 17370 bound_to 10713
  157.3234  130.6948  149.6282 LP  0  0  0  0  0  0  0  0  0  0  0  0  # atno 17371 bound_to 10713
  140.5341  134.0785  155.7323 LP  0  0  0  0  0  0  0  0  0  0  0  0  # atno 17394 bound_to 11000
  141.1366  133.9210  157.2419 LP  0  0  0  0  0  0  0  0  0  0  0  0  # atno 17395 bound_to 11000

$$$$
