AV-unprocessed.smi:243|AV-procd|sdf|1860|dock2
  -GOLD-   2262020493D 1   1.00000     0.00000
 Structure written by MMmdl.
 58 61  0  0  0  0  0  0  0  0  2 V2000
  144.3079  132.4309  149.7566 C   0  0  0  0  0  0  0  0  0  0  0  0
  143.7536  132.0521  151.1379 C   0  0  0  0  0  0  0  0  0  0  0  0
  144.2623  132.9350  152.2181 N   0  3  2  0  0  0  0  0  0  0  0  0
  143.8334  134.3445  152.0386 C   0  0  0  0  0  0  0  0  0  0  0  0
  144.2136  135.1904  153.2611 C   0  0  0  0  0  0  0  0  0  0  0  0
  145.7305  135.1167  153.5435 C   0  0  1  0  0  0  0  0  0  0  0  0
  146.1428  135.9602  154.6760 N   0  0  0  0  0  0  0  0  0  0  0  0
  146.5384  135.3060  155.9172 C   0  0  0  0  0  0  0  0  0  0  0  0
  146.7414  137.1643  154.4913 C   0  0  0  0  0  0  0  0  0  0  0  0
  146.1574  138.1108  153.7114 N   0  0  0  0  0  0  0  0  0  0  0  0
  146.7540  139.2917  153.5234 C   0  0  0  0  0  0  0  0  0  0  0  0
  147.9167  139.7260  154.0129 N   0  0  0  0  0  0  0  0  0  0  0  0
  148.5103  138.7782  154.7936 C   0  0  0  0  0  0  0  0  0  0  0  0
  147.9948  137.4835  155.0824 C   0  0  0  0  0  0  0  0  0  0  0  0
  148.8631  136.8048  155.9281 N   0  0  0  0  0  0  0  0  0  0  0  0
  149.8374  137.6497  156.1269 C   0  0  0  0  0  0  0  0  0  0  0  0
  149.7148  138.8548  155.4717 N   0  0  0  0  0  0  0  0  0  0  0  0
  150.6466  139.9721  155.5153 C   0  0  0  0  0  0  0  0  0  0  0  0
  149.9955  141.3303  155.8827 C   0  0  2  0  0  0  0  0  0  0  0  0
  149.5279  141.9595  154.7039 O   0  0  0  0  0  0  0  0  0  0  0  0
  150.9258  142.2914  156.6267 C   0  0  0  0  0  0  0  0  0  0  0  0
  150.5262  142.0966  158.0818 C   0  0  0  0  0  0  0  0  0  0  0  0
  149.1186  141.9716  157.9925 O   0  0  0  0  0  0  0  0  0  0  0  0
  148.8252  141.1469  156.8710 C   0  0  0  0  0  0  0  0  0  0  0  0
  146.2017  133.6404  153.6439 C   0  0  2  0  0  0  0  0  0  0  0  0
  147.7301  133.5258  153.7900 C   0  0  0  0  0  0  0  0  0  0  0  0
  145.7335  132.8437  152.4084 C   0  0  0  0  0  0  0  0  0  0  0  0
  143.9981  131.7026  149.0069 H   0  0  0  0  0  0  0  0  0  0  0  0
  145.3981  132.4536  149.7617 H   0  0  0  0  0  0  0  0  0  0  0  0
  143.9514  133.4050  149.4230 H   0  0  0  0  0  0  0  0  0  0  0  0
  142.6627  132.0563  151.1313 H   0  0  0  0  0  0  0  0  0  0  0  0
  144.0568  131.0245  151.3428 H   0  0  0  0  0  0  0  0  0  0  0  0
  144.2880  134.7556  151.1357 H   0  0  0  0  0  0  0  0  0  0  0  0
  142.7526  134.3902  151.8992 H   0  0  0  0  0  0  0  0  0  0  0  0
  143.9116  136.2243  153.0907 H   0  0  0  0  0  0  0  0  0  0  0  0
  143.6371  134.8409  154.1165 H   0  0  0  0  0  0  0  0  0  0  0  0
  146.2319  135.5397  152.6717 H   0  0  0  0  0  0  0  0  0  0  0  0
  147.6246  135.2314  155.9839 H   0  0  0  0  0  0  0  0  0  0  0  0
  146.1277  134.2979  155.9759 H   0  0  0  0  0  0  0  0  0  0  0  0
  146.1789  135.8603  156.7841 H   0  0  0  0  0  0  0  0  0  0  0  0
  146.2258  139.9874  152.8883 H   0  0  0  0  0  0  0  0  0  0  0  0
  150.6803  137.4132  156.7600 H   0  0  0  0  0  0  0  0  0  0  0  0
  151.4316  139.7290  156.2329 H   0  0  0  0  0  0  0  0  0  0  0  0
  151.1363  140.0415  154.5430 H   0  0  0  0  0  0  0  0  0  0  0  0
  149.1006  142.7673  154.9444 H   0  0  0  0  0  0  0  0  0  0  0  0
  151.9870  142.1185  156.4582 H   0  0  0  0  0  0  0  0  0  0  0  0
  150.7188  143.3254  156.3455 H   0  0  0  0  0  0  0  0  0  0  0  0
  150.9567  141.1806  158.4895 H   0  0  0  0  0  0  0  0  0  0  0  0
  150.8191  142.9327  158.7171 H   0  0  0  0  0  0  0  0  0  0  0  0
  147.8562  141.4149  156.4478 H   0  0  0  0  0  0  0  0  0  0  0  0
  148.7546  140.1136  157.2139 H   0  0  0  0  0  0  0  0  0  0  0  0
  145.7474  133.1709  154.5164 H   0  0  0  0  0  0  0  0  0  0  0  0
  148.2445  133.9929  152.9495 H   0  0  0  0  0  0  0  0  0  0  0  0
  148.0434  132.4823  153.8324 H   0  0  0  0  0  0  0  0  0  0  0  0
  148.0867  134.0032  154.7024 H   0  0  0  0  0  0  0  0  0  0  0  0
  146.0289  131.8025  152.5320 H   0  0  0  0  0  0  0  0  0  0  0  0
  146.2370  133.2063  151.5106 H   0  0  0  0  0  0  0  0  0  0  0  0
  143.8317  132.6152  153.0743 H   0  0  0  0  0  0  0  0  0  0  0  0
  1  2  1  0  0  0  0
  1 28  1  0  0  0  0
  1 29  1  0  0  0  0
  1 30  1  0  0  0  0
  2  3  1  0  0  0  0
  2 31  1  0  0  0  0
  2 32  1  0  0  0  0
  3 27  1  0  0  0  0
  3  4  1  0  0  0  0
  3 58  1  0  0  0  0
  4  5  1  0  0  0  0
  4 33  1  0  0  0  0
  4 34  1  0  0  0  0
  5  6  1  0  0  0  0
  5 35  1  0  0  0  0
  5 36  1  0  0  0  0
  6  7  1  0  0  0  0
  6 25  1  0  0  0  0
  6 37  1  0  0  0  0
  7  8  1  0  0  0  0
  7  9  1  0  0  0  0
  8 38  1  0  0  0  0
  8 39  1  0  0  0  0
  8 40  1  0  0  0  0
  9 14  1  0  0  0  0
  9 10  2  0  0  0  0
 10 11  1  0  0  0  0
 11 12  2  0  0  0  0
 11 41  1  0  0  0  0
 12 13  1  0  0  0  0
 13 17  1  0  0  0  0
 13 14  2  0  0  0  0
 14 15  1  0  0  0  0
 15 16  2  0  0  0  0
 16 17  1  0  0  0  0
 16 42  1  0  0  0  0
 17 18  1  0  0  0  0
 18 19  1  0  0  0  0
 18 43  1  0  0  0  0
 18 44  1  0  0  0  0
 19 24  1  0  0  0  0
 19 20  1  0  0  0  0
 19 21  1  0  0  0  0
 20 45  1  0  0  0  0
 21 22  1  0  0  0  0
 21 46  1  0  0  0  0
 21 47  1  0  0  0  0
 22 23  1  0  0  0  0
 22 48  1  0  0  0  0
 22 49  1  0  0  0  0
 23 24  1  0  0  0  0
 24 50  1  0  0  0  0
 24 51  1  0  0  0  0
 25 26  1  0  0  0  0
 25 27  1  0  0  0  0
 25 52  1  0  0  0  0
 26 53  1  0  0  0  0
 26 54  1  0  0  0  0
 26 55  1  0  0  0  0
 27 56  1  0  0  0  0
 27 57  1  0  0  0  0
M  CHG  1   3   1
M  END
> <s_m_source_file>
AV-unprocessed.smi

> <i_m_source_file_index>
243

> <i_lp_mmshare_version>
43012

> <i_f3d_flags>
0

> <s_epik_input>
W0NIM11bQ0gyXU4xW0NIMl1bQ0gyXVtDQEhdKFtDQEBIXShbQ0gzXSlbQ0gyXTEpTihbQ0gzXSljKG5bY0hdbjIpYyhjMjMpbltjSF1uM1tDSDJdW0NAQF00KFtPSF0pW0NIMl1bQ0gyXU9bQ0gyXTQ=

> <s_epik_cmdline>
J2VwaWtfcHl0aG9uJywgJy1waCcsICc3LjAnLCAnLXRuJywgJzgnLCAnLW1hJywgJzIwMCcsICctbWV0YWxfYmluZGluZycsICctaW1hZScsICc8aW5maWxlLm1hZT4nLCAnLW9tYWUnLCAnPG91dGZpbGUubWFlPic=

> <r_lp_tautomer_probability>
1

> <r_epik_Ionization_Penalty>
0.00253099

> <r_epik_Ionization_Penalty_Charging>
0.00137877

> <r_epik_Ionization_Penalty_Neutral>
0.00115221

> <r_epik_State_Penalty>
-0

> <r_epik_Charging_Adjusted_Penalty>
0.00137877

> <i_epik_Tot_Q>
1

> <i_epik_Tot_abs_Q>
1

> <r_epik_Metal_State_Penalty>
-0

> <b_epik_Metal_Only>
0

> <s_lp_Force_Field>
OPLS_2005

> <r_lp_Energy>
45.5006

> <b_lp_Chiralities_Consistent>
1

> <s_lp_Variant>
AV-unprocessed.smi:243-13

> <Gold.Version>
5.8.1

> <Gold.Id.Protein>
6NUR|6NUR_protein|mol2

> <Gold.PLP.Fitness>
39.2454

> <Gold.PLP.PLP>
-30.6921

> <Gold.PLP.part.hbond>
-3.1364

> <Gold.PLP.part.metal>
0.0000

> <Gold.PLP.part.buried>
-6.2312

> <Gold.PLP.part.nonpolar>
-24.3131

> <Gold.PLP.part.repulsive>
0.4603

> <Gold.PLP.ligand.clash>
0.0225

> <Gold.PLP.ligand.torsion>
1.5864

> <Gold.PLP.Chemscore.Hbond>
2.5522

> <Gold.PLP.Chemscore.CHOScore>
1.0000

> <Gold.PLP.Chemscore.Metal>
0.0000

> <Gold.Chemscore.Hbonds>
donor molecule, donor type, donor heavy atom, donor atom, acceptor molecule, acceptor atom, score
      L1  H     3    58       P1 10957  0.94
      L1  H    20    45       P1  8028  0.88
      P1  H  8011  8017       L1    20  0.01
      L1  C    11    41       P1 10175  0.78

> <Gold.PLP.Chemscore.Internal.Correction>
1.0920

> <Gold.Rescore>
     Score         DG    S(hbond)    S(metal)    S(lipo)     H(rot)  DE(clash)    DE(int)     intcor
     10.00     -14.19       1.83        0.00      71.22       2.24       0.05       4.14       ----

> <Gold.Chemscore.Fitness>
9.9991

> <Gold.Chemscore.DG>
-14.1852

> <Gold.Chemscore.ZeroCoef>
-5.4800

> <Gold.Chemscore.Hbond>
1.8267

> <Gold.Chemscore.Metal>
0.0000

> <Gold.Chemscore.Lipo>
71.2238

> <Gold.Chemscore.Internal_Hbond>
0.0000

> <Gold.Chemscore.DEClash>
0.0462

> <Gold.Chemscore.DEInternal>
4.1399

> <Gold.Chemscore.Rot>
2.2379

> <Gold.Chemscore.Internal.Correction>
   9.000000E+99

> <Gold.Chemscore.Hbonds>
donor molecule, donor type, donor heavy atom, donor atom, acceptor molecule, acceptor atom, score
      L1  H     3    58       P1 10957  0.09
      L1  H    20    45       P1  8028  0.85

> <Gold.Chemscore.Hbond.Weighted>
-6.1011

> <Gold.Chemscore.Metal.Weighted>
-0.0000

> <Gold.Chemscore.Lipo.Weighted>
-8.3332

> <Gold.Chemscore.Internal_Hbond.Weighted>
0.0000

> <Gold.Chemscore.DEClash.Weighted>
0.0462

> <Gold.Chemscore.DEInternal.Weighted>
4.1399

> <Gold.Chemscore.Rot.Weighted>
5.7291

> <Gold.Chemscore.Internal.Correction.Weighted>
   9.000000E+99

> <Gold.Protein.RotatedTorsions>
[ 6907 6896 6895 6894 ] final  110.17 input  -60.11 | X-H torsion
[ 7974 7965 7964 7962 ] final   50.45 input  175.53 | X-H torsion
[ 8008 7997 7996 7995 ] final -104.71 input   59.86 | X-H torsion
[ 10167 10162 10161 10158 ] final   22.70 input  -65.29 | X-H torsion
[ 10718 10713 10712 10709 ] final   65.67 input   66.30 | X-H torsion
[ 10763 10752 10751 10750 ] final  -15.90 input  -60.55 | X-H torsion
[ 11005 11000 10999 10996 ] final -179.62 input  -57.11 | X-H torsion

> <Gold.Protein.ActiveResidues>
 VAL166  LYS551  ARG553  GLY616  TRP617  ASP618  TYR619  PRO620  LYS621  CYS622 
 ASP623  PHE694  ASN695  SER759  ASP760  ASP761  ALA762  ILE779  LEU786  VAL792 
 PHE793  MET794  SER795  GLU796  ALA797  LYS798  CYS799  TRP800  GLU811  SER814 

> <Gold.Protein.RotatedAtoms>
  152.5033  133.8839  159.7359 H   0  0  0  0  0  0  0  0  0  0  0  0  # atno 6907 bound_to 6896
  150.9295  133.6775  159.2821 H   0  0  0  0  0  0  0  0  0  0  0  0  # atno 6908 bound_to 6896
  151.4124  135.0991  159.9642 H   0  0  0  0  0  0  0  0  0  0  0  0  # atno 6909 bound_to 6896
  146.0010  139.4440  143.0015 H   0  0  0  0  0  0  0  0  0  0  0  0  # atno 7974 bound_to 7965
  154.8892  140.0416  157.1828 H   0  0  0  0  0  0  0  0  0  0  0  0  # atno 8008 bound_to 7997
  154.8558  140.2936  155.5549 H   0  0  0  0  0  0  0  0  0  0  0  0  # atno 8009 bound_to 7997
  156.2997  140.2456  156.3524 H   0  0  0  0  0  0  0  0  0  0  0  0  # atno 8010 bound_to 7997
  140.5328  143.9813  150.6475 H   0  0  0  0  0  0  0  0  0  0  0  0  # atno 10167 bound_to 10162
  157.6120  130.9226  150.0007 H   0  0  0  0  0  0  0  0  0  0  0  0  # atno 10718 bound_to 10713
  153.5503  135.7011  153.5594 H   0  0  0  0  0  0  0  0  0  0  0  0  # atno 10763 bound_to 10752
  153.3521  135.3992  155.1654 H   0  0  0  0  0  0  0  0  0  0  0  0  # atno 10764 bound_to 10752
  154.8662  135.3768  154.5014 H   0  0  0  0  0  0  0  0  0  0  0  0  # atno 10765 bound_to 10752
  140.4166  134.6643  157.4642 H   0  0  0  0  0  0  0  0  0  0  0  0  # atno 11005 bound_to 11000
  145.7487  140.9981  143.1262 LP  0  0  0  0  0  0  0  0  0  0  0  0  # atno 17320 bound_to 7965
  144.6919  139.9187  143.7467 LP  0  0  0  0  0  0  0  0  0  0  0  0  # atno 17321 bound_to 7965
  140.3192  143.3148  152.0801 LP  0  0  0  0  0  0  0  0  0  0  0  0  # atno 17342 bound_to 10162
  139.4960  144.6585  151.6518 LP  0  0  0  0  0  0  0  0  0  0  0  0  # atno 17343 bound_to 10162
  156.1227  130.3645  149.9861 LP  0  0  0  0  0  0  0  0  0  0  0  0  # atno 17370 bound_to 10713
  156.7938  130.9265  151.3646 LP  0  0  0  0  0  0  0  0  0  0  0  0  # atno 17371 bound_to 10713
  140.0229  134.6519  155.9213 LP  0  0  0  0  0  0  0  0  0  0  0  0  # atno 17394 bound_to 11000
  141.1800  133.6545  156.4983 LP  0  0  0  0  0  0  0  0  0  0  0  0  # atno 17395 bound_to 11000

$$$$
