AV-unprocessed.smi:1432|AV-procd|sdf|5832|dock6
  -GOLD-   22720 5493D 1   1.00000     0.00000
 Structure written by MMmdl.
 47 48  0  0  0  0  0  0  0  0  2 V2000
  146.2634  132.4777  152.0167 C   0  0  0  0  0  0  0  0  0  0  0  0
  147.0513  133.7091  151.5186 C   0  0  1  0  0  0  0  0  0  0  0  0
  146.2379  134.5651  150.5247 C   0  0  0  0  0  0  0  0  0  0  0  0
  145.1252  135.3605  151.2229 C   0  0  0  0  0  0  0  0  0  0  0  0
  145.7145  136.1956  152.3662 C   0  0  0  0  0  0  0  0  0  0  0  0
  146.5183  135.3176  153.3394 C   0  0  0  0  0  0  0  0  0  0  0  0
  147.5825  134.5609  152.6249 N   0  3  1  0  0  0  0  0  0  0  0  0
  148.5160  133.8467  153.5330 C   0  0  0  0  0  0  0  0  0  0  0  0
  148.9154  134.7056  154.7482 C   0  0  0  0  0  0  0  0  0  0  0  0
  149.6424  135.9031  154.3428 N   0  0  0  0  0  0  0  0  0  0  0  0
  150.1278  136.8282  155.1848 C   0  0  0  0  0  0  0  0  0  0  0  0
  150.0014  136.7519  156.4078 O   0  0  0  0  0  0  0  0  0  0  0  0
  150.8525  138.0144  154.5320 C   0  0  0  0  0  0  0  0  0  0  0  0
  150.8197  139.2421  155.3446 N   0  0  0  0  0  0  0  0  0  0  0  0
  149.5509  139.7800  155.6361 C   0  0  0  0  0  0  0  0  0  0  0  0
  149.3772  140.8838  156.3873 C   0  0  0  0  0  0  0  0  0  0  0  0
  147.9928  141.4571  156.6463 C   0  0  0  0  0  0  0  0  0  0  0  0
  147.2301  140.5449  157.2473 F   0  0  0  0  0  0  0  0  0  0  0  0
  148.0520  142.5339  157.4298 F   0  0  0  0  0  0  0  0  0  0  0  0
  147.4002  141.8025  155.5028 F   0  0  0  0  0  0  0  0  0  0  0  0
  150.5809  141.5320  156.8700 C   0  0  0  0  0  0  0  0  0  0  0  0
  151.8026  141.0333  156.5965 C   0  0  0  0  0  0  0  0  0  0  0  0
  151.9736  139.8160  155.7997 C   0  0  0  0  0  0  0  0  0  0  0  0
  153.0834  139.3408  155.5582 O   0  0  0  0  0  0  0  0  0  0  0  0
  145.9173  131.8779  151.1746 H   0  0  0  0  0  0  0  0  0  0  0  0
  145.3849  132.7536  152.5990 H   0  0  0  0  0  0  0  0  0  0  0  0
  146.8793  131.8261  152.6363 H   0  0  0  0  0  0  0  0  0  0  0  0
  147.9137  133.3306  150.9677 H   0  0  0  0  0  0  0  0  0  0  0  0
  146.9089  135.2628  150.0216 H   0  0  0  0  0  0  0  0  0  0  0  0
  145.8143  133.9367  149.7405 H   0  0  0  0  0  0  0  0  0  0  0  0
  144.6222  136.0095  150.5053 H   0  0  0  0  0  0  0  0  0  0  0  0
  144.3646  134.6825  151.6113 H   0  0  0  0  0  0  0  0  0  0  0  0
  146.3619  136.9715  151.9555 H   0  0  0  0  0  0  0  0  0  0  0  0
  144.9160  136.7110  152.9009 H   0  0  0  0  0  0  0  0  0  0  0  0
  146.9609  135.9581  154.1012 H   0  0  0  0  0  0  0  0  0  0  0  0
  145.8558  134.6291  153.8646 H   0  0  0  0  0  0  0  0  0  0  0  0
  148.0751  132.9021  153.8551 H   0  0  0  0  0  0  0  0  0  0  0  0
  149.4209  133.5916  152.9798 H   0  0  0  0  0  0  0  0  0  0  0  0
  148.0321  134.9864  155.3250 H   0  0  0  0  0  0  0  0  0  0  0  0
  149.5615  134.1458  155.4236 H   0  0  0  0  0  0  0  0  0  0  0  0
  149.7911  136.0369  153.3526 H   0  0  0  0  0  0  0  0  0  0  0  0
  151.8821  137.7224  154.3167 H   0  0  0  0  0  0  0  0  0  0  0  0
  150.4013  138.2005  153.5561 H   0  0  0  0  0  0  0  0  0  0  0  0
  148.7215  139.2313  155.2135 H   0  0  0  0  0  0  0  0  0  0  0  0
  150.5041  142.4299  157.4652 H   0  0  0  0  0  0  0  0  0  0  0  0
  152.6778  141.5407  156.9749 H   0  0  0  0  0  0  0  0  0  0  0  0
  148.1482  135.2572  152.1609 H   0  0  0  0  0  0  0  0  0  0  0  0
  1  2  1  0  0  0  0
  1 25  1  0  0  0  0
  1 26  1  0  0  0  0
  1 27  1  0  0  0  0
  2  7  1  0  0  0  0
  2  3  1  0  0  0  0
  2 28  1  0  0  0  0
  3  4  1  0  0  0  0
  3 29  1  0  0  0  0
  3 30  1  0  0  0  0
  4  5  1  0  0  0  0
  4 31  1  0  0  0  0
  4 32  1  0  0  0  0
  5  6  1  0  0  0  0
  5 33  1  0  0  0  0
  5 34  1  0  0  0  0
  6  7  1  0  0  0  0
  6 35  1  0  0  0  0
  6 36  1  0  0  0  0
  7  8  1  0  0  0  0
  7 47  1  0  0  0  0
  8  9  1  0  0  0  0
  8 37  1  0  0  0  0
  8 38  1  0  0  0  0
  9 10  1  0  0  0  0
  9 39  1  0  0  0  0
  9 40  1  0  0  0  0
 10 11  1  0  0  0  0
 10 41  1  0  0  0  0
 11 12  2  0  0  0  0
 11 13  1  0  0  0  0
 13 14  1  0  0  0  0
 13 42  1  0  0  0  0
 13 43  1  0  0  0  0
 14 23  1  0  0  0  0
 14 15  1  0  0  0  0
 15 16  2  0  0  0  0
 15 44  1  0  0  0  0
 16 17  1  0  0  0  0
 16 21  1  0  0  0  0
 17 18  1  0  0  0  0
 17 19  1  0  0  0  0
 17 20  1  0  0  0  0
 21 22  2  0  0  0  0
 21 45  1  0  0  0  0
 22 23  1  0  0  0  0
 22 46  1  0  0  0  0
 23 24  2  0  0  0  0
M  CHG  1   7   1
M  END
> <s_m_source_file>
AV-unprocessed.smi

> <i_m_source_file_index>
1432

> <i_lp_mmshare_version>
43012

> <i_f3d_flags>
0

> <s_epik_input>
W0NIM11bQ0BASF0xW0NIMl1bQ0gyXVtDSDJdW0NIMl1OMVtDSDJdW0NIMl1bTkhdQyg9TylbQ0gyXW4yW2NIXWMoQyhGKShGKUYpW2NIXVtjSF1jMj1P

> <s_epik_cmdline>
J2VwaWtfcHl0aG9uJywgJy1waCcsICc3LjAnLCAnLXRuJywgJzgnLCAnLW1hJywgJzIwMCcsICctbWV0YWxfYmluZGluZycsICctaW1hZScsICc8aW5maWxlLm1hZT4nLCAnLW9tYWUnLCAnPG91dGZpbGUubWFlPic=

> <r_lp_tautomer_probability>
1

> <r_epik_Ionization_Penalty>
0.00237222

> <r_epik_Ionization_Penalty_Charging>
0.00237213

> <r_epik_Ionization_Penalty_Neutral>
8.2065e-08

> <r_epik_State_Penalty>
0.00163922

> <r_epik_Charging_Adjusted_Penalty>
0.00401135

> <i_epik_Tot_Q>
1

> <i_epik_Tot_abs_Q>
1

> <r_epik_Metal_State_Penalty>
-0

> <b_epik_Metal_Only>
0

> <s_lp_Force_Field>
OPLS_2005

> <r_lp_Energy>
30.8691

> <b_lp_Chiralities_Consistent>
1

> <s_lp_Variant>
AV-unprocessed.smi:1432-2

> <Gold.Version>
5.8.1

> <Gold.Id.Protein>
6NUR|6NUR_protein|mol2

> <Gold.PLP.Fitness>
46.4190

> <Gold.PLP.PLP>
-36.1941

> <Gold.PLP.part.hbond>
-3.1542

> <Gold.PLP.part.metal>
0.0000

> <Gold.PLP.part.buried>
-4.9138

> <Gold.PLP.part.nonpolar>
-28.1194

> <Gold.PLP.part.repulsive>
0.0535

> <Gold.PLP.ligand.clash>
0.0000

> <Gold.PLP.ligand.torsion>
0.4800

> <Gold.PLP.Chemscore.Hbond>
3.7000

> <Gold.PLP.Chemscore.CHOScore>
0.0000

> <Gold.PLP.Chemscore.Metal>
0.0000

> <Gold.Chemscore.Hbonds>
donor molecule, donor type, donor heavy atom, donor atom, acceptor molecule, acceptor atom, score
      L1  H     7    47       P1  7948  0.65
      L1  H    10    41       P1  7948  0.63
      P1  H  7997  8008       L1    24  1.00

> <Gold.PLP.Chemscore.Internal.Correction>
0.0849

> <Gold.Rescore>
     Score         DG    S(hbond)    S(metal)    S(lipo)     H(rot)  DE(clash)    DE(int)     intcor
     15.45     -16.07       2.63        0.00      60.92       2.08       0.06       0.56       ----

> <Gold.Chemscore.Fitness>
15.4475

> <Gold.Chemscore.DG>
-16.0655

> <Gold.Chemscore.ZeroCoef>
-5.4800

> <Gold.Chemscore.Hbond>
2.6265

> <Gold.Chemscore.Metal>
0.0000

> <Gold.Chemscore.Lipo>
60.9235

> <Gold.Chemscore.Internal_Hbond>
0.0000

> <Gold.Chemscore.DEClash>
0.0595

> <Gold.Chemscore.DEInternal>
0.5586

> <Gold.Chemscore.Rot>
2.0762

> <Gold.Chemscore.Internal.Correction>
   9.000000E+99

> <Gold.Chemscore.Hbonds>
donor molecule, donor type, donor heavy atom, donor atom, acceptor molecule, acceptor atom, score
      L1  H     7    47       P1  7948  0.27
      L1  H    10    41       P1  7948  0.06
      P1  H  7997  8008       L1    24  0.96

> <Gold.Chemscore.Hbond.Weighted>
-8.7725

> <Gold.Chemscore.Metal.Weighted>
-0.0000

> <Gold.Chemscore.Lipo.Weighted>
-7.1281

> <Gold.Chemscore.Internal_Hbond.Weighted>
0.0000

> <Gold.Chemscore.DEClash.Weighted>
0.0595

> <Gold.Chemscore.DEInternal.Weighted>
0.5586

> <Gold.Chemscore.Rot.Weighted>
5.3150

> <Gold.Chemscore.Internal.Correction.Weighted>
   9.000000E+99

> <Gold.Protein.RotatedTorsions>
[ 6907 6896 6895 6894 ] final   43.36 input  -60.11 | X-H torsion
[ 7974 7965 7964 7962 ] final  170.09 input  175.53 | X-H torsion
[ 8008 7997 7996 7995 ] final  -24.06 input   59.86 | X-H torsion
[ 10167 10162 10161 10158 ] final -114.72 input  -65.29 | X-H torsion
[ 10718 10713 10712 10709 ] final   13.96 input   66.30 | X-H torsion
[ 10763 10752 10751 10750 ] final -119.69 input  -60.55 | X-H torsion
[ 11005 11000 10999 10996 ] final -115.33 input  -57.11 | X-H torsion

> <Gold.Protein.ActiveResidues>
 VAL166  LYS551  ARG553  GLY616  TRP617  ASP618  TYR619  PRO620  LYS621  CYS622 
 ASP623  PHE694  ASN695  SER759  ASP760  ASP761  ALA762  ILE779  LEU786  VAL792 
 PHE793  MET794  SER795  GLU796  ALA797  LYS798  CYS799  TRP800  GLU811  SER814 

> <Gold.Protein.RotatedAtoms>
  152.2193  134.8428  160.0487 H   0  0  0  0  0  0  0  0  0  0  0  0  # atno 6907 bound_to 6896
  151.9217  133.3582  159.3907 H   0  0  0  0  0  0  0  0  0  0  0  0  # atno 6908 bound_to 6896
  150.6996  134.4553  159.5399 H   0  0  0  0  0  0  0  0  0  0  0  0  # atno 6909 bound_to 6896
  144.7334  139.9151  143.6417 H   0  0  0  0  0  0  0  0  0  0  0  0  # atno 7974 bound_to 7965
  154.4550  140.1964  156.0405 H   0  0  0  0  0  0  0  0  0  0  0  0  # atno 8008 bound_to 7997
  156.0728  140.3282  155.7569 H   0  0  0  0  0  0  0  0  0  0  0  0  # atno 8009 bound_to 7997
  155.5236  140.0572  157.2893 H   0  0  0  0  0  0  0  0  0  0  0  0  # atno 8010 bound_to 7997
  140.0979  143.4640  152.1830 H   0  0  0  0  0  0  0  0  0  0  0  0  # atno 10167 bound_to 10162
  157.0323  130.6198  149.5737 H   0  0  0  0  0  0  0  0  0  0  0  0  # atno 10718 bound_to 10713
  154.8624  135.4229  154.2340 H   0  0  0  0  0  0  0  0  0  0  0  0  # atno 10763 bound_to 10752
  153.3319  135.6988  153.6946 H   0  0  0  0  0  0  0  0  0  0  0  0  # atno 10764 bound_to 10752
  153.5959  135.3546  155.2901 H   0  0  0  0  0  0  0  0  0  0  0  0  # atno 10765 bound_to 10752
  141.0495  133.9710  157.2861 H   0  0  0  0  0  0  0  0  0  0  0  0  # atno 11005 bound_to 11000
  146.0971  139.3964  143.0369 LP  0  0  0  0  0  0  0  0  0  0  0  0  # atno 17320 bound_to 7965
  145.7630  140.9928  143.1190 LP  0  0  0  0  0  0  0  0  0  0  0  0  # atno 17321 bound_to 7965
  139.5688  144.7450  151.3949 LP  0  0  0  0  0  0  0  0  0  0  0  0  # atno 17342 bound_to 10162
  140.6994  143.7670  150.7378 LP  0  0  0  0  0  0  0  0  0  0  0  0  # atno 17343 bound_to 10162
  156.0065  130.5153  150.7848 LP  0  0  0  0  0  0  0  0  0  0  0  0  # atno 17370 bound_to 10713
  157.5168  131.0929  151.0129 LP  0  0  0  0  0  0  0  0  0  0  0  0  # atno 17371 bound_to 10713
  139.9338  135.0198  156.8490 LP  0  0  0  0  0  0  0  0  0  0  0  0  # atno 17394 bound_to 11000
  140.6083  134.0106  155.7566 LP  0  0  0  0  0  0  0  0  0  0  0  0  # atno 17395 bound_to 11000

$$$$
