AV-unprocessed.smi:1965|AV-procd|sdf|7945|dock1
  -GOLD-   2272010113D 1   1.00000     0.00000
 Structure written by MMmdl.
 36 38  0  0  0  0  0  0  0  0  3 V2000
  152.9797  139.4907  156.8619 O   0  0  0  0  0  0  0  0  0  0  0  0
  152.2166  140.3642  157.2726 C   0  0  0  0  0  0  0  0  0  0  0  0
  152.4137  141.0478  158.4299 N   0  5  0  0  0  0  0  0  0  0  0  0
  152.1989  142.3724  158.5341 C   0  0  0  0  0  0  0  0  0  0  0  0
  151.4591  143.0665  157.6615 N   0  0  0  0  0  0  0  0  0  0  0  0
  151.3756  144.4270  157.9637 C   0  0  0  0  0  0  0  0  0  0  0  0
  152.0661  144.7764  159.0939 C   0  0  0  0  0  0  0  0  0  0  0  0
  152.8422  143.3980  159.8195 S   0  0  0  0  0  0  0  0  0  0  0  0
  151.1248  140.6665  156.5461 N   0  0  0  0  0  0  0  0  0  0  0  0
  150.7540  140.0728  155.2681 C   0  0  1  0  0  0  0  0  0  0  0  0
  150.8276  138.5338  155.2373 C   0  0  0  0  0  0  0  0  0  0  0  0
  149.6224  138.0864  154.3864 C   0  0  0  0  0  0  0  0  0  0  0  0
  148.9910  139.3347  153.9163 N   0  3  1  0  0  0  0  0  0  0  0  0
  147.5545  139.2768  153.5681 C   0  0  0  0  0  0  0  0  0  0  0  0
  147.1030  140.6523  153.0356 C   0  0  0  0  0  0  0  0  0  0  0  0
  147.4547  141.7909  154.0153 C   0  0  0  0  0  0  0  0  0  0  0  0
  148.9440  141.7448  154.4083 C   0  0  0  0  0  0  0  0  0  0  0  0
  149.2884  140.3452  154.9413 C   0  0  2  0  0  0  0  0  0  0  0  0
  150.8014  145.0756  157.3189 H   0  0  0  0  0  0  0  0  0  0  0  0
  152.1621  145.7529  159.5443 H   0  0  0  0  0  0  0  0  0  0  0  0
  150.5120  141.3805  156.9125 H   0  0  0  0  0  0  0  0  0  0  0  0
  151.3822  140.4828  154.4745 H   0  0  0  0  0  0  0  0  0  0  0  0
  151.7740  138.1946  154.8146 H   0  0  0  0  0  0  0  0  0  0  0  0
  150.7475  138.1126  156.2407 H   0  0  0  0  0  0  0  0  0  0  0  0
  149.9178  137.4622  153.5427 H   0  0  0  0  0  0  0  0  0  0  0  0
  148.9223  137.5179  155.0006 H   0  0  0  0  0  0  0  0  0  0  0  0
  147.3916  138.5077  152.8126 H   0  0  0  0  0  0  0  0  0  0  0  0
  146.9706  138.9967  154.4461 H   0  0  0  0  0  0  0  0  0  0  0  0
  147.5866  140.8433  152.0766 H   0  0  0  0  0  0  0  0  0  0  0  0
  146.0300  140.6441  152.8420 H   0  0  0  0  0  0  0  0  0  0  0  0
  147.2129  142.7572  153.5718 H   0  0  0  0  0  0  0  0  0  0  0  0
  146.8401  141.7004  154.9121 H   0  0  0  0  0  0  0  0  0  0  0  0
  149.5643  141.9815  153.5428 H   0  0  0  0  0  0  0  0  0  0  0  0
  149.1577  142.5009  155.1647 H   0  0  0  0  0  0  0  0  0  0  0  0
  148.6794  140.1336  155.8240 H   0  0  0  0  0  0  0  0  0  0  0  0
  149.4940  139.6158  153.0868 H   0  0  0  0  0  0  0  0  0  0  0  0
  1  2  2  0  0  0  0
  2  3  1  0  0  0  0
  2  9  1  0  0  0  0
  3  4  1  0  0  0  0
  4  8  1  0  0  0  0
  4  5  2  0  0  0  0
  5  6  1  0  0  0  0
  6  7  2  0  0  0  0
  6 19  1  0  0  0  0
  7  8  1  0  0  0  0
  7 20  1  0  0  0  0
  9 10  1  0  0  0  0
  9 21  1  0  0  0  0
 10 18  1  0  0  0  0
 10 11  1  0  0  0  0
 10 22  1  0  0  0  0
 11 12  1  0  0  0  0
 11 23  1  0  0  0  0
 11 24  1  0  0  0  0
 12 13  1  0  0  0  0
 12 25  1  0  0  0  0
 12 26  1  0  0  0  0
 13 18  1  0  0  0  0
 13 14  1  0  0  0  0
 13 36  1  0  0  0  0
 14 15  1  0  0  0  0
 14 27  1  0  0  0  0
 14 28  1  0  0  0  0
 15 16  1  0  0  0  0
 15 29  1  0  0  0  0
 15 30  1  0  0  0  0
 16 17  1  0  0  0  0
 16 31  1  0  0  0  0
 16 32  1  0  0  0  0
 17 18  1  0  0  0  0
 17 33  1  0  0  0  0
 17 34  1  0  0  0  0
 18 35  1  0  0  0  0
M  CHG  1   3  -1
M  CHG  1  13   1
M  END
> <s_m_source_file>
AV-unprocessed.smi

> <i_m_source_file_index>
1965

> <i_lp_mmshare_version>
43012

> <i_f3d_flags>
0

> <s_epik_input>
czFbY0hdW2NIXW5jMVtOSF1DKD1PKVtOSF1bQ0BIXShbQ0gyXVtDSDJdMilbQ0BASF0oTjIzKVtDSDJdW0NIMl1bQ0gyXVtDSDJdMw==

> <s_epik_cmdline>
J2VwaWtfcHl0aG9uJywgJy1waCcsICc3LjAnLCAnLXRuJywgJzgnLCAnLW1hJywgJzIwMCcsICctbWV0YWxfYmluZGluZycsICctaW1hZScsICc8aW5maWxlLm1hZT4nLCAnLW9tYWUnLCAnPG91dGZpbGUubWFlPic=

> <r_lp_tautomer_probability>
1

> <r_epik_Ionization_Penalty>
7.4116

> <r_epik_Ionization_Penalty_Charging>
6.13869

> <r_epik_Ionization_Penalty_Neutral>
1.27291

> <r_epik_State_Penalty>
6.13761

> <r_epik_Charging_Adjusted_Penalty>
12.2763

> <i_epik_Tot_Q>
0

> <i_epik_Tot_abs_Q>
2

> <r_epik_Metal_State_Penalty>
2.08142

> <b_epik_Metal_Only>
1

> <s_lp_Force_Field>
OPLS_2005

> <r_lp_Energy>
26.2693

> <b_lp_Chiralities_Consistent>
1

> <s_lp_Variant>
AV-unprocessed.smi:1965-14

> <Gold.Version>
5.8.1

> <Gold.Id.Protein>
6NUR|6NUR_protein|mol2

> <Gold.PLP.Fitness>
44.8721

> <Gold.PLP.PLP>
-37.0063

> <Gold.PLP.part.hbond>
-2.0000

> <Gold.PLP.part.metal>
0.0000

> <Gold.PLP.part.buried>
-0.6190

> <Gold.PLP.part.nonpolar>
-33.9637

> <Gold.PLP.part.repulsive>
0.2643

> <Gold.PLP.ligand.clash>
0.0000

> <Gold.PLP.ligand.torsion>
0.5775

> <Gold.PLP.Chemscore.Hbond>
2.0000

> <Gold.PLP.Chemscore.CHOScore>
1.0000

> <Gold.PLP.Chemscore.Metal>
0.0000

> <Gold.Chemscore.Hbonds>
donor molecule, donor type, donor heavy atom, donor atom, acceptor molecule, acceptor atom, score
      L1  H    13    36       P1  7957  1.00
      P1  H  7997  8009       L1     1  1.00
      L1  C     6    19       P1  8028  1.00

> <Gold.PLP.Chemscore.Internal.Correction>
0.0208

> <Gold.Rescore>
     Score         DG    S(hbond)    S(metal)    S(lipo)     H(rot)  DE(clash)    DE(int)     intcor
     17.96     -19.83       1.88        0.00      90.75       1.00       0.18       1.68       ----

> <Gold.Chemscore.Fitness>
17.9628

> <Gold.Chemscore.DG>
-19.8281

> <Gold.Chemscore.ZeroCoef>
-5.4800

> <Gold.Chemscore.Hbond>
1.8832

> <Gold.Chemscore.Metal>
0.0000

> <Gold.Chemscore.Lipo>
90.7532

> <Gold.Chemscore.Internal_Hbond>
0.0000

> <Gold.Chemscore.DEClash>
0.1846

> <Gold.Chemscore.DEInternal>
1.6807

> <Gold.Chemscore.Rot>
1.0000

> <Gold.Chemscore.Internal.Correction>
   9.000000E+99

> <Gold.Chemscore.Hbonds>
donor molecule, donor type, donor heavy atom, donor atom, acceptor molecule, acceptor atom, score
      L1  H    13    36       P1  7957  0.95
      P1  H  7997  8009       L1     1  0.74

> <Gold.Chemscore.Hbond.Weighted>
-6.2900

> <Gold.Chemscore.Metal.Weighted>
-0.0000

> <Gold.Chemscore.Lipo.Weighted>
-10.6181

> <Gold.Chemscore.Internal_Hbond.Weighted>
0.0000

> <Gold.Chemscore.DEClash.Weighted>
0.1846

> <Gold.Chemscore.DEInternal.Weighted>
1.6807

> <Gold.Chemscore.Rot.Weighted>
2.5600

> <Gold.Chemscore.Internal.Correction.Weighted>
   9.000000E+99

> <Gold.Protein.RotatedTorsions>
[ 6907 6896 6895 6894 ] final   75.26 input  -60.11 | X-H torsion
[ 7974 7965 7964 7962 ] final  -53.56 input  175.53 | X-H torsion
[ 8008 7997 7996 7995 ] final -158.33 input   59.86 | X-H torsion
[ 10167 10162 10161 10158 ] final   52.56 input  -65.29 | X-H torsion
[ 10718 10713 10712 10709 ] final  159.82 input   66.30 | X-H torsion
[ 10763 10752 10751 10750 ] final   62.75 input  -60.55 | X-H torsion
[ 11005 11000 10999 10996 ] final  117.13 input  -57.11 | X-H torsion

> <Gold.Protein.ActiveResidues>
 VAL166  LYS551  ARG553  GLY616  TRP617  ASP618  TYR619  PRO620  LYS621  CYS622 
 ASP623  PHE694  ASN695  SER759  ASP760  ASP761  ALA762  ILE779  LEU786  VAL792 
 PHE793  MET794  SER795  GLU796  ALA797  LYS798  CYS799  TRP800  GLU811  SER814 

> <Gold.Protein.RotatedAtoms>
  152.5017  134.4147  159.9460 H   0  0  0  0  0  0  0  0  0  0  0  0  # atno 6907 bound_to 6896
  151.4117  133.3719  159.2752 H   0  0  0  0  0  0  0  0  0  0  0  0  # atno 6908 bound_to 6896
  150.9287  134.8724  159.7596 H   0  0  0  0  0  0  0  0  0  0  0  0  # atno 6909 bound_to 6896
  145.8954  140.8037  142.9770 H   0  0  0  0  0  0  0  0  0  0  0  0  # atno 7974 bound_to 7965
  155.7460  140.0820  157.2224 H   0  0  0  0  0  0  0  0  0  0  0  0  # atno 8008 bound_to 7997
  154.4017  140.1569  156.2725 H   0  0  0  0  0  0  0  0  0  0  0  0  # atno 8009 bound_to 7997
  155.8976  140.3411  155.6005 H   0  0  0  0  0  0  0  0  0  0  0  0  # atno 8010 bound_to 7997
  140.2501  144.3488  150.6351 H   0  0  0  0  0  0  0  0  0  0  0  0  # atno 10167 bound_to 10162
  157.1589  131.0582  151.2242 H   0  0  0  0  0  0  0  0  0  0  0  0  # atno 10718 bound_to 10713
  152.9993  135.5454  154.6243 H   0  0  0  0  0  0  0  0  0  0  0  0  # atno 10763 bound_to 10752
  154.5535  135.2828  155.0989 H   0  0  0  0  0  0  0  0  0  0  0  0  # atno 10764 bound_to 10752
  154.2219  135.6449  153.5200 H   0  0  0  0  0  0  0  0  0  0  0  0  # atno 10765 bound_to 10752
  139.9064  134.9606  156.7304 H   0  0  0  0  0  0  0  0  0  0  0  0  # atno 11005 bound_to 11000
  144.6732  140.1595  143.7423 LP  0  0  0  0  0  0  0  0  0  0  0  0  # atno 17320 bound_to 7965
  145.8856  139.2347  143.1579 LP  0  0  0  0  0  0  0  0  0  0  0  0  # atno 17321 bound_to 7965
  140.6047  143.2167  151.7004 LP  0  0  0  0  0  0  0  0  0  0  0  0  # atno 17342 bound_to 10162
  139.5049  144.3737  152.0444 LP  0  0  0  0  0  0  0  0  0  0  0  0  # atno 17343 bound_to 10162
  157.4151  130.7406  149.6869 LP  0  0  0  0  0  0  0  0  0  0  0  0  # atno 17370 bound_to 10713
  155.9757  130.4085  150.3829 LP  0  0  0  0  0  0  0  0  0  0  0  0  # atno 17371 bound_to 10713
  140.6930  133.9373  155.7977 LP  0  0  0  0  0  0  0  0  0  0  0  0  # atno 17394 bound_to 11000
  141.0428  134.0597  157.3881 LP  0  0  0  0  0  0  0  0  0  0  0  0  # atno 17395 bound_to 11000

$$$$
