AV-unprocessed.smi:685|AV-procd|sdf|3336|dock6
  -GOLD-   22720 0303D 1   1.00000     0.00000
 Structure written by MMmdl.
 51 52  0  0  0  0  0  0  0  0  2 V2000
  149.2488  141.2596  154.2101 C   0  0  0  0  0  0  0  0  0  0  0  0
  150.1051  141.3842  155.4257 C   0  0  0  0  0  0  0  0  0  0  0  0
  150.4449  142.5651  156.0085 N   0  3  0  0  0  0  0  0  0  0  0  0
  151.2178  142.3463  157.0821 N   0  0  0  0  0  0  0  0  0  0  0  0
  151.6927  143.4909  157.8598 C   0  0  0  0  0  0  0  0  0  0  0  0
  151.4263  141.0093  157.2484 C   0  0  0  0  0  0  0  0  0  0  0  0
  152.2448  140.4072  158.3441 C   0  0  0  0  0  0  0  0  0  0  0  0
  150.7214  140.3974  156.2038 C   0  0  0  0  0  0  0  0  0  0  0  0
  150.6273  138.9195  155.9483 C   0  0  0  0  0  0  0  0  0  0  0  0
  151.0698  138.5225  154.5229 C   0  0  1  0  0  0  0  0  0  0  0  0
  152.5851  138.6634  154.3102 C   0  0  0  0  0  0  0  0  0  0  0  0
  150.6735  137.1472  154.2333 N   0  0  0  0  0  0  0  0  0  0  0  0
  151.1037  136.0631  154.8982 C   0  0  0  0  0  0  0  0  0  0  0  0
  151.9011  136.1214  155.8350 O   0  0  0  0  0  0  0  0  0  0  0  0
  150.5440  134.7148  154.4354 C   0  0  0  0  0  0  0  0  0  0  0  0
  151.0796  133.5288  155.2602 C   0  0  0  0  0  0  0  0  0  0  0  0
  150.3516  132.2060  154.9620 C   0  0  0  0  0  0  0  0  0  0  0  0
  151.2746  130.9858  154.9860 C   0  0  0  0  0  0  0  0  0  0  0  0
  150.5080  129.8966  154.2295 C   0  0  0  0  0  0  0  0  0  0  0  0
  149.5381  130.6297  153.2905 C   0  0  0  0  0  0  0  0  0  0  0  0
  149.7130  132.1271  153.5714 C   0  0  0  0  0  0  0  0  0  0  0  0
  148.5065  140.4733  154.3481 H   0  0  0  0  0  0  0  0  0  0  0  0
  149.8609  141.0102  153.3433 H   0  0  0  0  0  0  0  0  0  0  0  0
  148.7270  142.1956  154.0094 H   0  0  0  0  0  0  0  0  0  0  0  0
  151.6733  143.2377  158.9203 H   0  0  0  0  0  0  0  0  0  0  0  0
  151.0498  144.3549  157.6858 H   0  0  0  0  0  0  0  0  0  0  0  0
  152.7139  143.7260  157.5590 H   0  0  0  0  0  0  0  0  0  0  0  0
  152.6554  139.4464  158.0347 H   0  0  0  0  0  0  0  0  0  0  0  0
  151.6288  140.2539  159.2300 H   0  0  0  0  0  0  0  0  0  0  0  0
  153.0763  141.0620  158.6055 H   0  0  0  0  0  0  0  0  0  0  0  0
  151.2140  138.3651  156.6814 H   0  0  0  0  0  0  0  0  0  0  0  0
  149.5970  138.6022  156.1131 H   0  0  0  0  0  0  0  0  0  0  0  0
  150.5735  139.1746  153.8021 H   0  0  0  0  0  0  0  0  0  0  0  0
  152.9142  139.6922  154.4574 H   0  0  0  0  0  0  0  0  0  0  0  0
  152.8667  138.3756  153.2968 H   0  0  0  0  0  0  0  0  0  0  0  0
  153.1442  138.0322  155.0018 H   0  0  0  0  0  0  0  0  0  0  0  0
  150.0170  137.0095  153.4783 H   0  0  0  0  0  0  0  0  0  0  0  0
  149.4567  134.7560  154.5066 H   0  0  0  0  0  0  0  0  0  0  0  0
  150.7828  134.5695  153.3812 H   0  0  0  0  0  0  0  0  0  0  0  0
  152.1497  133.4082  155.0842 H   0  0  0  0  0  0  0  0  0  0  0  0
  150.9698  133.7491  156.3233 H   0  0  0  0  0  0  0  0  0  0  0  0
  149.5718  132.0522  155.7100 H   0  0  0  0  0  0  0  0  0  0  0  0
  152.2021  131.2101  154.4569 H   0  0  0  0  0  0  0  0  0  0  0  0
  151.5385  130.6816  155.9994 H   0  0  0  0  0  0  0  0  0  0  0  0
  151.1832  129.2344  153.6865 H   0  0  0  0  0  0  0  0  0  0  0  0
  149.9440  129.2821  154.9322 H   0  0  0  0  0  0  0  0  0  0  0  0
  149.7368  130.4002  152.2431 H   0  0  0  0  0  0  0  0  0  0  0  0
  148.5138  130.3206  153.5024 H   0  0  0  0  0  0  0  0  0  0  0  0
  148.7688  132.6697  153.5136 H   0  0  0  0  0  0  0  0  0  0  0  0
  150.3861  132.5578  152.8285 H   0  0  0  0  0  0  0  0  0  0  0  0
  150.1871  143.5039  155.7313 H   0  0  0  0  0  0  0  0  0  0  0  0
  1  2  1  0  0  0  0
  1 22  1  0  0  0  0
  1 23  1  0  0  0  0
  1 24  1  0  0  0  0
  2  8  1  0  0  0  0
  2  3  2  0  0  0  0
  3  4  1  0  0  0  0
  3 51  1  0  0  0  0
  4  5  1  0  0  0  0
  4  6  1  0  0  0  0
  5 25  1  0  0  0  0
  5 26  1  0  0  0  0
  5 27  1  0  0  0  0
  6  7  1  0  0  0  0
  6  8  2  0  0  0  0
  7 28  1  0  0  0  0
  7 29  1  0  0  0  0
  7 30  1  0  0  0  0
  8  9  1  0  0  0  0
  9 10  1  0  0  0  0
  9 31  1  0  0  0  0
  9 32  1  0  0  0  0
 10 11  1  0  0  0  0
 10 12  1  0  0  0  0
 10 33  1  0  0  0  0
 11 34  1  0  0  0  0
 11 35  1  0  0  0  0
 11 36  1  0  0  0  0
 12 13  1  0  0  0  0
 12 37  1  0  0  0  0
 13 14  2  0  0  0  0
 13 15  1  0  0  0  0
 15 16  1  0  0  0  0
 15 38  1  0  0  0  0
 15 39  1  0  0  0  0
 16 17  1  0  0  0  0
 16 40  1  0  0  0  0
 16 41  1  0  0  0  0
 17 21  1  0  0  0  0
 17 18  1  0  0  0  0
 17 42  1  0  0  0  0
 18 19  1  0  0  0  0
 18 43  1  0  0  0  0
 18 44  1  0  0  0  0
 19 20  1  0  0  0  0
 19 45  1  0  0  0  0
 19 46  1  0  0  0  0
 20 21  1  0  0  0  0
 20 47  1  0  0  0  0
 20 48  1  0  0  0  0
 21 49  1  0  0  0  0
 21 50  1  0  0  0  0
M  CHG  1   3   1
M  END
> <s_m_source_file>
AV-unprocessed.smi

> <i_m_source_file_index>
685

> <i_lp_mmshare_version>
43012

> <i_f3d_flags>
0

> <s_epik_input>
W0NIM11jMW5uKFtDSDNdKWMoW0NIM10pYzFbQ0gyXVtDQEhdKFtDSDNdKVtOSF1DKD1PKVtDSDJdW0NIMl1bQ0hdMltDSDJdW0NIMl1bQ0gyXVtDSDJdMg==

> <s_epik_cmdline>
J2VwaWtfcHl0aG9uJywgJy1waCcsICc3LjAnLCAnLXRuJywgJzgnLCAnLW1hJywgJzIwMCcsICctbWV0YWxfYmluZGluZycsICctaW1hZScsICc8aW5maWxlLm1hZT4nLCAnLW9tYWUnLCAnPG91dGZpbGUubWFlPic=

> <r_lp_tautomer_probability>
1

> <r_epik_Ionization_Penalty>
2.26429

> <r_epik_Ionization_Penalty_Charging>
2.26429

> <r_epik_Ionization_Penalty_Neutral>
2.3289e-07

> <r_epik_State_Penalty>
2.41237

> <r_epik_Charging_Adjusted_Penalty>
4.67666

> <i_epik_Tot_Q>
1

> <i_epik_Tot_abs_Q>
1

> <r_epik_Metal_State_Penalty>
2.42525

> <b_epik_Metal_Only>
0

> <s_lp_Force_Field>
OPLS_2005

> <r_lp_Energy>
28.4866

> <b_lp_Chiralities_Consistent>
1

> <s_lp_Variant>
AV-unprocessed.smi:685-4

> <Gold.Version>
5.8.1

> <Gold.Id.Protein>
6NUR|6NUR_protein|mol2

> <Gold.PLP.Fitness>
54.4511

> <Gold.PLP.PLP>
-43.6036

> <Gold.PLP.part.hbond>
-3.2975

> <Gold.PLP.part.metal>
0.0000

> <Gold.PLP.part.buried>
-5.9199

> <Gold.PLP.part.nonpolar>
-35.7324

> <Gold.PLP.part.repulsive>
0.2131

> <Gold.PLP.ligand.clash>
0.0000

> <Gold.PLP.ligand.torsion>
0.6079

> <Gold.PLP.Chemscore.Hbond>
3.9913

> <Gold.PLP.Chemscore.CHOScore>
0.0000

> <Gold.PLP.Chemscore.Metal>
0.0000

> <Gold.Chemscore.Hbonds>
donor molecule, donor type, donor heavy atom, donor atom, acceptor molecule, acceptor atom, score
      L1  H     3    51       P1  8028  1.89
      L1  H    12    37       P1  7948  0.98
      P1  H 10752 10763       L1    14  1.00

> <Gold.PLP.Chemscore.Internal.Correction>
0.0896

> <Gold.Rescore>
     Score         DG    S(hbond)    S(metal)    S(lipo)     H(rot)  DE(clash)    DE(int)     intcor
     18.59     -21.13       2.54        0.00      96.55       1.61       0.65       1.89       ----

> <Gold.Chemscore.Fitness>
18.5929

> <Gold.Chemscore.DG>
-21.1340

> <Gold.Chemscore.ZeroCoef>
-5.4800

> <Gold.Chemscore.Hbond>
2.5384

> <Gold.Chemscore.Metal>
0.0000

> <Gold.Chemscore.Lipo>
96.5476

> <Gold.Chemscore.Internal_Hbond>
0.0000

> <Gold.Chemscore.DEClash>
0.6541

> <Gold.Chemscore.DEInternal>
1.8869

> <Gold.Chemscore.Rot>
1.6095

> <Gold.Chemscore.Internal.Correction>
   9.000000E+99

> <Gold.Chemscore.Hbonds>
donor molecule, donor type, donor heavy atom, donor atom, acceptor molecule, acceptor atom, score
      L1  H     3    51       P1  8028  0.91
      L1  H    12    37       P1  7948  0.23
      P1  H 10752 10763       L1    14  0.33

> <Gold.Chemscore.Hbond.Weighted>
-8.4781

> <Gold.Chemscore.Metal.Weighted>
-0.0000

> <Gold.Chemscore.Lipo.Weighted>
-11.2961

> <Gold.Chemscore.Internal_Hbond.Weighted>
0.0000

> <Gold.Chemscore.DEClash.Weighted>
0.6541

> <Gold.Chemscore.DEInternal.Weighted>
1.8869

> <Gold.Chemscore.Rot.Weighted>
4.1202

> <Gold.Chemscore.Internal.Correction.Weighted>
   9.000000E+99

> <Gold.Protein.RotatedTorsions>
[ 6907 6896 6895 6894 ] final -114.00 input  -60.11 | X-H torsion
[ 7974 7965 7964 7962 ] final -144.82 input  175.53 | X-H torsion
[ 8008 7997 7996 7995 ] final  -34.20 input   59.86 | X-H torsion
[ 10167 10162 10161 10158 ] final   90.67 input  -65.29 | X-H torsion
[ 10718 10713 10712 10709 ] final  -14.01 input   66.30 | X-H torsion
[ 10763 10752 10751 10750 ] final  101.28 input  -60.55 | X-H torsion
[ 11005 11000 10999 10996 ] final  -39.78 input  -57.11 | X-H torsion

> <Gold.Protein.ActiveResidues>
 VAL166  LYS551  ARG553  GLY616  TRP617  ASP618  TYR619  PRO620  LYS621  CYS622 
 ASP623  PHE694  ASN695  SER759  ASP760  ASP761  ALA762  ILE779  LEU786  VAL792 
 PHE793  MET794  SER795  GLU796  ALA797  LYS798  CYS799  TRP800  GLU811  SER814 

> <Gold.Protein.RotatedAtoms>
  150.7870  133.8864  159.3300 H   0  0  0  0  0  0  0  0  0  0  0  0  # atno 6907 bound_to 6896
  151.6712  135.0974  160.0207 H   0  0  0  0  0  0  0  0  0  0  0  0  # atno 6908 bound_to 6896
  152.3936  133.6676  159.6293 H   0  0  0  0  0  0  0  0  0  0  0  0  # atno 6909 bound_to 6896
  144.8271  140.5662  143.5540 H   0  0  0  0  0  0  0  0  0  0  0  0  # atno 7974 bound_to 7965
  154.4127  140.1690  156.2012 H   0  0  0  0  0  0  0  0  0  0  0  0  # atno 8008 bound_to 7997
  155.9523  140.3400  155.6395 H   0  0  0  0  0  0  0  0  0  0  0  0  # atno 8009 bound_to 7997
  155.6854  140.0727  157.2459 H   0  0  0  0  0  0  0  0  0  0  0  0  # atno 8010 bound_to 7997
  139.8450  144.6622  150.9238 H   0  0  0  0  0  0  0  0  0  0  0  0  # atno 10167 bound_to 10162
  156.6220  130.4878  149.6161 H   0  0  0  0  0  0  0  0  0  0  0  0  # atno 10718 bound_to 10713
  153.3247  135.4050  155.1446 H   0  0  0  0  0  0  0  0  0  0  0  0  # atno 10763 bound_to 10752
  154.8609  135.3596  154.5550 H   0  0  0  0  0  0  0  0  0  0  0  0  # atno 10764 bound_to 10752
  153.5985  135.7072  153.5453 H   0  0  0  0  0  0  0  0  0  0  0  0  # atno 10765 bound_to 10752
  141.0127  133.6900  156.2233 H   0  0  0  0  0  0  0  0  0  0  0  0  # atno 11005 bound_to 11000
  145.4977  139.1485  143.3674 LP  0  0  0  0  0  0  0  0  0  0  0  0  # atno 17320 bound_to 7965
  146.2575  140.5117  142.8867 LP  0  0  0  0  0  0  0  0  0  0  0  0  # atno 17321 bound_to 7965
  140.7794  143.3878  151.1362 LP  0  0  0  0  0  0  0  0  0  0  0  0  # atno 17342 bound_to 10162
  139.7521  143.8762  152.3079 LP  0  0  0  0  0  0  0  0  0  0  0  0  # atno 17343 bound_to 10162
  156.2304  130.6791  151.1457 LP  0  0  0  0  0  0  0  0  0  0  0  0  # atno 17370 bound_to 10713
  157.7225  131.0672  150.6076 LP  0  0  0  0  0  0  0  0  0  0  0  0  # atno 17371 bound_to 10713
  140.6707  134.4871  157.5587 LP  0  0  0  0  0  0  0  0  0  0  0  0  # atno 17394 bound_to 11000
  139.9099  134.8368  156.1567 LP  0  0  0  0  0  0  0  0  0  0  0  0  # atno 17395 bound_to 11000

$$$$
