AV-unprocessed.smi:3333|AV-procd|sdf|12831|dock2
  -GOLD-   2272019213D 1   1.00000     0.00000
 Structure written by MMmdl.
 41 43  0  0  0  0  0  0  0  0  1 V2000
  145.0911  144.9926  152.8038 C   0  0  0  0  0  0  0  0  0  0  0  0
  144.6524  144.3676  154.1323 C   0  0  0  0  0  0  0  0  0  0  0  0
  145.6296  143.3620  154.6425 C   0  0  0  0  0  0  0  0  0  0  0  0
  146.7384  143.0133  153.9850 N   0  0  0  0  0  0  0  0  0  0  0  0
  147.4769  142.0310  154.6530 C   0  0  0  0  0  0  0  0  0  0  0  0
  148.7611  141.5256  154.0591 C   0  0  0  0  0  0  0  0  0  0  0  0
  149.7662  141.1591  155.1556 C   0  0  0  0  0  0  0  0  0  0  0  0
  150.3682  140.0855  155.1150 O   0  0  0  0  0  0  0  0  0  0  0  0
  149.9331  142.0588  156.1376 N   0  0  0  0  0  0  0  0  0  0  0  0
  150.8274  141.8979  157.2794 C   0  0  0  0  0  0  0  0  0  0  0  0
  150.8006  143.1261  158.2136 C   0  0  2  0  0  0  0  0  0  0  0  0
  151.4315  144.3970  157.5975 C   0  0  0  0  0  0  0  0  0  0  0  0
  152.4874  144.8018  158.6420 C   0  0  1  0  0  0  0  0  0  0  0  0
  151.7856  145.3039  159.9178 C   0  0  0  0  0  0  0  0  0  0  0  0
  151.2222  144.0062  160.5278 C   0  0  0  0  0  0  0  0  0  0  0  0
  151.6396  142.9388  159.4981 C   0  0  2  0  0  0  0  0  0  0  0  0
  153.0184  143.4444  159.0841 C   0  0  0  0  0  0  0  0  0  0  0  0
  146.8920  141.6222  155.8266 C   0  0  0  0  0  0  0  0  0  0  0  0
  145.3996  142.4647  156.1384 S   0  0  0  0  0  0  0  0  0  0  0  0
  144.3578  145.7199  152.4557 H   0  0  0  0  0  0  0  0  0  0  0  0
  145.2014  144.2329  152.0297 H   0  0  0  0  0  0  0  0  0  0  0  0
  146.0473  145.5065  152.9079 H   0  0  0  0  0  0  0  0  0  0  0  0
  144.5210  145.1459  154.8849 H   0  0  0  0  0  0  0  0  0  0  0  0
  143.6834  143.8825  154.0120 H   0  0  0  0  0  0  0  0  0  0  0  0
  148.5658  140.6592  153.4256 H   0  0  0  0  0  0  0  0  0  0  0  0
  149.2159  142.2798  153.4159 H   0  0  0  0  0  0  0  0  0  0  0  0
  149.3975  142.9137  156.0949 H   0  0  0  0  0  0  0  0  0  0  0  0
  150.5572  140.9971  157.8331 H   0  0  0  0  0  0  0  0  0  0  0  0
  151.8346  141.7303  156.8974 H   0  0  0  0  0  0  0  0  0  0  0  0
  149.7635  143.3236  158.4887 H   0  0  0  0  0  0  0  0  0  0  0  0
  151.9133  144.1801  156.6431 H   0  0  0  0  0  0  0  0  0  0  0  0
  150.6952  145.1825  157.4242 H   0  0  0  0  0  0  0  0  0  0  0  0
  153.2415  145.4893  158.2578 H   0  0  0  0  0  0  0  0  0  0  0  0
  152.4988  145.7696  160.5989 H   0  0  0  0  0  0  0  0  0  0  0  0
  151.0051  146.0334  159.6986 H   0  0  0  0  0  0  0  0  0  0  0  0
  151.6819  143.8084  161.4970 H   0  0  0  0  0  0  0  0  0  0  0  0
  150.1423  144.0475  160.6745 H   0  0  0  0  0  0  0  0  0  0  0  0
  151.6199  141.9240  159.8970 H   0  0  0  0  0  0  0  0  0  0  0  0
  153.4713  142.8713  158.2738 H   0  0  0  0  0  0  0  0  0  0  0  0
  153.7242  143.5055  159.9145 H   0  0  0  0  0  0  0  0  0  0  0  0
  147.2492  140.8799  156.5249 H   0  0  0  0  0  0  0  0  0  0  0  0
  1  2  1  0  0  0  0
  1 20  1  0  0  0  0
  1 21  1  0  0  0  0
  1 22  1  0  0  0  0
  2  3  1  0  0  0  0
  2 23  1  0  0  0  0
  2 24  1  0  0  0  0
  3 19  1  0  0  0  0
  3  4  2  0  0  0  0
  4  5  1  0  0  0  0
  5  6  1  0  0  0  0
  5 18  2  0  0  0  0
  6  7  1  0  0  0  0
  6 25  1  0  0  0  0
  6 26  1  0  0  0  0
  7  8  2  0  0  0  0
  7  9  1  0  0  0  0
  9 10  1  0  0  0  0
  9 27  1  0  0  0  0
 10 11  1  0  0  0  0
 10 28  1  0  0  0  0
 10 29  1  0  0  0  0
 11 16  1  0  0  0  0
 11 12  1  0  0  0  0
 11 30  1  0  0  0  0
 12 13  1  0  0  0  0
 12 31  1  0  0  0  0
 12 32  1  0  0  0  0
 13 17  1  0  0  0  0
 13 14  1  0  0  0  0
 13 33  1  0  0  0  0
 14 15  1  0  0  0  0
 14 34  1  0  0  0  0
 14 35  1  0  0  0  0
 15 16  1  0  0  0  0
 15 36  1  0  0  0  0
 15 37  1  0  0  0  0
 16 17  1  0  0  0  0
 16 38  1  0  0  0  0
 17 39  1  0  0  0  0
 17 40  1  0  0  0  0
 18 19  1  0  0  0  0
 18 41  1  0  0  0  0
M  END
> <s_m_source_file>
AV-unprocessed.smi

> <i_m_source_file_index>
3333

> <i_lp_mmshare_version>
43012

> <i_f3d_flags>
0

> <s_epik_input>
W0NIM11bQ0gyXWMxbmMoW2NIXXMxKVtDSDJdQyg9TylbTkhdW0NIMl1bQ0BIXShbQ0gyXVtDQEBIXTIzKVtDQEBIXShbQ0gyXTMpW0NIMl1bQ0gyXTI=

> <s_epik_cmdline>
J2VwaWtfcHl0aG9uJywgJy1waCcsICc3LjAnLCAnLXRuJywgJzgnLCAnLW1hJywgJzIwMCcsICctbWV0YWxfYmluZGluZycsICctaW1hZScsICc8aW5maWxlLm1hZT4nLCAnLW9tYWUnLCAnPG91dGZpbGUubWFlPic=

> <r_lp_tautomer_probability>
1

> <r_epik_Ionization_Penalty>
6.68371e-05

> <r_epik_Ionization_Penalty_Charging>
0

> <r_epik_Ionization_Penalty_Neutral>
6.68371e-05

> <r_epik_State_Penalty>
-0

> <r_epik_Charging_Adjusted_Penalty>
0

> <i_epik_Tot_Q>
0

> <i_epik_Tot_abs_Q>
0

> <r_epik_Metal_State_Penalty>
-0

> <b_epik_Metal_Only>
0

> <s_lp_Force_Field>
OPLS_2005

> <r_lp_Energy>
44.1536

> <b_lp_Chiralities_Consistent>
1

> <s_lp_Variant>
AV-unprocessed.smi:3333-1

> <Gold.Version>
5.8.1

> <Gold.Id.Protein>
6NUR|6NUR_protein|mol2

> <Gold.PLP.Fitness>
51.8477

> <Gold.PLP.PLP>
-49.1125

> <Gold.PLP.part.hbond>
-1.8507

> <Gold.PLP.part.metal>
0.0000

> <Gold.PLP.part.buried>
-4.1515

> <Gold.PLP.part.nonpolar>
-44.4894

> <Gold.PLP.part.repulsive>
0.3405

> <Gold.PLP.ligand.clash>
0.0000

> <Gold.PLP.ligand.torsion>
0.5333

> <Gold.PLP.Chemscore.Hbond>
1.2559

> <Gold.PLP.Chemscore.CHOScore>
0.0000

> <Gold.PLP.Chemscore.Metal>
0.0000

> <Gold.Chemscore.Hbonds>
donor molecule, donor type, donor heavy atom, donor atom, acceptor molecule, acceptor atom, score
      L1  H     9    27       P1  8028  1.00
      P1  H  7989  7998       L1     8  0.26

> <Gold.PLP.Chemscore.Internal.Correction>
0.0340

> <Gold.Rescore>
     Score         DG    S(hbond)    S(metal)    S(lipo)     H(rot)  DE(clash)    DE(int)     intcor
     20.13     -20.74       0.98        0.00     133.60       1.42       0.10       0.51       ----

> <Gold.Chemscore.Fitness>
20.1261

> <Gold.Chemscore.DG>
-20.7395

> <Gold.Chemscore.ZeroCoef>
-5.4800

> <Gold.Chemscore.Hbond>
0.9792

> <Gold.Chemscore.Metal>
0.0000

> <Gold.Chemscore.Lipo>
133.5988

> <Gold.Chemscore.Internal_Hbond>
0.0000

> <Gold.Chemscore.DEClash>
0.1044

> <Gold.Chemscore.DEInternal>
0.5091

> <Gold.Chemscore.Rot>
1.4227

> <Gold.Chemscore.Internal.Correction>
   9.000000E+99

> <Gold.Chemscore.Hbonds>
donor molecule, donor type, donor heavy atom, donor atom, acceptor molecule, acceptor atom, score
      L1  H     9    27       P1  8028  0.99
      P1  H  7989  7998       L1     8  0.01

> <Gold.Chemscore.Hbond.Weighted>
-3.2706

> <Gold.Chemscore.Metal.Weighted>
-0.0000

> <Gold.Chemscore.Lipo.Weighted>
-15.6311

> <Gold.Chemscore.Internal_Hbond.Weighted>
0.0000

> <Gold.Chemscore.DEClash.Weighted>
0.1044

> <Gold.Chemscore.DEInternal.Weighted>
0.5091

> <Gold.Chemscore.Rot.Weighted>
3.6421

> <Gold.Chemscore.Internal.Correction.Weighted>
   9.000000E+99

> <Gold.Protein.RotatedTorsions>
[ 6907 6896 6895 6894 ] final   12.60 input  -60.11 | X-H torsion
[ 7974 7965 7964 7962 ] final   26.97 input  175.53 | X-H torsion
[ 8008 7997 7996 7995 ] final  151.68 input   59.86 | X-H torsion
[ 10167 10162 10161 10158 ] final -143.61 input  -65.29 | X-H torsion
[ 10718 10713 10712 10709 ] final  -53.34 input   66.30 | X-H torsion
[ 10763 10752 10751 10750 ] final  -88.64 input  -60.55 | X-H torsion
[ 11005 11000 10999 10996 ] final  -30.41 input  -57.11 | X-H torsion

> <Gold.Protein.ActiveResidues>
 VAL166  LYS551  ARG553  GLY616  TRP617  ASP618  TYR619  PRO620  LYS621  CYS622 
 ASP623  PHE694  ASN695  SER759  ASP760  ASP761  ALA762  ILE779  LEU786  VAL792 
 PHE793  MET794  SER795  GLU796  ALA797  LYS798  CYS799  TRP800  GLU811  SER814 

> <Gold.Protein.RotatedAtoms>
  151.7729  135.0781  160.0362 H   0  0  0  0  0  0  0  0  0  0  0  0  # atno 6907 bound_to 6896
  152.3276  133.5918  159.5796 H   0  0  0  0  0  0  0  0  0  0  0  0  # atno 6908 bound_to 6896
  150.7404  133.9833  159.3625 H   0  0  0  0  0  0  0  0  0  0  0  0  # atno 6909 bound_to 6896
  146.1809  139.7255  142.8901 H   0  0  0  0  0  0  0  0  0  0  0  0  # atno 7974 bound_to 7965
  156.2663  140.2041  156.6214 H   0  0  0  0  0  0  0  0  0  0  0  0  # atno 8008 bound_to 7997
  154.6754  140.0545  157.0234 H   0  0  0  0  0  0  0  0  0  0  0  0  # atno 8009 bound_to 7997
  155.1076  140.3212  155.4533 H   0  0  0  0  0  0  0  0  0  0  0  0  # atno 8010 bound_to 7997
  139.7977  143.7877  152.2655 H   0  0  0  0  0  0  0  0  0  0  0  0  # atno 10167 bound_to 10162
  156.1543  130.4150  149.9894 H   0  0  0  0  0  0  0  0  0  0  0  0  # atno 10718 bound_to 10713
  154.6468  135.5369  153.7854 H   0  0  0  0  0  0  0  0  0  0  0  0  # atno 10763 bound_to 10752
  153.0363  135.6472  154.1077 H   0  0  0  0  0  0  0  0  0  0  0  0  # atno 10764 bound_to 10752
  154.0998  135.2934  155.3234 H   0  0  0  0  0  0  0  0  0  0  0  0  # atno 10765 bound_to 10752
  140.9381  133.7296  156.1034 H   0  0  0  0  0  0  0  0  0  0  0  0  # atno 11005 bound_to 11000
  145.4079  141.0393  143.3034 LP  0  0  0  0  0  0  0  0  0  0  0  0  # atno 17320 bound_to 7965
  144.8313  139.5623  143.6942 LP  0  0  0  0  0  0  0  0  0  0  0  0  # atno 17321 bound_to 7965
  139.7987  144.7382  150.9854 LP  0  0  0  0  0  0  0  0  0  0  0  0  # atno 17342 bound_to 10162
  140.7820  143.4367  151.0613 LP  0  0  0  0  0  0  0  0  0  0  0  0  # atno 17343 bound_to 10162
  156.7742  130.9197  151.3645 LP  0  0  0  0  0  0  0  0  0  0  0  0  # atno 17370 bound_to 10713
  157.6682  130.9027  149.9981 LP  0  0  0  0  0  0  0  0  0  0  0  0  # atno 17371 bound_to 10713
  140.7772  134.3766  157.5495 LP  0  0  0  0  0  0  0  0  0  0  0  0  # atno 17394 bound_to 11000
  139.8813  134.9059  156.2910 LP  0  0  0  0  0  0  0  0  0  0  0  0  # atno 17395 bound_to 11000

$$$$
