AV-unprocessed.smi:1824|AV-procd|sdf|7406|dock3
  -GOLD-   22720 9 83D 1   1.00000     0.00000
 Structure written by MMmdl.
 45 47  0  0  0  0  0  0  0  0  2 V2000
  145.8818  141.9937  154.8725 C   0  0  0  0  0  0  0  0  0  0  0  0
  146.9540  141.9564  153.7689 C   0  0  1  0  0  0  0  0  0  0  0  0
  148.3961  141.9670  154.3119 C   0  0  0  0  0  0  0  0  0  0  0  0
  148.7489  140.6551  154.9078 N   0  3  2  0  0  0  0  0  0  0  0  0
  150.1023  140.6216  155.5188 C   0  0  0  0  0  0  0  0  0  0  0  0
  150.1257  141.2533  156.9248 C   0  0  1  0  0  0  0  0  0  0  0  0
  149.7495  140.2708  157.8717 O   0  0  0  0  0  0  0  0  0  0  0  0
  151.5178  141.8080  157.2841 C   0  0  0  0  0  0  0  0  0  0  0  0
  151.4561  142.8447  158.2996 N   0  0  0  0  0  0  0  0  0  0  0  0
  150.7914  144.0138  158.2225 C   0  0  0  0  0  0  0  0  0  0  0  0
  150.8613  144.8250  159.2737 N   0  0  0  0  0  0  0  0  0  0  0  0
  151.6651  144.0986  160.1352 C   0  0  0  0  0  0  0  0  0  0  0  0
  152.1237  144.4022  161.4370 C   0  0  0  0  0  0  0  0  0  0  0  0
  152.9437  143.4924  162.1363 C   0  0  0  0  0  0  0  0  0  0  0  0
  153.3718  143.7977  163.3843 F   0  0  0  0  0  0  0  0  0  0  0  0
  153.3186  142.2679  161.5445 C   0  0  0  0  0  0  0  0  0  0  0  0
  154.1051  141.3995  162.2233 F   0  0  0  0  0  0  0  0  0  0  0  0
  152.8757  141.9445  160.2477 C   0  0  0  0  0  0  0  0  0  0  0  0
  152.0560  142.8543  159.5546 C   0  0  0  0  0  0  0  0  0  0  0  0
  148.5371  139.5712  153.9216 C   0  0  0  0  0  0  0  0  0  0  0  0
  147.0805  139.5791  153.4228 C   0  0  2  0  0  0  0  0  0  0  0  0
  146.8392  138.5277  152.3338 C   0  0  0  0  0  0  0  0  0  0  0  0
  146.7736  140.8585  152.8741 O   0  0  0  0  0  0  0  0  0  0  0  0
  145.9632  142.9089  155.4593 H   0  0  0  0  0  0  0  0  0  0  0  0
  145.9691  141.1575  155.5658 H   0  0  0  0  0  0  0  0  0  0  0  0
  144.8804  141.9686  154.4419 H   0  0  0  0  0  0  0  0  0  0  0  0
  146.8194  142.8582  153.1708 H   0  0  0  0  0  0  0  0  0  0  0  0
  149.0902  142.1858  153.4985 H   0  0  0  0  0  0  0  0  0  0  0  0
  148.5062  142.7700  155.0398 H   0  0  0  0  0  0  0  0  0  0  0  0
  150.4476  139.5892  155.5965 H   0  0  0  0  0  0  0  0  0  0  0  0
  150.8074  141.1277  154.8577 H   0  0  0  0  0  0  0  0  0  0  0  0
  149.4064  142.0696  156.9841 H   0  0  0  0  0  0  0  0  0  0  0  0
  148.8096  140.2880  157.9712 H   0  0  0  0  0  0  0  0  0  0  0  0
  152.1726  141.0099  157.6370 H   0  0  0  0  0  0  0  0  0  0  0  0
  151.9930  142.2301  156.3976 H   0  0  0  0  0  0  0  0  0  0  0  0
  150.2213  144.2834  157.3453 H   0  0  0  0  0  0  0  0  0  0  0  0
  151.8431  145.3365  161.9003 H   0  0  0  0  0  0  0  0  0  0  0  0
  153.1615  141.0075  159.7940 H   0  0  0  0  0  0  0  0  0  0  0  0
  149.2283  139.6971  153.0863 H   0  0  0  0  0  0  0  0  0  0  0  0
  148.7591  138.6062  154.3792 H   0  0  0  0  0  0  0  0  0  0  0  0
  146.4081  139.3635  154.2535 H   0  0  0  0  0  0  0  0  0  0  0  0
  147.0490  137.5236  152.7031 H   0  0  0  0  0  0  0  0  0  0  0  0
  147.4737  138.7040  151.4647 H   0  0  0  0  0  0  0  0  0  0  0  0
  145.8023  138.5466  151.9970 H   0  0  0  0  0  0  0  0  0  0  0  0
  148.0962  140.4843  155.6599 H   0  0  0  0  0  0  0  0  0  0  0  0
  1  2  1  0  0  0  0
  1 24  1  0  0  0  0
  1 25  1  0  0  0  0
  1 26  1  0  0  0  0
  2 23  1  0  0  0  0
  2  3  1  0  0  0  0
  2 27  1  0  0  0  0
  3  4  1  0  0  0  0
  3 28  1  0  0  0  0
  3 29  1  0  0  0  0
  4  5  1  0  0  0  0
  4 20  1  0  0  0  0
  4 45  1  0  0  0  0
  5  6  1  0  0  0  0
  5 30  1  0  0  0  0
  5 31  1  0  0  0  0
  6  7  1  0  0  0  0
  6  8  1  0  0  0  0
  6 32  1  0  0  0  0
  7 33  1  0  0  0  0
  8  9  1  0  0  0  0
  8 34  1  0  0  0  0
  8 35  1  0  0  0  0
  9 19  1  0  0  0  0
  9 10  1  0  0  0  0
 10 11  2  0  0  0  0
 10 36  1  0  0  0  0
 11 12  1  0  0  0  0
 12 19  2  0  0  0  0
 12 13  1  0  0  0  0
 13 14  2  0  0  0  0
 13 37  1  0  0  0  0
 14 15  1  0  0  0  0
 14 16  1  0  0  0  0
 16 17  1  0  0  0  0
 16 18  2  0  0  0  0
 18 19  1  0  0  0  0
 18 38  1  0  0  0  0
 20 21  1  0  0  0  0
 20 39  1  0  0  0  0
 20 40  1  0  0  0  0
 21 22  1  0  0  0  0
 21 23  1  0  0  0  0
 21 41  1  0  0  0  0
 22 42  1  0  0  0  0
 22 43  1  0  0  0  0
 22 44  1  0  0  0  0
M  CHG  1   4   1
M  END
> <s_m_source_file>
AV-unprocessed.smi

> <i_m_source_file_index>
1824

> <i_lp_mmshare_version>
43012

> <i_f3d_flags>
0

> <s_epik_input>
W0NIM11bQ0BASF0xW0NIMl1OKFtDSDJdW0NASF0oTzEpW0NIM10pW0NIMl1bQ0BIXShbT0hdKVtDSDJdbihbY0hdbjIpYyhjMjMpW2NIXWMoRiljKEYpW2NIXTM=

> <s_epik_cmdline>
J2VwaWtfcHl0aG9uJywgJy1waCcsICc3LjAnLCAnLXRuJywgJzgnLCAnLW1hJywgJzIwMCcsICctbWV0YWxfYmluZGluZycsICctaW1hZScsICc8aW5maWxlLm1hZT4nLCAnLW9tYWUnLCAnPG91dGZpbGUubWFlPic=

> <r_epik_Ionization_Penalty>
0.61967

> <r_epik_Ionization_Penalty_Charging>
0.608065

> <r_epik_Ionization_Penalty_Neutral>
0.0116057

> <r_epik_State_Penalty>
0.664205

> <r_epik_Charging_Adjusted_Penalty>
1.27227

> <i_epik_Tot_Q>
1

> <i_epik_Tot_abs_Q>
1

> <r_epik_Metal_State_Penalty>
0.654947

> <b_epik_Metal_Only>
0

> <s_lp_Force_Field>
OPLS_2005

> <r_lp_Energy>
22.8883

> <b_lp_Chiralities_Consistent>
1

> <s_lp_Variant>
AV-unprocessed.smi:1824-14

> <Gold.Version>
5.8.1

> <Gold.Id.Protein>
6NUR|6NUR_protein|mol2

> <Gold.PLP.Fitness>
52.8906

> <Gold.PLP.PLP>
-51.3946

> <Gold.PLP.part.hbond>
0.0000

> <Gold.PLP.part.metal>
0.0000

> <Gold.PLP.part.buried>
-1.4806

> <Gold.PLP.part.nonpolar>
-48.8512

> <Gold.PLP.part.repulsive>
0.5470

> <Gold.PLP.ligand.clash>
0.0000

> <Gold.PLP.ligand.torsion>
0.7843

> <Gold.PLP.Chemscore.Hbond>
0.0000

> <Gold.PLP.Chemscore.CHOScore>
1.0000

> <Gold.PLP.Chemscore.Metal>
0.0000

> <Gold.Chemscore.Hbonds>
donor molecule, donor type, donor heavy atom, donor atom, acceptor molecule, acceptor atom, score
      L1  C    10    36       P1  8028  1.00

> <Gold.PLP.Chemscore.Internal.Correction>
0.0646

> <Gold.Rescore>
     Score         DG    S(hbond)    S(metal)    S(lipo)     H(rot)  DE(clash)    DE(int)     intcor
     11.62     -14.27       0.00        0.00     126.03       2.33       1.62       1.04       ----

> <Gold.Chemscore.Fitness>
11.6174

> <Gold.Chemscore.DG>
-14.2728

> <Gold.Chemscore.ZeroCoef>
-5.4800

> <Gold.Chemscore.Hbond>
0.0000

> <Gold.Chemscore.Metal>
0.0000

> <Gold.Chemscore.Lipo>
126.0263

> <Gold.Chemscore.Internal_Hbond>
0.0000

> <Gold.Chemscore.DEClash>
1.6169

> <Gold.Chemscore.DEInternal>
1.0385

> <Gold.Chemscore.Rot>
2.3251

> <Gold.Chemscore.Internal.Correction>
   9.000000E+99

> <Gold.Chemscore.Hbond.Weighted>
-0.0000

> <Gold.Chemscore.Metal.Weighted>
-0.0000

> <Gold.Chemscore.Lipo.Weighted>
-14.7451

> <Gold.Chemscore.Internal_Hbond.Weighted>
0.0000

> <Gold.Chemscore.DEClash.Weighted>
1.6169

> <Gold.Chemscore.DEInternal.Weighted>
1.0385

> <Gold.Chemscore.Rot.Weighted>
5.9523

> <Gold.Chemscore.Internal.Correction.Weighted>
   9.000000E+99

> <Gold.Protein.RotatedTorsions>
[ 6907 6896 6895 6894 ] final   19.49 input  -60.11 | X-H torsion
[ 7974 7965 7964 7962 ] final  -39.30 input  175.53 | X-H torsion
[ 8008 7997 7996 7995 ] final -155.89 input   59.86 | X-H torsion
[ 10167 10162 10161 10158 ] final   -9.50 input  -65.29 | X-H torsion
[ 10718 10713 10712 10709 ] final   37.22 input   66.30 | X-H torsion
[ 10763 10752 10751 10750 ] final   21.03 input  -60.55 | X-H torsion
[ 11005 11000 10999 10996 ] final -105.71 input  -57.11 | X-H torsion

> <Gold.Protein.ActiveResidues>
 VAL166  LYS551  ARG553  GLY616  TRP617  ASP618  TYR619  PRO620  LYS621  CYS622 
 ASP623  PHE694  ASN695  SER759  ASP760  ASP761  ALA762  ILE779  LEU786  VAL792 
 PHE793  MET794  SER795  GLU796  ALA797  LYS798  CYS799  TRP800  GLU811  SER814 

> <Gold.Protein.RotatedAtoms>
  151.8816  135.0451  160.0489 H   0  0  0  0  0  0  0  0  0  0  0  0  # atno 6907 bound_to 6896
  152.2508  133.5208  159.5332 H   0  0  0  0  0  0  0  0  0  0  0  0  # atno 6908 bound_to 6896
  150.7083  134.0879  159.3964 H   0  0  0  0  0  0  0  0  0  0  0  0  # atno 6909 bound_to 6896
  146.0409  140.6610  142.9088 H   0  0  0  0  0  0  0  0  0  0  0  0  # atno 7974 bound_to 7965
  155.7087  140.0775  157.2380 H   0  0  0  0  0  0  0  0  0  0  0  0  # atno 8008 bound_to 7997
  154.4062  140.1634  156.2326 H   0  0  0  0  0  0  0  0  0  0  0  0  # atno 8009 bound_to 7997
  155.9302  140.3392  155.6246 H   0  0  0  0  0  0  0  0  0  0  0  0  # atno 8010 bound_to 7997
  140.7089  143.5851  150.8951 H   0  0  0  0  0  0  0  0  0  0  0  0  # atno 10167 bound_to 10162
  157.3443  130.7564  149.6933 H   0  0  0  0  0  0  0  0  0  0  0  0  # atno 10718 bound_to 10713
  153.1028  135.6677  153.9641 H   0  0  0  0  0  0  0  0  0  0  0  0  # atno 10763 bound_to 10752
  153.9206  135.3015  155.3449 H   0  0  0  0  0  0  0  0  0  0  0  0  # atno 10764 bound_to 10752
  154.7449  135.5062  153.9263 H   0  0  0  0  0  0  0  0  0  0  0  0  # atno 10765 bound_to 10752
  141.1040  133.8831  157.1767 H   0  0  0  0  0  0  0  0  0  0  0  0  # atno 11005 bound_to 11000
  144.7074  140.3906  143.7107 LP  0  0  0  0  0  0  0  0  0  0  0  0  # atno 17320 bound_to 7965
  145.6886  139.1634  143.2659 LP  0  0  0  0  0  0  0  0  0  0  0  0  # atno 17321 bound_to 7965
  139.9577  143.6200  152.3011 LP  0  0  0  0  0  0  0  0  0  0  0  0  # atno 17342 bound_to 10162
  139.6741  144.7659  151.1729 LP  0  0  0  0  0  0  0  0  0  0  0  0  # atno 17343 bound_to 10162
  155.9712  130.4159  150.4203 LP  0  0  0  0  0  0  0  0  0  0  0  0  # atno 17370 bound_to 10713
  157.2255  131.0492  151.2522 LP  0  0  0  0  0  0  0  0  0  0  0  0  # atno 17371 bound_to 10713
  139.9903  135.0067  156.9958 LP  0  0  0  0  0  0  0  0  0  0  0  0  # atno 17394 bound_to 11000
  140.4949  134.1155  155.7239 LP  0  0  0  0  0  0  0  0  0  0  0  0  # atno 17395 bound_to 11000

$$$$
