AV-unprocessed.smi:2119|AV-procd|sdf|8636|dock9
  -GOLD-   2272011383D 1   1.00000     0.00000
 Structure written by MMmdl.
 48 50  0  0  0  0  0  0  0  0  2 V2000
  145.2989  135.9390  154.4249 O   0  0  0  0  0  0  0  0  0  0  0  0
  146.2300  136.0085  153.6236 C   0  0  0  0  0  0  0  0  0  0  0  0
  146.6417  134.9767  152.8727 N   0  0  0  0  0  0  0  0  0  0  0  0
  146.0739  133.6318  152.8931 C   0  0  0  0  0  0  0  0  0  0  0  0
  146.5049  132.7789  151.6694 C   0  0  2  0  0  0  0  0  0  0  0  0
  145.3480  132.4549  150.6812 C   0  0  1  0  0  0  0  0  0  0  0  0
  144.4224  133.6074  150.3232 C   0  0  0  0  0  0  0  0  0  0  0  0
  143.7893  133.1489  149.0114 C   0  0  0  0  0  0  0  0  0  0  0  0
  144.7085  132.2358  148.4236 O   0  0  0  0  0  0  0  0  0  0  0  0
  145.8295  132.0660  149.2792 C   0  0  0  0  0  0  0  0  0  0  0  0
  147.1702  131.5072  152.0872 N   0  3  0  0  0  0  0  0  0  0  0  0
  148.1666  131.6726  153.1736 C   0  0  0  0  0  0  0  0  0  0  0  0
  148.9305  130.3557  153.3961 C   0  0  0  0  0  0  0  0  0  0  0  0
  148.0110  129.3071  153.6777 O   0  0  0  0  0  0  0  0  0  0  0  0
  147.1029  129.0876  152.6045 C   0  0  0  0  0  0  0  0  0  0  0  0
  146.2711  130.3589  152.3697 C   0  0  0  0  0  0  0  0  0  0  0  0
  146.9755  137.1027  153.3926 N   0  0  0  0  0  0  0  0  0  0  0  0
  146.8412  138.3961  153.9653 C   0  0  0  0  0  0  0  0  0  0  0  0
  147.5335  139.4648  153.3593 C   0  0  0  0  0  0  0  0  0  0  0  0
  147.4017  140.7597  153.8955 C   0  0  0  0  0  0  0  0  0  0  0  0
  146.5696  140.9383  155.0175 C   0  0  0  0  0  0  0  0  0  0  0  0
  145.8869  139.9303  155.6001 N   0  0  0  0  0  0  0  0  0  0  0  0
  146.0200  138.6901  155.0824 C   0  0  0  0  0  0  0  0  0  0  0  0
  147.4205  135.1303  152.2489 H   0  0  0  0  0  0  0  0  0  0  0  0
  146.4066  133.1660  153.8206 H   0  0  0  0  0  0  0  0  0  0  0  0
  144.9851  133.6776  152.9445 H   0  0  0  0  0  0  0  0  0  0  0  0
  147.2455  133.3517  151.1087 H   0  0  0  0  0  0  0  0  0  0  0  0
  144.7367  131.6424  151.0762 H   0  0  0  0  0  0  0  0  0  0  0  0
  143.6667  133.8081  151.0819 H   0  0  0  0  0  0  0  0  0  0  0  0
  144.9957  134.5210  150.1599 H   0  0  0  0  0  0  0  0  0  0  0  0
  142.8529  132.6229  149.1993 H   0  0  0  0  0  0  0  0  0  0  0  0
  143.5798  133.9847  148.3434 H   0  0  0  0  0  0  0  0  0  0  0  0
  146.6247  132.7340  148.9447 H   0  0  0  0  0  0  0  0  0  0  0  0
  146.2049  131.0433  149.2298 H   0  0  0  0  0  0  0  0  0  0  0  0
  148.8736  132.4624  152.9170 H   0  0  0  0  0  0  0  0  0  0  0  0
  147.6705  131.9725  154.0970 H   0  0  0  0  0  0  0  0  0  0  0  0
  149.5320  130.1015  152.5218 H   0  0  0  0  0  0  0  0  0  0  0  0
  149.6178  130.4576  154.2361 H   0  0  0  0  0  0  0  0  0  0  0  0
  147.6464  128.8034  151.7019 H   0  0  0  0  0  0  0  0  0  0  0  0
  146.4498  128.2531  152.8597 H   0  0  0  0  0  0  0  0  0  0  0  0
  145.6676  130.5579  153.2560 H   0  0  0  0  0  0  0  0  0  0  0  0
  145.5839  130.1961  151.5399 H   0  0  0  0  0  0  0  0  0  0  0  0
  147.7657  136.9831  152.7759 H   0  0  0  0  0  0  0  0  0  0  0  0
  148.1625  139.2968  152.4973 H   0  0  0  0  0  0  0  0  0  0  0  0
  147.9251  141.5965  153.4571 H   0  0  0  0  0  0  0  0  0  0  0  0
  146.4441  141.9178  155.4545 H   0  0  0  0  0  0  0  0  0  0  0  0
  145.4307  137.9311  155.5731 H   0  0  0  0  0  0  0  0  0  0  0  0
  147.7149  131.2299  151.2832 H   0  0  0  0  0  0  0  0  0  0  0  0
  1  2  2  0  0  0  0
  2  3  1  0  0  0  0
  2 17  1  0  0  0  0
  3  4  1  0  0  0  0
  3 24  1  0  0  0  0
  4  5  1  0  0  0  0
  4 25  1  0  0  0  0
  4 26  1  0  0  0  0
  5  6  1  0  0  0  0
  5 11  1  0  0  0  0
  5 27  1  0  0  0  0
  6 10  1  0  0  0  0
  6  7  1  0  0  0  0
  6 28  1  0  0  0  0
  7  8  1  0  0  0  0
  7 29  1  0  0  0  0
  7 30  1  0  0  0  0
  8  9  1  0  0  0  0
  8 31  1  0  0  0  0
  8 32  1  0  0  0  0
  9 10  1  0  0  0  0
 10 33  1  0  0  0  0
 10 34  1  0  0  0  0
 11 16  1  0  0  0  0
 11 12  1  0  0  0  0
 11 48  1  0  0  0  0
 12 13  1  0  0  0  0
 12 35  1  0  0  0  0
 12 36  1  0  0  0  0
 13 14  1  0  0  0  0
 13 37  1  0  0  0  0
 13 38  1  0  0  0  0
 14 15  1  0  0  0  0
 15 16  1  0  0  0  0
 15 39  1  0  0  0  0
 15 40  1  0  0  0  0
 16 41  1  0  0  0  0
 16 42  1  0  0  0  0
 17 18  1  0  0  0  0
 17 43  1  0  0  0  0
 18 23  1  0  0  0  0
 18 19  2  0  0  0  0
 19 20  1  0  0  0  0
 19 44  1  0  0  0  0
 20 21  2  0  0  0  0
 20 45  1  0  0  0  0
 21 22  1  0  0  0  0
 21 46  1  0  0  0  0
 22 23  2  0  0  0  0
 23 47  1  0  0  0  0
M  CHG  1  11   1
M  END
> <s_m_source_file>
AV-unprocessed.smi

> <i_m_source_file_index>
2119

> <i_lp_mmshare_version>
43012

> <i_f3d_flags>
0

> <s_epik_input>
W2NIXTFuW2NIXVtjSF1bY0hdYzFbTkhdQyg9TylbTkhdW0NIMl1bQ0BIXShbQ0BASF0yW0NIMl1bQ0gyXU9bQ0gyXTIpTjNbQ0gyXVtDSDJdT1tDSDJdW0NIMl0z

> <s_epik_cmdline>
J2VwaWtfcHl0aG9uJywgJy1waCcsICc3LjAnLCAnLXRuJywgJzgnLCAnLW1hJywgJzIwMCcsICctbWV0YWxfYmluZGluZycsICctaW1hZScsICc8aW5maWxlLm1hZT4nLCAnLW9tYWUnLCAnPG91dGZpbGUubWFlPic=

> <r_epik_Ionization_Penalty>
0.987463

> <r_epik_Ionization_Penalty_Charging>
0.98326

> <r_epik_Ionization_Penalty_Neutral>
0.00420251

> <r_epik_State_Penalty>
1.01721

> <r_epik_Charging_Adjusted_Penalty>
2.00047

> <i_epik_Tot_Q>
1

> <i_epik_Tot_abs_Q>
1

> <r_epik_Metal_State_Penalty>
1.01439

> <b_epik_Metal_Only>
0

> <s_lp_Force_Field>
OPLS_2005

> <r_lp_Energy>
42.3323

> <b_lp_Chiralities_Consistent>
1

> <s_lp_Variant>
AV-unprocessed.smi:2119-7

> <Gold.Version>
5.8.1

> <Gold.Id.Protein>
6NUR|6NUR_protein|mol2

> <Gold.PLP.Fitness>
43.9784

> <Gold.PLP.PLP>
-37.5368

> <Gold.PLP.part.hbond>
-4.9083

> <Gold.PLP.part.metal>
0.0000

> <Gold.PLP.part.buried>
-3.8660

> <Gold.PLP.part.nonpolar>
-29.4771

> <Gold.PLP.part.repulsive>
0.7323

> <Gold.PLP.ligand.clash>
0.0000

> <Gold.PLP.ligand.torsion>
1.3942

> <Gold.PLP.Chemscore.Hbond>
2.9920

> <Gold.PLP.Chemscore.CHOScore>
0.0000

> <Gold.PLP.Chemscore.Metal>
0.0000

> <Gold.Chemscore.Hbonds>
donor molecule, donor type, donor heavy atom, donor atom, acceptor molecule, acceptor atom, score
      L1  H     3    24       P1  7948  0.94
      L1  H    11    48       P1 10747  1.00
      L1  H    17    43       P1  7948  1.00

> <Gold.PLP.Chemscore.Internal.Correction>
0.2541

> <Gold.Rescore>
     Score         DG    S(hbond)    S(metal)    S(lipo)     H(rot)  DE(clash)    DE(int)     intcor
     20.14     -22.73       2.95        0.00     100.52       1.70       0.19       2.39       ----

> <Gold.Chemscore.Fitness>
20.1421

> <Gold.Chemscore.DG>
-22.7308

> <Gold.Chemscore.ZeroCoef>
-5.4800

> <Gold.Chemscore.Hbond>
2.9482

> <Gold.Chemscore.Metal>
0.0000

> <Gold.Chemscore.Lipo>
100.5227

> <Gold.Chemscore.Internal_Hbond>
0.0000

> <Gold.Chemscore.DEClash>
0.1941

> <Gold.Chemscore.DEInternal>
2.3946

> <Gold.Chemscore.Rot>
1.7021

> <Gold.Chemscore.Internal.Correction>
   9.000000E+99

> <Gold.Chemscore.Hbonds>
donor molecule, donor type, donor heavy atom, donor atom, acceptor molecule, acceptor atom, score
      L1  H     3    24       P1  7948  0.90
      L1  H    11    48       P1 10747  1.00
      L1  H    17    43       P1  7948  1.00

> <Gold.Chemscore.Hbond.Weighted>
-9.8471

> <Gold.Chemscore.Metal.Weighted>
-0.0000

> <Gold.Chemscore.Lipo.Weighted>
-11.7612

> <Gold.Chemscore.Internal_Hbond.Weighted>
0.0000

> <Gold.Chemscore.DEClash.Weighted>
0.1941

> <Gold.Chemscore.DEInternal.Weighted>
2.3946

> <Gold.Chemscore.Rot.Weighted>
4.3575

> <Gold.Chemscore.Internal.Correction.Weighted>
   9.000000E+99

> <Gold.Protein.RotatedTorsions>
[ 6907 6896 6895 6894 ] final -112.81 input  -60.11 | X-H torsion
[ 7974 7965 7964 7962 ] final   19.32 input  175.53 | X-H torsion
[ 8008 7997 7996 7995 ] final  162.47 input   59.86 | X-H torsion
[ 10167 10162 10161 10158 ] final  134.17 input  -65.29 | X-H torsion
[ 10718 10713 10712 10709 ] final   99.57 input   66.30 | X-H torsion
[ 10763 10752 10751 10750 ] final   25.14 input  -60.55 | X-H torsion
[ 11005 11000 10999 10996 ] final  -48.55 input  -57.11 | X-H torsion

> <Gold.Protein.ActiveResidues>
 VAL166  LYS551  ARG553  GLY616  TRP617  ASP618  TYR619  PRO620  LYS621  CYS622 
 ASP623  PHE694  ASN695  SER759  ASP760  ASP761  ALA762  ILE779  LEU786  VAL792 
 PHE793  MET794  SER795  GLU796  ALA797  LYS798  CYS799  TRP800  GLU811  SER814 

> <Gold.Protein.RotatedAtoms>
  150.7784  133.9035  159.3348 H   0  0  0  0  0  0  0  0  0  0  0  0  # atno 6907 bound_to 6896
  151.6904  135.0945  160.0242 H   0  0  0  0  0  0  0  0  0  0  0  0  # atno 6908 bound_to 6896
  152.3828  133.6531  159.6210 H   0  0  0  0  0  0  0  0  0  0  0  0  # atno 6909 bound_to 6896
  146.2153  139.8330  142.8656 H   0  0  0  0  0  0  0  0  0  0  0  0  # atno 7974 bound_to 7965
  156.2029  140.1749  156.7862 H   0  0  0  0  0  0  0  0  0  0  0  0  # atno 8008 bound_to 7997
  154.5615  140.0699  156.8857 H   0  0  0  0  0  0  0  0  0  0  0  0  # atno 8009 bound_to 7997
  155.2839  140.3351  155.4259 H   0  0  0  0  0  0  0  0  0  0  0  0  # atno 8010 bound_to 7997
  139.5267  144.6580  151.5102 H   0  0  0  0  0  0  0  0  0  0  0  0  # atno 10167 bound_to 10162
  157.6873  131.0673  150.4968 H   0  0  0  0  0  0  0  0  0  0  0  0  # atno 10718 bound_to 10713
  153.0713  135.6589  154.0242 H   0  0  0  0  0  0  0  0  0  0  0  0  # atno 10763 bound_to 10752
  153.9886  135.2948  155.3415 H   0  0  0  0  0  0  0  0  0  0  0  0  # atno 10764 bound_to 10752
  154.7088  135.5214  153.8705 H   0  0  0  0  0  0  0  0  0  0  0  0  # atno 10765 bound_to 10752
  141.0707  133.6680  156.3458 H   0  0  0  0  0  0  0  0  0  0  0  0  # atno 11005 bound_to 11000
  145.2978  141.0185  143.3626 LP  0  0  0  0  0  0  0  0  0  0  0  0  # atno 17320 bound_to 7965
  144.9029  139.4626  143.6624 LP  0  0  0  0  0  0  0  0  0  0  0  0  # atno 17321 bound_to 7965
  140.6415  143.8880  150.6696 LP  0  0  0  0  0  0  0  0  0  0  0  0  # atno 17342 bound_to 10162
  140.2216  143.3805  152.1638 LP  0  0  0  0  0  0  0  0  0  0  0  0  # atno 17343 bound_to 10162
  156.5292  130.4180  149.6210 LP  0  0  0  0  0  0  0  0  0  0  0  0  # atno 17370 bound_to 10713
  156.3084  130.7215  151.2103 LP  0  0  0  0  0  0  0  0  0  0  0  0  # atno 17371 bound_to 10713
  140.5678  134.5870  157.5450 LP  0  0  0  0  0  0  0  0  0  0  0  0  # atno 17394 bound_to 11000
  139.9521  134.7599  156.0425 LP  0  0  0  0  0  0  0  0  0  0  0  0  # atno 17395 bound_to 11000

$$$$
