AV-unprocessed.smi:2303|AV-procd|sdf|9243|dock10
  -GOLD-   2272012463D 1   1.00000     0.00000
 Structure written by MMmdl.
 32 33  0  0  0  0  0  0  0  0  2 V2000
  152.4857  144.7011  158.4750 C   0  0  0  0  0  0  0  0  0  0  0  0
  151.7349  143.5307  159.1294 C   0  0  0  0  0  0  0  0  0  0  0  0
  152.4132  143.0874  160.4379 C   0  0  0  0  0  0  0  0  0  0  0  0
  151.5542  142.3713  158.1461 C   0  0  0  0  0  0  0  0  0  0  0  0
  150.5744  142.4615  157.1673 C   0  0  0  0  0  0  0  0  0  0  0  0
  150.4432  141.3197  156.2655 C   0  0  0  0  0  0  0  0  0  0  0  0
  149.4203  141.2973  155.2193 C   0  0  0  0  0  0  0  0  0  0  0  0
  149.6834  141.2350  154.0174 O   0  0  0  0  0  0  0  0  0  0  0  0
  148.1371  141.3462  155.6430 N   0  0  0  0  0  0  0  0  0  0  0  0
  146.9346  141.4005  154.8224 C   0  0  0  0  0  0  0  0  0  0  0  0
  145.8634  141.8972  155.7765 C   0  0  0  0  0  0  0  0  0  0  0  0
  146.6752  142.6710  156.8028 C   0  0  0  0  0  0  0  0  0  0  0  0
  147.8614  141.9037  156.9088 O   0  0  0  0  0  0  0  0  0  0  0  0
  151.2189  140.2248  156.4399 C   0  0  0  0  0  0  0  0  0  0  0  0
  152.2322  140.1950  157.4941 C   0  0  0  0  0  0  0  0  0  0  0  0
  152.9329  139.1924  157.6169 O   0  0  0  0  0  0  0  0  0  0  0  0
  152.3623  141.2864  158.2997 N   0  5  0  0  0  0  0  0  0  0  0  0
  151.9733  145.0380  157.5734 H   0  0  0  0  0  0  0  0  0  0  0  0
  153.5007  144.4176  158.1944 H   0  0  0  0  0  0  0  0  0  0  0  0
  152.5543  145.5520  159.1530 H   0  0  0  0  0  0  0  0  0  0  0  0
  150.7483  143.9056  159.4057 H   0  0  0  0  0  0  0  0  0  0  0  0
  151.8686  142.2640  160.9010 H   0  0  0  0  0  0  0  0  0  0  0  0
  152.4463  143.9062  161.1567 H   0  0  0  0  0  0  0  0  0  0  0  0
  153.4385  142.7566  160.2694 H   0  0  0  0  0  0  0  0  0  0  0  0
  149.9363  143.3290  157.0832 H   0  0  0  0  0  0  0  0  0  0  0  0
  147.0768  142.1052  154.0013 H   0  0  0  0  0  0  0  0  0  0  0  0
  146.6906  140.4244  154.4024 H   0  0  0  0  0  0  0  0  0  0  0  0
  145.1000  142.5036  155.2887 H   0  0  0  0  0  0  0  0  0  0  0  0
  145.3725  141.0500  156.2571 H   0  0  0  0  0  0  0  0  0  0  0  0
  146.9211  143.6674  156.4325 H   0  0  0  0  0  0  0  0  0  0  0  0
  146.1689  142.7708  157.7630 H   0  0  0  0  0  0  0  0  0  0  0  0
  151.1100  139.3619  155.7975 H   0  0  0  0  0  0  0  0  0  0  0  0
  1  2  1  0  0  0  0
  1 18  1  0  0  0  0
  1 19  1  0  0  0  0
  1 20  1  0  0  0  0
  2  3  1  0  0  0  0
  2 21  1  0  0  0  0
  2  4  1  0  0  0  0
  3 22  1  0  0  0  0
  3 23  1  0  0  0  0
  3 24  1  0  0  0  0
  4 17  1  0  0  0  0
  4  5  2  0  0  0  0
  5 25  1  0  0  0  0
  5  6  1  0  0  0  0
  6  7  1  0  0  0  0
  6 14  2  0  0  0  0
  7  8  2  0  0  0  0
  7  9  1  0  0  0  0
  9 13  1  0  0  0  0
  9 10  1  0  0  0  0
 10 11  1  0  0  0  0
 10 26  1  0  0  0  0
 10 27  1  0  0  0  0
 11 12  1  0  0  0  0
 11 28  1  0  0  0  0
 11 29  1  0  0  0  0
 12 13  1  0  0  0  0
 12 30  1  0  0  0  0
 12 31  1  0  0  0  0
 14 15  1  0  0  0  0
 14 32  1  0  0  0  0
 15 16  2  0  0  0  0
 15 17  1  0  0  0  0
M  CHG  1  17  -1
M  END
> <s_m_source_file>
AV-unprocessed.smi

> <i_m_source_file_index>
2303

> <i_lp_mmshare_version>
43012

> <i_f3d_flags>
0

> <s_epik_input>
W0NIM11bQ0hdKFtDSDNdKWMxW2NIXWMoW2NIXWMobjEpW09IXSlDKD1PKU4yW0NIMl1bQ0gyXVtDSDJdTzI=

> <s_epik_cmdline>
J2VwaWtfcHl0aG9uJywgJy1waCcsICc3LjAnLCAnLXRuJywgJzgnLCAnLW1hJywgJzIwMCcsICctbWV0YWxfYmluZGluZycsICctaW1hZScsICc8aW5maWxlLm1hZT4nLCAnLW9tYWUnLCAnPG91dGZpbGUubWFlPic=

> <r_lp_tautomer_probability>
1

> <r_epik_Ionization_Penalty>
5.39588

> <r_epik_Ionization_Penalty_Charging>
0.166011

> <r_epik_Ionization_Penalty_Neutral>
5.22987

> <r_epik_State_Penalty>
5.22978

> <r_epik_Charging_Adjusted_Penalty>
5.39579

> <i_epik_Tot_Q>
-1

> <i_epik_Tot_abs_Q>
1

> <r_epik_Metal_State_Penalty>
1.21816

> <b_epik_Metal_Only>
1

> <s_epik_Chemistry_Notes>
This compound has a N-S or N-O group and may undergo hydrolysis at high or low pH.

> <s_lp_Force_Field>
OPLS_2005

> <r_lp_Energy>
27.9757

> <b_lp_Chiralities_Consistent>
1

> <s_lp_Variant>
AV-unprocessed.smi:2303-2

> <Gold.Version>
5.8.1

> <Gold.Id.Protein>
6NUR|6NUR_protein|mol2

> <Gold.PLP.Fitness>
35.4194

> <Gold.PLP.PLP>
-31.6526

> <Gold.PLP.part.hbond>
-3.0000

> <Gold.PLP.part.metal>
0.0000

> <Gold.PLP.part.buried>
-0.8456

> <Gold.PLP.part.nonpolar>
-27.9925

> <Gold.PLP.part.repulsive>
0.6133

> <Gold.PLP.ligand.clash>
0.0000

> <Gold.PLP.ligand.torsion>
1.8632

> <Gold.PLP.Chemscore.Hbond>
2.0893

> <Gold.PLP.Chemscore.CHOScore>
0.0000

> <Gold.PLP.Chemscore.Metal>
0.0000

> <Gold.Chemscore.Hbonds>
donor molecule, donor type, donor heavy atom, donor atom, acceptor molecule, acceptor atom, score
      P1  H  7989  7998       L1     8  0.34
      P1  H  7997  8009       L1    16  0.90
      P1  H  8011  8017       L1     8  0.72

> <Gold.PLP.Chemscore.Internal.Correction>
1.2253

> <Gold.Rescore>
     Score         DG    S(hbond)    S(metal)    S(lipo)     H(rot)  DE(clash)    DE(int)     intcor
     12.16     -16.72       1.40        0.00      78.10       1.00       1.17       3.39       ----

> <Gold.Chemscore.Fitness>
12.1633

> <Gold.Chemscore.DG>
-16.7237

> <Gold.Chemscore.ZeroCoef>
-5.4800

> <Gold.Chemscore.Hbond>
1.3970

> <Gold.Chemscore.Metal>
0.0000

> <Gold.Chemscore.Lipo>
78.1010

> <Gold.Chemscore.Internal_Hbond>
0.0000

> <Gold.Chemscore.DEClash>
1.1748

> <Gold.Chemscore.DEInternal>
3.3856

> <Gold.Chemscore.Rot>
1.0000

> <Gold.Chemscore.Internal.Correction>
   9.000000E+99

> <Gold.Chemscore.Hbonds>
donor molecule, donor type, donor heavy atom, donor atom, acceptor molecule, acceptor atom, score
      P1  H  7989  7998       L1     8  0.31
      P1  H  7997  8009       L1    16  0.16
      P1  H  8011  8017       L1     8  0.68

> <Gold.Chemscore.Hbond.Weighted>
-4.6659

> <Gold.Chemscore.Metal.Weighted>
-0.0000

> <Gold.Chemscore.Lipo.Weighted>
-9.1378

> <Gold.Chemscore.Internal_Hbond.Weighted>
0.0000

> <Gold.Chemscore.DEClash.Weighted>
1.1748

> <Gold.Chemscore.DEInternal.Weighted>
3.3856

> <Gold.Chemscore.Rot.Weighted>
2.5600

> <Gold.Chemscore.Internal.Correction.Weighted>
   9.000000E+99

> <Gold.Protein.RotatedTorsions>
[ 6907 6896 6895 6894 ] final   15.96 input  -60.11 | X-H torsion
[ 7974 7965 7964 7962 ] final   67.81 input  175.53 | X-H torsion
[ 8008 7997 7996 7995 ] final  145.99 input   59.86 | X-H torsion
[ 10167 10162 10161 10158 ] final -174.71 input  -65.29 | X-H torsion
[ 10718 10713 10712 10709 ] final   -5.17 input   66.30 | X-H torsion
[ 10763 10752 10751 10750 ] final  170.24 input  -60.55 | X-H torsion
[ 11005 11000 10999 10996 ] final  138.69 input  -57.11 | X-H torsion

> <Gold.Protein.ActiveResidues>
 VAL166  LYS551  ARG553  GLY616  TRP617  ASP618  TYR619  PRO620  LYS621  CYS622 
 ASP623  PHE694  ASN695  SER759  ASP760  ASP761  ALA762  ILE779  LEU786  VAL792 
 PHE793  MET794  SER795  GLU796  ALA797  LYS798  CYS799  TRP800  GLU811  SER814 

> <Gold.Protein.RotatedAtoms>
  151.8263  135.0635  160.0431 H   0  0  0  0  0  0  0  0  0  0  0  0  # atno 6907 bound_to 6896
  152.2913  133.5560  159.5568 H   0  0  0  0  0  0  0  0  0  0  0  0  # atno 6908 bound_to 6896
  150.7231  134.0340  159.3785 H   0  0  0  0  0  0  0  0  0  0  0  0  # atno 6909 bound_to 6896
  145.8101  139.3028  143.1104 H   0  0  0  0  0  0  0  0  0  0  0  0  # atno 7974 bound_to 7965
  156.2868  140.2194  156.5304 H   0  0  0  0  0  0  0  0  0  0  0  0  # atno 8008 bound_to 7997
  154.7453  140.0484  157.0869 H   0  0  0  0  0  0  0  0  0  0  0  0  # atno 8009 bound_to 7997
  155.0178  140.3120  155.4808 H   0  0  0  0  0  0  0  0  0  0  0  0  # atno 8010 bound_to 7997
  139.5619  144.1849  152.1252 H   0  0  0  0  0  0  0  0  0  0  0  0  # atno 10167 bound_to 10162
  156.7505  130.5238  149.5805 H   0  0  0  0  0  0  0  0  0  0  0  0  # atno 10718 bound_to 10713
  154.3947  135.2754  155.2133 H   0  0  0  0  0  0  0  0  0  0  0  0  # atno 10763 bound_to 10752
  154.4184  135.6006  153.5998 H   0  0  0  0  0  0  0  0  0  0  0  0  # atno 10764 bound_to 10752
  152.9831  135.5966  154.4207 H   0  0  0  0  0  0  0  0  0  0  0  0  # atno 10765 bound_to 10752
  140.0201  134.9400  157.0457 H   0  0  0  0  0  0  0  0  0  0  0  0  # atno 11005 bound_to 11000
  145.9786  140.8701  143.0126 LP  0  0  0  0  0  0  0  0  0  0  0  0  # atno 17320 bound_to 7965
  144.6758  140.2047  143.7383 LP  0  0  0  0  0  0  0  0  0  0  0  0  # atno 17321 bound_to 7965
  140.1364  144.5242  150.6771 LP  0  0  0  0  0  0  0  0  0  0  0  0  # atno 17342 bound_to 10162
  140.6900  143.2370  151.5158 LP  0  0  0  0  0  0  0  0  0  0  0  0  # atno 17343 bound_to 10162
  156.1405  130.6241  151.0460 LP  0  0  0  0  0  0  0  0  0  0  0  0  # atno 17370 bound_to 10713
  157.6779  131.0845  150.7446 LP  0  0  0  0  0  0  0  0  0  0  0  0  # atno 17371 bound_to 10713
  140.4401  134.1690  155.7173 LP  0  0  0  0  0  0  0  0  0  0  0  0  # atno 17394 bound_to 11000
  141.1768  133.8496  157.1393 LP  0  0  0  0  0  0  0  0  0  0  0  0  # atno 17395 bound_to 11000

$$$$
