AV-unprocessed.smi:3018|AV-procd|sdf|11479|dock9
  -GOLD-   2272016413D 1   1.00000     0.00000
 Structure written by MMmdl.
 45 46  0  0  0  0  0  0  0  0  1 V2000
  148.6681  140.7676  154.0977 C   0  0  0  0  0  0  0  0  0  0  0  0
  149.7269  140.4225  155.1520 C   0  0  0  0  0  0  0  0  0  0  0  0
  149.7285  141.4043  156.3382 C   0  0  2  0  0  0  0  0  0  0  0  0
  150.7977  141.0354  157.2080 O   0  0  0  0  0  0  0  0  0  0  0  0
  151.0388  141.8868  158.3261 C   0  0  0  0  0  0  0  0  0  0  0  0
  151.3686  143.3182  157.8553 C   0  0  0  0  0  0  0  0  0  0  0  0
  151.7691  144.2165  159.0374 C   0  0  0  0  0  0  0  0  0  0  0  0
  152.9389  143.6117  159.8305 C   0  0  0  0  0  0  0  0  0  0  0  0
  152.6160  142.1828  160.2947 C   0  0  0  0  0  0  0  0  0  0  0  0
  152.2229  141.2908  159.1063 C   0  0  0  0  0  0  0  0  0  0  0  0
  148.3958  141.3449  157.0996 C   0  0  0  0  0  0  0  0  0  0  0  0
  148.0969  140.3410  157.7468 O   0  0  0  0  0  0  0  0  0  0  0  0
  147.6112  142.4309  157.0159 N   0  0  0  0  0  0  0  0  0  0  0  0
  146.2969  142.5786  157.6359 C   0  0  0  0  0  0  0  0  0  0  0  0
  146.3275  142.2686  159.1475 C   0  0  0  0  0  0  0  0  0  0  0  0
  146.7941  143.4233  160.0189 C   0  0  0  0  0  0  0  0  0  0  0  0
  147.7014  143.4178  160.9311 N   0  0  0  0  0  0  0  0  0  0  0  0
  147.6880  144.7164  161.3223 N   0  0  0  0  0  0  0  0  0  0  0  0
  146.8065  145.4818  160.6681 C   0  0  0  0  0  0  0  0  0  0  0  0
  146.5935  146.6825  160.8190 O   0  0  0  0  0  0  0  0  0  0  0  0
  146.2134  144.6508  159.8204 N   0  0  0  0  0  0  0  0  0  0  0  0
  148.3204  145.0191  162.0492 H   0  0  0  0  0  0  0  0  0  0  0  0
  145.4942  144.8700  159.1469 H   0  0  0  0  0  0  0  0  0  0  0  0
  148.6918  140.0513  153.2764 H   0  0  0  0  0  0  0  0  0  0  0  0
  148.8367  141.7595  153.6778 H   0  0  0  0  0  0  0  0  0  0  0  0
  147.6654  140.7503  154.5256 H   0  0  0  0  0  0  0  0  0  0  0  0
  149.5412  139.4095  155.5126 H   0  0  0  0  0  0  0  0  0  0  0  0
  150.7109  140.4038  154.6811 H   0  0  0  0  0  0  0  0  0  0  0  0
  149.8827  142.4129  155.9523 H   0  0  0  0  0  0  0  0  0  0  0  0
  150.1761  141.9135  158.9928 H   0  0  0  0  0  0  0  0  0  0  0  0
  152.1828  143.2858  157.1303 H   0  0  0  0  0  0  0  0  0  0  0  0
  150.5160  143.7608  157.3411 H   0  0  0  0  0  0  0  0  0  0  0  0
  152.0405  145.2084  158.6750 H   0  0  0  0  0  0  0  0  0  0  0  0
  150.9120  144.3526  159.6983 H   0  0  0  0  0  0  0  0  0  0  0  0
  153.8344  143.5989  159.2080 H   0  0  0  0  0  0  0  0  0  0  0  0
  153.1700  144.2398  160.6913 H   0  0  0  0  0  0  0  0  0  0  0  0
  153.4757  141.7560  160.8119 H   0  0  0  0  0  0  0  0  0  0  0  0
  151.8004  142.2082  161.0185 H   0  0  0  0  0  0  0  0  0  0  0  0
  151.9675  140.2921  159.4612 H   0  0  0  0  0  0  0  0  0  0  0  0
  153.0792  141.1731  158.4411 H   0  0  0  0  0  0  0  0  0  0  0  0
  147.9454  143.2107  156.4681 H   0  0  0  0  0  0  0  0  0  0  0  0
  145.8740  143.5662  157.4428 H   0  0  0  0  0  0  0  0  0  0  0  0
  145.6303  141.8699  157.1442 H   0  0  0  0  0  0  0  0  0  0  0  0
  145.3280  141.9809  159.4747 H   0  0  0  0  0  0  0  0  0  0  0  0
  146.9647  141.4026  159.3325 H   0  0  0  0  0  0  0  0  0  0  0  0
  1  2  1  0  0  0  0
  1 24  1  0  0  0  0
  1 25  1  0  0  0  0
  1 26  1  0  0  0  0
  2  3  1  0  0  0  0
  2 27  1  0  0  0  0
  2 28  1  0  0  0  0
  3  4  1  0  0  0  0
  3 11  1  0  0  0  0
  3 29  1  0  0  0  0
  4  5  1  0  0  0  0
  5 10  1  0  0  0  0
  5  6  1  0  0  0  0
  5 30  1  0  0  0  0
  6  7  1  0  0  0  0
  6 31  1  0  0  0  0
  6 32  1  0  0  0  0
  7  8  1  0  0  0  0
  7 33  1  0  0  0  0
  7 34  1  0  0  0  0
  8  9  1  0  0  0  0
  8 35  1  0  0  0  0
  8 36  1  0  0  0  0
  9 10  1  0  0  0  0
  9 37  1  0  0  0  0
  9 38  1  0  0  0  0
 10 39  1  0  0  0  0
 10 40  1  0  0  0  0
 11 12  2  0  0  0  0
 11 13  1  0  0  0  0
 13 14  1  0  0  0  0
 13 41  1  0  0  0  0
 14 15  1  0  0  0  0
 14 42  1  0  0  0  0
 14 43  1  0  0  0  0
 15 16  1  0  0  0  0
 15 44  1  0  0  0  0
 15 45  1  0  0  0  0
 16 21  1  0  0  0  0
 16 17  2  0  0  0  0
 17 18  1  0  0  0  0
 18 22  1  0  0  0  0
 18 19  1  0  0  0  0
 19 20  2  0  0  0  0
 19 21  1  0  0  0  0
 21 23  1  0  0  0  0
M  END
> <s_m_source_file>
AV-unprocessed.smi

> <i_m_source_file_index>
3018

> <i_lp_mmshare_version>
43012

> <i_f3d_flags>
0

> <s_epik_input>
W0NIMl0xW0NIMl1bQ0gyXVtDSDJdW0NIMl1bQ0hdMU9bQ0BASF0oW0NIMl1bQ0gzXSlDKD1PKVtOSF1bQ0gyXVtDSDJdYzJuW25IXWMoPU8pW25IXTI=

> <s_epik_cmdline>
J2VwaWtfcHl0aG9uJywgJy1waCcsICc3LjAnLCAnLXRuJywgJzgnLCAnLW1hJywgJzIwMCcsICctbWV0YWxfYmluZGluZycsICctaW1hZScsICc8aW5maWxlLm1hZT4nLCAnLW9tYWUnLCAnPG91dGZpbGUubWFlPic=

> <r_lp_tautomer_probability>
1

> <r_epik_Ionization_Penalty>
0.000773817

> <r_epik_Ionization_Penalty_Charging>
0.000773741

> <r_epik_Ionization_Penalty_Neutral>
7.58514e-08

> <r_epik_State_Penalty>
-0

> <r_epik_Charging_Adjusted_Penalty>
0.000773741

> <i_epik_Tot_Q>
0

> <i_epik_Tot_abs_Q>
0

> <r_epik_Metal_State_Penalty>
0.495152

> <b_epik_Metal_Only>
0

> <s_lp_Force_Field>
OPLS_2005

> <r_lp_Energy>
32.5004

> <b_lp_Chiralities_Consistent>
1

> <s_lp_Variant>
AV-unprocessed.smi:3018-1

> <Gold.Version>
5.8.1

> <Gold.Id.Protein>
6NUR|6NUR_protein|mol2

> <Gold.PLP.Fitness>
44.1481

> <Gold.PLP.PLP>
-38.8975

> <Gold.PLP.part.hbond>
-5.1218

> <Gold.PLP.part.metal>
0.0000

> <Gold.PLP.part.buried>
-4.8070

> <Gold.PLP.part.nonpolar>
-28.6768

> <Gold.PLP.part.repulsive>
0.5939

> <Gold.PLP.ligand.clash>
0.0000

> <Gold.PLP.ligand.torsion>
0.4007

> <Gold.PLP.Chemscore.Hbond>
2.0000

> <Gold.PLP.Chemscore.CHOScore>
0.0000

> <Gold.PLP.Chemscore.Metal>
0.0000

> <Gold.Chemscore.Hbonds>
donor molecule, donor type, donor heavy atom, donor atom, acceptor molecule, acceptor atom, score
      L1  H    13    41       P1  8028  0.85
      P1  H  6933  6944       L1    17  0.71

> <Gold.PLP.Chemscore.Internal.Correction>
0.0520

> <Gold.Rescore>
     Score         DG    S(hbond)    S(metal)    S(lipo)     H(rot)  DE(clash)    DE(int)     intcor
     11.97     -13.87       1.65        0.00      91.06       3.04       0.36       1.54       ----

> <Gold.Chemscore.Fitness>
11.9655

> <Gold.Chemscore.DG>
-13.8692

> <Gold.Chemscore.ZeroCoef>
-5.4800

> <Gold.Chemscore.Hbond>
1.6494

> <Gold.Chemscore.Metal>
0.0000

> <Gold.Chemscore.Lipo>
91.0620

> <Gold.Chemscore.Internal_Hbond>
0.0000

> <Gold.Chemscore.DEClash>
0.3602

> <Gold.Chemscore.DEInternal>
1.5436

> <Gold.Chemscore.Rot>
3.0367

> <Gold.Chemscore.Internal.Correction>
   9.000000E+99

> <Gold.Chemscore.Hbonds>
donor molecule, donor type, donor heavy atom, donor atom, acceptor molecule, acceptor atom, score
      L1  H    13    41       P1  8028  0.15
      P1  H  6933  6944       L1    17  0.71

> <Gold.Chemscore.Hbond.Weighted>
-5.5089

> <Gold.Chemscore.Metal.Weighted>
-0.0000

> <Gold.Chemscore.Lipo.Weighted>
-10.6543

> <Gold.Chemscore.Internal_Hbond.Weighted>
0.0000

> <Gold.Chemscore.DEClash.Weighted>
0.3602

> <Gold.Chemscore.DEInternal.Weighted>
1.5436

> <Gold.Chemscore.Rot.Weighted>
7.7739

> <Gold.Chemscore.Internal.Correction.Weighted>
   9.000000E+99

> <Gold.Protein.RotatedTorsions>
[ 6907 6896 6895 6894 ] final   -6.94 input  -60.11 | X-H torsion
[ 7974 7965 7964 7962 ] final  115.75 input  175.53 | X-H torsion
[ 8008 7997 7996 7995 ] final  163.04 input   59.86 | X-H torsion
[ 10167 10162 10161 10158 ] final   92.49 input  -65.29 | X-H torsion
[ 10718 10713 10712 10709 ] final  -95.64 input   66.30 | X-H torsion
[ 10763 10752 10751 10750 ] final   40.33 input  -60.55 | X-H torsion
[ 11005 11000 10999 10996 ] final -165.77 input  -57.11 | X-H torsion

> <Gold.Protein.ActiveResidues>
 VAL166  LYS551  ARG553  GLY616  TRP617  ASP618  TYR619  PRO620  LYS621  CYS622 
 ASP623  PHE694  ASN695  SER759  ASP760  ASP761  ALA762  ILE779  LEU786  VAL792 
 PHE793  MET794  SER795  GLU796  ALA797  LYS798  CYS799  TRP800  GLU811  SER814 

> <Gold.Protein.RotatedAtoms>
  151.4576  135.1035  159.9715 H   0  0  0  0  0  0  0  0  0  0  0  0  # atno 6907 bound_to 6896
  152.4865  133.8382  159.7149 H   0  0  0  0  0  0  0  0  0  0  0  0  # atno 6908 bound_to 6896
  150.8979  133.7097  159.2914 H   0  0  0  0  0  0  0  0  0  0  0  0  # atno 6909 bound_to 6896
  145.1881  139.3014  143.4382 H   0  0  0  0  0  0  0  0  0  0  0  0  # atno 7974 bound_to 7965
  156.1987  140.1734  156.7945 H   0  0  0  0  0  0  0  0  0  0  0  0  # atno 8008 bound_to 7997
  154.5563  140.0708  156.8779 H   0  0  0  0  0  0  0  0  0  0  0  0  # atno 8009 bound_to 7997
  155.2933  140.3357  155.4253 H   0  0  0  0  0  0  0  0  0  0  0  0  # atno 8010 bound_to 7997
  139.8271  144.6704  150.9446 H   0  0  0  0  0  0  0  0  0  0  0  0  # atno 10167 bound_to 10162
  156.0047  130.5117  150.6106 H   0  0  0  0  0  0  0  0  0  0  0  0  # atno 10718 bound_to 10713
  152.9940  135.6194  154.2608 H   0  0  0  0  0  0  0  0  0  0  0  0  # atno 10763 bound_to 10752
  154.2344  135.2791  155.2879 H   0  0  0  0  0  0  0  0  0  0  0  0  # atno 10764 bound_to 10752
  154.5422  135.5757  153.6907 H   0  0  0  0  0  0  0  0  0  0  0  0  # atno 10765 bound_to 10752
  140.5719  134.5228  157.5163 H   0  0  0  0  0  0  0  0  0  0  0  0  # atno 11005 bound_to 11000
  146.3441  140.2084  142.8590 LP  0  0  0  0  0  0  0  0  0  0  0  0  # atno 17320 bound_to 7965
  145.0068  140.8680  143.5248 LP  0  0  0  0  0  0  0  0  0  0  0  0  # atno 17321 bound_to 7965
  140.7809  143.4036  151.1108 LP  0  0  0  0  0  0  0  0  0  0  0  0  # atno 17342 bound_to 10162
  139.7692  143.8519  152.3117 LP  0  0  0  0  0  0  0  0  0  0  0  0  # atno 17343 bound_to 10162
  157.3939  131.0800  151.1369 LP  0  0  0  0  0  0  0  0  0  0  0  0  # atno 17370 bound_to 10713
  157.2052  130.6412  149.5753 LP  0  0  0  0  0  0  0  0  0  0  0  0  # atno 17371 bound_to 10713
  139.9357  134.7879  156.0808 LP  0  0  0  0  0  0  0  0  0  0  0  0  # atno 17394 bound_to 11000
  141.1050  133.6663  156.2843 LP  0  0  0  0  0  0  0  0  0  0  0  0  # atno 17395 bound_to 11000

$$$$
