AV-unprocessed.smi:287|AV-procd|sdf|2189|dock8
  -GOLD-   2262021583D 1   1.00000     0.00000
 Structure written by MMmdl.
 55 58  0  0  0  0  0  0  0  0  1 V2000
  153.4288  142.4027  161.5050 C   0  0  0  0  0  0  0  0  0  0  0  0
  152.8344  141.8118  160.2730 C   0  0  0  0  0  0  0  0  0  0  0  0
  152.7545  140.5429  159.7781 C   0  0  0  0  0  0  0  0  0  0  0  0
  152.0663  140.6140  158.5301 C   0  0  0  0  0  0  0  0  0  0  0  0
  151.7551  139.4378  157.6139 C   0  0  1  0  0  0  0  0  0  0  0  0
  150.6928  139.8487  156.5808 C   0  0  0  0  0  0  0  0  0  0  0  0
  152.8738  139.0199  156.8556 O   0  0  0  0  0  0  0  0  0  0  0  0
  151.2807  138.1912  158.3966 C   0  0  0  0  0  0  0  0  0  0  0  0
  151.0455  137.0356  157.5366 N   0  0  0  0  0  0  0  0  0  0  0  0
  149.9426  136.2775  157.7071 C   0  0  0  0  0  0  0  0  0  0  0  0
  149.4389  136.0457  158.9465 N   0  0  0  0  0  0  0  0  0  0  0  0
  148.3478  135.2896  159.0892 C   0  0  0  0  0  0  0  0  0  0  0  0
  147.6260  134.6823  158.1454 N   0  0  0  0  0  0  0  0  0  0  0  0
  148.1240  134.9082  156.8943 C   0  0  0  0  0  0  0  0  0  0  0  0
  149.2734  135.6961  156.5994 C   0  0  0  0  0  0  0  0  0  0  0  0
  149.4932  135.7191  155.2305 N   0  0  0  0  0  0  0  0  0  0  0  0
  148.5261  134.9892  154.7464 C   0  0  0  0  0  0  0  0  0  0  0  0
  147.6611  134.4459  155.6722 N   0  0  0  0  0  0  0  0  0  0  0  0
  146.4610  133.5938  155.3581 C   0  0  2  0  0  0  0  0  0  0  0  0
  146.9021  132.4156  154.7625 O   0  0  0  0  0  0  0  0  0  0  0  0
  146.7847  132.5243  153.3536 C   0  0  1  0  0  0  0  0  0  0  0  0
  146.7417  131.1282  152.7073 C   0  0  0  0  0  0  0  0  0  0  0  0
  147.9269  130.3964  152.9457 O   0  0  0  0  0  0  0  0  0  0  0  0
  145.5719  133.4391  153.1105 C   0  0  2  0  0  0  0  0  0  0  0  0
  145.8111  134.2744  151.9957 O   0  0  0  0  0  0  0  0  0  0  0  0
  145.4599  134.2661  154.3970 C   0  0  1  0  0  0  0  0  0  0  0  0
  144.1437  134.1926  154.9072 O   0  0  0  0  0  0  0  0  0  0  0  0
  151.7626  141.9452  158.3730 C   0  0  0  0  0  0  0  0  0  0  0  0
  151.0508  142.7308  157.3214 C   0  0  0  0  0  0  0  0  0  0  0  0
  152.2279  142.6779  159.4232 O   0  0  0  0  0  0  0  0  0  0  0  0
  146.0350  133.3791  156.3393 H   0  0  0  0  0  0  0  0  0  0  0  0
  147.6955  133.0161  153.0126 H   0  0  0  0  0  0  0  0  0  0  0  0
  144.6618  132.8634  152.9395 H   0  0  0  0  0  0  0  0  0  0  0  0
  145.7068  135.3188  154.2589 H   0  0  0  0  0  0  0  0  0  0  0  0
  153.9599  141.6457  162.0824 H   0  0  0  0  0  0  0  0  0  0  0  0
  152.6540  142.8314  162.1407 H   0  0  0  0  0  0  0  0  0  0  0  0
  154.1369  143.1921  161.2525 H   0  0  0  0  0  0  0  0  0  0  0  0
  153.1546  139.6596  160.2536 H   0  0  0  0  0  0  0  0  0  0  0  0
  149.7672  140.1582  157.0677 H   0  0  0  0  0  0  0  0  0  0  0  0
  150.4482  139.0255  155.9086 H   0  0  0  0  0  0  0  0  0  0  0  0
  151.0360  140.6844  155.9693 H   0  0  0  0  0  0  0  0  0  0  0  0
  152.9716  138.0856  156.9568 H   0  0  0  0  0  0  0  0  0  0  0  0
  152.0630  137.9106  159.1035 H   0  0  0  0  0  0  0  0  0  0  0  0
  150.3914  138.4140  158.9885 H   0  0  0  0  0  0  0  0  0  0  0  0
  151.8062  136.7808  156.9223 H   0  0  0  0  0  0  0  0  0  0  0  0
  148.0055  135.1490  160.1039 H   0  0  0  0  0  0  0  0  0  0  0  0
  148.4174  134.8237  153.6842 H   0  0  0  0  0  0  0  0  0  0  0  0
  145.9076  130.5597  153.1185 H   0  0  0  0  0  0  0  0  0  0  0  0
  146.5740  131.2091  151.6332 H   0  0  0  0  0  0  0  0  0  0  0  0
  148.4919  130.4862  152.1934 H   0  0  0  0  0  0  0  0  0  0  0  0
  145.1063  134.9021  151.9375 H   0  0  0  0  0  0  0  0  0  0  0  0
  143.8621  133.2906  154.8785 H   0  0  0  0  0  0  0  0  0  0  0  0
  150.0631  142.3118  157.1277 H   0  0  0  0  0  0  0  0  0  0  0  0
  151.6128  142.7226  156.3872 H   0  0  0  0  0  0  0  0  0  0  0  0
  150.9194  143.7698  157.6252 H   0  0  0  0  0  0  0  0  0  0  0  0
  1  2  1  0  0  0  0
  1 35  1  0  0  0  0
  1 36  1  0  0  0  0
  1 37  1  0  0  0  0
  2 30  1  0  0  0  0
  2  3  2  0  0  0  0
  3  4  1  0  0  0  0
  3 38  1  0  0  0  0
  4  5  1  0  0  0  0
  4 28  2  0  0  0  0
  5  6  1  0  0  0  0
  5  7  1  0  0  0  0
  5  8  1  0  0  0  0
  6 39  1  0  0  0  0
  6 40  1  0  0  0  0
  6 41  1  0  0  0  0
  7 42  1  0  0  0  0
  8  9  1  0  0  0  0
  8 43  1  0  0  0  0
  8 44  1  0  0  0  0
  9 10  1  0  0  0  0
  9 45  1  0  0  0  0
 10 15  1  0  0  0  0
 10 11  2  0  0  0  0
 11 12  1  0  0  0  0
 12 13  2  0  0  0  0
 12 46  1  0  0  0  0
 13 14  1  0  0  0  0
 14 18  1  0  0  0  0
 14 15  2  0  0  0  0
 15 16  1  0  0  0  0
 16 17  2  0  0  0  0
 17 18  1  0  0  0  0
 17 47  1  0  0  0  0
 18 19  1  0  0  0  0
 19 31  1  0  0  0  0
 19 26  1  0  0  0  0
 19 20  1  0  0  0  0
 20 21  1  0  0  0  0
 21 32  1  0  0  0  0
 21 22  1  0  0  0  0
 21 24  1  0  0  0  0
 22 23  1  0  0  0  0
 22 48  1  0  0  0  0
 22 49  1  0  0  0  0
 23 50  1  0  0  0  0
 24 33  1  0  0  0  0
 24 25  1  0  0  0  0
 24 26  1  0  0  0  0
 25 51  1  0  0  0  0
 26 34  1  0  0  0  0
 26 27  1  0  0  0  0
 27 52  1  0  0  0  0
 28 29  1  0  0  0  0
 28 30  1  0  0  0  0
 29 53  1  0  0  0  0
 29 54  1  0  0  0  0
 29 55  1  0  0  0  0
M  END
> <s_m_source_file>
AV-unprocessed.smi

> <i_m_source_file_index>
287

> <i_lp_mmshare_version>
43012

> <i_f3d_flags>
0

> <s_epik_input>
W0NIM11jMVtjSF1jKGMobzEpW0NIM10pW0NAQF0oW0NIM10pKFtPSF0pW0NIMl1bTkhdYyhuW2NIXW4yKWMoYzIzKW5bY0hdbjNbQ0BASF00T1tDQEhdKFtDSDJdW09IXSlbQ0BASF0oW09IXSlbQ0BIXTRbT0hd

> <s_epik_cmdline>
J2VwaWtfcHl0aG9uJywgJy1waCcsICc3LjAnLCAnLXRuJywgJzgnLCAnLW1hJywgJzIwMCcsICctbWV0YWxfYmluZGluZycsICctaW1hZScsICc8aW5maWxlLm1hZT4nLCAnLW9tYWUnLCAnPG91dGZpbGUubWFlPic=

> <r_lp_tautomer_probability>
1

> <r_epik_Ionization_Penalty>
0.000992612

> <r_epik_Ionization_Penalty_Charging>
0

> <r_epik_Ionization_Penalty_Neutral>
0.000992612

> <r_epik_State_Penalty>
-0

> <r_epik_Charging_Adjusted_Penalty>
0

> <i_epik_Tot_Q>
0

> <i_epik_Tot_abs_Q>
0

> <r_epik_Metal_State_Penalty>
-0

> <b_epik_Metal_Only>
0

> <s_epik_Chemistry_Notes>
This compound contains an acetal/aminal-like group ( X-CH(R)-Y where X, Y are N, S, or O) that may be acid/base labile, releasing an aldehyde.

> <s_lp_Force_Field>
OPLS_2005

> <r_lp_Energy>
40.6201

> <b_lp_Chiralities_Consistent>
1

> <s_lp_Variant>
AV-unprocessed.smi:287-13

> <Gold.Version>
5.8.1

> <Gold.Id.Protein>
6NUR|6NUR_protein|mol2

> <Gold.PLP.Fitness>
46.1247

> <Gold.PLP.PLP>
-33.2260

> <Gold.PLP.part.hbond>
-4.0000

> <Gold.PLP.part.metal>
0.0000

> <Gold.PLP.part.buried>
-5.4757

> <Gold.PLP.part.nonpolar>
-23.6511

> <Gold.PLP.part.repulsive>
0.2701

> <Gold.PLP.ligand.clash>
0.0949

> <Gold.PLP.ligand.torsion>
1.0631

> <Gold.PLP.Chemscore.Hbond>
4.0000

> <Gold.PLP.Chemscore.CHOScore>
1.0000

> <Gold.PLP.Chemscore.Metal>
0.0000

> <Gold.Chemscore.Hbonds>
donor molecule, donor type, donor heavy atom, donor atom, acceptor molecule, acceptor atom, score
      L1  H    23    50       P1 10747  1.00
      L1  H    27    52       P1 10957  1.00
      P1  H  6896  6909       L1    11  1.00
      P1  H  7997  8009       L1     7  1.00
      L1  C    17    47       P1  7948  1.00

> <Gold.PLP.Chemscore.Internal.Correction>
0.1198

> <Gold.Rescore>
     Score         DG    S(hbond)    S(metal)    S(lipo)     H(rot)  DE(clash)    DE(int)     intcor
     10.49     -12.30       3.29        0.00      79.62       5.27       0.00       1.80       ----

> <Gold.Chemscore.Fitness>
10.4947

> <Gold.Chemscore.DG>
-12.2952

> <Gold.Chemscore.ZeroCoef>
-5.4800

> <Gold.Chemscore.Hbond>
3.2887

> <Gold.Chemscore.Metal>
0.0000

> <Gold.Chemscore.Lipo>
79.6151

> <Gold.Chemscore.Internal_Hbond>
0.0000

> <Gold.Chemscore.DEClash>
0.0021

> <Gold.Chemscore.DEInternal>
1.7984

> <Gold.Chemscore.Rot>
5.2672

> <Gold.Chemscore.Internal.Correction>
   9.000000E+99

> <Gold.Chemscore.Hbonds>
donor molecule, donor type, donor heavy atom, donor atom, acceptor molecule, acceptor atom, score
      L1  H    23    50       P1 10747  0.79
      L1  H    27    52       P1 10957  0.99
      P1  H  6896  6909       L1    11  0.08
      P1  H  7997  8009       L1     7  0.96

> <Gold.Chemscore.Hbond.Weighted>
-10.9841

> <Gold.Chemscore.Metal.Weighted>
-0.0000

> <Gold.Chemscore.Lipo.Weighted>
-9.3150

> <Gold.Chemscore.Internal_Hbond.Weighted>
0.0000

> <Gold.Chemscore.DEClash.Weighted>
0.0021

> <Gold.Chemscore.DEInternal.Weighted>
1.7984

> <Gold.Chemscore.Rot.Weighted>
13.4839

> <Gold.Chemscore.Internal.Correction.Weighted>
   9.000000E+99

> <Gold.Protein.RotatedTorsions>
[ 6907 6896 6895 6894 ] final   67.94 input  -60.11 | X-H torsion
[ 7974 7965 7964 7962 ] final   20.42 input  175.53 | X-H torsion
[ 8008 7997 7996 7995 ] final -178.91 input   59.86 | X-H torsion
[ 10167 10162 10161 10158 ] final -102.01 input  -65.29 | X-H torsion
[ 10718 10713 10712 10709 ] final  163.22 input   66.30 | X-H torsion
[ 10763 10752 10751 10750 ] final -107.00 input  -60.55 | X-H torsion
[ 11005 11000 10999 10996 ] final   52.57 input  -57.11 | X-H torsion

> <Gold.Protein.ActiveResidues>
 VAL166  LYS551  ARG553  GLY616  TRP617  ASP618  TYR619  PRO620  LYS621  CYS622 
 ASP623  PHE694  ASN695  SER759  ASP760  ASP761  ALA762  ILE779  LEU786  VAL792 
 PHE793  MET794  SER795  GLU796  ALA797  LYS798  CYS799  TRP800  GLU811  SER814 

> <Gold.Protein.RotatedAtoms>
  152.4587  134.5234  159.9789 H   0  0  0  0  0  0  0  0  0  0  0  0  # atno 6907 bound_to 6896
  151.5289  133.3447  159.2922 H   0  0  0  0  0  0  0  0  0  0  0  0  # atno 6908 bound_to 6896
  150.8540  134.7904  159.7094 H   0  0  0  0  0  0  0  0  0  0  0  0  # atno 6909 bound_to 6896
  146.2112  139.8171  142.8687 H   0  0  0  0  0  0  0  0  0  0  0  0  # atno 7974 bound_to 7965
  156.0244  140.1268  157.0324 H   0  0  0  0  0  0  0  0  0  0  0  0  # atno 8008 bound_to 7997
  154.4324  140.1062  156.6080 H   0  0  0  0  0  0  0  0  0  0  0  0  # atno 8009 bound_to 7997
  155.5898  140.3469  155.4565 H   0  0  0  0  0  0  0  0  0  0  0  0  # atno 8010 bound_to 7997
  140.2352  143.3578  152.0851 H   0  0  0  0  0  0  0  0  0  0  0  0  # atno 10167 bound_to 10162
  157.1116  131.0469  151.2454 H   0  0  0  0  0  0  0  0  0  0  0  0  # atno 10718 bound_to 10713
  154.8048  135.4691  154.0365 H   0  0  0  0  0  0  0  0  0  0  0  0  # atno 10763 bound_to 10752
  153.1842  135.6845  153.8444 H   0  0  0  0  0  0  0  0  0  0  0  0  # atno 10764 bound_to 10752
  153.7984  135.3233  155.3364 H   0  0  0  0  0  0  0  0  0  0  0  0  # atno 10765 bound_to 10752
  140.0838  134.5302  155.8920 H   0  0  0  0  0  0  0  0  0  0  0  0  # atno 11005 bound_to 11000
  145.3135  141.0226  143.3541 LP  0  0  0  0  0  0  0  0  0  0  0  0  # atno 17320 bound_to 7965
  144.8919  139.4764  143.6674 LP  0  0  0  0  0  0  0  0  0  0  0  0  # atno 17321 bound_to 7965
  139.5096  144.6870  151.5861 LP  0  0  0  0  0  0  0  0  0  0  0  0  # atno 17342 bound_to 10162
  140.6155  143.9356  150.6485 LP  0  0  0  0  0  0  0  0  0  0  0  0  # atno 17343 bound_to 10162
  157.4554  130.7622  149.7188 LP  0  0  0  0  0  0  0  0  0  0  0  0  # atno 17370 bound_to 10713
  155.9849  130.3987  150.3288 LP  0  0  0  0  0  0  0  0  0  0  0  0  # atno 17371 bound_to 10713
  141.2056  133.6648  156.6188 LP  0  0  0  0  0  0  0  0  0  0  0  0  # atno 17394 bound_to 11000
  140.3449  134.7817  157.4425 LP  0  0  0  0  0  0  0  0  0  0  0  0  # atno 17395 bound_to 11000

$$$$
