AV-unprocessed.smi:674|AV-procd|sdf|3301|dock6
  -GOLD-   22720 0263D 1   1.00000     0.00000
 Structure written by MMmdl.
 47 48  0  0  0  0  0  0  0  0  1 V2000
  146.3495  128.7410  152.7607 C   0  0  0  0  0  0  0  0  0  0  0  0
  147.3910  129.3742  153.6906 C   0  0  0  0  0  0  0  0  0  0  0  0
  147.5672  130.8417  153.4200 C   0  0  0  0  0  0  0  0  0  0  0  0
  148.4608  131.7482  154.0605 C   0  0  0  0  0  0  0  0  0  0  0  0
  148.1881  132.9344  153.4356 C   0  0  0  0  0  0  0  0  0  0  0  0
  148.7373  134.1585  153.6564 N   0  0  0  0  0  0  0  0  0  0  0  0
  149.4226  134.5914  154.7290 C   0  0  0  0  0  0  0  0  0  0  0  0
  149.7133  133.9127  155.7144 O   0  0  0  0  0  0  0  0  0  0  0  0
  149.7681  135.8788  154.5944 N   0  0  0  0  0  0  0  0  0  0  0  0
  150.5212  136.6362  155.5881 C   0  0  2  0  0  0  0  0  0  0  0  0
  149.6318  137.2230  156.6816 C   0  0  0  0  0  0  0  0  0  0  0  0
  150.5687  138.4448  156.6626 C   0  0  2  0  0  0  0  0  0  0  0  0
  151.7284  138.4780  157.6705 C   0  0  0  0  0  0  0  0  0  0  0  0
  149.8473  139.6768  156.7081 O   0  0  0  0  0  0  0  0  0  0  0  0
  150.5603  140.8392  156.3042 C   0  0  0  0  0  0  0  0  0  0  0  0
  150.8728  138.0866  155.1709 C   0  0  0  0  0  0  0  0  0  0  0  0
  152.3077  138.3110  154.6833 C   0  0  0  0  0  0  0  0  0  0  0  0
  149.9625  138.7444  154.1140 C   0  0  0  0  0  0  0  0  0  0  0  0
  147.2009  132.7252  152.4962 N   0  0  0  0  0  0  0  0  0  0  0  0
  146.5628  133.6543  151.5837 C   0  0  0  0  0  0  0  0  0  0  0  0
  146.8223  131.4294  152.4899 N   0  0  0  0  0  0  0  0  0  0  0  0
  146.2348  127.6779  152.9724 H   0  0  0  0  0  0  0  0  0  0  0  0
  146.6412  128.8418  151.7148 H   0  0  0  0  0  0  0  0  0  0  0  0
  145.3741  129.2129  152.8834 H   0  0  0  0  0  0  0  0  0  0  0  0
  147.0881  129.2227  154.7270 H   0  0  0  0  0  0  0  0  0  0  0  0
  148.3436  128.8556  153.5758 H   0  0  0  0  0  0  0  0  0  0  0  0
  149.1687  131.5421  154.8491 H   0  0  0  0  0  0  0  0  0  0  0  0
  148.6049  134.8290  152.9137 H   0  0  0  0  0  0  0  0  0  0  0  0
  149.4977  136.3663  153.7529 H   0  0  0  0  0  0  0  0  0  0  0  0
  151.3717  136.0937  156.0079 H   0  0  0  0  0  0  0  0  0  0  0  0
  148.6152  137.4435  156.3504 H   0  0  0  0  0  0  0  0  0  0  0  0
  149.6337  136.6599  157.6152 H   0  0  0  0  0  0  0  0  0  0  0  0
  152.3837  137.6135  157.5649 H   0  0  0  0  0  0  0  0  0  0  0  0
  151.3729  138.4669  158.7004 H   0  0  0  0  0  0  0  0  0  0  0  0
  152.3416  139.3698  157.5406 H   0  0  0  0  0  0  0  0  0  0  0  0
  149.9382  141.7168  156.4785 H   0  0  0  0  0  0  0  0  0  0  0  0
  150.8016  140.8204  155.2417 H   0  0  0  0  0  0  0  0  0  0  0  0
  151.4818  140.9716  156.8714 H   0  0  0  0  0  0  0  0  0  0  0  0
  152.5730  139.3685  154.6994 H   0  0  0  0  0  0  0  0  0  0  0  0
  152.4446  137.9518  153.6628 H   0  0  0  0  0  0  0  0  0  0  0  0
  153.0361  137.7832  155.2984 H   0  0  0  0  0  0  0  0  0  0  0  0
  150.1660  139.8118  154.0223 H   0  0  0  0  0  0  0  0  0  0  0  0
  148.9046  138.6422  154.3562 H   0  0  0  0  0  0  0  0  0  0  0  0
  150.1071  138.3032  153.1272 H   0  0  0  0  0  0  0  0  0  0  0  0
  147.0311  134.6368  151.6419 H   0  0  0  0  0  0  0  0  0  0  0  0
  145.5070  133.7504  151.8385 H   0  0  0  0  0  0  0  0  0  0  0  0
  146.6503  133.2845  150.5618 H   0  0  0  0  0  0  0  0  0  0  0  0
  1  2  1  0  0  0  0
  1 22  1  0  0  0  0
  1 23  1  0  0  0  0
  1 24  1  0  0  0  0
  2  3  1  0  0  0  0
  2 25  1  0  0  0  0
  2 26  1  0  0  0  0
  3 21  2  0  0  0  0
  3  4  1  0  0  0  0
  4  5  2  0  0  0  0
  4 27  1  0  0  0  0
  5  6  1  0  0  0  0
  5 19  1  0  0  0  0
  6  7  1  0  0  0  0
  6 28  1  0  0  0  0
  7  8  2  0  0  0  0
  7  9  1  0  0  0  0
  9 10  1  0  0  0  0
  9 29  1  0  0  0  0
 10 16  1  0  0  0  0
 10 11  1  0  0  0  0
 10 30  1  0  0  0  0
 11 12  1  0  0  0  0
 11 31  1  0  0  0  0
 11 32  1  0  0  0  0
 12 13  1  0  0  0  0
 12 14  1  0  0  0  0
 12 16  1  0  0  0  0
 13 33  1  0  0  0  0
 13 34  1  0  0  0  0
 13 35  1  0  0  0  0
 14 15  1  0  0  0  0
 15 36  1  0  0  0  0
 15 37  1  0  0  0  0
 15 38  1  0  0  0  0
 16 17  1  0  0  0  0
 16 18  1  0  0  0  0
 17 39  1  0  0  0  0
 17 40  1  0  0  0  0
 17 41  1  0  0  0  0
 18 42  1  0  0  0  0
 18 43  1  0  0  0  0
 18 44  1  0  0  0  0
 19 20  1  0  0  0  0
 19 21  1  0  0  0  0
 20 45  1  0  0  0  0
 20 46  1  0  0  0  0
 20 47  1  0  0  0  0
M  END
> <s_m_source_file>
AV-unprocessed.smi

> <i_m_source_file_index>
674

> <i_lp_mmshare_version>
43012

> <i_f3d_flags>
0

> <s_epik_input>
W0NIM11bQ0gyXWMxW2NIXWMobihuMSlbQ0gzXSlbTkhdQyg9TylbTkhdW0NAQEhdKEMyKFtDSDNdKVtDSDNdKVtDSDJdW0NAQF0yKFtDSDNdKU9bQ0gzXQ==

> <s_epik_cmdline>
J2VwaWtfcHl0aG9uJywgJy1waCcsICc3LjAnLCAnLXRuJywgJzgnLCAnLW1hJywgJzIwMCcsICctbWV0YWxfYmluZGluZycsICctaW1hZScsICc8aW5maWxlLm1hZT4nLCAnLW9tYWUnLCAnPG91dGZpbGUubWFlPic=

> <r_lp_tautomer_probability>
1

> <r_epik_Ionization_Penalty>
0.000101626

> <r_epik_Ionization_Penalty_Charging>
0

> <r_epik_Ionization_Penalty_Neutral>
0.000101626

> <r_epik_State_Penalty>
-0

> <r_epik_Charging_Adjusted_Penalty>
0

> <i_epik_Tot_Q>
0

> <i_epik_Tot_abs_Q>
0

> <r_epik_Metal_State_Penalty>
-0

> <b_epik_Metal_Only>
0

> <s_lp_Force_Field>
OPLS_2005

> <r_lp_Energy>
22.7641

> <b_lp_Chiralities_Consistent>
1

> <s_lp_Variant>
AV-unprocessed.smi:674-3

> <Gold.Version>
5.8.1

> <Gold.Id.Protein>
6NUR|6NUR_protein|mol2

> <Gold.PLP.Fitness>
37.2065

> <Gold.PLP.PLP>
-31.7581

> <Gold.PLP.part.hbond>
-2.0011

> <Gold.PLP.part.metal>
0.0000

> <Gold.PLP.part.buried>
-4.1124

> <Gold.PLP.part.nonpolar>
-27.2511

> <Gold.PLP.part.repulsive>
0.3357

> <Gold.PLP.ligand.clash>
0.0000

> <Gold.PLP.ligand.torsion>
0.3558

> <Gold.PLP.Chemscore.Hbond>
1.9280

> <Gold.PLP.Chemscore.CHOScore>
0.0000

> <Gold.PLP.Chemscore.Metal>
0.0000

> <Gold.Chemscore.Hbonds>
donor molecule, donor type, donor heavy atom, donor atom, acceptor molecule, acceptor atom, score
      L1  H     6    28       P1  7948  1.00
      L1  H     9    29       P1  7948  0.93

> <Gold.PLP.Chemscore.Internal.Correction>
0.3760

> <Gold.Rescore>
     Score         DG    S(hbond)    S(metal)    S(lipo)     H(rot)  DE(clash)    DE(int)     intcor
     13.72     -15.14       1.53        0.00      68.87       1.37       0.06       1.36       ----

> <Gold.Chemscore.Fitness>
13.7206

> <Gold.Chemscore.DG>
-15.1384

> <Gold.Chemscore.ZeroCoef>
-5.4800

> <Gold.Chemscore.Hbond>
1.5261

> <Gold.Chemscore.Metal>
0.0000

> <Gold.Chemscore.Lipo>
68.8667

> <Gold.Chemscore.Internal_Hbond>
0.0000

> <Gold.Chemscore.DEClash>
0.0589

> <Gold.Chemscore.DEInternal>
1.3589

> <Gold.Chemscore.Rot>
1.3658

> <Gold.Chemscore.Internal.Correction>
   9.000000E+99

> <Gold.Chemscore.Hbonds>
donor molecule, donor type, donor heavy atom, donor atom, acceptor molecule, acceptor atom, score
      L1  H     6    28       P1  7948  0.34
      L1  H     9    29       P1  7948  0.67

> <Gold.Chemscore.Hbond.Weighted>
-5.0973

> <Gold.Chemscore.Metal.Weighted>
-0.0000

> <Gold.Chemscore.Lipo.Weighted>
-8.0574

> <Gold.Chemscore.Internal_Hbond.Weighted>
0.0000

> <Gold.Chemscore.DEClash.Weighted>
0.0589

> <Gold.Chemscore.DEInternal.Weighted>
1.3589

> <Gold.Chemscore.Rot.Weighted>
3.4963

> <Gold.Chemscore.Internal.Correction.Weighted>
   9.000000E+99

> <Gold.Protein.RotatedTorsions>
[ 6907 6896 6895 6894 ] final  103.79 input  -60.11 | X-H torsion
[ 7974 7965 7964 7962 ] final -146.99 input  175.53 | X-H torsion
[ 8008 7997 7996 7995 ] final   86.47 input   59.86 | X-H torsion
[ 10167 10162 10161 10158 ] final  164.37 input  -65.29 | X-H torsion
[ 10718 10713 10712 10709 ] final  112.04 input   66.30 | X-H torsion
[ 10763 10752 10751 10750 ] final    4.20 input  -60.55 | X-H torsion
[ 11005 11000 10999 10996 ] final -175.54 input  -57.11 | X-H torsion

> <Gold.Protein.ActiveResidues>
 VAL166  LYS551  ARG553  GLY616  TRP617  ASP618  TYR619  PRO620  LYS621  CYS622 
 ASP623  PHE694  ASN695  SER759  ASP760  ASP761  ALA762  ILE779  LEU786  VAL792 
 PHE793  MET794  SER795  GLU796  ALA797  LYS798  CYS799  TRP800  GLU811  SER814 

> <Gold.Protein.RotatedAtoms>
  152.5284  133.9772  159.7789 H   0  0  0  0  0  0  0  0  0  0  0  0  # atno 6907 bound_to 6896
  151.0033  133.6027  159.2699 H   0  0  0  0  0  0  0  0  0  0  0  0  # atno 6908 bound_to 6896
  151.3128  135.0805  159.9332 H   0  0  0  0  0  0  0  0  0  0  0  0  # atno 6909 bound_to 6896
  144.8123  140.5385  143.5634 H   0  0  0  0  0  0  0  0  0  0  0  0  # atno 7974 bound_to 7965
  155.9631  140.3392  155.6509 H   0  0  0  0  0  0  0  0  0  0  0  0  # atno 8008 bound_to 7997
  155.6772  140.0733  157.2516 H   0  0  0  0  0  0  0  0  0  0  0  0  # atno 8009 bound_to 7997
  154.4148  140.1681  156.1930 H   0  0  0  0  0  0  0  0  0  0  0  0  # atno 8010 bound_to 7997
  139.4888  144.4242  151.9150 H   0  0  0  0  0  0  0  0  0  0  0  0  # atno 10167 bound_to 10162
  157.6413  131.0961  150.6837 H   0  0  0  0  0  0  0  0  0  0  0  0  # atno 10718 bound_to 10713
  153.2741  135.6935  153.7450 H   0  0  0  0  0  0  0  0  0  0  0  0  # atno 10763 bound_to 10752
  153.6462  135.3384  155.3087 H   0  0  0  0  0  0  0  0  0  0  0  0  # atno 10764 bound_to 10752
  154.8474  135.4443  154.1774 H   0  0  0  0  0  0  0  0  0  0  0  0  # atno 10765 bound_to 10752
  140.4621  134.6244  157.4847 H   0  0  0  0  0  0  0  0  0  0  0  0  # atno 11005 bound_to 11000
  145.5296  139.1475  143.3507 LP  0  0  0  0  0  0  0  0  0  0  0  0  # atno 17320 bound_to 7965
  146.2423  140.5436  142.8929 LP  0  0  0  0  0  0  0  0  0  0  0  0  # atno 17321 bound_to 7965
  140.3687  144.2882  150.5923 LP  0  0  0  0  0  0  0  0  0  0  0  0  # atno 17342 bound_to 10162
  140.5338  143.2237  151.8195 LP  0  0  0  0  0  0  0  0  0  0  0  0  # atno 17343 bound_to 10162
  156.7160  130.4666  149.5535 LP  0  0  0  0  0  0  0  0  0  0  0  0  # atno 17370 bound_to 10713
  156.1698  130.6429  151.0823 LP  0  0  0  0  0  0  0  0  0  0  0  0  # atno 17371 bound_to 10713
  139.9938  134.6943  155.9644 LP  0  0  0  0  0  0  0  0  0  0  0  0  # atno 17394 bound_to 11000
  141.1616  133.6538  156.4338 LP  0  0  0  0  0  0  0  0  0  0  0  0  # atno 17395 bound_to 11000

$$$$
