AV-unprocessed.smi:1482|AV-procd|sdf|5988|dock6
  -GOLD-   22720 6 83D 1   1.00000     0.00000
 Structure written by MMmdl.
 36 37  0  0  0  0  0  0  0  0  1 V2000
  146.2607  142.8623  154.2299 C   0  0  0  0  0  0  0  0  0  0  0  0
  146.8270  141.6209  153.8477 O   0  0  0  0  0  0  0  0  0  0  0  0
  147.6681  141.0772  154.8510 C   0  0  0  0  0  0  0  0  0  0  0  0
  149.0731  141.6663  154.7004 C   0  0  0  0  0  0  0  0  0  0  0  0
  149.8877  141.1669  155.7561 O   0  0  0  0  0  0  0  0  0  0  0  0
  150.6215  140.0165  155.5437 C   0  0  0  0  0  0  0  0  0  0  0  0
  150.6083  139.4640  154.3040 N   0  0  0  0  0  0  0  0  0  0  0  0
  151.3326  138.3464  154.0880 C   0  0  0  0  0  0  0  0  0  0  0  0
  152.1028  137.7217  155.0866 C   0  0  0  0  0  0  0  0  0  0  0  0
  152.1160  138.2921  156.3726 C   0  0  0  0  0  0  0  0  0  0  0  0
  151.3625  139.4602  156.6143 C   0  0  0  0  0  0  0  0  0  0  0  0
  151.3685  140.0950  157.9982 C   0  0  0  0  0  0  0  0  0  0  0  0
  151.2141  141.5446  157.9594 N   0  0  0  0  0  0  0  0  0  0  0  0
  151.5181  142.3758  158.9679 C   0  0  0  0  0  0  0  0  0  0  0  0
  151.9715  141.9858  160.0451 O   0  0  0  0  0  0  0  0  0  0  0  0
  151.2565  143.8152  158.6662 C   0  0  0  0  0  0  0  0  0  0  0  0
  151.9246  144.4091  157.4426 C   0  0  0  0  0  0  0  0  0  0  0  0
  152.4088  144.7872  158.8197 C   0  0  0  0  0  0  0  0  0  0  0  0
  145.6263  143.2383  153.4274 H   0  0  0  0  0  0  0  0  0  0  0  0
  147.0345  143.6064  154.4238 H   0  0  0  0  0  0  0  0  0  0  0  0
  145.6451  142.7563  155.1238 H   0  0  0  0  0  0  0  0  0  0  0  0
  147.2712  141.3088  155.8407 H   0  0  0  0  0  0  0  0  0  0  0  0
  147.7084  139.9910  154.7570 H   0  0  0  0  0  0  0  0  0  0  0  0
  149.4907  141.3807  153.7335 H   0  0  0  0  0  0  0  0  0  0  0  0
  149.0202  142.7554  154.7401 H   0  0  0  0  0  0  0  0  0  0  0  0
  151.2978  137.9385  153.0887 H   0  0  0  0  0  0  0  0  0  0  0  0
  152.6698  136.8284  154.8708 H   0  0  0  0  0  0  0  0  0  0  0  0
  152.6973  137.8390  157.1622 H   0  0  0  0  0  0  0  0  0  0  0  0
  150.6057  139.6610  158.6454 H   0  0  0  0  0  0  0  0  0  0  0  0
  152.3248  139.8706  158.4710 H   0  0  0  0  0  0  0  0  0  0  0  0
  150.8497  141.9443  157.1069 H   0  0  0  0  0  0  0  0  0  0  0  0
  150.2651  144.1919  158.9139 H   0  0  0  0  0  0  0  0  0  0  0  0
  152.5725  143.7727  156.8421 H   0  0  0  0  0  0  0  0  0  0  0  0
  151.3567  145.1469  156.8797 H   0  0  0  0  0  0  0  0  0  0  0  0
  152.1690  145.7814  159.1909 H   0  0  0  0  0  0  0  0  0  0  0  0
  153.3781  144.4020  159.1316 H   0  0  0  0  0  0  0  0  0  0  0  0
  1  2  1  0  0  0  0
  1 19  1  0  0  0  0
  1 20  1  0  0  0  0
  1 21  1  0  0  0  0
  2  3  1  0  0  0  0
  3  4  1  0  0  0  0
  3 22  1  0  0  0  0
  3 23  1  0  0  0  0
  4  5  1  0  0  0  0
  4 24  1  0  0  0  0
  4 25  1  0  0  0  0
  5  6  1  0  0  0  0
  6 11  1  0  0  0  0
  6  7  2  0  0  0  0
  7  8  1  0  0  0  0
  8  9  2  0  0  0  0
  8 26  1  0  0  0  0
  9 10  1  0  0  0  0
  9 27  1  0  0  0  0
 10 11  2  0  0  0  0
 10 28  1  0  0  0  0
 11 12  1  0  0  0  0
 12 13  1  0  0  0  0
 12 29  1  0  0  0  0
 12 30  1  0  0  0  0
 13 14  1  0  0  0  0
 13 31  1  0  0  0  0
 14 15  2  0  0  0  0
 14 16  1  0  0  0  0
 16 18  1  0  0  0  0
 16 17  1  0  0  0  0
 16 32  1  0  0  0  0
 17 18  1  0  0  0  0
 17 33  1  0  0  0  0
 17 34  1  0  0  0  0
 18 35  1  0  0  0  0
 18 36  1  0  0  0  0
M  END
> <s_m_source_file>
AV-unprocessed.smi

> <i_m_source_file_index>
1482

> <i_lp_mmshare_version>
43012

> <i_f3d_flags>
0

> <s_epik_input>
W0NIM11PW0NIMl1bQ0gyXU9jMW5bY0hdW2NIXVtjSF1jMVtDSDJdW05IXUMoPU8pW0NIXTJbQ0gyXVtDSDJdMg==

> <s_epik_cmdline>
J2VwaWtfcHl0aG9uJywgJy1waCcsICc3LjAnLCAnLXRuJywgJzgnLCAnLW1hJywgJzIwMCcsICctbWV0YWxfYmluZGluZycsICctaW1hZScsICc8aW5maWxlLm1hZT4nLCAnLW9tYWUnLCAnPG91dGZpbGUubWFlPic=

> <r_lp_tautomer_probability>
1

> <r_epik_Ionization_Penalty>
6.12052e-05

> <r_epik_Ionization_Penalty_Charging>
0

> <r_epik_Ionization_Penalty_Neutral>
6.12052e-05

> <r_epik_State_Penalty>
-0

> <r_epik_Charging_Adjusted_Penalty>
0

> <i_epik_Tot_Q>
0

> <i_epik_Tot_abs_Q>
0

> <r_epik_Metal_State_Penalty>
-0

> <b_epik_Metal_Only>
0

> <s_lp_Force_Field>
OPLS_2005

> <r_lp_Energy>
6.94905

> <b_lp_Chiralities_Consistent>
1

> <s_lp_Variant>
AV-unprocessed.smi:1482-1

> <Gold.Version>
5.8.1

> <Gold.Id.Protein>
6NUR|6NUR_protein|mol2

> <Gold.PLP.Fitness>
39.8898

> <Gold.PLP.PLP>
-36.0684

> <Gold.PLP.part.hbond>
-1.4552

> <Gold.PLP.part.metal>
0.0000

> <Gold.PLP.part.buried>
-4.5362

> <Gold.PLP.part.nonpolar>
-30.1039

> <Gold.PLP.part.repulsive>
0.4885

> <Gold.PLP.ligand.clash>
0.0000

> <Gold.PLP.ligand.torsion>
0.9033

> <Gold.PLP.Chemscore.Hbond>
0.8500

> <Gold.PLP.Chemscore.CHOScore>
0.9718

> <Gold.PLP.Chemscore.Metal>
0.0000

> <Gold.Chemscore.Hbonds>
donor molecule, donor type, donor heavy atom, donor atom, acceptor molecule, acceptor atom, score
      P1  H  7989  7998       L1     7  0.75
      L1  C     8    26       P1  7949  1.00

> <Gold.PLP.Chemscore.Internal.Correction>
0.1624

> <Gold.Rescore>
     Score         DG    S(hbond)    S(metal)    S(lipo)     H(rot)  DE(clash)    DE(int)     intcor
     10.82     -12.14       0.52        0.00      90.50       2.21       0.28       1.04       ----

> <Gold.Chemscore.Fitness>
10.8207

> <Gold.Chemscore.DG>
-12.1427

> <Gold.Chemscore.ZeroCoef>
-5.4800

> <Gold.Chemscore.Hbond>
0.5210

> <Gold.Chemscore.Metal>
0.0000

> <Gold.Chemscore.Lipo>
90.5030

> <Gold.Chemscore.Internal_Hbond>
0.0000

> <Gold.Chemscore.DEClash>
0.2782

> <Gold.Chemscore.DEInternal>
1.0437

> <Gold.Chemscore.Rot>
2.2134

> <Gold.Chemscore.Internal.Correction>
   9.000000E+99

> <Gold.Chemscore.Hbonds>
donor molecule, donor type, donor heavy atom, donor atom, acceptor molecule, acceptor atom, score
      P1  H  7989  7998       L1     7  0.04

> <Gold.Chemscore.Hbond.Weighted>
-1.7401

> <Gold.Chemscore.Metal.Weighted>
-0.0000

> <Gold.Chemscore.Lipo.Weighted>
-10.5889

> <Gold.Chemscore.Internal_Hbond.Weighted>
0.0000

> <Gold.Chemscore.DEClash.Weighted>
0.2782

> <Gold.Chemscore.DEInternal.Weighted>
1.0437

> <Gold.Chemscore.Rot.Weighted>
5.6663

> <Gold.Chemscore.Internal.Correction.Weighted>
   9.000000E+99

> <Gold.Protein.RotatedTorsions>
[ 6907 6896 6895 6894 ] final  -53.56 input  -60.11 | X-H torsion
[ 7974 7965 7964 7962 ] final  -43.61 input  175.53 | X-H torsion
[ 8008 7997 7996 7995 ] final  111.65 input   59.86 | X-H torsion
[ 10167 10162 10161 10158 ] final  -18.93 input  -65.29 | X-H torsion
[ 10718 10713 10712 10709 ] final   -8.66 input   66.30 | X-H torsion
[ 10763 10752 10751 10750 ] final  104.55 input  -60.55 | X-H torsion
[ 11005 11000 10999 10996 ] final  -72.94 input  -57.11 | X-H torsion

> <Gold.Protein.ActiveResidues>
 VAL166  LYS551  ARG553  GLY616  TRP617  ASP618  TYR619  PRO620  LYS621  CYS622 
 ASP623  PHE694  ASN695  SER759  ASP760  ASP761  ALA762  ILE779  LEU786  VAL792 
 PHE793  MET794  SER795  GLU796  ALA797  LYS798  CYS799  TRP800  GLU811  SER814 

> <Gold.Protein.RotatedAtoms>
  150.8416  134.7710  159.6936 H   0  0  0  0  0  0  0  0  0  0  0  0  # atno 6907 bound_to 6896
  152.4502  134.5406  159.9848 H   0  0  0  0  0  0  0  0  0  0  0  0  # atno 6908 bound_to 6896
  151.5545  133.3374  159.2995 H   0  0  0  0  0  0  0  0  0  0  0  0  # atno 6909 bound_to 6896
  146.0002  140.7082  142.9274 H   0  0  0  0  0  0  0  0  0  0  0  0  # atno 7974 bound_to 7965
  156.2139  140.3015  155.9794 H   0  0  0  0  0  0  0  0  0  0  0  0  # atno 8008 bound_to 7997
  155.2655  140.0431  157.3019 H   0  0  0  0  0  0  0  0  0  0  0  0  # atno 8009 bound_to 7997
  154.5739  140.2356  155.8160 H   0  0  0  0  0  0  0  0  0  0  0  0  # atno 8010 bound_to 7997
  140.7263  143.4868  151.0044 H   0  0  0  0  0  0  0  0  0  0  0  0  # atno 10167 bound_to 10162
  156.6993  130.5088  149.5921 H   0  0  0  0  0  0  0  0  0  0  0  0  # atno 10718 bound_to 10713
  153.3674  135.3939  155.1763 H   0  0  0  0  0  0  0  0  0  0  0  0  # atno 10763 bound_to 10752
  154.8689  135.3694  154.5021 H   0  0  0  0  0  0  0  0  0  0  0  0  # atno 10764 bound_to 10752
  153.5486  135.7083  153.5662 H   0  0  0  0  0  0  0  0  0  0  0  0  # atno 10765 bound_to 10752
  141.1616  133.6862  156.7136 H   0  0  0  0  0  0  0  0  0  0  0  0  # atno 11005 bound_to 11000
  144.6917  140.3220  143.7230 LP  0  0  0  0  0  0  0  0  0  0  0  0  # atno 17320 bound_to 7965
  145.7499  139.1790  143.2328 LP  0  0  0  0  0  0  0  0  0  0  0  0  # atno 17321 bound_to 7965
  139.8570  143.7363  152.3175 LP  0  0  0  0  0  0  0  0  0  0  0  0  # atno 17342 bound_to 10162
  139.7565  144.7519  151.0427 LP  0  0  0  0  0  0  0  0  0  0  0  0  # atno 17343 bound_to 10162
  156.1740  130.6456  151.0872 LP  0  0  0  0  0  0  0  0  0  0  0  0  # atno 17370 bound_to 10713
  157.6979  131.0787  150.6912 LP  0  0  0  0  0  0  0  0  0  0  0  0  # atno 17371 bound_to 10713
  140.2869  134.8272  157.3982 LP  0  0  0  0  0  0  0  0  0  0  0  0  # atno 17394 bound_to 11000
  140.1382  134.5006  155.8052 LP  0  0  0  0  0  0  0  0  0  0  0  0  # atno 17395 bound_to 11000

$$$$
