AV-unprocessed.smi:48|AV-procd|sdf|459|dock4
  -GOLD-   2262016323D 1   1.00000     0.00000
 Structure written by MMmdl.
 30 32  0  0  0  0  0  0  0  0  1 V2000
  145.0692  141.8518  154.7114 O   0  0  0  0  0  0  0  0  0  0  0  0
  146.3044  142.4626  154.4065 C   0  0  0  0  0  0  0  0  0  0  0  0
  147.2900  141.4147  153.8593 C   0  0  1  0  0  0  0  0  0  0  0  0
  148.6408  141.8237  154.0718 O   0  0  0  0  0  0  0  0  0  0  0  0
  149.4736  140.7206  154.2744 C   0  0  1  0  0  0  0  0  0  0  0  0
  150.1260  140.8907  155.6120 N   0  0  0  0  0  0  0  0  0  0  0  0
  149.8292  141.7633  156.5988 C   0  0  0  0  0  0  0  0  0  0  0  0
  150.5687  141.7116  157.7062 N   0  0  0  0  0  0  0  0  0  0  0  0
  151.4540  140.6913  157.3994 C   0  0  0  0  0  0  0  0  0  0  0  0
  152.5230  140.0984  158.1137 C   0  0  0  0  0  0  0  0  0  0  0  0
  152.9391  140.6370  159.6995 Cl  0  0  0  0  0  0  0  0  0  0  0  0
  153.2139  139.0939  157.5234 N   0  0  0  0  0  0  0  0  0  0  0  0
  152.8696  138.6949  156.2924 C   0  0  0  0  0  0  0  0  0  0  0  0
  151.8936  139.1557  155.5013 N   0  0  0  0  0  0  0  0  0  0  0  0
  151.1996  140.1680  156.1003 C   0  0  0  0  0  0  0  0  0  0  0  0
  148.5869  139.4625  154.2213 C   0  0  1  0  0  0  0  0  0  0  0  0
  148.9524  138.4159  155.1040 O   0  0  0  0  0  0  0  0  0  0  0  0
  147.1963  140.0194  154.4939 C   0  0  1  0  0  0  0  0  0  0  0  0
  146.9001  140.0947  155.8787 O   0  0  0  0  0  0  0  0  0  0  0  0
  147.1471  141.2960  152.7834 H   0  0  0  0  0  0  0  0  0  0  0  0
  150.2995  140.7069  153.5621 H   0  0  0  0  0  0  0  0  0  0  0  0
  148.6230  139.0864  153.1979 H   0  0  0  0  0  0  0  0  0  0  0  0
  146.4221  139.4163  154.0187 H   0  0  0  0  0  0  0  0  0  0  0  0
  144.7259  141.4595  153.9233 H   0  0  0  0  0  0  0  0  0  0  0  0
  146.1577  143.2795  153.6993 H   0  0  0  0  0  0  0  0  0  0  0  0
  146.6894  142.8954  155.3303 H   0  0  0  0  0  0  0  0  0  0  0  0
  149.0247  142.4773  156.5013 H   0  0  0  0  0  0  0  0  0  0  0  0
  153.4603  137.8892  155.8820 H   0  0  0  0  0  0  0  0  0  0  0  0
  148.5890  137.6087  154.7730 H   0  0  0  0  0  0  0  0  0  0  0  0
  146.4520  140.9107  156.0429 H   0  0  0  0  0  0  0  0  0  0  0  0
  1  2  1  0  0  0  0
  1 24  1  0  0  0  0
  2  3  1  0  0  0  0
  2 25  1  0  0  0  0
  2 26  1  0  0  0  0
  3 20  1  0  0  0  0
  3 18  1  0  0  0  0
  3  4  1  0  0  0  0
  4  5  1  0  0  0  0
  5 21  1  0  0  0  0
  5  6  1  0  0  0  0
  5 16  1  0  0  0  0
  6 15  1  0  0  0  0
  6  7  1  0  0  0  0
  7  8  2  0  0  0  0
  7 27  1  0  0  0  0
  8  9  1  0  0  0  0
  9 15  2  0  0  0  0
  9 10  1  0  0  0  0
 10 11  1  0  0  0  0
 10 12  2  0  0  0  0
 12 13  1  0  0  0  0
 13 14  2  0  0  0  0
 13 28  1  0  0  0  0
 14 15  1  0  0  0  0
 16 22  1  0  0  0  0
 16 17  1  0  0  0  0
 16 18  1  0  0  0  0
 17 29  1  0  0  0  0
 18 23  1  0  0  0  0
 18 19  1  0  0  0  0
 19 30  1  0  0  0  0
M  END
> <s_m_source_file>
AV-unprocessed.smi

> <i_m_source_file_index>
48

> <i_lp_mmshare_version>
43012

> <i_f3d_flags>
0

> <s_epik_input>
W09IXVtDSDJdW0NASF0xT1tDQEhdKFtDQEhdKFtPSF0pW0NAQEhdMVtPSF0pbihbY0hdbjIpYyhjMjMpbltjSF1uYzNDbA==

> <s_epik_cmdline>
J2VwaWtfcHl0aG9uJywgJy1waCcsICc3LjAnLCAnLXRuJywgJzgnLCAnLW1hJywgJzIwMCcsICctbWV0YWxfYmluZGluZycsICctaW1hZScsICc8aW5maWxlLm1hZT4nLCAnLW9tYWUnLCAnPG91dGZpbGUubWFlPic=

> <r_lp_tautomer_probability>
1

> <r_epik_Ionization_Penalty>
3.45505e-06

> <r_epik_Ionization_Penalty_Charging>
0

> <r_epik_Ionization_Penalty_Neutral>
3.45505e-06

> <r_epik_State_Penalty>
-0

> <r_epik_Charging_Adjusted_Penalty>
0

> <i_epik_Tot_Q>
0

> <i_epik_Tot_abs_Q>
0

> <r_epik_Metal_State_Penalty>
-0

> <b_epik_Metal_Only>
0

> <s_epik_Chemistry_Notes>
This compound contains an acetal/aminal-like group ( X-CH(R)-Y where X, Y are N, S, or O) that may be acid/base labile, releasing an aldehyde.

> <s_lp_Force_Field>
OPLS_2005

> <r_lp_Energy>
40.6027

> <b_lp_Chiralities_Consistent>
1

> <s_lp_Variant>
AV-unprocessed.smi:48-13

> <Gold.Version>
5.8.1

> <Gold.Id.Protein>
6NUR|6NUR_protein|mol2

> <Gold.PLP.Fitness>
36.5988

> <Gold.PLP.PLP>
-28.3429

> <Gold.PLP.part.hbond>
-3.0000

> <Gold.PLP.part.metal>
0.0000

> <Gold.PLP.part.buried>
-0.6450

> <Gold.PLP.part.nonpolar>
-24.6260

> <Gold.PLP.part.repulsive>
0.2369

> <Gold.PLP.ligand.clash>
0.0000

> <Gold.PLP.ligand.torsion>
0.5848

> <Gold.PLP.Chemscore.Hbond>
2.0862

> <Gold.PLP.Chemscore.CHOScore>
1.0000

> <Gold.PLP.Chemscore.Metal>
0.0000

> <Gold.Chemscore.Hbonds>
donor molecule, donor type, donor heavy atom, donor atom, acceptor molecule, acceptor atom, score
      L1  H     1    24       P1 10175  1.00
      P1  H  7997  8008       L1    12  0.81
      P1  H  8011  8017       L1     4  0.20
      L1  C     7    27       P1  8028  1.00

> <Gold.PLP.Chemscore.Internal.Correction>
0.1669

> <Gold.Rescore>
     Score         DG    S(hbond)    S(metal)    S(lipo)     H(rot)  DE(clash)    DE(int)     intcor
      2.99      -5.39       1.37        0.00      43.40       3.80       0.78       1.62       ----

> <Gold.Chemscore.Fitness>
2.9924

> <Gold.Chemscore.DG>
-5.3916

> <Gold.Chemscore.ZeroCoef>
-5.4800

> <Gold.Chemscore.Hbond>
1.3672

> <Gold.Chemscore.Metal>
0.0000

> <Gold.Chemscore.Lipo>
43.3982

> <Gold.Chemscore.Internal_Hbond>
0.0000

> <Gold.Chemscore.DEClash>
0.7787

> <Gold.Chemscore.DEInternal>
1.6205

> <Gold.Chemscore.Rot>
3.8017

> <Gold.Chemscore.Internal.Correction>
   9.000000E+99

> <Gold.Chemscore.Hbonds>
donor molecule, donor type, donor heavy atom, donor atom, acceptor molecule, acceptor atom, score
      L1  H     1    24       P1 10175  0.24
      P1  H  7997  8008       L1    12  0.03
      P1  H  8011  8017       L1     4  0.01

> <Gold.Chemscore.Hbond.Weighted>
-4.5664

> <Gold.Chemscore.Metal.Weighted>
-0.0000

> <Gold.Chemscore.Lipo.Weighted>
-5.0776

> <Gold.Chemscore.Internal_Hbond.Weighted>
0.0000

> <Gold.Chemscore.DEClash.Weighted>
0.7787

> <Gold.Chemscore.DEInternal.Weighted>
1.6205

> <Gold.Chemscore.Rot.Weighted>
9.7324

> <Gold.Chemscore.Internal.Correction.Weighted>
   9.000000E+99

> <Gold.Protein.RotatedTorsions>
[ 6907 6896 6895 6894 ] final -134.02 input  -60.11 | X-H torsion
[ 7974 7965 7964 7962 ] final  179.71 input  175.53 | X-H torsion
[ 8008 7997 7996 7995 ] final  -92.05 input   59.86 | X-H torsion
[ 10167 10162 10161 10158 ] final  149.24 input  -65.29 | X-H torsion
[ 10718 10713 10712 10709 ] final -114.74 input   66.30 | X-H torsion
[ 10763 10752 10751 10750 ] final  168.90 input  -60.55 | X-H torsion
[ 11005 11000 10999 10996 ] final   76.37 input  -57.11 | X-H torsion

> <Gold.Protein.ActiveResidues>
 VAL166  LYS551  ARG553  GLY616  TRP617  ASP618  TYR619  PRO620  LYS621  CYS622 
 ASP623  PHE694  ASN695  SER759  ASP760  ASP761  ALA762  ILE779  LEU786  VAL792 
 PHE793  MET794  SER795  GLU796  ALA797  LYS798  CYS799  TRP800  GLU811  SER814 

> <Gold.Protein.RotatedAtoms>
  150.9809  133.6246  159.2722 H   0  0  0  0  0  0  0  0  0  0  0  0  # atno 6907 bound_to 6896
  151.3501  135.0881  159.9410 H   0  0  0  0  0  0  0  0  0  0  0  0  # atno 6908 bound_to 6896
  152.5215  133.9404  159.7678 H   0  0  0  0  0  0  0  0  0  0  0  0  # atno 6909 bound_to 6896
  144.7143  140.0590  143.6433 H   0  0  0  0  0  0  0  0  0  0  0  0  # atno 7974 bound_to 7965
  154.7183  140.0513  157.0615 H   0  0  0  0  0  0  0  0  0  0  0  0  # atno 8008 bound_to 7997
  155.0462  140.3174  155.4688 H   0  0  0  0  0  0  0  0  0  0  0  0  # atno 8009 bound_to 7997
  156.2809  140.2124  156.5587 H   0  0  0  0  0  0  0  0  0  0  0  0  # atno 8010 bound_to 7997
  139.4864  144.5617  151.7218 H   0  0  0  0  0  0  0  0  0  0  0  0  # atno 10167 bound_to 10162
  156.0850  130.6043  150.8815 H   0  0  0  0  0  0  0  0  0  0  0  0  # atno 10718 bound_to 10713
  154.3754  135.2753  155.2242 H   0  0  0  0  0  0  0  0  0  0  0  0  # atno 10763 bound_to 10752
  154.4372  135.5963  153.6109 H   0  0  0  0  0  0  0  0  0  0  0  0  # atno 10764 bound_to 10752
  152.9836  135.6010  154.3990 H   0  0  0  0  0  0  0  0  0  0  0  0  # atno 10765 bound_to 10752
  139.9301  134.7595  156.1387 H   0  0  0  0  0  0  0  0  0  0  0  0  # atno 11005 bound_to 11000
  145.9880  139.2993  143.1002 LP  0  0  0  0  0  0  0  0  0  0  0  0  # atno 17320 bound_to 7965
  145.8935  140.9288  143.0540 LP  0  0  0  0  0  0  0  0  0  0  0  0  # atno 17321 bound_to 7965
  140.5188  144.0911  150.6016 LP  0  0  0  0  0  0  0  0  0  0  0  0  # atno 17342 bound_to 10162
  140.3862  143.2776  152.0113 LP  0  0  0  0  0  0  0  0  0  0  0  0  # atno 17343 bound_to 10162
  157.5981  131.0942  150.9007 LP  0  0  0  0  0  0  0  0  0  0  0  0  # atno 17370 bound_to 10713
  156.9170  130.5301  149.5279 LP  0  0  0  0  0  0  0  0  0  0  0  0  # atno 17371 bound_to 10713
  141.0885  133.6724  156.2488 LP  0  0  0  0  0  0  0  0  0  0  0  0  # atno 17394 bound_to 11000
  140.6225  134.5347  157.5549 LP  0  0  0  0  0  0  0  0  0  0  0  0  # atno 17395 bound_to 11000

$$$$
