AV-unprocessed.smi:199|AV-procd|sdf|1564|dock10
  -GOLD-   2262019443D 1   1.00000     0.00000
 Structure written by MMmdl.
 51 55  0  0  0  0  0  0  0  0  1 V2000
  152.2952  138.2019  155.3536 C   0  0  0  0  0  0  0  0  0  0  0  0
  151.1697  139.1233  154.8576 C   0  0  2  0  0  0  0  0  0  0  0  0
  151.0822  140.2242  155.7586 O   0  0  0  0  0  0  0  0  0  0  0  0
  149.7418  140.6811  155.7934 C   0  0  0  0  0  0  0  0  0  0  0  0
  148.9540  139.3804  155.7759 C   0  0  0  0  0  0  0  0  0  0  0  0
  149.7397  138.5145  154.7944 C   0  0  1  0  0  0  0  0  0  0  0  0
  149.2276  138.7596  153.4945 O   0  0  0  0  0  0  0  0  0  0  0  0
  149.6222  136.9932  155.0768 C   0  0  0  0  0  0  0  0  0  0  0  0
  149.4038  136.6803  156.4815 N   0  0  0  0  0  0  0  0  0  0  0  0
  150.3407  136.2170  157.3760 C   0  0  0  0  0  0  0  0  0  0  0  0
  149.8974  136.0034  158.5838 N   0  0  0  0  0  0  0  0  0  0  0  0
  148.5543  136.3584  158.5280 C   0  0  0  0  0  0  0  0  0  0  0  0
  147.4840  136.3728  159.4702 C   0  0  0  0  0  0  0  0  0  0  0  0
  147.6059  135.9903  160.7715 N   0  0  0  0  0  0  0  0  0  0  0  0
  147.2094  136.8813  161.8525 C   0  0  2  0  0  0  0  0  0  0  0  0
  147.7202  136.1339  163.0964 C   0  0  0  0  0  0  0  0  0  0  0  0
  147.5057  134.6718  162.6779 C   0  0  0  0  0  0  0  0  0  0  0  0
  146.8657  134.8457  161.2874 C   0  0  1  0  0  0  0  0  0  0  0  0
  145.4124  135.3780  161.3928 C   0  0  1  0  0  0  0  0  0  0  0  0
  144.4529  134.5707  162.2866 C   0  0  0  0  0  0  0  0  0  0  0  0
  143.1925  135.2044  162.3363 O   0  0  0  0  0  0  0  0  0  0  0  0
  145.6678  136.8301  161.8393 C   0  0  0  0  0  0  0  0  0  0  0  0
  146.2639  136.7662  159.0157 N   0  0  0  0  0  0  0  0  0  0  0  0
  146.1017  137.1503  157.7470 C   0  0  0  0  0  0  0  0  0  0  0  0
  147.0077  137.2037  156.7705 N   0  0  0  0  0  0  0  0  0  0  0  0
  148.2298  136.7865  157.2077 C   0  0  0  0  0  0  0  0  0  0  0  0
  152.4225  137.3391  154.7000 H   0  0  0  0  0  0  0  0  0  0  0  0
  152.1022  137.8410  156.3640 H   0  0  0  0  0  0  0  0  0  0  0  0
  153.2454  138.7358  155.3754 H   0  0  0  0  0  0  0  0  0  0  0  0
  151.4569  139.5201  153.8819 H   0  0  0  0  0  0  0  0  0  0  0  0
  149.5446  141.2837  156.6802 H   0  0  0  0  0  0  0  0  0  0  0  0
  149.5312  141.2838  154.9085 H   0  0  0  0  0  0  0  0  0  0  0  0
  148.9885  138.9419  156.7737 H   0  0  0  0  0  0  0  0  0  0  0  0
  147.9049  139.5144  155.5076 H   0  0  0  0  0  0  0  0  0  0  0  0
  149.0062  137.9307  153.0985 H   0  0  0  0  0  0  0  0  0  0  0  0
  148.8010  136.5621  154.5028 H   0  0  0  0  0  0  0  0  0  0  0  0
  150.5267  136.4740  154.7592 H   0  0  0  0  0  0  0  0  0  0  0  0
  151.3692  136.0334  157.1010 H   0  0  0  0  0  0  0  0  0  0  0  0
  147.6042  137.8942  161.8039 H   0  0  0  0  0  0  0  0  0  0  0  0
  148.7794  136.3324  163.2652 H   0  0  0  0  0  0  0  0  0  0  0  0
  147.1758  136.4016  164.0027 H   0  0  0  0  0  0  0  0  0  0  0  0
  148.4659  134.1614  162.5913 H   0  0  0  0  0  0  0  0  0  0  0  0
  146.8976  134.1043  163.3808 H   0  0  0  0  0  0  0  0  0  0  0  0
  146.9489  133.9429  160.6813 H   0  0  0  0  0  0  0  0  0  0  0  0
  144.9897  135.3942  160.3866 H   0  0  0  0  0  0  0  0  0  0  0  0
  144.3200  133.5652  161.8870 H   0  0  0  0  0  0  0  0  0  0  0  0
  144.8327  134.4735  163.3035 H   0  0  0  0  0  0  0  0  0  0  0  0
  143.1089  135.6434  163.1690 H   0  0  0  0  0  0  0  0  0  0  0  0
  145.2359  137.0679  162.8121 H   0  0  0  0  0  0  0  0  0  0  0  0
  145.2580  137.5311  161.1110 H   0  0  0  0  0  0  0  0  0  0  0  0
  145.1024  137.4575  157.4759 H   0  0  0  0  0  0  0  0  0  0  0  0
  1  2  1  0  0  0  0
  1 27  1  0  0  0  0
  1 28  1  0  0  0  0
  1 29  1  0  0  0  0
  2  6  1  0  0  0  0
  2  3  1  0  0  0  0
  2 30  1  0  0  0  0
  3  4  1  0  0  0  0
  4  5  1  0  0  0  0
  4 31  1  0  0  0  0
  4 32  1  0  0  0  0
  5  6  1  0  0  0  0
  5 33  1  0  0  0  0
  5 34  1  0  0  0  0
  6  7  1  0  0  0  0
  6  8  1  0  0  0  0
  7 35  1  0  0  0  0
  8  9  1  0  0  0  0
  8 36  1  0  0  0  0
  8 37  1  0  0  0  0
  9 26  1  0  0  0  0
  9 10  1  0  0  0  0
 10 11  2  0  0  0  0
 10 38  1  0  0  0  0
 11 12  1  0  0  0  0
 12 26  2  0  0  0  0
 12 13  1  0  0  0  0
 13 14  1  0  0  0  0
 13 23  2  0  0  0  0
 14 18  1  0  0  0  0
 14 15  1  0  0  0  0
 15 22  1  0  0  0  0
 15 16  1  0  0  0  0
 15 39  1  0  0  0  0
 16 17  1  0  0  0  0
 16 40  1  0  0  0  0
 16 41  1  0  0  0  0
 17 18  1  0  0  0  0
 17 42  1  0  0  0  0
 17 43  1  0  0  0  0
 18 19  1  0  0  0  0
 18 44  1  0  0  0  0
 19 20  1  0  0  0  0
 19 22  1  0  0  0  0
 19 45  1  0  0  0  0
 20 21  1  0  0  0  0
 20 46  1  0  0  0  0
 20 47  1  0  0  0  0
 21 48  1  0  0  0  0
 22 49  1  0  0  0  0
 22 50  1  0  0  0  0
 23 24  1  0  0  0  0
 24 25  2  0  0  0  0
 24 51  1  0  0  0  0
 25 26  1  0  0  0  0
M  END
> <s_m_source_file>
AV-unprocessed.smi

> <i_m_source_file_index>
199

> <i_lp_mmshare_version>
43012

> <i_f3d_flags>
0

> <s_epik_input>
W0NIMl0xW0NIMl1PW0NAQEhdKFtDSDNdKVtDQEBdMShbT0hdKVtDSDJdbihbY0hdbjIpYyhjMjMpbltjSF1uYzNOKFtDQEBIXTQ1KVtDQEhdKFtDSDJdW0NIMl00KVtDQEhdKFtDSDJdNSlbQ0gyXVtPSF0=

> <s_epik_cmdline>
J2VwaWtfcHl0aG9uJywgJy1waCcsICc3LjAnLCAnLXRuJywgJzgnLCAnLW1hJywgJzIwMCcsICctbWV0YWxfYmluZGluZycsICctaW1hZScsICc8aW5maWxlLm1hZT4nLCAnLW9tYWUnLCAnPG91dGZpbGUubWFlPic=

> <r_lp_tautomer_probability>
1

> <r_epik_Ionization_Penalty>
0.00583903

> <r_epik_Ionization_Penalty_Charging>
0

> <r_epik_Ionization_Penalty_Neutral>
0.00583903

> <r_epik_State_Penalty>
-0

> <r_epik_Charging_Adjusted_Penalty>
0

> <i_epik_Tot_Q>
0

> <i_epik_Tot_abs_Q>
0

> <r_epik_Metal_State_Penalty>
-0

> <b_epik_Metal_Only>
0

> <s_lp_Force_Field>
OPLS_2005

> <r_lp_Energy>
84.0593

> <b_lp_Chiralities_Consistent>
1

> <s_lp_Variant>
AV-unprocessed.smi:199-5

> <Gold.Version>
5.8.1

> <Gold.Id.Protein>
6NUR|6NUR_protein|mol2

> <Gold.PLP.Fitness>
40.3358

> <Gold.PLP.PLP>
-36.0356

> <Gold.PLP.part.hbond>
-3.0206

> <Gold.PLP.part.metal>
0.0000

> <Gold.PLP.part.buried>
-5.6823

> <Gold.PLP.part.nonpolar>
-27.6073

> <Gold.PLP.part.repulsive>
0.0036

> <Gold.PLP.ligand.clash>
0.0000

> <Gold.PLP.ligand.torsion>
0.8562

> <Gold.PLP.Chemscore.Hbond>
2.0000

> <Gold.PLP.Chemscore.CHOScore>
0.0000

> <Gold.PLP.Chemscore.Metal>
0.0000

> <Gold.Chemscore.Hbonds>
donor molecule, donor type, donor heavy atom, donor atom, acceptor molecule, acceptor atom, score
      L1  H     7    35       P1  7948  0.89
      P1  H  6896  6908       L1    11  1.00

> <Gold.PLP.Chemscore.Internal.Correction>
0.0126

> <Gold.Rescore>
     Score         DG    S(hbond)    S(metal)    S(lipo)     H(rot)  DE(clash)    DE(int)     intcor
     11.20     -14.70       1.93        0.00      91.04       3.07       0.03       3.46       ----

> <Gold.Chemscore.Fitness>
11.1999

> <Gold.Chemscore.DG>
-14.6958

> <Gold.Chemscore.ZeroCoef>
-5.4800

> <Gold.Chemscore.Hbond>
1.9253

> <Gold.Chemscore.Metal>
0.0000

> <Gold.Chemscore.Lipo>
91.0416

> <Gold.Chemscore.Internal_Hbond>
0.0000

> <Gold.Chemscore.DEClash>
0.0341

> <Gold.Chemscore.DEInternal>
3.4618

> <Gold.Chemscore.Rot>
3.0729

> <Gold.Chemscore.Internal.Correction>
   9.000000E+99

> <Gold.Chemscore.Hbonds>
donor molecule, donor type, donor heavy atom, donor atom, acceptor molecule, acceptor atom, score
      L1  H     7    35       P1  7948  0.85
      P1  H  6896  6908       L1    11  0.91

> <Gold.Chemscore.Hbond.Weighted>
-6.4306

> <Gold.Chemscore.Metal.Weighted>
-0.0000

> <Gold.Chemscore.Lipo.Weighted>
-10.6519

> <Gold.Chemscore.Internal_Hbond.Weighted>
0.0000

> <Gold.Chemscore.DEClash.Weighted>
0.0341

> <Gold.Chemscore.DEInternal.Weighted>
3.4618

> <Gold.Chemscore.Rot.Weighted>
7.8667

> <Gold.Chemscore.Internal.Correction.Weighted>
   9.000000E+99

> <Gold.Protein.RotatedTorsions>
[ 6907 6896 6895 6894 ] final  172.41 input  -60.11 | X-H torsion
[ 7974 7965 7964 7962 ] final  -44.35 input  175.53 | X-H torsion
[ 8008 7997 7996 7995 ] final  -38.82 input   59.86 | X-H torsion
[ 10167 10162 10161 10158 ] final  131.01 input  -65.29 | X-H torsion
[ 10718 10713 10712 10709 ] final  -27.37 input   66.30 | X-H torsion
[ 10763 10752 10751 10750 ] final   80.19 input  -60.55 | X-H torsion
[ 11005 11000 10999 10996 ] final  -84.27 input  -57.11 | X-H torsion

> <Gold.Protein.ActiveResidues>
 VAL166  LYS551  ARG553  GLY616  TRP617  ASP618  TYR619  PRO620  LYS621  CYS622 
 ASP623  PHE694  ASN695  SER759  ASP760  ASP761  ALA762  ILE779  LEU786  VAL792 
 PHE793  MET794  SER795  GLU796  ALA797  LYS798  CYS799  TRP800  GLU811  SER814 

> <Gold.Protein.RotatedAtoms>
  151.7848  133.3353  159.3481 H   0  0  0  0  0  0  0  0  0  0  0  0  # atno 6907 bound_to 6896
  150.7413  134.5897  159.5991 H   0  0  0  0  0  0  0  0  0  0  0  0  # atno 6908 bound_to 6896
  152.3251  134.7332  160.0355 H   0  0  0  0  0  0  0  0  0  0  0  0  # atno 6909 bound_to 6896
  145.9929  140.7161  142.9308 H   0  0  0  0  0  0  0  0  0  0  0  0  # atno 7974 bound_to 7965
  154.4031  140.1568  156.2762 H   0  0  0  0  0  0  0  0  0  0  0  0  # atno 8008 bound_to 7997
  155.8909  140.3438  155.5934 H   0  0  0  0  0  0  0  0  0  0  0  0  # atno 8009 bound_to 7997
  155.7559  140.0811  157.2169 H   0  0  0  0  0  0  0  0  0  0  0  0  # atno 8010 bound_to 7997
  139.5403  144.6724  151.4645 H   0  0  0  0  0  0  0  0  0  0  0  0  # atno 10167 bound_to 10162
  156.4391  130.4460  149.7065 H   0  0  0  0  0  0  0  0  0  0  0  0  # atno 10718 bound_to 10713
  153.1013  135.4812  154.8872 H   0  0  0  0  0  0  0  0  0  0  0  0  # atno 10763 bound_to 10752
  154.7382  135.3076  154.8777 H   0  0  0  0  0  0  0  0  0  0  0  0  # atno 10764 bound_to 10752
  153.9393  135.6836  153.4798 H   0  0  0  0  0  0  0  0  0  0  0  0  # atno 10765 bound_to 10752
  141.1652  133.7337  156.8843 H   0  0  0  0  0  0  0  0  0  0  0  0  # atno 11005 bound_to 11000
  144.6894  140.3100  143.7249 LP  0  0  0  0  0  0  0  0  0  0  0  0  # atno 17320 bound_to 7965
  145.7604  139.1822  143.2270 LP  0  0  0  0  0  0  0  0  0  0  0  0  # atno 17321 bound_to 7965
  140.6630  143.8457  150.6910 LP  0  0  0  0  0  0  0  0  0  0  0  0  # atno 17342 bound_to 10162
  140.1858  143.4077  152.1900 LP  0  0  0  0  0  0  0  0  0  0  0  0  # atno 17343 bound_to 10162
  156.3937  130.7640  151.2643 LP  0  0  0  0  0  0  0  0  0  0  0  0  # atno 17370 bound_to 10713
  157.7507  131.0260  150.3944 LP  0  0  0  0  0  0  0  0  0  0  0  0  # atno 17371 bound_to 10713
  140.1693  134.9111  157.2813 LP  0  0  0  0  0  0  0  0  0  0  0  0  # atno 17394 bound_to 11000
  140.2521  134.3671  155.7438 LP  0  0  0  0  0  0  0  0  0  0  0  0  # atno 17395 bound_to 11000

$$$$
