AV-unprocessed.smi:1534|AV-procd|sdf|6167|dock9
  -GOLD-   22720 6313D 1   1.00000     0.00000
 Structure written by MMmdl.
 36 37  0  0  0  0  0  0  0  0  1 V2000
  152.9566  139.3284  157.5905 O   0  0  0  0  0  0  0  0  0  0  0  0
  152.4318  139.2243  158.6974 C   0  0  0  0  0  0  0  0  0  0  0  0
  152.8723  139.8719  159.7893 N   0  0  0  0  0  0  0  0  0  0  0  0
  154.0486  140.7317  159.8350 C   0  0  0  0  0  0  0  0  0  0  0  0
  153.8622  141.8777  160.8432 C   0  0  0  0  0  0  0  0  0  0  0  0
  152.9859  142.9894  160.2988 C   0  0  0  0  0  0  0  0  0  0  0  0
  153.2211  143.5300  159.0165 C   0  0  0  0  0  0  0  0  0  0  0  0
  152.3787  144.5614  158.5585 C   0  0  0  0  0  0  0  0  0  0  0  0
  151.3378  145.0086  159.3949 C   0  0  0  0  0  0  0  0  0  0  0  0
  151.1849  144.4017  160.6575 C   0  0  0  0  0  0  0  0  0  0  0  0
  151.9877  143.4128  161.1068 N   0  0  0  0  0  0  0  0  0  0  0  0
  151.3614  138.4365  158.9034 N   0  0  0  0  0  0  0  0  0  0  0  0
  150.6488  137.6069  157.9305 C   0  0  1  0  0  0  0  0  0  0  0  0
  151.6037  136.5949  157.2699 C   0  0  0  0  0  0  0  0  0  0  0  0
  150.7726  135.5260  156.5495 C   0  0  0  0  0  0  0  0  0  0  0  0
  149.2102  135.3705  157.4951 S   0  0  0  0  0  0  0  0  0  0  0  0
  148.0809  135.6573  156.5978 O   0  0  0  0  0  0  0  0  0  0  0  0
  149.2417  134.1439  158.3057 O   0  0  0  0  0  0  0  0  0  0  0  0
  149.5042  136.8133  158.5839 C   0  0  0  0  0  0  0  0  0  0  0  0
  152.3741  139.7358  160.6567 H   0  0  0  0  0  0  0  0  0  0  0  0
  154.9359  140.1455  160.0804 H   0  0  0  0  0  0  0  0  0  0  0  0
  154.2094  141.1363  158.8352 H   0  0  0  0  0  0  0  0  0  0  0  0
  153.4168  141.4965  161.7634 H   0  0  0  0  0  0  0  0  0  0  0  0
  154.8309  142.2943  161.1227 H   0  0  0  0  0  0  0  0  0  0  0  0
  154.0274  143.1645  158.3975 H   0  0  0  0  0  0  0  0  0  0  0  0
  152.5282  145.0010  157.5835 H   0  0  0  0  0  0  0  0  0  0  0  0
  150.6724  145.7974  159.0767 H   0  0  0  0  0  0  0  0  0  0  0  0
  150.3968  144.7191  161.3243 H   0  0  0  0  0  0  0  0  0  0  0  0
  150.9850  138.4308  159.8405 H   0  0  0  0  0  0  0  0  0  0  0  0
  150.2374  138.2353  157.1383 H   0  0  0  0  0  0  0  0  0  0  0  0
  152.3034  137.0817  156.5898 H   0  0  0  0  0  0  0  0  0  0  0  0
  152.2000  136.1070  158.0426 H   0  0  0  0  0  0  0  0  0  0  0  0
  150.5223  135.8473  155.5383 H   0  0  0  0  0  0  0  0  0  0  0  0
  151.2772  134.5615  156.4932 H   0  0  0  0  0  0  0  0  0  0  0  0
  149.7965  136.4343  159.5639 H   0  0  0  0  0  0  0  0  0  0  0  0
  148.5857  137.3902  158.6948 H   0  0  0  0  0  0  0  0  0  0  0  0
  1  2  2  0  0  0  0
  2  3  1  0  0  0  0
  2 12  1  0  0  0  0
  3  4  1  0  0  0  0
  3 20  1  0  0  0  0
  4  5  1  0  0  0  0
  4 21  1  0  0  0  0
  4 22  1  0  0  0  0
  5  6  1  0  0  0  0
  5 23  1  0  0  0  0
  5 24  1  0  0  0  0
  6 11  1  0  0  0  0
  6  7  2  0  0  0  0
  7  8  1  0  0  0  0
  7 25  1  0  0  0  0
  8  9  2  0  0  0  0
  8 26  1  0  0  0  0
  9 10  1  0  0  0  0
  9 27  1  0  0  0  0
 10 11  2  0  0  0  0
 10 28  1  0  0  0  0
 12 13  1  0  0  0  0
 12 29  1  0  0  0  0
 13 19  1  0  0  0  0
 13 14  1  0  0  0  0
 13 30  1  0  0  0  0
 14 15  1  0  0  0  0
 14 31  1  0  0  0  0
 14 32  1  0  0  0  0
 15 16  1  0  0  0  0
 15 33  1  0  0  0  0
 15 34  1  0  0  0  0
 16 17  2  0  0  0  0
 16 18  2  0  0  0  0
 16 19  1  0  0  0  0
 19 35  1  0  0  0  0
 19 36  1  0  0  0  0
M  END
> <s_m_source_file>
AV-unprocessed.smi

> <i_m_source_file_index>
1534

> <i_lp_mmshare_version>
43012

> <i_f3d_flags>
0

> <s_epik_input>
Tz1TMSg9TylbQ0gyXVtDSDJdW0NASF0oW0NIMl0xKVtOSF1DKD1PKVtOSF1bQ0gyXVtDSDJdYzJbY0hdW2NIXVtjSF1bY0hdbjI=

> <s_epik_cmdline>
J2VwaWtfcHl0aG9uJywgJy1waCcsICc3LjAnLCAnLXRuJywgJzgnLCAnLW1hJywgJzIwMCcsICctbWV0YWxfYmluZGluZycsICctaW1hZScsICc8aW5maWxlLm1hZT4nLCAnLW9tYWUnLCAnPG91dGZpbGUubWFlPic=

> <r_epik_Ionization_Penalty>
0.0423605

> <r_epik_Ionization_Penalty_Charging>
0

> <r_epik_Ionization_Penalty_Neutral>
0.0423605

> <r_epik_State_Penalty>
0.0357408

> <r_epik_Charging_Adjusted_Penalty>
0.0357408

> <i_epik_Tot_Q>
0

> <i_epik_Tot_abs_Q>
0

> <r_epik_Metal_State_Penalty>
0.033344

> <b_epik_Metal_Only>
0

> <s_lp_Force_Field>
OPLS_2005

> <r_lp_Energy>
9.82399

> <b_lp_Chiralities_Consistent>
1

> <s_lp_Variant>
AV-unprocessed.smi:1534-2

> <Gold.Version>
5.8.1

> <Gold.Id.Protein>
6NUR|6NUR_protein|mol2

> <Gold.PLP.Fitness>
41.3099

> <Gold.PLP.PLP>
-36.0543

> <Gold.PLP.part.hbond>
-2.0000

> <Gold.PLP.part.metal>
0.0000

> <Gold.PLP.part.buried>
-5.9075

> <Gold.PLP.part.nonpolar>
-28.9793

> <Gold.PLP.part.repulsive>
0.3604

> <Gold.PLP.ligand.clash>
0.0000

> <Gold.PLP.ligand.torsion>
0.3807

> <Gold.PLP.Chemscore.Hbond>
2.0000

> <Gold.PLP.Chemscore.CHOScore>
0.0000

> <Gold.PLP.Chemscore.Metal>
0.0000

> <Gold.Chemscore.Hbonds>
donor molecule, donor type, donor heavy atom, donor atom, acceptor molecule, acceptor atom, score
      P1  H  6896  6908       L1    18  1.00
      P1  H  7997  8009       L1     1  1.00

> <Gold.PLP.Chemscore.Internal.Correction>
0.0170

> <Gold.Rescore>
     Score         DG    S(hbond)    S(metal)    S(lipo)     H(rot)  DE(clash)    DE(int)     intcor
     18.86     -19.25       1.97        0.00      99.48       1.73       0.05       0.34       ----

> <Gold.Chemscore.Fitness>
18.8612

> <Gold.Chemscore.DG>
-19.2474

> <Gold.Chemscore.ZeroCoef>
-5.4800

> <Gold.Chemscore.Hbond>
1.9670

> <Gold.Chemscore.Metal>
0.0000

> <Gold.Chemscore.Lipo>
99.4764

> <Gold.Chemscore.Internal_Hbond>
0.0000

> <Gold.Chemscore.DEClash>
0.0481

> <Gold.Chemscore.DEInternal>
0.3381

> <Gold.Chemscore.Rot>
1.7348

> <Gold.Chemscore.Internal.Correction>
   9.000000E+99

> <Gold.Chemscore.Hbonds>
donor molecule, donor type, donor heavy atom, donor atom, acceptor molecule, acceptor atom, score
      P1  H  6896  6908       L1    18  0.85
      P1  H  7997  8009       L1     1  1.00

> <Gold.Chemscore.Hbond.Weighted>
-6.5696

> <Gold.Chemscore.Metal.Weighted>
-0.0000

> <Gold.Chemscore.Lipo.Weighted>
-11.6387

> <Gold.Chemscore.Internal_Hbond.Weighted>
0.0000

> <Gold.Chemscore.DEClash.Weighted>
0.0481

> <Gold.Chemscore.DEInternal.Weighted>
0.3381

> <Gold.Chemscore.Rot.Weighted>
4.4410

> <Gold.Chemscore.Internal.Correction.Weighted>
   9.000000E+99

> <Gold.Protein.RotatedTorsions>
[ 6907 6896 6895 6894 ] final  135.16 input  -60.11 | X-H torsion
[ 7974 7965 7964 7962 ] final -124.29 input  175.53 | X-H torsion
[ 8008 7997 7996 7995 ] final  159.39 input   59.86 | X-H torsion
[ 10167 10162 10161 10158 ] final -106.40 input  -65.29 | X-H torsion
[ 10718 10713 10712 10709 ] final   27.98 input   66.30 | X-H torsion
[ 10763 10752 10751 10750 ] final  159.59 input  -60.55 | X-H torsion
[ 11005 11000 10999 10996 ] final  -68.83 input  -57.11 | X-H torsion

> <Gold.Protein.ActiveResidues>
 VAL166  LYS551  ARG553  GLY616  TRP617  ASP618  TYR619  PRO620  LYS621  CYS622 
 ASP623  PHE694  ASN695  SER759  ASP760  ASP761  ALA762  ILE779  LEU786  VAL792 
 PHE793  MET794  SER795  GLU796  ALA797  LYS798  CYS799  TRP800  GLU811  SER814 

> <Gold.Protein.RotatedAtoms>
  152.3035  133.5679  159.5633 H   0  0  0  0  0  0  0  0  0  0  0  0  # atno 6907 bound_to 6896
  150.7289  134.0257  159.3725 H   0  0  0  0  0  0  0  0  0  0  0  0  # atno 6908 bound_to 6896
  151.8155  135.0668  160.0469 H   0  0  0  0  0  0  0  0  0  0  0  0  # atno 6909 bound_to 6896
  145.0096  140.7894  143.4446 H   0  0  0  0  0  0  0  0  0  0  0  0  # atno 7974 bound_to 7965
  156.2241  140.1832  156.7405 H   0  0  0  0  0  0  0  0  0  0  0  0  # atno 8008 bound_to 7997
  154.5913  140.0650  156.9271 H   0  0  0  0  0  0  0  0  0  0  0  0  # atno 8009 bound_to 7997
  155.2331  140.3316  155.4303 H   0  0  0  0  0  0  0  0  0  0  0  0  # atno 8010 bound_to 7997
  140.1881  143.3913  152.1228 H   0  0  0  0  0  0  0  0  0  0  0  0  # atno 10167 bound_to 10162
  157.2274  130.7007  149.6297 H   0  0  0  0  0  0  0  0  0  0  0  0  # atno 10718 bound_to 10713
  154.2342  135.2777  155.2878 H   0  0  0  0  0  0  0  0  0  0  0  0  # atno 10763 bound_to 10752
  154.5599  135.5650  153.7001 H   0  0  0  0  0  0  0  0  0  0  0  0  # atno 10764 bound_to 10752
  153.0013  135.6295  154.2484 H   0  0  0  0  0  0  0  0  0  0  0  0  # atno 10765 bound_to 10752
  141.1541  133.6750  156.6506 H   0  0  0  0  0  0  0  0  0  0  0  0  # atno 11005 bound_to 11000
  145.2041  139.2237  143.5177 LP  0  0  0  0  0  0  0  0  0  0  0  0  # atno 17320 bound_to 7965
  146.3467  140.1865  142.8589 LP  0  0  0  0  0  0  0  0  0  0  0  0  # atno 17321 bound_to 7965
  139.5267  144.7111  151.5203 LP  0  0  0  0  0  0  0  0  0  0  0  0  # atno 17342 bound_to 10162
  140.6474  143.8766  150.6751 LP  0  0  0  0  0  0  0  0  0  0  0  0  # atno 17343 bound_to 10162
  155.9678  130.4500  150.5680 LP  0  0  0  0  0  0  0  0  0  0  0  0  # atno 17370 bound_to 10713
  157.3514  131.0734  151.1710 LP  0  0  0  0  0  0  0  0  0  0  0  0  # atno 17371 bound_to 10713
  140.3323  134.7918  157.4336 LP  0  0  0  0  0  0  0  0  0  0  0  0  # atno 17394 bound_to 11000
  140.1006  134.5477  155.8356 LP  0  0  0  0  0  0  0  0  0  0  0  0  # atno 17395 bound_to 11000

$$$$
