AV-unprocessed.smi:1712|AV-procd|sdf|6901|dock5
  -GOLD-   22720 8103D 1   1.00000     0.00000
 Structure written by MMmdl.
 37 38  0  0  0  0  0  0  0  0  1 V2000
  146.5870  138.1093  155.3751 C   0  0  0  0  0  0  0  0  0  0  0  0
  147.3420  139.3496  154.8457 C   0  0  2  0  0  0  0  0  0  0  0  0
  147.0941  139.4591  153.3186 C   0  0  0  0  0  0  0  0  0  0  0  0
  147.0682  138.1511  152.6664 N   0  0  0  0  0  0  0  0  0  0  0  0
  145.9671  137.4442  152.3758 C   0  0  0  0  0  0  0  0  0  0  0  0
  144.8228  137.8321  152.6129 O   0  0  0  0  0  0  0  0  0  0  0  0
  146.2801  136.2687  151.8067 N   0  0  0  0  0  0  0  0  0  0  0  0
  145.3858  135.2670  151.3523 C   0  0  0  0  0  0  0  0  0  0  0  0
  145.6877  133.8794  151.2935 C   0  0  0  0  0  0  0  0  0  0  0  0
  144.6643  133.1809  150.8226 N   0  0  0  0  0  0  0  0  0  0  0  0
  143.7122  134.1098  150.5794 N   0  0  0  0  0  0  0  0  0  0  0  0
  144.1068  135.3934  150.8871 C   0  0  0  0  0  0  0  0  0  0  0  0
  148.7710  139.3772  155.2283 N   0  0  0  0  0  0  0  0  0  0  0  0
  149.6033  138.5354  154.3636 C   0  0  0  0  0  0  0  0  0  0  0  0
  151.0907  138.5766  154.7542 C   0  0  0  0  0  0  0  0  0  0  0  0
  151.5559  139.9195  154.7259 O   0  0  0  0  0  0  0  0  0  0  0  0
  150.8184  140.7617  155.6021 C   0  0  0  0  0  0  0  0  0  0  0  0
  149.3290  140.7328  155.2176 C   0  0  0  0  0  0  0  0  0  0  0  0
  142.8083  133.8556  150.2068 H   0  0  0  0  0  0  0  0  0  0  0  0
  145.5742  138.0626  154.9743 H   0  0  0  0  0  0  0  0  0  0  0  0
  146.4832  138.1247  156.4596 H   0  0  0  0  0  0  0  0  0  0  0  0
  147.0929  137.1835  155.0989 H   0  0  0  0  0  0  0  0  0  0  0  0
  146.8584  140.2180  155.2955 H   0  0  0  0  0  0  0  0  0  0  0  0
  146.1684  140.0057  153.1312 H   0  0  0  0  0  0  0  0  0  0  0  0
  147.8634  140.0640  152.8400 H   0  0  0  0  0  0  0  0  0  0  0  0
  147.9644  137.7446  152.4410 H   0  0  0  0  0  0  0  0  0  0  0  0
  147.2622  136.0683  151.6865 H   0  0  0  0  0  0  0  0  0  0  0  0
  146.5971  133.3666  151.5709 H   0  0  0  0  0  0  0  0  0  0  0  0
  143.4599  136.2466  150.7480 H   0  0  0  0  0  0  0  0  0  0  0  0
  149.2816  137.4965  154.4147 H   0  0  0  0  0  0  0  0  0  0  0  0
  149.4933  138.8496  153.3245 H   0  0  0  0  0  0  0  0  0  0  0  0
  151.2409  138.1518  155.7481 H   0  0  0  0  0  0  0  0  0  0  0  0
  151.6821  137.9807  154.0589 H   0  0  0  0  0  0  0  0  0  0  0  0
  150.9573  140.4364  156.6345 H   0  0  0  0  0  0  0  0  0  0  0  0
  151.2079  141.7774  155.5311 H   0  0  0  0  0  0  0  0  0  0  0  0
  149.2019  141.1769  154.2291 H   0  0  0  0  0  0  0  0  0  0  0  0
  148.7973  141.3712  155.9214 H   0  0  0  0  0  0  0  0  0  0  0  0
  1  2  1  0  0  0  0
  1 20  1  0  0  0  0
  1 21  1  0  0  0  0
  1 22  1  0  0  0  0
  2  3  1  0  0  0  0
  2 13  1  0  0  0  0
  2 23  1  0  0  0  0
  3  4  1  0  0  0  0
  3 24  1  0  0  0  0
  3 25  1  0  0  0  0
  4  5  1  0  0  0  0
  4 26  1  0  0  0  0
  5  6  2  0  0  0  0
  5  7  1  0  0  0  0
  7  8  1  0  0  0  0
  7 27  1  0  0  0  0
  8 12  2  0  0  0  0
  8  9  1  0  0  0  0
  9 10  2  0  0  0  0
  9 28  1  0  0  0  0
 10 11  1  0  0  0  0
 11 19  1  0  0  0  0
 11 12  1  0  0  0  0
 12 29  1  0  0  0  0
 13 18  1  0  0  0  0
 13 14  1  0  0  0  0
 14 15  1  0  0  0  0
 14 30  1  0  0  0  0
 14 31  1  0  0  0  0
 15 16  1  0  0  0  0
 15 32  1  0  0  0  0
 15 33  1  0  0  0  0
 16 17  1  0  0  0  0
 17 18  1  0  0  0  0
 17 34  1  0  0  0  0
 17 35  1  0  0  0  0
 18 36  1  0  0  0  0
 18 37  1  0  0  0  0
M  END
> <s_m_source_file>
AV-unprocessed.smi

> <i_m_source_file_index>
1712

> <i_lp_mmshare_version>
43012

> <i_f3d_flags>
0

> <s_epik_input>
W0NIMl0xW0NIMl1PW0NIMl1bQ0gyXU4xW0NASF0oW0NIM10pW0NIMl1bTkhdQyg9TylbTkhdYzJbY0hdbltuSF1bY0hdMg==

> <s_epik_cmdline>
J2VwaWtfcHl0aG9uJywgJy1waCcsICc3LjAnLCAnLXRuJywgJzgnLCAnLW1hJywgJzIwMCcsICctbWV0YWxfYmluZGluZycsICctaW1hZScsICc8aW5maWxlLm1hZT4nLCAnLW9tYWUnLCAnPG91dGZpbGUubWFlPic=

> <r_lp_tautomer_probability>
0.5

> <r_epik_Ionization_Penalty>
0.242772

> <r_epik_Ionization_Penalty_Charging>
0

> <r_epik_Ionization_Penalty_Neutral>
0.242772

> <r_epik_State_Penalty>
0.233765

> <r_epik_Charging_Adjusted_Penalty>
0.233765

> <i_epik_Tot_Q>
0

> <i_epik_Tot_abs_Q>
0

> <r_epik_Metal_State_Penalty>
0.233764

> <b_epik_Metal_Only>
0

> <s_lp_Force_Field>
OPLS_2005

> <r_lp_Energy>
36.7302

> <b_lp_Chiralities_Consistent>
1

> <s_lp_Variant>
AV-unprocessed.smi:1712-1

> <Gold.Version>
5.8.1

> <Gold.Id.Protein>
6NUR|6NUR_protein|mol2

> <Gold.PLP.Fitness>
39.0952

> <Gold.PLP.PLP>
-26.1923

> <Gold.PLP.part.hbond>
-3.9768

> <Gold.PLP.part.metal>
0.0000

> <Gold.PLP.part.buried>
-5.9419

> <Gold.PLP.part.nonpolar>
-19.5863

> <Gold.PLP.part.repulsive>
2.8898

> <Gold.PLP.ligand.clash>
0.0000

> <Gold.PLP.ligand.torsion>
0.9951

> <Gold.PLP.Chemscore.Hbond>
3.9520

> <Gold.PLP.Chemscore.CHOScore>
1.0000

> <Gold.PLP.Chemscore.Metal>
0.0000

> <Gold.Chemscore.Hbonds>
donor molecule, donor type, donor heavy atom, donor atom, acceptor molecule, acceptor atom, score
      L1  H     4    26       P1  7948  0.98
      L1  H     7    27       P1  7948  1.00
      L1  H    11    19       P1 10186  0.98
      P1  H  7989  7998       L1    16  0.95
      L1  C    12    29       P1 10171  1.00

> <Gold.PLP.Chemscore.Internal.Correction>
0.0370

> <Gold.Rescore>
     Score         DG    S(hbond)    S(metal)    S(lipo)     H(rot)  DE(clash)    DE(int)     intcor
     17.34     -19.31       3.67        0.00      49.02       1.63       0.22       1.74       ----

> <Gold.Chemscore.Fitness>
17.3436

> <Gold.Chemscore.DG>
-19.3081

> <Gold.Chemscore.ZeroCoef>
-5.4800

> <Gold.Chemscore.Hbond>
3.6733

> <Gold.Chemscore.Metal>
0.0000

> <Gold.Chemscore.Lipo>
49.0180

> <Gold.Chemscore.Internal_Hbond>
0.0000

> <Gold.Chemscore.DEClash>
0.2213

> <Gold.Chemscore.DEInternal>
1.7432

> <Gold.Chemscore.Rot>
1.6311

> <Gold.Chemscore.Internal.Correction>
   9.000000E+99

> <Gold.Chemscore.Hbonds>
donor molecule, donor type, donor heavy atom, donor atom, acceptor molecule, acceptor atom, score
      L1  H     4    26       P1  7948  0.93
      L1  H     7    27       P1  7948  0.99
      L1  H    11    19       P1 10186  0.89
      P1  H  7989  7998       L1    16  0.20

> <Gold.Chemscore.Hbond.Weighted>
-12.2687

> <Gold.Chemscore.Metal.Weighted>
-0.0000

> <Gold.Chemscore.Lipo.Weighted>
-5.7351

> <Gold.Chemscore.Internal_Hbond.Weighted>
0.0000

> <Gold.Chemscore.DEClash.Weighted>
0.2213

> <Gold.Chemscore.DEInternal.Weighted>
1.7432

> <Gold.Chemscore.Rot.Weighted>
4.1757

> <Gold.Chemscore.Internal.Correction.Weighted>
   9.000000E+99

> <Gold.Protein.RotatedTorsions>
[ 6907 6896 6895 6894 ] final  114.27 input  -60.11 | X-H torsion
[ 7974 7965 7964 7962 ] final  108.33 input  175.53 | X-H torsion
[ 8008 7997 7996 7995 ] final -141.67 input   59.86 | X-H torsion
[ 10167 10162 10161 10158 ] final  173.19 input  -65.29 | X-H torsion
[ 10718 10713 10712 10709 ] final  -78.91 input   66.30 | X-H torsion
[ 10763 10752 10751 10750 ] final -139.33 input  -60.55 | X-H torsion
[ 11005 11000 10999 10996 ] final   60.39 input  -57.11 | X-H torsion

> <Gold.Protein.ActiveResidues>
 VAL166  LYS551  ARG553  GLY616  TRP617  ASP618  TYR619  PRO620  LYS621  CYS622 
 ASP623  PHE694  ASN695  SER759  ASP760  ASP761  ALA762  ILE779  LEU786  VAL792 
 PHE793  MET794  SER795  GLU796  ALA797  LYS798  CYS799  TRP800  GLU811  SER814 

> <Gold.Protein.RotatedAtoms>
  152.4812  133.8259  159.7077 H   0  0  0  0  0  0  0  0  0  0  0  0  # atno 6907 bound_to 6896
  150.8864  133.7293  159.2924 H   0  0  0  0  0  0  0  0  0  0  0  0  # atno 6908 bound_to 6896
  151.4780  135.1054  159.9822 H   0  0  0  0  0  0  0  0  0  0  0  0  # atno 6909 bound_to 6896
  145.2820  139.2629  143.3910 H   0  0  0  0  0  0  0  0  0  0  0  0  # atno 7974 bound_to 7965
  155.4816  140.0561  157.2966 H   0  0  0  0  0  0  0  0  0  0  0  0  # atno 8008 bound_to 7997
  154.4658  140.2018  156.0075 H   0  0  0  0  0  0  0  0  0  0  0  0  # atno 8009 bound_to 7997
  156.0971  140.3224  155.7897 H   0  0  0  0  0  0  0  0  0  0  0  0  # atno 8010 bound_to 7997
  139.5100  144.3289  152.0130 H   0  0  0  0  0  0  0  0  0  0  0  0  # atno 10167 bound_to 10162
  156.0105  130.4531  150.3568 H   0  0  0  0  0  0  0  0  0  0  0  0  # atno 10718 bound_to 10713
  154.8612  135.3586  154.5528 H   0  0  0  0  0  0  0  0  0  0  0  0  # atno 10763 bound_to 10752
  153.6146  135.7008  153.5338 H   0  0  0  0  0  0  0  0  0  0  0  0  # atno 10764 bound_to 10752
  153.3180  135.4159  155.1353 H   0  0  0  0  0  0  0  0  0  0  0  0  # atno 10765 bound_to 10752
  140.0235  134.6117  155.9605 H   0  0  0  0  0  0  0  0  0  0  0  0  # atno 11005 bound_to 11000
  146.3213  140.3290  142.8639 LP  0  0  0  0  0  0  0  0  0  0  0  0  # atno 17320 bound_to 7965
  144.9245  140.7905  143.5728 LP  0  0  0  0  0  0  0  0  0  0  0  0  # atno 17321 bound_to 7965
  140.2729  144.3944  150.6145 LP  0  0  0  0  0  0  0  0  0  0  0  0  # atno 17342 bound_to 10162
  140.6075  143.2168  151.6952 LP  0  0  0  0  0  0  0  0  0  0  0  0  # atno 17343 bound_to 10162
  157.1658  131.0356  151.2819 LP  0  0  0  0  0  0  0  0  0  0  0  0  # atno 17370 bound_to 10713
  157.4272  130.7470  149.6960 LP  0  0  0  0  0  0  0  0  0  0  0  0  # atno 17371 bound_to 10713
  141.1788  133.6543  156.4937 LP  0  0  0  0  0  0  0  0  0  0  0  0  # atno 17394 bound_to 11000
  140.4346  134.7071  157.4960 LP  0  0  0  0  0  0  0  0  0  0  0  0  # atno 17395 bound_to 11000

$$$$
