AV-unprocessed.smi:1050|AV-procd|sdf|4613|dock5
  -GOLD-   22720 3113D 1   1.00000     0.00000
 Structure written by MMmdl.
 48 49  0  0  0  0  0  0  0  0  1 V2000
  146.0430  136.3637  161.8242 C   0  0  0  0  0  0  0  0  0  0  0  0
  146.6713  136.8986  160.6642 O   0  0  0  0  0  0  0  0  0  0  0  0
  147.1522  136.0181  159.7172 C   0  0  0  0  0  0  0  0  0  0  0  0
  147.0373  134.6371  159.9573 C   0  0  0  0  0  0  0  0  0  0  0  0
  147.5265  133.7391  158.9918 C   0  0  0  0  0  0  0  0  0  0  0  0
  148.1289  134.2471  157.8154 C   0  0  0  0  0  0  0  0  0  0  0  0
  148.6119  133.4099  156.7687 N   0  0  0  0  0  0  0  0  0  0  0  0
  149.2466  132.2267  156.8531 C   0  0  0  0  0  0  0  0  0  0  0  0
  149.5104  131.6474  157.9066 O   0  0  0  0  0  0  0  0  0  0  0  0
  149.6605  131.6004  155.5104 C   0  0  1  0  0  0  0  0  0  0  0  0
  150.3412  132.6279  154.5936 C   0  0  0  0  0  0  0  0  0  0  0  0
  150.5800  130.5320  155.7208 O   0  0  0  0  0  0  0  0  0  0  0  0
  151.1455  129.9764  154.5403 C   0  0  0  0  0  0  0  0  0  0  0  0
  148.1887  135.6567  157.6539 C   0  0  0  0  0  0  0  0  0  0  0  0
  148.7734  136.2206  156.5031 N   0  0  0  0  0  0  0  0  0  0  0  0
  150.2274  136.3569  156.5906 C   0  0  0  0  0  0  0  0  0  0  0  0
  150.8217  136.7483  155.2236 C   0  0  0  0  0  0  0  0  0  0  0  0
  150.1409  137.9540  154.7331 N   0  0  0  0  0  0  0  0  0  0  0  0
  150.7620  139.1509  154.6089 C   0  0  0  0  0  0  0  0  0  0  0  0
  152.2587  139.2516  154.9107 C   0  0  0  0  0  0  0  0  0  0  0  0
  150.1722  140.1731  154.2582 O   0  0  0  0  0  0  0  0  0  0  0  0
  148.7047  137.7124  154.5383 C   0  0  0  0  0  0  0  0  0  0  0  0
  148.0747  137.3556  155.8971 C   0  0  0  0  0  0  0  0  0  0  0  0
  147.7125  136.5135  158.5882 N   0  0  0  0  0  0  0  0  0  0  0  0
  145.7210  137.1810  162.4692 H   0  0  0  0  0  0  0  0  0  0  0  0
  146.7293  135.7397  162.3987 H   0  0  0  0  0  0  0  0  0  0  0  0
  145.1590  135.7789  161.5654 H   0  0  0  0  0  0  0  0  0  0  0  0
  146.5753  134.2720  160.8627 H   0  0  0  0  0  0  0  0  0  0  0  0
  147.4119  132.6808  159.1659 H   0  0  0  0  0  0  0  0  0  0  0  0
  148.5351  133.7998  155.8403 H   0  0  0  0  0  0  0  0  0  0  0  0
  148.7767  131.2210  154.9935 H   0  0  0  0  0  0  0  0  0  0  0  0
  149.6922  133.4846  154.4087 H   0  0  0  0  0  0  0  0  0  0  0  0
  150.5814  132.1832  153.6278 H   0  0  0  0  0  0  0  0  0  0  0  0
  151.2723  132.9981  155.0244 H   0  0  0  0  0  0  0  0  0  0  0  0
  151.8857  129.2247  154.8137 H   0  0  0  0  0  0  0  0  0  0  0  0
  151.6498  130.7409  153.9481 H   0  0  0  0  0  0  0  0  0  0  0  0
  150.3970  129.4876  153.9163 H   0  0  0  0  0  0  0  0  0  0  0  0
  150.4666  137.1196  157.3331 H   0  0  0  0  0  0  0  0  0  0  0  0
  150.6816  135.4278  156.9361 H   0  0  0  0  0  0  0  0  0  0  0  0
  151.9009  136.8762  155.3142 H   0  0  0  0  0  0  0  0  0  0  0  0
  150.6767  135.9388  154.5069 H   0  0  0  0  0  0  0  0  0  0  0  0
  152.8297  138.5759  154.2729 H   0  0  0  0  0  0  0  0  0  0  0  0
  152.4582  139.0090  155.9548 H   0  0  0  0  0  0  0  0  0  0  0  0
  152.6205  140.2643  154.7288 H   0  0  0  0  0  0  0  0  0  0  0  0
  148.1728  138.5528  154.0952 H   0  0  0  0  0  0  0  0  0  0  0  0
  148.5760  136.8845  153.8395 H   0  0  0  0  0  0  0  0  0  0  0  0
  147.0204  137.1090  155.7652 H   0  0  0  0  0  0  0  0  0  0  0  0
  148.1253  138.2183  156.5630 H   0  0  0  0  0  0  0  0  0  0  0  0
  1  2  1  0  0  0  0
  1 25  1  0  0  0  0
  1 26  1  0  0  0  0
  1 27  1  0  0  0  0
  2  3  1  0  0  0  0
  3 24  1  0  0  0  0
  3  4  2  0  0  0  0
  4  5  1  0  0  0  0
  4 28  1  0  0  0  0
  5  6  2  0  0  0  0
  5 29  1  0  0  0  0
  6  7  1  0  0  0  0
  6 14  1  0  0  0  0
  7  8  1  0  0  0  0
  7 30  1  0  0  0  0
  8  9  2  0  0  0  0
  8 10  1  0  0  0  0
 10 11  1  0  0  0  0
 10 12  1  0  0  0  0
 10 31  1  0  0  0  0
 11 32  1  0  0  0  0
 11 33  1  0  0  0  0
 11 34  1  0  0  0  0
 12 13  1  0  0  0  0
 13 35  1  0  0  0  0
 13 36  1  0  0  0  0
 13 37  1  0  0  0  0
 14 15  1  0  0  0  0
 14 24  2  0  0  0  0
 15 23  1  0  0  0  0
 15 16  1  0  0  0  0
 16 17  1  0  0  0  0
 16 38  1  0  0  0  0
 16 39  1  0  0  0  0
 17 18  1  0  0  0  0
 17 40  1  0  0  0  0
 17 41  1  0  0  0  0
 18 19  1  0  0  0  0
 18 22  1  0  0  0  0
 19 20  1  0  0  0  0
 19 21  2  0  0  0  0
 20 42  1  0  0  0  0
 20 43  1  0  0  0  0
 20 44  1  0  0  0  0
 22 23  1  0  0  0  0
 22 45  1  0  0  0  0
 22 46  1  0  0  0  0
 23 47  1  0  0  0  0
 23 48  1  0  0  0  0
M  END
> <s_m_source_file>
AV-unprocessed.smi

> <i_m_source_file_index>
1050

> <i_lp_mmshare_version>
43012

> <i_f3d_flags>
0

> <s_epik_input>
W0NIM11PYzFbY0hdW2NIXWMoW05IXUMoPU8pW0NASF0oW0NIM10pT1tDSDNdKWMobjEpTjJbQ0gyXVtDSDJdTihDKD1PKVtDSDNdKVtDSDJdW0NIMl0y

> <s_epik_cmdline>
J2VwaWtfcHl0aG9uJywgJy1waCcsICc3LjAnLCAnLXRuJywgJzgnLCAnLW1hJywgJzIwMCcsICctbWV0YWxfYmluZGluZycsICctaW1hZScsICc8aW5maWxlLm1hZT4nLCAnLW9tYWUnLCAnPG91dGZpbGUubWFlPic=

> <r_lp_tautomer_probability>
1

> <r_epik_Ionization_Penalty>
0.000150604

> <r_epik_Ionization_Penalty_Charging>
0

> <r_epik_Ionization_Penalty_Neutral>
0.000150604

> <r_epik_State_Penalty>
-0

> <r_epik_Charging_Adjusted_Penalty>
0

> <i_epik_Tot_Q>
0

> <i_epik_Tot_abs_Q>
0

> <r_epik_Metal_State_Penalty>
-0

> <b_epik_Metal_Only>
0

> <s_lp_Force_Field>
OPLS_2005

> <r_lp_Energy>
41.0836

> <b_lp_Chiralities_Consistent>
1

> <s_lp_Variant>
AV-unprocessed.smi:1050-2

> <Gold.Version>
5.8.1

> <Gold.Id.Protein>
6NUR|6NUR_protein|mol2

> <Gold.PLP.Fitness>
38.3024

> <Gold.PLP.PLP>
-32.5984

> <Gold.PLP.part.hbond>
-2.9777

> <Gold.PLP.part.metal>
0.0000

> <Gold.PLP.part.buried>
-4.9221

> <Gold.PLP.part.nonpolar>
-25.1344

> <Gold.PLP.part.repulsive>
0.1419

> <Gold.PLP.ligand.clash>
0.7069

> <Gold.PLP.ligand.torsion>
1.1916

> <Gold.PLP.Chemscore.Hbond>
2.8160

> <Gold.PLP.Chemscore.CHOScore>
0.0000

> <Gold.PLP.Chemscore.Metal>
0.0000

> <Gold.Chemscore.Hbonds>
donor molecule, donor type, donor heavy atom, donor atom, acceptor molecule, acceptor atom, score
      P1  H  6934  6947       L1     2  0.59
      P1  H  7989  7998       L1    21  0.70

> <Gold.PLP.Chemscore.Internal.Correction>
0.3462

> <Gold.Rescore>
     Score         DG    S(hbond)    S(metal)    S(lipo)     H(rot)  DE(clash)    DE(int)     intcor
     13.58     -15.28       2.32        0.00      54.83       1.71       0.33       1.36       ----

> <Gold.Chemscore.Fitness>
13.5818

> <Gold.Chemscore.DG>
-15.2764

> <Gold.Chemscore.ZeroCoef>
-5.4800

> <Gold.Chemscore.Hbond>
2.3233

> <Gold.Chemscore.Metal>
0.0000

> <Gold.Chemscore.Lipo>
54.8340

> <Gold.Chemscore.Internal_Hbond>
0.0000

> <Gold.Chemscore.DEClash>
0.3350

> <Gold.Chemscore.DEInternal>
1.3597

> <Gold.Chemscore.Rot>
1.7106

> <Gold.Chemscore.Internal.Correction>
   9.000000E+99

> <Gold.Chemscore.Hbonds>
donor molecule, donor type, donor heavy atom, donor atom, acceptor molecule, acceptor atom, score
      P1  H  6934  6947       L1     2  0.46
      P1  H  7989  7998       L1    21  0.07

> <Gold.Chemscore.Hbond.Weighted>
-7.7598

> <Gold.Chemscore.Metal.Weighted>
-0.0000

> <Gold.Chemscore.Lipo.Weighted>
-6.4156

> <Gold.Chemscore.Internal_Hbond.Weighted>
0.0000

> <Gold.Chemscore.DEClash.Weighted>
0.3350

> <Gold.Chemscore.DEInternal.Weighted>
1.3597

> <Gold.Chemscore.Rot.Weighted>
4.3790

> <Gold.Chemscore.Internal.Correction.Weighted>
   9.000000E+99

> <Gold.Protein.RotatedTorsions>
[ 6907 6896 6895 6894 ] final  101.25 input  -60.11 | X-H torsion
[ 7974 7965 7964 7962 ] final  151.14 input  175.53 | X-H torsion
[ 8008 7997 7996 7995 ] final   50.28 input   59.86 | X-H torsion
[ 10167 10162 10161 10158 ] final  144.90 input  -65.29 | X-H torsion
[ 10718 10713 10712 10709 ] final  -65.72 input   66.30 | X-H torsion
[ 10763 10752 10751 10750 ] final   96.64 input  -60.55 | X-H torsion
[ 11005 11000 10999 10996 ] final  101.96 input  -57.11 | X-H torsion

> <Gold.Protein.ActiveResidues>
 VAL166  LYS551  ARG553  GLY616  TRP617  ASP618  TYR619  PRO620  LYS621  CYS622 
 ASP623  PHE694  ASN695  SER759  ASP760  ASP761  ALA762  ILE779  LEU786  VAL792 
 PHE793  MET794  SER795  GLU796  ALA797  LYS798  CYS799  TRP800  GLU811  SER814 

> <Gold.Protein.RotatedAtoms>
  152.5353  134.0153  159.7956 H   0  0  0  0  0  0  0  0  0  0  0  0  # atno 6907 bound_to 6896
  151.0349  133.5750  159.2664 H   0  0  0  0  0  0  0  0  0  0  0  0  # atno 6908 bound_to 6896
  151.2741  135.0701  159.9198 H   0  0  0  0  0  0  0  0  0  0  0  0  # atno 6909 bound_to 6896
  144.8313  139.6499  143.6057 H   0  0  0  0  0  0  0  0  0  0  0  0  # atno 7974 bound_to 7965
  155.4161  140.3444  155.4267 H   0  0  0  0  0  0  0  0  0  0  0  0  # atno 8008 bound_to 7997
  156.1420  140.1545  156.8936 H   0  0  0  0  0  0  0  0  0  0  0  0  # atno 8009 bound_to 7997
  154.4979  140.0822  156.7717 H   0  0  0  0  0  0  0  0  0  0  0  0  # atno 8010 bound_to 7997
  139.4937  144.5940  151.6622 H   0  0  0  0  0  0  0  0  0  0  0  0  # atno 10167 bound_to 10162
  156.0653  130.4251  150.1605 H   0  0  0  0  0  0  0  0  0  0  0  0  # atno 10718 bound_to 10713
  153.2674  135.4211  155.0954 H   0  0  0  0  0  0  0  0  0  0  0  0  # atno 10763 bound_to 10752
  154.8443  135.3463  154.6293 H   0  0  0  0  0  0  0  0  0  0  0  0  # atno 10764 bound_to 10752
  153.6712  135.7043  153.5204 H   0  0  0  0  0  0  0  0  0  0  0  0  # atno 10765 bound_to 10752
  139.8775  134.9204  156.4985 H   0  0  0  0  0  0  0  0  0  0  0  0  # atno 11005 bound_to 11000
  146.2616  139.6424  142.9358 LP  0  0  0  0  0  0  0  0  0  0  0  0  # atno 17320 bound_to 7965
  145.4888  141.0438  143.2604 LP  0  0  0  0  0  0  0  0  0  0  0  0  # atno 17321 bound_to 7965
  140.5573  144.0327  150.6153 LP  0  0  0  0  0  0  0  0  0  0  0  0  # atno 17342 bound_to 10162
  140.3401  143.3025  152.0597 LP  0  0  0  0  0  0  0  0  0  0  0  0  # atno 17343 bound_to 10162
  156.9666  130.9821  151.3468 LP  0  0  0  0  0  0  0  0  0  0  0  0  # atno 17370 bound_to 10713
  157.5691  130.8298  149.8367 LP  0  0  0  0  0  0  0  0  0  0  0  0  # atno 17371 bound_to 10713
  140.8606  133.8062  155.9261 LP  0  0  0  0  0  0  0  0  0  0  0  0  # atno 17394 bound_to 11000
  140.9053  134.2328  157.5018 LP  0  0  0  0  0  0  0  0  0  0  0  0  # atno 17395 bound_to 11000

$$$$
