AV-unprocessed.smi:609|AV-procd|sdf|3052|dock9
  -GOLD-   2262023573D 1   1.00000     0.00000
 Structure written by MMmdl.
 43 45  0  0  0  0  0  0  0  0  2 V2000
  152.2849  141.6100  158.9082 C   0  0  0  0  0  0  0  0  0  0  0  0
  151.3956  141.1313  157.7732 C   0  0  0  0  0  0  0  0  0  0  0  0
  150.6981  142.0946  157.0101 C   0  0  0  0  0  0  0  0  0  0  0  0
  149.8935  141.6255  155.9784 C   0  0  0  0  0  0  0  0  0  0  0  0
  149.0949  142.3092  155.0591 N   0  3  0  0  0  0  0  0  0  0  0  0
  148.4900  141.4148  154.2294 C   0  0  0  0  0  0  0  0  0  0  0  0
  148.8893  140.1700  154.6059 N   0  0  0  0  0  0  0  0  0  0  0  0
  148.5326  138.8616  154.0393 C   0  0  0  0  0  0  0  0  0  0  0  0
  147.1603  138.8696  153.3392 C   0  0  1  0  0  0  0  0  0  0  0  0
  147.3148  139.2001  151.9725 O   0  0  0  0  0  0  0  0  0  0  0  0
  146.4522  137.5062  153.4490 C   0  0  0  0  0  0  0  0  0  0  0  0
  144.7434  137.5435  152.8192 S   0  0  0  0  0  0  0  0  0  0  0  0
  144.7233  136.0505  151.8719 C   0  0  0  0  0  0  0  0  0  0  0  0
  145.5711  135.7584  150.8884 N   0  0  0  0  0  0  0  0  0  0  0  0
  145.1814  134.5032  150.4356 C   0  0  0  0  0  0  0  0  0  0  0  0
  144.0991  134.0744  151.1641 C   0  0  0  0  0  0  0  0  0  0  0  0
  143.8153  135.0788  152.0798 N   0  0  0  0  0  0  0  0  0  0  0  0
  142.7482  135.0623  153.0610 C   0  0  0  0  0  0  0  0  0  0  0  0
  149.7663  140.2519  155.6941 C   0  0  0  0  0  0  0  0  0  0  0  0
  150.4468  139.2898  156.4368 C   0  0  0  0  0  0  0  0  0  0  0  0
  151.2711  139.7464  157.4899 C   0  0  0  0  0  0  0  0  0  0  0  0
  152.0267  138.7187  158.3151 C   0  0  0  0  0  0  0  0  0  0  0  0
  152.3162  142.6989  158.9586 H   0  0  0  0  0  0  0  0  0  0  0  0
  153.3067  141.2551  158.7725 H   0  0  0  0  0  0  0  0  0  0  0  0
  151.9137  141.2414  159.8648 H   0  0  0  0  0  0  0  0  0  0  0  0
  150.7880  143.1505  157.2197 H   0  0  0  0  0  0  0  0  0  0  0  0
  147.8163  141.6503  153.4180 H   0  0  0  0  0  0  0  0  0  0  0  0
  149.3236  138.5289  153.3667 H   0  0  0  0  0  0  0  0  0  0  0  0
  148.5182  138.1520  154.8675 H   0  0  0  0  0  0  0  0  0  0  0  0
  146.5443  139.6432  153.7978 H   0  0  0  0  0  0  0  0  0  0  0  0
  148.1591  139.6097  151.8579 H   0  0  0  0  0  0  0  0  0  0  0  0
  147.0067  136.7540  152.8867 H   0  0  0  0  0  0  0  0  0  0  0  0
  146.4397  137.1613  154.4831 H   0  0  0  0  0  0  0  0  0  0  0  0
  145.7045  134.0114  149.6287 H   0  0  0  0  0  0  0  0  0  0  0  0
  143.5224  133.1628  151.1073 H   0  0  0  0  0  0  0  0  0  0  0  0
  142.1848  134.1314  152.9895 H   0  0  0  0  0  0  0  0  0  0  0  0
  142.0716  135.8989  152.8847 H   0  0  0  0  0  0  0  0  0  0  0  0
  143.1679  135.1445  154.0640 H   0  0  0  0  0  0  0  0  0  0  0  0
  150.3582  138.2361  156.2173 H   0  0  0  0  0  0  0  0  0  0  0  0
  151.7934  137.7020  157.9976 H   0  0  0  0  0  0  0  0  0  0  0  0
  151.7648  138.8060  159.3699 H   0  0  0  0  0  0  0  0  0  0  0  0
  153.1026  138.8616  158.2113 H   0  0  0  0  0  0  0  0  0  0  0  0
  148.9713  143.3117  154.9993 H   0  0  0  0  0  0  0  0  0  0  0  0
  1  2  1  0  0  0  0
  1 23  1  0  0  0  0
  1 24  1  0  0  0  0
  1 25  1  0  0  0  0
  2 21  1  0  0  0  0
  2  3  2  0  0  0  0
  3  4  1  0  0  0  0
  3 26  1  0  0  0  0
  4 19  2  0  0  0  0
  4  5  1  0  0  0  0
  5  6  2  0  0  0  0
  5 43  1  0  0  0  0
  6  7  1  0  0  0  0
  6 27  1  0  0  0  0
  7  8  1  0  0  0  0
  7 19  1  0  0  0  0
  8  9  1  0  0  0  0
  8 28  1  0  0  0  0
  8 29  1  0  0  0  0
  9 10  1  0  0  0  0
  9 11  1  0  0  0  0
  9 30  1  0  0  0  0
 10 31  1  0  0  0  0
 11 12  1  0  0  0  0
 11 32  1  0  0  0  0
 11 33  1  0  0  0  0
 12 13  1  0  0  0  0
 13 17  1  0  0  0  0
 13 14  2  0  0  0  0
 14 15  1  0  0  0  0
 15 16  2  0  0  0  0
 15 34  1  0  0  0  0
 16 17  1  0  0  0  0
 16 35  1  0  0  0  0
 17 18  1  0  0  0  0
 18 36  1  0  0  0  0
 18 37  1  0  0  0  0
 18 38  1  0  0  0  0
 19 20  1  0  0  0  0
 20 21  2  0  0  0  0
 20 39  1  0  0  0  0
 21 22  1  0  0  0  0
 22 40  1  0  0  0  0
 22 41  1  0  0  0  0
 22 42  1  0  0  0  0
M  CHG  1   5   1
M  END
> <s_m_source_file>
AV-unprocessed.smi

> <i_m_source_file_index>
609

> <i_lp_mmshare_version>
43012

> <i_f3d_flags>
0

> <s_epik_input>
W0NIM11jKFtjSF0xKWMoW0NIM10pW2NIXWMoYzEyKW4oW2NIXW4yKVtDSDJdW0NASF0oW09IXSlbQ0gyXVNjM25bY0hdW2NIXW4zW0NIM10=

> <s_epik_cmdline>
J2VwaWtfcHl0aG9uJywgJy1waCcsICc3LjAnLCAnLXRuJywgJzgnLCAnLW1hJywgJzIwMCcsICctbWV0YWxfYmluZGluZycsICctaW1hZScsICc8aW5maWxlLm1hZT4nLCAnLW9tYWUnLCAnPG91dGZpbGUubWFlPic=

> <r_epik_Ionization_Penalty>
2.09683

> <r_epik_Ionization_Penalty_Charging>
2.09682

> <r_epik_Ionization_Penalty_Neutral>
2.49751e-06

> <r_epik_State_Penalty>
2.21514

> <r_epik_Charging_Adjusted_Penalty>
4.31197

> <i_epik_Tot_Q>
1

> <i_epik_Tot_abs_Q>
1

> <r_epik_Metal_State_Penalty>
1.52634

> <b_epik_Metal_Only>
0

> <s_lp_Force_Field>
OPLS_2005

> <r_lp_Energy>
12.6573

> <b_lp_Chiralities_Consistent>
1

> <s_lp_Variant>
AV-unprocessed.smi:609-8

> <Gold.Version>
5.8.1

> <Gold.Id.Protein>
6NUR|6NUR_protein|mol2

> <Gold.PLP.Fitness>
47.8998

> <Gold.PLP.PLP>
-38.0860

> <Gold.PLP.part.hbond>
-1.9982

> <Gold.PLP.part.metal>
0.0000

> <Gold.PLP.part.buried>
-5.5702

> <Gold.PLP.part.nonpolar>
-31.1065

> <Gold.PLP.part.repulsive>
0.4639

> <Gold.PLP.ligand.clash>
0.0000

> <Gold.PLP.ligand.torsion>
1.1097

> <Gold.PLP.Chemscore.Hbond>
3.0000

> <Gold.PLP.Chemscore.CHOScore>
0.9906

> <Gold.PLP.Chemscore.Metal>
0.0000

> <Gold.Chemscore.Hbonds>
donor molecule, donor type, donor heavy atom, donor atom, acceptor molecule, acceptor atom, score
      L1  H     5    43       P1  8028  2.00
      L1  H    10    31       P1  7957  1.00
      L1  C    15    34       P1  7921  0.96

> <Gold.PLP.Chemscore.Internal.Correction>
0.0614

> <Gold.Rescore>
     Score         DG    S(hbond)    S(metal)    S(lipo)     H(rot)  DE(clash)    DE(int)     intcor
     14.32     -15.57       1.97        0.00      84.34       2.48       0.07       1.19       ----

> <Gold.Chemscore.Fitness>
14.3173

> <Gold.Chemscore.DG>
-15.5741

> <Gold.Chemscore.ZeroCoef>
-5.4800

> <Gold.Chemscore.Hbond>
1.9676

> <Gold.Chemscore.Metal>
0.0000

> <Gold.Chemscore.Lipo>
84.3421

> <Gold.Chemscore.Internal_Hbond>
0.0000

> <Gold.Chemscore.DEClash>
0.0671

> <Gold.Chemscore.DEInternal>
1.1896

> <Gold.Chemscore.Rot>
2.4789

> <Gold.Chemscore.Internal.Correction>
   9.000000E+99

> <Gold.Chemscore.Hbonds>
donor molecule, donor type, donor heavy atom, donor atom, acceptor molecule, acceptor atom, score
      L1  H     5    43       P1  8028  0.92
      L1  H    10    31       P1  7957  0.99

> <Gold.Chemscore.Hbond.Weighted>
-6.5719

> <Gold.Chemscore.Metal.Weighted>
-0.0000

> <Gold.Chemscore.Lipo.Weighted>
-9.8680

> <Gold.Chemscore.Internal_Hbond.Weighted>
0.0000

> <Gold.Chemscore.DEClash.Weighted>
0.0671

> <Gold.Chemscore.DEInternal.Weighted>
1.1896

> <Gold.Chemscore.Rot.Weighted>
6.3459

> <Gold.Chemscore.Internal.Correction.Weighted>
   9.000000E+99

> <Gold.Protein.RotatedTorsions>
[ 6907 6896 6895 6894 ] final  172.66 input  -60.11 | X-H torsion
[ 7974 7965 7964 7962 ] final  -40.26 input  175.53 | X-H torsion
[ 8008 7997 7996 7995 ] final   64.34 input   59.86 | X-H torsion
[ 10167 10162 10161 10158 ] final   19.90 input  -65.29 | X-H torsion
[ 10718 10713 10712 10709 ] final   39.08 input   66.30 | X-H torsion
[ 10763 10752 10751 10750 ] final  -84.89 input  -60.55 | X-H torsion
[ 11005 11000 10999 10996 ] final  -22.87 input  -57.11 | X-H torsion

> <Gold.Protein.ActiveResidues>
 VAL166  LYS551  ARG553  GLY616  TRP617  ASP618  TYR619  PRO620  LYS621  CYS622 
 ASP623  PHE694  ASN695  SER759  ASP760  ASP761  ALA762  ILE779  LEU786  VAL792 
 PHE793  MET794  SER795  GLU796  ALA797  LYS798  CYS799  TRP800  GLU811  SER814 

> <Gold.Protein.RotatedAtoms>
  151.7807  133.3349  159.3470 H   0  0  0  0  0  0  0  0  0  0  0  0  # atno 6907 bound_to 6896
  150.7427  134.5933  159.6008 H   0  0  0  0  0  0  0  0  0  0  0  0  # atno 6908 bound_to 6896
  152.3278  134.7300  160.0349 H   0  0  0  0  0  0  0  0  0  0  0  0  # atno 6909 bound_to 6896
  146.0321  140.6718  142.9127 H   0  0  0  0  0  0  0  0  0  0  0  0  # atno 7974 bound_to 7965
  155.6445  140.3497  155.4726 H   0  0  0  0  0  0  0  0  0  0  0  0  # atno 8008 bound_to 7997
  155.9899  140.1191  157.0672 H   0  0  0  0  0  0  0  0  0  0  0  0  # atno 8009 bound_to 7997
  154.4216  140.1121  156.5537 H   0  0  0  0  0  0  0  0  0  0  0  0  # atno 8010 bound_to 7997
  140.5544  143.9451  150.6599 H   0  0  0  0  0  0  0  0  0  0  0  0  # atno 10167 bound_to 10162
  157.3664  130.7677  149.7086 H   0  0  0  0  0  0  0  0  0  0  0  0  # atno 10718 bound_to 10713
  154.6047  135.5504  153.7411 H   0  0  0  0  0  0  0  0  0  0  0  0  # atno 10763 bound_to 10752
  153.0169  135.6375  154.1664 H   0  0  0  0  0  0  0  0  0  0  0  0  # atno 10764 bound_to 10752
  154.1603  135.2897  155.3090 H   0  0  0  0  0  0  0  0  0  0  0  0  # atno 10765 bound_to 10752
  140.8698  133.7728  156.0173 H   0  0  0  0  0  0  0  0  0  0  0  0  # atno 11005 bound_to 11000
  144.7035  140.3755  143.7137 LP  0  0  0  0  0  0  0  0  0  0  0  0  # atno 17320 bound_to 7965
  145.7023  139.1664  143.2585 LP  0  0  0  0  0  0  0  0  0  0  0  0  # atno 17321 bound_to 7965
  140.2885  143.3340  152.1085 LP  0  0  0  0  0  0  0  0  0  0  0  0  # atno 17342 bound_to 10162
  139.5041  144.6769  151.6105 LP  0  0  0  0  0  0  0  0  0  0  0  0  # atno 17343 bound_to 10162
  155.9747  130.4099  150.3904 LP  0  0  0  0  0  0  0  0  0  0  0  0  # atno 17370 bound_to 10713
  157.1989  131.0433  151.2661 LP  0  0  0  0  0  0  0  0  0  0  0  0  # atno 17371 bound_to 10713
  140.8586  134.2867  157.5244 LP  0  0  0  0  0  0  0  0  0  0  0  0  # atno 17394 bound_to 11000
  139.8711  134.9506  156.4061 LP  0  0  0  0  0  0  0  0  0  0  0  0  # atno 17395 bound_to 11000

$$$$
