AV-unprocessed.smi:853|AV-procd|sdf|3953|dock1
  -GOLD-   22720 1423D 1   1.00000     0.00000
 Structure written by MMmdl.
 49 51  0  0  0  0  0  0  0  0  1 V2000
  144.3626  132.8511  149.2377 C   0  0  0  0  0  0  0  0  0  0  0  0
  144.3338  132.7751  150.7659 C   0  0  0  0  0  0  0  0  0  0  0  0
  144.5083  131.6764  151.2934 O   0  0  0  0  0  0  0  0  0  0  0  0
  144.1222  133.9057  151.4818 N   0  0  0  0  0  0  0  0  0  0  0  0
  144.1478  133.9326  152.9489 C   0  0  0  0  0  0  0  0  0  0  0  0
  145.4106  134.6818  153.4103 C   0  0  0  0  0  0  0  0  0  0  0  0
  145.4783  136.0992  152.8021 C   0  0  0  0  0  0  0  0  0  0  0  0
  146.7709  136.7028  153.1119 N   0  0  0  0  0  0  0  0  0  0  0  0
  146.9760  137.6772  154.0093 C   0  0  0  0  0  0  0  0  0  0  0  0
  146.0750  138.1875  154.6745 O   0  0  0  0  0  0  0  0  0  0  0  0
  148.2746  138.0201  154.0606 N   0  0  0  0  0  0  0  0  0  0  0  0
  148.9137  138.9748  154.8975 C   0  0  0  0  0  0  0  0  0  0  0  0
  148.4980  139.2994  156.2101 C   0  0  0  0  0  0  0  0  0  0  0  0
  149.2344  140.2489  156.9440 C   0  0  0  0  0  0  0  0  0  0  0  0
  150.3752  140.8443  156.3552 C   0  0  0  0  0  0  0  0  0  0  0  0
  151.1394  141.7976  157.0574 N   0  0  0  0  0  0  0  0  0  0  0  0
  151.2059  141.8026  158.5108 C   0  0  0  0  0  0  0  0  0  0  0  0
  151.9884  143.0679  158.8577 C   0  0  0  0  0  0  0  0  0  0  0  0
  151.5908  144.0357  157.7435 C   0  0  0  0  0  0  0  0  0  0  0  0
  151.3720  143.1334  156.5236 C   0  0  0  0  0  0  0  0  0  0  0  0
  150.7720  140.5307  155.0990 N   0  0  0  0  0  0  0  0  0  0  0  0
  150.0631  139.6204  154.3997 C   0  0  0  0  0  0  0  0  0  0  0  0
  145.2421  136.0697  151.2743 C   0  0  0  0  0  0  0  0  0  0  0  0
  143.9856  135.2549  150.9194 C   0  0  0  0  0  0  0  0  0  0  0  0
  145.1421  133.5339  148.8982 H   0  0  0  0  0  0  0  0  0  0  0  0
  143.4009  133.1880  148.8499 H   0  0  0  0  0  0  0  0  0  0  0  0
  144.5699  131.8705  148.8080 H   0  0  0  0  0  0  0  0  0  0  0  0
  143.2545  134.4393  153.3175 H   0  0  0  0  0  0  0  0  0  0  0  0
  144.1260  132.9355  153.3907 H   0  0  0  0  0  0  0  0  0  0  0  0
  145.4310  134.7402  154.4992 H   0  0  0  0  0  0  0  0  0  0  0  0
  146.2912  134.1089  153.1147 H   0  0  0  0  0  0  0  0  0  0  0  0
  144.6858  136.6933  153.2616 H   0  0  0  0  0  0  0  0  0  0  0  0
  147.5694  136.3481  152.6061 H   0  0  0  0  0  0  0  0  0  0  0  0
  148.8784  137.5620  153.3937 H   0  0  0  0  0  0  0  0  0  0  0  0
  147.6428  138.8361  156.6760 H   0  0  0  0  0  0  0  0  0  0  0  0
  148.9141  140.5060  157.9425 H   0  0  0  0  0  0  0  0  0  0  0  0
  150.1963  141.8502  158.9217 H   0  0  0  0  0  0  0  0  0  0  0  0
  151.6948  140.9073  158.8961 H   0  0  0  0  0  0  0  0  0  0  0  0
  151.7627  143.4473  159.8545 H   0  0  0  0  0  0  0  0  0  0  0  0
  153.0592  142.8663  158.8060 H   0  0  0  0  0  0  0  0  0  0  0  0
  150.6526  144.5261  158.0072 H   0  0  0  0  0  0  0  0  0  0  0  0
  152.3359  144.8120  157.5672 H   0  0  0  0  0  0  0  0  0  0  0  0
  152.2625  143.1103  155.8949 H   0  0  0  0  0  0  0  0  0  0  0  0
  150.5354  143.4906  155.9221 H   0  0  0  0  0  0  0  0  0  0  0  0
  150.4280  139.4021  153.4067 H   0  0  0  0  0  0  0  0  0  0  0  0
  145.1454  137.0851  150.8884 H   0  0  0  0  0  0  0  0  0  0  0  0
  146.1062  135.6298  150.7738 H   0  0  0  0  0  0  0  0  0  0  0  0
  143.8294  135.2661  149.8418 H   0  0  0  0  0  0  0  0  0  0  0  0
  143.1016  135.7319  151.3450 H   0  0  0  0  0  0  0  0  0  0  0  0
  1  2  1  0  0  0  0
  1 25  1  0  0  0  0
  1 26  1  0  0  0  0
  1 27  1  0  0  0  0
  2  3  2  0  0  0  0
  2  4  1  0  0  0  0
  4 24  1  0  0  0  0
  4  5  1  0  0  0  0
  5  6  1  0  0  0  0
  5 28  1  0  0  0  0
  5 29  1  0  0  0  0
  6  7  1  0  0  0  0
  6 30  1  0  0  0  0
  6 31  1  0  0  0  0
  7  8  1  0  0  0  0
  7 23  1  0  0  0  0
  7 32  1  0  0  0  0
  8  9  1  0  0  0  0
  8 33  1  0  0  0  0
  9 10  2  0  0  0  0
  9 11  1  0  0  0  0
 11 12  1  0  0  0  0
 11 34  1  0  0  0  0
 12 22  1  0  0  0  0
 12 13  2  0  0  0  0
 13 14  1  0  0  0  0
 13 35  1  0  0  0  0
 14 15  2  0  0  0  0
 14 36  1  0  0  0  0
 15 16  1  0  0  0  0
 15 21  1  0  0  0  0
 16 20  1  0  0  0  0
 16 17  1  0  0  0  0
 17 18  1  0  0  0  0
 17 37  1  0  0  0  0
 17 38  1  0  0  0  0
 18 19  1  0  0  0  0
 18 39  1  0  0  0  0
 18 40  1  0  0  0  0
 19 20  1  0  0  0  0
 19 41  1  0  0  0  0
 19 42  1  0  0  0  0
 20 43  1  0  0  0  0
 20 44  1  0  0  0  0
 21 22  2  0  0  0  0
 22 45  1  0  0  0  0
 23 24  1  0  0  0  0
 23 46  1  0  0  0  0
 23 47  1  0  0  0  0
 24 48  1  0  0  0  0
 24 49  1  0  0  0  0
M  END
> <s_m_source_file>
AV-unprocessed.smi

> <i_m_source_file_index>
853

> <i_lp_mmshare_version>
43012

> <i_f3d_flags>
0

> <s_epik_input>
W0NIM11DKD1PKU4xW0NIMl1bQ0gyXVtDSF0oW0NIMl1bQ0gyXTEpW05IXUMoPU8pW05IXWMyW2NIXVtjSF1jKG5bY0hdMilOM1tDSDJdW0NIMl1bQ0gyXVtDSDJdMw==

> <s_epik_cmdline>
J2VwaWtfcHl0aG9uJywgJy1waCcsICc3LjAnLCAnLXRuJywgJzgnLCAnLW1hJywgJzIwMCcsICctbWV0YWxfYmluZGluZycsICctaW1hZScsICc8aW5maWxlLm1hZT4nLCAnLW9tYWUnLCAnPG91dGZpbGUubWFlPic=

> <r_lp_tautomer_probability>
1

> <r_epik_Ionization_Penalty>
0.102256

> <r_epik_Ionization_Penalty_Charging>
0

> <r_epik_Ionization_Penalty_Neutral>
0.102256

> <r_epik_State_Penalty>
0.0916633

> <r_epik_Charging_Adjusted_Penalty>
0.0916633

> <i_epik_Tot_Q>
0

> <i_epik_Tot_abs_Q>
0

> <r_epik_Metal_State_Penalty>
0.078099

> <b_epik_Metal_Only>
0

> <s_lp_Force_Field>
OPLS_2005

> <r_lp_Energy>
47.0227

> <b_lp_Chiralities_Consistent>
1

> <s_lp_Variant>
AV-unprocessed.smi:853-1

> <Gold.Version>
5.8.1

> <Gold.Id.Protein>
6NUR|6NUR_protein|mol2

> <Gold.PLP.Fitness>
43.3324

> <Gold.PLP.PLP>
-35.3566

> <Gold.PLP.part.hbond>
-2.9975

> <Gold.PLP.part.metal>
0.0000

> <Gold.PLP.part.buried>
-2.5606

> <Gold.PLP.part.nonpolar>
-29.7749

> <Gold.PLP.part.repulsive>
0.3021

> <Gold.PLP.ligand.clash>
0.0000

> <Gold.PLP.ligand.torsion>
1.0116

> <Gold.PLP.Chemscore.Hbond>
2.2620

> <Gold.PLP.Chemscore.CHOScore>
1.0000

> <Gold.PLP.Chemscore.Metal>
0.0000

> <Gold.Chemscore.Hbonds>
donor molecule, donor type, donor heavy atom, donor atom, acceptor molecule, acceptor atom, score
      L1  H     8    33       P1  7948  1.00
      L1  H    11    34       P1  7948  0.93
      P1  H  7989  7998       L1    21  0.30
      L1  C    22    45       P1  7957  1.00

> <Gold.PLP.Chemscore.Internal.Correction>
0.2131

> <Gold.Rescore>
     Score         DG    S(hbond)    S(metal)    S(lipo)     H(rot)  DE(clash)    DE(int)     intcor
     18.06     -20.17       2.06        0.00      88.62       1.00       1.18       0.93       ----

> <Gold.Chemscore.Fitness>
18.0573

> <Gold.Chemscore.DG>
-20.1725

> <Gold.Chemscore.ZeroCoef>
-5.4800

> <Gold.Chemscore.Hbond>
2.0612

> <Gold.Chemscore.Metal>
0.0000

> <Gold.Chemscore.Lipo>
88.6174

> <Gold.Chemscore.Internal_Hbond>
0.0000

> <Gold.Chemscore.DEClash>
1.1826

> <Gold.Chemscore.DEInternal>
0.9326

> <Gold.Chemscore.Rot>
1.0000

> <Gold.Chemscore.Internal.Correction>
   9.000000E+99

> <Gold.Chemscore.Hbonds>
donor molecule, donor type, donor heavy atom, donor atom, acceptor molecule, acceptor atom, score
      L1  H     8    33       P1  7948  0.97
      L1  H    11    34       P1  7948  0.85

> <Gold.Chemscore.Hbond.Weighted>
-6.8843

> <Gold.Chemscore.Metal.Weighted>
-0.0000

> <Gold.Chemscore.Lipo.Weighted>
-10.3682

> <Gold.Chemscore.Internal_Hbond.Weighted>
0.0000

> <Gold.Chemscore.DEClash.Weighted>
1.1826

> <Gold.Chemscore.DEInternal.Weighted>
0.9326

> <Gold.Chemscore.Rot.Weighted>
2.5600

> <Gold.Chemscore.Internal.Correction.Weighted>
   9.000000E+99

> <Gold.Protein.RotatedTorsions>
[ 6907 6896 6895 6894 ] final  -91.51 input  -60.11 | X-H torsion
[ 7974 7965 7964 7962 ] final  179.62 input  175.53 | X-H torsion
[ 8008 7997 7996 7995 ] final -177.02 input   59.86 | X-H torsion
[ 10167 10162 10161 10158 ] final  -49.71 input  -65.29 | X-H torsion
[ 10718 10713 10712 10709 ] final -107.66 input   66.30 | X-H torsion
[ 10763 10752 10751 10750 ] final   54.69 input  -60.55 | X-H torsion
[ 11005 11000 10999 10996 ] final   24.27 input  -57.11 | X-H torsion

> <Gold.Protein.ActiveResidues>
 VAL166  LYS551  ARG553  GLY616  TRP617  ASP618  TYR619  PRO620  LYS621  CYS622 
 ASP623  PHE694  ASN695  SER759  ASP760  ASP761  ALA762  ILE779  LEU786  VAL792 
 PHE793  MET794  SER795  GLU796  ALA797  LYS798  CYS799  TRP800  GLU811  SER814 

> <Gold.Protein.RotatedAtoms>
  150.6893  134.2266  159.4417 H   0  0  0  0  0  0  0  0  0  0  0  0  # atno 6907 bound_to 6896
  152.0219  134.9815  160.0580 H   0  0  0  0  0  0  0  0  0  0  0  0  # atno 6908 bound_to 6896
  152.1389  133.4417  159.4794 H   0  0  0  0  0  0  0  0  0  0  0  0  # atno 6909 bound_to 6896
  144.7144  140.0575  143.6433 H   0  0  0  0  0  0  0  0  0  0  0  0  # atno 7974 bound_to 7965
  156.0019  140.1222  157.0539 H   0  0  0  0  0  0  0  0  0  0  0  0  # atno 8008 bound_to 7997
  154.4245  140.1105  156.5777 H   0  0  0  0  0  0  0  0  0  0  0  0  # atno 8009 bound_to 7997
  155.6201  140.3472  155.4651 H   0  0  0  0  0  0  0  0  0  0  0  0  # atno 8010 bound_to 7997
  140.6672  143.2687  151.4254 H   0  0  0  0  0  0  0  0  0  0  0  0  # atno 10167 bound_to 10162
  156.0447  130.5673  150.7852 H   0  0  0  0  0  0  0  0  0  0  0  0  # atno 10718 bound_to 10713
  152.9807  135.5736  154.4946 H   0  0  0  0  0  0  0  0  0  0  0  0  # atno 10763 bound_to 10752
  154.4475  135.2777  155.1806 H   0  0  0  0  0  0  0  0  0  0  0  0  # atno 10764 bound_to 10752
  154.3448  135.6221  153.5667 H   0  0  0  0  0  0  0  0  0  0  0  0  # atno 10765 bound_to 10752
  140.3605  134.2131  155.7672 H   0  0  0  0  0  0  0  0  0  0  0  0  # atno 11005 bound_to 11000
  145.9892  139.3001  143.0995 LP  0  0  0  0  0  0  0  0  0  0  0  0  # atno 17320 bound_to 7965
  145.8922  140.9296  143.0546 LP  0  0  0  0  0  0  0  0  0  0  0  0  # atno 17321 bound_to 7965
  139.5926  144.1467  152.2106 LP  0  0  0  0  0  0  0  0  0  0  0  0  # atno 17342 bound_to 10162
  140.0826  144.5688  150.7111 LP  0  0  0  0  0  0  0  0  0  0  0  0  # atno 17343 bound_to 10162
  157.5308  131.0936  150.9957 LP  0  0  0  0  0  0  0  0  0  0  0  0  # atno 17370 bound_to 10713
  157.0264  130.5694  149.5337 LP  0  0  0  0  0  0  0  0  0  0  0  0  # atno 17371 bound_to 10713
  141.1985  133.8033  157.0577 LP  0  0  0  0  0  0  0  0  0  0  0  0  # atno 17394 bound_to 11000
  140.0630  134.9744  157.1338 LP  0  0  0  0  0  0  0  0  0  0  0  0  # atno 17395 bound_to 11000

$$$$
