AV-unprocessed.smi:2763|AV-procd|sdf|10639|dock1
  -GOLD-   2272015 83D 1   1.00000     0.00000
 Structure written by MMmdl.
 37 38  0  0  0  0  0  0  0  0  1 V2000
  151.0714  140.7637  155.3737 O   0  0  0  0  0  0  0  0  0  0  0  0
  151.6643  140.0759  156.2052 C   0  0  0  0  0  0  0  0  0  0  0  0
  151.9700  138.7839  156.0183 N   0  0  0  0  0  0  0  0  0  0  0  0
  151.6567  138.0042  154.8260 C   0  0  0  0  0  0  0  0  0  0  0  0
  150.2004  137.5170  154.8691 C   0  0  0  0  0  0  0  0  0  0  0  0
  150.0410  136.1612  155.5765 C   0  0  1  0  0  0  0  0  0  0  0  0
  148.9732  135.2801  154.8986 C   0  0  0  0  0  0  0  0  0  0  0  0
  148.8937  133.9073  155.5766 C   0  0  0  0  0  0  0  0  0  0  0  0
  150.2889  133.2761  155.6327 C   0  0  0  0  0  0  0  0  0  0  0  0
  151.2913  134.2529  156.2669 C   0  0  0  0  0  0  0  0  0  0  0  0
  151.2940  135.4802  155.5442 O   0  0  0  0  0  0  0  0  0  0  0  0
  152.0938  140.5063  157.4048 N   0  0  0  0  0  0  0  0  0  0  0  0
  151.9515  141.7983  157.9781 C   0  0  0  0  0  0  0  0  0  0  0  0
  152.5137  141.9457  159.2668 C   0  0  0  0  0  0  0  0  0  0  0  0
  152.4245  143.1882  159.9244 C   0  0  0  0  0  0  0  0  0  0  0  0
  151.7728  144.2512  159.2746 C   0  0  0  0  0  0  0  0  0  0  0  0
  151.6617  145.4636  159.8672 F   0  0  0  0  0  0  0  0  0  0  0  0
  151.2395  144.0222  157.9927 C   0  0  0  0  0  0  0  0  0  0  0  0
  151.3250  142.8319  157.3612 N   0  0  0  0  0  0  0  0  0  0  0  0
  152.4603  138.3018  156.7573 H   0  0  0  0  0  0  0  0  0  0  0  0
  151.8209  138.5890  153.9195 H   0  0  0  0  0  0  0  0  0  0  0  0
  152.3378  137.1538  154.7815 H   0  0  0  0  0  0  0  0  0  0  0  0
  149.5916  138.2608  155.3851 H   0  0  0  0  0  0  0  0  0  0  0  0
  149.8066  137.4479  153.8541 H   0  0  0  0  0  0  0  0  0  0  0  0
  149.7557  136.3395  156.6149 H   0  0  0  0  0  0  0  0  0  0  0  0
  147.9988  135.7684  154.9356 H   0  0  0  0  0  0  0  0  0  0  0  0
  149.2184  135.1505  153.8436 H   0  0  0  0  0  0  0  0  0  0  0  0
  148.5000  134.0193  156.5876 H   0  0  0  0  0  0  0  0  0  0  0  0
  148.2026  133.2565  155.0404 H   0  0  0  0  0  0  0  0  0  0  0  0
  150.2596  132.3439  156.1973 H   0  0  0  0  0  0  0  0  0  0  0  0
  150.6180  133.0221  154.6243 H   0  0  0  0  0  0  0  0  0  0  0  0
  151.0484  134.4355  157.3149 H   0  0  0  0  0  0  0  0  0  0  0  0
  152.2950  133.8280  156.2429 H   0  0  0  0  0  0  0  0  0  0  0  0
  152.5783  139.8298  157.9757 H   0  0  0  0  0  0  0  0  0  0  0  0
  153.0100  141.1170  159.7511 H   0  0  0  0  0  0  0  0  0  0  0  0
  152.8478  143.3216  160.9089 H   0  0  0  0  0  0  0  0  0  0  0  0
  150.7314  144.8127  157.4605 H   0  0  0  0  0  0  0  0  0  0  0  0
  1  2  2  0  0  0  0
  2  3  1  0  0  0  0
  2 12  1  0  0  0  0
  3  4  1  0  0  0  0
  3 20  1  0  0  0  0
  4  5  1  0  0  0  0
  4 21  1  0  0  0  0
  4 22  1  0  0  0  0
  5  6  1  0  0  0  0
  5 23  1  0  0  0  0
  5 24  1  0  0  0  0
  6 11  1  0  0  0  0
  6  7  1  0  0  0  0
  6 25  1  0  0  0  0
  7  8  1  0  0  0  0
  7 26  1  0  0  0  0
  7 27  1  0  0  0  0
  8  9  1  0  0  0  0
  8 28  1  0  0  0  0
  8 29  1  0  0  0  0
  9 10  1  0  0  0  0
  9 30  1  0  0  0  0
  9 31  1  0  0  0  0
 10 11  1  0  0  0  0
 10 32  1  0  0  0  0
 10 33  1  0  0  0  0
 12 13  1  0  0  0  0
 12 34  1  0  0  0  0
 13 19  1  0  0  0  0
 13 14  2  0  0  0  0
 14 15  1  0  0  0  0
 14 35  1  0  0  0  0
 15 16  2  0  0  0  0
 15 36  1  0  0  0  0
 16 17  1  0  0  0  0
 16 18  1  0  0  0  0
 18 19  2  0  0  0  0
 18 37  1  0  0  0  0
M  END
> <s_m_source_file>
AV-unprocessed.smi

> <i_m_source_file_index>
2763

> <i_lp_mmshare_version>
43012

> <i_f3d_flags>
0

> <s_epik_input>
bjFbY0hdYyhGKVtjSF1bY0hdYzFbTkhdQyg9TylbTkhdW0NIMl1bQ0gyXVtDQEBIXTJbQ0gyXVtDSDJdW0NIMl1bQ0gyXU8y

> <s_epik_cmdline>
J2VwaWtfcHl0aG9uJywgJy1waCcsICc3LjAnLCAnLXRuJywgJzgnLCAnLW1hJywgJzIwMCcsICctbWV0YWxfYmluZGluZycsICctaW1hZScsICc8aW5maWxlLm1hZT4nLCAnLW9tYWUnLCAnPG91dGZpbGUubWFlPic=

> <r_lp_tautomer_probability>
1

> <r_epik_Ionization_Penalty>
3.67849e-05

> <r_epik_Ionization_Penalty_Charging>
0

> <r_epik_Ionization_Penalty_Neutral>
3.67849e-05

> <r_epik_State_Penalty>
-0

> <r_epik_Charging_Adjusted_Penalty>
0

> <i_epik_Tot_Q>
0

> <i_epik_Tot_abs_Q>
0

> <r_epik_Metal_State_Penalty>
-0

> <b_epik_Metal_Only>
0

> <s_lp_Force_Field>
OPLS_2005

> <r_lp_Energy>
13.3257

> <b_lp_Chiralities_Consistent>
1

> <s_lp_Variant>
AV-unprocessed.smi:2763-2

> <Gold.Version>
5.8.1

> <Gold.Id.Protein>
6NUR|6NUR_protein|mol2

> <Gold.PLP.Fitness>
43.0494

> <Gold.PLP.PLP>
-36.2562

> <Gold.PLP.part.hbond>
-2.0000

> <Gold.PLP.part.metal>
0.0000

> <Gold.PLP.part.buried>
-4.9398

> <Gold.PLP.part.nonpolar>
-30.0422

> <Gold.PLP.part.repulsive>
0.4576

> <Gold.PLP.ligand.clash>
0.0000

> <Gold.PLP.ligand.torsion>
0.8405

> <Gold.PLP.Chemscore.Hbond>
1.8160

> <Gold.PLP.Chemscore.CHOScore>
1.0000

> <Gold.PLP.Chemscore.Metal>
0.0000

> <Gold.Chemscore.Hbonds>
donor molecule, donor type, donor heavy atom, donor atom, acceptor molecule, acceptor atom, score
      P1  H  7989  7998       L1     1  0.80
      P1  H 10752 10765       L1    11  1.00
      L1  C    18    37       P1  8028  0.98

> <Gold.PLP.Chemscore.Internal.Correction>
0.0262

> <Gold.Rescore>
     Score         DG    S(hbond)    S(metal)    S(lipo)     H(rot)  DE(clash)    DE(int)     intcor
     14.73     -16.90       1.73        0.00      81.75       1.54       0.07       2.10       ----

> <Gold.Chemscore.Fitness>
14.7313

> <Gold.Chemscore.DG>
-16.9007

> <Gold.Chemscore.ZeroCoef>
-5.4800

> <Gold.Chemscore.Hbond>
1.7346

> <Gold.Chemscore.Metal>
0.0000

> <Gold.Chemscore.Lipo>
81.7537

> <Gold.Chemscore.Internal_Hbond>
0.0000

> <Gold.Chemscore.DEClash>
0.0693

> <Gold.Chemscore.DEInternal>
2.1000

> <Gold.Chemscore.Rot>
1.5384

> <Gold.Chemscore.Internal.Correction>
   9.000000E+99

> <Gold.Chemscore.Hbonds>
donor molecule, donor type, donor heavy atom, donor atom, acceptor molecule, acceptor atom, score
      P1  H  7989  7998       L1     1  0.78
      P1  H 10752 10765       L1    11  0.34

> <Gold.Chemscore.Hbond.Weighted>
-5.7937

> <Gold.Chemscore.Metal.Weighted>
-0.0000

> <Gold.Chemscore.Lipo.Weighted>
-9.5652

> <Gold.Chemscore.Internal_Hbond.Weighted>
0.0000

> <Gold.Chemscore.DEClash.Weighted>
0.0693

> <Gold.Chemscore.DEInternal.Weighted>
2.1000

> <Gold.Chemscore.Rot.Weighted>
3.9382

> <Gold.Chemscore.Internal.Correction.Weighted>
   9.000000E+99

> <Gold.Protein.RotatedTorsions>
[ 6907 6896 6895 6894 ] final -126.83 input  -60.11 | X-H torsion
[ 7974 7965 7964 7962 ] final  -47.78 input  175.53 | X-H torsion
[ 8008 7997 7996 7995 ] final  -40.14 input   59.86 | X-H torsion
[ 10167 10162 10161 10158 ] final  121.71 input  -65.29 | X-H torsion
[ 10718 10713 10712 10709 ] final -148.89 input   66.30 | X-H torsion
[ 10763 10752 10751 10750 ] final -164.76 input  -60.55 | X-H torsion
[ 11005 11000 10999 10996 ] final   17.90 input  -57.11 | X-H torsion

> <Gold.Protein.ActiveResidues>
 VAL166  LYS551  ARG553  GLY616  TRP617  ASP618  TYR619  PRO620  LYS621  CYS622 
 ASP623  PHE694  ASN695  SER759  ASP760  ASP761  ALA762  ILE779  LEU786  VAL792 
 PHE793  MET794  SER795  GLU796  ALA797  LYS798  CYS799  TRP800  GLU811  SER814 

> <Gold.Protein.RotatedAtoms>
  150.9009  133.7119  159.2878 H   0  0  0  0  0  0  0  0  0  0  0  0  # atno 6907 bound_to 6896
  151.4638  135.1039  159.9742 H   0  0  0  0  0  0  0  0  0  0  0  0  # atno 6908 bound_to 6896
  152.4876  133.8366  159.7186 H   0  0  0  0  0  0  0  0  0  0  0  0  # atno 6909 bound_to 6896
  145.9580  140.7507  142.9471 H   0  0  0  0  0  0  0  0  0  0  0  0  # atno 7974 bound_to 7965
  154.4015  140.1533  156.2979 H   0  0  0  0  0  0  0  0  0  0  0  0  # atno 8008 bound_to 7997
  155.8727  140.3448  155.5810 H   0  0  0  0  0  0  0  0  0  0  0  0  # atno 8009 bound_to 7997
  155.7756  140.0836  157.2076 H   0  0  0  0  0  0  0  0  0  0  0  0  # atno 8010 bound_to 7997
  139.5903  144.7022  151.3308 H   0  0  0  0  0  0  0  0  0  0  0  0  # atno 10167 bound_to 10162
  156.4260  130.8052  151.2277 H   0  0  0  0  0  0  0  0  0  0  0  0  # atno 10718 bound_to 10713
  154.6997  135.2985  154.9359 H   0  0  0  0  0  0  0  0  0  0  0  0  # atno 10763 bound_to 10752
  154.0295  135.6672  153.4783 H   0  0  0  0  0  0  0  0  0  0  0  0  # atno 10764 bound_to 10752
  153.0672  135.5081  154.8134 H   0  0  0  0  0  0  0  0  0  0  0  0  # atno 10765 bound_to 10752
  140.4308  134.1422  155.7680 H   0  0  0  0  0  0  0  0  0  0  0  0  # atno 11005 bound_to 11000
  144.6809  140.2544  143.7327 LP  0  0  0  0  0  0  0  0  0  0  0  0  # atno 17320 bound_to 7965
  145.8079  139.1991  143.2010 LP  0  0  0  0  0  0  0  0  0  0  0  0  # atno 17321 bound_to 7965
  140.7167  143.7247  150.7669 LP  0  0  0  0  0  0  0  0  0  0  0  0  # atno 17342 bound_to 10162
  140.0801  143.4977  152.2534 LP  0  0  0  0  0  0  0  0  0  0  0  0  # atno 17343 bound_to 10162
  157.7508  131.0213  150.3745 LP  0  0  0  0  0  0  0  0  0  0  0  0  # atno 17370 bound_to 10713
  156.4072  130.3927  149.6917 LP  0  0  0  0  0  0  0  0  0  0  0  0  # atno 17371 bound_to 10713
  141.1746  133.8539  157.1461 LP  0  0  0  0  0  0  0  0  0  0  0  0  # atno 17394 bound_to 11000
  140.0136  134.9977  157.0446 LP  0  0  0  0  0  0  0  0  0  0  0  0  # atno 17395 bound_to 11000

$$$$
