AV-unprocessed.smi:1085|AV-procd|sdf|4721|dock2
  -GOLD-   22720 3253D 1   1.00000     0.00000
 Structure written by MMmdl.
 33 34  0  0  0  0  0  0  0  0  1 V2000
  152.9112  139.6247  156.1431 O   0  0  0  0  0  0  0  0  0  0  0  0
  151.7380  139.2784  156.2766 C   0  0  0  0  0  0  0  0  0  0  0  0
  151.0313  138.5244  155.1491 C   0  0  0  0  0  0  0  0  0  0  0  0
  150.0497  139.3666  154.4907 N   0  0  0  0  0  0  0  0  0  0  0  0
  148.9410  139.0578  153.8152 C   0  0  0  0  0  0  0  0  0  0  0  0
  148.3326  140.1400  153.3541 N   0  0  0  0  0  0  0  0  0  0  0  0
  149.1468  141.1705  153.7933 N   0  0  0  0  0  0  0  0  0  0  0  0
  150.1669  140.7178  154.4690 N   0  0  0  0  0  0  0  0  0  0  0  0
  151.0130  139.5265  157.3791 N   0  0  0  0  0  0  0  0  0  0  0  0
  151.4807  140.2508  158.5566 C   0  0  1  0  0  0  0  0  0  0  0  0
  152.9128  139.8170  158.9294 C   0  0  0  0  0  0  0  0  0  0  0  0
  153.4513  140.6308  160.1151 C   0  0  0  0  0  0  0  0  0  0  0  0
  153.3911  142.1391  159.8290 C   0  0  0  0  0  0  0  0  0  0  0  0
  151.9611  142.5930  159.4680 C   0  0  1  0  0  0  0  0  0  0  0  0
  151.8883  144.1090  159.1923 C   0  0  0  0  0  0  0  0  0  0  0  0
  152.1926  144.8053  160.2880 F   0  0  0  0  0  0  0  0  0  0  0  0
  152.7413  144.4378  158.2223 F   0  0  0  0  0  0  0  0  0  0  0  0
  150.6601  144.4433  158.7966 F   0  0  0  0  0  0  0  0  0  0  0  0
  151.4250  141.7652  158.2800 C   0  0  0  0  0  0  0  0  0  0  0  0
  151.7581  138.1903  154.4073 H   0  0  0  0  0  0  0  0  0  0  0  0
  150.5416  137.6339  155.5464 H   0  0  0  0  0  0  0  0  0  0  0  0
  148.5869  138.0498  153.6572 H   0  0  0  0  0  0  0  0  0  0  0  0
  150.0565  139.2021  157.3968 H   0  0  0  0  0  0  0  0  0  0  0  0
  150.8140  140.0318  159.3930 H   0  0  0  0  0  0  0  0  0  0  0  0
  152.9359  138.7554  159.1777 H   0  0  0  0  0  0  0  0  0  0  0  0
  153.5741  139.9474  158.0715 H   0  0  0  0  0  0  0  0  0  0  0  0
  152.8690  140.4037  161.0090 H   0  0  0  0  0  0  0  0  0  0  0  0
  154.4781  140.3344  160.3319 H   0  0  0  0  0  0  0  0  0  0  0  0
  153.7499  142.6862  160.7013 H   0  0  0  0  0  0  0  0  0  0  0  0
  154.0732  142.3801  159.0128 H   0  0  0  0  0  0  0  0  0  0  0  0
  151.3223  142.3879  160.3287 H   0  0  0  0  0  0  0  0  0  0  0  0
  152.0056  141.9950  157.3853 H   0  0  0  0  0  0  0  0  0  0  0  0
  150.3971  142.0562  158.0610 H   0  0  0  0  0  0  0  0  0  0  0  0
  1  2  2  0  0  0  0
  2  3  1  0  0  0  0
  2  9  1  0  0  0  0
  3  4  1  0  0  0  0
  3 20  1  0  0  0  0
  3 21  1  0  0  0  0
  4  8  1  0  0  0  0
  4  5  1  0  0  0  0
  5  6  2  0  0  0  0
  5 22  1  0  0  0  0
  6  7  1  0  0  0  0
  7  8  2  0  0  0  0
  9 10  1  0  0  0  0
  9 23  1  0  0  0  0
 10 19  1  0  0  0  0
 10 11  1  0  0  0  0
 10 24  1  0  0  0  0
 11 12  1  0  0  0  0
 11 25  1  0  0  0  0
 11 26  1  0  0  0  0
 12 13  1  0  0  0  0
 12 27  1  0  0  0  0
 12 28  1  0  0  0  0
 13 14  1  0  0  0  0
 13 29  1  0  0  0  0
 13 30  1  0  0  0  0
 14 15  1  0  0  0  0
 14 19  1  0  0  0  0
 14 31  1  0  0  0  0
 15 16  1  0  0  0  0
 15 17  1  0  0  0  0
 15 18  1  0  0  0  0
 19 32  1  0  0  0  0
 19 33  1  0  0  0  0
M  END
> <s_m_source_file>
AV-unprocessed.smi

> <i_m_source_file_index>
1085

> <i_lp_mmshare_version>
43012

> <i_f3d_flags>
0

> <s_epik_input>
bjFubltjSF1uMVtDSDJdQyg9TylbTkhdW0NAQEhdMltDSDJdW0NIMl1bQ0gyXVtDQEBIXShDKEYpKEYpRilbQ0gyXTI=

> <s_epik_cmdline>
J2VwaWtfcHl0aG9uJywgJy1waCcsICc3LjAnLCAnLXRuJywgJzgnLCAnLW1hJywgJzIwMCcsICctbWV0YWxfYmluZGluZycsICctaW1hZScsICc8aW5maWxlLm1hZT4nLCAnLW9tYWUnLCAnPG91dGZpbGUubWFlPic=

> <r_lp_tautomer_probability>
1

> <r_epik_Ionization_Penalty>
8.41315e-07

> <r_epik_Ionization_Penalty_Charging>
0

> <r_epik_Ionization_Penalty_Neutral>
8.41315e-07

> <r_epik_State_Penalty>
-0

> <r_epik_Charging_Adjusted_Penalty>
0

> <i_epik_Tot_Q>
0

> <i_epik_Tot_abs_Q>
0

> <r_epik_Metal_State_Penalty>
-0

> <b_epik_Metal_Only>
0

> <s_lp_Force_Field>
OPLS_2005

> <r_lp_Energy>
12.0143

> <b_lp_Chiralities_Consistent>
1

> <s_lp_Variant>
AV-unprocessed.smi:1085-2

> <Gold.Version>
5.8.1

> <Gold.Id.Protein>
6NUR|6NUR_protein|mol2

> <Gold.PLP.Fitness>
48.7154

> <Gold.PLP.PLP>
-39.2484

> <Gold.PLP.part.hbond>
-3.9564

> <Gold.PLP.part.metal>
0.0000

> <Gold.PLP.part.buried>
-4.6761

> <Gold.PLP.part.nonpolar>
-35.5192

> <Gold.PLP.part.repulsive>
5.7971

> <Gold.PLP.ligand.clash>
0.0000

> <Gold.PLP.ligand.torsion>
0.7969

> <Gold.PLP.Chemscore.Hbond>
2.7057

> <Gold.PLP.Chemscore.CHOScore>
0.9699

> <Gold.PLP.Chemscore.Metal>
0.0000

> <Gold.Chemscore.Hbonds>
donor molecule, donor type, donor heavy atom, donor atom, acceptor molecule, acceptor atom, score
      P1  H  7989  7998       L1     8  0.78
      P1  H  7997  8008       L1     1  1.00
      P1  H  8011  8017       L1     7  0.90
      L1  C     5    22       P1  7948  0.91

> <Gold.PLP.Chemscore.Internal.Correction>
0.0337

> <Gold.Rescore>
     Score         DG    S(hbond)    S(metal)    S(lipo)     H(rot)  DE(clash)    DE(int)     intcor
     11.59     -14.53       1.98        0.00      65.61       2.05       0.94       2.00       ----

> <Gold.Chemscore.Fitness>
11.5897

> <Gold.Chemscore.DG>
-14.5349

> <Gold.Chemscore.ZeroCoef>
-5.4800

> <Gold.Chemscore.Hbond>
1.9807

> <Gold.Chemscore.Metal>
0.0000

> <Gold.Chemscore.Lipo>
65.6071

> <Gold.Chemscore.Internal_Hbond>
0.0000

> <Gold.Chemscore.DEClash>
0.9420

> <Gold.Chemscore.DEInternal>
2.0032

> <Gold.Chemscore.Rot>
2.0456

> <Gold.Chemscore.Internal.Correction>
   9.000000E+99

> <Gold.Chemscore.Hbonds>
donor molecule, donor type, donor heavy atom, donor atom, acceptor molecule, acceptor atom, score
      P1  H  7989  7998       L1     8  0.13
      P1  H  7997  8008       L1     1  0.93
      P1  H  8011  8017       L1     7  0.56

> <Gold.Chemscore.Hbond.Weighted>
-6.6156

> <Gold.Chemscore.Metal.Weighted>
-0.0000

> <Gold.Chemscore.Lipo.Weighted>
-7.6760

> <Gold.Chemscore.Internal_Hbond.Weighted>
0.0000

> <Gold.Chemscore.DEClash.Weighted>
0.9420

> <Gold.Chemscore.DEInternal.Weighted>
2.0032

> <Gold.Chemscore.Rot.Weighted>
5.2368

> <Gold.Chemscore.Internal.Correction.Weighted>
   9.000000E+99

> <Gold.Protein.RotatedTorsions>
[ 6907 6896 6895 6894 ] final  138.13 input  -60.11 | X-H torsion
[ 7974 7965 7964 7962 ] final  -53.93 input  175.53 | X-H torsion
[ 8008 7997 7996 7995 ] final  -33.13 input   59.86 | X-H torsion
[ 10167 10162 10161 10158 ] final -121.84 input  -65.29 | X-H torsion
[ 10718 10713 10712 10709 ] final  123.33 input   66.30 | X-H torsion
[ 10763 10752 10751 10750 ] final  -96.71 input  -60.55 | X-H torsion
[ 11005 11000 10999 10996 ] final -139.12 input  -57.11 | X-H torsion

> <Gold.Protein.ActiveResidues>
 VAL166  LYS551  ARG553  GLY616  TRP617  ASP618  TYR619  PRO620  LYS621  CYS622 
 ASP623  PHE694  ASN695  SER759  ASP760  ASP761  ALA762  ILE779  LEU786  VAL792 
 PHE793  MET794  SER795  GLU796  ALA797  LYS798  CYS799  TRP800  GLU811  SER814 

> <Gold.Protein.RotatedAtoms>
  152.2702  133.5375  159.5433 H   0  0  0  0  0  0  0  0  0  0  0  0  # atno 6907 bound_to 6896
  150.7156  134.0709  159.3873 H   0  0  0  0  0  0  0  0  0  0  0  0  # atno 6908 bound_to 6896
  151.8624  135.0519  160.0521 H   0  0  0  0  0  0  0  0  0  0  0  0  # atno 6909 bound_to 6896
  145.8912  140.8069  142.9790 H   0  0  0  0  0  0  0  0  0  0  0  0  # atno 7974 bound_to 7965
  154.4158  140.1719  156.1839 H   0  0  0  0  0  0  0  0  0  0  0  0  # atno 8008 bound_to 7997
  155.9659  140.3389  155.6508 H   0  0  0  0  0  0  0  0  0  0  0  0  # atno 8009 bound_to 7997
  155.6688  140.0709  157.2518 H   0  0  0  0  0  0  0  0  0  0  0  0  # atno 8010 bound_to 7997
  140.0207  143.5347  152.2222 H   0  0  0  0  0  0  0  0  0  0  0  0  # atno 10167 bound_to 10162
  157.5673  131.1086  150.8431 H   0  0  0  0  0  0  0  0  0  0  0  0  # atno 10718 bound_to 10713
  154.7264  135.5073  153.8892 H   0  0  0  0  0  0  0  0  0  0  0  0  # atno 10763 bound_to 10752
  153.0908  135.6658  153.9866 H   0  0  0  0  0  0  0  0  0  0  0  0  # atno 10764 bound_to 10752
  153.9677  135.3041  155.3409 H   0  0  0  0  0  0  0  0  0  0  0  0  # atno 10765 bound_to 10752
  140.8551  134.2238  157.4739 H   0  0  0  0  0  0  0  0  0  0  0  0  # atno 11005 bound_to 11000
  144.6730  140.1533  143.7428 LP  0  0  0  0  0  0  0  0  0  0  0  0  # atno 17320 bound_to 7965
  145.8905  139.2373  143.1552 LP  0  0  0  0  0  0  0  0  0  0  0  0  # atno 17321 bound_to 7965
  139.6141  144.7615  151.2885 LP  0  0  0  0  0  0  0  0  0  0  0  0  # atno 17342 bound_to 10162
  140.7343  143.6769  150.8034 LP  0  0  0  0  0  0  0  0  0  0  0  0  # atno 17343 bound_to 10162
  156.8913  130.5213  149.5286 LP  0  0  0  0  0  0  0  0  0  0  0  0  # atno 17370 bound_to 10713
  156.0720  130.5751  150.9402 LP  0  0  0  0  0  0  0  0  0  0  0  0  # atno 17371 bound_to 10713
  139.8705  134.9702  156.4693 LP  0  0  0  0  0  0  0  0  0  0  0  0  # atno 17394 bound_to 11000
  140.8747  133.7962  155.9401 LP  0  0  0  0  0  0  0  0  0  0  0  0  # atno 17395 bound_to 11000

$$$$
