AV-unprocessed.smi:1571|AV-procd|sdf|6326|dock8
  -GOLD-   22720 6533D 1   1.00000     0.00000
 Structure written by MMmdl.
 37 38  0  0  0  0  0  0  0  0  1 V2000
  147.4932  135.1717  162.7723 C   0  0  0  0  0  0  0  0  0  0  0  0
  147.7435  134.3007  161.5746 C   0  0  0  0  0  0  0  0  0  0  0  0
  148.0464  133.0270  161.7585 N   0  0  0  0  0  0  0  0  0  0  0  0
  148.2259  132.4873  160.4817 O   0  0  0  0  0  0  0  0  0  0  0  0
  148.0206  133.4685  159.5674 C   0  0  0  0  0  0  0  0  0  0  0  0
  148.1753  133.0825  158.1352 C   0  0  0  0  0  0  0  0  0  0  0  0
  147.7078  134.6452  160.1919 C   0  0  0  0  0  0  0  0  0  0  0  0
  147.4032  135.9880  159.5720 C   0  0  0  0  0  0  0  0  0  0  0  0
  148.5689  136.5026  158.7179 C   0  0  0  0  0  0  0  0  0  0  0  0
  149.5248  135.7777  158.4376 O   0  0  0  0  0  0  0  0  0  0  0  0
  148.4635  137.7760  158.3073 N   0  0  0  0  0  0  0  0  0  0  0  0
  149.4247  138.4980  157.4772 C   0  0  0  0  0  0  0  0  0  0  0  0
  149.3857  137.9333  156.0440 C   0  0  0  0  0  0  0  0  0  0  0  0
  150.2976  138.6991  155.0750 C   0  0  0  0  0  0  0  0  0  0  0  0
  152.0484  138.6304  155.6372 S   0  0  0  0  0  0  0  0  0  0  0  0
  152.4552  137.2174  155.6801 O   0  0  0  0  0  0  0  0  0  0  0  0
  152.8374  139.6054  154.8696 O   0  0  0  0  0  0  0  0  0  0  0  0
  151.8812  139.2248  157.3704 C   0  0  0  0  0  0  0  0  0  0  0  0
  150.8208  138.4101  158.1239 C   0  0  0  0  0  0  0  0  0  0  0  0
  147.2899  136.2027  162.4840 H   0  0  0  0  0  0  0  0  0  0  0  0
  148.3578  135.1816  163.4361 H   0  0  0  0  0  0  0  0  0  0  0  0
  146.6375  134.8135  163.3451 H   0  0  0  0  0  0  0  0  0  0  0  0
  148.0126  133.9356  157.4770 H   0  0  0  0  0  0  0  0  0  0  0  0
  147.4592  132.3062  157.8652 H   0  0  0  0  0  0  0  0  0  0  0  0
  149.1782  132.6998  157.9460 H   0  0  0  0  0  0  0  0  0  0  0  0
  146.5155  135.9334  158.9411 H   0  0  0  0  0  0  0  0  0  0  0  0
  147.1794  136.7313  160.3376 H   0  0  0  0  0  0  0  0  0  0  0  0
  147.6412  138.2895  158.5904 H   0  0  0  0  0  0  0  0  0  0  0  0
  149.1474  139.5524  157.4264 H   0  0  0  0  0  0  0  0  0  0  0  0
  149.6659  136.8791  156.0520 H   0  0  0  0  0  0  0  0  0  0  0  0
  148.3633  137.9736  155.6661 H   0  0  0  0  0  0  0  0  0  0  0  0
  150.2448  138.2769  154.0716 H   0  0  0  0  0  0  0  0  0  0  0  0
  150.0008  139.7459  155.0099 H   0  0  0  0  0  0  0  0  0  0  0  0
  152.8544  139.1428  157.8546 H   0  0  0  0  0  0  0  0  0  0  0  0
  151.6123  140.2810  157.3449 H   0  0  0  0  0  0  0  0  0  0  0  0
  150.7679  138.7721  159.1513 H   0  0  0  0  0  0  0  0  0  0  0  0
  151.1371  137.3679  158.1846 H   0  0  0  0  0  0  0  0  0  0  0  0
  1  2  1  0  0  0  0
  1 20  1  0  0  0  0
  1 21  1  0  0  0  0
  1 22  1  0  0  0  0
  2  7  1  0  0  0  0
  2  3  2  0  0  0  0
  3  4  1  0  0  0  0
  4  5  1  0  0  0  0
  5  6  1  0  0  0  0
  5  7  2  0  0  0  0
  6 23  1  0  0  0  0
  6 24  1  0  0  0  0
  6 25  1  0  0  0  0
  7  8  1  0  0  0  0
  8  9  1  0  0  0  0
  8 26  1  0  0  0  0
  8 27  1  0  0  0  0
  9 10  2  0  0  0  0
  9 11  1  0  0  0  0
 11 12  1  0  0  0  0
 11 28  1  0  0  0  0
 12 19  1  0  0  0  0
 12 13  1  0  0  0  0
 12 29  1  0  0  0  0
 13 14  1  0  0  0  0
 13 30  1  0  0  0  0
 13 31  1  0  0  0  0
 14 15  1  0  0  0  0
 14 32  1  0  0  0  0
 14 33  1  0  0  0  0
 15 16  2  0  0  0  0
 15 17  2  0  0  0  0
 15 18  1  0  0  0  0
 18 19  1  0  0  0  0
 18 34  1  0  0  0  0
 18 35  1  0  0  0  0
 19 36  1  0  0  0  0
 19 37  1  0  0  0  0
M  END
> <s_m_source_file>
AV-unprocessed.smi

> <i_m_source_file_index>
1571

> <i_lp_mmshare_version>
43012

> <i_f3d_flags>
0

> <s_epik_input>
W0NIM11jMW5vYyhbQ0gzXSljMVtDSDJdQyg9TylbTkhdW0NIXShbQ0gyXVtDSDJdMilbQ0gyXVtDSDJdUzIoPU8pPU8=

> <s_epik_cmdline>
J2VwaWtfcHl0aG9uJywgJy1waCcsICc3LjAnLCAnLXRuJywgJzgnLCAnLW1hJywgJzIwMCcsICctbWV0YWxfYmluZGluZycsICctaW1hZScsICc8aW5maWxlLm1hZT4nLCAnLW9tYWUnLCAnPG91dGZpbGUubWFlPic=

> <r_lp_tautomer_probability>
1

> <r_epik_Ionization_Penalty>
4.0065e-08

> <r_epik_Ionization_Penalty_Charging>
0

> <r_epik_Ionization_Penalty_Neutral>
4.0065e-08

> <r_epik_State_Penalty>
-0

> <r_epik_Charging_Adjusted_Penalty>
0

> <i_epik_Tot_Q>
0

> <i_epik_Tot_abs_Q>
0

> <r_epik_Metal_State_Penalty>
-0

> <b_epik_Metal_Only>
0

> <s_lp_Force_Field>
OPLS_2005

> <r_lp_Energy>
-11.0004

> <b_lp_Chiralities_Consistent>
1

> <s_lp_Variant>
AV-unprocessed.smi:1571-1

> <Gold.Version>
5.8.1

> <Gold.Id.Protein>
6NUR|6NUR_protein|mol2

> <Gold.PLP.Fitness>
34.2354

> <Gold.PLP.PLP>
-25.3780

> <Gold.PLP.part.hbond>
-4.0000

> <Gold.PLP.part.metal>
0.0000

> <Gold.PLP.part.buried>
-4.9207

> <Gold.PLP.part.nonpolar>
-17.0578

> <Gold.PLP.part.repulsive>
0.1611

> <Gold.PLP.ligand.clash>
0.0000

> <Gold.PLP.ligand.torsion>
0.1654

> <Gold.PLP.Chemscore.Hbond>
3.0596

> <Gold.PLP.Chemscore.CHOScore>
0.0000

> <Gold.PLP.Chemscore.Metal>
0.0000

> <Gold.Chemscore.Hbonds>
donor molecule, donor type, donor heavy atom, donor atom, acceptor molecule, acceptor atom, score
      P1  H  6896  6908       L1    10  1.00
      P1  H  7989  7998       L1    17  0.31
      P1  H  7997  8010       L1    17  1.00
      P1  H 10752 10763       L1    16  0.74

> <Gold.PLP.Chemscore.Internal.Correction>
0.0096

> <Gold.Rescore>
     Score         DG    S(hbond)    S(metal)    S(lipo)     H(rot)  DE(clash)    DE(int)     intcor
     14.61     -15.90       2.68        0.00      44.59       1.46       0.00       1.30       ----

> <Gold.Chemscore.Fitness>
14.6086

> <Gold.Chemscore.DG>
-15.9041

> <Gold.Chemscore.ZeroCoef>
-5.4800

> <Gold.Chemscore.Hbond>
2.6782

> <Gold.Chemscore.Metal>
0.0000

> <Gold.Chemscore.Lipo>
44.5861

> <Gold.Chemscore.Internal_Hbond>
0.0000

> <Gold.Chemscore.DEClash>
0.0000

> <Gold.Chemscore.DEInternal>
1.2955

> <Gold.Chemscore.Rot>
1.4601

> <Gold.Chemscore.Internal.Correction>
   9.000000E+99

> <Gold.Chemscore.Hbonds>
donor molecule, donor type, donor heavy atom, donor atom, acceptor molecule, acceptor atom, score
      P1  H  6896  6908       L1    10  0.93
      P1  H  7989  7998       L1    17  0.27
      P1  H  7997  8010       L1    17  0.79
      P1  H 10752 10763       L1    16  0.71

> <Gold.Chemscore.Hbond.Weighted>
-8.9454

> <Gold.Chemscore.Metal.Weighted>
-0.0000

> <Gold.Chemscore.Lipo.Weighted>
-5.2166

> <Gold.Chemscore.Internal_Hbond.Weighted>
0.0000

> <Gold.Chemscore.DEClash.Weighted>
0.0000

> <Gold.Chemscore.DEInternal.Weighted>
1.2955

> <Gold.Chemscore.Rot.Weighted>
3.7379

> <Gold.Chemscore.Internal.Correction.Weighted>
   9.000000E+99

> <Gold.Protein.RotatedTorsions>
[ 6907 6896 6895 6894 ] final  162.92 input  -60.11 | X-H torsion
[ 7974 7965 7964 7962 ] final  -43.11 input  175.53 | X-H torsion
[ 8008 7997 7996 7995 ] final  104.89 input   59.86 | X-H torsion
[ 10167 10162 10161 10158 ] final  113.96 input  -65.29 | X-H torsion
[ 10718 10713 10712 10709 ] final  -94.49 input   66.30 | X-H torsion
[ 10763 10752 10751 10750 ] final   72.45 input  -60.55 | X-H torsion
[ 11005 11000 10999 10996 ] final  -31.16 input  -57.11 | X-H torsion

> <Gold.Protein.ActiveResidues>
 VAL166  LYS551  ARG553  GLY616  TRP617  ASP618  TYR619  PRO620  LYS621  CYS622 
 ASP623  PHE694  ASN695  SER759  ASP760  ASP761  ALA762  ILE779  LEU786  VAL792 
 PHE793  MET794  SER795  GLU796  ALA797  LYS798  CYS799  TRP800  GLU811  SER814 

> <Gold.Protein.RotatedAtoms>
  151.9331  133.3616  159.3937 H   0  0  0  0  0  0  0  0  0  0  0  0  # atno 6907 bound_to 6896
  150.7013  134.4517  159.5349 H   0  0  0  0  0  0  0  0  0  0  0  0  # atno 6908 bound_to 6896
  152.2161  134.8456  160.0542 H   0  0  0  0  0  0  0  0  0  0  0  0  # atno 6909 bound_to 6896
  146.0051  140.7029  142.9251 H   0  0  0  0  0  0  0  0  0  0  0  0  # atno 7974 bound_to 7965
  156.1612  140.3140  155.8811 H   0  0  0  0  0  0  0  0  0  0  0  0  # atno 8008 bound_to 7997
  155.3778  140.0486  157.3061 H   0  0  0  0  0  0  0  0  0  0  0  0  # atno 8009 bound_to 7997
  154.5148  140.2177  155.9097 H   0  0  0  0  0  0  0  0  0  0  0  0  # atno 8010 bound_to 7997
  139.6423  144.7124  151.2212 H   0  0  0  0  0  0  0  0  0  0  0  0  # atno 10167 bound_to 10162
  156.0028  130.5070  150.5934 H   0  0  0  0  0  0  0  0  0  0  0  0  # atno 10718 bound_to 10713
  153.0460  135.5099  154.7746 H   0  0  0  0  0  0  0  0  0  0  0  0  # atno 10763 bound_to 10752
  154.6646  135.2943  154.9825 H   0  0  0  0  0  0  0  0  0  0  0  0  # atno 10764 bound_to 10752
  154.0664  135.6683  153.4871 H   0  0  0  0  0  0  0  0  0  0  0  0  # atno 10765 bound_to 10752
  140.9444  133.7259  156.1125 H   0  0  0  0  0  0  0  0  0  0  0  0  # atno 11005 bound_to 11000
  144.6933  140.3301  143.7217 LP  0  0  0  0  0  0  0  0  0  0  0  0  # atno 17320 bound_to 7965
  145.7428  139.1769  143.2366 LP  0  0  0  0  0  0  0  0  0  0  0  0  # atno 17321 bound_to 7965
  140.7497  143.6290  150.8440 LP  0  0  0  0  0  0  0  0  0  0  0  0  # atno 17342 bound_to 10162
  139.9929  143.5827  152.2903 LP  0  0  0  0  0  0  0  0  0  0  0  0  # atno 17343 bound_to 10162
  157.3795  131.0778  151.1489 LP  0  0  0  0  0  0  0  0  0  0  0  0  # atno 17370 bound_to 10713
  157.2216  130.6484  149.5813 LP  0  0  0  0  0  0  0  0  0  0  0  0  # atno 17371 bound_to 10713
  140.7689  134.3855  157.5511 LP  0  0  0  0  0  0  0  0  0  0  0  0  # atno 17394 bound_to 11000
  139.8829  134.9009  156.2799 LP  0  0  0  0  0  0  0  0  0  0  0  0  # atno 17395 bound_to 11000

$$$$
