AV-unprocessed.smi:2271|AV-procd|sdf|9160|dock10
  -GOLD-   2272012373D 1   1.00000     0.00000
 Structure written by MMmdl.
 46 47  0  0  0  0  0  0  0  0  2 V2000
  153.4514  140.7255  160.3340 C   0  0  0  0  0  0  0  0  0  0  0  0
  152.7330  141.9553  159.8197 C   0  0  0  0  0  0  0  0  0  0  0  0
  152.8098  143.1819  160.5082 C   0  0  0  0  0  0  0  0  0  0  0  0
  152.1213  144.2858  159.9742 C   0  0  0  0  0  0  0  0  0  0  0  0
  151.3903  144.1196  158.7820 C   0  0  0  0  0  0  0  0  0  0  0  0
  151.3655  142.8543  158.1531 C   0  0  0  0  0  0  0  0  0  0  0  0
  150.5950  142.7882  156.9616 N   0  0  0  0  0  0  0  0  0  0  0  0
  150.3938  141.7261  156.1619 C   0  0  0  0  0  0  0  0  0  0  0  0
  150.9055  140.6158  156.3099 O   0  0  0  0  0  0  0  0  0  0  0  0
  149.5457  142.0211  155.1652 N   0  0  0  0  0  0  0  0  0  0  0  0
  149.1125  141.0952  154.1223 C   0  0  0  0  0  0  0  0  0  0  0  0
  147.9840  140.1526  154.5938 C   0  0  2  0  0  0  0  0  0  0  0  0
  147.6125  139.0772  153.5523 C   0  0  0  0  0  0  0  0  0  0  0  0
  146.4436  138.2012  154.0302 C   0  0  0  0  0  0  0  0  0  0  0  0
  145.2554  139.0261  154.3623 N   0  3  1  0  0  0  0  0  0  0  0  0
  144.0650  138.1988  154.6848 C   0  0  0  0  0  0  0  0  0  0  0  0
  143.6466  137.2917  153.5158 C   0  0  0  0  0  0  0  0  0  0  0  0
  143.1088  138.0727  152.4699 O   0  0  0  0  0  0  0  0  0  0  0  0
  145.5730  140.0356  155.4055 C   0  0  0  0  0  0  0  0  0  0  0  0
  146.7198  140.9541  154.9527 C   0  0  0  0  0  0  0  0  0  0  0  0
  152.0321  141.7955  158.6768 N   0  0  0  0  0  0  0  0  0  0  0  0
  153.8830  140.9022  161.3195 H   0  0  0  0  0  0  0  0  0  0  0  0
  154.2566  140.4475  159.6533 H   0  0  0  0  0  0  0  0  0  0  0  0
  152.7614  139.8846  160.4120 H   0  0  0  0  0  0  0  0  0  0  0  0
  153.3799  143.2772  161.4208 H   0  0  0  0  0  0  0  0  0  0  0  0
  152.1526  145.2449  160.4698 H   0  0  0  0  0  0  0  0  0  0  0  0
  150.8559  144.9578  158.3589 H   0  0  0  0  0  0  0  0  0  0  0  0
  150.1275  143.6433  156.7000 H   0  0  0  0  0  0  0  0  0  0  0  0
  149.1746  142.9590  155.1209 H   0  0  0  0  0  0  0  0  0  0  0  0
  148.7584  141.6970  153.2848 H   0  0  0  0  0  0  0  0  0  0  0  0
  149.9567  140.5183  153.7402 H   0  0  0  0  0  0  0  0  0  0  0  0
  148.3265  139.6443  155.4968 H   0  0  0  0  0  0  0  0  0  0  0  0
  147.3498  139.5541  152.6068 H   0  0  0  0  0  0  0  0  0  0  0  0
  148.4673  138.4334  153.3461 H   0  0  0  0  0  0  0  0  0  0  0  0
  146.1905  137.4890  153.2438 H   0  0  0  0  0  0  0  0  0  0  0  0
  146.7408  137.6182  154.9034 H   0  0  0  0  0  0  0  0  0  0  0  0
  144.2738  137.5665  155.5491 H   0  0  0  0  0  0  0  0  0  0  0  0
  143.2386  138.8482  154.9767 H   0  0  0  0  0  0  0  0  0  0  0  0
  144.5175  136.7604  153.1314 H   0  0  0  0  0  0  0  0  0  0  0  0
  142.9244  136.5345  153.8187 H   0  0  0  0  0  0  0  0  0  0  0  0
  143.6189  138.8649  152.3915 H   0  0  0  0  0  0  0  0  0  0  0  0
  144.6974  140.6463  155.6223 H   0  0  0  0  0  0  0  0  0  0  0  0
  145.8415  139.5300  156.3345 H   0  0  0  0  0  0  0  0  0  0  0  0
  146.9455  141.6711  155.7429 H   0  0  0  0  0  0  0  0  0  0  0  0
  146.3959  141.5390  154.0903 H   0  0  0  0  0  0  0  0  0  0  0  0
  145.0226  139.5328  153.5197 H   0  0  0  0  0  0  0  0  0  0  0  0
  1  2  1  0  0  0  0
  1 22  1  0  0  0  0
  1 23  1  0  0  0  0
  1 24  1  0  0  0  0
  2 21  1  0  0  0  0
  2  3  2  0  0  0  0
  3  4  1  0  0  0  0
  3 25  1  0  0  0  0
  4  5  2  0  0  0  0
  4 26  1  0  0  0  0
  5  6  1  0  0  0  0
  5 27  1  0  0  0  0
  6  7  1  0  0  0  0
  6 21  2  0  0  0  0
  7  8  1  0  0  0  0
  7 28  1  0  0  0  0
  8  9  2  0  0  0  0
  8 10  1  0  0  0  0
 10 11  1  0  0  0  0
 10 29  1  0  0  0  0
 11 12  1  0  0  0  0
 11 30  1  0  0  0  0
 11 31  1  0  0  0  0
 12 20  1  0  0  0  0
 12 13  1  0  0  0  0
 12 32  1  0  0  0  0
 13 14  1  0  0  0  0
 13 33  1  0  0  0  0
 13 34  1  0  0  0  0
 14 15  1  0  0  0  0
 14 35  1  0  0  0  0
 14 36  1  0  0  0  0
 15 16  1  0  0  0  0
 15 19  1  0  0  0  0
 15 46  1  0  0  0  0
 16 17  1  0  0  0  0
 16 37  1  0  0  0  0
 16 38  1  0  0  0  0
 17 18  1  0  0  0  0
 17 39  1  0  0  0  0
 17 40  1  0  0  0  0
 18 41  1  0  0  0  0
 19 20  1  0  0  0  0
 19 42  1  0  0  0  0
 19 43  1  0  0  0  0
 20 44  1  0  0  0  0
 20 45  1  0  0  0  0
M  CHG  1  15   1
M  END
> <s_m_source_file>
AV-unprocessed.smi

> <i_m_source_file_index>
2271

> <i_lp_mmshare_version>
43012

> <i_f3d_flags>
0

> <s_epik_input>
W0NIM11jMVtjSF1bY0hdW2NIXWMobjEpW05IXUMoPU8pW05IXVtDSDJdW0NIXTJbQ0gyXVtDSDJdTihbQ0gyXVtDSDJdMilbQ0gyXVtDSDJdW09IXQ==

> <s_epik_cmdline>
J2VwaWtfcHl0aG9uJywgJy1waCcsICc3LjAnLCAnLXRuJywgJzgnLCAnLW1hJywgJzIwMCcsICctbWV0YWxfYmluZGluZycsICctaW1hZScsICc8aW5maWxlLm1hZT4nLCAnLW9tYWUnLCAnPG91dGZpbGUubWFlPic=

> <r_epik_Ionization_Penalty>
0.00184663

> <r_epik_Ionization_Penalty_Charging>
0.00177223

> <r_epik_Ionization_Penalty_Neutral>
7.44064e-05

> <r_epik_State_Penalty>
0.00120075

> <r_epik_Charging_Adjusted_Penalty>
0.00297297

> <i_epik_Tot_Q>
1

> <i_epik_Tot_abs_Q>
1

> <r_epik_Metal_State_Penalty>
-0

> <b_epik_Metal_Only>
0

> <s_lp_Force_Field>
OPLS_2005

> <r_lp_Energy>
18.6881

> <b_lp_Chiralities_Consistent>
1

> <s_lp_Variant>
AV-unprocessed.smi:2271-1

> <Gold.Version>
5.8.1

> <Gold.Id.Protein>
6NUR|6NUR_protein|mol2

> <Gold.PLP.Fitness>
53.8726

> <Gold.PLP.PLP>
-39.2999

> <Gold.PLP.part.hbond>
-5.0000

> <Gold.PLP.part.metal>
0.0000

> <Gold.PLP.part.buried>
-3.9739

> <Gold.PLP.part.nonpolar>
-30.4863

> <Gold.PLP.part.repulsive>
0.2678

> <Gold.PLP.ligand.clash>
0.0000

> <Gold.PLP.ligand.torsion>
0.1988

> <Gold.PLP.Chemscore.Hbond>
4.9760

> <Gold.PLP.Chemscore.CHOScore>
0.0000

> <Gold.PLP.Chemscore.Metal>
0.0000

> <Gold.Chemscore.Hbonds>
donor molecule, donor type, donor heavy atom, donor atom, acceptor molecule, acceptor atom, score
      L1  H     7    28       P1  8028  1.00
      L1  H    10    29       P1  8028  1.00
      L1  H    15    46       P1 10175  1.92
      L1  H    18    41       P1 10175  0.94

> <Gold.PLP.Chemscore.Internal.Correction>
0.0422

> <Gold.Rescore>
     Score         DG    S(hbond)    S(metal)    S(lipo)     H(rot)  DE(clash)    DE(int)     intcor
     20.95     -22.47       3.87        0.00      87.05       2.39       0.04       1.48       ----

> <Gold.Chemscore.Fitness>
20.9498

> <Gold.Chemscore.DG>
-22.4697

> <Gold.Chemscore.ZeroCoef>
-5.4800

> <Gold.Chemscore.Hbond>
3.8720

> <Gold.Chemscore.Metal>
0.0000

> <Gold.Chemscore.Lipo>
87.0480

> <Gold.Chemscore.Internal_Hbond>
0.0000

> <Gold.Chemscore.DEClash>
0.0416

> <Gold.Chemscore.DEInternal>
1.4783

> <Gold.Chemscore.Rot>
2.3935

> <Gold.Chemscore.Internal.Correction>
   9.000000E+99

> <Gold.Chemscore.Hbonds>
donor molecule, donor type, donor heavy atom, donor atom, acceptor molecule, acceptor atom, score
      L1  H     7    28       P1  8028  0.98
      L1  H    10    29       P1  8028  0.99
      L1  H    15    46       P1 10175  0.91
      L1  H    18    41       P1 10175  0.88

> <Gold.Chemscore.Hbond.Weighted>
-12.9325

> <Gold.Chemscore.Metal.Weighted>
-0.0000

> <Gold.Chemscore.Lipo.Weighted>
-10.1846

> <Gold.Chemscore.Internal_Hbond.Weighted>
0.0000

> <Gold.Chemscore.DEClash.Weighted>
0.0416

> <Gold.Chemscore.DEInternal.Weighted>
1.4783

> <Gold.Chemscore.Rot.Weighted>
6.1274

> <Gold.Chemscore.Internal.Correction.Weighted>
   9.000000E+99

> <Gold.Protein.RotatedTorsions>
[ 6907 6896 6895 6894 ] final  172.79 input  -60.11 | X-H torsion
[ 7974 7965 7964 7962 ] final -131.54 input  175.53 | X-H torsion
[ 8008 7997 7996 7995 ] final   71.87 input   59.86 | X-H torsion
[ 10167 10162 10161 10158 ] final  -32.97 input  -65.29 | X-H torsion
[ 10718 10713 10712 10709 ] final -149.83 input   66.30 | X-H torsion
[ 10763 10752 10751 10750 ] final -172.30 input  -60.55 | X-H torsion
[ 11005 11000 10999 10996 ] final  -93.67 input  -57.11 | X-H torsion

> <Gold.Protein.ActiveResidues>
 VAL166  LYS551  ARG553  GLY616  TRP617  ASP618  TYR619  PRO620  LYS621  CYS622 
 ASP623  PHE694  ASN695  SER759  ASP760  ASP761  ALA762  ILE779  LEU786  VAL792 
 PHE793  MET794  SER795  GLU796  ALA797  LYS798  CYS799  TRP800  GLU811  SER814 

> <Gold.Protein.RotatedAtoms>
  151.7787  133.3347  159.3464 H   0  0  0  0  0  0  0  0  0  0  0  0  # atno 6907 bound_to 6896
  150.7434  134.5951  159.6017 H   0  0  0  0  0  0  0  0  0  0  0  0  # atno 6908 bound_to 6896
  152.3291  134.7284  160.0345 H   0  0  0  0  0  0  0  0  0  0  0  0  # atno 6909 bound_to 6896
  144.9369  140.7194  143.4871 H   0  0  0  0  0  0  0  0  0  0  0  0  # atno 7974 bound_to 7965
  155.7604  140.3486  155.5195 H   0  0  0  0  0  0  0  0  0  0  0  0  # atno 8008 bound_to 7997
  155.8919  140.1019  157.1433 H   0  0  0  0  0  0  0  0  0  0  0  0  # atno 8009 bound_to 7997
  154.4034  140.1302  156.4314 H   0  0  0  0  0  0  0  0  0  0  0  0  # atno 8010 bound_to 7997
  140.7212  143.3654  151.1880 H   0  0  0  0  0  0  0  0  0  0  0  0  # atno 10167 bound_to 10162
  156.4382  130.8109  151.2337 H   0  0  0  0  0  0  0  0  0  0  0  0  # atno 10718 bound_to 10713
  154.6208  135.2875  155.0328 H   0  0  0  0  0  0  0  0  0  0  0  0  # atno 10763 bound_to 10752
  154.1524  135.6501  153.4970 H   0  0  0  0  0  0  0  0  0  0  0  0  # atno 10764 bound_to 10752
  153.0235  135.5359  154.6997 H   0  0  0  0  0  0  0  0  0  0  0  0  # atno 10765 bound_to 10752
  141.1491  133.7903  157.0191 H   0  0  0  0  0  0  0  0  0  0  0  0  # atno 11005 bound_to 11000
  145.3052  139.1837  143.4668 LP  0  0  0  0  0  0  0  0  0  0  0  0  # atno 17320 bound_to 7965
  146.3270  140.3049  142.8623 LP  0  0  0  0  0  0  0  0  0  0  0  0  # atno 17321 bound_to 7965
  139.7215  143.9215  152.2987 LP  0  0  0  0  0  0  0  0  0  0  0  0  # atno 17342 bound_to 10162
  139.8974  144.6931  150.8703 LP  0  0  0  0  0  0  0  0  0  0  0  0  # atno 17343 bound_to 10162
  157.7507  131.0177  150.3595 LP  0  0  0  0  0  0  0  0  0  0  0  0  # atno 17370 bound_to 10713
  156.3946  130.3904  149.7004 LP  0  0  0  0  0  0  0  0  0  0  0  0  # atno 17371 bound_to 10713
  140.0827  134.9639  157.1650 LP  0  0  0  0  0  0  0  0  0  0  0  0  # atno 17394 bound_to 11000
  140.3554  134.2552  155.7193 LP  0  0  0  0  0  0  0  0  0  0  0  0  # atno 17395 bound_to 11000

$$$$
