AV-unprocessed.smi:1274|AV-procd|sdf|5340|dock10
  -GOLD-   22720 4473D 1   1.00000     0.00000
 Structure written by MMmdl.
 37 38  0  0  0  0  0  0  0  0  1 V2000
  151.7023  138.7349  158.2145 O   0  0  0  0  0  0  0  0  0  0  0  0
  152.8662  139.6282  158.1137 S   0  0  0  0  0  0  0  0  0  0  0  0
  154.1860  139.2094  158.6104 O   0  0  0  0  0  0  0  0  0  0  0  0
  153.0541  140.1337  156.4744 N   0  0  0  0  0  0  0  0  0  0  0  0
  152.0591  139.7493  155.4711 C   0  0  0  0  0  0  0  0  0  0  0  0
  152.3990  140.3213  154.0830 C   0  0  0  0  0  0  0  0  0  0  0  0
  151.2196  141.0172  153.4267 C   0  0  0  0  0  0  0  0  0  0  0  0
  150.9497  142.3776  153.6798 C   0  0  0  0  0  0  0  0  0  0  0  0
  149.8328  142.9735  153.0629 C   0  0  0  0  0  0  0  0  0  0  0  0
  149.0314  142.1808  152.2171 C   0  0  0  0  0  0  0  0  0  0  0  0
  149.2809  140.8776  151.9658 N   0  0  0  0  0  0  0  0  0  0  0  0
  150.3551  140.3148  152.5595 C   0  0  0  0  0  0  0  0  0  0  0  0
  152.4490  141.1498  158.8292 N   0  0  0  0  0  0  0  0  0  0  0  0
  153.3514  141.6697  159.8801 C   0  0  0  0  0  0  0  0  0  0  0  0
  152.7018  142.8193  160.6672 C   0  0  0  0  0  0  0  0  0  0  0  0
  152.2321  143.9348  159.7300 C   0  0  0  0  0  0  0  0  0  0  0  0
  151.2756  143.3475  158.6888 C   0  0  0  0  0  0  0  0  0  0  0  0
  151.9302  142.1890  157.9172 C   0  0  0  0  0  0  0  0  0  0  0  0
  154.0124  140.0167  156.1458 H   0  0  0  0  0  0  0  0  0  0  0  0
  152.0250  138.6607  155.4212 H   0  0  0  0  0  0  0  0  0  0  0  0
  151.0721  140.0812  155.7943 H   0  0  0  0  0  0  0  0  0  0  0  0
  153.2154  141.0382  154.1778 H   0  0  0  0  0  0  0  0  0  0  0  0
  152.7712  139.5367  153.4245 H   0  0  0  0  0  0  0  0  0  0  0  0
  151.5834  142.9534  154.3384 H   0  0  0  0  0  0  0  0  0  0  0  0
  149.5941  144.0126  153.2352 H   0  0  0  0  0  0  0  0  0  0  0  0
  148.1662  142.6048  151.7294 H   0  0  0  0  0  0  0  0  0  0  0  0
  150.5223  139.2701  152.3424 H   0  0  0  0  0  0  0  0  0  0  0  0
  153.6220  140.8718  160.5707 H   0  0  0  0  0  0  0  0  0  0  0  0
  154.2783  142.0072  159.4146 H   0  0  0  0  0  0  0  0  0  0  0  0
  151.8547  142.4381  161.2391 H   0  0  0  0  0  0  0  0  0  0  0  0
  153.4105  143.2174  161.3936 H   0  0  0  0  0  0  0  0  0  0  0  0
  151.7366  144.7229  160.2978 H   0  0  0  0  0  0  0  0  0  0  0  0
  153.0893  144.3921  159.2344 H   0  0  0  0  0  0  0  0  0  0  0  0
  150.3705  142.9917  159.1827 H   0  0  0  0  0  0  0  0  0  0  0  0
  150.9619  144.1256  157.9922 H   0  0  0  0  0  0  0  0  0  0  0  0
  152.7501  142.5584  157.2997 H   0  0  0  0  0  0  0  0  0  0  0  0
  151.1982  141.7494  157.2395 H   0  0  0  0  0  0  0  0  0  0  0  0
  1  2  2  0  0  0  0
  2  3  2  0  0  0  0
  2  4  1  0  0  0  0
  2 13  1  0  0  0  0
  4  5  1  0  0  0  0
  4 19  1  0  0  0  0
  5  6  1  0  0  0  0
  5 20  1  0  0  0  0
  5 21  1  0  0  0  0
  6  7  1  0  0  0  0
  6 22  1  0  0  0  0
  6 23  1  0  0  0  0
  7 12  1  0  0  0  0
  7  8  2  0  0  0  0
  8  9  1  0  0  0  0
  8 24  1  0  0  0  0
  9 10  2  0  0  0  0
  9 25  1  0  0  0  0
 10 11  1  0  0  0  0
 10 26  1  0  0  0  0
 11 12  2  0  0  0  0
 12 27  1  0  0  0  0
 13 18  1  0  0  0  0
 13 14  1  0  0  0  0
 14 15  1  0  0  0  0
 14 28  1  0  0  0  0
 14 29  1  0  0  0  0
 15 16  1  0  0  0  0
 15 30  1  0  0  0  0
 15 31  1  0  0  0  0
 16 17  1  0  0  0  0
 16 32  1  0  0  0  0
 16 33  1  0  0  0  0
 17 18  1  0  0  0  0
 17 34  1  0  0  0  0
 17 35  1  0  0  0  0
 18 36  1  0  0  0  0
 18 37  1  0  0  0  0
M  END
> <s_m_source_file>
AV-unprocessed.smi

> <i_m_source_file_index>
1274

> <i_lp_mmshare_version>
43012

> <i_f3d_flags>
0

> <s_epik_input>
W0NIMl0xW0NIMl1bQ0gyXVtDSDJdW0NIMl1OMVMoPU8pKD1PKVtOSF1bQ0gyXVtDSDJdYzJbY0hdW2NIXVtjSF1uW2NIXTI=

> <s_epik_cmdline>
J2VwaWtfcHl0aG9uJywgJy1waCcsICc3LjAnLCAnLXRuJywgJzgnLCAnLW1hJywgJzIwMCcsICctbWV0YWxfYmluZGluZycsICctaW1hZScsICc8aW5maWxlLm1hZT4nLCAnLW9tYWUnLCAnPG91dGZpbGUubWFlPic=

> <r_epik_Ionization_Penalty>
0.0259724

> <r_epik_Ionization_Penalty_Charging>
0

> <r_epik_Ionization_Penalty_Neutral>
0.0259724

> <r_epik_State_Penalty>
0.0167858

> <r_epik_Charging_Adjusted_Penalty>
0.0167858

> <i_epik_Tot_Q>
0

> <i_epik_Tot_abs_Q>
0

> <r_epik_Metal_State_Penalty>
0.268382

> <b_epik_Metal_Only>
0

> <s_lp_Force_Field>
OPLS_2005

> <r_lp_Energy>
7.33886

> <b_lp_Chiralities_Consistent>
1

> <s_lp_Variant>
AV-unprocessed.smi:1274-1

> <Gold.Version>
5.8.1

> <Gold.Id.Protein>
6NUR|6NUR_protein|mol2

> <Gold.PLP.Fitness>
42.2148

> <Gold.PLP.PLP>
-35.1746

> <Gold.PLP.part.hbond>
-1.8532

> <Gold.PLP.part.metal>
0.0000

> <Gold.PLP.part.buried>
-2.8585

> <Gold.PLP.part.nonpolar>
-31.4295

> <Gold.PLP.part.repulsive>
0.1912

> <Gold.PLP.ligand.clash>
0.0000

> <Gold.PLP.ligand.torsion>
1.3517

> <Gold.PLP.Chemscore.Hbond>
1.0000

> <Gold.PLP.Chemscore.CHOScore>
1.9960

> <Gold.PLP.Chemscore.Metal>
0.0000

> <Gold.Chemscore.Hbonds>
donor molecule, donor type, donor heavy atom, donor atom, acceptor molecule, acceptor atom, score
      P1  H  7997  8009       L1     3  0.55

> <Gold.PLP.Chemscore.Internal.Correction>
0.7557

> <Gold.Rescore>
     Score         DG    S(hbond)    S(metal)    S(lipo)     H(rot)  DE(clash)    DE(int)     intcor
     14.92     -16.29       0.94        0.00     102.42       1.69       0.07       1.30       ----

> <Gold.Chemscore.Fitness>
14.9221

> <Gold.Chemscore.DG>
-16.2903

> <Gold.Chemscore.ZeroCoef>
-5.4800

> <Gold.Chemscore.Hbond>
0.9435

> <Gold.Chemscore.Metal>
0.0000

> <Gold.Chemscore.Lipo>
102.4189

> <Gold.Chemscore.Internal_Hbond>
0.0000

> <Gold.Chemscore.DEClash>
0.0663

> <Gold.Chemscore.DEInternal>
1.3018

> <Gold.Chemscore.Rot>
1.6891

> <Gold.Chemscore.Internal.Correction>
   9.000000E+99

> <Gold.Chemscore.Hbonds>
donor molecule, donor type, donor heavy atom, donor atom, acceptor molecule, acceptor atom, score
      P1  H  7997  8009       L1     3  0.03

> <Gold.Chemscore.Hbond.Weighted>
-3.1514

> <Gold.Chemscore.Metal.Weighted>
-0.0000

> <Gold.Chemscore.Lipo.Weighted>
-11.9830

> <Gold.Chemscore.Internal_Hbond.Weighted>
0.0000

> <Gold.Chemscore.DEClash.Weighted>
0.0663

> <Gold.Chemscore.DEInternal.Weighted>
1.3018

> <Gold.Chemscore.Rot.Weighted>
4.3241

> <Gold.Chemscore.Internal.Correction.Weighted>
   9.000000E+99

> <Gold.Protein.RotatedTorsions>
[ 6907 6896 6895 6894 ] final  -91.53 input  -60.11 | X-H torsion
[ 7974 7965 7964 7962 ] final -165.18 input  175.53 | X-H torsion
[ 8008 7997 7996 7995 ] final  128.87 input   59.86 | X-H torsion
[ 10167 10162 10161 10158 ] final  -66.11 input  -65.29 | X-H torsion
[ 10718 10713 10712 10709 ] final  -27.48 input   66.30 | X-H torsion
[ 10763 10752 10751 10750 ] final  -89.58 input  -60.55 | X-H torsion
[ 11005 11000 10999 10996 ] final   63.52 input  -57.11 | X-H torsion

> <Gold.Protein.ActiveResidues>
 VAL166  LYS551  ARG553  GLY616  TRP617  ASP618  TYR619  PRO620  LYS621  CYS622 
 ASP623  PHE694  ASN695  SER759  ASP760  ASP761  ALA762  ILE779  LEU786  VAL792 
 PHE793  MET794  SER795  GLU796  ALA797  LYS798  CYS799  TRP800  GLU811  SER814 

> <Gold.Protein.RotatedAtoms>
  150.6894  134.2262  159.4416 H   0  0  0  0  0  0  0  0  0  0  0  0  # atno 6907 bound_to 6896
  152.0216  134.9817  160.0580 H   0  0  0  0  0  0  0  0  0  0  0  0  # atno 6908 bound_to 6896
  152.1392  133.4419  159.4795 H   0  0  0  0  0  0  0  0  0  0  0  0  # atno 6909 bound_to 6896
  144.7277  140.2852  143.6229 H   0  0  0  0  0  0  0  0  0  0  0  0  # atno 7974 bound_to 7965
  156.2924  140.2634  156.2507 H   0  0  0  0  0  0  0  0  0  0  0  0  # atno 8008 bound_to 7997
  154.9886  140.0389  157.2328 H   0  0  0  0  0  0  0  0  0  0  0  0  # atno 8009 bound_to 7997
  154.7707  140.2777  155.6145 H   0  0  0  0  0  0  0  0  0  0  0  0  # atno 8010 bound_to 7997
  140.5680  143.2316  151.6595 H   0  0  0  0  0  0  0  0  0  0  0  0  # atno 10167 bound_to 10162
  156.4376  130.4457  149.7075 H   0  0  0  0  0  0  0  0  0  0  0  0  # atno 10718 bound_to 10713
  154.6568  135.5335  153.7969 H   0  0  0  0  0  0  0  0  0  0  0  0  # atno 10763 bound_to 10752
  153.0418  135.6496  154.0933 H   0  0  0  0  0  0  0  0  0  0  0  0  # atno 10764 bound_to 10752
  154.0845  135.2944  155.3264 H   0  0  0  0  0  0  0  0  0  0  0  0  # atno 10765 bound_to 10752
  140.0019  134.6429  155.9917 H   0  0  0  0  0  0  0  0  0  0  0  0  # atno 11005 bound_to 11000
  145.7910  139.1927  143.2103 LP  0  0  0  0  0  0  0  0  0  0  0  0  # atno 17320 bound_to 7965
  146.0756  140.7821  142.9667 LP  0  0  0  0  0  0  0  0  0  0  0  0  # atno 17321 bound_to 7965
  139.5103  144.3547  152.0619 LP  0  0  0  0  0  0  0  0  0  0  0  0  # atno 17342 bound_to 10162
  140.2682  144.3993  150.6161 LP  0  0  0  0  0  0  0  0  0  0  0  0  # atno 17343 bound_to 10162
  156.3952  130.7647  151.2651 LP  0  0  0  0  0  0  0  0  0  0  0  0  # atno 17370 bound_to 10713
  157.7507  131.0256  150.3926 LP  0  0  0  0  0  0  0  0  0  0  0  0  # atno 17371 bound_to 10713
  141.1648  133.6537  156.4442 LP  0  0  0  0  0  0  0  0  0  0  0  0  # atno 17394 bound_to 11000
  140.4712  134.6751  157.5130 LP  0  0  0  0  0  0  0  0  0  0  0  0  # atno 17395 bound_to 11000

$$$$
