AV-unprocessed.smi:273|AV-procd|sdf|2054|dock3
  -GOLD-   2262021293D 1   1.00000     0.00000
 Structure written by MMmdl.
 59 62  0  0  0  0  0  0  0  0  1 V2000
  152.8177  142.8450  161.7532 C   0  0  0  0  0  0  0  0  0  0  0  0
  153.2663  142.1091  160.4870 C   0  0  0  0  0  0  0  0  0  0  0  0
  152.1245  141.8222  159.6303 N   0  0  0  0  0  0  0  0  0  0  0  0
  152.1300  140.9335  158.6241 C   0  0  0  0  0  0  0  0  0  0  0  0
  153.1251  140.2676  158.3374 O   0  0  0  0  0  0  0  0  0  0  0  0
  150.8339  140.7434  157.8135 C   0  0  0  0  0  0  0  0  0  0  0  0
  150.3007  139.3015  157.9507 C   0  0  0  0  0  0  0  0  0  0  0  0
  148.9903  139.1105  157.1693 C   0  0  0  0  0  0  0  0  0  0  0  0
  149.1478  139.5179  155.7723 N   0  0  0  0  0  0  0  0  0  0  0  0
  148.2092  139.1066  154.8813 C   0  0  0  0  0  0  0  0  0  0  0  0
  147.5961  140.0149  154.0753 N   0  0  0  0  0  0  0  0  0  0  0  0
  146.6750  139.6216  153.1910 C   0  0  0  0  0  0  0  0  0  0  0  0
  146.2204  138.3905  152.9522 N   0  0  0  0  0  0  0  0  0  0  0  0
  146.8242  137.4745  153.7616 C   0  0  0  0  0  0  0  0  0  0  0  0
  147.8195  137.7435  154.7436 C   0  0  0  0  0  0  0  0  0  0  0  0
  148.1869  136.5618  155.3772 N   0  0  0  0  0  0  0  0  0  0  0  0
  147.4619  135.6468  154.7944 C   0  0  0  0  0  0  0  0  0  0  0  0
  146.6005  136.1097  153.8258 N   0  0  0  0  0  0  0  0  0  0  0  0
  145.6873  135.3155  153.0212 C   0  0  0  0  0  0  0  0  0  0  0  0
  146.1895  135.0204  151.5838 C   0  0  2  0  0  0  0  0  0  0  0  0
  145.6111  136.0752  150.6119 C   0  0  0  0  0  0  0  0  0  0  0  0
  146.3055  137.3028  150.7003 O   0  0  0  0  0  0  0  0  0  0  0  0
  145.9269  133.5649  151.0968 C   0  0  2  0  0  0  0  0  0  0  0  0
  144.4683  133.1473  150.9920 C   0  0  0  0  0  0  0  0  0  0  0  0
  144.5475  131.6245  150.9997 C   0  0  0  0  0  0  0  0  0  0  0  0
  145.7126  131.2963  151.7457 O   0  0  0  0  0  0  0  0  0  0  0  0
  146.4394  132.4800  152.0515 C   0  0  0  0  0  0  0  0  0  0  0  0
  149.6257  140.8863  155.5808 C   0  0  0  0  0  0  0  0  0  0  0  0
  150.9576  141.1066  156.3146 C   0  0  0  0  0  0  0  0  0  0  0  0
  153.6688  143.0549  162.4011 H   0  0  0  0  0  0  0  0  0  0  0  0
  152.1043  142.2498  162.3243 H   0  0  0  0  0  0  0  0  0  0  0  0
  152.3432  143.7961  161.5092 H   0  0  0  0  0  0  0  0  0  0  0  0
  153.9915  142.7163  159.9431 H   0  0  0  0  0  0  0  0  0  0  0  0
  153.7617  141.1747  160.7543 H   0  0  0  0  0  0  0  0  0  0  0  0
  151.2733  142.3348  159.8098 H   0  0  0  0  0  0  0  0  0  0  0  0
  150.0997  141.4169  158.2584 H   0  0  0  0  0  0  0  0  0  0  0  0
  151.0461  138.5963  157.5792 H   0  0  0  0  0  0  0  0  0  0  0  0
  150.1324  139.0500  158.9987 H   0  0  0  0  0  0  0  0  0  0  0  0
  148.6904  138.0630  157.2244 H   0  0  0  0  0  0  0  0  0  0  0  0
  148.1943  139.6989  157.6280 H   0  0  0  0  0  0  0  0  0  0  0  0
  146.2395  140.4060  152.5897 H   0  0  0  0  0  0  0  0  0  0  0  0
  147.5292  134.6032  155.0650 H   0  0  0  0  0  0  0  0  0  0  0  0
  145.4753  134.3815  153.5425 H   0  0  0  0  0  0  0  0  0  0  0  0
  144.7440  135.8615  152.9814 H   0  0  0  0  0  0  0  0  0  0  0  0
  147.2690  135.1751  151.5765 H   0  0  0  0  0  0  0  0  0  0  0  0
  145.6709  135.7170  149.5837 H   0  0  0  0  0  0  0  0  0  0  0  0
  144.5540  136.2541  150.8074 H   0  0  0  0  0  0  0  0  0  0  0  0
  145.7090  138.0028  150.4822 H   0  0  0  0  0  0  0  0  0  0  0  0
  146.3971  133.4167  150.1235 H   0  0  0  0  0  0  0  0  0  0  0  0
  143.9072  133.4966  151.8599 H   0  0  0  0  0  0  0  0  0  0  0  0
  143.9737  133.5124  150.0935 H   0  0  0  0  0  0  0  0  0  0  0  0
  143.6568  131.1666  151.4300 H   0  0  0  0  0  0  0  0  0  0  0  0
  144.6680  131.2438  149.9850 H   0  0  0  0  0  0  0  0  0  0  0  0
  147.5119  132.3097  151.9559 H   0  0  0  0  0  0  0  0  0  0  0  0
  146.2309  132.7489  153.0881 H   0  0  0  0  0  0  0  0  0  0  0  0
  149.7539  141.1259  154.5263 H   0  0  0  0  0  0  0  0  0  0  0  0
  148.8728  141.5756  155.9653 H   0  0  0  0  0  0  0  0  0  0  0  0
  151.2633  142.1469  156.1956 H   0  0  0  0  0  0  0  0  0  0  0  0
  151.7274  140.4957  155.8400 H   0  0  0  0  0  0  0  0  0  0  0  0
  1  2  1  0  0  0  0
  1 30  1  0  0  0  0
  1 31  1  0  0  0  0
  1 32  1  0  0  0  0
  2  3  1  0  0  0  0
  2 33  1  0  0  0  0
  2 34  1  0  0  0  0
  3  4  1  0  0  0  0
  3 35  1  0  0  0  0
  4  5  2  0  0  0  0
  4  6  1  0  0  0  0
  6 29  1  0  0  0  0
  6  7  1  0  0  0  0
  6 36  1  0  0  0  0
  7  8  1  0  0  0  0
  7 37  1  0  0  0  0
  7 38  1  0  0  0  0
  8  9  1  0  0  0  0
  8 39  1  0  0  0  0
  8 40  1  0  0  0  0
  9 10  1  0  0  0  0
  9 28  1  0  0  0  0
 10 15  1  0  0  0  0
 10 11  2  0  0  0  0
 11 12  1  0  0  0  0
 12 13  2  0  0  0  0
 12 41  1  0  0  0  0
 13 14  1  0  0  0  0
 14 18  1  0  0  0  0
 14 15  2  0  0  0  0
 15 16  1  0  0  0  0
 16 17  2  0  0  0  0
 17 18  1  0  0  0  0
 17 42  1  0  0  0  0
 18 19  1  0  0  0  0
 19 20  1  0  0  0  0
 19 43  1  0  0  0  0
 19 44  1  0  0  0  0
 20 21  1  0  0  0  0
 20 23  1  0  0  0  0
 20 45  1  0  0  0  0
 21 22  1  0  0  0  0
 21 46  1  0  0  0  0
 21 47  1  0  0  0  0
 22 48  1  0  0  0  0
 23 27  1  0  0  0  0
 23 24  1  0  0  0  0
 23 49  1  0  0  0  0
 24 25  1  0  0  0  0
 24 50  1  0  0  0  0
 24 51  1  0  0  0  0
 25 26  1  0  0  0  0
 25 52  1  0  0  0  0
 25 53  1  0  0  0  0
 26 27  1  0  0  0  0
 27 54  1  0  0  0  0
 27 55  1  0  0  0  0
 28 29  1  0  0  0  0
 28 56  1  0  0  0  0
 28 57  1  0  0  0  0
 29 58  1  0  0  0  0
 29 59  1  0  0  0  0
M  END
> <s_m_source_file>
AV-unprocessed.smi

> <i_m_source_file_index>
273

> <i_lp_mmshare_version>
43012

> <i_f3d_flags>
0

> <s_epik_input>
W0NIM11bQ0gyXVtOSF1DKD1PKVtDSF0xW0NIMl1bQ0gyXU4oW0NIMl1bQ0gyXTEpYyhuW2NIXW4yKWMoYzIzKW5bY0hdbjNbQ0gyXVtDQEhdKFtDSDJdW09IXSlbQ0BASF00W0NIMl1bQ0gyXU9bQ0gyXTQ=

> <s_epik_cmdline>
J2VwaWtfcHl0aG9uJywgJy1waCcsICc3LjAnLCAnLXRuJywgJzgnLCAnLW1hJywgJzIwMCcsICctbWV0YWxfYmluZGluZycsICctaW1hZScsICc8aW5maWxlLm1hZT4nLCAnLW9tYWUnLCAnPG91dGZpbGUubWFlPic=

> <r_lp_tautomer_probability>
1

> <r_epik_Ionization_Penalty>
0.00226556

> <r_epik_Ionization_Penalty_Charging>
0

> <r_epik_Ionization_Penalty_Neutral>
0.00226556

> <r_epik_State_Penalty>
0.00139883

> <r_epik_Charging_Adjusted_Penalty>
0.00139883

> <i_epik_Tot_Q>
0

> <i_epik_Tot_abs_Q>
0

> <r_epik_Metal_State_Penalty>
-0

> <b_epik_Metal_Only>
0

> <s_lp_Force_Field>
OPLS_2005

> <r_lp_Energy>
46.1121

> <b_lp_Chiralities_Consistent>
1

> <s_lp_Variant>
AV-unprocessed.smi:273-1

> <Gold.Version>
5.8.1

> <Gold.Id.Protein>
6NUR|6NUR_protein|mol2

> <Gold.PLP.Fitness>
47.8902

> <Gold.PLP.PLP>
-39.9867

> <Gold.PLP.part.hbond>
-3.8322

> <Gold.PLP.part.metal>
0.0000

> <Gold.PLP.part.buried>
-1.7831

> <Gold.PLP.part.nonpolar>
-34.2387

> <Gold.PLP.part.repulsive>
0.7749

> <Gold.PLP.ligand.clash>
0.0000

> <Gold.PLP.ligand.torsion>
1.3345

> <Gold.PLP.Chemscore.Hbond>
2.8480

> <Gold.PLP.Chemscore.CHOScore>
0.4744

> <Gold.PLP.Chemscore.Metal>
0.0000

> <Gold.Chemscore.Hbonds>
donor molecule, donor type, donor heavy atom, donor atom, acceptor molecule, acceptor atom, score
      L1  H    22    48       P1 10171  0.99
      P1  H  7954  7966       L1    22  0.84
      P1  H  7997  8008       L1     5  0.93
      L1  C    12    41       P1 10175  0.71

> <Gold.PLP.Chemscore.Internal.Correction>
0.6055

> <Gold.Rescore>
     Score         DG    S(hbond)    S(metal)    S(lipo)     H(rot)  DE(clash)    DE(int)     intcor
     13.11     -15.00       2.29        0.00      86.52       3.22       0.22       1.67       ----

> <Gold.Chemscore.Fitness>
13.1092

> <Gold.Chemscore.DG>
-14.9997

> <Gold.Chemscore.ZeroCoef>
-5.4800

> <Gold.Chemscore.Hbond>
2.2908

> <Gold.Chemscore.Metal>
0.0000

> <Gold.Chemscore.Lipo>
86.5219

> <Gold.Chemscore.Internal_Hbond>
0.0000

> <Gold.Chemscore.DEClash>
0.2204

> <Gold.Chemscore.DEInternal>
1.6701

> <Gold.Chemscore.Rot>
3.2244

> <Gold.Chemscore.Internal.Correction>
   9.000000E+99

> <Gold.Chemscore.Hbonds>
donor molecule, donor type, donor heavy atom, donor atom, acceptor molecule, acceptor atom, score
      L1  H    22    48       P1 10171  0.87
      P1  H  7954  7966       L1    22  0.42
      P1  H  7997  8008       L1     5  0.89

> <Gold.Chemscore.Hbond.Weighted>
-7.6512

> <Gold.Chemscore.Metal.Weighted>
-0.0000

> <Gold.Chemscore.Lipo.Weighted>
-10.1231

> <Gold.Chemscore.Internal_Hbond.Weighted>
0.0000

> <Gold.Chemscore.DEClash.Weighted>
0.2204

> <Gold.Chemscore.DEInternal.Weighted>
1.6701

> <Gold.Chemscore.Rot.Weighted>
8.2545

> <Gold.Chemscore.Internal.Correction.Weighted>
   9.000000E+99

> <Gold.Protein.RotatedTorsions>
[ 6907 6896 6895 6894 ] final  -73.63 input  -60.11 | X-H torsion
[ 7974 7965 7964 7962 ] final   10.29 input  175.53 | X-H torsion
[ 8008 7997 7996 7995 ] final  -84.65 input   59.86 | X-H torsion
[ 10167 10162 10161 10158 ] final  178.75 input  -65.29 | X-H torsion
[ 10718 10713 10712 10709 ] final   62.37 input   66.30 | X-H torsion
[ 10763 10752 10751 10750 ] final   97.86 input  -60.55 | X-H torsion
[ 11005 11000 10999 10996 ] final -157.14 input  -57.11 | X-H torsion

> <Gold.Protein.ActiveResidues>
 VAL166  LYS551  ARG553  GLY616  TRP617  ASP618  TYR619  PRO620  LYS621  CYS622 
 ASP623  PHE694  ASN695  SER759  ASP760  ASP761  ALA762  ILE779  LEU786  VAL792 
 PHE793  MET794  SER795  GLU796  ALA797  LYS798  CYS799  TRP800  GLU811  SER814 

> <Gold.Protein.RotatedAtoms>
  150.7123  134.4989  159.5551 H   0  0  0  0  0  0  0  0  0  0  0  0  # atno 6907 bound_to 6896
  152.2590  134.8051  160.0443 H   0  0  0  0  0  0  0  0  0  0  0  0  # atno 6908 bound_to 6896
  151.8771  133.3452  159.3791 H   0  0  0  0  0  0  0  0  0  0  0  0  # atno 6909 bound_to 6896
  146.2391  139.9656  142.8453 H   0  0  0  0  0  0  0  0  0  0  0  0  # atno 7974 bound_to 7965
  154.6321  140.0602  156.9745 H   0  0  0  0  0  0  0  0  0  0  0  0  # atno 8008 bound_to 7997
  155.1649  140.3286  155.4385 H   0  0  0  0  0  0  0  0  0  0  0  0  # atno 8009 bound_to 7997
  156.2488  140.1924  156.6754 H   0  0  0  0  0  0  0  0  0  0  0  0  # atno 8010 bound_to 7997
  139.5307  144.2643  152.0681 H   0  0  0  0  0  0  0  0  0  0  0  0  # atno 10167 bound_to 10162
  157.5896  130.9046  149.9580 H   0  0  0  0  0  0  0  0  0  0  0  0  # atno 10718 bound_to 10713
  153.2820  135.4168  155.1088 H   0  0  0  0  0  0  0  0  0  0  0  0  # atno 10763 bound_to 10752
  154.8492  135.3497  154.6099 H   0  0  0  0  0  0  0  0  0  0  0  0  # atno 10764 bound_to 10752
  153.6519  135.7052  153.5263 H   0  0  0  0  0  0  0  0  0  0  0  0  # atno 10765 bound_to 10752
  140.6679  134.4279  157.5232 H   0  0  0  0  0  0  0  0  0  0  0  0  # atno 11005 bound_to 11000
  145.1729  140.9730  143.4311 LP  0  0  0  0  0  0  0  0  0  0  0  0  # atno 17320 bound_to 7965
  145.0012  139.3597  143.6166 LP  0  0  0  0  0  0  0  0  0  0  0  0  # atno 17321 bound_to 7965
  140.2105  144.4567  150.6388 LP  0  0  0  0  0  0  0  0  0  0  0  0  # atno 17342 bound_to 10162
  140.6483  143.2218  151.6135 LP  0  0  0  0  0  0  0  0  0  0  0  0  # atno 17343 bound_to 10162
  156.0949  130.3660  150.0325 LP  0  0  0  0  0  0  0  0  0  0  0  0  # atno 17370 bound_to 10713
  156.8450  130.9439  151.3629 LP  0  0  0  0  0  0  0  0  0  0  0  0  # atno 17371 bound_to 10713
  139.8991  134.8598  156.1973 LP  0  0  0  0  0  0  0  0  0  0  0  0  # atno 17394 bound_to 11000
  141.0415  133.6935  156.1606 LP  0  0  0  0  0  0  0  0  0  0  0  0  # atno 17395 bound_to 11000

$$$$
