AV-unprocessed.smi:632|AV-procd|sdf|3126|dock1
  -GOLD-   22720 0 43D 1   1.00000     0.00000
 Structure written by MMmdl.
 42 43  0  0  0  0  0  0  0  0  1 V2000
  154.4451  134.5622  163.5362 C   0  0  0  0  0  0  0  0  0  0  0  0
  155.2657  134.5905  162.2319 C   0  0  0  0  0  0  0  0  0  0  0  0
  156.7221  134.9425  162.6063 C   0  0  0  0  0  0  0  0  0  0  0  0
  155.2815  133.1985  161.5709 C   0  0  0  0  0  0  0  0  0  0  0  0
  154.6785  135.6048  161.2777 C   0  0  0  0  0  0  0  0  0  0  0  0
  154.3045  135.2724  160.0327 N   0  0  0  0  0  0  0  0  0  0  0  0
  153.7892  136.3448  159.3203 N   0  0  0  0  0  0  0  0  0  0  0  0
  153.7857  137.4709  160.0442 C   0  0  0  0  0  0  0  0  0  0  0  0
  153.3096  138.7186  159.5607 N   0  0  0  0  0  0  0  0  0  0  0  0
  153.5239  139.9449  160.0698 C   0  0  0  0  0  0  0  0  0  0  0  0
  154.1785  140.1901  161.0833 O   0  0  0  0  0  0  0  0  0  0  0  0
  152.9246  140.8901  159.3307 N   0  0  0  0  0  0  0  0  0  0  0  0
  152.9591  142.3229  159.6100 C   0  0  2  0  0  0  0  0  0  0  0  0
  152.3613  142.6218  161.0010 C   0  0  0  0  0  0  0  0  0  0  0  0
  152.3244  144.1326  161.2833 C   0  0  0  0  0  0  0  0  0  0  0  0
  151.5610  144.8854  160.1802 C   0  0  1  0  0  0  0  0  0  0  0  0
  151.6119  146.2732  160.4350 O   0  0  0  0  0  0  0  0  0  0  0  0
  152.1634  144.5947  158.7948 C   0  0  0  0  0  0  0  0  0  0  0  0
  152.1941  143.0843  158.5113 C   0  0  0  0  0  0  0  0  0  0  0  0
  154.4168  137.3086  161.6722 S   0  0  0  0  0  0  0  0  0  0  0  0
  154.8556  133.8471  164.2497 H   0  0  0  0  0  0  0  0  0  0  0  0
  153.4093  134.2751  163.3513 H   0  0  0  0  0  0  0  0  0  0  0  0
  154.4331  135.5400  164.0193 H   0  0  0  0  0  0  0  0  0  0  0  0
  156.7891  135.9148  163.0959 H   0  0  0  0  0  0  0  0  0  0  0  0
  157.3695  134.9651  161.7289 H   0  0  0  0  0  0  0  0  0  0  0  0
  157.1422  134.2083  163.2948 H   0  0  0  0  0  0  0  0  0  0  0  0
  155.7161  132.4485  162.2328 H   0  0  0  0  0  0  0  0  0  0  0  0
  155.8653  133.2034  160.6498 H   0  0  0  0  0  0  0  0  0  0  0  0
  154.2747  132.8631  161.3194 H   0  0  0  0  0  0  0  0  0  0  0  0
  152.7411  138.6717  158.7282 H   0  0  0  0  0  0  0  0  0  0  0  0
  152.4086  140.5995  158.5132 H   0  0  0  0  0  0  0  0  0  0  0  0
  153.9967  142.6626  159.5928 H   0  0  0  0  0  0  0  0  0  0  0  0
  151.3500  142.2173  161.0638 H   0  0  0  0  0  0  0  0  0  0  0  0
  152.9418  142.1215  161.7771 H   0  0  0  0  0  0  0  0  0  0  0  0
  151.8599  144.3155  162.2529 H   0  0  0  0  0  0  0  0  0  0  0  0
  153.3453  144.5113  161.3525 H   0  0  0  0  0  0  0  0  0  0  0  0
  150.5142  144.5794  160.1924 H   0  0  0  0  0  0  0  0  0  0  0  0
  152.4321  146.4710  160.8606 H   0  0  0  0  0  0  0  0  0  0  0  0
  151.5878  145.1030  158.0203 H   0  0  0  0  0  0  0  0  0  0  0  0
  153.1777  144.9932  158.7394 H   0  0  0  0  0  0  0  0  0  0  0  0
  152.6556  142.9037  157.5397 H   0  0  0  0  0  0  0  0  0  0  0  0
  151.1718  142.7092  158.4430 H   0  0  0  0  0  0  0  0  0  0  0  0
  1  2  1  0  0  0  0
  1 21  1  0  0  0  0
  1 22  1  0  0  0  0
  1 23  1  0  0  0  0
  2  3  1  0  0  0  0
  2  4  1  0  0  0  0
  2  5  1  0  0  0  0
  3 24  1  0  0  0  0
  3 25  1  0  0  0  0
  3 26  1  0  0  0  0
  4 27  1  0  0  0  0
  4 28  1  0  0  0  0
  4 29  1  0  0  0  0
  5 20  1  0  0  0  0
  5  6  2  0  0  0  0
  6  7  1  0  0  0  0
  7  8  2  0  0  0  0
  8  9  1  0  0  0  0
  8 20  1  0  0  0  0
  9 10  1  0  0  0  0
  9 30  1  0  0  0  0
 10 11  2  0  0  0  0
 10 12  1  0  0  0  0
 12 13  1  0  0  0  0
 12 31  1  0  0  0  0
 13 19  1  0  0  0  0
 13 14  1  0  0  0  0
 13 32  1  0  0  0  0
 14 15  1  0  0  0  0
 14 33  1  0  0  0  0
 14 34  1  0  0  0  0
 15 16  1  0  0  0  0
 15 35  1  0  0  0  0
 15 36  1  0  0  0  0
 16 17  1  0  0  0  0
 16 18  1  0  0  0  0
 16 37  1  0  0  0  0
 17 38  1  0  0  0  0
 18 19  1  0  0  0  0
 18 39  1  0  0  0  0
 18 40  1  0  0  0  0
 19 41  1  0  0  0  0
 19 42  1  0  0  0  0
M  END
> <s_m_source_file>
AV-unprocessed.smi

> <i_m_source_file_index>
632

> <i_lp_mmshare_version>
43012

> <i_f3d_flags>
0

> <s_epik_input>
W0NIM11DKFtDSDNdKShbQ0gzXSljMW5uYyhzMSlbTkhdQyg9TylbTkhdW0NAQEhdMltDSDJdW0NIMl1bQ0BASF0oW09IXSlbQ0gyXVtDSDJdMg==

> <s_epik_cmdline>
J2VwaWtfcHl0aG9uJywgJy1waCcsICc3LjAnLCAnLXRuJywgJzgnLCAnLW1hJywgJzIwMCcsICctbWV0YWxfYmluZGluZycsICctaW1hZScsICc8aW5maWxlLm1hZT4nLCAnLW9tYWUnLCAnPG91dGZpbGUubWFlPic=

> <r_lp_tautomer_probability>
1

> <r_epik_Ionization_Penalty>
0.000349475

> <r_epik_Ionization_Penalty_Charging>
0

> <r_epik_Ionization_Penalty_Neutral>
0.000349475

> <r_epik_State_Penalty>
-0

> <r_epik_Charging_Adjusted_Penalty>
0

> <i_epik_Tot_Q>
0

> <i_epik_Tot_abs_Q>
0

> <r_epik_Metal_State_Penalty>
0.179207

> <b_epik_Metal_Only>
0

> <s_lp_Force_Field>
OPLS_2005

> <r_lp_Energy>
2.50478

> <b_lp_Chiralities_Consistent>
1

> <s_lp_Variant>
AV-unprocessed.smi:632-1

> <Gold.Version>
5.8.1

> <Gold.Id.Protein>
6NUR|6NUR_protein|mol2

> <Gold.PLP.Fitness>
42.3785

> <Gold.PLP.PLP>
-40.4736

> <Gold.PLP.part.hbond>
-4.6400

> <Gold.PLP.part.metal>
0.0000

> <Gold.PLP.part.buried>
-6.0991

> <Gold.PLP.part.nonpolar>
-30.8689

> <Gold.PLP.part.repulsive>
0.1782

> <Gold.PLP.ligand.clash>
0.0000

> <Gold.PLP.ligand.torsion>
0.1020

> <Gold.PLP.Chemscore.Hbond>
0.7000

> <Gold.PLP.Chemscore.CHOScore>
0.0000

> <Gold.PLP.Chemscore.Metal>
0.0000

> <Gold.Chemscore.Hbonds>
donor molecule, donor type, donor heavy atom, donor atom, acceptor molecule, acceptor atom, score
      P1  H  6896  6909       L1     6  0.65

> <Gold.PLP.Chemscore.Internal.Correction>
0.0089

> <Gold.Rescore>
     Score         DG    S(hbond)    S(metal)    S(lipo)     H(rot)  DE(clash)    DE(int)     intcor
     11.14     -13.34       0.12        0.00     101.00       1.70       0.28       1.92       ----

> <Gold.Chemscore.Fitness>
11.1420

> <Gold.Chemscore.DG>
-13.3437

> <Gold.Chemscore.ZeroCoef>
-5.4800

> <Gold.Chemscore.Hbond>
0.1168

> <Gold.Chemscore.Metal>
0.0000

> <Gold.Chemscore.Lipo>
101.0028

> <Gold.Chemscore.Internal_Hbond>
0.0000

> <Gold.Chemscore.DEClash>
0.2825

> <Gold.Chemscore.DEInternal>
1.9193

> <Gold.Chemscore.Rot>
1.6968

> <Gold.Chemscore.Internal.Correction>
   9.000000E+99

> <Gold.Chemscore.Hbonds>
donor molecule, donor type, donor heavy atom, donor atom, acceptor molecule, acceptor atom, score
      P1  H  6896  6909       L1     6  0.05

> <Gold.Chemscore.Hbond.Weighted>
-0.3902

> <Gold.Chemscore.Metal.Weighted>
-0.0000

> <Gold.Chemscore.Lipo.Weighted>
-11.8173

> <Gold.Chemscore.Internal_Hbond.Weighted>
0.0000

> <Gold.Chemscore.DEClash.Weighted>
0.2825

> <Gold.Chemscore.DEInternal.Weighted>
1.9193

> <Gold.Chemscore.Rot.Weighted>
4.3438

> <Gold.Chemscore.Internal.Correction.Weighted>
   9.000000E+99

> <Gold.Protein.RotatedTorsions>
[ 6907 6896 6895 6894 ] final -149.92 input  -60.11 | X-H torsion
[ 7974 7965 7964 7962 ] final  155.93 input  175.53 | X-H torsion
[ 8008 7997 7996 7995 ] final   80.26 input   59.86 | X-H torsion
[ 10167 10162 10161 10158 ] final   76.44 input  -65.29 | X-H torsion
[ 10718 10713 10712 10709 ] final   38.01 input   66.30 | X-H torsion
[ 10763 10752 10751 10750 ] final  -84.36 input  -60.55 | X-H torsion
[ 11005 11000 10999 10996 ] final    4.83 input  -57.11 | X-H torsion

> <Gold.Protein.ActiveResidues>
 VAL166  LYS551  ARG553  GLY616  TRP617  ASP618  TYR619  PRO620  LYS621  CYS622 
 ASP623  PHE694  ASN695  SER759  ASP760  ASP761  ALA762  ILE779  LEU786  VAL792 
 PHE793  MET794  SER795  GLU796  ALA797  LYS798  CYS799  TRP800  GLU811  SER814 

> <Gold.Protein.RotatedAtoms>
  151.1911  133.4667  159.2594 H   0  0  0  0  0  0  0  0  0  0  0  0  # atno 6907 bound_to 6896
  151.1163  135.0054  159.8527 H   0  0  0  0  0  0  0  0  0  0  0  0  # atno 6908 bound_to 6896
  152.5453  134.1826  159.8694 H   0  0  0  0  0  0  0  0  0  0  0  0  # atno 6909 bound_to 6896
  144.7994  139.7135  143.6188 H   0  0  0  0  0  0  0  0  0  0  0  0  # atno 7974 bound_to 7965
  155.8810  140.3444  155.5888 H   0  0  0  0  0  0  0  0  0  0  0  0  # atno 8008 bound_to 7997
  155.7719  140.0846  157.2122 H   0  0  0  0  0  0  0  0  0  0  0  0  # atno 8009 bound_to 7997
  154.4024  140.1516  156.2939 H   0  0  0  0  0  0  0  0  0  0  0  0  # atno 8010 bound_to 7997
  139.9922  144.5748  150.7808 H   0  0  0  0  0  0  0  0  0  0  0  0  # atno 10167 bound_to 10162
  157.3537  130.7612  149.6997 H   0  0  0  0  0  0  0  0  0  0  0  0  # atno 10718 bound_to 10713
  154.5986  135.5523  153.7351 H   0  0  0  0  0  0  0  0  0  0  0  0  # atno 10763 bound_to 10752
  153.0145  135.6361  154.1747 H   0  0  0  0  0  0  0  0  0  0  0  0  # atno 10764 bound_to 10752
  154.1687  135.2893  155.3067 H   0  0  0  0  0  0  0  0  0  0  0  0  # atno 10765 bound_to 10752
  140.5776  134.0044  155.8034 H   0  0  0  0  0  0  0  0  0  0  0  0  # atno 11005 bound_to 11000
  146.2272  139.5744  142.9579 LP  0  0  0  0  0  0  0  0  0  0  0  0  # atno 17320 bound_to 7965
  145.5591  141.0406  143.2236 LP  0  0  0  0  0  0  0  0  0  0  0  0  # atno 17321 bound_to 7965
  140.7450  143.2869  151.3437 LP  0  0  0  0  0  0  0  0  0  0  0  0  # atno 17342 bound_to 10162
  139.6332  144.0681  152.2493 LP  0  0  0  0  0  0  0  0  0  0  0  0  # atno 17343 bound_to 10162
  155.9726  130.4133  150.4076 LP  0  0  0  0  0  0  0  0  0  0  0  0  # atno 17370 bound_to 10713
  157.2143  131.0467  151.2582 LP  0  0  0  0  0  0  0  0  0  0  0  0  # atno 17371 bound_to 10713
  141.1017  133.9758  157.3067 LP  0  0  0  0  0  0  0  0  0  0  0  0  # atno 17394 bound_to 11000
  139.9332  135.0198  156.8471 LP  0  0  0  0  0  0  0  0  0  0  0  0  # atno 17395 bound_to 11000

$$$$
