AV-unprocessed.smi:326|AV-procd|sdf|2345|dock3
  -GOLD-   2262022253D 1   1.00000     0.00000
 Structure written by MMmdl.
 44 45  0  0  0  0  0  0  0  0  1 V2000
  153.4905  141.4482  159.8553 C   0  0  0  0  0  0  0  0  0  0  0  0
  153.6101  142.5780  160.7013 O   0  0  0  0  0  0  0  0  0  0  0  0
  152.5691  142.6506  161.6624 C   0  0  0  0  0  0  0  0  0  0  0  0
  151.6215  143.8060  161.3027 C   0  0  0  0  0  0  0  0  0  0  0  0
  151.5482  144.0198  159.8532 N   0  0  0  0  0  0  0  0  0  0  0  0
  151.2519  142.8764  159.1313 N   0  0  0  0  0  0  0  0  0  0  0  0
  151.1620  142.9258  157.8415 C   0  0  0  0  0  0  0  0  0  0  0  0
  150.8444  141.7179  157.0316 C   0  0  0  0  0  0  0  0  0  0  0  0
  151.2976  140.6070  157.3122 O   0  0  0  0  0  0  0  0  0  0  0  0
  150.0406  141.9349  155.9755 N   0  0  0  0  0  0  0  0  0  0  0  0
  149.6212  140.9345  154.9969 C   0  0  2  0  0  0  0  0  0  0  0  0
  148.6976  141.5609  153.9319 C   0  0  0  0  0  0  0  0  0  0  0  0
  147.3286  141.9589  154.5131 C   0  0  0  0  0  0  0  0  0  0  0  0
  146.6351  140.7680  155.2025 C   0  0  2  0  0  0  0  0  0  0  0  0
  145.2734  141.1706  155.7858 C   0  0  0  0  0  0  0  0  0  0  0  0
  147.5510  140.1611  156.2824 C   0  0  0  0  0  0  0  0  0  0  0  0
  148.9206  139.7599  155.7055 C   0  0  0  0  0  0  0  0  0  0  0  0
  151.3656  144.1758  157.1289 C   0  0  0  0  0  0  0  0  0  0  0  0
  151.6610  145.2819  157.8463 C   0  0  0  0  0  0  0  0  0  0  0  0
  151.7765  145.2513  159.3053 C   0  0  0  0  0  0  0  0  0  0  0  0
  152.0560  146.2423  159.9795 O   0  0  0  0  0  0  0  0  0  0  0  0
  154.3114  141.4397  159.1381 H   0  0  0  0  0  0  0  0  0  0  0  0
  152.5544  141.4719  159.2959 H   0  0  0  0  0  0  0  0  0  0  0  0
  153.5337  140.5203  160.4273 H   0  0  0  0  0  0  0  0  0  0  0  0
  152.0127  141.7123  161.6663 H   0  0  0  0  0  0  0  0  0  0  0  0
  152.9806  142.7868  162.6639 H   0  0  0  0  0  0  0  0  0  0  0  0
  150.6279  143.6041  161.7073 H   0  0  0  0  0  0  0  0  0  0  0  0
  151.9525  144.7203  161.7981 H   0  0  0  0  0  0  0  0  0  0  0  0
  149.7122  142.8780  155.8250 H   0  0  0  0  0  0  0  0  0  0  0  0
  150.5098  140.5407  154.5004 H   0  0  0  0  0  0  0  0  0  0  0  0
  149.1765  142.4286  153.4765 H   0  0  0  0  0  0  0  0  0  0  0  0
  148.5458  140.8429  153.1250 H   0  0  0  0  0  0  0  0  0  0  0  0
  147.4565  142.7753  155.2254 H   0  0  0  0  0  0  0  0  0  0  0  0
  146.6951  142.3471  153.7148 H   0  0  0  0  0  0  0  0  0  0  0  0
  146.4544  140.0021  154.4467 H   0  0  0  0  0  0  0  0  0  0  0  0
  145.3816  141.9372  156.5535 H   0  0  0  0  0  0  0  0  0  0  0  0
  144.7722  140.3146  156.2384 H   0  0  0  0  0  0  0  0  0  0  0  0
  144.6152  141.5651  155.0111 H   0  0  0  0  0  0  0  0  0  0  0  0
  147.6894  140.8766  157.0943 H   0  0  0  0  0  0  0  0  0  0  0  0
  147.0740  139.2862  156.7253 H   0  0  0  0  0  0  0  0  0  0  0  0
  148.7805  138.9460  154.9931 H   0  0  0  0  0  0  0  0  0  0  0  0
  149.5575  139.3625  156.4969 H   0  0  0  0  0  0  0  0  0  0  0  0
  151.2872  144.2267  156.0524 H   0  0  0  0  0  0  0  0  0  0  0  0
  151.8172  146.2174  157.3296 H   0  0  0  0  0  0  0  0  0  0  0  0
  1  2  1  0  0  0  0
  1 22  1  0  0  0  0
  1 23  1  0  0  0  0
  1 24  1  0  0  0  0
  2  3  1  0  0  0  0
  3  4  1  0  0  0  0
  3 25  1  0  0  0  0
  3 26  1  0  0  0  0
  4  5  1  0  0  0  0
  4 27  1  0  0  0  0
  4 28  1  0  0  0  0
  5 20  1  0  0  0  0
  5  6  1  0  0  0  0
  6  7  2  0  0  0  0
  7  8  1  0  0  0  0
  7 18  1  0  0  0  0
  8  9  2  0  0  0  0
  8 10  1  0  0  0  0
 10 11  1  0  0  0  0
 10 29  1  0  0  0  0
 11 17  1  0  0  0  0
 11 12  1  0  0  0  0
 11 30  1  0  0  0  0
 12 13  1  0  0  0  0
 12 31  1  0  0  0  0
 12 32  1  0  0  0  0
 13 14  1  0  0  0  0
 13 33  1  0  0  0  0
 13 34  1  0  0  0  0
 14 15  1  0  0  0  0
 14 16  1  0  0  0  0
 14 35  1  0  0  0  0
 15 36  1  0  0  0  0
 15 37  1  0  0  0  0
 15 38  1  0  0  0  0
 16 17  1  0  0  0  0
 16 39  1  0  0  0  0
 16 40  1  0  0  0  0
 17 41  1  0  0  0  0
 17 42  1  0  0  0  0
 18 19  2  0  0  0  0
 18 43  1  0  0  0  0
 19 20  1  0  0  0  0
 19 44  1  0  0  0  0
 20 21  2  0  0  0  0
M  END
> <s_m_source_file>
AV-unprocessed.smi

> <i_m_source_file_index>
326

> <i_lp_mmshare_version>
43012

> <i_f3d_flags>
0

> <s_epik_input>
W0NIM11PW0NIMl1bQ0gyXW4xbmMoW2NIXVtjSF1jMT1PKUMoPU8pW05IXVtDQEBIXTJbQ0gyXVtDSDJdW0NAQEhdKFtDSDNdKVtDSDJdW0NIMl0y

> <s_epik_cmdline>
J2VwaWtfcHl0aG9uJywgJy1waCcsICc3LjAnLCAnLXRuJywgJzgnLCAnLW1hJywgJzIwMCcsICctbWV0YWxfYmluZGluZycsICctaW1hZScsICc8aW5maWxlLm1hZT4nLCAnLW9tYWUnLCAnPG91dGZpbGUubWFlPic=

> <r_lp_tautomer_probability>
1

> <r_epik_Ionization_Penalty>
6.47102e-07

> <r_epik_Ionization_Penalty_Charging>
6.8576e-09

> <r_epik_Ionization_Penalty_Neutral>
6.40245e-07

> <r_epik_State_Penalty>
-0

> <r_epik_Charging_Adjusted_Penalty>
6.8576e-09

> <i_epik_Tot_Q>
0

> <i_epik_Tot_abs_Q>
0

> <r_epik_Metal_State_Penalty>
-0

> <b_epik_Metal_Only>
0

> <s_lp_Force_Field>
OPLS_2005

> <r_lp_Energy>
28.5252

> <b_lp_Chiralities_Consistent>
1

> <s_lp_Variant>
AV-unprocessed.smi:326-2

> <Gold.Version>
5.8.1

> <Gold.Id.Protein>
6NUR|6NUR_protein|mol2

> <Gold.PLP.Fitness>
38.5171

> <Gold.PLP.PLP>
-37.7184

> <Gold.PLP.part.hbond>
-2.0000

> <Gold.PLP.part.metal>
0.0000

> <Gold.PLP.part.buried>
-0.6273

> <Gold.PLP.part.nonpolar>
-36.2806

> <Gold.PLP.part.repulsive>
0.3295

> <Gold.PLP.ligand.clash>
0.0000

> <Gold.PLP.ligand.torsion>
1.1415

> <Gold.PLP.Chemscore.Hbond>
1.0000

> <Gold.PLP.Chemscore.CHOScore>
0.0000

> <Gold.PLP.Chemscore.Metal>
0.0000

> <Gold.Chemscore.Hbonds>
donor molecule, donor type, donor heavy atom, donor atom, acceptor molecule, acceptor atom, score
      L1  H    10    29       P1  8028  1.00

> <Gold.PLP.Chemscore.Internal.Correction>
0.0818

> <Gold.Rescore>
     Score         DG    S(hbond)    S(metal)    S(lipo)     H(rot)  DE(clash)    DE(int)     intcor
      8.61     -16.68       1.00        0.00     101.04       1.55       3.45       4.61       ----

> <Gold.Chemscore.Fitness>
8.6106

> <Gold.Chemscore.DG>
-16.6789

> <Gold.Chemscore.ZeroCoef>
-5.4800

> <Gold.Chemscore.Hbond>
0.9999

> <Gold.Chemscore.Metal>
0.0000

> <Gold.Chemscore.Lipo>
101.0395

> <Gold.Chemscore.Internal_Hbond>
0.0000

> <Gold.Chemscore.DEClash>
3.4548

> <Gold.Chemscore.DEInternal>
4.6135

> <Gold.Chemscore.Rot>
1.5478

> <Gold.Chemscore.Internal.Correction>
   9.000000E+99

> <Gold.Chemscore.Hbonds>
donor molecule, donor type, donor heavy atom, donor atom, acceptor molecule, acceptor atom, score
      L1  H    10    29       P1  8028  0.93

> <Gold.Chemscore.Hbond.Weighted>
-3.3395

> <Gold.Chemscore.Metal.Weighted>
-0.0000

> <Gold.Chemscore.Lipo.Weighted>
-11.8216

> <Gold.Chemscore.Internal_Hbond.Weighted>
0.0000

> <Gold.Chemscore.DEClash.Weighted>
3.4548

> <Gold.Chemscore.DEInternal.Weighted>
4.6135

> <Gold.Chemscore.Rot.Weighted>
3.9623

> <Gold.Chemscore.Internal.Correction.Weighted>
   9.000000E+99

> <Gold.Protein.RotatedTorsions>
[ 6907 6896 6895 6894 ] final   43.96 input  -60.11 | X-H torsion
[ 7974 7965 7964 7962 ] final -146.04 input  175.53 | X-H torsion
[ 8008 7997 7996 7995 ] final   90.30 input   59.86 | X-H torsion
[ 10167 10162 10161 10158 ] final   10.26 input  -65.29 | X-H torsion
[ 10718 10713 10712 10709 ] final   35.98 input   66.30 | X-H torsion
[ 10763 10752 10751 10750 ] final   46.89 input  -60.55 | X-H torsion
[ 11005 11000 10999 10996 ] final -161.39 input  -57.11 | X-H torsion

> <Gold.Protein.ActiveResidues>
 VAL166  LYS551  ARG553  GLY616  TRP617  ASP618  TYR619  PRO620  LYS621  CYS622 
 ASP623  PHE694  ASN695  SER759  ASP760  ASP761  ALA762  ILE779  LEU786  VAL792 
 PHE793  MET794  SER795  GLU796  ALA797  LYS798  CYS799  TRP800  GLU811  SER814 

> <Gold.Protein.RotatedAtoms>
  152.2267  134.8361  160.0478 H   0  0  0  0  0  0  0  0  0  0  0  0  # atno 6907 bound_to 6896
  151.9125  133.3560  159.3877 H   0  0  0  0  0  0  0  0  0  0  0  0  # atno 6908 bound_to 6896
  150.7014  134.4643  159.5439 H   0  0  0  0  0  0  0  0  0  0  0  0  # atno 6909 bound_to 6896
  144.8186  140.5506  143.5594 H   0  0  0  0  0  0  0  0  0  0  0  0  # atno 7974 bound_to 7965
  156.0103  140.3351  155.6934 H   0  0  0  0  0  0  0  0  0  0  0  0  # atno 8008 bound_to 7997
  155.6167  140.0671  157.2708 H   0  0  0  0  0  0  0  0  0  0  0  0  # atno 8009 bound_to 7997
  154.4279  140.1784  156.1316 H   0  0  0  0  0  0  0  0  0  0  0  0  # atno 8010 bound_to 7997
  140.6205  143.8215  150.7169 H   0  0  0  0  0  0  0  0  0  0  0  0  # atno 10167 bound_to 10162
  157.3293  130.7489  149.6836 H   0  0  0  0  0  0  0  0  0  0  0  0  # atno 10718 bound_to 10713
  152.9805  135.5993  154.3674 H   0  0  0  0  0  0  0  0  0  0  0  0  # atno 10763 bound_to 10752
  154.3350  135.2768  155.2454 H   0  0  0  0  0  0  0  0  0  0  0  0  # atno 10764 bound_to 10752
  154.4561  135.5977  153.6279 H   0  0  0  0  0  0  0  0  0  0  0  0  # atno 10765 bound_to 10752
  140.6209  134.4751  157.5223 H   0  0  0  0  0  0  0  0  0  0  0  0  # atno 11005 bound_to 11000
  145.5157  139.1478  143.3580 LP  0  0  0  0  0  0  0  0  0  0  0  0  # atno 17320 bound_to 7965
  146.2490  140.5298  142.8901 LP  0  0  0  0  0  0  0  0  0  0  0  0  # atno 17321 bound_to 7965
  140.1804  143.4120  152.1937 LP  0  0  0  0  0  0  0  0  0  0  0  0  # atno 17342 bound_to 10162
  139.5434  144.7277  151.4659 LP  0  0  0  0  0  0  0  0  0  0  0  0  # atno 17343 bound_to 10162
  155.9694  130.4200  150.4401 LP  0  0  0  0  0  0  0  0  0  0  0  0  # atno 17370 bound_to 10713
  157.2431  131.0530  151.2425 LP  0  0  0  0  0  0  0  0  0  0  0  0  # atno 17371 bound_to 10713
  139.9154  134.8258  156.1386 LP  0  0  0  0  0  0  0  0  0  0  0  0  # atno 17394 bound_to 11000
  141.0743  133.6783  156.2203 LP  0  0  0  0  0  0  0  0  0  0  0  0  # atno 17395 bound_to 11000

$$$$
