AV-unprocessed.smi:2163|AV-procd|sdf|8805|dock5
  -GOLD-   2272011593D 1   1.00000     0.00000
 Structure written by MMmdl.
 43 45  0  0  0  0  0  0  0  0  1 V2000
  151.6371  138.9589  155.2054 C   0  0  0  0  0  0  0  0  0  0  0  0
  151.7840  139.9800  156.2885 C   0  0  0  0  0  0  0  0  0  0  0  0
  152.6112  139.8055  157.3196 N   0  0  0  0  0  0  0  0  0  0  0  0
  152.4260  140.9602  158.0549 C   0  0  0  0  0  0  0  0  0  0  0  0
  153.0174  141.3822  159.2673 C   0  0  0  0  0  0  0  0  0  0  0  0
  152.6640  142.6213  159.8405 C   0  0  0  0  0  0  0  0  0  0  0  0
  151.7171  143.4551  159.2111 C   0  0  0  0  0  0  0  0  0  0  0  0
  151.1161  143.0541  158.0023 C   0  0  0  0  0  0  0  0  0  0  0  0
  151.4724  141.8164  157.4344 C   0  0  0  0  0  0  0  0  0  0  0  0
  151.0807  141.1398  156.2837 N   0  0  0  0  0  0  0  0  0  0  0  0
  150.1099  141.6063  155.3018 C   0  0  0  0  0  0  0  0  0  0  0  0
  148.6530  141.4300  155.7758 C   0  0  1  0  0  0  0  0  0  0  0  0
  148.4174  142.2868  156.8757 O   0  0  0  0  0  0  0  0  0  0  0  0
  147.6449  141.7758  154.6689 C   0  0  0  0  0  0  0  0  0  0  0  0
  146.3310  141.7024  155.2075 O   0  0  0  0  0  0  0  0  0  0  0  0
  145.5043  142.7964  155.0665 C   0  0  0  0  0  0  0  0  0  0  0  0
  145.7060  143.6089  153.9316 C   0  0  0  0  0  0  0  0  0  0  0  0
  144.9065  144.7458  153.7063 C   0  0  0  0  0  0  0  0  0  0  0  0
  143.8902  145.0859  154.6199 C   0  0  0  0  0  0  0  0  0  0  0  0
  143.0222  146.3028  154.3772 C   0  0  0  0  0  0  0  0  0  0  0  0
  141.6147  145.9375  154.1590 C   0  0  0  0  0  0  0  0  0  0  0  0
  140.5072  145.6503  153.9867 N   0  0  0  0  0  0  0  0  0  0  0  0
  143.6805  144.2836  155.7583 C   0  0  0  0  0  0  0  0  0  0  0  0
  144.4803  143.1461  155.9829 C   0  0  0  0  0  0  0  0  0  0  0  0
  152.3452  138.1424  155.3506 H   0  0  0  0  0  0  0  0  0  0  0  0
  151.8287  139.4069  154.2305 H   0  0  0  0  0  0  0  0  0  0  0  0
  150.6288  138.5448  155.2134 H   0  0  0  0  0  0  0  0  0  0  0  0
  153.7440  140.7508  159.7571 H   0  0  0  0  0  0  0  0  0  0  0  0
  153.1220  142.9330  160.7677 H   0  0  0  0  0  0  0  0  0  0  0  0
  151.4527  144.4030  159.6568 H   0  0  0  0  0  0  0  0  0  0  0  0
  150.3903  143.6895  157.5170 H   0  0  0  0  0  0  0  0  0  0  0  0
  150.3086  142.6493  155.0554 H   0  0  0  0  0  0  0  0  0  0  0  0
  150.2710  141.0437  154.3815 H   0  0  0  0  0  0  0  0  0  0  0  0
  148.5044  140.3977  156.0949 H   0  0  0  0  0  0  0  0  0  0  0  0
  148.4202  143.1791  156.5642 H   0  0  0  0  0  0  0  0  0  0  0  0
  147.8553  142.7606  154.2476 H   0  0  0  0  0  0  0  0  0  0  0  0
  147.7288  141.0433  153.8645 H   0  0  0  0  0  0  0  0  0  0  0  0
  146.4814  143.3562  153.2232 H   0  0  0  0  0  0  0  0  0  0  0  0
  145.0738  145.3536  152.8291 H   0  0  0  0  0  0  0  0  0  0  0  0
  143.0753  146.9767  155.2326 H   0  0  0  0  0  0  0  0  0  0  0  0
  143.3766  146.8510  153.5042 H   0  0  0  0  0  0  0  0  0  0  0  0
  142.9017  144.5377  156.4623 H   0  0  0  0  0  0  0  0  0  0  0  0
  144.2870  142.5580  156.8669 H   0  0  0  0  0  0  0  0  0  0  0  0
  1  2  1  0  0  0  0
  1 25  1  0  0  0  0
  1 26  1  0  0  0  0
  1 27  1  0  0  0  0
  2 10  1  0  0  0  0
  2  3  2  0  0  0  0
  3  4  1  0  0  0  0
  4  9  2  0  0  0  0
  4  5  1  0  0  0  0
  5  6  2  0  0  0  0
  5 28  1  0  0  0  0
  6  7  1  0  0  0  0
  6 29  1  0  0  0  0
  7  8  2  0  0  0  0
  7 30  1  0  0  0  0
  8  9  1  0  0  0  0
  8 31  1  0  0  0  0
  9 10  1  0  0  0  0
 10 11  1  0  0  0  0
 11 12  1  0  0  0  0
 11 32  1  0  0  0  0
 11 33  1  0  0  0  0
 12 13  1  0  0  0  0
 12 14  1  0  0  0  0
 12 34  1  0  0  0  0
 13 35  1  0  0  0  0
 14 15  1  0  0  0  0
 14 36  1  0  0  0  0
 14 37  1  0  0  0  0
 15 16  1  0  0  0  0
 16 24  1  0  0  0  0
 16 17  2  0  0  0  0
 17 18  1  0  0  0  0
 17 38  1  0  0  0  0
 18 19  2  0  0  0  0
 18 39  1  0  0  0  0
 19 20  1  0  0  0  0
 19 23  1  0  0  0  0
 20 21  1  0  0  0  0
 20 40  1  0  0  0  0
 20 41  1  0  0  0  0
 21 22  3  0  0  0  0
 23 24  2  0  0  0  0
 23 42  1  0  0  0  0
 24 43  1  0  0  0  0
M  END
> <s_m_source_file>
AV-unprocessed.smi

> <i_m_source_file_index>
2163

> <i_lp_mmshare_version>
43012

> <i_f3d_flags>
0

> <s_epik_input>
W2NIXTFbY0hdW2NIXVtjSF1jKGMxMiluKGMobjIpW0NIM10pW0NIMl1bQ0BIXShbT0hdKVtDSDJdT2MzW2NIXVtjSF1jKFtDSDJdQyNOKVtjSF1bY0hdMw==

> <s_epik_cmdline>
J2VwaWtfcHl0aG9uJywgJy1waCcsICc3LjAnLCAnLXRuJywgJzgnLCAnLW1hJywgJzIwMCcsICctbWV0YWxfYmluZGluZycsICctaW1hZScsICc8aW5maWxlLm1hZT4nLCAnLW9tYWUnLCAnPG91dGZpbGUubWFlPic=

> <r_lp_tautomer_probability>
1

> <r_epik_Ionization_Penalty>
0.114213

> <r_epik_Ionization_Penalty_Charging>
0

> <r_epik_Ionization_Penalty_Neutral>
0.114213

> <r_epik_State_Penalty>
0.103875

> <r_epik_Charging_Adjusted_Penalty>
0.103875

> <i_epik_Tot_Q>
0

> <i_epik_Tot_abs_Q>
0

> <r_epik_Metal_State_Penalty>
0.000113526

> <b_epik_Metal_Only>
0

> <s_lp_Force_Field>
OPLS_2005

> <r_lp_Energy>
15.853

> <b_lp_Chiralities_Consistent>
1

> <s_lp_Variant>
AV-unprocessed.smi:2163-2

> <Gold.Version>
5.8.1

> <Gold.Id.Protein>
6NUR|6NUR_protein|mol2

> <Gold.PLP.Fitness>
56.1094

> <Gold.PLP.PLP>
-49.8668

> <Gold.PLP.part.hbond>
-3.0000

> <Gold.PLP.part.metal>
0.0000

> <Gold.PLP.part.buried>
-4.2170

> <Gold.PLP.part.nonpolar>
-42.6209

> <Gold.PLP.part.repulsive>
0.1982

> <Gold.PLP.ligand.clash>
0.0000

> <Gold.PLP.ligand.torsion>
1.0347

> <Gold.PLP.Chemscore.Hbond>
2.7137

> <Gold.PLP.Chemscore.CHOScore>
0.0000

> <Gold.PLP.Chemscore.Metal>
0.0000

> <Gold.Chemscore.Hbonds>
donor molecule, donor type, donor heavy atom, donor atom, acceptor molecule, acceptor atom, score
      L1  H    13    35       P1  8028  1.00
      P1  H  7997  8008       L1     3  1.00

> <Gold.PLP.Chemscore.Internal.Correction>
0.1709

> <Gold.Rescore>
     Score         DG    S(hbond)    S(metal)    S(lipo)     H(rot)  DE(clash)    DE(int)     intcor
     17.34     -18.71       1.57        0.00     123.19       2.51       0.23       1.14       ----

> <Gold.Chemscore.Fitness>
17.3380

> <Gold.Chemscore.DG>
-18.7089

> <Gold.Chemscore.ZeroCoef>
-5.4800

> <Gold.Chemscore.Hbond>
1.5705

> <Gold.Chemscore.Metal>
0.0000

> <Gold.Chemscore.Lipo>
123.1889

> <Gold.Chemscore.Internal_Hbond>
0.0000

> <Gold.Chemscore.DEClash>
0.2330

> <Gold.Chemscore.DEInternal>
1.1379

> <Gold.Chemscore.Rot>
2.5115

> <Gold.Chemscore.Internal.Correction>
   9.000000E+99

> <Gold.Chemscore.Hbonds>
donor molecule, donor type, donor heavy atom, donor atom, acceptor molecule, acceptor atom, score
      L1  H    13    35       P1  8028  0.60
      P1  H  7997  8008       L1     3  0.14
      P1  H 10162 10167       L1    22  0.02

> <Gold.Chemscore.Hbond.Weighted>
-5.2454

> <Gold.Chemscore.Metal.Weighted>
-0.0000

> <Gold.Chemscore.Lipo.Weighted>
-14.4131

> <Gold.Chemscore.Internal_Hbond.Weighted>
0.0000

> <Gold.Chemscore.DEClash.Weighted>
0.2330

> <Gold.Chemscore.DEInternal.Weighted>
1.1379

> <Gold.Chemscore.Rot.Weighted>
6.4296

> <Gold.Chemscore.Internal.Correction.Weighted>
   9.000000E+99

> <Gold.Protein.RotatedTorsions>
[ 6907 6896 6895 6894 ] final -162.30 input  -60.11 | X-H torsion
[ 7974 7965 7964 7962 ] final   28.89 input  175.53 | X-H torsion
[ 8008 7997 7996 7995 ] final  -53.56 input   59.86 | X-H torsion
[ 10167 10162 10161 10158 ] final -172.43 input  -65.29 | X-H torsion
[ 10718 10713 10712 10709 ] final -162.12 input   66.30 | X-H torsion
[ 10763 10752 10751 10750 ] final  133.24 input  -60.55 | X-H torsion
[ 11005 11000 10999 10996 ] final   63.43 input  -57.11 | X-H torsion

> <Gold.Protein.ActiveResidues>
 VAL166  LYS551  ARG553  GLY616  TRP617  ASP618  TYR619  PRO620  LYS621  CYS622 
 ASP623  PHE694  ASN695  SER759  ASP760  ASP761  ALA762  ILE779  LEU786  VAL792 
 PHE793  MET794  SER795  GLU796  ALA797  LYS798  CYS799  TRP800  GLU811  SER814 

> <Gold.Protein.RotatedAtoms>
  151.3781  133.3831  159.2706 H   0  0  0  0  0  0  0  0  0  0  0  0  # atno 6907 bound_to 6896
  150.9599  134.8989  159.7734 H   0  0  0  0  0  0  0  0  0  0  0  0  # atno 6908 bound_to 6896
  152.5145  134.3740  159.9380 H   0  0  0  0  0  0  0  0  0  0  0  0  # atno 6909 bound_to 6896
  146.1703  139.6995  142.8972 H   0  0  0  0  0  0  0  0  0  0  0  0  # atno 7974 bound_to 7965
  154.4137  140.1197  156.5173 H   0  0  0  0  0  0  0  0  0  0  0  0  # atno 8008 bound_to 7997
  155.6738  140.3496  155.4809 H   0  0  0  0  0  0  0  0  0  0  0  0  # atno 8009 bound_to 7997
  155.9610  140.1123  157.0885 H   0  0  0  0  0  0  0  0  0  0  0  0  # atno 8010 bound_to 7997
  139.5745  144.1564  152.1431 H   0  0  0  0  0  0  0  0  0  0  0  0  # atno 10167 bound_to 10162
  156.6059  130.8830  151.2925 H   0  0  0  0  0  0  0  0  0  0  0  0  # atno 10718 bound_to 10713
  153.8039  135.3138  155.3393 H   0  0  0  0  0  0  0  0  0  0  0  0  # atno 10763 bound_to 10752
  154.8078  135.4686  154.0440 H   0  0  0  0  0  0  0  0  0  0  0  0  # atno 10764 bound_to 10752
  153.1797  135.6891  153.8583 H   0  0  0  0  0  0  0  0  0  0  0  0  # atno 10765 bound_to 10752
  140.0025  134.6420  155.9907 H   0  0  0  0  0  0  0  0  0  0  0  0  # atno 11005 bound_to 11000
  145.4358  141.0419  143.2885 LP  0  0  0  0  0  0  0  0  0  0  0  0  # atno 17320 bound_to 7965
  144.8153  139.5888  143.7011 LP  0  0  0  0  0  0  0  0  0  0  0  0  # atno 17321 bound_to 7965
  140.1104  144.5462  150.6929 LP  0  0  0  0  0  0  0  0  0  0  0  0  # atno 17342 bound_to 10162
  140.7028  143.2447  151.4814 LP  0  0  0  0  0  0  0  0  0  0  0  0  # atno 17343 bound_to 10162
  157.7267  130.9633  150.1668 LP  0  0  0  0  0  0  0  0  0  0  0  0  # atno 17370 bound_to 10713
  156.2430  130.3693  149.8316 LP  0  0  0  0  0  0  0  0  0  0  0  0  # atno 17371 bound_to 10713
  141.1652  133.6537  156.4457 LP  0  0  0  0  0  0  0  0  0  0  0  0  # atno 17394 bound_to 11000
  140.4701  134.6761  157.5125 LP  0  0  0  0  0  0  0  0  0  0  0  0  # atno 17395 bound_to 11000

$$$$
