AV-unprocessed.smi:2494|AV-procd|sdf|9822|dock8
  -GOLD-   2272013453D 1   1.00000     0.00000
 Structure written by MMmdl.
 30 31  0  0  0  0  0  0  0  0  1 V2000
  149.3858  140.7258  153.7192 O   0  0  0  0  0  0  0  0  0  0  0  0
  149.3955  140.1426  155.0044 C   0  0  0  0  0  0  0  0  0  0  0  0
  150.8456  139.8944  155.4513 C   0  0  0  0  0  0  0  0  0  0  0  0
  150.9742  139.0555  156.7512 C   0  0  1  0  0  0  0  0  0  0  0  0
  151.3147  137.5827  156.4116 C   0  0  0  0  0  0  0  0  0  0  0  0
  151.5055  136.8148  157.5923 O   0  0  0  0  0  0  0  0  0  0  0  0
  152.5910  137.3072  158.3621 C   0  0  0  0  0  0  0  0  0  0  0  0
  152.2627  138.7347  158.8137 C   0  0  0  0  0  0  0  0  0  0  0  0
  151.9888  139.5988  157.6689 N   0  0  0  0  0  0  0  0  0  0  0  0
  151.9756  140.9451  158.0112 C   0  0  0  0  0  0  0  0  0  0  0  0
  150.9832  141.7050  157.5278 N   0  0  0  0  0  0  0  0  0  0  0  0
  150.9685  143.0048  157.8948 C   0  0  0  0  0  0  0  0  0  0  0  0
  151.9472  143.5386  158.7563 C   0  0  0  0  0  0  0  0  0  0  0  0
  151.9320  145.1973  159.2299 Cl  0  0  0  0  0  0  0  0  0  0  0  0
  152.9372  142.6461  159.2129 C   0  0  0  0  0  0  0  0  0  0  0  0
  152.9444  141.3475  158.8411 N   0  0  0  0  0  0  0  0  0  0  0  0
  149.1705  140.0571  153.0869 H   0  0  0  0  0  0  0  0  0  0  0  0
  148.8875  140.8108  155.7004 H   0  0  0  0  0  0  0  0  0  0  0  0
  148.8261  139.2148  154.9614 H   0  0  0  0  0  0  0  0  0  0  0  0
  151.3983  139.4079  154.6463 H   0  0  0  0  0  0  0  0  0  0  0  0
  151.3113  140.8706  155.5820 H   0  0  0  0  0  0  0  0  0  0  0  0
  150.0177  139.0747  157.2756 H   0  0  0  0  0  0  0  0  0  0  0  0
  150.5040  137.1184  155.8518 H   0  0  0  0  0  0  0  0  0  0  0  0
  152.2065  137.5218  155.7851 H   0  0  0  0  0  0  0  0  0  0  0  0
  152.7339  136.6621  159.2290 H   0  0  0  0  0  0  0  0  0  0  0  0
  153.5161  137.2782  157.7840 H   0  0  0  0  0  0  0  0  0  0  0  0
  151.3915  138.7269  159.4703 H   0  0  0  0  0  0  0  0  0  0  0  0
  153.0957  139.1316  159.3954 H   0  0  0  0  0  0  0  0  0  0  0  0
  150.1714  143.6181  157.5013 H   0  0  0  0  0  0  0  0  0  0  0  0
  153.7229  142.9714  159.8785 H   0  0  0  0  0  0  0  0  0  0  0  0
  1  2  1  0  0  0  0
  1 17  1  0  0  0  0
  2  3  1  0  0  0  0
  2 18  1  0  0  0  0
  2 19  1  0  0  0  0
  3  4  1  0  0  0  0
  3 20  1  0  0  0  0
  3 21  1  0  0  0  0
  4  9  1  0  0  0  0
  4  5  1  0  0  0  0
  4 22  1  0  0  0  0
  5  6  1  0  0  0  0
  5 23  1  0  0  0  0
  5 24  1  0  0  0  0
  6  7  1  0  0  0  0
  7  8  1  0  0  0  0
  7 25  1  0  0  0  0
  7 26  1  0  0  0  0
  8  9  1  0  0  0  0
  8 27  1  0  0  0  0
  8 28  1  0  0  0  0
  9 10  1  0  0  0  0
 10 16  1  0  0  0  0
 10 11  2  0  0  0  0
 11 12  1  0  0  0  0
 12 13  2  0  0  0  0
 12 29  1  0  0  0  0
 13 14  1  0  0  0  0
 13 15  1  0  0  0  0
 15 16  2  0  0  0  0
 15 30  1  0  0  0  0
M  END
> <s_m_source_file>
AV-unprocessed.smi

> <i_m_source_file_index>
2494

> <i_lp_mmshare_version>
43012

> <i_f3d_flags>
0

> <s_epik_input>
W09IXVtDSDJdW0NIMl1bQ0BASF0xW0NIMl1PW0NIMl1bQ0gyXU4xYzJuW2NIXWMoQ2wpW2NIXW4y

> <s_epik_cmdline>
J2VwaWtfcHl0aG9uJywgJy1waCcsICc3LjAnLCAnLXRuJywgJzgnLCAnLW1hJywgJzIwMCcsICctbWV0YWxfYmluZGluZycsICctaW1hZScsICc8aW5maWxlLm1hZT4nLCAnLW9tYWUnLCAnPG91dGZpbGUubWFlPic=

> <r_lp_tautomer_probability>
1

> <r_epik_Ionization_Penalty>
3.66811e-07

> <r_epik_Ionization_Penalty_Charging>
0

> <r_epik_Ionization_Penalty_Neutral>
3.66811e-07

> <r_epik_State_Penalty>
-0

> <r_epik_Charging_Adjusted_Penalty>
0

> <i_epik_Tot_Q>
0

> <i_epik_Tot_abs_Q>
0

> <r_epik_Metal_State_Penalty>
-0

> <b_epik_Metal_Only>
0

> <s_lp_Force_Field>
OPLS_2005

> <r_lp_Energy>
15.3646

> <b_lp_Chiralities_Consistent>
1

> <s_lp_Variant>
AV-unprocessed.smi:2494-2

> <Gold.Version>
5.8.1

> <Gold.Id.Protein>
6NUR|6NUR_protein|mol2

> <Gold.PLP.Fitness>
37.3401

> <Gold.PLP.PLP>
-29.5275

> <Gold.PLP.part.hbond>
-2.4378

> <Gold.PLP.part.metal>
0.0000

> <Gold.PLP.part.buried>
-2.5225

> <Gold.PLP.part.nonpolar>
-23.4235

> <Gold.PLP.part.repulsive>
0.0468

> <Gold.PLP.ligand.clash>
0.0000

> <Gold.PLP.ligand.torsion>
0.8299

> <Gold.PLP.Chemscore.Hbond>
2.0528

> <Gold.PLP.Chemscore.CHOScore>
1.0000

> <Gold.PLP.Chemscore.Metal>
0.0000

> <Gold.Chemscore.Hbonds>
donor molecule, donor type, donor heavy atom, donor atom, acceptor molecule, acceptor atom, score
      L1  H     1    17       P1  7957  0.54
      P1  H  7989  7998       L1     1  0.20
      P1  H  8011  8017       L1     1  0.49
      L1  C    12    29       P1  8028  1.00

> <Gold.PLP.Chemscore.Internal.Correction>
0.3140

> <Gold.Rescore>
     Score         DG    S(hbond)    S(metal)    S(lipo)     H(rot)  DE(clash)    DE(int)     intcor
     11.17     -13.38       1.17        0.00      78.96       2.04       0.19       2.02       ----

> <Gold.Chemscore.Fitness>
11.1704

> <Gold.Chemscore.DG>
-13.3827

> <Gold.Chemscore.ZeroCoef>
-5.4800

> <Gold.Chemscore.Hbond>
1.1654

> <Gold.Chemscore.Metal>
0.0000

> <Gold.Chemscore.Lipo>
78.9645

> <Gold.Chemscore.Internal_Hbond>
0.0000

> <Gold.Chemscore.DEClash>
0.1946

> <Gold.Chemscore.DEInternal>
2.0176

> <Gold.Chemscore.Rot>
2.0424

> <Gold.Chemscore.Internal.Correction>
   9.000000E+99

> <Gold.Chemscore.Hbonds>
donor molecule, donor type, donor heavy atom, donor atom, acceptor molecule, acceptor atom, score
      L1  H     1    17       P1  7957  0.53
      P1  H  7989  7998       L1     1  0.01
      P1  H  8011  8017       L1     1  0.11

> <Gold.Chemscore.Hbond.Weighted>
-3.8923

> <Gold.Chemscore.Metal.Weighted>
-0.0000

> <Gold.Chemscore.Lipo.Weighted>
-9.2388

> <Gold.Chemscore.Internal_Hbond.Weighted>
0.0000

> <Gold.Chemscore.DEClash.Weighted>
0.1946

> <Gold.Chemscore.DEInternal.Weighted>
2.0176

> <Gold.Chemscore.Rot.Weighted>
5.2285

> <Gold.Chemscore.Internal.Correction.Weighted>
   9.000000E+99

> <Gold.Protein.RotatedTorsions>
[ 6907 6896 6895 6894 ] final  114.05 input  -60.11 | X-H torsion
[ 7974 7965 7964 7962 ] final  161.67 input  175.53 | X-H torsion
[ 8008 7997 7996 7995 ] final  145.49 input   59.86 | X-H torsion
[ 10167 10162 10161 10158 ] final  -94.90 input  -65.29 | X-H torsion
[ 10718 10713 10712 10709 ] final  -39.20 input   66.30 | X-H torsion
[ 10763 10752 10751 10750 ] final   -9.97 input  -60.55 | X-H torsion
[ 11005 11000 10999 10996 ] final  154.45 input  -57.11 | X-H torsion

> <Gold.Protein.ActiveResidues>
 VAL166  LYS551  ARG553  GLY616  TRP617  ASP618  TYR619  PRO620  LYS621  CYS622 
 ASP623  PHE694  ASN695  SER759  ASP760  ASP761  ALA762  ILE779  LEU786  VAL792 
 PHE793  MET794  SER795  GLU796  ALA797  LYS798  CYS799  TRP800  GLU811  SER814 

> <Gold.Protein.RotatedAtoms>
  152.4825  133.8290  159.7093 H   0  0  0  0  0  0  0  0  0  0  0  0  # atno 6907 bound_to 6896
  150.8886  133.7265  159.2918 H   0  0  0  0  0  0  0  0  0  0  0  0  # atno 6908 bound_to 6896
  151.4745  135.1052  159.9813 H   0  0  0  0  0  0  0  0  0  0  0  0  # atno 6909 bound_to 6896
  144.7674  139.7931  143.6310 H   0  0  0  0  0  0  0  0  0  0  0  0  # atno 7974 bound_to 7965
  156.2881  140.2207  156.5224 H   0  0  0  0  0  0  0  0  0  0  0  0  # atno 8008 bound_to 7997
  154.7517  140.0480  157.0921 H   0  0  0  0  0  0  0  0  0  0  0  0  # atno 8009 bound_to 7997
  155.0101  140.3112  155.4836 H   0  0  0  0  0  0  0  0  0  0  0  0  # atno 8010 bound_to 7997
  140.3097  143.3112  152.0162 H   0  0  0  0  0  0  0  0  0  0  0  0  # atno 10167 bound_to 10162
  156.2952  130.4233  149.8198 H   0  0  0  0  0  0  0  0  0  0  0  0  # atno 10718 bound_to 10713
  153.4624  135.7016  153.6042 H   0  0  0  0  0  0  0  0  0  0  0  0  # atno 10763 bound_to 10752
  153.4331  135.3798  155.2183 H   0  0  0  0  0  0  0  0  0  0  0  0  # atno 10764 bound_to 10752
  154.8727  135.3955  154.4051 H   0  0  0  0  0  0  0  0  0  0  0  0  # atno 10765 bound_to 10752
  140.1490  134.8687  157.2430 H   0  0  0  0  0  0  0  0  0  0  0  0  # atno 11005 bound_to 11000
  146.1793  139.4978  142.9877 LP  0  0  0  0  0  0  0  0  0  0  0  0  # atno 17320 bound_to 7965
  145.6428  141.0280  143.1802 LP  0  0  0  0  0  0  0  0  0  0  0  0  # atno 17321 bound_to 7965
  139.4896  144.6394  151.6908 LP  0  0  0  0  0  0  0  0  0  0  0  0  # atno 17342 bound_to 10162
  140.5579  144.0317  150.6156 LP  0  0  0  0  0  0  0  0  0  0  0  0  # atno 17343 bound_to 10162
  156.5597  130.8378  151.3325 LP  0  0  0  0  0  0  0  0  0  0  0  0  # atno 17370 bound_to 10713
  157.7353  130.9760  150.2076 LP  0  0  0  0  0  0  0  0  0  0  0  0  # atno 17371 bound_to 10713
  140.2627  134.3552  155.7400 LP  0  0  0  0  0  0  0  0  0  0  0  0  # atno 17394 bound_to 11000
  141.2196  133.7379  156.9105 LP  0  0  0  0  0  0  0  0  0  0  0  0  # atno 17395 bound_to 11000

$$$$
