AV-unprocessed.smi:1181|AV-procd|sdf|4966|dock6
  -GOLD-   22720 3563D 1   1.00000     0.00000
 Structure written by MMmdl.
 44 45  0  0  0  0  0  0  0  0  1 V2000
  144.6303  135.3877  150.9959 C   0  0  0  0  0  0  0  0  0  0  0  0
  145.6683  136.0551  151.6918 O   0  0  0  0  0  0  0  0  0  0  0  0
  145.5916  137.4648  151.5594 C   0  0  0  0  0  0  0  0  0  0  0  0
  146.7773  138.1043  152.2882 C   0  0  0  0  0  0  0  0  0  0  0  0
  146.3292  139.2865  152.9441 O   0  0  0  0  0  0  0  0  0  0  0  0
  147.2351  140.0086  153.6932 C   0  0  0  0  0  0  0  0  0  0  0  0
  148.4374  139.3840  154.0796 C   0  0  0  0  0  0  0  0  0  0  0  0
  149.3651  140.1143  154.8455 C   0  0  0  0  0  0  0  0  0  0  0  0
  149.0705  141.4476  155.1938 C   0  0  0  0  0  0  0  0  0  0  0  0
  150.0138  142.1539  155.9865 N   0  0  0  0  0  0  0  0  0  0  0  0
  150.9330  141.6628  156.8411 C   0  0  0  0  0  0  0  0  0  0  0  0
  151.0561  140.4613  157.0811 O   0  0  0  0  0  0  0  0  0  0  0  0
  151.6961  142.6116  157.4432 N   0  0  0  0  0  0  0  0  0  0  0  0
  151.6366  144.0650  157.2072 C   0  0  0  0  0  0  0  0  0  0  0  0
  150.9925  144.7374  158.4326 C   0  0  0  0  0  0  0  0  0  0  0  0
  151.7750  144.4083  159.7223 C   0  0  0  0  0  0  0  0  0  0  0  0
  151.0874  144.9874  160.9660 C   0  0  0  0  0  0  0  0  0  0  0  0
  152.0089  142.8874  159.8541 C   0  0  0  0  0  0  0  0  0  0  0  0
  152.5976  142.2970  158.5594 C   0  0  0  0  0  0  0  0  0  0  0  0
  147.8301  141.9823  154.7686 C   0  0  0  0  0  0  0  0  0  0  0  0
  146.9352  141.2860  154.0357 N   0  0  0  0  0  0  0  0  0  0  0  0
  144.7341  134.3109  151.1283 H   0  0  0  0  0  0  0  0  0  0  0  0
  144.6710  135.6011  149.9271 H   0  0  0  0  0  0  0  0  0  0  0  0
  143.6501  135.6804  151.3747 H   0  0  0  0  0  0  0  0  0  0  0  0
  145.6314  137.7273  150.5012 H   0  0  0  0  0  0  0  0  0  0  0  0
  144.6495  137.8456  151.9570 H   0  0  0  0  0  0  0  0  0  0  0  0
  147.2117  137.3965  152.9964 H   0  0  0  0  0  0  0  0  0  0  0  0
  147.5457  138.3641  151.5581 H   0  0  0  0  0  0  0  0  0  0  0  0
  148.6430  138.3627  153.7950 H   0  0  0  0  0  0  0  0  0  0  0  0
  150.2922  139.6551  155.1566 H   0  0  0  0  0  0  0  0  0  0  0  0
  149.9447  143.1604  155.9486 H   0  0  0  0  0  0  0  0  0  0  0  0
  152.6492  144.4455  157.0656 H   0  0  0  0  0  0  0  0  0  0  0  0
  151.0988  144.3483  156.3026 H   0  0  0  0  0  0  0  0  0  0  0  0
  150.9532  145.8171  158.2850 H   0  0  0  0  0  0  0  0  0  0  0  0
  149.9594  144.3998  158.5287 H   0  0  0  0  0  0  0  0  0  0  0  0
  152.7541  144.8823  159.6393 H   0  0  0  0  0  0  0  0  0  0  0  0
  150.0952  144.5574  161.1068 H   0  0  0  0  0  0  0  0  0  0  0  0
  150.9732  146.0686  160.8835 H   0  0  0  0  0  0  0  0  0  0  0  0
  151.6690  144.7850  161.8658 H   0  0  0  0  0  0  0  0  0  0  0  0
  152.6773  142.6834  160.6912 H   0  0  0  0  0  0  0  0  0  0  0  0
  151.0669  142.3866  160.0825 H   0  0  0  0  0  0  0  0  0  0  0  0
  152.7628  141.2260  158.6838 H   0  0  0  0  0  0  0  0  0  0  0  0
  153.5818  142.7251  158.3641 H   0  0  0  0  0  0  0  0  0  0  0  0
  147.5189  142.9812  155.0321 H   0  0  0  0  0  0  0  0  0  0  0  0
  1  2  1  0  0  0  0
  1 22  1  0  0  0  0
  1 23  1  0  0  0  0
  1 24  1  0  0  0  0
  2  3  1  0  0  0  0
  3  4  1  0  0  0  0
  3 25  1  0  0  0  0
  3 26  1  0  0  0  0
  4  5  1  0  0  0  0
  4 27  1  0  0  0  0
  4 28  1  0  0  0  0
  5  6  1  0  0  0  0
  6 21  1  0  0  0  0
  6  7  2  0  0  0  0
  7  8  1  0  0  0  0
  7 29  1  0  0  0  0
  8  9  2  0  0  0  0
  8 30  1  0  0  0  0
  9 10  1  0  0  0  0
  9 20  1  0  0  0  0
 10 11  1  0  0  0  0
 10 31  1  0  0  0  0
 11 12  2  0  0  0  0
 11 13  1  0  0  0  0
 13 19  1  0  0  0  0
 13 14  1  0  0  0  0
 14 15  1  0  0  0  0
 14 32  1  0  0  0  0
 14 33  1  0  0  0  0
 15 16  1  0  0  0  0
 15 34  1  0  0  0  0
 15 35  1  0  0  0  0
 16 17  1  0  0  0  0
 16 18  1  0  0  0  0
 16 36  1  0  0  0  0
 17 37  1  0  0  0  0
 17 38  1  0  0  0  0
 17 39  1  0  0  0  0
 18 19  1  0  0  0  0
 18 40  1  0  0  0  0
 18 41  1  0  0  0  0
 19 42  1  0  0  0  0
 19 43  1  0  0  0  0
 20 21  2  0  0  0  0
 20 44  1  0  0  0  0
M  END
> <s_m_source_file>
AV-unprocessed.smi

> <i_m_source_file_index>
1181

> <i_lp_mmshare_version>
43012

> <i_f3d_flags>
0

> <s_epik_input>
W0NIM11PW0NIMl1bQ0gyXU9jMVtjSF1bY0hdYyhbY0hdbjEpW05IXUMoPU8pTjJbQ0gyXVtDSDJdW0NIXShbQ0gzXSlbQ0gyXVtDSDJdMg==

> <s_epik_cmdline>
J2VwaWtfcHl0aG9uJywgJy1waCcsICc3LjAnLCAnLXRuJywgJzgnLCAnLW1hJywgJzIwMCcsICctbWV0YWxfYmluZGluZycsICctaW1hZScsICc8aW5maWxlLm1hZT4nLCAnLW9tYWUnLCAnPG91dGZpbGUubWFlPic=

> <r_lp_tautomer_probability>
1

> <r_epik_Ionization_Penalty>
8.49399e-05

> <r_epik_Ionization_Penalty_Charging>
0

> <r_epik_Ionization_Penalty_Neutral>
8.49399e-05

> <r_epik_State_Penalty>
-0

> <r_epik_Charging_Adjusted_Penalty>
0

> <i_epik_Tot_Q>
0

> <i_epik_Tot_abs_Q>
0

> <r_epik_Metal_State_Penalty>
-0

> <b_epik_Metal_Only>
0

> <s_lp_Force_Field>
OPLS_2005

> <r_lp_Energy>
36.0421

> <b_lp_Chiralities_Consistent>
1

> <s_lp_Variant>
AV-unprocessed.smi:1181-1

> <Gold.Version>
5.8.1

> <Gold.Id.Protein>
6NUR|6NUR_protein|mol2

> <Gold.PLP.Fitness>
40.1650

> <Gold.PLP.PLP>
-35.6660

> <Gold.PLP.part.hbond>
-1.0000

> <Gold.PLP.part.metal>
0.0000

> <Gold.PLP.part.buried>
5.1712

> <Gold.PLP.part.nonpolar>
-41.4396

> <Gold.PLP.part.repulsive>
1.5005

> <Gold.PLP.ligand.clash>
0.0000

> <Gold.PLP.ligand.torsion>
0.6640

> <Gold.PLP.Chemscore.Hbond>
0.9280

> <Gold.PLP.Chemscore.CHOScore>
1.0000

> <Gold.PLP.Chemscore.Metal>
0.0000

> <Gold.Chemscore.Hbonds>
donor molecule, donor type, donor heavy atom, donor atom, acceptor molecule, acceptor atom, score
      L1  H    10    31       P1  8028  0.99
      L1  C    20    44       P1  8028  0.96

> <Gold.PLP.Chemscore.Internal.Correction>
0.0431

> <Gold.Rescore>
     Score         DG    S(hbond)    S(metal)    S(lipo)     H(rot)  DE(clash)    DE(int)     intcor
     12.49     -17.84       0.89        0.00     114.33       1.55       3.36       1.99       ----

> <Gold.Chemscore.Fitness>
12.4949

> <Gold.Chemscore.DG>
-17.8407

> <Gold.Chemscore.ZeroCoef>
-5.4800

> <Gold.Chemscore.Hbond>
0.8851

> <Gold.Chemscore.Metal>
0.0000

> <Gold.Chemscore.Lipo>
114.3317

> <Gold.Chemscore.Internal_Hbond>
0.0000

> <Gold.Chemscore.DEClash>
3.3596

> <Gold.Chemscore.DEInternal>
1.9861

> <Gold.Chemscore.Rot>
1.5517

> <Gold.Chemscore.Internal.Correction>
   9.000000E+99

> <Gold.Chemscore.Hbonds>
donor molecule, donor type, donor heavy atom, donor atom, acceptor molecule, acceptor atom, score
      L1  H    10    31       P1  8028  0.94

> <Gold.Chemscore.Hbond.Weighted>
-2.9561

> <Gold.Chemscore.Metal.Weighted>
-0.0000

> <Gold.Chemscore.Lipo.Weighted>
-13.3768

> <Gold.Chemscore.Internal_Hbond.Weighted>
0.0000

> <Gold.Chemscore.DEClash.Weighted>
3.3596

> <Gold.Chemscore.DEInternal.Weighted>
1.9861

> <Gold.Chemscore.Rot.Weighted>
3.9723

> <Gold.Chemscore.Internal.Correction.Weighted>
   9.000000E+99

> <Gold.Protein.RotatedTorsions>
[ 6907 6896 6895 6894 ] final  -74.20 input  -60.11 | X-H torsion
[ 7974 7965 7964 7962 ] final  142.16 input  175.53 | X-H torsion
[ 8008 7997 7996 7995 ] final  156.93 input   59.86 | X-H torsion
[ 10167 10162 10161 10158 ] final -161.15 input  -65.29 | X-H torsion
[ 10718 10713 10712 10709 ] final   46.53 input   66.30 | X-H torsion
[ 10763 10752 10751 10750 ] final -128.25 input  -60.55 | X-H torsion
[ 11005 11000 10999 10996 ] final -172.15 input  -57.11 | X-H torsion

> <Gold.Protein.ActiveResidues>
 VAL166  LYS551  ARG553  GLY616  TRP617  ASP618  TYR619  PRO620  LYS621  CYS622 
 ASP623  PHE694  ASN695  SER759  ASP760  ASP761  ALA762  ILE779  LEU786  VAL792 
 PHE793  MET794  SER795  GLU796  ALA797  LYS798  CYS799  TRP800  GLU811  SER814 

> <Gold.Protein.RotatedAtoms>
  150.7102  134.4904  159.5512 H   0  0  0  0  0  0  0  0  0  0  0  0  # atno 6907 bound_to 6896
  152.2523  134.8117  160.0453 H   0  0  0  0  0  0  0  0  0  0  0  0  # atno 6908 bound_to 6896
  151.8860  133.3470  159.3819 H   0  0  0  0  0  0  0  0  0  0  0  0  # atno 6909 bound_to 6896
  144.9032  139.5394  143.5744 H   0  0  0  0  0  0  0  0  0  0  0  0  # atno 7974 bound_to 7965
  156.2394  140.1899  156.7031 H   0  0  0  0  0  0  0  0  0  0  0  0  # atno 8008 bound_to 7997
  154.6167  140.0614  156.9590 H   0  0  0  0  0  0  0  0  0  0  0  0  # atno 8009 bound_to 7997
  155.1928  140.3286  155.4358 H   0  0  0  0  0  0  0  0  0  0  0  0  # atno 8010 bound_to 7997
  139.6486  144.0125  152.2145 H   0  0  0  0  0  0  0  0  0  0  0  0  # atno 10167 bound_to 10162
  157.4490  130.8127  149.7769 H   0  0  0  0  0  0  0  0  0  0  0  0  # atno 10718 bound_to 10713
  154.8755  135.3935  154.3726 H   0  0  0  0  0  0  0  0  0  0  0  0  # atno 10763 bound_to 10752
  153.4483  135.7028  153.6130 H   0  0  0  0  0  0  0  0  0  0  0  0  # atno 10764 bound_to 10752
  153.4681  135.3797  155.2344 H   0  0  0  0  0  0  0  0  0  0  0  0  # atno 10765 bound_to 10752
  140.5002  134.5901  157.4985 H   0  0  0  0  0  0  0  0  0  0  0  0  # atno 11005 bound_to 11000
  146.3119  139.7779  142.9013 LP  0  0  0  0  0  0  0  0  0  0  0  0  # atno 17320 bound_to 7965
  145.3581  141.0320  143.3300 LP  0  0  0  0  0  0  0  0  0  0  0  0  # atno 17321 bound_to 7965
  139.9833  144.6413  150.7880 LP  0  0  0  0  0  0  0  0  0  0  0  0  # atno 17342 bound_to 10162
  140.7527  143.2995  151.3118 LP  0  0  0  0  0  0  0  0  0  0  0  0  # atno 17343 bound_to 10162
  155.9979  130.3897  150.2722 LP  0  0  0  0  0  0  0  0  0  0  0  0  # atno 17370 bound_to 10713
  157.0892  131.0165  151.3128 LP  0  0  0  0  0  0  0  0  0  0  0  0  # atno 17371 bound_to 10713
  139.9718  134.7280  156.0027 LP  0  0  0  0  0  0  0  0  0  0  0  0  # atno 17394 bound_to 11000
  141.1439  133.6559  156.3811 LP  0  0  0  0  0  0  0  0  0  0  0  0  # atno 17395 bound_to 11000

$$$$
