AV-unprocessed.smi:2068|AV-procd|sdf|8430|dock10
  -GOLD-   2272011123D 1   1.00000     0.00000
 Structure written by MMmdl.
 32 33  0  0  0  0  0  0  0  0  2 V2000
  150.1723  138.0385  152.9563 N   0  0  0  0  0  0  0  0  0  0  0  0
  150.7531  138.0842  154.1592 C   0  0  0  0  0  0  0  0  0  0  0  0
  151.5226  138.9874  154.4817 O   0  0  0  0  0  0  0  0  0  0  0  0
  150.4414  136.9466  155.1361 C   0  0  0  0  0  0  0  0  0  0  0  0
  149.9308  137.4874  156.4408 C   0  0  0  0  0  0  0  0  0  0  0  0
  148.8011  137.0964  157.1125 C   0  0  0  0  0  0  0  0  0  0  0  0
  148.5957  137.9821  158.5967 S   0  0  0  0  0  0  0  0  0  0  0  0
  150.0786  138.8752  158.2559 C   0  0  0  0  0  0  0  0  0  0  0  0
  150.6020  139.8277  159.0427 N   0  5  0  0  0  0  0  0  0  0  0  0
  151.8082  140.3608  158.7317 C   0  0  0  0  0  0  0  0  0  0  0  0
  152.9304  139.8794  158.8947 O   0  0  0  0  0  0  0  0  0  0  0  0
  151.6796  141.7450  158.0802 C   0  0  0  0  0  0  0  0  0  0  0  0
  152.6821  142.7748  158.6460 C   0  0  1  0  0  0  0  0  0  0  0  0
  152.8641  143.9950  157.7756 C   0  0  0  0  0  0  0  0  0  0  0  0
  152.6939  145.1332  158.4442 C   0  0  0  0  0  0  0  0  0  0  0  0
  152.3634  144.9055  159.8931 C   0  0  0  0  0  0  0  0  0  0  0  0
  152.2460  143.3692  160.0096 C   0  0  0  0  0  0  0  0  0  0  0  0
  150.6317  138.5039  157.0963 N   0  0  0  0  0  0  0  0  0  0  0  0
  150.3332  138.7798  152.2902 H   0  0  0  0  0  0  0  0  0  0  0  0
  149.5557  137.2716  152.7264 H   0  0  0  0  0  0  0  0  0  0  0  0
  149.7114  136.2779  154.6779 H   0  0  0  0  0  0  0  0  0  0  0  0
  151.3421  136.3531  155.2980 H   0  0  0  0  0  0  0  0  0  0  0  0
  148.0840  136.3407  156.8293 H   0  0  0  0  0  0  0  0  0  0  0  0
  151.7902  141.6760  156.9958 H   0  0  0  0  0  0  0  0  0  0  0  0
  150.6630  142.0998  158.2531 H   0  0  0  0  0  0  0  0  0  0  0  0
  153.6621  142.3072  158.7540 H   0  0  0  0  0  0  0  0  0  0  0  0
  153.1192  143.9246  156.7280 H   0  0  0  0  0  0  0  0  0  0  0  0
  152.7881  146.1230  158.0227 H   0  0  0  0  0  0  0  0  0  0  0  0
  153.1636  145.2983  160.5212 H   0  0  0  0  0  0  0  0  0  0  0  0
  151.4317  145.4053  160.1594 H   0  0  0  0  0  0  0  0  0  0  0  0
  151.2134  143.0999  160.2360 H   0  0  0  0  0  0  0  0  0  0  0  0
  152.8606  142.9841  160.8239 H   0  0  0  0  0  0  0  0  0  0  0  0
  1  2  1  0  0  0  0
  1 19  1  0  0  0  0
  1 20  1  0  0  0  0
  2  3  2  0  0  0  0
  2  4  1  0  0  0  0
  4  5  1  0  0  0  0
  4 21  1  0  0  0  0
  4 22  1  0  0  0  0
  5 18  1  0  0  0  0
  5  6  2  0  0  0  0
  6  7  1  0  0  0  0
  6 23  1  0  0  0  0
  7  8  1  0  0  0  0
  8  9  1  0  0  0  0
  8 18  2  0  0  0  0
  9 10  1  0  0  0  0
 10 11  2  0  0  0  0
 10 12  1  0  0  0  0
 12 13  1  0  0  0  0
 12 24  1  0  0  0  0
 12 25  1  0  0  0  0
 13 17  1  0  0  0  0
 13 14  1  0  0  0  0
 13 26  1  0  0  0  0
 14 15  2  0  0  0  0
 14 27  1  0  0  0  0
 15 16  1  0  0  0  0
 15 28  1  0  0  0  0
 16 17  1  0  0  0  0
 16 29  1  0  0  0  0
 16 30  1  0  0  0  0
 17 31  1  0  0  0  0
 17 32  1  0  0  0  0
M  CHG  1   9  -1
M  END
> <s_m_source_file>
AV-unprocessed.smi

> <i_m_source_file_index>
2068

> <i_lp_mmshare_version>
43012

> <i_f3d_flags>
0

> <s_epik_input>
W05IMl1DKD1PKVtDSDJdYzFbY0hdc2MobjEpW05IXUMoPU8pW0NIMl1bQ0BASF0yW0NIXT1bQ0hdW0NIMl1bQ0gyXTI=

> <s_epik_cmdline>
J2VwaWtfcHl0aG9uJywgJy1waCcsICc3LjAnLCAnLXRuJywgJzgnLCAnLW1hJywgJzIwMCcsICctbWV0YWxfYmluZGluZycsICctaW1hZScsICc8aW5maWxlLm1hZT4nLCAnLW9tYWUnLCAnPG91dGZpbGUubWFlPic=

> <r_lp_tautomer_probability>
1

> <r_epik_Ionization_Penalty>
4.99584

> <r_epik_Ionization_Penalty_Charging>
4.63763

> <r_epik_Ionization_Penalty_Neutral>
0.358213

> <r_epik_State_Penalty>
4.63739

> <r_epik_Charging_Adjusted_Penalty>
9.27502

> <i_epik_Tot_Q>
-1

> <i_epik_Tot_abs_Q>
1

> <r_epik_Metal_State_Penalty>
0.891949

> <b_epik_Metal_Only>
1

> <s_lp_Force_Field>
OPLS_2005

> <r_lp_Energy>
14.2455

> <b_lp_Chiralities_Consistent>
1

> <s_lp_Variant>
AV-unprocessed.smi:2068-4

> <Gold.Version>
5.8.1

> <Gold.Id.Protein>
6NUR|6NUR_protein|mol2

> <Gold.PLP.Fitness>
47.4689

> <Gold.PLP.PLP>
-37.8200

> <Gold.PLP.part.hbond>
-4.4736

> <Gold.PLP.part.metal>
0.0000

> <Gold.PLP.part.buried>
-3.8338

> <Gold.PLP.part.nonpolar>
-29.3442

> <Gold.PLP.part.repulsive>
0.2128

> <Gold.PLP.ligand.clash>
0.0000

> <Gold.PLP.ligand.torsion>
1.1910

> <Gold.PLP.Chemscore.Hbond>
3.9680

> <Gold.PLP.Chemscore.CHOScore>
0.0000

> <Gold.PLP.Chemscore.Metal>
0.0000

> <Gold.Chemscore.Hbonds>
donor molecule, donor type, donor heavy atom, donor atom, acceptor molecule, acceptor atom, score
      L1  H     1    19       P1  7957  0.59
      L1  H     1    20       P1  7948  0.76
      P1  H  7989  7998       L1     3  0.80

> <Gold.PLP.Chemscore.Internal.Correction>
0.1268

> <Gold.Rescore>
     Score         DG    S(hbond)    S(metal)    S(lipo)     H(rot)  DE(clash)    DE(int)     intcor
     19.04     -21.93       3.54        0.00      86.92       2.17       0.07       2.82       ----

> <Gold.Chemscore.Fitness>
19.0413

> <Gold.Chemscore.DG>
-21.9333

> <Gold.Chemscore.ZeroCoef>
-5.4800

> <Gold.Chemscore.Hbond>
3.5407

> <Gold.Chemscore.Metal>
0.0000

> <Gold.Chemscore.Lipo>
86.9220

> <Gold.Chemscore.Internal_Hbond>
0.0000

> <Gold.Chemscore.DEClash>
0.0712

> <Gold.Chemscore.DEInternal>
2.8208

> <Gold.Chemscore.Rot>
2.1650

> <Gold.Chemscore.Internal.Correction>
   9.000000E+99

> <Gold.Chemscore.Hbonds>
donor molecule, donor type, donor heavy atom, donor atom, acceptor molecule, acceptor atom, score
      L1  H     1    19       P1  7957  0.04
      L1  H     1    20       P1  7948  0.41
      P1  H  7989  7998       L1     3  0.77
      P1  H  7997  8008       L1    11  0.02

> <Gold.Chemscore.Hbond.Weighted>
-11.8259

> <Gold.Chemscore.Metal.Weighted>
-0.0000

> <Gold.Chemscore.Lipo.Weighted>
-10.1699

> <Gold.Chemscore.Internal_Hbond.Weighted>
0.0000

> <Gold.Chemscore.DEClash.Weighted>
0.0712

> <Gold.Chemscore.DEInternal.Weighted>
2.8208

> <Gold.Chemscore.Rot.Weighted>
5.5425

> <Gold.Chemscore.Internal.Correction.Weighted>
   9.000000E+99

> <Gold.Protein.RotatedTorsions>
[ 6907 6896 6895 6894 ] final   83.43 input  -60.11 | X-H torsion
[ 7974 7965 7964 7962 ] final  -16.24 input  175.53 | X-H torsion
[ 8008 7997 7996 7995 ] final  -92.95 input   59.86 | X-H torsion
[ 10167 10162 10161 10158 ] final   20.39 input  -65.29 | X-H torsion
[ 10718 10713 10712 10709 ] final -135.34 input   66.30 | X-H torsion
[ 10763 10752 10751 10750 ] final -123.28 input  -60.55 | X-H torsion
[ 11005 11000 10999 10996 ] final -155.15 input  -57.11 | X-H torsion

> <Gold.Protein.ActiveResidues>
 VAL166  LYS551  ARG553  GLY616  TRP617  ASP618  TYR619  PRO620  LYS621  CYS622 
 ASP623  PHE694  ASN695  SER759  ASP760  ASP761  ALA762  ILE779  LEU786  VAL792 
 PHE793  MET794  SER795  GLU796  ALA797  LYS798  CYS799  TRP800  GLU811  SER814 

> <Gold.Protein.RotatedAtoms>
  152.5327  134.2897  159.9038 H   0  0  0  0  0  0  0  0  0  0  0  0  # atno 6907 bound_to 6896
  151.2849  133.4185  159.2637 H   0  0  0  0  0  0  0  0  0  0  0  0  # atno 6908 bound_to 6896
  151.0251  134.9513  159.8137 H   0  0  0  0  0  0  0  0  0  0  0  0  # atno 6909 bound_to 6896
  146.1996  140.3608  142.8428 H   0  0  0  0  0  0  0  0  0  0  0  0  # atno 7974 bound_to 7965
  154.7295  140.0504  157.0714 H   0  0  0  0  0  0  0  0  0  0  0  0  # atno 8008 bound_to 7997
  155.0320  140.3159  155.4736 H   0  0  0  0  0  0  0  0  0  0  0  0  # atno 8009 bound_to 7997
  156.2838  140.2148  156.5442 H   0  0  0  0  0  0  0  0  0  0  0  0  # atno 8010 bound_to 7997
  140.5507  143.9514  150.6576 H   0  0  0  0  0  0  0  0  0  0  0  0  # atno 10167 bound_to 10162
  156.2651  130.7233  151.1181 H   0  0  0  0  0  0  0  0  0  0  0  0  # atno 10718 bound_to 10713
  154.8705  135.4103  154.2918 H   0  0  0  0  0  0  0  0  0  0  0  0  # atno 10763 bound_to 10752
  153.3793  135.7011  153.6583 H   0  0  0  0  0  0  0  0  0  0  0  0  # atno 10764 bound_to 10752
  153.5412  135.3647  155.2691 H   0  0  0  0  0  0  0  0  0  0  0  0  # atno 10765 bound_to 10752
  140.6896  134.4056  157.5220 H   0  0  0  0  0  0  0  0  0  0  0  0  # atno 11005 bound_to 11000
  144.8655  140.7199  143.6080 LP  0  0  0  0  0  0  0  0  0  0  0  0  # atno 17320 bound_to 7965
  145.3528  139.1702  143.4425 LP  0  0  0  0  0  0  0  0  0  0  0  0  # atno 17321 bound_to 7965
  140.2939  143.3306  152.1036 LP  0  0  0  0  0  0  0  0  0  0  0  0  # atno 17342 bound_to 10162
  139.5026  144.6739  151.6177 LP  0  0  0  0  0  0  0  0  0  0  0  0  # atno 17343 bound_to 10162
  157.7264  131.0646  150.5909 LP  0  0  0  0  0  0  0  0  0  0  0  0  # atno 17370 bound_to 10713
  156.6000  130.4352  149.5901 LP  0  0  0  0  0  0  0  0  0  0  0  0  # atno 17371 bound_to 10713
  139.8927  134.8748  156.2257 LP  0  0  0  0  0  0  0  0  0  0  0  0  # atno 17394 bound_to 11000
  141.0252  133.7019  156.1335 LP  0  0  0  0  0  0  0  0  0  0  0  0  # atno 17395 bound_to 11000

$$$$
