AV-unprocessed.smi:3179|AV-procd|sdf|12132|dock8
  -GOLD-   2272017573D 1   1.00000     0.00000
 Structure written by MMmdl.
 34 34  0  0  0  0  0  0  0  0  2 V2000
  147.0314  139.7433  152.7517 C   0  0  0  0  0  0  0  0  0  0  0  0
  146.6019  138.7509  151.6675 C   0  0  0  0  0  0  0  0  0  0  0  0
  146.4472  137.3975  152.2166 N   0  3  0  0  0  0  0  0  0  0  0  0
  145.3018  136.8687  152.6900 C   0  0  0  0  0  0  0  0  0  0  0  0
  144.1711  137.6017  152.6903 N   0  0  0  0  0  0  0  0  0  0  0  0
  142.8596  137.1531  153.1764 C   0  0  0  0  0  0  0  0  0  0  0  0
  141.7780  138.2011  152.9003 C   0  0  0  0  0  0  0  0  0  0  0  0
  145.2860  135.6072  153.1630 N   0  0  0  0  0  0  0  0  0  0  0  0
  146.4416  134.7025  153.2340 C   0  0  0  0  0  0  0  0  0  0  0  0
  146.0222  133.2472  152.9952 C   0  0  0  0  0  0  0  0  0  0  0  0
  145.5482  133.0120  151.6002 C   0  0  0  0  0  0  0  0  0  0  0  0
  146.1742  132.2090  150.7354 N   0  0  0  0  0  0  0  0  0  0  0  0
  145.5465  132.1739  149.4877 C   0  0  0  0  0  0  0  0  0  0  0  0
  144.4394  132.9802  149.4095 C   0  0  0  0  0  0  0  0  0  0  0  0
  144.1432  133.8172  150.9090 S   0  0  0  0  0  0  0  0  0  0  0  0
  147.1522  140.7433  152.3340 H   0  0  0  0  0  0  0  0  0  0  0  0
  147.9829  139.4531  153.1982 H   0  0  0  0  0  0  0  0  0  0  0  0
  146.2891  139.8034  153.5481 H   0  0  0  0  0  0  0  0  0  0  0  0
  145.6573  139.0658  151.2235 H   0  0  0  0  0  0  0  0  0  0  0  0
  147.3442  138.7273  150.8692 H   0  0  0  0  0  0  0  0  0  0  0  0
  144.2163  138.5437  152.3289 H   0  0  0  0  0  0  0  0  0  0  0  0
  142.6018  136.2119  152.6902 H   0  0  0  0  0  0  0  0  0  0  0  0
  142.9256  136.9581  154.2471 H   0  0  0  0  0  0  0  0  0  0  0  0
  140.8102  137.8650  153.2735 H   0  0  0  0  0  0  0  0  0  0  0  0
  141.6744  138.3894  151.8313 H   0  0  0  0  0  0  0  0  0  0  0  0
  142.0113  139.1478  153.3886 H   0  0  0  0  0  0  0  0  0  0  0  0
  144.4146  135.2488  153.5267 H   0  0  0  0  0  0  0  0  0  0  0  0
  147.1770  135.0048  152.4877 H   0  0  0  0  0  0  0  0  0  0  0  0
  146.9101  134.8069  154.2132 H   0  0  0  0  0  0  0  0  0  0  0  0
  146.8576  132.5761  153.1994 H   0  0  0  0  0  0  0  0  0  0  0  0
  145.2234  132.9688  153.6835 H   0  0  0  0  0  0  0  0  0  0  0  0
  145.9573  131.5469  148.7099 H   0  0  0  0  0  0  0  0  0  0  0  0
  143.7849  133.1332  148.5640 H   0  0  0  0  0  0  0  0  0  0  0  0
  147.2799  136.8264  152.2401 H   0  0  0  0  0  0  0  0  0  0  0  0
  1  2  1  0  0  0  0
  1 16  1  0  0  0  0
  1 17  1  0  0  0  0
  1 18  1  0  0  0  0
  2  3  1  0  0  0  0
  2 19  1  0  0  0  0
  2 20  1  0  0  0  0
  3  4  2  0  0  0  0
  3 34  1  0  0  0  0
  4  5  1  0  0  0  0
  4  8  1  0  0  0  0
  5  6  1  0  0  0  0
  5 21  1  0  0  0  0
  6  7  1  0  0  0  0
  6 22  1  0  0  0  0
  6 23  1  0  0  0  0
  7 24  1  0  0  0  0
  7 25  1  0  0  0  0
  7 26  1  0  0  0  0
  8  9  1  0  0  0  0
  8 27  1  0  0  0  0
  9 10  1  0  0  0  0
  9 28  1  0  0  0  0
  9 29  1  0  0  0  0
 10 11  1  0  0  0  0
 10 30  1  0  0  0  0
 10 31  1  0  0  0  0
 11 15  1  0  0  0  0
 11 12  2  0  0  0  0
 12 13  1  0  0  0  0
 13 14  2  0  0  0  0
 13 32  1  0  0  0  0
 14 15  1  0  0  0  0
 14 33  1  0  0  0  0
M  CHG  1   3   1
M  END
> <s_m_source_file>
AV-unprocessed.smi

> <i_m_source_file_index>
3179

> <i_lp_mmshare_version>
43012

> <i_f3d_flags>
0

> <s_epik_input>
W0NIM11bQ0gyXS9OPUMoXFtOSF1bQ0gyXVtDSDNdKVtOSF1bQ0gyXVtDSDJdYzFuW2NIXVtjSF1zMQ==

> <s_epik_cmdline>
J2VwaWtfcHl0aG9uJywgJy1waCcsICc3LjAnLCAnLXRuJywgJzgnLCAnLW1hJywgJzIwMCcsICctbWV0YWxfYmluZGluZycsICctaW1hZScsICc8aW5maWxlLm1hZT4nLCAnLW9tYWUnLCAnPG91dGZpbGUubWFlPic=

> <r_lp_tautomer_probability>
1

> <r_epik_Ionization_Penalty>
3.28801e-05

> <r_epik_Ionization_Penalty_Charging>
8.99277e-08

> <r_epik_Ionization_Penalty_Neutral>
3.27902e-05

> <r_epik_State_Penalty>
-0

> <r_epik_Charging_Adjusted_Penalty>
8.99277e-08

> <i_epik_Tot_Q>
1

> <i_epik_Tot_abs_Q>
1

> <r_epik_Metal_State_Penalty>
-0

> <b_epik_Metal_Only>
0

> <s_epik_Chemistry_Notes>
This compound has an imine and may undergo hydrolysis.

> <s_lp_Force_Field>
OPLS_2005

> <r_lp_Energy>
0.386487

> <b_lp_Chiralities_Consistent>
1

> <s_lp_Variant>
AV-unprocessed.smi:3179-1

> <Gold.Version>
5.8.1

> <Gold.Id.Protein>
6NUR|6NUR_protein|mol2

> <Gold.PLP.Fitness>
39.0194

> <Gold.PLP.PLP>
-27.8039

> <Gold.PLP.part.hbond>
-2.4132

> <Gold.PLP.part.metal>
0.0000

> <Gold.PLP.part.buried>
-1.5714

> <Gold.PLP.part.nonpolar>
-24.0135

> <Gold.PLP.part.repulsive>
0.2032

> <Gold.PLP.ligand.clash>
0.0000

> <Gold.PLP.ligand.torsion>
0.4017

> <Gold.PLP.Chemscore.Hbond>
4.0000

> <Gold.PLP.Chemscore.CHOScore>
0.0000

> <Gold.PLP.Chemscore.Metal>
0.0000

> <Gold.Chemscore.Hbonds>
donor molecule, donor type, donor heavy atom, donor atom, acceptor molecule, acceptor atom, score
      L1  H     3    34       P1  7948  2.00
      L1  H     5    21       P1 10175  1.95

> <Gold.PLP.Chemscore.Internal.Correction>
0.0190

> <Gold.Rescore>
     Score         DG    S(hbond)    S(metal)    S(lipo)     H(rot)  DE(clash)    DE(int)     intcor
     14.32     -14.99       1.98        0.00      62.47       1.72       0.27       0.40       ----

> <Gold.Chemscore.Fitness>
14.3213

> <Gold.Chemscore.DG>
-14.9890

> <Gold.Chemscore.ZeroCoef>
-5.4800

> <Gold.Chemscore.Hbond>
1.9759

> <Gold.Chemscore.Metal>
0.0000

> <Gold.Chemscore.Lipo>
62.4733

> <Gold.Chemscore.Internal_Hbond>
0.0000

> <Gold.Chemscore.DEClash>
0.2727

> <Gold.Chemscore.DEInternal>
0.3950

> <Gold.Chemscore.Rot>
1.7187

> <Gold.Chemscore.Internal.Correction>
   9.000000E+99

> <Gold.Chemscore.Hbonds>
donor molecule, donor type, donor heavy atom, donor atom, acceptor molecule, acceptor atom, score
      L1  H     3    34       P1  7948  0.99
      L1  H     5    21       P1 10175  0.91

> <Gold.Chemscore.Hbond.Weighted>
-6.5993

> <Gold.Chemscore.Metal.Weighted>
-0.0000

> <Gold.Chemscore.Lipo.Weighted>
-7.3094

> <Gold.Chemscore.Internal_Hbond.Weighted>
0.0000

> <Gold.Chemscore.DEClash.Weighted>
0.2727

> <Gold.Chemscore.DEInternal.Weighted>
0.3950

> <Gold.Chemscore.Rot.Weighted>
4.3998

> <Gold.Chemscore.Internal.Correction.Weighted>
   9.000000E+99

> <Gold.Protein.RotatedTorsions>
[ 6907 6896 6895 6894 ] final  -58.42 input  -60.11 | X-H torsion
[ 7974 7965 7964 7962 ] final  -94.24 input  175.53 | X-H torsion
[ 8008 7997 7996 7995 ] final  159.93 input   59.86 | X-H torsion
[ 10167 10162 10161 10158 ] final   17.57 input  -65.29 | X-H torsion
[ 10718 10713 10712 10709 ] final -179.95 input   66.30 | X-H torsion
[ 10763 10752 10751 10750 ] final -130.50 input  -60.55 | X-H torsion
[ 11005 11000 10999 10996 ] final   -0.75 input  -57.11 | X-H torsion

> <Gold.Protein.ActiveResidues>
 VAL166  LYS551  ARG553  GLY616  TRP617  ASP618  TYR619  PRO620  LYS621  CYS622 
 ASP623  PHE694  ASN695  SER759  ASP760  ASP761  ALA762  ILE779  LEU786  VAL792 
 PHE793  MET794  SER795  GLU796  ALA797  LYS798  CYS799  TRP800  GLU811  SER814 

> <Gold.Protein.RotatedAtoms>
  150.8008  134.7101  159.6598 H   0  0  0  0  0  0  0  0  0  0  0  0  # atno 6907 bound_to 6896
  152.4125  134.6096  160.0032 H   0  0  0  0  0  0  0  0  0  0  0  0  # atno 6908 bound_to 6896
  151.6335  133.3293  159.3150 H   0  0  0  0  0  0  0  0  0  0  0  0  # atno 6909 bound_to 6896
  145.3759  140.9511  143.2421 H   0  0  0  0  0  0  0  0  0  0  0  0  # atno 7974 bound_to 7965
  156.2206  140.1818  156.7485 H   0  0  0  0  0  0  0  0  0  0  0  0  # atno 8008 bound_to 7997
  154.5860  140.0658  156.9200 H   0  0  0  0  0  0  0  0  0  0  0  0  # atno 8009 bound_to 7997
  155.2419  140.3322  155.4294 H   0  0  0  0  0  0  0  0  0  0  0  0  # atno 8010 bound_to 7997
  140.5717  143.9149  150.6718 H   0  0  0  0  0  0  0  0  0  0  0  0  # atno 10167 bound_to 10162
  156.8667  130.9770  151.3078 H   0  0  0  0  0  0  0  0  0  0  0  0  # atno 10718 bound_to 10713
  154.8755  135.3860  154.4093 H   0  0  0  0  0  0  0  0  0  0  0  0  # atno 10763 bound_to 10752
  153.4809  135.7030  153.5944 H   0  0  0  0  0  0  0  0  0  0  0  0  # atno 10764 bound_to 10752
  153.4360  135.3867  155.2167 H   0  0  0  0  0  0  0  0  0  0  0  0  # atno 10765 bound_to 10752
  140.6397  133.9500  155.8319 H   0  0  0  0  0  0  0  0  0  0  0  0  # atno 11005 bound_to 11000
  144.8542  139.5274  143.6842 LP  0  0  0  0  0  0  0  0  0  0  0  0  # atno 17320 bound_to 7965
  146.2864  139.7016  142.9192 LP  0  0  0  0  0  0  0  0  0  0  0  0  # atno 17321 bound_to 7965
  140.2626  143.3513  152.1309 LP  0  0  0  0  0  0  0  0  0  0  0  0  # atno 17342 bound_to 10162
  139.5121  144.6911  151.5757 LP  0  0  0  0  0  0  0  0  0  0  0  0  # atno 17343 bound_to 10162
  157.6219  130.8662  149.9123 LP  0  0  0  0  0  0  0  0  0  0  0  0  # atno 17370 bound_to 10713
  156.0748  130.3680  150.0701 LP  0  0  0  0  0  0  0  0  0  0  0  0  # atno 17371 bound_to 10713
  141.0615  134.0339  157.3651 LP  0  0  0  0  0  0  0  0  0  0  0  0  # atno 17394 bound_to 11000
  139.9085  135.0185  156.7589 LP  0  0  0  0  0  0  0  0  0  0  0  0  # atno 17395 bound_to 11000

$$$$
