AV-unprocessed.smi:3042|AV-procd|sdf|11602|dock3
  -GOLD-   2272016583D 1   1.00000     0.00000
 Structure written by MMmdl.
 32 33  0  0  0  0  0  0  0  0  1 V2000
  147.3030  138.7109  151.7423 N   0  0  0  0  0  0  0  0  0  0  0  0
  147.3051  138.9511  153.1948 C   0  0  0  0  0  0  0  0  0  0  0  0
  148.0095  140.2725  153.5944 C   0  0  1  0  0  0  0  0  0  0  0  0
  146.9538  141.2760  154.0569 C   0  0  0  0  0  0  0  0  0  0  0  0
  146.7983  142.5134  153.3970 C   0  0  0  0  0  0  0  0  0  0  0  0
  145.8119  143.4092  153.8525 C   0  0  0  0  0  0  0  0  0  0  0  0
  145.0170  143.0287  154.9520 C   0  0  0  0  0  0  0  0  0  0  0  0
  145.1536  141.8479  155.5922 N   0  0  0  0  0  0  0  0  0  0  0  0
  146.1020  140.9946  155.1487 C   0  0  0  0  0  0  0  0  0  0  0  0
  149.0796  140.1116  154.6011 N   0  0  0  0  0  0  0  0  0  0  0  0
  149.6859  141.3973  154.9659 C   0  0  0  0  0  0  0  0  0  0  0  0
  150.8056  141.2470  156.0097 C   0  0  0  0  0  0  0  0  0  0  0  0
  151.8002  140.3593  155.5157 O   0  0  0  0  0  0  0  0  0  0  0  0
  151.2711  139.0767  155.2056 C   0  0  0  0  0  0  0  0  0  0  0  0
  150.1513  139.2151  154.1594 C   0  0  0  0  0  0  0  0  0  0  0  0
  147.9514  139.3433  151.2757 H   0  0  0  0  0  0  0  0  0  0  0  0
  147.6123  137.7617  151.5381 H   0  0  0  0  0  0  0  0  0  0  0  0
  146.2795  138.9545  153.5652 H   0  0  0  0  0  0  0  0  0  0  0  0
  147.7958  138.1026  153.6685 H   0  0  0  0  0  0  0  0  0  0  0  0
  148.4629  140.6776  152.6880 H   0  0  0  0  0  0  0  0  0  0  0  0
  147.4237  142.7747  152.5560 H   0  0  0  0  0  0  0  0  0  0  0  0
  145.6672  144.3646  153.3703 H   0  0  0  0  0  0  0  0  0  0  0  0
  144.2503  143.6908  155.3265 H   0  0  0  0  0  0  0  0  0  0  0  0
  146.1845  140.0596  155.6830 H   0  0  0  0  0  0  0  0  0  0  0  0
  150.0892  141.8803  154.0744 H   0  0  0  0  0  0  0  0  0  0  0  0
  148.9358  142.0750  155.3728 H   0  0  0  0  0  0  0  0  0  0  0  0
  151.2640  142.2144  156.2152 H   0  0  0  0  0  0  0  0  0  0  0  0
  150.4074  140.8733  156.9544 H   0  0  0  0  0  0  0  0  0  0  0  0
  152.0721  138.4451  154.8214 H   0  0  0  0  0  0  0  0  0  0  0  0
  150.8951  138.6008  156.1127 H   0  0  0  0  0  0  0  0  0  0  0  0
  149.7625  138.2164  153.9687 H   0  0  0  0  0  0  0  0  0  0  0  0
  150.5741  139.5768  153.2210 H   0  0  0  0  0  0  0  0  0  0  0  0
  1  2  1  0  0  0  0
  1 16  1  0  0  0  0
  1 17  1  0  0  0  0
  2  3  1  0  0  0  0
  2 18  1  0  0  0  0
  2 19  1  0  0  0  0
  3  4  1  0  0  0  0
  3 10  1  0  0  0  0
  3 20  1  0  0  0  0
  4  9  1  0  0  0  0
  4  5  2  0  0  0  0
  5  6  1  0  0  0  0
  5 21  1  0  0  0  0
  6  7  2  0  0  0  0
  6 22  1  0  0  0  0
  7  8  1  0  0  0  0
  7 23  1  0  0  0  0
  8  9  2  0  0  0  0
  9 24  1  0  0  0  0
 10 15  1  0  0  0  0
 10 11  1  0  0  0  0
 11 12  1  0  0  0  0
 11 25  1  0  0  0  0
 11 26  1  0  0  0  0
 12 13  1  0  0  0  0
 12 27  1  0  0  0  0
 12 28  1  0  0  0  0
 13 14  1  0  0  0  0
 14 15  1  0  0  0  0
 14 29  1  0  0  0  0
 14 30  1  0  0  0  0
 15 31  1  0  0  0  0
 15 32  1  0  0  0  0
M  END
> <s_m_source_file>
AV-unprocessed.smi

> <i_m_source_file_index>
3042

> <i_lp_mmshare_version>
43012

> <i_f3d_flags>
0

> <s_epik_input>
W0NIMl0xW0NIMl1PW0NIMl1bQ0gyXU4xW0NASF0oW0NIMl1bTkgyXSljMltjSF1bY0hdW2NIXW5bY0hdMg==

> <s_epik_cmdline>
J2VwaWtfcHl0aG9uJywgJy1waCcsICc3LjAnLCAnLXRuJywgJzgnLCAnLW1hJywgJzIwMCcsICctbWV0YWxfYmluZGluZycsICctaW1hZScsICc8aW5maWxlLm1hZT4nLCAnLW9tYWUnLCAnPG91dGZpbGUubWFlPic=

> <r_epik_Ionization_Penalty>
2.62143

> <r_epik_Ionization_Penalty_Charging>
0

> <r_epik_Ionization_Penalty_Neutral>
2.62143

> <r_epik_State_Penalty>
2.72742

> <r_epik_Charging_Adjusted_Penalty>
2.72742

> <i_epik_Tot_Q>
0

> <i_epik_Tot_abs_Q>
0

> <r_epik_Metal_State_Penalty>
2.72081

> <b_epik_Metal_Only>
0

> <s_lp_Force_Field>
OPLS_2005

> <r_lp_Energy>
27.4396

> <b_lp_Chiralities_Consistent>
1

> <s_lp_Variant>
AV-unprocessed.smi:3042-4

> <Gold.Version>
5.8.1

> <Gold.Id.Protein>
6NUR|6NUR_protein|mol2

> <Gold.PLP.Fitness>
35.0355

> <Gold.PLP.PLP>
-29.7400

> <Gold.PLP.part.hbond>
-3.7541

> <Gold.PLP.part.metal>
0.0000

> <Gold.PLP.part.buried>
-1.8327

> <Gold.PLP.part.nonpolar>
-23.9689

> <Gold.PLP.part.repulsive>
0.2234

> <Gold.PLP.ligand.clash>
0.0000

> <Gold.PLP.ligand.torsion>
0.7766

> <Gold.PLP.Chemscore.Hbond>
2.2561

> <Gold.PLP.Chemscore.CHOScore>
0.0000

> <Gold.PLP.Chemscore.Metal>
0.0000

> <Gold.Chemscore.Hbonds>
donor molecule, donor type, donor heavy atom, donor atom, acceptor molecule, acceptor atom, score
      L1  H     1    16       P1  7957  1.00
      L1  H     1    17       P1  7948  0.99
      P1  H  7989  7998       L1    13  0.31

> <Gold.PLP.Chemscore.Internal.Correction>
0.0803

> <Gold.Rescore>
     Score         DG    S(hbond)    S(metal)    S(lipo)     H(rot)  DE(clash)    DE(int)     intcor
     16.57     -17.40       2.46        0.00      63.00       1.44       0.13       0.69       ----

> <Gold.Chemscore.Fitness>
16.5717

> <Gold.Chemscore.DG>
-17.3988

> <Gold.Chemscore.ZeroCoef>
-5.4800

> <Gold.Chemscore.Hbond>
2.4623

> <Gold.Chemscore.Metal>
0.0000

> <Gold.Chemscore.Lipo>
62.9976

> <Gold.Chemscore.Internal_Hbond>
0.0000

> <Gold.Chemscore.DEClash>
0.1325

> <Gold.Chemscore.DEInternal>
0.6946

> <Gold.Chemscore.Rot>
1.4359

> <Gold.Chemscore.Internal.Correction>
   9.000000E+99

> <Gold.Chemscore.Hbonds>
donor molecule, donor type, donor heavy atom, donor atom, acceptor molecule, acceptor atom, score
      L1  H     1    16       P1  7957  0.81
      L1  H     1    17       P1  7948  0.89

> <Gold.Chemscore.Hbond.Weighted>
-8.2240

> <Gold.Chemscore.Metal.Weighted>
-0.0000

> <Gold.Chemscore.Lipo.Weighted>
-7.3707

> <Gold.Chemscore.Internal_Hbond.Weighted>
0.0000

> <Gold.Chemscore.DEClash.Weighted>
0.1325

> <Gold.Chemscore.DEInternal.Weighted>
0.6946

> <Gold.Chemscore.Rot.Weighted>
3.6759

> <Gold.Chemscore.Internal.Correction.Weighted>
   9.000000E+99

> <Gold.Protein.RotatedTorsions>
[ 6907 6896 6895 6894 ] final  167.93 input  -60.11 | X-H torsion
[ 7974 7965 7964 7962 ] final -101.26 input  175.53 | X-H torsion
[ 8008 7997 7996 7995 ] final  118.73 input   59.86 | X-H torsion
[ 10167 10162 10161 10158 ] final   83.89 input  -65.29 | X-H torsion
[ 10718 10713 10712 10709 ] final -106.00 input   66.30 | X-H torsion
[ 10763 10752 10751 10750 ] final  167.40 input  -60.55 | X-H torsion
[ 11005 11000 10999 10996 ] final  145.00 input  -57.11 | X-H torsion

> <Gold.Protein.ActiveResidues>
 VAL166  LYS551  ARG553  GLY616  TRP617  ASP618  TYR619  PRO620  LYS621  CYS622 
 ASP623  PHE694  ASN695  SER759  ASP760  ASP761  ALA762  ILE779  LEU786  VAL792 
 PHE793  MET794  SER795  GLU796  ALA797  LYS798  CYS799  TRP800  GLU811  SER814 

> <Gold.Protein.RotatedAtoms>
  151.8556  133.3447  159.3686 H   0  0  0  0  0  0  0  0  0  0  0  0  # atno 6907 bound_to 6896
  150.7194  134.5256  159.5684 H   0  0  0  0  0  0  0  0  0  0  0  0  # atno 6908 bound_to 6896
  152.2759  134.7882  160.0456 H   0  0  0  0  0  0  0  0  0  0  0  0  # atno 6909 bound_to 6896
  145.2840  140.9334  143.2916 H   0  0  0  0  0  0  0  0  0  0  0  0  # atno 7974 bound_to 7965
  156.2561  140.2868  156.0881 H   0  0  0  0  0  0  0  0  0  0  0  0  # atno 8008 bound_to 7997
  155.1493  140.0397  157.2834 H   0  0  0  0  0  0  0  0  0  0  0  0  # atno 8009 bound_to 7997
  154.6472  140.2536  155.7261 H   0  0  0  0  0  0  0  0  0  0  0  0  # atno 8010 bound_to 7997
  139.9137  144.6256  150.8511 H   0  0  0  0  0  0  0  0  0  0  0  0  # atno 10167 bound_to 10162
  156.0370  130.5591  150.7618 H   0  0  0  0  0  0  0  0  0  0  0  0  # atno 10718 bound_to 10713
  154.3532  135.2753  155.2360 H   0  0  0  0  0  0  0  0  0  0  0  0  # atno 10763 bound_to 10752
  154.4581  135.5914  153.6240 H   0  0  0  0  0  0  0  0  0  0  0  0  # atno 10764 bound_to 10752
  152.9848  135.6058  154.3745 H   0  0  0  0  0  0  0  0  0  0  0  0  # atno 10765 bound_to 10752
  140.0677  134.9169  157.1292 H   0  0  0  0  0  0  0  0  0  0  0  0  # atno 11005 bound_to 11000
  144.9229  139.4390  143.6532 LP  0  0  0  0  0  0  0  0  0  0  0  0  # atno 17320 bound_to 7965
  146.3207  139.8099  142.8948 LP  0  0  0  0  0  0  0  0  0  0  0  0  # atno 17321 bound_to 7965
  140.7679  143.3347  151.2335 LP  0  0  0  0  0  0  0  0  0  0  0  0  # atno 17342 bound_to 10162
  139.6920  143.9676  152.2864 LP  0  0  0  0  0  0  0  0  0  0  0  0  # atno 17343 bound_to 10162
  157.5135  131.0927  151.0168 LP  0  0  0  0  0  0  0  0  0  0  0  0  # atno 17370 bound_to 10713
  157.0517  130.5790  149.5371 LP  0  0  0  0  0  0  0  0  0  0  0  0  # atno 17371 bound_to 10713
  140.3674  134.2427  155.7181 LP  0  0  0  0  0  0  0  0  0  0  0  0  # atno 17394 bound_to 11000
  141.1999  133.8000  157.0513 LP  0  0  0  0  0  0  0  0  0  0  0  0  # atno 17395 bound_to 11000

$$$$
