AV-unprocessed.smi:278|AV-procd|sdf|2087|dock1
  -GOLD-   2262021363D 1   1.00000     0.00000
 Structure written by MMmdl.
 50 54  0  0  0  0  0  0  0  0  1 V2000
  148.7652  127.4841  156.4790 O   0  0  0  0  0  0  0  0  0  0  0  0
  148.7164  126.7729  155.1920 S   0  0  0  0  0  0  0  0  0  0  0  0
  148.9003  125.3150  155.1321 O   0  0  0  0  0  0  0  0  0  0  0  0
  147.1604  127.2126  154.3251 C   0  0  0  0  0  0  0  0  0  0  0  0
  147.5724  127.7413  152.9450 C   0  0  0  0  0  0  0  0  0  0  0  0
  148.9656  128.3883  153.0479 C   0  0  1  0  0  0  0  0  0  0  0  0
  148.9631  129.7698  153.7110 C   0  0  0  0  0  0  0  0  0  0  0  0
  150.2678  129.8869  154.3462 N   0  0  0  0  0  0  0  0  0  0  0  0
  150.5861  130.9597  155.1172 C   0  0  0  0  0  0  0  0  0  0  0  0
  151.5218  130.8048  156.0919 N   0  0  0  0  0  0  0  0  0  0  0  0
  151.8623  131.8298  156.8779 C   0  0  0  0  0  0  0  0  0  0  0  0
  151.3950  133.0785  156.8683 N   0  0  0  0  0  0  0  0  0  0  0  0
  150.4493  133.2432  155.9001 C   0  0  0  0  0  0  0  0  0  0  0  0
  149.9874  132.2489  154.9896 C   0  0  0  0  0  0  0  0  0  0  0  0
  149.0109  132.7952  154.1623 N   0  0  0  0  0  0  0  0  0  0  0  0
  148.9129  134.0370  154.5505 C   0  0  0  0  0  0  0  0  0  0  0  0
  149.7399  134.3901  155.5906 N   0  0  0  0  0  0  0  0  0  0  0  0
  149.8346  135.6964  156.2178 C   0  0  0  0  0  0  0  0  0  0  0  0
  149.5646  136.8465  155.2282 C   0  0  2  0  0  0  0  0  0  0  0  0
  150.5513  136.8803  154.2147 O   0  0  0  0  0  0  0  0  0  0  0  0
  149.4554  138.2181  155.9248 C   0  0  2  0  0  0  0  0  0  0  0  0
  149.1225  139.4154  155.0304 C   0  0  0  0  0  0  0  0  0  0  0  0
  149.6439  140.5606  155.8694 C   0  0  0  0  0  0  0  0  0  0  0  0
  150.9122  139.9570  156.4690 C   0  0  0  0  0  0  0  0  0  0  0  0
  150.6525  138.5634  156.6178 O   0  0  0  0  0  0  0  0  0  0  0  0
  150.8242  128.5680  154.6154 C   0  0  0  0  0  0  0  0  0  0  0  0
  149.8571  127.5604  153.9761 C   0  0  1  0  0  0  0  0  0  0  0  0
  149.4289  128.4706  152.0637 H   0  0  0  0  0  0  0  0  0  0  0  0
  150.3798  126.7668  153.4415 H   0  0  0  0  0  0  0  0  0  0  0  0
  146.5011  126.3463  154.2708 H   0  0  0  0  0  0  0  0  0  0  0  0
  146.6625  127.9901  154.9047 H   0  0  0  0  0  0  0  0  0  0  0  0
  147.6326  126.9000  152.2538 H   0  0  0  0  0  0  0  0  0  0  0  0
  146.8309  128.4301  152.5390 H   0  0  0  0  0  0  0  0  0  0  0  0
  148.8005  130.5622  152.9795 H   0  0  0  0  0  0  0  0  0  0  0  0
  148.1857  129.8426  154.4727 H   0  0  0  0  0  0  0  0  0  0  0  0
  152.6166  131.6186  157.6213 H   0  0  0  0  0  0  0  0  0  0  0  0
  148.2295  134.7335  154.0866 H   0  0  0  0  0  0  0  0  0  0  0  0
  149.1183  135.7324  157.0394 H   0  0  0  0  0  0  0  0  0  0  0  0
  150.8244  135.7963  156.6647 H   0  0  0  0  0  0  0  0  0  0  0  0
  148.6160  136.6526  154.7262 H   0  0  0  0  0  0  0  0  0  0  0  0
  150.1299  136.7222  153.3835 H   0  0  0  0  0  0  0  0  0  0  0  0
  148.6794  138.1511  156.6892 H   0  0  0  0  0  0  0  0  0  0  0  0
  149.6668  139.3783  154.0864 H   0  0  0  0  0  0  0  0  0  0  0  0
  148.0584  139.4967  154.8078 H   0  0  0  0  0  0  0  0  0  0  0  0
  149.8339  141.4656  155.2921 H   0  0  0  0  0  0  0  0  0  0  0  0
  148.9313  140.8011  156.6595 H   0  0  0  0  0  0  0  0  0  0  0  0
  151.7510  140.0799  155.7828 H   0  0  0  0  0  0  0  0  0  0  0  0
  151.1830  140.4163  157.4198 H   0  0  0  0  0  0  0  0  0  0  0  0
  151.8017  128.5026  154.1370 H   0  0  0  0  0  0  0  0  0  0  0  0
  150.9622  128.3848  155.6810 H   0  0  0  0  0  0  0  0  0  0  0  0
  1  2  2  0  0  0  0
  2 27  1  0  0  0  0
  2  3  2  0  0  0  0
  2  4  1  0  0  0  0
  4  5  1  0  0  0  0
  4 30  1  0  0  0  0
  4 31  1  0  0  0  0
  5  6  1  0  0  0  0
  5 32  1  0  0  0  0
  5 33  1  0  0  0  0
  6 28  1  0  0  0  0
  6 27  1  0  0  0  0
  6  7  1  0  0  0  0
  7  8  1  0  0  0  0
  7 34  1  0  0  0  0
  7 35  1  0  0  0  0
  8  9  1  0  0  0  0
  8 26  1  0  0  0  0
  9 14  1  0  0  0  0
  9 10  2  0  0  0  0
 10 11  1  0  0  0  0
 11 12  2  0  0  0  0
 11 36  1  0  0  0  0
 12 13  1  0  0  0  0
 13 17  1  0  0  0  0
 13 14  2  0  0  0  0
 14 15  1  0  0  0  0
 15 16  2  0  0  0  0
 16 17  1  0  0  0  0
 16 37  1  0  0  0  0
 17 18  1  0  0  0  0
 18 19  1  0  0  0  0
 18 38  1  0  0  0  0
 18 39  1  0  0  0  0
 19 20  1  0  0  0  0
 19 21  1  0  0  0  0
 19 40  1  0  0  0  0
 20 41  1  0  0  0  0
 21 25  1  0  0  0  0
 21 22  1  0  0  0  0
 21 42  1  0  0  0  0
 22 23  1  0  0  0  0
 22 43  1  0  0  0  0
 22 44  1  0  0  0  0
 23 24  1  0  0  0  0
 23 45  1  0  0  0  0
 23 46  1  0  0  0  0
 24 25  1  0  0  0  0
 24 47  1  0  0  0  0
 24 48  1  0  0  0  0
 26 27  1  0  0  0  0
 26 49  1  0  0  0  0
 26 50  1  0  0  0  0
 27 29  1  0  0  0  0
M  END
> <s_m_source_file>
AV-unprocessed.smi

> <i_m_source_file_index>
278

> <i_lp_mmshare_version>
43012

> <i_f3d_flags>
0

> <s_epik_input>
W0NIMl0xW0NIMl1TKD1PKSg9TylbQ0BASF0oW0NAQEhdMTIpW0NIMl1OKFtDSDJdMiljKG5bY0hdbjMpYyhjMzQpbltjSF1uNFtDSDJdW0NASF0oW09IXSlbQ0BASF01W0NIMl1bQ0gyXVtDSDJdTzU=

> <s_epik_cmdline>
J2VwaWtfcHl0aG9uJywgJy1waCcsICc3LjAnLCAnLXRuJywgJzgnLCAnLW1hJywgJzIwMCcsICctbWV0YWxfYmluZGluZycsICctaW1hZScsICc8aW5maWxlLm1hZT4nLCAnLW9tYWUnLCAnPG91dGZpbGUubWFlPic=

> <r_lp_tautomer_probability>
1

> <r_epik_Ionization_Penalty>
0.000636766

> <r_epik_Ionization_Penalty_Charging>
0

> <r_epik_Ionization_Penalty_Neutral>
0.000636766

> <r_epik_State_Penalty>
0.000329976

> <r_epik_Charging_Adjusted_Penalty>
0.000329976

> <i_epik_Tot_Q>
0

> <i_epik_Tot_abs_Q>
0

> <r_epik_Metal_State_Penalty>
-0

> <b_epik_Metal_Only>
0

> <s_lp_Force_Field>
OPLS_2005

> <r_lp_Energy>
50.3002

> <b_lp_Chiralities_Consistent>
1

> <s_lp_Variant>
AV-unprocessed.smi:278-1

> <Gold.Version>
5.8.1

> <Gold.Id.Protein>
6NUR|6NUR_protein|mol2

> <Gold.PLP.Fitness>
47.9591

> <Gold.PLP.PLP>
-39.7419

> <Gold.PLP.part.hbond>
-2.3730

> <Gold.PLP.part.metal>
0.0000

> <Gold.PLP.part.buried>
-5.1447

> <Gold.PLP.part.nonpolar>
-32.3937

> <Gold.PLP.part.repulsive>
0.1376

> <Gold.PLP.ligand.clash>
0.0000

> <Gold.PLP.ligand.torsion>
0.5517

> <Gold.PLP.Chemscore.Hbond>
2.0000

> <Gold.PLP.Chemscore.CHOScore>
1.0000

> <Gold.PLP.Chemscore.Metal>
0.0000

> <Gold.Chemscore.Hbonds>
donor molecule, donor type, donor heavy atom, donor atom, acceptor molecule, acceptor atom, score
      L1  H    20    41       P1  7948  0.70
      L1  C    16    37       P1  7948  0.36

> <Gold.PLP.Chemscore.Internal.Correction>
0.3206

> <Gold.Rescore>
     Score         DG    S(hbond)    S(metal)    S(lipo)     H(rot)  DE(clash)    DE(int)     intcor
     12.69     -13.97       1.71        0.00      70.43       2.13       0.37       0.92       ----

> <Gold.Chemscore.Fitness>
12.6869

> <Gold.Chemscore.DG>
-13.9749

> <Gold.Chemscore.ZeroCoef>
-5.4800

> <Gold.Chemscore.Hbond>
1.7124

> <Gold.Chemscore.Metal>
0.0000

> <Gold.Chemscore.Lipo>
70.4295

> <Gold.Chemscore.Internal_Hbond>
0.0000

> <Gold.Chemscore.DEClash>
0.3713

> <Gold.Chemscore.DEInternal>
0.9168

> <Gold.Chemscore.Rot>
2.1346

> <Gold.Chemscore.Internal.Correction>
   9.000000E+99

> <Gold.Chemscore.Hbonds>
donor molecule, donor type, donor heavy atom, donor atom, acceptor molecule, acceptor atom, score
      L1  H    20    41       P1  7948  0.07

> <Gold.Chemscore.Hbond.Weighted>
-5.7193

> <Gold.Chemscore.Metal.Weighted>
-0.0000

> <Gold.Chemscore.Lipo.Weighted>
-8.2403

> <Gold.Chemscore.Internal_Hbond.Weighted>
0.0000

> <Gold.Chemscore.DEClash.Weighted>
0.3713

> <Gold.Chemscore.DEInternal.Weighted>
0.9168

> <Gold.Chemscore.Rot.Weighted>
5.4646

> <Gold.Chemscore.Internal.Correction.Weighted>
   9.000000E+99

> <Gold.Protein.RotatedTorsions>
[ 6907 6896 6895 6894 ] final  124.25 input  -60.11 | X-H torsion
[ 7974 7965 7964 7962 ] final  -81.96 input  175.53 | X-H torsion
[ 8008 7997 7996 7995 ] final   89.89 input   59.86 | X-H torsion
[ 10167 10162 10161 10158 ] final  -71.72 input  -65.29 | X-H torsion
[ 10718 10713 10712 10709 ] final   85.97 input   66.30 | X-H torsion
[ 10763 10752 10751 10750 ] final  171.80 input  -60.55 | X-H torsion
[ 11005 11000 10999 10996 ] final  160.39 input  -57.11 | X-H torsion

> <Gold.Protein.ActiveResidues>
 VAL166  LYS551  ARG553  GLY616  TRP617  ASP618  TYR619  PRO620  LYS621  CYS622 
 ASP623  PHE694  ASN695  SER759  ASP760  ASP761  ALA762  ILE779  LEU786  VAL792 
 PHE793  MET794  SER795  GLU796  ALA797  LYS798  CYS799  TRP800  GLU811  SER814 

> <Gold.Protein.RotatedAtoms>
  152.4093  133.6939  159.6383 H   0  0  0  0  0  0  0  0  0  0  0  0  # atno 6907 bound_to 6896
  150.7975  133.8652  159.3252 H   0  0  0  0  0  0  0  0  0  0  0  0  # atno 6908 bound_to 6896
  151.6398  135.1015  160.0190 H   0  0  0  0  0  0  0  0  0  0  0  0  # atno 6909 bound_to 6896
  145.5397  140.9511  143.1558 H   0  0  0  0  0  0  0  0  0  0  0  0  # atno 7974 bound_to 7965
  156.0054  140.3355  155.6887 H   0  0  0  0  0  0  0  0  0  0  0  0  # atno 8008 bound_to 7997
  155.6233  140.0677  157.2689 H   0  0  0  0  0  0  0  0  0  0  0  0  # atno 8009 bound_to 7997
  154.4263  140.1773  156.1382 H   0  0  0  0  0  0  0  0  0  0  0  0  # atno 8010 bound_to 7997
  140.5250  143.2327  151.7363 H   0  0  0  0  0  0  0  0  0  0  0  0  # atno 10167 bound_to 10162
  157.6922  131.0196  150.2903 H   0  0  0  0  0  0  0  0  0  0  0  0  # atno 10718 bound_to 10713
  154.4171  135.2757  155.2000 H   0  0  0  0  0  0  0  0  0  0  0  0  # atno 10763 bound_to 10752
  154.3961  135.6055  153.5874 H   0  0  0  0  0  0  0  0  0  0  0  0  # atno 10764 bound_to 10752
  152.9832  135.5915  154.4461 H   0  0  0  0  0  0  0  0  0  0  0  0  # atno 10765 bound_to 10752
  140.2055  134.8306  157.3064 H   0  0  0  0  0  0  0  0  0  0  0  0  # atno 11005 bound_to 11000
  144.7583  139.7019  143.7245 LP  0  0  0  0  0  0  0  0  0  0  0  0  # atno 17320 bound_to 7965
  146.1989  139.5272  142.9756 LP  0  0  0  0  0  0  0  0  0  0  0  0  # atno 17321 bound_to 7965
  139.4935  144.4199  151.9989 LP  0  0  0  0  0  0  0  0  0  0  0  0  # atno 17342 bound_to 10162
  140.3298  144.3330  150.5990 LP  0  0  0  0  0  0  0  0  0  0  0  0  # atno 17343 bound_to 10162
  156.3435  130.3819  149.7389 LP  0  0  0  0  0  0  0  0  0  0  0  0  # atno 17370 bound_to 10713
  156.4890  130.8076  151.3087 LP  0  0  0  0  0  0  0  0  0  0  0  0  # atno 17371 bound_to 10713
  140.2008  134.4257  155.7664 LP  0  0  0  0  0  0  0  0  0  0  0  0  # atno 17394 bound_to 11000
  141.2227  133.7071  156.8180 LP  0  0  0  0  0  0  0  0  0  0  0  0  # atno 17395 bound_to 11000

$$$$
