AV-unprocessed.smi:3057|AV-procd|sdf|11665|dock6
  -GOLD-   2272017 73D 1   1.00000     0.00000
 Structure written by MMmdl.
 41 43  0  0  0  0  0  0  0  0  2 V2000
  146.0025  141.3557  156.9672 C   0  0  0  0  0  0  0  0  0  0  0  0
  145.6764  141.0806  155.4866 C   0  0  1  0  0  0  0  0  0  0  0  0
  144.6463  142.0858  154.9402 C   0  0  0  0  0  0  0  0  0  0  0  0
  145.4926  143.1783  154.2696 C   0  0  0  0  0  0  0  0  0  0  0  0
  146.7902  142.4466  153.9668 C   0  0  0  0  0  0  0  0  0  0  0  0
  147.6258  142.8546  153.1614 O   0  0  0  0  0  0  0  0  0  0  0  0
  146.8378  141.2923  154.6440 N   0  0  0  0  0  0  0  0  0  0  0  0
  147.7101  140.1475  154.3701 C   0  0  1  0  0  0  0  0  0  0  0  0
  149.0895  140.3499  155.0197 C   0  0  0  0  0  0  0  0  0  0  0  0
  150.1233  140.0710  154.4108 O   0  0  0  0  0  0  0  0  0  0  0  0
  149.0852  140.8476  156.2648 N   0  0  0  0  0  0  0  0  0  0  0  0
  150.2776  141.1006  157.0628 C   0  0  0  0  0  0  0  0  0  0  0  0
  150.9890  142.3715  156.5786 C   0  0  0  0  0  0  0  0  0  0  0  0
  151.2655  143.3433  157.7094 C   0  0  0  0  0  0  0  0  0  0  0  0
  152.1088  143.0170  158.7940 C   0  0  0  0  0  0  0  0  0  0  0  0
  152.3208  143.9699  159.8124 C   0  0  0  0  0  0  0  0  0  0  0  0
  151.6856  145.2262  159.7258 C   0  0  0  0  0  0  0  0  0  0  0  0
  150.8527  145.4984  158.6214 C   0  0  0  0  0  0  0  0  0  0  0  0
  150.6753  144.5600  157.6657 N   0  3  0  0  0  0  0  0  0  0  0  0
  147.0109  138.9076  154.9811 C   0  0  0  0  0  0  0  0  0  0  0  0
  145.2662  139.3486  155.2145 S   0  0  0  0  0  0  0  0  0  0  0  0
  146.3618  142.3746  157.1144 H   0  0  0  0  0  0  0  0  0  0  0  0
  146.7683  140.6791  157.3462 H   0  0  0  0  0  0  0  0  0  0  0  0
  145.1179  141.2247  157.5911 H   0  0  0  0  0  0  0  0  0  0  0  0
  144.0069  141.6132  154.1930 H   0  0  0  0  0  0  0  0  0  0  0  0
  143.9948  142.4866  155.7176 H   0  0  0  0  0  0  0  0  0  0  0  0
  145.0240  143.5710  153.3669 H   0  0  0  0  0  0  0  0  0  0  0  0
  145.6950  144.0036  154.9530 H   0  0  0  0  0  0  0  0  0  0  0  0
  147.8047  140.0247  153.2893 H   0  0  0  0  0  0  0  0  0  0  0  0
  148.1934  141.0543  156.6911 H   0  0  0  0  0  0  0  0  0  0  0  0
  150.0105  141.2090  158.1156 H   0  0  0  0  0  0  0  0  0  0  0  0
  150.9432  140.2400  156.9865 H   0  0  0  0  0  0  0  0  0  0  0  0
  151.9300  142.1116  156.0917 H   0  0  0  0  0  0  0  0  0  0  0  0
  150.3816  142.8756  155.8252 H   0  0  0  0  0  0  0  0  0  0  0  0
  152.5885  142.0502  158.8472 H   0  0  0  0  0  0  0  0  0  0  0  0
  152.9627  143.7398  160.6501 H   0  0  0  0  0  0  0  0  0  0  0  0
  151.8348  145.9696  160.4953 H   0  0  0  0  0  0  0  0  0  0  0  0
  150.3272  146.4308  158.4743 H   0  0  0  0  0  0  0  0  0  0  0  0
  147.1041  138.0281  154.3438 H   0  0  0  0  0  0  0  0  0  0  0  0
  147.4162  138.6483  155.9606 H   0  0  0  0  0  0  0  0  0  0  0  0
  150.0682  144.7786  156.8752 H   0  0  0  0  0  0  0  0  0  0  0  0
  1  2  1  0  0  0  0
  1 22  1  0  0  0  0
  1 23  1  0  0  0  0
  1 24  1  0  0  0  0
  2  7  1  0  0  0  0
  2 21  1  0  0  0  0
  2  3  1  0  0  0  0
  3  4  1  0  0  0  0
  3 25  1  0  0  0  0
  3 26  1  0  0  0  0
  4  5  1  0  0  0  0
  4 27  1  0  0  0  0
  4 28  1  0  0  0  0
  5  6  2  0  0  0  0
  5  7  1  0  0  0  0
  7  8  1  0  0  0  0
  8  9  1  0  0  0  0
  8 20  1  0  0  0  0
  8 29  1  0  0  0  0
  9 10  2  0  0  0  0
  9 11  1  0  0  0  0
 11 12  1  0  0  0  0
 11 30  1  0  0  0  0
 12 13  1  0  0  0  0
 12 31  1  0  0  0  0
 12 32  1  0  0  0  0
 13 14  1  0  0  0  0
 13 33  1  0  0  0  0
 13 34  1  0  0  0  0
 14 19  1  0  0  0  0
 14 15  2  0  0  0  0
 15 16  1  0  0  0  0
 15 35  1  0  0  0  0
 16 17  2  0  0  0  0
 16 36  1  0  0  0  0
 17 18  1  0  0  0  0
 17 37  1  0  0  0  0
 18 19  2  0  0  0  0
 18 38  1  0  0  0  0
 19 41  1  0  0  0  0
 20 21  1  0  0  0  0
 20 39  1  0  0  0  0
 20 40  1  0  0  0  0
M  CHG  1  19   1
M  END
> <s_m_source_file>
AV-unprocessed.smi

> <i_m_source_file_index>
3057

> <i_lp_mmshare_version>
43012

> <i_f3d_flags>
0

> <s_epik_input>
W0NIMl0xW0NIMl1DKD1PKU4oW0NAQF0xMltDSDNdKVtDQEhdKFtDSDJdUzIpQyg9TylbTkhdW0NIMl1bQ0gyXWMzW2NIXVtjSF1bY0hdW2NIXW4z

> <s_epik_cmdline>
J2VwaWtfcHl0aG9uJywgJy1waCcsICc3LjAnLCAnLXRuJywgJzgnLCAnLW1hJywgJzIwMCcsICctbWV0YWxfYmluZGluZycsICctaW1hZScsICc8aW5maWxlLm1hZT4nLCAnLW9tYWUnLCAnPG91dGZpbGUubWFlPic=

> <r_epik_Ionization_Penalty>
1.8888

> <r_epik_Ionization_Penalty_Charging>
1.8888

> <r_epik_Ionization_Penalty_Neutral>
1.66252e-07

> <r_epik_State_Penalty>
2.00916

> <r_epik_Charging_Adjusted_Penalty>
3.89796

> <i_epik_Tot_Q>
1

> <i_epik_Tot_abs_Q>
1

> <r_epik_Metal_State_Penalty>
2.03343

> <b_epik_Metal_Only>
0

> <s_lp_Force_Field>
OPLS_2005

> <r_lp_Energy>
32.3191

> <b_lp_Chiralities_Consistent>
1

> <s_lp_Variant>
AV-unprocessed.smi:3057-5

> <Gold.Version>
5.8.1

> <Gold.Id.Protein>
6NUR|6NUR_protein|mol2

> <Gold.PLP.Fitness>
43.2286

> <Gold.PLP.PLP>
-34.6672

> <Gold.PLP.part.hbond>
-4.1354

> <Gold.PLP.part.metal>
0.0000

> <Gold.PLP.part.buried>
-0.8325

> <Gold.PLP.part.nonpolar>
-30.6398

> <Gold.PLP.part.repulsive>
1.0039

> <Gold.PLP.ligand.clash>
0.0000

> <Gold.PLP.ligand.torsion>
0.8788

> <Gold.PLP.Chemscore.Hbond>
3.4293

> <Gold.PLP.Chemscore.CHOScore>
0.0000

> <Gold.PLP.Chemscore.Metal>
0.0000

> <Gold.Chemscore.Hbonds>
donor molecule, donor type, donor heavy atom, donor atom, acceptor molecule, acceptor atom, score
      L1  H    19    41       P1  8028  2.00
      P1  H  7989  7998       L1    10  1.00
      P1  H  8022  8030       L1     6  0.27

> <Gold.PLP.Chemscore.Internal.Correction>
0.0311

> <Gold.Rescore>
     Score         DG    S(hbond)    S(metal)    S(lipo)     H(rot)  DE(clash)    DE(int)     intcor
     16.85     -19.60       2.45        0.00      86.21       1.62       1.56       1.19       ----

> <Gold.Chemscore.Fitness>
16.8469

> <Gold.Chemscore.DG>
-19.5976

> <Gold.Chemscore.ZeroCoef>
-5.4800

> <Gold.Chemscore.Hbond>
2.4510

> <Gold.Chemscore.Metal>
0.0000

> <Gold.Chemscore.Lipo>
86.2148

> <Gold.Chemscore.Internal_Hbond>
0.0000

> <Gold.Chemscore.DEClash>
1.5624

> <Gold.Chemscore.DEInternal>
1.1883

> <Gold.Chemscore.Rot>
1.6234

> <Gold.Chemscore.Internal.Correction>
   9.000000E+99

> <Gold.Chemscore.Hbonds>
donor molecule, donor type, donor heavy atom, donor atom, acceptor molecule, acceptor atom, score
      L1  H    19    41       P1  8028  0.40
      P1  H  7989  7998       L1    10  0.96
      P1  H  8011  8017       L1     6  0.01
      P1  H  8022  8030       L1     6  0.26

> <Gold.Chemscore.Hbond.Weighted>
-8.1863

> <Gold.Chemscore.Metal.Weighted>
-0.0000

> <Gold.Chemscore.Lipo.Weighted>
-10.0871

> <Gold.Chemscore.Internal_Hbond.Weighted>
0.0000

> <Gold.Chemscore.DEClash.Weighted>
1.5624

> <Gold.Chemscore.DEInternal.Weighted>
1.1883

> <Gold.Chemscore.Rot.Weighted>
4.1558

> <Gold.Chemscore.Internal.Correction.Weighted>
   9.000000E+99

> <Gold.Protein.RotatedTorsions>
[ 6907 6896 6895 6894 ] final -145.78 input  -60.11 | X-H torsion
[ 7974 7965 7964 7962 ] final   28.65 input  175.53 | X-H torsion
[ 8008 7997 7996 7995 ] final  -46.45 input   59.86 | X-H torsion
[ 10167 10162 10161 10158 ] final -166.30 input  -65.29 | X-H torsion
[ 10718 10713 10712 10709 ] final   17.54 input   66.30 | X-H torsion
[ 10763 10752 10751 10750 ] final    1.74 input  -60.55 | X-H torsion
[ 11005 11000 10999 10996 ] final   98.35 input  -57.11 | X-H torsion

> <Gold.Protein.ActiveResidues>
 VAL166  LYS551  ARG553  GLY616  TRP617  ASP618  TYR619  PRO620  LYS621  CYS622 
 ASP623  PHE694  ASN695  SER759  ASP760  ASP761  ALA762  ILE779  LEU786  VAL792 
 PHE793  MET794  SER795  GLU796  ALA797  LYS798  CYS799  TRP800  GLU811  SER814 

> <Gold.Protein.RotatedAtoms>
  151.1325  133.5027  159.2598 H   0  0  0  0  0  0  0  0  0  0  0  0  # atno 6907 bound_to 6896
  151.1742  135.0331  159.8775 H   0  0  0  0  0  0  0  0  0  0  0  0  # atno 6908 bound_to 6896
  152.5460  134.1185  159.8442 H   0  0  0  0  0  0  0  0  0  0  0  0  # atno 6909 bound_to 6896
  146.1717  139.7027  142.8963 H   0  0  0  0  0  0  0  0  0  0  0  0  # atno 7974 bound_to 7965
  154.4007  140.1371  156.4013 H   0  0  0  0  0  0  0  0  0  0  0  0  # atno 8008 bound_to 7997
  155.7821  140.3481  155.5283 H   0  0  0  0  0  0  0  0  0  0  0  0  # atno 8009 bound_to 7997
  155.8663  140.0964  157.1570 H   0  0  0  0  0  0  0  0  0  0  0  0  # atno 8010 bound_to 7997
  139.6124  144.0787  152.1855 H   0  0  0  0  0  0  0  0  0  0  0  0  # atno 10167 bound_to 10162
  157.0836  130.6398  149.5832 H   0  0  0  0  0  0  0  0  0  0  0  0  # atno 10718 bound_to 10713
  153.3042  135.6958  153.7175 H   0  0  0  0  0  0  0  0  0  0  0  0  # atno 10763 bound_to 10752
  153.6077  135.3450  155.2968 H   0  0  0  0  0  0  0  0  0  0  0  0  # atno 10764 bound_to 10752
  154.8558  135.4356  154.2162 H   0  0  0  0  0  0  0  0  0  0  0  0  # atno 10765 bound_to 10752
  139.8772  134.9045  156.4443 H   0  0  0  0  0  0  0  0  0  0  0  0  # atno 11005 bound_to 11000
  145.4323  141.0416  143.2903 LP  0  0  0  0  0  0  0  0  0  0  0  0  # atno 17320 bound_to 7965
  144.8172  139.5855  143.7003 LP  0  0  0  0  0  0  0  0  0  0  0  0  # atno 17321 bound_to 7965
  140.0409  144.6008  150.7411 LP  0  0  0  0  0  0  0  0  0  0  0  0  # atno 17342 bound_to 10162
  140.7328  143.2710  151.3889 LP  0  0  0  0  0  0  0  0  0  0  0  0  # atno 17343 bound_to 10162
  155.9917  130.4972  150.7309 LP  0  0  0  0  0  0  0  0  0  0  0  0  # atno 17370 bound_to 10713
  157.4780  131.0899  151.0569 LP  0  0  0  0  0  0  0  0  0  0  0  0  # atno 17371 bound_to 10713
  140.8977  133.7802  155.9644 LP  0  0  0  0  0  0  0  0  0  0  0  0  # atno 17394 bound_to 11000
  140.8685  134.2755  157.5202 LP  0  0  0  0  0  0  0  0  0  0  0  0  # atno 17395 bound_to 11000

$$$$
