AV-unprocessed.smi:1487|AV-procd|sdf|6012|dock4
  -GOLD-   22720 6113D 1   1.00000     0.00000
 Structure written by MMmdl.
 48 50  0  0  0  0  0  0  0  0  2 V2000
  152.4084  143.6713  160.9062 C   0  0  0  0  0  0  0  0  0  0  0  0
  152.0836  142.8412  159.6769 C   0  0  0  0  0  0  0  0  0  0  0  0
  152.4676  141.4816  159.6452 C   0  0  0  0  0  0  0  0  0  0  0  0
  152.1838  140.6749  158.5217 C   0  0  0  0  0  0  0  0  0  0  0  0
  152.4589  139.3397  158.2805 N   0  0  0  0  0  0  0  0  0  0  0  0
  151.9445  139.1748  157.0656 C   0  0  0  0  0  0  0  0  0  0  0  0
  151.3644  140.2460  156.4911 N   0  0  0  0  0  0  0  0  0  0  0  0
  150.7364  140.3033  155.1833 C   0  0  0  0  0  0  0  0  0  0  0  0
  149.7996  139.1072  154.9260 C   0  0  1  0  0  0  0  0  0  0  0  0
  149.0599  139.3342  153.7411 O   0  0  0  0  0  0  0  0  0  0  0  0
  150.5872  137.7919  154.7666 C   0  0  0  0  0  0  0  0  0  0  0  0
  149.7026  136.6185  154.5471 N   0  3  1  0  0  0  0  0  0  0  0  0
  150.3933  135.3314  154.8163 C   0  0  0  0  0  0  0  0  0  0  0  0
  149.5165  134.1387  154.4049 C   0  0  0  0  0  0  0  0  0  0  0  0
  148.1592  134.1799  155.1204 C   0  0  0  0  0  0  0  0  0  0  0  0
  147.4687  135.5391  154.9181 C   0  0  2  0  0  0  0  0  0  0  0  0
  147.0174  135.6701  153.5840 O   0  0  0  0  0  0  0  0  0  0  0  0
  148.4046  136.7123  155.2704 C   0  0  0  0  0  0  0  0  0  0  0  0
  151.5011  141.2709  157.4213 C   0  0  0  0  0  0  0  0  0  0  0  0
  151.1152  142.6228  157.4402 C   0  0  0  0  0  0  0  0  0  0  0  0
  151.4051  143.4141  158.5712 C   0  0  0  0  0  0  0  0  0  0  0  0
  150.9808  144.8720  158.5841 C   0  0  0  0  0  0  0  0  0  0  0  0
  152.8965  143.0707  161.6744 H   0  0  0  0  0  0  0  0  0  0  0  0
  151.4990  144.0899  161.3376 H   0  0  0  0  0  0  0  0  0  0  0  0
  153.0783  144.4912  160.6460 H   0  0  0  0  0  0  0  0  0  0  0  0
  152.9846  141.0452  160.4872 H   0  0  0  0  0  0  0  0  0  0  0  0
  151.9898  138.2187  156.5644 H   0  0  0  0  0  0  0  0  0  0  0  0
  150.1924  141.2453  155.0993 H   0  0  0  0  0  0  0  0  0  0  0  0
  151.5241  140.3319  154.4291 H   0  0  0  0  0  0  0  0  0  0  0  0
  149.0977  139.0353  155.7562 H   0  0  0  0  0  0  0  0  0  0  0  0
  149.6662  139.4440  153.0236 H   0  0  0  0  0  0  0  0  0  0  0  0
  151.2688  137.9031  153.9215 H   0  0  0  0  0  0  0  0  0  0  0  0
  151.2159  137.6111  155.6400 H   0  0  0  0  0  0  0  0  0  0  0  0
  151.3294  135.2900  154.2578 H   0  0  0  0  0  0  0  0  0  0  0  0
  150.6508  135.2675  155.8747 H   0  0  0  0  0  0  0  0  0  0  0  0
  149.3659  134.1499  153.3245 H   0  0  0  0  0  0  0  0  0  0  0  0
  150.0284  133.2034  154.6339 H   0  0  0  0  0  0  0  0  0  0  0  0
  147.5197  133.3679  154.7722 H   0  0  0  0  0  0  0  0  0  0  0  0
  148.3145  134.0125  156.1872 H   0  0  0  0  0  0  0  0  0  0  0  0
  146.5844  135.5838  155.5548 H   0  0  0  0  0  0  0  0  0  0  0  0
  147.7656  135.6562  153.0063 H   0  0  0  0  0  0  0  0  0  0  0  0
  148.5989  136.7129  156.3441 H   0  0  0  0  0  0  0  0  0  0  0  0
  147.9031  137.6534  155.0470 H   0  0  0  0  0  0  0  0  0  0  0  0
  150.5977  143.0462  156.5921 H   0  0  0  0  0  0  0  0  0  0  0  0
  150.4916  145.1524  157.6509 H   0  0  0  0  0  0  0  0  0  0  0  0
  151.8462  145.5215  158.7164 H   0  0  0  0  0  0  0  0  0  0  0  0
  150.2799  145.0580  159.3981 H   0  0  0  0  0  0  0  0  0  0  0  0
  149.4863  136.6146  153.5598 H   0  0  0  0  0  0  0  0  0  0  0  0
  1  2  1  0  0  0  0
  1 23  1  0  0  0  0
  1 24  1  0  0  0  0
  1 25  1  0  0  0  0
  2 21  1  0  0  0  0
  2  3  2  0  0  0  0
  3  4  1  0  0  0  0
  3 26  1  0  0  0  0
  4 19  2  0  0  0  0
  4  5  1  0  0  0  0
  5  6  2  0  0  0  0
  6  7  1  0  0  0  0
  6 27  1  0  0  0  0
  7  8  1  0  0  0  0
  7 19  1  0  0  0  0
  8  9  1  0  0  0  0
  8 28  1  0  0  0  0
  8 29  1  0  0  0  0
  9 10  1  0  0  0  0
  9 11  1  0  0  0  0
  9 30  1  0  0  0  0
 10 31  1  0  0  0  0
 11 12  1  0  0  0  0
 11 32  1  0  0  0  0
 11 33  1  0  0  0  0
 12 18  1  0  0  0  0
 12 13  1  0  0  0  0
 12 48  1  0  0  0  0
 13 14  1  0  0  0  0
 13 34  1  0  0  0  0
 13 35  1  0  0  0  0
 14 15  1  0  0  0  0
 14 36  1  0  0  0  0
 14 37  1  0  0  0  0
 15 16  1  0  0  0  0
 15 38  1  0  0  0  0
 15 39  1  0  0  0  0
 16 17  1  0  0  0  0
 16 18  1  0  0  0  0
 16 40  1  0  0  0  0
 17 41  1  0  0  0  0
 18 42  1  0  0  0  0
 18 43  1  0  0  0  0
 19 20  1  0  0  0  0
 20 21  2  0  0  0  0
 20 44  1  0  0  0  0
 21 22  1  0  0  0  0
 22 45  1  0  0  0  0
 22 46  1  0  0  0  0
 22 47  1  0  0  0  0
M  CHG  1  12   1
M  END
> <s_m_source_file>
AV-unprocessed.smi

> <i_m_source_file_index>
1487

> <i_lp_mmshare_version>
43012

> <i_f3d_flags>
0

> <s_epik_input>
W0NIM11jKFtjSF0xKWMoW0NIM10pW2NIXWMoYzEyKW4oW2NIXW4yKVtDSDJdW0NASF0oW09IXSlbQ0gyXU4zW0NIMl1bQ0gyXVtDSDJdW0NAQEhdKFtPSF0pW0NIMl0z

> <s_epik_cmdline>
J2VwaWtfcHl0aG9uJywgJy1waCcsICc3LjAnLCAnLXRuJywgJzgnLCAnLW1hJywgJzIwMCcsICctbWV0YWxfYmluZGluZycsICctaW1hZScsICc8aW5maWxlLm1hZT4nLCAnLW9tYWUnLCAnPG91dGZpbGUubWFlPic=

> <r_epik_Ionization_Penalty>
0.0940186

> <r_epik_Ionization_Penalty_Charging>
0.00679686

> <r_epik_Ionization_Penalty_Neutral>
0.0872218

> <r_epik_State_Penalty>
0.0799311

> <r_epik_Charging_Adjusted_Penalty>
0.086728

> <i_epik_Tot_Q>
1

> <i_epik_Tot_abs_Q>
1

> <r_epik_Metal_State_Penalty>
7.95545e-05

> <b_epik_Metal_Only>
0

> <s_lp_Force_Field>
OPLS_2005

> <r_lp_Energy>
22.2404

> <b_lp_Chiralities_Consistent>
1

> <s_lp_Variant>
AV-unprocessed.smi:1487-6

> <Gold.Version>
5.8.1

> <Gold.Id.Protein>
6NUR|6NUR_protein|mol2

> <Gold.PLP.Fitness>
51.8944

> <Gold.PLP.PLP>
-41.6293

> <Gold.PLP.part.hbond>
-3.0000

> <Gold.PLP.part.metal>
0.0000

> <Gold.PLP.part.buried>
-3.6900

> <Gold.PLP.part.nonpolar>
-35.1659

> <Gold.PLP.part.repulsive>
0.0296

> <Gold.PLP.ligand.clash>
0.0000

> <Gold.PLP.ligand.torsion>
0.4411

> <Gold.PLP.Chemscore.Hbond>
3.7040

> <Gold.PLP.Chemscore.CHOScore>
0.0000

> <Gold.PLP.Chemscore.Metal>
0.0000

> <Gold.Chemscore.Hbonds>
donor molecule, donor type, donor heavy atom, donor atom, acceptor molecule, acceptor atom, score
      L1  H    10    31       P1  7957  0.77
      L1  H    12    48       P1  7948  2.00
      L1  H    17    41       P1  7948  1.00

> <Gold.PLP.Chemscore.Internal.Correction>
0.0352

> <Gold.Rescore>
     Score         DG    S(hbond)    S(metal)    S(lipo)     H(rot)  DE(clash)    DE(int)     intcor
     19.93     -21.41       2.80        0.00     114.55       2.67       0.37       1.11       ----

> <Gold.Chemscore.Fitness>
19.9281

> <Gold.Chemscore.DG>
-21.4097

> <Gold.Chemscore.ZeroCoef>
-5.4800

> <Gold.Chemscore.Hbond>
2.8040

> <Gold.Chemscore.Metal>
0.0000

> <Gold.Chemscore.Lipo>
114.5522

> <Gold.Chemscore.Internal_Hbond>
0.0000

> <Gold.Chemscore.DEClash>
0.3703

> <Gold.Chemscore.DEInternal>
1.1113

> <Gold.Chemscore.Rot>
2.6712

> <Gold.Chemscore.Internal.Correction>
   9.000000E+99

> <Gold.Chemscore.Hbonds>
donor molecule, donor type, donor heavy atom, donor atom, acceptor molecule, acceptor atom, score
      L1  H    10    31       P1  7957  0.75
      L1  H    12    48       P1  7948  0.78
      L1  H    17    41       P1  7948  1.00

> <Gold.Chemscore.Hbond.Weighted>
-9.3654

> <Gold.Chemscore.Metal.Weighted>
-0.0000

> <Gold.Chemscore.Lipo.Weighted>
-13.4026

> <Gold.Chemscore.Internal_Hbond.Weighted>
0.0000

> <Gold.Chemscore.DEClash.Weighted>
0.3703

> <Gold.Chemscore.DEInternal.Weighted>
1.1113

> <Gold.Chemscore.Rot.Weighted>
6.8383

> <Gold.Chemscore.Internal.Correction.Weighted>
   9.000000E+99

> <Gold.Protein.RotatedTorsions>
[ 6907 6896 6895 6894 ] final   92.25 input  -60.11 | X-H torsion
[ 7974 7965 7964 7962 ] final    0.64 input  175.53 | X-H torsion
[ 8008 7997 7996 7995 ] final -129.30 input   59.86 | X-H torsion
[ 10167 10162 10161 10158 ] final  -83.50 input  -65.29 | X-H torsion
[ 10718 10713 10712 10709 ] final  175.22 input   66.30 | X-H torsion
[ 10763 10752 10751 10750 ] final   65.66 input  -60.55 | X-H torsion
[ 11005 11000 10999 10996 ] final   29.91 input  -57.11 | X-H torsion

> <Gold.Protein.ActiveResidues>
 VAL166  LYS551  ARG553  GLY616  TRP617  ASP618  TYR619  PRO620  LYS621  CYS622 
 ASP623  PHE694  ASN695  SER759  ASP760  ASP761  ALA762  ILE779  LEU786  VAL792 
 PHE793  MET794  SER795  GLU796  ALA797  LYS798  CYS799  TRP800  GLU811  SER814 

> <Gold.Protein.RotatedAtoms>
  152.5452  134.1531  159.8526 H   0  0  0  0  0  0  0  0  0  0  0  0  # atno 6907 bound_to 6896
  151.1556  133.4872  159.2602 H   0  0  0  0  0  0  0  0  0  0  0  0  # atno 6908 bound_to 6896
  151.1427  135.0198  159.8688 H   0  0  0  0  0  0  0  0  0  0  0  0  # atno 6909 bound_to 6896
  146.2435  140.1107  142.8344 H   0  0  0  0  0  0  0  0  0  0  0  0  # atno 7974 bound_to 7965
  155.2770  140.0442  157.3012 H   0  0  0  0  0  0  0  0  0  0  0  0  # atno 8008 bound_to 7997
  154.5619  140.2348  155.8290 H   0  0  0  0  0  0  0  0  0  0  0  0  # atno 8009 bound_to 7997
  156.2054  140.3014  155.9623 H   0  0  0  0  0  0  0  0  0  0  0  0  # atno 8010 bound_to 7997
  140.4220  143.2581  151.8876 H   0  0  0  0  0  0  0  0  0  0  0  0  # atno 10167 bound_to 10162
  156.9380  130.9992  151.2974 H   0  0  0  0  0  0  0  0  0  0  0  0  # atno 10718 bound_to 10713
  153.0106  135.5348  154.6703 H   0  0  0  0  0  0  0  0  0  0  0  0  # atno 10763 bound_to 10752
  154.5889  135.2857  155.0658 H   0  0  0  0  0  0  0  0  0  0  0  0  # atno 10764 bound_to 10752
  154.1759  135.6524  153.5074 H   0  0  0  0  0  0  0  0  0  0  0  0  # atno 10765 bound_to 10752
  140.2999  134.2768  155.7756 H   0  0  0  0  0  0  0  0  0  0  0  0  # atno 11005 bound_to 11000
  145.0489  140.9003  143.5007 LP  0  0  0  0  0  0  0  0  0  0  0  0  # atno 17320 bound_to 7965
  145.1201  139.2699  143.5593 LP  0  0  0  0  0  0  0  0  0  0  0  0  # atno 17321 bound_to 7965
  139.4783  144.5427  151.8505 LP  0  0  0  0  0  0  0  0  0  0  0  0  # atno 17342 bound_to 10162
  140.4522  144.1838  150.5898 LP  0  0  0  0  0  0  0  0  0  0  0  0  # atno 17343 bound_to 10162
  157.5803  130.8372  149.8513 LP  0  0  0  0  0  0  0  0  0  0  0  0  # atno 17370 bound_to 10713
  156.0417  130.3737  150.1419 LP  0  0  0  0  0  0  0  0  0  0  0  0  # atno 17371 bound_to 10713
  141.2130  133.7639  156.9751 LP  0  0  0  0  0  0  0  0  0  0  0  0  # atno 17394 bound_to 11000
  140.1119  134.9472  157.2077 LP  0  0  0  0  0  0  0  0  0  0  0  0  # atno 17395 bound_to 11000

$$$$
