AV-unprocessed.smi:1893|AV-procd|sdf|7678|dock2
  -GOLD-   22720 9413D 1   1.00000     0.00000
 Structure written by MMmdl.
 43 44  0  0  0  0  0  0  0  0  2 V2000
  145.1660  135.7858  150.6007 C   0  0  0  0  0  0  0  0  0  0  0  0
  145.4563  134.6396  151.5931 C   0  0  1  0  0  0  0  0  0  0  0  0
  146.0571  133.4543  150.8036 C   0  0  0  0  0  0  0  0  0  0  0  0
  146.3848  132.2639  151.7073 C   0  0  0  0  0  0  0  0  0  0  0  0
  147.3183  132.7239  152.8258 C   0  0  0  0  0  0  0  0  0  0  0  0
  146.6890  133.8869  153.6039 C   0  0  0  0  0  0  0  0  0  0  0  0
  146.3618  135.0439  152.7199 N   0  3  2  0  0  0  0  0  0  0  0  0
  145.8755  136.2128  153.5093 C   0  0  0  0  0  0  0  0  0  0  0  0
  146.7882  136.5519  154.7019 C   0  0  0  0  0  0  0  0  0  0  0  0
  147.8968  137.3935  154.2742 N   0  0  0  0  0  0  0  0  0  0  0  0
  148.1388  138.6254  154.7473 C   0  0  0  0  0  0  0  0  0  0  0  0
  147.4251  139.1713  155.5894 O   0  0  0  0  0  0  0  0  0  0  0  0
  149.3790  139.3367  154.1841 C   0  0  1  0  0  0  0  0  0  0  0  0
  149.4488  140.8240  154.5778 C   0  0  0  0  0  0  0  0  0  0  0  0
  150.5879  138.6315  154.5870 N   0  0  0  0  0  0  0  0  0  0  0  0
  150.8799  137.3276  154.5974 C   0  0  0  0  0  0  0  0  0  0  0  0
  152.1050  137.0554  155.0242 N   0  0  0  0  0  0  0  0  0  0  0  0
  152.5447  138.3233  155.2791 C   0  0  0  0  0  0  0  0  0  0  0  0
  151.6773  139.3043  155.0291 N   0  0  0  0  0  0  0  0  0  0  0  0
  144.6670  135.4091  149.7072 H   0  0  0  0  0  0  0  0  0  0  0  0
  146.0846  136.2773  150.2785 H   0  0  0  0  0  0  0  0  0  0  0  0
  144.4995  136.5407  151.0158 H   0  0  0  0  0  0  0  0  0  0  0  0
  144.5075  134.3159  152.0244 H   0  0  0  0  0  0  0  0  0  0  0  0
  145.3632  133.1311  150.0265 H   0  0  0  0  0  0  0  0  0  0  0  0
  146.9639  133.7767  150.2890 H   0  0  0  0  0  0  0  0  0  0  0  0
  145.4680  131.8514  152.1305 H   0  0  0  0  0  0  0  0  0  0  0  0
  146.8517  131.4662  151.1287 H   0  0  0  0  0  0  0  0  0  0  0  0
  147.5277  131.8933  153.5006 H   0  0  0  0  0  0  0  0  0  0  0  0
  148.2772  133.0334  152.4072 H   0  0  0  0  0  0  0  0  0  0  0  0
  145.7829  133.5484  154.1092 H   0  0  0  0  0  0  0  0  0  0  0  0
  147.3891  134.1798  154.3837 H   0  0  0  0  0  0  0  0  0  0  0  0
  145.8393  137.1089  152.8947 H   0  0  0  0  0  0  0  0  0  0  0  0
  144.8527  136.0307  153.8431 H   0  0  0  0  0  0  0  0  0  0  0  0
  146.2501  137.0868  155.4836 H   0  0  0  0  0  0  0  0  0  0  0  0
  147.1754  135.6323  155.1440 H   0  0  0  0  0  0  0  0  0  0  0  0
  148.5292  137.0152  153.5834 H   0  0  0  0  0  0  0  0  0  0  0  0
  149.3090  139.2918  153.0955 H   0  0  0  0  0  0  0  0  0  0  0  0
  148.5542  141.3600  154.2586 H   0  0  0  0  0  0  0  0  0  0  0  0
  150.3045  141.3091  154.1075 H   0  0  0  0  0  0  0  0  0  0  0  0
  149.5486  140.9548  155.6562 H   0  0  0  0  0  0  0  0  0  0  0  0
  150.1835  136.5636  154.2836 H   0  0  0  0  0  0  0  0  0  0  0  0
  153.5358  138.5304  155.6557 H   0  0  0  0  0  0  0  0  0  0  0  0
  147.2273  135.3344  152.2877 H   0  0  0  0  0  0  0  0  0  0  0  0
  1  2  1  0  0  0  0
  1 20  1  0  0  0  0
  1 21  1  0  0  0  0
  1 22  1  0  0  0  0
  2  7  1  0  0  0  0
  2  3  1  0  0  0  0
  2 23  1  0  0  0  0
  3  4  1  0  0  0  0
  3 24  1  0  0  0  0
  3 25  1  0  0  0  0
  4  5  1  0  0  0  0
  4 26  1  0  0  0  0
  4 27  1  0  0  0  0
  5  6  1  0  0  0  0
  5 28  1  0  0  0  0
  5 29  1  0  0  0  0
  6  7  1  0  0  0  0
  6 30  1  0  0  0  0
  6 31  1  0  0  0  0
  7  8  1  0  0  0  0
  7 43  1  0  0  0  0
  8  9  1  0  0  0  0
  8 32  1  0  0  0  0
  8 33  1  0  0  0  0
  9 10  1  0  0  0  0
  9 34  1  0  0  0  0
  9 35  1  0  0  0  0
 10 11  1  0  0  0  0
 10 36  1  0  0  0  0
 11 12  2  0  0  0  0
 11 13  1  0  0  0  0
 13 14  1  0  0  0  0
 13 15  1  0  0  0  0
 13 37  1  0  0  0  0
 14 38  1  0  0  0  0
 14 39  1  0  0  0  0
 14 40  1  0  0  0  0
 15 19  1  0  0  0  0
 15 16  1  0  0  0  0
 16 17  2  0  0  0  0
 16 41  1  0  0  0  0
 17 18  1  0  0  0  0
 18 19  2  0  0  0  0
 18 42  1  0  0  0  0
M  CHG  1   7   1
M  END
> <s_m_source_file>
AV-unprocessed.smi

> <i_m_source_file_index>
1893

> <i_lp_mmshare_version>
43012

> <i_f3d_flags>
0

> <s_epik_input>
W0NIM11bQ0BASF0xW0NIMl1bQ0gyXVtDSDJdW0NIMl1OMVtDSDJdW0NIMl1bTkhdQyg9TylbQ0BIXShbQ0gzXSluMltjSF1uW2NIXW4y

> <s_epik_cmdline>
J2VwaWtfcHl0aG9uJywgJy1waCcsICc3LjAnLCAnLXRuJywgJzgnLCAnLW1hJywgJzIwMCcsICctbWV0YWxfYmluZGluZycsICctaW1hZScsICc8aW5maWxlLm1hZT4nLCAnLW9tYWUnLCAnPG91dGZpbGUubWFlPic=

> <r_lp_tautomer_probability>
1

> <r_epik_Ionization_Penalty>
0.00266409

> <r_epik_Ionization_Penalty_Charging>
0.00265606

> <r_epik_Ionization_Penalty_Neutral>
8.02794e-06

> <r_epik_State_Penalty>
0.00184955

> <r_epik_Charging_Adjusted_Penalty>
0.00450561

> <i_epik_Tot_Q>
1

> <i_epik_Tot_abs_Q>
1

> <r_epik_Metal_State_Penalty>
-0

> <b_epik_Metal_Only>
0

> <s_lp_Force_Field>
OPLS_2005

> <r_lp_Energy>
26.1161

> <b_lp_Chiralities_Consistent>
1

> <s_lp_Variant>
AV-unprocessed.smi:1893-8

> <Gold.Version>
5.8.1

> <Gold.Id.Protein>
6NUR|6NUR_protein|mol2

> <Gold.PLP.Fitness>
49.4270

> <Gold.PLP.PLP>
-33.0250

> <Gold.PLP.part.hbond>
-4.0000

> <Gold.PLP.part.metal>
0.0000

> <Gold.PLP.part.buried>
-2.3599

> <Gold.PLP.part.nonpolar>
-28.3443

> <Gold.PLP.part.repulsive>
0.1706

> <Gold.PLP.ligand.clash>
0.0000

> <Gold.PLP.ligand.torsion>
0.5969

> <Gold.PLP.Chemscore.Hbond>
4.8160

> <Gold.PLP.Chemscore.CHOScore>
1.0006

> <Gold.PLP.Chemscore.Metal>
0.0000

> <Gold.Chemscore.Hbonds>
donor molecule, donor type, donor heavy atom, donor atom, acceptor molecule, acceptor atom, score
      L1  H     7    43       P1  7948  2.00
      L1  H    10    36       P1  7948  1.00
      P1  H  7989  7998       L1    19  0.52
      P1  H 10752 10765       L1    17  0.88
      L1  C    16    41       P1  7948  0.57

> <Gold.PLP.Chemscore.Internal.Correction>
0.1460

> <Gold.Rescore>
     Score         DG    S(hbond)    S(metal)    S(lipo)     H(rot)  DE(clash)    DE(int)     intcor
     15.74     -17.83       3.80        0.00      52.65       2.54       0.06       2.03       ----

> <Gold.Chemscore.Fitness>
15.7400

> <Gold.Chemscore.DG>
-17.8271

> <Gold.Chemscore.ZeroCoef>
-5.4800

> <Gold.Chemscore.Hbond>
3.7976

> <Gold.Chemscore.Metal>
0.0000

> <Gold.Chemscore.Lipo>
52.6463

> <Gold.Chemscore.Internal_Hbond>
0.0000

> <Gold.Chemscore.DEClash>
0.0555

> <Gold.Chemscore.DEInternal>
2.0315

> <Gold.Chemscore.Rot>
2.5377

> <Gold.Chemscore.Internal.Correction>
   9.000000E+99

> <Gold.Chemscore.Hbonds>
donor molecule, donor type, donor heavy atom, donor atom, acceptor molecule, acceptor atom, score
      L1  H     7    43       P1  7948  0.98
      L1  H    10    36       P1  7948  0.97
      P1  H  7989  7998       L1    19  0.09
      P1  H 10752 10765       L1    17  0.85

> <Gold.Chemscore.Hbond.Weighted>
-12.6840

> <Gold.Chemscore.Metal.Weighted>
-0.0000

> <Gold.Chemscore.Lipo.Weighted>
-6.1596

> <Gold.Chemscore.Internal_Hbond.Weighted>
0.0000

> <Gold.Chemscore.DEClash.Weighted>
0.0555

> <Gold.Chemscore.DEInternal.Weighted>
2.0315

> <Gold.Chemscore.Rot.Weighted>
6.4966

> <Gold.Chemscore.Internal.Correction.Weighted>
   9.000000E+99

> <Gold.Protein.RotatedTorsions>
[ 6907 6896 6895 6894 ] final  148.21 input  -60.11 | X-H torsion
[ 7974 7965 7964 7962 ] final    9.52 input  175.53 | X-H torsion
[ 8008 7997 7996 7995 ] final   39.76 input   59.86 | X-H torsion
[ 10167 10162 10161 10158 ] final  -61.55 input  -65.29 | X-H torsion
[ 10718 10713 10712 10709 ] final  150.63 input   66.30 | X-H torsion
[ 10763 10752 10751 10750 ] final  169.72 input  -60.55 | X-H torsion
[ 11005 11000 10999 10996 ] final  173.88 input  -57.11 | X-H torsion

> <Gold.Protein.ActiveResidues>
 VAL166  LYS551  ARG553  GLY616  TRP617  ASP618  TYR619  PRO620  LYS621  CYS622 
 ASP623  PHE694  ASN695  SER759  ASP760  ASP761  ALA762  ILE779  LEU786  VAL792 
 PHE793  MET794  SER795  GLU796  ALA797  LYS798  CYS799  TRP800  GLU811  SER814 

> <Gold.Protein.RotatedAtoms>
  152.1446  133.4484  159.4783 H   0  0  0  0  0  0  0  0  0  0  0  0  # atno 6907 bound_to 6896
  150.6889  134.2264  159.4426 H   0  0  0  0  0  0  0  0  0  0  0  0  # atno 6908 bound_to 6896
  152.0157  134.9851  160.0620 H   0  0  0  0  0  0  0  0  0  0  0  0  # atno 6909 bound_to 6896
  146.2402  139.9771  142.8440 H   0  0  0  0  0  0  0  0  0  0  0  0  # atno 7974 bound_to 7965
  155.2419  140.3346  155.4291 H   0  0  0  0  0  0  0  0  0  0  0  0  # atno 8008 bound_to 7997
  156.2252  140.1826  156.7425 H   0  0  0  0  0  0  0  0  0  0  0  0  # atno 8009 bound_to 7997
  154.5887  140.0641  156.9193 H   0  0  0  0  0  0  0  0  0  0  0  0  # atno 8010 bound_to 7997
  140.5998  143.2359  151.5954 H   0  0  0  0  0  0  0  0  0  0  0  0  # atno 10167 bound_to 10162
  157.2810  131.0835  151.1531 H   0  0  0  0  0  0  0  0  0  0  0  0  # atno 10718 bound_to 10713
  154.3872  135.2754  155.2176 H   0  0  0  0  0  0  0  0  0  0  0  0  # atno 10763 bound_to 10752
  154.4257  135.5989  153.6041 H   0  0  0  0  0  0  0  0  0  0  0  0  # atno 10764 bound_to 10752
  152.9833  135.5983  154.4123 H   0  0  0  0  0  0  0  0  0  0  0  0  # atno 10765 bound_to 10752
  140.3453  134.7241  157.4230 H   0  0  0  0  0  0  0  0  0  0  0  0  # atno 11005 bound_to 11000
  145.1627  140.9681  143.4368 LP  0  0  0  0  0  0  0  0  0  0  0  0  # atno 17320 bound_to 7965
  145.0101  139.3518  143.6124 LP  0  0  0  0  0  0  0  0  0  0  0  0  # atno 17321 bound_to 7965
  139.5283  144.2992  152.1088 LP  0  0  0  0  0  0  0  0  0  0  0  0  # atno 17342 bound_to 10162
  140.2171  144.4504  150.6359 LP  0  0  0  0  0  0  0  0  0  0  0  0  # atno 17343 bound_to 10162
  157.2965  130.6822  149.6141 LP  0  0  0  0  0  0  0  0  0  0  0  0  # atno 17370 bound_to 10713
  155.9664  130.4405  150.5301 LP  0  0  0  0  0  0  0  0  0  0  0  0  # atno 17371 bound_to 10713
  140.0747  134.5813  155.8603 LP  0  0  0  0  0  0  0  0  0  0  0  0  # atno 17394 bound_to 11000
  141.2027  133.6627  156.6022 LP  0  0  0  0  0  0  0  0  0  0  0  0  # atno 17395 bound_to 11000

$$$$
