AV-unprocessed.smi:623|AV-procd|sdf|3096|dock3
  -GOLD-   22720 0 13D 1   1.00000     0.00000
 Structure written by MMmdl.
 44 46  0  0  0  0  0  0  0  0  2 V2000
  144.5012  136.7387  162.5898 C   0  0  0  0  0  0  0  0  0  0  0  0
  145.9186  136.2526  162.1749 C   0  0  0  0  0  0  0  0  0  0  0  0
  146.8868  137.3715  162.6525 C   0  0  0  0  0  0  0  0  0  0  0  0
  146.2801  134.8422  162.6827 C   0  0  1  0  0  0  0  0  0  0  0  0
  145.2457  133.9308  161.9840 C   0  0  0  0  0  0  0  0  0  0  0  0
  145.0776  134.6079  160.6075 C   0  0  0  0  0  0  0  0  0  0  0  0
  146.0600  135.8048  160.6926 C   0  0  1  0  0  0  0  0  0  0  0  0
  145.7697  136.8850  159.6310 C   0  0  0  0  0  0  0  0  0  0  0  0
  147.4792  135.1630  160.6127 C   0  0  1  0  0  0  0  0  0  0  0  0
  148.5149  136.1311  160.2735 N   0  0  0  0  0  0  0  0  0  0  0  0
  149.3409  136.0892  159.2172 C   0  0  0  0  0  0  0  0  0  0  0  0
  149.2978  135.1992  158.3686 O   0  0  0  0  0  0  0  0  0  0  0  0
  150.3956  137.2040  159.0972 C   0  0  0  0  0  0  0  0  0  0  0  0
  150.3659  137.9269  157.8112 N   0  0  0  0  0  0  0  0  0  0  0  0
  151.4988  137.8224  156.9848 C   0  0  0  0  0  0  0  0  0  0  0  0
  151.5906  138.4855  155.8166 C   0  0  0  0  0  0  0  0  0  0  0  0
  150.4731  139.3298  155.4131 C   0  0  0  0  0  0  0  0  0  0  0  0
  150.5408  139.9460  154.3515 O   0  0  0  0  0  0  0  0  0  0  0  0
  149.3942  139.3959  156.2468 N   0  5  0  0  0  0  0  0  0  0  0  0
  149.3169  138.7196  157.4346 C   0  0  0  0  0  0  0  0  0  0  0  0
  148.3430  138.8104  158.1821 O   0  0  0  0  0  0  0  0  0  0  0  0
  147.6473  134.5506  162.0228 C   0  0  0  0  0  0  0  0  0  0  0  0
  144.4434  136.8757  163.6699 H   0  0  0  0  0  0  0  0  0  0  0  0
  143.6856  136.0712  162.3223 H   0  0  0  0  0  0  0  0  0  0  0  0
  144.2749  137.7026  162.1329 H   0  0  0  0  0  0  0  0  0  0  0  0
  147.9443  137.1577  162.5266 H   0  0  0  0  0  0  0  0  0  0  0  0
  146.7497  137.5683  163.7161 H   0  0  0  0  0  0  0  0  0  0  0  0
  146.6910  138.3064  162.1268 H   0  0  0  0  0  0  0  0  0  0  0  0
  146.2920  134.7317  163.7674 H   0  0  0  0  0  0  0  0  0  0  0  0
  145.5951  132.9015  161.8952 H   0  0  0  0  0  0  0  0  0  0  0  0
  144.3022  133.9022  162.5296 H   0  0  0  0  0  0  0  0  0  0  0  0
  145.3099  133.9297  159.7855 H   0  0  0  0  0  0  0  0  0  0  0  0
  144.0491  134.9357  160.4544 H   0  0  0  0  0  0  0  0  0  0  0  0
  145.9205  136.4926  158.6250 H   0  0  0  0  0  0  0  0  0  0  0  0
  146.4173  137.7545  159.7457 H   0  0  0  0  0  0  0  0  0  0  0  0
  144.7405  137.2371  159.6956 H   0  0  0  0  0  0  0  0  0  0  0  0
  147.5032  134.3816  159.8507 H   0  0  0  0  0  0  0  0  0  0  0  0
  148.6227  136.9088  160.9093 H   0  0  0  0  0  0  0  0  0  0  0  0
  150.2449  137.9057  159.9186 H   0  0  0  0  0  0  0  0  0  0  0  0
  151.3815  136.7707  159.2724 H   0  0  0  0  0  0  0  0  0  0  0  0
  152.2852  137.1858  157.3628 H   0  0  0  0  0  0  0  0  0  0  0  0
  152.4711  138.3997  155.1970 H   0  0  0  0  0  0  0  0  0  0  0  0
  148.4641  135.0100  162.5799 H   0  0  0  0  0  0  0  0  0  0  0  0
  147.8643  133.4828  161.9769 H   0  0  0  0  0  0  0  0  0  0  0  0
  1  2  1  0  0  0  0
  1 23  1  0  0  0  0
  1 24  1  0  0  0  0
  1 25  1  0  0  0  0
  2  7  1  0  0  0  0
  2  3  1  0  0  0  0
  2  4  1  0  0  0  0
  3 26  1  0  0  0  0
  3 27  1  0  0  0  0
  3 28  1  0  0  0  0
  4 22  1  0  0  0  0
  4  5  1  0  0  0  0
  4 29  1  0  0  0  0
  5  6  1  0  0  0  0
  5 30  1  0  0  0  0
  5 31  1  0  0  0  0
  6  7  1  0  0  0  0
  6 32  1  0  0  0  0
  6 33  1  0  0  0  0
  7  8  1  0  0  0  0
  7  9  1  0  0  0  0
  8 34  1  0  0  0  0
  8 35  1  0  0  0  0
  8 36  1  0  0  0  0
  9 10  1  0  0  0  0
  9 22  1  0  0  0  0
  9 37  1  0  0  0  0
 10 11  1  0  0  0  0
 10 38  1  0  0  0  0
 11 12  2  0  0  0  0
 11 13  1  0  0  0  0
 13 14  1  0  0  0  0
 13 39  1  0  0  0  0
 13 40  1  0  0  0  0
 14 20  1  0  0  0  0
 14 15  1  0  0  0  0
 15 16  2  0  0  0  0
 15 41  1  0  0  0  0
 16 17  1  0  0  0  0
 16 42  1  0  0  0  0
 17 18  2  0  0  0  0
 17 19  1  0  0  0  0
 19 20  1  0  0  0  0
 20 21  2  0  0  0  0
 22 43  1  0  0  0  0
 22 44  1  0  0  0  0
M  CHG  1  19  -1
M  END
> <s_m_source_file>
AV-unprocessed.smi

> <i_m_source_file_index>
623

> <i_lp_mmshare_version>
43012

> <i_f3d_flags>
0

> <s_epik_input>
W0NIM11bQ0BdMTJDKFtDSDNdKShbQ0gzXSlbQ0BIXShbQ0gyXVtDSDJdMSlbQ0gyXVtDQEBIXTJbTkhdQyg9TylbQ0gyXW4zW2NIXVtjSF1jKD1PKVtuSF1jMz1P

> <s_epik_cmdline>
J2VwaWtfcHl0aG9uJywgJy1waCcsICc3LjAnLCAnLXRuJywgJzgnLCAnLW1hJywgJzIwMCcsICctbWV0YWxfYmluZGluZycsICctaW1hZScsICc8aW5maWxlLm1hZT4nLCAnLW9tYWUnLCAnPG91dGZpbGUubWFlPic=

> <r_lp_tautomer_probability>
0.999537

> <r_epik_Ionization_Penalty>
3.12624

> <r_epik_Ionization_Penalty_Charging>
3.01273e-08

> <r_epik_Ionization_Penalty_Neutral>
3.12624

> <r_epik_State_Penalty>
3.12534

> <r_epik_Charging_Adjusted_Penalty>
3.12534

> <i_epik_Tot_Q>
-1

> <i_epik_Tot_abs_Q>
1

> <r_epik_Metal_State_Penalty>
0.46406

> <b_epik_Metal_Only>
1

> <s_lp_Force_Field>
OPLS_2005

> <r_lp_Energy>
63.0449

> <b_lp_Chiralities_Consistent>
1

> <s_lp_Variant>
AV-unprocessed.smi:623-6

> <Gold.Version>
5.8.1

> <Gold.Id.Protein>
6NUR|6NUR_protein|mol2

> <Gold.PLP.Fitness>
35.0275

> <Gold.PLP.PLP>
-29.1349

> <Gold.PLP.part.hbond>
-3.0000

> <Gold.PLP.part.metal>
0.0000

> <Gold.PLP.part.buried>
-3.3032

> <Gold.PLP.part.nonpolar>
-23.6938

> <Gold.PLP.part.repulsive>
0.3290

> <Gold.PLP.ligand.clash>
0.0000

> <Gold.PLP.ligand.torsion>
0.0604

> <Gold.PLP.Chemscore.Hbond>
2.0000

> <Gold.PLP.Chemscore.CHOScore>
0.0000

> <Gold.PLP.Chemscore.Metal>
0.0000

> <Gold.Chemscore.Hbonds>
donor molecule, donor type, donor heavy atom, donor atom, acceptor molecule, acceptor atom, score
      P1  H  6896  6909       L1    12  0.25
      P1  H  7989  7998       L1    18  1.00

> <Gold.PLP.Chemscore.Internal.Correction>
0.0134

> <Gold.Rescore>
     Score         DG    S(hbond)    S(metal)    S(lipo)     H(rot)  DE(clash)    DE(int)     intcor
     15.08     -16.49       1.95        0.00      74.08       1.63       1.25       0.17       ----

> <Gold.Chemscore.Fitness>
15.0755

> <Gold.Chemscore.DG>
-16.4909

> <Gold.Chemscore.ZeroCoef>
-5.4800

> <Gold.Chemscore.Hbond>
1.9525

> <Gold.Chemscore.Metal>
0.0000

> <Gold.Chemscore.Lipo>
74.0846

> <Gold.Chemscore.Internal_Hbond>
0.0000

> <Gold.Chemscore.DEClash>
1.2496

> <Gold.Chemscore.DEInternal>
0.1658

> <Gold.Chemscore.Rot>
1.6322

> <Gold.Chemscore.Internal.Correction>
   9.000000E+99

> <Gold.Chemscore.Hbonds>
donor molecule, donor type, donor heavy atom, donor atom, acceptor molecule, acceptor atom, score
      P1  H  7989  7998       L1    18  1.00

> <Gold.Chemscore.Hbond.Weighted>
-6.5213

> <Gold.Chemscore.Metal.Weighted>
-0.0000

> <Gold.Chemscore.Lipo.Weighted>
-8.6679

> <Gold.Chemscore.Internal_Hbond.Weighted>
0.0000

> <Gold.Chemscore.DEClash.Weighted>
1.2496

> <Gold.Chemscore.DEInternal.Weighted>
0.1658

> <Gold.Chemscore.Rot.Weighted>
4.1783

> <Gold.Chemscore.Internal.Correction.Weighted>
   9.000000E+99

> <Gold.Protein.RotatedTorsions>
[ 6907 6896 6895 6894 ] final   34.43 input  -60.11 | X-H torsion
[ 7974 7965 7964 7962 ] final   78.52 input  175.53 | X-H torsion
[ 8008 7997 7996 7995 ] final  -59.01 input   59.86 | X-H torsion
[ 10167 10162 10161 10158 ] final  -94.36 input  -65.29 | X-H torsion
[ 10718 10713 10712 10709 ] final   43.84 input   66.30 | X-H torsion
[ 10763 10752 10751 10750 ] final  135.37 input  -60.55 | X-H torsion
[ 11005 11000 10999 10996 ] final   48.01 input  -57.11 | X-H torsion

> <Gold.Protein.ActiveResidues>
 VAL166  LYS551  ARG553  GLY616  TRP617  ASP618  TYR619  PRO620  LYS621  CYS622 
 ASP623  PHE694  ASN695  SER759  ASP760  ASP761  ALA762  ILE779  LEU786  VAL792 
 PHE793  MET794  SER795  GLU796  ALA797  LYS798  CYS799  TRP800  GLU811  SER814 

> <Gold.Protein.RotatedAtoms>
  152.1023  134.9333  160.0568 H   0  0  0  0  0  0  0  0  0  0  0  0  # atno 6907 bound_to 6896
  152.0542  133.4028  159.4398 H   0  0  0  0  0  0  0  0  0  0  0  0  # atno 6908 bound_to 6896
  150.6840  134.3193  159.4823 H   0  0  0  0  0  0  0  0  0  0  0  0  # atno 6909 bound_to 6896
  145.6761  139.2510  143.1841 H   0  0  0  0  0  0  0  0  0  0  0  0  # atno 7974 bound_to 7965
  154.4334  140.1071  156.6048 H   0  0  0  0  0  0  0  0  0  0  0  0  # atno 8008 bound_to 7997
  155.5872  140.3491  155.4537 H   0  0  0  0  0  0  0  0  0  0  0  0  # atno 8009 bound_to 7997
  156.0274  140.1253  157.0284 H   0  0  0  0  0  0  0  0  0  0  0  0  # atno 8010 bound_to 7997
  140.3152  143.3081  152.0105 H   0  0  0  0  0  0  0  0  0  0  0  0  # atno 10167 bound_to 10162
  157.4203  130.7965  149.7509 H   0  0  0  0  0  0  0  0  0  0  0  0  # atno 10718 bound_to 10713
  153.8389  135.3094  155.3424 H   0  0  0  0  0  0  0  0  0  0  0  0  # atno 10763 bound_to 10752
  154.7941  135.4765  154.0123 H   0  0  0  0  0  0  0  0  0  0  0  0  # atno 10764 bound_to 10752
  153.1588  135.6857  153.8865 H   0  0  0  0  0  0  0  0  0  0  0  0  # atno 10765 bound_to 10752
  140.1228  134.4807  155.8583 H   0  0  0  0  0  0  0  0  0  0  0  0  # atno 11005 bound_to 11000
  146.1004  140.7550  142.9552 LP  0  0  0  0  0  0  0  0  0  0  0  0  # atno 17320 bound_to 7965
  144.7041  140.3779  143.7132 LP  0  0  0  0  0  0  0  0  0  0  0  0  # atno 17321 bound_to 7965
  139.4885  144.6354  151.6987 LP  0  0  0  0  0  0  0  0  0  0  0  0  # atno 17342 bound_to 10162
  140.5532  144.0390  150.6136 LP  0  0  0  0  0  0  0  0  0  0  0  0  # atno 17343 bound_to 10162
  155.9878  130.3964  150.3146 LP  0  0  0  0  0  0  0  0  0  0  0  0  # atno 17370 bound_to 10713
  157.1293  131.0267  151.2976 LP  0  0  0  0  0  0  0  0  0  0  0  0  # atno 17371 bound_to 10713
  141.2155  133.6767  156.6921 LP  0  0  0  0  0  0  0  0  0  0  0  0  # atno 17394 bound_to 11000
  140.2943  134.8215  157.4043 LP  0  0  0  0  0  0  0  0  0  0  0  0  # atno 17395 bound_to 11000

$$$$
