AV-unprocessed.smi:1007|AV-procd|sdf|4399|dock6
  -GOLD-   22720 2333D 1   1.00000     0.00000
 Structure written by MMmdl.
 56 58  0  0  0  0  0  0  0  0  2 V2000
  144.2751  140.6642  159.6837 C   0  0  0  0  0  0  0  0  0  0  0  0
  144.6003  140.9908  158.3436 O   0  0  0  0  0  0  0  0  0  0  0  0
  143.5665  141.7100  157.6935 C   0  0  0  0  0  0  0  0  0  0  0  0
  144.0731  142.1518  156.3124 C   0  0  0  0  0  0  0  0  0  0  0  0
  145.1297  143.1686  156.3364 N   0  0  0  0  0  0  0  0  0  0  0  0
  146.3468  142.7040  157.0008 C   0  0  0  0  0  0  0  0  0  0  0  0
  147.1284  141.6591  156.1789 C   0  0  0  0  0  0  0  0  0  0  0  0
  147.4716  142.2009  154.8385 N   0  3  0  0  0  0  0  0  0  0  0  0
  148.2816  141.2461  154.0404 C   0  0  0  0  0  0  0  0  0  0  0  0
  149.4650  140.6444  154.8305 C   0  0  1  0  0  0  0  0  0  0  0  0
  150.3319  139.9946  153.9208 O   0  0  0  0  0  0  0  0  0  0  0  0
  150.2650  141.6973  155.6297 C   0  0  0  0  0  0  0  0  0  0  0  0
  151.1647  141.1221  156.6172 N   0  0  0  0  0  0  0  0  0  0  0  0
  151.7886  139.9297  156.5506 C   0  0  0  0  0  0  0  0  0  0  0  0
  152.5827  139.5998  157.5647 N   0  0  0  0  0  0  0  0  0  0  0  0
  152.4542  140.7030  158.3905 C   0  0  0  0  0  0  0  0  0  0  0  0
  153.0480  140.9878  159.6394 C   0  0  0  0  0  0  0  0  0  0  0  0
  152.7720  142.1981  160.3144 C   0  0  0  0  0  0  0  0  0  0  0  0
  153.4343  142.4639  161.6549 C   0  0  0  0  0  0  0  0  0  0  0  0
  151.8879  143.1460  159.7400 C   0  0  0  0  0  0  0  0  0  0  0  0
  151.5774  144.4541  160.4454 C   0  0  0  0  0  0  0  0  0  0  0  0
  151.2838  142.8764  158.4944 C   0  0  0  0  0  0  0  0  0  0  0  0
  151.5695  141.6704  157.8301 C   0  0  0  0  0  0  0  0  0  0  0  0
  146.2503  142.6832  154.1392 C   0  0  0  0  0  0  0  0  0  0  0  0
  145.4941  143.6987  155.0201 C   0  0  0  0  0  0  0  0  0  0  0  0
  145.0981  140.1109  160.1361 H   0  0  0  0  0  0  0  0  0  0  0  0
  143.3825  140.0389  159.7325 H   0  0  0  0  0  0  0  0  0  0  0  0
  144.1062  141.5626  160.2787 H   0  0  0  0  0  0  0  0  0  0  0  0
  142.6863  141.0733  157.6013 H   0  0  0  0  0  0  0  0  0  0  0  0
  143.2879  142.5820  158.2877 H   0  0  0  0  0  0  0  0  0  0  0  0
  144.4582  141.2642  155.8087 H   0  0  0  0  0  0  0  0  0  0  0  0
  143.2280  142.4873  155.7122 H   0  0  0  0  0  0  0  0  0  0  0  0
  146.9962  143.5597  157.1913 H   0  0  0  0  0  0  0  0  0  0  0  0
  146.1011  142.2955  157.9818 H   0  0  0  0  0  0  0  0  0  0  0  0
  148.0434  141.3979  156.7117 H   0  0  0  0  0  0  0  0  0  0  0  0
  146.5550  140.7374  156.0717 H   0  0  0  0  0  0  0  0  0  0  0  0
  147.6360  140.4347  153.7012 H   0  0  0  0  0  0  0  0  0  0  0  0
  148.6397  141.7487  153.1408 H   0  0  0  0  0  0  0  0  0  0  0  0
  149.1079  139.8979  155.5387 H   0  0  0  0  0  0  0  0  0  0  0  0
  149.8516  139.8052  153.1285 H   0  0  0  0  0  0  0  0  0  0  0  0
  150.8546  142.3099  154.9466 H   0  0  0  0  0  0  0  0  0  0  0  0
  149.5848  142.3809  156.1399 H   0  0  0  0  0  0  0  0  0  0  0  0
  151.6583  139.2699  155.7054 H   0  0  0  0  0  0  0  0  0  0  0  0
  153.7212  140.2651  160.0769 H   0  0  0  0  0  0  0  0  0  0  0  0
  152.6838  142.6431  162.4250 H   0  0  0  0  0  0  0  0  0  0  0  0
  154.0835  143.3374  161.5930 H   0  0  0  0  0  0  0  0  0  0  0  0
  154.0422  141.6167  161.9730 H   0  0  0  0  0  0  0  0  0  0  0  0
  150.9163  145.0819  159.8472 H   0  0  0  0  0  0  0  0  0  0  0  0
  152.4931  145.0160  160.6305 H   0  0  0  0  0  0  0  0  0  0  0  0
  151.0868  144.2653  161.4005 H   0  0  0  0  0  0  0  0  0  0  0  0
  150.6073  143.5901  158.0486 H   0  0  0  0  0  0  0  0  0  0  0  0
  146.5196  143.1685  153.2022 H   0  0  0  0  0  0  0  0  0  0  0  0
  145.6088  141.8403  153.8794 H   0  0  0  0  0  0  0  0  0  0  0  0
  144.6113  144.0626  154.4960 H   0  0  0  0  0  0  0  0  0  0  0  0
  146.1267  144.5766  155.1588 H   0  0  0  0  0  0  0  0  0  0  0  0
  148.0581  143.0070  155.0028 H   0  0  0  0  0  0  0  0  0  0  0  0
  1  2  1  0  0  0  0
  1 26  1  0  0  0  0
  1 27  1  0  0  0  0
  1 28  1  0  0  0  0
  2  3  1  0  0  0  0
  3  4  1  0  0  0  0
  3 29  1  0  0  0  0
  3 30  1  0  0  0  0
  4  5  1  0  0  0  0
  4 31  1  0  0  0  0
  4 32  1  0  0  0  0
  5 25  1  0  0  0  0
  5  6  1  0  0  0  0
  6  7  1  0  0  0  0
  6 33  1  0  0  0  0
  6 34  1  0  0  0  0
  7  8  1  0  0  0  0
  7 35  1  0  0  0  0
  7 36  1  0  0  0  0
  8  9  1  0  0  0  0
  8 24  1  0  0  0  0
  8 56  1  0  0  0  0
  9 10  1  0  0  0  0
  9 37  1  0  0  0  0
  9 38  1  0  0  0  0
 10 11  1  0  0  0  0
 10 12  1  0  0  0  0
 10 39  1  0  0  0  0
 11 40  1  0  0  0  0
 12 13  1  0  0  0  0
 12 41  1  0  0  0  0
 12 42  1  0  0  0  0
 13 23  1  0  0  0  0
 13 14  1  0  0  0  0
 14 15  2  0  0  0  0
 14 43  1  0  0  0  0
 15 16  1  0  0  0  0
 16 23  2  0  0  0  0
 16 17  1  0  0  0  0
 17 18  2  0  0  0  0
 17 44  1  0  0  0  0
 18 19  1  0  0  0  0
 18 20  1  0  0  0  0
 19 45  1  0  0  0  0
 19 46  1  0  0  0  0
 19 47  1  0  0  0  0
 20 21  1  0  0  0  0
 20 22  2  0  0  0  0
 21 48  1  0  0  0  0
 21 49  1  0  0  0  0
 21 50  1  0  0  0  0
 22 23  1  0  0  0  0
 22 51  1  0  0  0  0
 24 25  1  0  0  0  0
 24 52  1  0  0  0  0
 24 53  1  0  0  0  0
 25 54  1  0  0  0  0
 25 55  1  0  0  0  0
M  CHG  1   8   1
M  END
> <s_m_source_file>
AV-unprocessed.smi

> <i_m_source_file_index>
1007

> <i_lp_mmshare_version>
43012

> <i_f3d_flags>
0

> <s_epik_input>
W0NIM11PW0NIMl1bQ0gyXU4xW0NIMl1bQ0gyXU4oW0NIMl1bQ0gyXTEpW0NIMl1bQ0BIXShbT0hdKVtDSDJdbihbY0hdbjIpYyhjMjMpW2NIXWMoW0NIM10pYyhbY0hdMylbQ0gzXQ==

> <s_epik_cmdline>
J2VwaWtfcHl0aG9uJywgJy1waCcsICc3LjAnLCAnLXRuJywgJzgnLCAnLW1hJywgJzIwMCcsICctbWV0YWxfYmluZGluZycsICctaW1hZScsICc8aW5maWxlLm1hZT4nLCAnLW9tYWUnLCAnPG91dGZpbGUubWFlPic=

> <r_epik_Ionization_Penalty>
0.102698

> <r_epik_Ionization_Penalty_Charging>
0.00226046

> <r_epik_Ionization_Penalty_Neutral>
0.100438

> <r_epik_State_Penalty>
0.191223

> <r_epik_Charging_Adjusted_Penalty>
0.193484

> <i_epik_Tot_Q>
1

> <i_epik_Tot_abs_Q>
1

> <r_epik_Metal_State_Penalty>
0.102154

> <b_epik_Metal_Only>
0

> <s_lp_Force_Field>
OPLS_2005

> <r_lp_Energy>
31.116

> <b_lp_Chiralities_Consistent>
1

> <s_lp_Variant>
AV-unprocessed.smi:1007-2

> <Gold.Version>
5.8.1

> <Gold.Id.Protein>
6NUR|6NUR_protein|mol2

> <Gold.PLP.Fitness>
61.6597

> <Gold.PLP.PLP>
-47.8302

> <Gold.PLP.part.hbond>
-3.7168

> <Gold.PLP.part.metal>
0.0000

> <Gold.PLP.part.buried>
-5.9027

> <Gold.PLP.part.nonpolar>
-37.6066

> <Gold.PLP.part.repulsive>
0.2064

> <Gold.PLP.ligand.clash>
0.0000

> <Gold.PLP.ligand.torsion>
0.6421

> <Gold.PLP.Chemscore.Hbond>
4.9600

> <Gold.PLP.Chemscore.CHOScore>
0.0000

> <Gold.PLP.Chemscore.Metal>
0.0000

> <Gold.Chemscore.Hbonds>
donor molecule, donor type, donor heavy atom, donor atom, acceptor molecule, acceptor atom, score
      L1  H     8    56       P1  8028  2.00
      L1  H    11    40       P1  7957  0.99
      P1  H  7989  7998       L1    11  0.98
      P1  H  7997  8010       L1    15  0.74

> <Gold.PLP.Chemscore.Internal.Correction>
0.2336

> <Gold.Rescore>
     Score         DG    S(hbond)    S(metal)    S(lipo)     H(rot)  DE(clash)    DE(int)     intcor
     18.13     -21.35       2.55        0.00     118.79       2.56       0.24       2.98       ----

> <Gold.Chemscore.Fitness>
18.1318

> <Gold.Chemscore.DG>
-21.3538

> <Gold.Chemscore.ZeroCoef>
-5.4800

> <Gold.Chemscore.Hbond>
2.5532

> <Gold.Chemscore.Metal>
0.0000

> <Gold.Chemscore.Lipo>
118.7889

> <Gold.Chemscore.Internal_Hbond>
0.0000

> <Gold.Chemscore.DEClash>
0.2379

> <Gold.Chemscore.DEInternal>
2.9840

> <Gold.Chemscore.Rot>
2.5594

> <Gold.Chemscore.Internal.Correction>
   9.000000E+99

> <Gold.Chemscore.Hbonds>
donor molecule, donor type, donor heavy atom, donor atom, acceptor molecule, acceptor atom, score
      L1  H     8    56       P1  8028  0.92
      L1  H    11    40       P1  7957  0.90
      P1  H  7989  7998       L1    11  0.46
      P1  H  7997  8010       L1    15  0.03

> <Gold.Chemscore.Hbond.Weighted>
-8.5276

> <Gold.Chemscore.Metal.Weighted>
-0.0000

> <Gold.Chemscore.Lipo.Weighted>
-13.8983

> <Gold.Chemscore.Internal_Hbond.Weighted>
0.0000

> <Gold.Chemscore.DEClash.Weighted>
0.2379

> <Gold.Chemscore.DEInternal.Weighted>
2.9840

> <Gold.Chemscore.Rot.Weighted>
6.5522

> <Gold.Chemscore.Internal.Correction.Weighted>
   9.000000E+99

> <Gold.Protein.RotatedTorsions>
[ 6907 6896 6895 6894 ] final  134.16 input  -60.11 | X-H torsion
[ 7974 7965 7964 7962 ] final  148.56 input  175.53 | X-H torsion
[ 8008 7997 7996 7995 ] final   56.91 input   59.86 | X-H torsion
[ 10167 10162 10161 10158 ] final  -24.21 input  -65.29 | X-H torsion
[ 10718 10713 10712 10709 ] final  147.36 input   66.30 | X-H torsion
[ 10763 10752 10751 10750 ] final -146.99 input  -60.55 | X-H torsion
[ 11005 11000 10999 10996 ] final  104.76 input  -57.11 | X-H torsion

> <Gold.Protein.ActiveResidues>
 VAL166  LYS551  ARG553  GLY616  TRP617  ASP618  TYR619  PRO620  LYS621  CYS622 
 ASP623  PHE694  ASN695  SER759  ASP760  ASP761  ALA762  ILE779  LEU786  VAL792 
 PHE793  MET794  SER795  GLU796  ALA797  LYS798  CYS799  TRP800  GLU811  SER814 

> <Gold.Protein.RotatedAtoms>
  152.3143  133.5786  159.5701 H   0  0  0  0  0  0  0  0  0  0  0  0  # atno 6907 bound_to 6896
  150.7338  134.0106  159.3677 H   0  0  0  0  0  0  0  0  0  0  0  0  # atno 6908 bound_to 6896
  151.7996  135.0713  160.0449 H   0  0  0  0  0  0  0  0  0  0  0  0  # atno 6909 bound_to 6896
  144.8505  139.6169  143.5976 H   0  0  0  0  0  0  0  0  0  0  0  0  # atno 7974 bound_to 7965
  155.5252  140.3480  155.4415 H   0  0  0  0  0  0  0  0  0  0  0  0  # atno 8008 bound_to 7997
  156.0757  140.1374  156.9802 H   0  0  0  0  0  0  0  0  0  0  0  0  # atno 8009 bound_to 7997
  154.4552  140.0956  156.6711 H   0  0  0  0  0  0  0  0  0  0  0  0  # atno 8010 bound_to 7997
  140.7288  143.4374  151.0709 H   0  0  0  0  0  0  0  0  0  0  0  0  # atno 10167 bound_to 10162
  157.3219  131.0906  151.1233 H   0  0  0  0  0  0  0  0  0  0  0  0  # atno 10718 bound_to 10713
  154.8309  135.3372  154.6748 H   0  0  0  0  0  0  0  0  0  0  0  0  # atno 10763 bound_to 10752
  153.7368  135.6948  153.4981 H   0  0  0  0  0  0  0  0  0  0  0  0  # atno 10764 bound_to 10752
  153.2273  135.4428  155.0507 H   0  0  0  0  0  0  0  0  0  0  0  0  # atno 10765 bound_to 10752
  139.8795  134.9312  156.5411 H   0  0  0  0  0  0  0  0  0  0  0  0  # atno 11005 bound_to 11000
  146.2780  139.6804  142.9249 LP  0  0  0  0  0  0  0  0  0  0  0  0  # atno 17320 bound_to 7965
  145.4510  141.0428  143.2804 LP  0  0  0  0  0  0  0  0  0  0  0  0  # atno 17321 bound_to 7965
  139.8037  143.8047  152.3165 LP  0  0  0  0  0  0  0  0  0  0  0  0  # atno 17342 bound_to 10162
  139.8073  144.7350  150.9744 LP  0  0  0  0  0  0  0  0  0  0  0  0  # atno 17343 bound_to 10162
  157.2515  130.6616  149.5933 LP  0  0  0  0  0  0  0  0  0  0  0  0  # atno 17370 bound_to 10713
  155.9687  130.4537  150.5822 LP  0  0  0  0  0  0  0  0  0  0  0  0  # atno 17371 bound_to 10713
  140.8310  133.8279  155.8984 LP  0  0  0  0  0  0  0  0  0  0  0  0  # atno 17394 bound_to 11000
  140.9329  134.1999  157.4852 LP  0  0  0  0  0  0  0  0  0  0  0  0  # atno 17395 bound_to 11000

$$$$
