AV-unprocessed.smi:3133|AV-procd|sdf|11938|dock2
  -GOLD-   2272017323D 1   1.00000     0.00000
 Structure written by MMmdl.
 32 33  0  0  0  0  0  0  0  0  1 V2000
  148.4434  141.5072  154.5348 C   0  0  0  0  0  0  0  0  0  0  0  0
  149.8097  141.3092  155.2228 C   0  0  1  0  0  0  0  0  0  0  0  0
  149.7290  141.4750  156.7468 C   0  0  0  0  0  0  0  0  0  0  0  0
  150.1345  140.5856  157.4957 O   0  0  0  0  0  0  0  0  0  0  0  0
  149.2272  142.6388  157.1890 N   0  0  0  0  0  0  0  0  0  0  0  0
  149.1640  143.0586  158.5842 C   0  0  0  0  0  0  0  0  0  0  0  0
  150.2167  144.1378  158.8872 C   0  0  2  0  0  0  0  0  0  0  0  0
  151.4620  144.0992  158.0014 C   0  0  0  0  0  0  0  0  0  0  0  0
  152.5225  144.7740  158.8560 C   0  0  0  0  0  0  0  0  0  0  0  0
  151.9350  144.7506  160.2711 C   0  0  0  0  0  0  0  0  0  0  0  0
  150.7626  143.9518  160.1823 O   0  0  0  0  0  0  0  0  0  0  0  0
  150.4202  140.0240  154.9025 N   0  0  0  0  0  0  0  0  0  0  0  0
  151.5816  139.5049  155.3072 C   0  0  0  0  0  0  0  0  0  0  0  0
  151.8038  138.2732  154.8705 N   0  0  0  0  0  0  0  0  0  0  0  0
  150.6530  138.0716  154.1628 C   0  0  0  0  0  0  0  0  0  0  0  0
  149.7844  139.0825  154.1605 N   0  0  0  0  0  0  0  0  0  0  0  0
  148.0337  142.4935  154.7551 H   0  0  0  0  0  0  0  0  0  0  0  0
  147.7085  140.7675  154.8551 H   0  0  0  0  0  0  0  0  0  0  0  0
  148.5395  141.4293  153.4514 H   0  0  0  0  0  0  0  0  0  0  0  0
  150.4772  142.0824  154.8388 H   0  0  0  0  0  0  0  0  0  0  0  0
  148.9100  143.3074  156.5021 H   0  0  0  0  0  0  0  0  0  0  0  0
  148.1675  143.4606  158.7684 H   0  0  0  0  0  0  0  0  0  0  0  0
  149.2796  142.2094  159.2600 H   0  0  0  0  0  0  0  0  0  0  0  0
  149.7605  145.1289  158.8424 H   0  0  0  0  0  0  0  0  0  0  0  0
  151.7539  143.0662  157.8078 H   0  0  0  0  0  0  0  0  0  0  0  0
  151.3132  144.5919  157.0398 H   0  0  0  0  0  0  0  0  0  0  0  0
  153.4699  144.2370  158.7996 H   0  0  0  0  0  0  0  0  0  0  0  0
  152.6981  145.8006  158.5325 H   0  0  0  0  0  0  0  0  0  0  0  0
  152.6292  144.3421  161.0056 H   0  0  0  0  0  0  0  0  0  0  0  0
  151.6591  145.7576  160.5871 H   0  0  0  0  0  0  0  0  0  0  0  0
  152.2756  140.0368  155.9410 H   0  0  0  0  0  0  0  0  0  0  0  0
  150.4454  137.1495  153.6401 H   0  0  0  0  0  0  0  0  0  0  0  0
  1  2  1  0  0  0  0
  1 17  1  0  0  0  0
  1 18  1  0  0  0  0
  1 19  1  0  0  0  0
  2  3  1  0  0  0  0
  2 12  1  0  0  0  0
  2 20  1  0  0  0  0
  3  4  2  0  0  0  0
  3  5  1  0  0  0  0
  5  6  1  0  0  0  0
  5 21  1  0  0  0  0
  6  7  1  0  0  0  0
  6 22  1  0  0  0  0
  6 23  1  0  0  0  0
  7 11  1  0  0  0  0
  7  8  1  0  0  0  0
  7 24  1  0  0  0  0
  8  9  1  0  0  0  0
  8 25  1  0  0  0  0
  8 26  1  0  0  0  0
  9 10  1  0  0  0  0
  9 27  1  0  0  0  0
  9 28  1  0  0  0  0
 10 11  1  0  0  0  0
 10 29  1  0  0  0  0
 10 30  1  0  0  0  0
 12 16  1  0  0  0  0
 12 13  1  0  0  0  0
 13 14  2  0  0  0  0
 13 31  1  0  0  0  0
 14 15  1  0  0  0  0
 15 16  2  0  0  0  0
 15 32  1  0  0  0  0
M  END
> <s_m_source_file>
AV-unprocessed.smi

> <i_m_source_file_index>
3133

> <i_lp_mmshare_version>
43012

> <i_f3d_flags>
0

> <s_epik_input>
bjFbY0hdbltjSF1uMVtDQEhdKFtDSDNdKUMoPU8pW05IXVtDSDJdW0NAQEhdMltDSDJdW0NIMl1bQ0gyXU8y

> <s_epik_cmdline>
J2VwaWtfcHl0aG9uJywgJy1waCcsICc3LjAnLCAnLXRuJywgJzgnLCAnLW1hJywgJzIwMCcsICctbWV0YWxfYmluZGluZycsICctaW1hZScsICc8aW5maWxlLm1hZT4nLCAnLW9tYWUnLCAnPG91dGZpbGUubWFlPic=

> <r_lp_tautomer_probability>
1

> <r_epik_Ionization_Penalty>
1.2027e-05

> <r_epik_Ionization_Penalty_Charging>
0

> <r_epik_Ionization_Penalty_Neutral>
1.2027e-05

> <r_epik_State_Penalty>
-0

> <r_epik_Charging_Adjusted_Penalty>
0

> <i_epik_Tot_Q>
0

> <i_epik_Tot_abs_Q>
0

> <r_epik_Metal_State_Penalty>
-0

> <b_epik_Metal_Only>
0

> <s_lp_Force_Field>
OPLS_2005

> <r_lp_Energy>
22.7356

> <b_lp_Chiralities_Consistent>
1

> <s_lp_Variant>
AV-unprocessed.smi:3133-2

> <Gold.Version>
5.8.1

> <Gold.Id.Protein>
6NUR|6NUR_protein|mol2

> <Gold.PLP.Fitness>
39.9946

> <Gold.PLP.PLP>
-34.5578

> <Gold.PLP.part.hbond>
-1.2384

> <Gold.PLP.part.metal>
0.0000

> <Gold.PLP.part.buried>
-3.1990

> <Gold.PLP.part.nonpolar>
-30.3802

> <Gold.PLP.part.repulsive>
0.4140

> <Gold.PLP.ligand.clash>
0.0000

> <Gold.PLP.ligand.torsion>
0.6153

> <Gold.PLP.Chemscore.Hbond>
1.0000

> <Gold.PLP.Chemscore.CHOScore>
1.1836

> <Gold.PLP.Chemscore.Metal>
0.0000

> <Gold.Chemscore.Hbonds>
donor molecule, donor type, donor heavy atom, donor atom, acceptor molecule, acceptor atom, score
      L1  H     5    21       P1  8028  1.00
      L1  C    15    32       P1  7948  0.69
      L1  C    15    32       P1  7949  0.44

> <Gold.PLP.Chemscore.Internal.Correction>
0.1166

> <Gold.Rescore>
     Score         DG    S(hbond)    S(metal)    S(lipo)     H(rot)  DE(clash)    DE(int)     intcor
      8.96     -10.86       0.95        0.00      68.35       2.26       0.01       1.89       ----

> <Gold.Chemscore.Fitness>
8.9614

> <Gold.Chemscore.DG>
-10.8614

> <Gold.Chemscore.ZeroCoef>
-5.4800

> <Gold.Chemscore.Hbond>
0.9460

> <Gold.Chemscore.Metal>
0.0000

> <Gold.Chemscore.Lipo>
68.3474

> <Gold.Chemscore.Internal_Hbond>
0.0000

> <Gold.Chemscore.DEClash>
0.0059

> <Gold.Chemscore.DEInternal>
1.8941

> <Gold.Chemscore.Rot>
2.2558

> <Gold.Chemscore.Internal.Correction>
   9.000000E+99

> <Gold.Chemscore.Hbonds>
donor molecule, donor type, donor heavy atom, donor atom, acceptor molecule, acceptor atom, score
      L1  H     5    21       P1  8028  0.94

> <Gold.Chemscore.Hbond.Weighted>
-3.1595

> <Gold.Chemscore.Metal.Weighted>
-0.0000

> <Gold.Chemscore.Lipo.Weighted>
-7.9966

> <Gold.Chemscore.Internal_Hbond.Weighted>
0.0000

> <Gold.Chemscore.DEClash.Weighted>
0.0059

> <Gold.Chemscore.DEInternal.Weighted>
1.8941

> <Gold.Chemscore.Rot.Weighted>
5.7747

> <Gold.Chemscore.Internal.Correction.Weighted>
   9.000000E+99

> <Gold.Protein.RotatedTorsions>
[ 6907 6896 6895 6894 ] final   79.08 input  -60.11 | X-H torsion
[ 7974 7965 7964 7962 ] final  150.96 input  175.53 | X-H torsion
[ 8008 7997 7996 7995 ] final  109.85 input   59.86 | X-H torsion
[ 10167 10162 10161 10158 ] final  -75.80 input  -65.29 | X-H torsion
[ 10718 10713 10712 10709 ] final   29.32 input   66.30 | X-H torsion
[ 10763 10752 10751 10750 ] final  168.35 input  -60.55 | X-H torsion
[ 11005 11000 10999 10996 ] final -133.49 input  -57.11 | X-H torsion

> <Gold.Protein.ActiveResidues>
 VAL166  LYS551  ARG553  GLY616  TRP617  ASP618  TYR619  PRO620  LYS621  CYS622 
 ASP623  PHE694  ASN695  SER759  ASP760  ASP761  ALA762  ILE779  LEU786  VAL792 
 PHE793  MET794  SER795  GLU796  ALA797  LYS798  CYS799  TRP800  GLU811  SER814 

> <Gold.Protein.RotatedAtoms>
  152.5185  134.3565  159.9269 H   0  0  0  0  0  0  0  0  0  0  0  0  # atno 6907 bound_to 6896
  151.3517  133.3916  159.2688 H   0  0  0  0  0  0  0  0  0  0  0  0  # atno 6908 bound_to 6896
  150.9722  134.9111  159.7852 H   0  0  0  0  0  0  0  0  0  0  0  0  # atno 6909 bound_to 6896
  144.8327  139.6476  143.6052 H   0  0  0  0  0  0  0  0  0  0  0  0  # atno 7974 bound_to 7965
  156.2010  140.3050  155.9526 H   0  0  0  0  0  0  0  0  0  0  0  0  # atno 8008 bound_to 7997
  155.2954  140.0444  157.3043 H   0  0  0  0  0  0  0  0  0  0  0  0  # atno 8009 bound_to 7997
  154.5571  140.2309  155.8403 H   0  0  0  0  0  0  0  0  0  0  0  0  # atno 8010 bound_to 7997
  140.4912  143.2380  151.7904 H   0  0  0  0  0  0  0  0  0  0  0  0  # atno 10167 bound_to 10162
  157.2450  130.7087  149.6377 H   0  0  0  0  0  0  0  0  0  0  0  0  # atno 10718 bound_to 10713
  154.3672  135.2753  155.2286 H   0  0  0  0  0  0  0  0  0  0  0  0  # atno 10763 bound_to 10752
  154.4449  135.5945  153.6157 H   0  0  0  0  0  0  0  0  0  0  0  0  # atno 10764 bound_to 10752
  152.9840  135.6028  154.3900 H   0  0  0  0  0  0  0  0  0  0  0  0  # atno 10765 bound_to 10752
  140.9076  134.1610  157.4414 H   0  0  0  0  0  0  0  0  0  0  0  0  # atno 11005 bound_to 11000
  146.2628  139.6450  142.9350 LP  0  0  0  0  0  0  0  0  0  0  0  0  # atno 17320 bound_to 7965
  145.4862  141.0438  143.2618 LP  0  0  0  0  0  0  0  0  0  0  0  0  # atno 17321 bound_to 7965
  139.4852  144.4647  151.9499 LP  0  0  0  0  0  0  0  0  0  0  0  0  # atno 17342 bound_to 10162
  140.3733  144.2827  150.5917 LP  0  0  0  0  0  0  0  0  0  0  0  0  # atno 17343 bound_to 10162
  155.9668  130.4446  150.5467 LP  0  0  0  0  0  0  0  0  0  0  0  0  # atno 17370 bound_to 10713
  157.3338  131.0704  151.1840 LP  0  0  0  0  0  0  0  0  0  0  0  0  # atno 17371 bound_to 10713
  139.8752  134.9923  156.5589 LP  0  0  0  0  0  0  0  0  0  0  0  0  # atno 17394 bound_to 11000
  140.8151  133.8398  155.8845 LP  0  0  0  0  0  0  0  0  0  0  0  0  # atno 17395 bound_to 11000

$$$$
