AV-unprocessed.smi:3068|AV-procd|sdf|11698|dock3
  -GOLD-   2272017103D 1   1.00000     0.00000
 Structure written by MMmdl.
 40 42  0  0  0  0  0  0  0  0  2 V2000
  152.6500  133.0663  157.7627 N   0  0  0  0  0  0  0  0  0  0  0  0
  152.7414  132.1678  157.0390 C   0  0  0  0  0  0  0  0  0  0  0  0
  152.8567  131.0376  156.1263 C   0  0  0  0  0  0  0  0  0  0  0  0
  154.1014  130.5491  155.9180 N   0  0  0  0  0  0  0  0  0  0  0  0
  154.2214  129.5000  155.0773 C   0  0  0  0  0  0  0  0  0  0  0  0
  153.1002  128.9322  154.4419 C   0  0  0  0  0  0  0  0  0  0  0  0
  151.8547  129.4121  154.6446 N   0  0  0  0  0  0  0  0  0  0  0  0
  151.7197  130.4674  155.4865 C   0  0  0  0  0  0  0  0  0  0  0  0
  150.4281  130.9818  155.7060 N   0  0  0  0  0  0  0  0  0  0  0  0
  149.8854  132.0758  154.9092 C   0  0  0  0  0  0  0  0  0  0  0  0
  149.0076  131.5778  153.7485 C   0  0  2  0  0  0  0  0  0  0  0  0
  148.2339  132.7327  153.0873 C   0  0  0  0  0  0  0  0  0  0  0  0
  147.3423  132.2196  152.0220 N   0  3  2  0  0  0  0  0  0  0  0  0
  146.6073  133.3065  151.3269 C   0  0  0  0  0  0  0  0  0  0  0  0
  145.7655  132.7509  150.1675 C   0  0  0  0  0  0  0  0  0  0  0  0
  144.8039  131.6634  150.6639 C   0  0  0  0  0  0  0  0  0  0  0  0
  145.5851  130.5674  151.4014 C   0  0  0  0  0  0  0  0  0  0  0  0
  146.4372  131.1587  152.5419 C   0  0  1  0  0  0  0  0  0  0  0  0
  147.2618  130.0658  153.2501 C   0  0  0  0  0  0  0  0  0  0  0  0
  148.0630  130.6489  154.2696 O   0  0  0  0  0  0  0  0  0  0  0  0
  155.2154  129.1114  154.9117 H   0  0  0  0  0  0  0  0  0  0  0  0
  153.2025  128.0924  153.7707 H   0  0  0  0  0  0  0  0  0  0  0  0
  149.8169  130.5197  156.3646 H   0  0  0  0  0  0  0  0  0  0  0  0
  149.3009  132.7219  155.5645 H   0  0  0  0  0  0  0  0  0  0  0  0
  150.7038  132.6897  154.5314 H   0  0  0  0  0  0  0  0  0  0  0  0
  149.6313  131.0877  152.9986 H   0  0  0  0  0  0  0  0  0  0  0  0
  147.6427  133.2664  153.8333 H   0  0  0  0  0  0  0  0  0  0  0  0
  148.9347  133.4508  152.6594 H   0  0  0  0  0  0  0  0  0  0  0  0
  145.9662  133.8288  152.0390 H   0  0  0  0  0  0  0  0  0  0  0  0
  147.3180  134.0392  150.9424 H   0  0  0  0  0  0  0  0  0  0  0  0
  145.2048  133.5570  149.6933 H   0  0  0  0  0  0  0  0  0  0  0  0
  146.4234  132.3384  149.4013 H   0  0  0  0  0  0  0  0  0  0  0  0
  144.0625  132.1027  151.3326 H   0  0  0  0  0  0  0  0  0  0  0  0
  144.2541  131.2352  149.8253 H   0  0  0  0  0  0  0  0  0  0  0  0
  144.8912  129.8251  151.7977 H   0  0  0  0  0  0  0  0  0  0  0  0
  146.2278  130.0416  150.6935 H   0  0  0  0  0  0  0  0  0  0  0  0
  145.7698  131.6139  153.2763 H   0  0  0  0  0  0  0  0  0  0  0  0
  146.5989  129.3307  153.7072 H   0  0  0  0  0  0  0  0  0  0  0  0
  147.8933  129.5261  152.5423 H   0  0  0  0  0  0  0  0  0  0  0  0
  147.9358  131.7822  151.3318 H   0  0  0  0  0  0  0  0  0  0  0  0
  1  2  3  0  0  0  0
  2  3  1  0  0  0  0
  3  8  1  0  0  0  0
  3  4  2  0  0  0  0
  4  5  1  0  0  0  0
  5  6  2  0  0  0  0
  5 21  1  0  0  0  0
  6  7  1  0  0  0  0
  6 22  1  0  0  0  0
  7  8  2  0  0  0  0
  8  9  1  0  0  0  0
  9 10  1  0  0  0  0
  9 23  1  0  0  0  0
 10 11  1  0  0  0  0
 10 24  1  0  0  0  0
 10 25  1  0  0  0  0
 11 20  1  0  0  0  0
 11 12  1  0  0  0  0
 11 26  1  0  0  0  0
 12 13  1  0  0  0  0
 12 27  1  0  0  0  0
 12 28  1  0  0  0  0
 13 18  1  0  0  0  0
 13 14  1  0  0  0  0
 13 40  1  0  0  0  0
 14 15  1  0  0  0  0
 14 29  1  0  0  0  0
 14 30  1  0  0  0  0
 15 16  1  0  0  0  0
 15 31  1  0  0  0  0
 15 32  1  0  0  0  0
 16 17  1  0  0  0  0
 16 33  1  0  0  0  0
 16 34  1  0  0  0  0
 17 18  1  0  0  0  0
 17 35  1  0  0  0  0
 17 36  1  0  0  0  0
 18 19  1  0  0  0  0
 18 37  1  0  0  0  0
 19 20  1  0  0  0  0
 19 38  1  0  0  0  0
 19 39  1  0  0  0  0
M  CHG  1  13   1
M  END
> <s_m_source_file>
AV-unprocessed.smi

> <i_m_source_file_index>
3068

> <i_lp_mmshare_version>
43012

> <i_f3d_flags>
0

> <s_epik_input>
TiNDYzFuW2NIXVtjSF1uYzFbTkhdW0NIMl1bQ0BIXShbQ0gyXTIpT1tDSDJdW0NAQEhdKE4yMylbQ0gyXVtDSDJdW0NIMl1bQ0gyXTM=

> <s_epik_cmdline>
J2VwaWtfcHl0aG9uJywgJy1waCcsICc3LjAnLCAnLXRuJywgJzgnLCAnLW1hJywgJzIwMCcsICctbWV0YWxfYmluZGluZycsICctaW1hZScsICc8aW5maWxlLm1hZT4nLCAnLW9tYWUnLCAnPG91dGZpbGUubWFlPic=

> <r_epik_Ionization_Penalty>
0.0804321

> <r_epik_Ionization_Penalty_Charging>
0.0803403

> <r_epik_Ionization_Penalty_Neutral>
9.17277e-05

> <r_epik_State_Penalty>
0.0711481

> <r_epik_Charging_Adjusted_Penalty>
0.151488

> <i_epik_Tot_Q>
1

> <i_epik_Tot_abs_Q>
1

> <r_epik_Metal_State_Penalty>
0.0711481

> <b_epik_Metal_Only>
0

> <s_lp_Force_Field>
OPLS_2005

> <r_lp_Energy>
36.4506

> <b_lp_Chiralities_Consistent>
1

> <s_lp_Variant>
AV-unprocessed.smi:3068-1

> <Gold.Version>
5.8.1

> <Gold.Id.Protein>
6NUR|6NUR_protein|mol2

> <Gold.PLP.Fitness>
41.8776

> <Gold.PLP.PLP>
-35.4220

> <Gold.PLP.part.hbond>
-2.0000

> <Gold.PLP.part.metal>
0.0000

> <Gold.PLP.part.buried>
-4.8750

> <Gold.PLP.part.nonpolar>
-29.6275

> <Gold.PLP.part.repulsive>
0.1420

> <Gold.PLP.ligand.clash>
0.0000

> <Gold.PLP.ligand.torsion>
0.9692

> <Gold.PLP.Chemscore.Hbond>
1.8320

> <Gold.PLP.Chemscore.CHOScore>
0.9651

> <Gold.PLP.Chemscore.Metal>
0.0000

> <Gold.Chemscore.Hbonds>
donor molecule, donor type, donor heavy atom, donor atom, acceptor molecule, acceptor atom, score
      L1  H    13    40       P1 10747  1.00
      P1  H  6896  6909       L1     1  0.83
      L1  C     6    22       P1 10737  0.97

> <Gold.PLP.Chemscore.Internal.Correction>
0.0028

> <Gold.Rescore>
     Score         DG    S(hbond)    S(metal)    S(lipo)     H(rot)  DE(clash)    DE(int)     intcor
     17.44     -18.48       1.95        0.00      84.41       1.32       0.01       1.03       ----

> <Gold.Chemscore.Fitness>
17.4409

> <Gold.Chemscore.DG>
-18.4826

> <Gold.Chemscore.ZeroCoef>
-5.4800

> <Gold.Chemscore.Hbond>
1.9475

> <Gold.Chemscore.Metal>
0.0000

> <Gold.Chemscore.Lipo>
84.4054

> <Gold.Chemscore.Internal_Hbond>
0.0000

> <Gold.Chemscore.DEClash>
0.0068

> <Gold.Chemscore.DEInternal>
1.0349

> <Gold.Chemscore.Rot>
1.3193

> <Gold.Chemscore.Internal.Correction>
   9.000000E+99

> <Gold.Chemscore.Hbonds>
donor molecule, donor type, donor heavy atom, donor atom, acceptor molecule, acceptor atom, score
      L1  H    13    40       P1 10747  1.00
      P1  H  6896  6909       L1     1  0.81

> <Gold.Chemscore.Hbond.Weighted>
-6.5045

> <Gold.Chemscore.Metal.Weighted>
-0.0000

> <Gold.Chemscore.Lipo.Weighted>
-9.8754

> <Gold.Chemscore.Internal_Hbond.Weighted>
0.0000

> <Gold.Chemscore.DEClash.Weighted>
0.0068

> <Gold.Chemscore.DEInternal.Weighted>
1.0349

> <Gold.Chemscore.Rot.Weighted>
3.3774

> <Gold.Chemscore.Internal.Correction.Weighted>
   9.000000E+99

> <Gold.Protein.RotatedTorsions>
[ 6907 6896 6895 6894 ] final  -79.88 input  -60.11 | X-H torsion
[ 7974 7965 7964 7962 ] final  -46.10 input  175.53 | X-H torsion
[ 8008 7997 7996 7995 ] final  110.47 input   59.86 | X-H torsion
[ 10167 10162 10161 10158 ] final  132.95 input  -65.29 | X-H torsion
[ 10718 10713 10712 10709 ] final  114.75 input   66.30 | X-H torsion
[ 10763 10752 10751 10750 ] final   73.16 input  -60.55 | X-H torsion
[ 11005 11000 10999 10996 ] final   30.43 input  -57.11 | X-H torsion

> <Gold.Protein.ActiveResidues>
 VAL166  LYS551  ARG553  GLY616  TRP617  ASP618  TYR619  PRO620  LYS621  CYS622 
 ASP623  PHE694  ASN695  SER759  ASP760  ASP761  ALA762  ILE779  LEU786  VAL792 
 PHE793  MET794  SER795  GLU796  ALA797  LYS798  CYS799  TRP800  GLU811  SER814 

> <Gold.Protein.RotatedAtoms>
  150.6940  134.4054  159.5137 H   0  0  0  0  0  0  0  0  0  0  0  0  # atno 6907 bound_to 6896
  152.1821  134.8742  160.0534 H   0  0  0  0  0  0  0  0  0  0  0  0  # atno 6908 bound_to 6896
  151.9729  133.3697  159.4115 H   0  0  0  0  0  0  0  0  0  0  0  0  # atno 6909 bound_to 6896
  145.9753  140.7340  142.9390 H   0  0  0  0  0  0  0  0  0  0  0  0  # atno 7974 bound_to 7965
  156.2055  140.3038  155.9618 H   0  0  0  0  0  0  0  0  0  0  0  0  # atno 8008 bound_to 7997
  155.2852  140.0439  157.3036 H   0  0  0  0  0  0  0  0  0  0  0  0  # atno 8009 bound_to 7997
  154.5627  140.2325  155.8319 H   0  0  0  0  0  0  0  0  0  0  0  0  # atno 8010 bound_to 7997
  139.5317  144.6638  151.4926 H   0  0  0  0  0  0  0  0  0  0  0  0  # atno 10167 bound_to 10162
  157.6263  131.1003  150.7231 H   0  0  0  0  0  0  0  0  0  0  0  0  # atno 10718 bound_to 10713
  153.0504  135.5073  154.7852 H   0  0  0  0  0  0  0  0  0  0  0  0  # atno 10763 bound_to 10752
  154.6719  135.2954  154.9732 H   0  0  0  0  0  0  0  0  0  0  0  0  # atno 10764 bound_to 10752
  154.0548  135.6699  153.4857 H   0  0  0  0  0  0  0  0  0  0  0  0  # atno 10765 bound_to 10752
  140.2945  134.2827  155.7768 H   0  0  0  0  0  0  0  0  0  0  0  0  # atno 11005 bound_to 11000
  144.6847  140.2818  143.7291 LP  0  0  0  0  0  0  0  0  0  0  0  0  # atno 17320 bound_to 7965
  145.7847  139.1904  143.2137 LP  0  0  0  0  0  0  0  0  0  0  0  0  # atno 17321 bound_to 7965
  140.6500  143.8716  150.6776 LP  0  0  0  0  0  0  0  0  0  0  0  0  # atno 17342 bound_to 10162
  140.2078  143.3908  152.1742 LP  0  0  0  0  0  0  0  0  0  0  0  0  # atno 17343 bound_to 10162
  156.7579  130.4789  149.5443 LP  0  0  0  0  0  0  0  0  0  0  0  0  # atno 17370 bound_to 10713
  156.1437  130.6262  151.0502 LP  0  0  0  0  0  0  0  0  0  0  0  0  # atno 17371 bound_to 10713
  141.2140  133.7606  156.9674 LP  0  0  0  0  0  0  0  0  0  0  0  0  # atno 17394 bound_to 11000
  140.1165  134.9444  157.2142 LP  0  0  0  0  0  0  0  0  0  0  0  0  # atno 17395 bound_to 11000

$$$$
