AV-unprocessed.smi:3061|AV-procd|sdf|11680|dock2
  -GOLD-   2272017 83D 1   1.00000     0.00000
 Structure written by MMmdl.
 35 36  0  0  0  0  0  0  0  0  1 V2000
  147.8955  141.5138  155.9610 C   0  0  0  0  0  0  0  0  0  0  0  0
  149.0818  140.5382  155.9772 C   0  0  1  0  0  0  0  0  0  0  0  0
  149.3264  139.9187  154.5878 C   0  0  0  0  0  0  0  0  0  0  0  0
  150.5258  139.1009  154.5549 N   0  0  0  0  0  0  0  0  0  0  0  0
  150.6777  137.7942  154.3354 C   0  0  0  0  0  0  0  0  0  0  0  0
  151.9368  137.3839  154.3963 N   0  0  0  0  0  0  0  0  0  0  0  0
  152.5506  138.5721  154.6763 C   0  0  0  0  0  0  0  0  0  0  0  0
  151.7503  139.6331  154.7806 N   0  0  0  0  0  0  0  0  0  0  0  0
  150.2850  141.2292  156.4359 N   0  0  0  0  0  0  0  0  0  0  0  0
  150.4135  141.8833  157.6000 C   0  0  0  0  0  0  0  0  0  0  0  0
  149.4970  142.0043  158.4136 O   0  0  0  0  0  0  0  0  0  0  0  0
  151.7935  142.4930  157.8906 C   0  0  2  0  0  0  0  0  0  0  0  0
  152.3580  141.9954  159.2372 C   0  0  0  0  0  0  0  0  0  0  0  0
  152.3711  143.2374  160.1125 C   0  0  0  0  0  0  0  0  0  0  0  0
  152.6774  143.2124  161.3035 O   0  0  0  0  0  0  0  0  0  0  0  0
  152.0050  144.3171  159.4166 N   0  0  0  0  0  0  0  0  0  0  0  0
  151.8976  145.6720  159.9400 C   0  0  0  0  0  0  0  0  0  0  0  0
  151.7430  144.0316  158.0166 C   0  0  0  0  0  0  0  0  0  0  0  0
  146.9820  141.0135  155.6391 H   0  0  0  0  0  0  0  0  0  0  0  0
  148.0761  142.3475  155.2818 H   0  0  0  0  0  0  0  0  0  0  0  0
  147.7101  141.9260  156.9535 H   0  0  0  0  0  0  0  0  0  0  0  0
  148.8420  139.7268  156.6673 H   0  0  0  0  0  0  0  0  0  0  0  0
  148.4839  139.2856  154.3067 H   0  0  0  0  0  0  0  0  0  0  0  0
  149.4007  140.6951  153.8243 H   0  0  0  0  0  0  0  0  0  0  0  0
  149.8506  137.1296  154.1319 H   0  0  0  0  0  0  0  0  0  0  0  0
  153.6193  138.6578  154.8067 H   0  0  0  0  0  0  0  0  0  0  0  0
  151.0926  141.1797  155.8318 H   0  0  0  0  0  0  0  0  0  0  0  0
  152.4785  142.2203  157.0856 H   0  0  0  0  0  0  0  0  0  0  0  0
  151.7603  141.2088  159.7010 H   0  0  0  0  0  0  0  0  0  0  0  0
  153.3756  141.6207  159.1229 H   0  0  0  0  0  0  0  0  0  0  0  0
  151.1234  145.7240  160.7066 H   0  0  0  0  0  0  0  0  0  0  0  0
  151.6405  146.3789  159.1504 H   0  0  0  0  0  0  0  0  0  0  0  0
  152.8430  145.9890  160.3824 H   0  0  0  0  0  0  0  0  0  0  0  0
  152.5154  144.4961  157.4024 H   0  0  0  0  0  0  0  0  0  0  0  0
  150.7835  144.4549  157.7142 H   0  0  0  0  0  0  0  0  0  0  0  0
  1  2  1  0  0  0  0
  1 19  1  0  0  0  0
  1 20  1  0  0  0  0
  1 21  1  0  0  0  0
  2  3  1  0  0  0  0
  2  9  1  0  0  0  0
  2 22  1  0  0  0  0
  3  4  1  0  0  0  0
  3 23  1  0  0  0  0
  3 24  1  0  0  0  0
  4  8  1  0  0  0  0
  4  5  1  0  0  0  0
  5  6  2  0  0  0  0
  5 25  1  0  0  0  0
  6  7  1  0  0  0  0
  7  8  2  0  0  0  0
  7 26  1  0  0  0  0
  9 10  1  0  0  0  0
  9 27  1  0  0  0  0
 10 11  2  0  0  0  0
 10 12  1  0  0  0  0
 12 18  1  0  0  0  0
 12 13  1  0  0  0  0
 12 28  1  0  0  0  0
 13 14  1  0  0  0  0
 13 29  1  0  0  0  0
 13 30  1  0  0  0  0
 14 15  2  0  0  0  0
 14 16  1  0  0  0  0
 16 17  1  0  0  0  0
 16 18  1  0  0  0  0
 17 31  1  0  0  0  0
 17 32  1  0  0  0  0
 17 33  1  0  0  0  0
 18 34  1  0  0  0  0
 18 35  1  0  0  0  0
M  END
> <s_m_source_file>
AV-unprocessed.smi

> <i_m_source_file_index>
3061

> <i_lp_mmshare_version>
43012

> <i_f3d_flags>
0

> <s_epik_input>
bjFbY0hdbltjSF1uMVtDSDJdW0NAQEhdKFtDSDNdKVtOSF1DKD1PKVtDQEBIXTJbQ0gyXUMoPU8pTihbQ0gzXSlbQ0gyXTI=

> <s_epik_cmdline>
J2VwaWtfcHl0aG9uJywgJy1waCcsICc3LjAnLCAnLXRuJywgJzgnLCAnLW1hJywgJzIwMCcsICctbWV0YWxfYmluZGluZycsICctaW1hZScsICc8aW5maWxlLm1hZT4nLCAnLW9tYWUnLCAnPG91dGZpbGUubWFlPic=

> <r_lp_tautomer_probability>
1

> <r_epik_Ionization_Penalty>
4.97611e-05

> <r_epik_Ionization_Penalty_Charging>
0

> <r_epik_Ionization_Penalty_Neutral>
4.97611e-05

> <r_epik_State_Penalty>
-0

> <r_epik_Charging_Adjusted_Penalty>
0

> <i_epik_Tot_Q>
0

> <i_epik_Tot_abs_Q>
0

> <r_epik_Metal_State_Penalty>
-0

> <b_epik_Metal_Only>
0

> <s_lp_Force_Field>
OPLS_2005

> <r_lp_Energy>
12.6192

> <b_lp_Chiralities_Consistent>
1

> <s_lp_Variant>
AV-unprocessed.smi:3061-2

> <Gold.Version>
5.8.1

> <Gold.Id.Protein>
6NUR|6NUR_protein|mol2

> <Gold.PLP.Fitness>
49.1019

> <Gold.PLP.PLP>
-40.9047

> <Gold.PLP.part.hbond>
-2.0000

> <Gold.PLP.part.metal>
0.0000

> <Gold.PLP.part.buried>
-7.7948

> <Gold.PLP.part.nonpolar>
-33.1461

> <Gold.PLP.part.repulsive>
0.4350

> <Gold.PLP.ligand.clash>
0.0000

> <Gold.PLP.ligand.torsion>
0.0711

> <Gold.PLP.Chemscore.Hbond>
1.7780

> <Gold.PLP.Chemscore.CHOScore>
0.9923

> <Gold.PLP.Chemscore.Metal>
0.0000

> <Gold.Chemscore.Hbonds>
donor molecule, donor type, donor heavy atom, donor atom, acceptor molecule, acceptor atom, score
      P1  H  7989  7998       L1     8  0.80
      P1  H 10752 10763       L1     6  0.93
      L1  C     5    25       P1  7948  0.88

> <Gold.PLP.Chemscore.Internal.Correction>
0.0283

> <Gold.Rescore>
     Score         DG    S(hbond)    S(metal)    S(lipo)     H(rot)  DE(clash)    DE(int)     intcor
     10.52     -11.86       1.80        0.00      56.24       2.42       0.20       1.14       ----

> <Gold.Chemscore.Fitness>
10.5231

> <Gold.Chemscore.DG>
-11.8632

> <Gold.Chemscore.ZeroCoef>
-5.4800

> <Gold.Chemscore.Hbond>
1.7957

> <Gold.Chemscore.Metal>
0.0000

> <Gold.Chemscore.Lipo>
56.2390

> <Gold.Chemscore.Internal_Hbond>
0.0000

> <Gold.Chemscore.DEClash>
0.1965

> <Gold.Chemscore.DEInternal>
1.1436

> <Gold.Chemscore.Rot>
2.4197

> <Gold.Chemscore.Internal.Correction>
   9.000000E+99

> <Gold.Chemscore.Hbonds>
donor molecule, donor type, donor heavy atom, donor atom, acceptor molecule, acceptor atom, score
      P1  H  7989  7998       L1     8  0.11
      P1  H 10752 10763       L1     6  0.87

> <Gold.Chemscore.Hbond.Weighted>
-5.9978

> <Gold.Chemscore.Metal.Weighted>
-0.0000

> <Gold.Chemscore.Lipo.Weighted>
-6.5800

> <Gold.Chemscore.Internal_Hbond.Weighted>
0.0000

> <Gold.Chemscore.DEClash.Weighted>
0.1965

> <Gold.Chemscore.DEInternal.Weighted>
1.1436

> <Gold.Chemscore.Rot.Weighted>
6.1945

> <Gold.Chemscore.Internal.Correction.Weighted>
   9.000000E+99

> <Gold.Protein.RotatedTorsions>
[ 6907 6896 6895 6894 ] final -129.83 input  -60.11 | X-H torsion
[ 7974 7965 7964 7962 ] final -121.84 input  175.53 | X-H torsion
[ 8008 7997 7996 7995 ] final  163.98 input   59.86 | X-H torsion
[ 10167 10162 10161 10158 ] final  -57.90 input  -65.29 | X-H torsion
[ 10718 10713 10712 10709 ] final -145.71 input   66.30 | X-H torsion
[ 10763 10752 10751 10750 ] final   37.44 input  -60.55 | X-H torsion
[ 11005 11000 10999 10996 ] final  -78.30 input  -57.11 | X-H torsion

> <Gold.Protein.ActiveResidues>
 VAL166  LYS551  ARG553  GLY616  TRP617  ASP618  TYR619  PRO620  LYS621  CYS622 
 ASP623  PHE694  ASN695  SER759  ASP760  ASP761  ALA762  ILE779  LEU786  VAL792 
 PHE793  MET794  SER795  GLU796  ALA797  LYS798  CYS799  TRP800  GLU811  SER814 

> <Gold.Protein.RotatedAtoms>
  150.9330  133.6745  159.2806 H   0  0  0  0  0  0  0  0  0  0  0  0  # atno 6907 bound_to 6896
  151.4160  135.0990  159.9609 H   0  0  0  0  0  0  0  0  0  0  0  0  # atno 6908 bound_to 6896
  152.5035  133.8792  159.7393 H   0  0  0  0  0  0  0  0  0  0  0  0  # atno 6909 bound_to 6896
  145.0360  140.8106  143.4295 H   0  0  0  0  0  0  0  0  0  0  0  0  # atno 7974 bound_to 7965
  156.1915  140.1709  156.8082 H   0  0  0  0  0  0  0  0  0  0  0  0  # atno 8008 bound_to 7997
  154.5478  140.0724  156.8649 H   0  0  0  0  0  0  0  0  0  0  0  0  # atno 8009 bound_to 7997
  155.3088  140.3366  155.4247 H   0  0  0  0  0  0  0  0  0  0  0  0  # atno 8010 bound_to 7997
  140.6230  143.2427  151.5433 H   0  0  0  0  0  0  0  0  0  0  0  0  # atno 10167 bound_to 10162
  156.3858  130.7860  151.2058 H   0  0  0  0  0  0  0  0  0  0  0  0  # atno 10718 bound_to 10713
  153.0037  135.6277  154.2145 H   0  0  0  0  0  0  0  0  0  0  0  0  # atno 10763 bound_to 10752
  154.1889  135.2809  155.3030 H   0  0  0  0  0  0  0  0  0  0  0  0  # atno 10764 bound_to 10752
  154.5776  135.5657  153.7213 H   0  0  0  0  0  0  0  0  0  0  0  0  # atno 10765 bound_to 10752
  141.1664  133.7057  156.7950 H   0  0  0  0  0  0  0  0  0  0  0  0  # atno 11005 bound_to 11000
  145.1709  139.2405  143.5342 LP  0  0  0  0  0  0  0  0  0  0  0  0  # atno 17320 bound_to 7965
  146.3504  140.1460  142.8593 LP  0  0  0  0  0  0  0  0  0  0  0  0  # atno 17321 bound_to 7965
  139.5455  144.2532  152.1434 LP  0  0  0  0  0  0  0  0  0  0  0  0  # atno 17342 bound_to 10162
  140.1757  144.4893  150.6555 LP  0  0  0  0  0  0  0  0  0  0  0  0  # atno 17343 bound_to 10162
  157.7496  131.0330  150.4253 LP  0  0  0  0  0  0  0  0  0  0  0  0  # atno 17370 bound_to 10713
  156.4505  130.4010  149.6639 LP  0  0  0  0  0  0  0  0  0  0  0  0  # atno 17371 bound_to 10713
  140.2297  134.8695  157.3464 LP  0  0  0  0  0  0  0  0  0  0  0  0  # atno 17394 bound_to 11000
  140.1903  134.4380  155.7720 LP  0  0  0  0  0  0  0  0  0  0  0  0  # atno 17395 bound_to 11000

$$$$
