AV-unprocessed.smi:3228|AV-procd|sdf|12325|dock5
  -GOLD-   2272018173D 1   1.00000     0.00000
 Structure written by MMmdl.
 30 31  0  0  0  0  0  0  0  0  2 V2000
  150.6437  140.9317  157.8350 O   0  0  0  0  0  0  0  0  0  0  0  0
  149.9301  141.8694  157.4705 C   0  0  0  0  0  0  0  0  0  0  0  0
  150.4833  143.0531  157.1701 N   0  0  0  0  0  0  0  0  0  0  0  0
  151.9043  143.3778  157.2479 C   0  0  0  0  0  0  0  0  0  0  0  0
  152.2441  144.1768  158.5245 C   0  0  2  0  0  0  0  0  0  0  0  0
  152.3723  143.3401  159.8031 C   0  0  0  0  0  0  0  0  0  0  0  0
  152.1937  144.3328  160.9612 C   0  0  0  0  0  0  0  0  0  0  0  0
  151.6160  145.6205  160.3501 C   0  0  0  0  0  0  0  0  0  0  0  0
  151.2440  145.2788  158.9022 C   0  0  2  0  0  0  0  0  0  0  0  0
  149.9101  144.8045  158.8700 O   0  0  0  0  0  0  0  0  0  0  0  0
  148.5846  141.8471  157.3358 N   0  5  0  0  0  0  0  0  0  0  0  0
  148.0338  141.5845  156.1394 C   0  0  0  0  0  0  0  0  0  0  0  0
  148.7555  141.2875  155.0526 N   0  0  0  0  0  0  0  0  0  0  0  0
  147.9781  141.0563  153.9161 C   0  0  0  0  0  0  0  0  0  0  0  0
  146.6335  141.1901  154.1406 C   0  0  0  0  0  0  0  0  0  0  0  0
  146.3015  141.6122  155.7963 S   0  0  0  0  0  0  0  0  0  0  0  0
  149.8619  143.7923  156.8758 H   0  0  0  0  0  0  0  0  0  0  0  0
  152.4975  142.4632  157.2035 H   0  0  0  0  0  0  0  0  0  0  0  0
  152.1584  143.9533  156.3579 H   0  0  0  0  0  0  0  0  0  0  0  0
  153.2045  144.6705  158.3664 H   0  0  0  0  0  0  0  0  0  0  0  0
  151.5780  142.5931  159.8389 H   0  0  0  0  0  0  0  0  0  0  0  0
  153.3233  142.8091  159.8550 H   0  0  0  0  0  0  0  0  0  0  0  0
  151.5267  143.9202  161.7188 H   0  0  0  0  0  0  0  0  0  0  0  0
  153.1482  144.5402  161.4463 H   0  0  0  0  0  0  0  0  0  0  0  0
  150.7766  146.0167  160.9233 H   0  0  0  0  0  0  0  0  0  0  0  0
  152.3908  146.3885  160.3475 H   0  0  0  0  0  0  0  0  0  0  0  0
  151.3255  146.1456  158.2455 H   0  0  0  0  0  0  0  0  0  0  0  0
  149.3921  145.4050  158.3560 H   0  0  0  0  0  0  0  0  0  0  0  0
  148.4669  140.8035  152.9871 H   0  0  0  0  0  0  0  0  0  0  0  0
  145.8228  141.0688  153.4382 H   0  0  0  0  0  0  0  0  0  0  0  0
  1  2  2  0  0  0  0
  2  3  1  0  0  0  0
  2 11  1  0  0  0  0
  3  4  1  0  0  0  0
  3 17  1  0  0  0  0
  4  5  1  0  0  0  0
  4 18  1  0  0  0  0
  4 19  1  0  0  0  0
  5  9  1  0  0  0  0
  5  6  1  0  0  0  0
  5 20  1  0  0  0  0
  6  7  1  0  0  0  0
  6 21  1  0  0  0  0
  6 22  1  0  0  0  0
  7  8  1  0  0  0  0
  7 23  1  0  0  0  0
  7 24  1  0  0  0  0
  8  9  1  0  0  0  0
  8 25  1  0  0  0  0
  8 26  1  0  0  0  0
  9 10  1  0  0  0  0
  9 27  1  0  0  0  0
 10 28  1  0  0  0  0
 11 12  1  0  0  0  0
 12 16  1  0  0  0  0
 12 13  2  0  0  0  0
 13 14  1  0  0  0  0
 14 15  2  0  0  0  0
 14 29  1  0  0  0  0
 15 16  1  0  0  0  0
 15 30  1  0  0  0  0
M  CHG  1  11  -1
M  END
> <s_m_source_file>
AV-unprocessed.smi

> <i_m_source_file_index>
3228

> <i_lp_mmshare_version>
43012

> <i_f3d_flags>
0

> <s_epik_input>
czFbY0hdW2NIXW5jMVtOSF1DKD1PKVtOSF1bQ0gyXVtDQEBIXTJbQ0gyXVtDSDJdW0NIMl1bQ0BIXTJbT0hd

> <s_epik_cmdline>
J2VwaWtfcHl0aG9uJywgJy1waCcsICc3LjAnLCAnLXRuJywgJzgnLCAnLW1hJywgJzIwMCcsICctbWV0YWxfYmluZGluZycsICctaW1hZScsICc8aW5maWxlLm1hZT4nLCAnLW9tYWUnLCAnPG91dGZpbGUubWFlPic=

> <r_lp_tautomer_probability>
0.999

> <r_epik_Ionization_Penalty>
8.49756

> <r_epik_Ionization_Penalty_Charging>
6.79645

> <r_epik_Ionization_Penalty_Neutral>
1.70111

> <r_epik_State_Penalty>
6.79662

> <r_epik_Charging_Adjusted_Penalty>
13.5931

> <i_epik_Tot_Q>
-1

> <i_epik_Tot_abs_Q>
1

> <r_epik_Metal_State_Penalty>
2.71629

> <b_epik_Metal_Only>
1

> <s_lp_Force_Field>
OPLS_2005

> <r_lp_Energy>
19.9343

> <b_lp_Chiralities_Consistent>
1

> <s_lp_Variant>
AV-unprocessed.smi:3228-7

> <Gold.Version>
5.8.1

> <Gold.Id.Protein>
6NUR|6NUR_protein|mol2

> <Gold.PLP.Fitness>
43.8553

> <Gold.PLP.PLP>
-33.9046

> <Gold.PLP.part.hbond>
-2.0456

> <Gold.PLP.part.metal>
0.0000

> <Gold.PLP.part.buried>
-4.6710

> <Gold.PLP.part.nonpolar>
-27.3924

> <Gold.PLP.part.repulsive>
0.3018

> <Gold.PLP.ligand.clash>
0.0000

> <Gold.PLP.ligand.torsion>
1.0460

> <Gold.PLP.Chemscore.Hbond>
2.0000

> <Gold.PLP.Chemscore.CHOScore>
2.0000

> <Gold.PLP.Chemscore.Metal>
0.0000

> <Gold.Chemscore.Hbonds>
donor molecule, donor type, donor heavy atom, donor atom, acceptor molecule, acceptor atom, score
      L1  H     3    17       P1  8028  1.00
      L1  H    10    28       P1  8029  1.00
      L1  C    14    29       P1  7957  1.00
      L1  C    15    30       P1 10175  1.00

> <Gold.PLP.Chemscore.Internal.Correction>
0.0427

> <Gold.Rescore>
     Score         DG    S(hbond)    S(metal)    S(lipo)     H(rot)  DE(clash)    DE(int)     intcor
     13.61     -17.20       1.90        0.00      86.47       1.85       0.71       2.88       ----

> <Gold.Chemscore.Fitness>
13.6066

> <Gold.Chemscore.DG>
-17.1953

> <Gold.Chemscore.ZeroCoef>
-5.4800

> <Gold.Chemscore.Hbond>
1.8952

> <Gold.Chemscore.Metal>
0.0000

> <Gold.Chemscore.Lipo>
86.4672

> <Gold.Chemscore.Internal_Hbond>
0.0000

> <Gold.Chemscore.DEClash>
0.7082

> <Gold.Chemscore.DEInternal>
2.8806

> <Gold.Chemscore.Rot>
1.8481

> <Gold.Chemscore.Internal.Correction>
   9.000000E+99

> <Gold.Chemscore.Hbonds>
donor molecule, donor type, donor heavy atom, donor atom, acceptor molecule, acceptor atom, score
      L1  H     3    17       P1  8028  0.97
      L1  H    10    28       P1  8029  0.77

> <Gold.Chemscore.Hbond.Weighted>
-6.3299

> <Gold.Chemscore.Metal.Weighted>
-0.0000

> <Gold.Chemscore.Lipo.Weighted>
-10.1167

> <Gold.Chemscore.Internal_Hbond.Weighted>
0.0000

> <Gold.Chemscore.DEClash.Weighted>
0.7082

> <Gold.Chemscore.DEInternal.Weighted>
2.8806

> <Gold.Chemscore.Rot.Weighted>
4.7313

> <Gold.Chemscore.Internal.Correction.Weighted>
   9.000000E+99

> <Gold.Protein.RotatedTorsions>
[ 6907 6896 6895 6894 ] final  -87.30 input  -60.11 | X-H torsion
[ 7974 7965 7964 7962 ] final -145.15 input  175.53 | X-H torsion
[ 8008 7997 7996 7995 ] final  156.33 input   59.86 | X-H torsion
[ 10167 10162 10161 10158 ] final  -70.55 input  -65.29 | X-H torsion
[ 10718 10713 10712 10709 ] final -145.36 input   66.30 | X-H torsion
[ 10763 10752 10751 10750 ] final -113.40 input  -60.55 | X-H torsion
[ 11005 11000 10999 10996 ] final   58.39 input  -57.11 | X-H torsion

> <Gold.Protein.ActiveResidues>
 VAL166  LYS551  ARG553  GLY616  TRP617  ASP618  TYR619  PRO620  LYS621  CYS622 
 ASP623  PHE694  ASN695  SER759  ASP760  ASP761  ALA762  ILE779  LEU786  VAL792 
 PHE793  MET794  SER795  GLU796  ALA797  LYS798  CYS799  TRP800  GLU811  SER814 

> <Gold.Protein.RotatedAtoms>
  150.6866  134.2917  159.4669 H   0  0  0  0  0  0  0  0  0  0  0  0  # atno 6907 bound_to 6896
  152.0822  134.9461  160.0582 H   0  0  0  0  0  0  0  0  0  0  0  0  # atno 6908 bound_to 6896
  152.0809  133.4118  159.4538 H   0  0  0  0  0  0  0  0  0  0  0  0  # atno 6909 bound_to 6896
  144.8248  140.5620  143.5554 H   0  0  0  0  0  0  0  0  0  0  0  0  # atno 7974 bound_to 7965
  156.2428  140.1915  156.6938 H   0  0  0  0  0  0  0  0  0  0  0  0  # atno 8008 bound_to 7997
  154.6232  140.0606  156.9667 H   0  0  0  0  0  0  0  0  0  0  0  0  # atno 8009 bound_to 7997
  155.1829  140.3278  155.4374 H   0  0  0  0  0  0  0  0  0  0  0  0  # atno 8010 bound_to 7997
  140.5344  143.2319  151.7204 H   0  0  0  0  0  0  0  0  0  0  0  0  # atno 10167 bound_to 10162
  156.3814  130.7839  151.2032 H   0  0  0  0  0  0  0  0  0  0  0  0  # atno 10718 bound_to 10713
  154.8394  135.4455  154.1344 H   0  0  0  0  0  0  0  0  0  0  0  0  # atno 10763 bound_to 10752
  153.2545  135.6930  153.7649 H   0  0  0  0  0  0  0  0  0  0  0  0  # atno 10764 bound_to 10752
  153.6949  135.3381  155.3186 H   0  0  0  0  0  0  0  0  0  0  0  0  # atno 10765 bound_to 10752
  140.0381  134.5913  155.9417 H   0  0  0  0  0  0  0  0  0  0  0  0  # atno 11005 bound_to 11000
  145.5025  139.1482  143.3649 LP  0  0  0  0  0  0  0  0  0  0  0  0  # atno 17320 bound_to 7965
  146.2553  140.5165  142.8876 LP  0  0  0  0  0  0  0  0  0  0  0  0  # atno 17321 bound_to 7965
  139.4965  144.4066  152.0125 LP  0  0  0  0  0  0  0  0  0  0  0  0  # atno 17342 bound_to 10162
  140.3170  144.3472  150.6019 LP  0  0  0  0  0  0  0  0  0  0  0  0  # atno 17343 bound_to 10162
  157.7492  131.0343  150.4310 LP  0  0  0  0  0  0  0  0  0  0  0  0  # atno 17370 bound_to 10713
  156.4554  130.4020  149.6609 LP  0  0  0  0  0  0  0  0  0  0  0  0  # atno 17371 bound_to 10713
  141.1868  133.6558  156.5256 LP  0  0  0  0  0  0  0  0  0  0  0  0  # atno 17394 bound_to 11000
  140.4114  134.7269  157.4838 LP  0  0  0  0  0  0  0  0  0  0  0  0  # atno 17395 bound_to 11000

$$$$
