AV-unprocessed.smi:1942|AV-procd|sdf|7850|dock6
  -GOLD-   22720 9593D 1   1.00000     0.00000
 Structure written by MMmdl.
 36 38  0  0  0  0  0  0  0  0  2 V2000
  149.1704  138.1775  154.8021 O   0  0  0  0  0  0  0  0  0  0  0  0
  148.6763  139.2792  154.5626 C   0  0  0  0  0  0  0  0  0  0  0  0
  147.2828  139.4320  154.1289 C   0  0  0  0  0  0  0  0  0  0  0  0
  146.7437  140.6458  153.8990 C   0  0  0  0  0  0  0  0  0  0  0  0
  147.5344  141.8406  154.0769 C   0  0  0  0  0  0  0  0  0  0  0  0
  148.8128  141.7038  154.4626 C   0  0  0  0  0  0  0  0  0  0  0  0
  149.3888  140.4397  154.6946 N   0  0  0  0  0  0  0  0  0  0  0  0
  150.7989  140.4175  155.1076 C   0  0  0  0  0  0  0  0  0  0  0  0
  151.0914  141.2636  156.3117 C   0  0  0  0  0  0  0  0  0  0  0  0
  150.8968  142.6092  156.4304 N   0  3  0  0  0  0  0  0  0  0  0  0
  151.2786  143.0346  157.7025 C   0  0  0  0  0  0  0  0  0  0  0  0
  151.2662  144.2997  158.2812 C   0  0  0  0  0  0  0  0  0  0  0  0
  151.7255  144.3933  159.6115 C   0  0  0  0  0  0  0  0  0  0  0  0
  151.7381  145.9299  160.3954 Cl  0  0  0  0  0  0  0  0  0  0  0  0
  152.1747  143.2547  160.3119 C   0  0  0  0  0  0  0  0  0  0  0  0
  152.1833  141.9772  159.7142 C   0  0  0  0  0  0  0  0  0  0  0  0
  151.7253  141.8938  158.3994 C   0  0  0  0  0  0  0  0  0  0  0  0
  151.5901  140.8256  157.5038 N   0  0  0  0  0  0  0  0  0  0  0  0
  151.9707  139.4684  157.9277 C   0  0  0  0  0  0  0  0  0  0  0  0
  153.3351  139.4255  158.6365 C   0  0  0  0  0  0  0  0  0  0  0  0
  154.2936  138.7357  157.8622 O   0  0  0  0  0  0  0  0  0  0  0  0
  146.6760  138.5491  153.9904 H   0  0  0  0  0  0  0  0  0  0  0  0
  145.7151  140.7257  153.5792 H   0  0  0  0  0  0  0  0  0  0  0  0
  147.1077  142.8181  153.9052 H   0  0  0  0  0  0  0  0  0  0  0  0
  149.4717  142.5455  154.6219 H   0  0  0  0  0  0  0  0  0  0  0  0
  151.1322  139.3986  155.3107 H   0  0  0  0  0  0  0  0  0  0  0  0
  151.4234  140.7546  154.2796 H   0  0  0  0  0  0  0  0  0  0  0  0
  150.9232  145.1719  157.7439 H   0  0  0  0  0  0  0  0  0  0  0  0
  152.5215  143.3615  161.3295 H   0  0  0  0  0  0  0  0  0  0  0  0
  152.5361  141.1147  160.2596 H   0  0  0  0  0  0  0  0  0  0  0  0
  151.1856  139.0513  158.5583 H   0  0  0  0  0  0  0  0  0  0  0  0
  152.0010  138.8445  157.0338 H   0  0  0  0  0  0  0  0  0  0  0  0
  153.6945  140.4384  158.8191 H   0  0  0  0  0  0  0  0  0  0  0  0
  153.2479  138.9368  159.6073 H   0  0  0  0  0  0  0  0  0  0  0  0
  153.8399  138.1574  157.2680 H   0  0  0  0  0  0  0  0  0  0  0  0
  150.5264  143.1920  155.6907 H   0  0  0  0  0  0  0  0  0  0  0  0
  1  2  2  0  0  0  0
  2  7  1  0  0  0  0
  2  3  1  0  0  0  0
  3  4  2  0  0  0  0
  3 22  1  0  0  0  0
  4  5  1  0  0  0  0
  4 23  1  0  0  0  0
  5  6  2  0  0  0  0
  5 24  1  0  0  0  0
  6  7  1  0  0  0  0
  6 25  1  0  0  0  0
  7  8  1  0  0  0  0
  8  9  1  0  0  0  0
  8 26  1  0  0  0  0
  8 27  1  0  0  0  0
  9 18  1  0  0  0  0
  9 10  2  0  0  0  0
 10 11  1  0  0  0  0
 10 36  1  0  0  0  0
 11 17  2  0  0  0  0
 11 12  1  0  0  0  0
 12 13  2  0  0  0  0
 12 28  1  0  0  0  0
 13 14  1  0  0  0  0
 13 15  1  0  0  0  0
 15 16  2  0  0  0  0
 15 29  1  0  0  0  0
 16 17  1  0  0  0  0
 16 30  1  0  0  0  0
 17 18  1  0  0  0  0
 18 19  1  0  0  0  0
 19 20  1  0  0  0  0
 19 31  1  0  0  0  0
 19 32  1  0  0  0  0
 20 21  1  0  0  0  0
 20 33  1  0  0  0  0
 20 34  1  0  0  0  0
 21 35  1  0  0  0  0
M  CHG  1  10   1
M  END
> <s_m_source_file>
AV-unprocessed.smi

> <i_m_source_file_index>
1942

> <i_lp_mmshare_version>
43012

> <i_f3d_flags>
0

> <s_epik_input>
Tz1jMVtjSF1bY0hdW2NIXVtjSF1uMVtDSDJdYyhuMiluKFtDSDJdW0NIMl1bT0hdKWMoYzIzKVtjSF1bY0hdYyhDbClbY0hdMw==

> <s_epik_cmdline>
J2VwaWtfcHl0aG9uJywgJy1waCcsICc3LjAnLCAnLXRuJywgJzgnLCAnLW1hJywgJzIwMCcsICctbWV0YWxfYmluZGluZycsICctaW1hZScsICc8aW5maWxlLm1hZT4nLCAnLW9tYWUnLCAnPG91dGZpbGUubWFlPic=

> <r_lp_tautomer_probability>
1

> <r_epik_Ionization_Penalty>
1.62531

> <r_epik_Ionization_Penalty_Charging>
1.62531

> <r_epik_Ionization_Penalty_Neutral>
5.76694e-08

> <r_epik_State_Penalty>
1.72539

> <r_epik_Charging_Adjusted_Penalty>
3.3507

> <i_epik_Tot_Q>
1

> <i_epik_Tot_abs_Q>
1

> <r_epik_Metal_State_Penalty>
5.78505

> <b_epik_Metal_Only>
0

> <s_lp_Force_Field>
OPLS_2005

> <r_lp_Energy>
19.9382

> <b_lp_Chiralities_Consistent>
1

> <s_lp_Variant>
AV-unprocessed.smi:1942-2

> <Gold.Version>
5.8.1

> <Gold.Id.Protein>
6NUR|6NUR_protein|mol2

> <Gold.PLP.Fitness>
50.1988

> <Gold.PLP.PLP>
-44.1790

> <Gold.PLP.part.hbond>
-1.7451

> <Gold.PLP.part.metal>
0.0000

> <Gold.PLP.part.buried>
0.0479

> <Gold.PLP.part.nonpolar>
-43.2783

> <Gold.PLP.part.repulsive>
0.2410

> <Gold.PLP.ligand.clash>
0.0038

> <Gold.PLP.ligand.torsion>
0.5469

> <Gold.PLP.Chemscore.Hbond>
1.4289

> <Gold.PLP.Chemscore.CHOScore>
0.9406

> <Gold.PLP.Chemscore.Metal>
0.0000

> <Gold.Chemscore.Hbonds>
donor molecule, donor type, donor heavy atom, donor atom, acceptor molecule, acceptor atom, score
      L1  H    10    36       P1  8028  0.64
      P1  H  7997  8010       L1    21  0.77
      L1  C     6    25       P1  8028  0.94

> <Gold.PLP.Chemscore.Internal.Correction>
0.0087

> <Gold.Rescore>
     Score         DG    S(hbond)    S(metal)    S(lipo)     H(rot)  DE(clash)    DE(int)     intcor
     11.96     -15.30       0.73        0.00     114.16       2.33       1.96       1.38       ----

> <Gold.Chemscore.Fitness>
11.9578

> <Gold.Chemscore.DG>
-15.2991

> <Gold.Chemscore.ZeroCoef>
-5.4800

> <Gold.Chemscore.Hbond>
0.7288

> <Gold.Chemscore.Metal>
0.0000

> <Gold.Chemscore.Lipo>
114.1577

> <Gold.Chemscore.Internal_Hbond>
0.0000

> <Gold.Chemscore.DEClash>
1.9566

> <Gold.Chemscore.DEInternal>
1.3848

> <Gold.Chemscore.Rot>
2.3326

> <Gold.Chemscore.Internal.Correction>
   9.000000E+99

> <Gold.Chemscore.Hbonds>
donor molecule, donor type, donor heavy atom, donor atom, acceptor molecule, acceptor atom, score
      L1  H    10    36       P1  8028  0.33
      P1  H  7997  8010       L1    21  0.19

> <Gold.Chemscore.Hbond.Weighted>
-2.4340

> <Gold.Chemscore.Metal.Weighted>
-0.0000

> <Gold.Chemscore.Lipo.Weighted>
-13.3565

> <Gold.Chemscore.Internal_Hbond.Weighted>
0.0000

> <Gold.Chemscore.DEClash.Weighted>
1.9566

> <Gold.Chemscore.DEInternal.Weighted>
1.3848

> <Gold.Chemscore.Rot.Weighted>
5.9714

> <Gold.Chemscore.Internal.Correction.Weighted>
   9.000000E+99

> <Gold.Protein.RotatedTorsions>
[ 6907 6896 6895 6894 ] final   52.94 input  -60.11 | X-H torsion
[ 7974 7965 7964 7962 ] final   27.19 input  175.53 | X-H torsion
[ 8008 7997 7996 7995 ] final   -3.79 input   59.86 | X-H torsion
[ 10167 10162 10161 10158 ] final  -77.42 input  -65.29 | X-H torsion
[ 10718 10713 10712 10709 ] final   74.07 input   66.30 | X-H torsion
[ 10763 10752 10751 10750 ] final  157.90 input  -60.55 | X-H torsion
[ 11005 11000 10999 10996 ] final -114.07 input  -57.11 | X-H torsion

> <Gold.Protein.ActiveResidues>
 VAL166  LYS551  ARG553  GLY616  TRP617  ASP618  TYR619  PRO620  LYS621  CYS622 
 ASP623  PHE694  ASN695  SER759  ASP760  ASP761  ALA762  ILE779  LEU786  VAL792 
 PHE793  MET794  SER795  GLU796  ALA797  LYS798  CYS799  TRP800  GLU811  SER814 

> <Gold.Protein.RotatedAtoms>
  152.3286  134.7289  160.0295 H   0  0  0  0  0  0  0  0  0  0  0  0  # atno 6907 bound_to 6896
  151.7713  133.3336  159.3453 H   0  0  0  0  0  0  0  0  0  0  0  0  # atno 6908 bound_to 6896
  150.7410  134.5947  159.6050 H   0  0  0  0  0  0  0  0  0  0  0  0  # atno 6909 bound_to 6896
  146.1797  139.7225  142.8909 H   0  0  0  0  0  0  0  0  0  0  0  0  # atno 7974 bound_to 7965
  154.6212  140.2500  155.7547 H   0  0  0  0  0  0  0  0  0  0  0  0  # atno 8008 bound_to 7997
  156.2427  140.2926  156.0440 H   0  0  0  0  0  0  0  0  0  0  0  0  # atno 8009 bound_to 7997
  155.1894  140.0391  157.2888 H   0  0  0  0  0  0  0  0  0  0  0  0  # atno 8010 bound_to 7997
  140.4772  143.2411  151.8115 H   0  0  0  0  0  0  0  0  0  0  0  0  # atno 10167 bound_to 10162
  157.6576  130.9660  150.1159 H   0  0  0  0  0  0  0  0  0  0  0  0  # atno 10718 bound_to 10713
  154.2076  135.2787  155.2969 H   0  0  0  0  0  0  0  0  0  0  0  0  # atno 10763 bound_to 10752
  154.5805  135.5591  153.7184 H   0  0  0  0  0  0  0  0  0  0  0  0  # atno 10764 bound_to 10752
  153.0072  135.6343  154.2214 H   0  0  0  0  0  0  0  0  0  0  0  0  # atno 10765 bound_to 10752
  141.0575  133.9589  157.2727 H   0  0  0  0  0  0  0  0  0  0  0  0  # atno 11005 bound_to 11000
  145.4110  141.0396  143.3017 LP  0  0  0  0  0  0  0  0  0  0  0  0  # atno 17320 bound_to 7965
  144.8295  139.5653  143.6950 LP  0  0  0  0  0  0  0  0  0  0  0  0  # atno 17321 bound_to 7965
  139.4827  144.4819  151.9296 LP  0  0  0  0  0  0  0  0  0  0  0  0  # atno 17342 bound_to 10162
  140.3904  144.2623  150.5900 LP  0  0  0  0  0  0  0  0  0  0  0  0  # atno 17343 bound_to 10162
  156.2043  130.3662  149.8749 LP  0  0  0  0  0  0  0  0  0  0  0  0  # atno 17370 bound_to 10713
  156.6644  130.8795  151.3552 LP  0  0  0  0  0  0  0  0  0  0  0  0  # atno 17371 bound_to 10713
  139.9403  135.0192  156.8686 LP  0  0  0  0  0  0  0  0  0  0  0  0  # atno 17394 bound_to 11000
  140.5935  134.0239  155.7509 LP  0  0  0  0  0  0  0  0  0  0  0  0  # atno 17395 bound_to 11000

$$$$
