AV-unprocessed.smi:281|AV-procd|sdf|2111|dock10
  -GOLD-   2262021403D 1   1.00000     0.00000
 Structure written by MMmdl.
 55 59  0  0  0  0  0  0  0  0  1 V2000
  147.4047  142.2322  153.7377 C   0  0  0  0  0  0  0  0  0  0  0  0
  147.9532  140.8026  153.7793 C   0  0  2  0  0  0  0  0  0  0  0  0
  146.8251  139.7581  153.8398 C   0  0  0  0  0  0  0  0  0  0  0  0
  147.3856  138.4226  154.0044 N   0  0  0  0  0  0  0  0  0  0  0  0
  146.5218  137.4058  153.7571 C   0  0  0  0  0  0  0  0  0  0  0  0
  145.9741  136.7104  154.7898 N   0  0  0  0  0  0  0  0  0  0  0  0
  145.1148  135.7152  154.5529 C   0  0  0  0  0  0  0  0  0  0  0  0
  144.6726  135.2558  153.3809 N   0  0  0  0  0  0  0  0  0  0  0  0
  145.2219  135.9448  152.3402 C   0  0  0  0  0  0  0  0  0  0  0  0
  146.1499  137.0200  152.4385 C   0  0  0  0  0  0  0  0  0  0  0  0
  146.5049  137.4552  151.1672 N   0  0  0  0  0  0  0  0  0  0  0  0
  145.8179  136.6893  150.3649 C   0  0  0  0  0  0  0  0  0  0  0  0
  145.0060  135.7660  150.9844 N   0  0  0  0  0  0  0  0  0  0  0  0
  144.1288  134.8029  150.3357 C   0  0  0  0  0  0  0  0  0  0  0  0
  144.3745  133.3268  150.7473 C   0  0  2  0  0  0  0  0  0  0  0  0
  143.9729  133.1907  152.0964 O   0  0  0  0  0  0  0  0  0  0  0  0
  145.8240  132.8652  150.5966 C   0  0  0  0  0  0  0  0  0  0  0  0
  145.8540  132.0879  149.2751 C   0  0  0  0  0  0  0  0  0  0  0  0
  144.5175  132.0740  148.7898 O   0  0  0  0  0  0  0  0  0  0  0  0
  143.6373  132.3026  149.8785 C   0  0  0  0  0  0  0  0  0  0  0  0
  148.2633  138.3141  155.1661 C   0  0  0  0  0  0  0  0  0  0  0  0
  149.3765  139.3908  155.1107 C   0  0  2  0  0  0  0  0  0  0  0  0
  150.4223  139.1068  154.0359 C   0  0  0  0  0  0  0  0  0  0  0  0
  151.3834  138.1512  154.7328 C   0  0  0  0  0  0  0  0  0  0  0  0
  151.3592  138.5200  156.1059 O   0  0  0  0  0  0  0  0  0  0  0  0
  150.2866  139.4250  156.3551 C   0  0  2  0  0  0  0  0  0  0  0  0
  149.6246  139.1276  157.7084 C   0  0  0  0  0  0  0  0  0  0  0  0
  148.7838  140.6811  154.9343 O   0  0  0  0  0  0  0  0  0  0  0  0
  146.7737  142.3848  152.8620 H   0  0  0  0  0  0  0  0  0  0  0  0
  148.2155  142.9599  153.6952 H   0  0  0  0  0  0  0  0  0  0  0  0
  146.8070  142.4508  154.6230 H   0  0  0  0  0  0  0  0  0  0  0  0
  148.5507  140.6414  152.8810 H   0  0  0  0  0  0  0  0  0  0  0  0
  146.1646  139.9672  154.6825 H   0  0  0  0  0  0  0  0  0  0  0  0
  146.2166  139.8274  152.9387 H   0  0  0  0  0  0  0  0  0  0  0  0
  144.7244  135.2167  155.4279 H   0  0  0  0  0  0  0  0  0  0  0  0
  145.8805  136.7837  149.2907 H   0  0  0  0  0  0  0  0  0  0  0  0
  143.0989  135.0848  150.5595 H   0  0  0  0  0  0  0  0  0  0  0  0
  144.2430  134.9135  149.2564 H   0  0  0  0  0  0  0  0  0  0  0  0
  144.7182  133.3658  152.6502 H   0  0  0  0  0  0  0  0  0  0  0  0
  146.5355  133.6906  150.6153 H   0  0  0  0  0  0  0  0  0  0  0  0
  146.1049  132.1885  151.4056 H   0  0  0  0  0  0  0  0  0  0  0  0
  146.5105  132.5544  148.5403 H   0  0  0  0  0  0  0  0  0  0  0  0
  146.1980  131.0656  149.4356 H   0  0  0  0  0  0  0  0  0  0  0  0
  143.5054  131.3593  150.4118 H   0  0  0  0  0  0  0  0  0  0  0  0
  142.6540  132.6387  149.5504 H   0  0  0  0  0  0  0  0  0  0  0  0
  147.6528  138.4477  156.0597 H   0  0  0  0  0  0  0  0  0  0  0  0
  148.7007  137.3164  155.2206 H   0  0  0  0  0  0  0  0  0  0  0  0
  150.0120  138.6924  153.1144 H   0  0  0  0  0  0  0  0  0  0  0  0
  150.9511  140.0263  153.7802 H   0  0  0  0  0  0  0  0  0  0  0  0
  151.0353  137.1217  154.6407 H   0  0  0  0  0  0  0  0  0  0  0  0
  152.3925  138.2043  154.3236 H   0  0  0  0  0  0  0  0  0  0  0  0
  150.7430  140.4150  156.4101 H   0  0  0  0  0  0  0  0  0  0  0  0
  148.7882  139.8024  157.8922 H   0  0  0  0  0  0  0  0  0  0  0  0
  150.3389  139.2554  158.5219 H   0  0  0  0  0  0  0  0  0  0  0  0
  149.2539  138.1037  157.7592 H   0  0  0  0  0  0  0  0  0  0  0  0
  1  2  1  0  0  0  0
  1 29  1  0  0  0  0
  1 30  1  0  0  0  0
  1 31  1  0  0  0  0
  2 28  1  0  0  0  0
  2  3  1  0  0  0  0
  2 32  1  0  0  0  0
  3  4  1  0  0  0  0
  3 33  1  0  0  0  0
  3 34  1  0  0  0  0
  4  5  1  0  0  0  0
  4 21  1  0  0  0  0
  5 10  1  0  0  0  0
  5  6  2  0  0  0  0
  6  7  1  0  0  0  0
  7  8  2  0  0  0  0
  7 35  1  0  0  0  0
  8  9  1  0  0  0  0
  9 13  1  0  0  0  0
  9 10  2  0  0  0  0
 10 11  1  0  0  0  0
 11 12  2  0  0  0  0
 12 13  1  0  0  0  0
 12 36  1  0  0  0  0
 13 14  1  0  0  0  0
 14 15  1  0  0  0  0
 14 37  1  0  0  0  0
 14 38  1  0  0  0  0
 15 20  1  0  0  0  0
 15 16  1  0  0  0  0
 15 17  1  0  0  0  0
 16 39  1  0  0  0  0
 17 18  1  0  0  0  0
 17 40  1  0  0  0  0
 17 41  1  0  0  0  0
 18 19  1  0  0  0  0
 18 42  1  0  0  0  0
 18 43  1  0  0  0  0
 19 20  1  0  0  0  0
 20 44  1  0  0  0  0
 20 45  1  0  0  0  0
 21 22  1  0  0  0  0
 21 46  1  0  0  0  0
 21 47  1  0  0  0  0
 22 26  1  0  0  0  0
 22 23  1  0  0  0  0
 22 28  1  0  0  0  0
 23 24  1  0  0  0  0
 23 48  1  0  0  0  0
 23 49  1  0  0  0  0
 24 25  1  0  0  0  0
 24 50  1  0  0  0  0
 24 51  1  0  0  0  0
 25 26  1  0  0  0  0
 26 27  1  0  0  0  0
 26 52  1  0  0  0  0
 27 53  1  0  0  0  0
 27 54  1  0  0  0  0
 27 55  1  0  0  0  0
M  END
> <s_m_source_file>
AV-unprocessed.smi

> <i_m_source_file_index>
281

> <i_lp_mmshare_version>
43012

> <i_f3d_flags>
0

> <s_epik_input>
W0NIM11bQ0BASF0xT1tDSDJdW0NIMl1bQ0BAXTEyW0NIMl1OKFtDSDJdW0NASF0oTzIpW0NIM10pYyhuW2NIXW4zKWMoYzM0KW5bY0hdbjRbQ0gyXVtDQEBdNShbT0hdKVtDSDJdW0NIMl1PW0NIMl01

> <s_epik_cmdline>
J2VwaWtfcHl0aG9uJywgJy1waCcsICc3LjAnLCAnLXRuJywgJzgnLCAnLW1hJywgJzIwMCcsICctbWV0YWxfYmluZGluZycsICctaW1hZScsICc8aW5maWxlLm1hZT4nLCAnLW9tYWUnLCAnPG91dGZpbGUubWFlPic=

> <r_lp_tautomer_probability>
1

> <r_epik_Ionization_Penalty>
0.00571331

> <r_epik_Ionization_Penalty_Charging>
0

> <r_epik_Ionization_Penalty_Neutral>
0.00571331

> <r_epik_State_Penalty>
0.00399586

> <r_epik_Charging_Adjusted_Penalty>
0.00399586

> <i_epik_Tot_Q>
0

> <i_epik_Tot_abs_Q>
0

> <r_epik_Metal_State_Penalty>
-0

> <b_epik_Metal_Only>
0

> <s_lp_Force_Field>
OPLS_2005

> <r_lp_Energy>
56.9308

> <b_lp_Chiralities_Consistent>
1

> <s_lp_Variant>
AV-unprocessed.smi:281-11

> <Gold.Version>
5.8.1

> <Gold.Id.Protein>
6NUR|6NUR_protein|mol2

> <Gold.PLP.Fitness>
39.4993

> <Gold.PLP.PLP>
-35.8093

> <Gold.PLP.part.hbond>
-1.8318

> <Gold.PLP.part.metal>
0.0000

> <Gold.PLP.part.buried>
-0.7637

> <Gold.PLP.part.nonpolar>
-35.0882

> <Gold.PLP.part.repulsive>
3.1417

> <Gold.PLP.ligand.clash>
0.0000

> <Gold.PLP.ligand.torsion>
0.6607

> <Gold.PLP.Chemscore.Hbond>
0.6874

> <Gold.PLP.Chemscore.CHOScore>
0.8847

> <Gold.PLP.Chemscore.Metal>
0.0000

> <Gold.Chemscore.Hbonds>
donor molecule, donor type, donor heavy atom, donor atom, acceptor molecule, acceptor atom, score
      P1  H  7954  7966       L1    11  0.71
      L1  C    12    36       P1  7921  0.88
      L1  C    12    36       P1 10171  0.01

> <Gold.PLP.Chemscore.Internal.Correction>
0.2951

> <Gold.Rescore>
     Score         DG    S(hbond)    S(metal)    S(lipo)     H(rot)  DE(clash)    DE(int)     intcor
      8.21     -11.66       0.06        0.00      96.78       2.09       2.69       0.76       ----

> <Gold.Chemscore.Fitness>
8.2068

> <Gold.Chemscore.DG>
-11.6565

> <Gold.Chemscore.ZeroCoef>
-5.4800

> <Gold.Chemscore.Hbond>
0.0629

> <Gold.Chemscore.Metal>
0.0000

> <Gold.Chemscore.Lipo>
96.7838

> <Gold.Chemscore.Internal_Hbond>
0.0000

> <Gold.Chemscore.DEClash>
2.6852

> <Gold.Chemscore.DEInternal>
0.7645

> <Gold.Chemscore.Rot>
2.0927

> <Gold.Chemscore.Internal.Correction>
   9.000000E+99

> <Gold.Chemscore.Hbonds>
donor molecule, donor type, donor heavy atom, donor atom, acceptor molecule, acceptor atom, score
      P1  H  7954  7966       L1    11  0.16

> <Gold.Chemscore.Hbond.Weighted>
-0.2102

> <Gold.Chemscore.Metal.Weighted>
-0.0000

> <Gold.Chemscore.Lipo.Weighted>
-11.3237

> <Gold.Chemscore.Internal_Hbond.Weighted>
0.0000

> <Gold.Chemscore.DEClash.Weighted>
2.6852

> <Gold.Chemscore.DEInternal.Weighted>
0.7645

> <Gold.Chemscore.Rot.Weighted>
5.3573

> <Gold.Chemscore.Internal.Correction.Weighted>
   9.000000E+99

> <Gold.Protein.RotatedTorsions>
[ 6907 6896 6895 6894 ] final   54.02 input  -60.11 | X-H torsion
[ 7974 7965 7964 7962 ] final   10.55 input  175.53 | X-H torsion
[ 8008 7997 7996 7995 ] final  -50.72 input   59.86 | X-H torsion
[ 10167 10162 10161 10158 ] final  109.04 input  -65.29 | X-H torsion
[ 10718 10713 10712 10709 ] final  -56.10 input   66.30 | X-H torsion
[ 10763 10752 10751 10750 ] final  -80.73 input  -60.55 | X-H torsion
[ 11005 11000 10999 10996 ] final  140.45 input  -57.11 | X-H torsion

> <Gold.Protein.ActiveResidues>
 VAL166  LYS551  ARG553  GLY616  TRP617  ASP618  TYR619  PRO620  LYS621  CYS622 
 ASP623  PHE694  ASN695  SER759  ASP760  ASP761  ALA762  ILE779  LEU786  VAL792 
 PHE793  MET794  SER795  GLU796  ALA797  LYS798  CYS799  TRP800  GLU811  SER814 

> <Gold.Protein.RotatedAtoms>
  152.3397  134.7151  160.0266 H   0  0  0  0  0  0  0  0  0  0  0  0  # atno 6907 bound_to 6896
  151.7540  133.3324  159.3407 H   0  0  0  0  0  0  0  0  0  0  0  0  # atno 6908 bound_to 6896
  150.7472  134.6099  159.6125 H   0  0  0  0  0  0  0  0  0  0  0  0  # atno 6909 bound_to 6896
  146.2386  139.9617  142.8458 H   0  0  0  0  0  0  0  0  0  0  0  0  # atno 7974 bound_to 7965
  154.4068  140.1265  156.4712 H   0  0  0  0  0  0  0  0  0  0  0  0  # atno 8008 bound_to 7997
  155.7177  140.3493  155.4982 H   0  0  0  0  0  0  0  0  0  0  0  0  # atno 8009 bound_to 7997
  155.9243  140.1058  157.1173 H   0  0  0  0  0  0  0  0  0  0  0  0  # atno 8010 bound_to 7997
  139.6798  144.7119  151.1535 H   0  0  0  0  0  0  0  0  0  0  0  0  # atno 10167 bound_to 10162
  156.1315  130.4159  150.0260 H   0  0  0  0  0  0  0  0  0  0  0  0  # atno 10718 bound_to 10713
  154.5548  135.5651  153.6954 H   0  0  0  0  0  0  0  0  0  0  0  0  # atno 10763 bound_to 10752
  153.0000  135.6259  154.2325 H   0  0  0  0  0  0  0  0  0  0  0  0  # atno 10764 bound_to 10752
  154.2261  135.2867  155.2887 H   0  0  0  0  0  0  0  0  0  0  0  0  # atno 10765 bound_to 10752
  140.0328  134.9343  157.0695 H   0  0  0  0  0  0  0  0  0  0  0  0  # atno 11005 bound_to 11000
  145.1765  140.9746  143.4291 LP  0  0  0  0  0  0  0  0  0  0  0  0  # atno 17320 bound_to 7965
  144.9981  139.3624  143.6181 LP  0  0  0  0  0  0  0  0  0  0  0  0  # atno 17321 bound_to 7965
  140.7648  143.5716  150.8990 LP  0  0  0  0  0  0  0  0  0  0  0  0  # atno 17342 bound_to 10162
  139.9387  143.6407  152.3059 LP  0  0  0  0  0  0  0  0  0  0  0  0  # atno 17343 bound_to 10162
  156.8171  130.9345  151.3642 LP  0  0  0  0  0  0  0  0  0  0  0  0  # atno 17370 bound_to 10713
  157.6492  130.8870  149.9600 LP  0  0  0  0  0  0  0  0  0  0  0  0  # atno 17371 bound_to 10713
  140.4197  134.1893  155.7164 LP  0  0  0  0  0  0  0  0  0  0  0  0  # atno 17394 bound_to 11000
  141.1840  133.8352  157.1154 LP  0  0  0  0  0  0  0  0  0  0  0  0  # atno 17395 bound_to 11000

$$$$
