AV-unprocessed.smi:1795|AV-procd|sdf|7245|dock2
  -GOLD-   22720 8493D 1   1.00000     0.00000
 Structure written by MMmdl.
 48 49  0  0  0  0  0  0  0  0  2 V2000
  145.6873  132.4192  150.8100 C   0  0  0  0  0  0  0  0  0  0  0  0
  146.1733  133.6223  151.6258 C   0  0  2  0  0  0  0  0  0  0  0  0
  147.0150  133.1940  152.8399 C   0  0  0  0  0  0  0  0  0  0  0  0
  147.4187  134.3731  153.6507 N   0  3  2  0  0  0  0  0  0  0  0  0
  148.3826  134.0160  154.7430 C   0  0  1  0  0  0  0  0  0  0  0  0
  149.4212  133.0027  154.2096 C   0  0  0  0  0  0  0  0  0  0  0  0
  149.0869  135.2431  155.3865 C   0  0  0  0  0  0  0  0  0  0  0  0
  148.3530  135.7758  156.5318 N   0  0  0  0  0  0  0  0  0  0  0  0
  148.7121  135.6435  157.8182 C   0  0  0  0  0  0  0  0  0  0  0  0
  149.7451  135.0775  158.1775 O   0  0  0  0  0  0  0  0  0  0  0  0
  147.7514  136.2480  158.8513 C   0  0  0  0  0  0  0  0  0  0  0  0
  147.5122  135.3635  160.0042 N   0  0  0  0  0  0  0  0  0  0  0  0
  147.4751  133.9769  159.7555 C   0  0  0  0  0  0  0  0  0  0  0  0
  147.2696  133.0849  160.7375 C   0  0  0  0  0  0  0  0  0  0  0  0
  147.0824  133.5790  162.0811 C   0  0  0  0  0  0  0  0  0  0  0  0
  147.1133  134.9033  162.3299 C   0  0  0  0  0  0  0  0  0  0  0  0
  147.3379  135.8821  161.2599 C   0  0  0  0  0  0  0  0  0  0  0  0
  147.3675  137.0941  161.4778 O   0  0  0  0  0  0  0  0  0  0  0  0
  146.2013  135.1210  154.0686 C   0  0  0  0  0  0  0  0  0  0  0  0
  145.3182  135.4909  152.8595 C   0  0  1  0  0  0  0  0  0  0  0  0
  145.8927  136.6383  152.0091 C   0  0  0  0  0  0  0  0  0  0  0  0
  145.0270  134.3340  152.0790 O   0  0  0  0  0  0  0  0  0  0  0  0
  146.5270  131.8412  150.4233 H   0  0  0  0  0  0  0  0  0  0  0  0
  145.0877  132.7424  149.9587 H   0  0  0  0  0  0  0  0  0  0  0  0
  145.0724  131.7523  151.4152 H   0  0  0  0  0  0  0  0  0  0  0  0
  146.7699  134.2554  150.9686 H   0  0  0  0  0  0  0  0  0  0  0  0
  146.4461  132.5027  153.4642 H   0  0  0  0  0  0  0  0  0  0  0  0
  147.8858  132.6466  152.4835 H   0  0  0  0  0  0  0  0  0  0  0  0
  147.8125  133.5314  155.5377 H   0  0  0  0  0  0  0  0  0  0  0  0
  150.0741  132.6375  155.0017 H   0  0  0  0  0  0  0  0  0  0  0  0
  150.0530  133.4557  153.4449 H   0  0  0  0  0  0  0  0  0  0  0  0
  148.9628  132.1175  153.7733 H   0  0  0  0  0  0  0  0  0  0  0  0
  150.1122  134.9917  155.6631 H   0  0  0  0  0  0  0  0  0  0  0  0
  149.1490  136.0656  154.6740 H   0  0  0  0  0  0  0  0  0  0  0  0
  147.4919  136.2642  156.3321 H   0  0  0  0  0  0  0  0  0  0  0  0
  148.1616  137.2062  159.1730 H   0  0  0  0  0  0  0  0  0  0  0  0
  146.7997  136.4888  158.3730 H   0  0  0  0  0  0  0  0  0  0  0  0
  147.6183  133.6882  158.7244 H   0  0  0  0  0  0  0  0  0  0  0  0
  147.2427  132.0256  160.5279 H   0  0  0  0  0  0  0  0  0  0  0  0
  146.9157  132.8834  162.8904 H   0  0  0  0  0  0  0  0  0  0  0  0
  146.9706  135.2548  163.3413 H   0  0  0  0  0  0  0  0  0  0  0  0
  145.6303  134.5088  154.7688 H   0  0  0  0  0  0  0  0  0  0  0  0
  146.4589  136.0457  154.5842 H   0  0  0  0  0  0  0  0  0  0  0  0
  144.3600  135.8394  153.2458 H   0  0  0  0  0  0  0  0  0  0  0  0
  145.9786  137.5511  152.5994 H   0  0  0  0  0  0  0  0  0  0  0  0
  145.2430  136.8566  151.1612 H   0  0  0  0  0  0  0  0  0  0  0  0
  146.8853  136.4114  151.6211 H   0  0  0  0  0  0  0  0  0  0  0  0
  147.9204  134.9959  153.0336 H   0  0  0  0  0  0  0  0  0  0  0  0
  1  2  1  0  0  0  0
  1 23  1  0  0  0  0
  1 24  1  0  0  0  0
  1 25  1  0  0  0  0
  2 22  1  0  0  0  0
  2  3  1  0  0  0  0
  2 26  1  0  0  0  0
  3  4  1  0  0  0  0
  3 27  1  0  0  0  0
  3 28  1  0  0  0  0
  4  5  1  0  0  0  0
  4 19  1  0  0  0  0
  4 48  1  0  0  0  0
  5  6  1  0  0  0  0
  5  7  1  0  0  0  0
  5 29  1  0  0  0  0
  6 30  1  0  0  0  0
  6 31  1  0  0  0  0
  6 32  1  0  0  0  0
  7  8  1  0  0  0  0
  7 33  1  0  0  0  0
  7 34  1  0  0  0  0
  8  9  1  0  0  0  0
  8 35  1  0  0  0  0
  9 10  2  0  0  0  0
  9 11  1  0  0  0  0
 11 12  1  0  0  0  0
 11 36  1  0  0  0  0
 11 37  1  0  0  0  0
 12 17  1  0  0  0  0
 12 13  1  0  0  0  0
 13 14  2  0  0  0  0
 13 38  1  0  0  0  0
 14 15  1  0  0  0  0
 14 39  1  0  0  0  0
 15 16  2  0  0  0  0
 15 40  1  0  0  0  0
 16 17  1  0  0  0  0
 16 41  1  0  0  0  0
 17 18  2  0  0  0  0
 19 20  1  0  0  0  0
 19 42  1  0  0  0  0
 19 43  1  0  0  0  0
 20 21  1  0  0  0  0
 20 22  1  0  0  0  0
 20 44  1  0  0  0  0
 21 45  1  0  0  0  0
 21 46  1  0  0  0  0
 21 47  1  0  0  0  0
M  CHG  1   4   1
M  END
> <s_m_source_file>
AV-unprocessed.smi

> <i_m_source_file_index>
1795

> <i_lp_mmshare_version>
43012

> <i_f3d_flags>
0

> <s_epik_input>
W0NIM11bQ0BASF0xW0NIMl1OKFtDSDJdW0NASF0oTzEpW0NIM10pW0NASF0oW0NIM10pW0NIMl1bTkhdQyg9TylbQ0gyXW4yW2NIXVtjSF1bY0hdW2NIXWMyPU8=

> <s_epik_cmdline>
J2VwaWtfcHl0aG9uJywgJy1waCcsICc3LjAnLCAnLXRuJywgJzgnLCAnLW1hJywgJzIwMCcsICctbWV0YWxfYmluZGluZycsICctaW1hZScsICc8aW5maWxlLm1hZT4nLCAnLW9tYWUnLCAnPG91dGZpbGUubWFlPic=

> <r_lp_tautomer_probability>
1

> <r_epik_Ionization_Penalty>
0.656654

> <r_epik_Ionization_Penalty_Charging>
0.656654

> <r_epik_Ionization_Penalty_Neutral>
8.90321e-08

> <r_epik_State_Penalty>
0.675641

> <r_epik_Charging_Adjusted_Penalty>
1.33229

> <i_epik_Tot_Q>
1

> <i_epik_Tot_abs_Q>
1

> <r_epik_Metal_State_Penalty>
0.675691

> <b_epik_Metal_Only>
0

> <s_lp_Force_Field>
OPLS_2005

> <r_lp_Energy>
30.7176

> <b_lp_Chiralities_Consistent>
1

> <s_lp_Variant>
AV-unprocessed.smi:1795-9

> <Gold.Version>
5.8.1

> <Gold.Id.Protein>
6NUR|6NUR_protein|mol2

> <Gold.PLP.Fitness>
47.4127

> <Gold.PLP.PLP>
-35.4536

> <Gold.PLP.part.hbond>
-4.0000

> <Gold.PLP.part.metal>
0.0000

> <Gold.PLP.part.buried>
-4.6015

> <Gold.PLP.part.nonpolar>
-26.9361

> <Gold.PLP.part.repulsive>
0.0839

> <Gold.PLP.ligand.clash>
0.0000

> <Gold.PLP.ligand.torsion>
1.2303

> <Gold.PLP.Chemscore.Hbond>
4.7760

> <Gold.PLP.Chemscore.CHOScore>
0.0000

> <Gold.PLP.Chemscore.Metal>
0.0000

> <Gold.Chemscore.Hbonds>
donor molecule, donor type, donor heavy atom, donor atom, acceptor molecule, acceptor atom, score
      L1  H     4    48       P1  7948  2.00
      P1  H  6896  6908       L1    10  1.00
      P1  H  6931  6943       L1    18  0.86
      P1  H  6934  6947       L1    18  0.93

> <Gold.PLP.Chemscore.Internal.Correction>
0.0917

> <Gold.Rescore>
     Score         DG    S(hbond)    S(metal)    S(lipo)     H(rot)  DE(clash)    DE(int)     intcor
     20.18     -21.16       3.70        0.00      69.69       1.89       0.02       0.96       ----

> <Gold.Chemscore.Fitness>
20.1766

> <Gold.Chemscore.DG>
-21.1578

> <Gold.Chemscore.ZeroCoef>
-5.4800

> <Gold.Chemscore.Hbond>
3.6990

> <Gold.Chemscore.Metal>
0.0000

> <Gold.Chemscore.Lipo>
69.6929

> <Gold.Chemscore.Internal_Hbond>
0.0000

> <Gold.Chemscore.DEClash>
0.0212

> <Gold.Chemscore.DEInternal>
0.9600

> <Gold.Chemscore.Rot>
1.8870

> <Gold.Chemscore.Internal.Correction>
   9.000000E+99

> <Gold.Chemscore.Hbonds>
donor molecule, donor type, donor heavy atom, donor atom, acceptor molecule, acceptor atom, score
      L1  H     4    48       P1  7948  0.96
      P1  H  6896  6908       L1    10  0.94
      P1  H  6931  6943       L1    18  0.79
      P1  H  6934  6947       L1    18  0.87

> <Gold.Chemscore.Hbond.Weighted>
-12.3545

> <Gold.Chemscore.Metal.Weighted>
-0.0000

> <Gold.Chemscore.Lipo.Weighted>
-8.1541

> <Gold.Chemscore.Internal_Hbond.Weighted>
0.0000

> <Gold.Chemscore.DEClash.Weighted>
0.0212

> <Gold.Chemscore.DEInternal.Weighted>
0.9600

> <Gold.Chemscore.Rot.Weighted>
4.8308

> <Gold.Chemscore.Internal.Correction.Weighted>
   9.000000E+99

> <Gold.Protein.RotatedTorsions>
[ 6907 6896 6895 6894 ] final  170.60 input  -60.11 | X-H torsion
[ 7974 7965 7964 7962 ] final   54.51 input  175.53 | X-H torsion
[ 8008 7997 7996 7995 ] final  109.55 input   59.86 | X-H torsion
[ 10167 10162 10161 10158 ] final  130.65 input  -65.29 | X-H torsion
[ 10718 10713 10712 10709 ] final   66.60 input   66.30 | X-H torsion
[ 10763 10752 10751 10750 ] final   39.49 input  -60.55 | X-H torsion
[ 11005 11000 10999 10996 ] final   53.22 input  -57.11 | X-H torsion

> <Gold.Protein.ActiveResidues>
 VAL166  LYS551  ARG553  GLY616  TRP617  ASP618  TYR619  PRO620  LYS621  CYS622 
 ASP623  PHE694  ASN695  SER759  ASP760  ASP761  ALA762  ILE779  LEU786  VAL792 
 PHE793  MET794  SER795  GLU796  ALA797  LYS798  CYS799  TRP800  GLU811  SER814 

> <Gold.Protein.RotatedAtoms>
  151.8136  133.3385  159.3562 H   0  0  0  0  0  0  0  0  0  0  0  0  # atno 6907 bound_to 6896
  150.7318  134.5641  159.5866 H   0  0  0  0  0  0  0  0  0  0  0  0  # atno 6908 bound_to 6896
  152.3057  134.7559  160.0399 H   0  0  0  0  0  0  0  0  0  0  0  0  # atno 6909 bound_to 6896
  145.9601  139.4051  143.0253 H   0  0  0  0  0  0  0  0  0  0  0  0  # atno 7974 bound_to 7965
  156.1988  140.3055  155.9482 H   0  0  0  0  0  0  0  0  0  0  0  0  # atno 8008 bound_to 7997
  155.3004  140.0446  157.3046 H   0  0  0  0  0  0  0  0  0  0  0  0  # atno 8009 bound_to 7997
  154.5543  140.2301  155.8443 H   0  0  0  0  0  0  0  0  0  0  0  0  # atno 8010 bound_to 7997
  139.5420  144.6739  151.4594 H   0  0  0  0  0  0  0  0  0  0  0  0  # atno 10167 bound_to 10162
  157.6179  130.9276  150.0130 H   0  0  0  0  0  0  0  0  0  0  0  0  # atno 10718 bound_to 10713
  152.9965  135.6219  154.2474 H   0  0  0  0  0  0  0  0  0  0  0  0  # atno 10763 bound_to 10752
  154.2213  135.2796  155.2925 H   0  0  0  0  0  0  0  0  0  0  0  0  # atno 10764 bound_to 10752
  154.5526  135.5729  153.6994 H   0  0  0  0  0  0  0  0  0  0  0  0  # atno 10765 bound_to 10752
  140.0785  134.5372  155.8971 H   0  0  0  0  0  0  0  0  0  0  0  0  # atno 11005 bound_to 11000
  145.8052  140.9752  143.0978 LP  0  0  0  0  0  0  0  0  0  0  0  0  # atno 17320 bound_to 7965
  144.6813  139.9851  143.7484 LP  0  0  0  0  0  0  0  0  0  0  0  0  # atno 17321 bound_to 7965
  140.6654  143.8410  150.6935 LP  0  0  0  0  0  0  0  0  0  0  0  0  # atno 17342 bound_to 10162
  140.1817  143.4109  152.1928 LP  0  0  0  0  0  0  0  0  0  0  0  0  # atno 17343 bound_to 10162
  156.1310  130.3643  149.9732 LP  0  0  0  0  0  0  0  0  0  0  0  0  # atno 17370 bound_to 10713
  156.7793  130.9215  151.3646 LP  0  0  0  0  0  0  0  0  0  0  0  0  # atno 17371 bound_to 10713
  141.2038  133.6634  156.6084 LP  0  0  0  0  0  0  0  0  0  0  0  0  # atno 17394 bound_to 11000
  140.3523  134.7758  157.4475 LP  0  0  0  0  0  0  0  0  0  0  0  0  # atno 17395 bound_to 11000

$$$$
