AV-unprocessed.smi:2399|AV-procd|sdf|9499|dock2
  -GOLD-   2272013133D 1   1.00000     0.00000
 Structure written by MMmdl.
 53 55  0  0  0  0  0  0  0  0  2 V2000
  141.7560  138.3418  155.0777 C   0  0  0  0  0  0  0  0  0  0  0  0
  143.0774  138.4825  154.5772 O   0  0  0  0  0  0  0  0  0  0  0  0
  143.5105  137.5904  153.6156 C   0  0  0  0  0  0  0  0  0  0  0  0
  142.7269  136.5085  153.1389 C   0  0  0  0  0  0  0  0  0  0  0  0
  143.2548  135.6532  152.1562 C   0  0  0  0  0  0  0  0  0  0  0  0
  144.5531  135.9089  151.6809 C   0  0  0  0  0  0  0  0  0  0  0  0
  145.1835  135.0308  150.6206 C   0  0  0  0  0  0  0  0  0  0  0  0
  145.3066  136.9347  152.1250 N   0  0  0  0  0  0  0  0  0  0  0  0
  144.8096  137.7670  153.0732 C   0  0  0  0  0  0  0  0  0  0  0  0
  145.5447  138.8670  153.5946 N   0  0  0  0  0  0  0  0  0  0  0  0
  146.5794  138.8486  154.4523 C   0  0  0  0  0  0  0  0  0  0  0  0
  147.0878  137.8374  154.9379 O   0  0  0  0  0  0  0  0  0  0  0  0
  147.0120  140.0902  154.7171 N   0  0  0  0  0  0  0  0  0  0  0  0
  148.1316  140.4171  155.5949 C   0  0  2  0  0  0  0  0  0  0  0  0
  147.6296  141.1946  156.8193 C   0  0  0  0  0  0  0  0  0  0  0  0
  148.7969  141.6251  157.7234 C   0  0  0  0  0  0  0  0  0  0  0  0
  149.7985  142.4371  156.9769 N   0  3  1  0  0  0  0  0  0  0  0  0
  150.8892  142.9679  157.8457 C   0  0  0  0  0  0  0  0  0  0  0  0
  150.3902  143.7484  159.0699 C   0  0  0  0  0  0  0  0  0  0  0  0
  151.5961  144.5727  159.5244 C   0  0  0  0  0  0  0  0  0  0  0  0
  152.4300  144.8292  158.2628 C   0  0  0  0  0  0  0  0  0  0  0  0
  151.7847  144.0017  157.1440 C   0  0  0  0  0  0  0  0  0  0  0  0
  150.3158  141.6900  155.7966 C   0  0  0  0  0  0  0  0  0  0  0  0
  149.1797  141.2630  154.8539 C   0  0  0  0  0  0  0  0  0  0  0  0
  141.5652  139.1237  155.8127 H   0  0  0  0  0  0  0  0  0  0  0  0
  141.6176  137.3811  155.5755 H   0  0  0  0  0  0  0  0  0  0  0  0
  141.0154  138.4484  154.2840 H   0  0  0  0  0  0  0  0  0  0  0  0
  141.7307  136.3162  153.5072 H   0  0  0  0  0  0  0  0  0  0  0  0
  142.6747  134.8239  151.7793 H   0  0  0  0  0  0  0  0  0  0  0  0
  144.6123  134.1128  150.4781 H   0  0  0  0  0  0  0  0  0  0  0  0
  146.2000  134.7564  150.9048 H   0  0  0  0  0  0  0  0  0  0  0  0
  145.2240  135.5601  149.6684 H   0  0  0  0  0  0  0  0  0  0  0  0
  145.2478  139.7739  153.2657 H   0  0  0  0  0  0  0  0  0  0  0  0
  146.5351  140.8631  154.2760 H   0  0  0  0  0  0  0  0  0  0  0  0
  148.5970  139.4922  155.9424 H   0  0  0  0  0  0  0  0  0  0  0  0
  147.0753  142.0781  156.4986 H   0  0  0  0  0  0  0  0  0  0  0  0
  146.9305  140.5814  157.3897 H   0  0  0  0  0  0  0  0  0  0  0  0
  148.3832  142.1939  158.5551 H   0  0  0  0  0  0  0  0  0  0  0  0
  149.2850  140.7479  158.1514 H   0  0  0  0  0  0  0  0  0  0  0  0
  151.5085  142.1369  158.1890 H   0  0  0  0  0  0  0  0  0  0  0  0
  149.5788  144.4189  158.7826 H   0  0  0  0  0  0  0  0  0  0  0  0
  150.0245  143.1024  159.8687 H   0  0  0  0  0  0  0  0  0  0  0  0
  151.2953  145.4975  160.0177 H   0  0  0  0  0  0  0  0  0  0  0  0
  152.1855  143.9978  160.2397 H   0  0  0  0  0  0  0  0  0  0  0  0
  152.4456  145.8881  158.0019 H   0  0  0  0  0  0  0  0  0  0  0  0
  153.4629  144.5199  158.4271 H   0  0  0  0  0  0  0  0  0  0  0  0
  152.5357  143.5407  156.5017 H   0  0  0  0  0  0  0  0  0  0  0  0
  151.1760  144.6584  156.5202 H   0  0  0  0  0  0  0  0  0  0  0  0
  151.0127  142.3046  155.2282 H   0  0  0  0  0  0  0  0  0  0  0  0
  150.8713  140.8138  156.1348 H   0  0  0  0  0  0  0  0  0  0  0  0
  149.5942  140.7009  154.0161 H   0  0  0  0  0  0  0  0  0  0  0  0
  148.7087  142.1500  154.4274 H   0  0  0  0  0  0  0  0  0  0  0  0
  149.3045  143.2408  156.6161 H   0  0  0  0  0  0  0  0  0  0  0  0
  1  2  1  0  0  0  0
  1 25  1  0  0  0  0
  1 26  1  0  0  0  0
  1 27  1  0  0  0  0
  2  3  1  0  0  0  0
  3  9  1  0  0  0  0
  3  4  2  0  0  0  0
  4  5  1  0  0  0  0
  4 28  1  0  0  0  0
  5  6  2  0  0  0  0
  5 29  1  0  0  0  0
  6  7  1  0  0  0  0
  6  8  1  0  0  0  0
  7 30  1  0  0  0  0
  7 31  1  0  0  0  0
  7 32  1  0  0  0  0
  8  9  2  0  0  0  0
  9 10  1  0  0  0  0
 10 11  1  0  0  0  0
 10 33  1  0  0  0  0
 11 12  2  0  0  0  0
 11 13  1  0  0  0  0
 13 14  1  0  0  0  0
 13 34  1  0  0  0  0
 14 24  1  0  0  0  0
 14 15  1  0  0  0  0
 14 35  1  0  0  0  0
 15 16  1  0  0  0  0
 15 36  1  0  0  0  0
 15 37  1  0  0  0  0
 16 17  1  0  0  0  0
 16 38  1  0  0  0  0
 16 39  1  0  0  0  0
 17 18  1  0  0  0  0
 17 23  1  0  0  0  0
 17 53  1  0  0  0  0
 18 22  1  0  0  0  0
 18 19  1  0  0  0  0
 18 40  1  0  0  0  0
 19 20  1  0  0  0  0
 19 41  1  0  0  0  0
 19 42  1  0  0  0  0
 20 21  1  0  0  0  0
 20 43  1  0  0  0  0
 20 44  1  0  0  0  0
 21 22  1  0  0  0  0
 21 45  1  0  0  0  0
 21 46  1  0  0  0  0
 22 47  1  0  0  0  0
 22 48  1  0  0  0  0
 23 24  1  0  0  0  0
 23 49  1  0  0  0  0
 23 50  1  0  0  0  0
 24 51  1  0  0  0  0
 24 52  1  0  0  0  0
M  CHG  1  17   1
M  END
> <s_m_source_file>
AV-unprocessed.smi

> <i_m_source_file_index>
2399

> <i_lp_mmshare_version>
43012

> <i_f3d_flags>
0

> <s_epik_input>
W0NIM11PYzFbY0hdW2NIXWMoW0NIM10pbmMxW05IXUMoPU8pW05IXVtDSF0yW0NIMl1bQ0gyXU4oW0NIMl1bQ0gyXTIpW0NIXTNbQ0gyXVtDSDJdW0NIMl1bQ0gyXTM=

> <s_epik_cmdline>
J2VwaWtfcHl0aG9uJywgJy1waCcsICc3LjAnLCAnLXRuJywgJzgnLCAnLW1hJywgJzIwMCcsICctbWV0YWxfYmluZGluZycsICctaW1hZScsICc8aW5maWxlLm1hZT4nLCAnLW9tYWUnLCAnPG91dGZpbGUubWFlPic=

> <r_lp_tautomer_probability>
1

> <r_epik_Ionization_Penalty>
0.00183805

> <r_epik_Ionization_Penalty_Charging>
0.00179121

> <r_epik_Ionization_Penalty_Neutral>
4.68398e-05

> <r_epik_State_Penalty>
0.00121448

> <r_epik_Charging_Adjusted_Penalty>
0.0030057

> <i_epik_Tot_Q>
1

> <i_epik_Tot_abs_Q>
1

> <r_epik_Metal_State_Penalty>
-0

> <b_epik_Metal_Only>
0

> <s_lp_Force_Field>
OPLS_2005

> <r_lp_Energy>
41.4811

> <b_lp_Chiralities_Consistent>
1

> <s_lp_Variant>
AV-unprocessed.smi:2399-1

> <Gold.Version>
5.8.1

> <Gold.Id.Protein>
6NUR|6NUR_protein|mol2

> <Gold.PLP.Fitness>
44.2710

> <Gold.PLP.PLP>
-37.3737

> <Gold.PLP.part.hbond>
-2.0000

> <Gold.PLP.part.metal>
0.0000

> <Gold.PLP.part.buried>
-6.1097

> <Gold.PLP.part.nonpolar>
-30.5084

> <Gold.PLP.part.repulsive>
0.8878

> <Gold.PLP.ligand.clash>
0.0000

> <Gold.PLP.ligand.torsion>
0.7616

> <Gold.PLP.Chemscore.Hbond>
2.7840

> <Gold.PLP.Chemscore.CHOScore>
0.0000

> <Gold.PLP.Chemscore.Metal>
0.0000

> <Gold.Chemscore.Hbonds>
donor molecule, donor type, donor heavy atom, donor atom, acceptor molecule, acceptor atom, score
      L1  H    10    33       P1 10175  0.70
      L1  H    17    53       P1  8028  2.00

> <Gold.PLP.Chemscore.Internal.Correction>
0.0686

> <Gold.Rescore>
     Score         DG    S(hbond)    S(metal)    S(lipo)     H(rot)  DE(clash)    DE(int)     intcor
     18.59     -19.68       1.73        0.00     102.15       1.38       0.27       0.83       ----

> <Gold.Chemscore.Fitness>
18.5878

> <Gold.Chemscore.DG>
-19.6849

> <Gold.Chemscore.ZeroCoef>
-5.4800

> <Gold.Chemscore.Hbond>
1.7345

> <Gold.Chemscore.Metal>
0.0000

> <Gold.Chemscore.Lipo>
102.1495

> <Gold.Chemscore.Internal_Hbond>
0.0000

> <Gold.Chemscore.DEClash>
0.2717

> <Gold.Chemscore.DEInternal>
0.8254

> <Gold.Chemscore.Rot>
1.3828

> <Gold.Chemscore.Internal.Correction>
   9.000000E+99

> <Gold.Chemscore.Hbonds>
donor molecule, donor type, donor heavy atom, donor atom, acceptor molecule, acceptor atom, score
      L1  H    10    33       P1 10175  0.72
      L1  H    17    53       P1  8028  1.00

> <Gold.Chemscore.Hbond.Weighted>
-5.7933

> <Gold.Chemscore.Metal.Weighted>
-0.0000

> <Gold.Chemscore.Lipo.Weighted>
-11.9515

> <Gold.Chemscore.Internal_Hbond.Weighted>
0.0000

> <Gold.Chemscore.DEClash.Weighted>
0.2717

> <Gold.Chemscore.DEInternal.Weighted>
0.8254

> <Gold.Chemscore.Rot.Weighted>
3.5399

> <Gold.Chemscore.Internal.Correction.Weighted>
   9.000000E+99

> <Gold.Protein.RotatedTorsions>
[ 6907 6896 6895 6894 ] final  127.71 input  -60.11 | X-H torsion
[ 7974 7965 7964 7962 ] final   56.14 input  175.53 | X-H torsion
[ 8008 7997 7996 7995 ] final  134.94 input   59.86 | X-H torsion
[ 10167 10162 10161 10158 ] final -106.33 input  -65.29 | X-H torsion
[ 10718 10713 10712 10709 ] final -173.34 input   66.30 | X-H torsion
[ 10763 10752 10751 10750 ] final  151.35 input  -60.55 | X-H torsion
[ 11005 11000 10999 10996 ] final   11.33 input  -57.11 | X-H torsion

> <Gold.Protein.ActiveResidues>
 VAL166  LYS551  ARG553  GLY616  TRP617  ASP618  TYR619  PRO620  LYS621  CYS622 
 ASP623  PHE694  ASN695  SER759  ASP760  ASP761  ALA762  ILE779  LEU786  VAL792 
 PHE793  MET794  SER795  GLU796  ALA797  LYS798  CYS799  TRP800  GLU811  SER814 

> <Gold.Protein.RotatedAtoms>
  152.3787  133.6516  159.6143 H   0  0  0  0  0  0  0  0  0  0  0  0  # atno 6907 bound_to 6896
  150.7724  133.9150  159.3389 H   0  0  0  0  0  0  0  0  0  0  0  0  # atno 6908 bound_to 6896
  151.6960  135.0939  160.0293 H   0  0  0  0  0  0  0  0  0  0  0  0  # atno 6909 bound_to 6896
  145.9429  139.3904  143.0352 H   0  0  0  0  0  0  0  0  0  0  0  0  # atno 7974 bound_to 7965
  156.3001  140.2483  156.3500 H   0  0  0  0  0  0  0  0  0  0  0  0  # atno 8008 bound_to 7997
  154.8975  140.0407  157.1893 H   0  0  0  0  0  0  0  0  0  0  0  0  # atno 8009 bound_to 7997
  154.8535  140.2909  155.5588 H   0  0  0  0  0  0  0  0  0  0  0  0  # atno 8010 bound_to 7997
  140.1889  143.3908  152.1222 H   0  0  0  0  0  0  0  0  0  0  0  0  # atno 10167 bound_to 10162
  156.7688  130.9441  151.3119 H   0  0  0  0  0  0  0  0  0  0  0  0  # atno 10718 bound_to 10713
  154.1023  135.2845  155.3249 H   0  0  0  0  0  0  0  0  0  0  0  0  # atno 10763 bound_to 10752
  154.6547  135.5356  153.7947 H   0  0  0  0  0  0  0  0  0  0  0  0  # atno 10764 bound_to 10752
  153.0374  135.6519  154.1186 H   0  0  0  0  0  0  0  0  0  0  0  0  # atno 10765 bound_to 10752
  140.5044  134.0714  155.7802 H   0  0  0  0  0  0  0  0  0  0  0  0  # atno 11005 bound_to 11000
  145.8275  140.9647  143.0866 LP  0  0  0  0  0  0  0  0  0  0  0  0  # atno 17320 bound_to 7965
  144.6782  140.0120  143.7484 LP  0  0  0  0  0  0  0  0  0  0  0  0  # atno 17321 bound_to 7965
  139.5264  144.7107  151.5213 LP  0  0  0  0  0  0  0  0  0  0  0  0  # atno 17342 bound_to 10162
  140.6469  143.8775  150.6746 LP  0  0  0  0  0  0  0  0  0  0  0  0  # atno 17343 bound_to 10162
  157.6700  130.9043  150.0019 LP  0  0  0  0  0  0  0  0  0  0  0  0  # atno 17370 bound_to 10713
  156.1291  130.3644  149.9761 LP  0  0  0  0  0  0  0  0  0  0  0  0  # atno 17371 bound_to 10713
  141.1418  133.9124  157.2307 LP  0  0  0  0  0  0  0  0  0  0  0  0  # atno 17394 bound_to 11000
  139.9695  135.0132  156.9474 LP  0  0  0  0  0  0  0  0  0  0  0  0  # atno 17395 bound_to 11000

$$$$
