AV-unprocessed.smi:3156|AV-procd|sdf|12034|dock1
  -GOLD-   2272017453D 1   1.00000     0.00000
 Structure written by MMmdl.
 41 42  0  0  0  0  0  0  0  0  2 V2000
  149.2077  141.5505  154.4323 C   0  0  0  0  0  0  0  0  0  0  0  0
  150.1589  141.3590  155.6284 C   0  0  1  0  0  0  0  0  0  0  0  0
  149.7495  142.2394  156.7476 N   0  3  0  0  0  0  0  0  0  0  0  0
  150.4697  142.0365  158.0226 C   0  0  0  0  0  0  0  0  0  0  0  0
  150.8099  143.3786  158.6897 C   0  0  2  0  0  0  0  0  0  0  0  0
  152.1045  144.0167  158.1414 C   0  0  0  0  0  0  0  0  0  0  0  0
  152.4186  145.3178  158.8876 C   0  0  0  0  0  0  0  0  0  0  0  0
  152.4250  145.0567  160.3977 C   0  0  0  0  0  0  0  0  0  0  0  0
  151.1139  144.3805  160.8306 C   0  0  0  0  0  0  0  0  0  0  0  0
  150.9182  143.1748  160.0971 O   0  0  0  0  0  0  0  0  0  0  0  0
  150.2163  139.8851  156.1167 C   0  0  1  0  0  0  0  0  0  0  0  0
  148.8459  139.1833  156.0901 C   0  0  0  0  0  0  0  0  0  0  0  0
  151.1807  139.0985  155.3533 N   0  0  0  0  0  0  0  0  0  0  0  0
  152.5413  139.2982  155.2377 C   0  0  0  0  0  0  0  0  0  0  0  0
  153.0323  138.3153  154.4272 C   0  0  0  0  0  0  0  0  0  0  0  0
  151.8848  137.5395  154.1031 C   0  0  0  0  0  0  0  0  0  0  0  0
  150.7804  138.0074  154.6610 N   0  0  0  0  0  0  0  0  0  0  0  0
  149.5283  140.9721  153.5665 H   0  0  0  0  0  0  0  0  0  0  0  0
  149.1703  142.5918  154.1127 H   0  0  0  0  0  0  0  0  0  0  0  0
  148.1910  141.2438  154.6803 H   0  0  0  0  0  0  0  0  0  0  0  0
  151.1636  141.6498  155.3172 H   0  0  0  0  0  0  0  0  0  0  0  0
  149.8258  143.2062  156.4654 H   0  0  0  0  0  0  0  0  0  0  0  0
  149.8548  141.4447  158.7018 H   0  0  0  0  0  0  0  0  0  0  0  0
  151.3825  141.4691  157.8406 H   0  0  0  0  0  0  0  0  0  0  0  0
  149.9778  144.0606  158.5055 H   0  0  0  0  0  0  0  0  0  0  0  0
  152.9437  143.3296  158.2563 H   0  0  0  0  0  0  0  0  0  0  0  0
  152.0076  144.2128  157.0730 H   0  0  0  0  0  0  0  0  0  0  0  0
  153.3801  145.7190  158.5657 H   0  0  0  0  0  0  0  0  0  0  0  0
  151.6672  146.0710  158.6477 H   0  0  0  0  0  0  0  0  0  0  0  0
  153.2685  144.4153  160.6558 H   0  0  0  0  0  0  0  0  0  0  0  0
  152.5652  145.9915  160.9413 H   0  0  0  0  0  0  0  0  0  0  0  0
  151.1489  144.1431  161.8939 H   0  0  0  0  0  0  0  0  0  0  0  0
  150.2648  145.0496  160.6826 H   0  0  0  0  0  0  0  0  0  0  0  0
  150.5644  139.8870  157.1509 H   0  0  0  0  0  0  0  0  0  0  0  0
  148.1395  139.6469  156.7779 H   0  0  0  0  0  0  0  0  0  0  0  0
  148.9377  138.1381  156.3872 H   0  0  0  0  0  0  0  0  0  0  0  0
  148.4058  139.2053  155.0925 H   0  0  0  0  0  0  0  0  0  0  0  0
  153.0423  140.1169  155.7336 H   0  0  0  0  0  0  0  0  0  0  0  0
  154.0565  138.1684  154.1181 H   0  0  0  0  0  0  0  0  0  0  0  0
  151.8222  136.6561  153.4847 H   0  0  0  0  0  0  0  0  0  0  0  0
  148.7769  142.0382  156.9323 H   0  0  0  0  0  0  0  0  0  0  0  0
  1  2  1  0  0  0  0
  1 18  1  0  0  0  0
  1 19  1  0  0  0  0
  1 20  1  0  0  0  0
  2  3  1  0  0  0  0
  2 11  1  0  0  0  0
  2 21  1  0  0  0  0
  3  4  1  0  0  0  0
  3 22  1  0  0  0  0
  3 41  1  0  0  0  0
  4  5  1  0  0  0  0
  4 23  1  0  0  0  0
  4 24  1  0  0  0  0
  5 10  1  0  0  0  0
  5  6  1  0  0  0  0
  5 25  1  0  0  0  0
  6  7  1  0  0  0  0
  6 26  1  0  0  0  0
  6 27  1  0  0  0  0
  7  8  1  0  0  0  0
  7 28  1  0  0  0  0
  7 29  1  0  0  0  0
  8  9  1  0  0  0  0
  8 30  1  0  0  0  0
  8 31  1  0  0  0  0
  9 10  1  0  0  0  0
  9 32  1  0  0  0  0
  9 33  1  0  0  0  0
 11 12  1  0  0  0  0
 11 13  1  0  0  0  0
 11 34  1  0  0  0  0
 12 35  1  0  0  0  0
 12 36  1  0  0  0  0
 12 37  1  0  0  0  0
 13 17  1  0  0  0  0
 13 14  1  0  0  0  0
 14 15  2  0  0  0  0
 14 38  1  0  0  0  0
 15 16  1  0  0  0  0
 15 39  1  0  0  0  0
 16 17  2  0  0  0  0
 16 40  1  0  0  0  0
M  CHG  1   3   1
M  END
> <s_m_source_file>
AV-unprocessed.smi

> <i_m_source_file_index>
3156

> <i_lp_mmshare_version>
43012

> <i_f3d_flags>
0

> <s_epik_input>
bjFbY0hdW2NIXVtjSF1uMVtDQEBIXShbQ0gzXSlbQ0BIXShbQ0gzXSlbTkhdW0NIMl1bQ0BASF0yW0NIMl1bQ0gyXVtDSDJdW0NIMl1PMg==

> <s_epik_cmdline>
J2VwaWtfcHl0aG9uJywgJy1waCcsICc3LjAnLCAnLXRuJywgJzgnLCAnLW1hJywgJzIwMCcsICctbWV0YWxfYmluZGluZycsICctaW1hZScsICc8aW5maWxlLm1hZT4nLCAnLW9tYWUnLCAnPG91dGZpbGUubWFlPic=

> <r_lp_tautomer_probability>
1

> <r_epik_Ionization_Penalty>
0.00658015

> <r_epik_Ionization_Penalty_Charging>
0.00656881

> <r_epik_Ionization_Penalty_Neutral>
1.13431e-05

> <r_epik_State_Penalty>
0.0048654

> <r_epik_Charging_Adjusted_Penalty>
0.0114342

> <i_epik_Tot_Q>
1

> <i_epik_Tot_abs_Q>
1

> <r_epik_Metal_State_Penalty>
-0

> <b_epik_Metal_Only>
0

> <s_lp_Force_Field>
OPLS_2005

> <r_lp_Energy>
18.8572

> <b_lp_Chiralities_Consistent>
1

> <s_lp_Variant>
AV-unprocessed.smi:3156-6

> <Gold.Version>
5.8.1

> <Gold.Id.Protein>
6NUR|6NUR_protein|mol2

> <Gold.PLP.Fitness>
43.2014

> <Gold.PLP.PLP>
-36.4797

> <Gold.PLP.part.hbond>
-2.0000

> <Gold.PLP.part.metal>
0.0000

> <Gold.PLP.part.buried>
-0.5117

> <Gold.PLP.part.nonpolar>
-33.2322

> <Gold.PLP.part.repulsive>
0.2528

> <Gold.PLP.ligand.clash>
0.0000

> <Gold.PLP.ligand.torsion>
1.1923

> <Gold.PLP.Chemscore.Hbond>
2.0000

> <Gold.PLP.Chemscore.CHOScore>
1.0000

> <Gold.PLP.Chemscore.Metal>
0.0000

> <Gold.Chemscore.Hbonds>
donor molecule, donor type, donor heavy atom, donor atom, acceptor molecule, acceptor atom, score
      L1  H     3    22       P1  8028  1.82
      L1  C    16    40       P1  7949  1.00

> <Gold.PLP.Chemscore.Internal.Correction>
0.1064

> <Gold.Rescore>
     Score         DG    S(hbond)    S(metal)    S(lipo)     H(rot)  DE(clash)    DE(int)     intcor
     15.46     -17.80       0.94        0.00     113.37       1.59       1.37       0.97       ----

> <Gold.Chemscore.Fitness>
15.4643

> <Gold.Chemscore.DG>
-17.8037

> <Gold.Chemscore.ZeroCoef>
-5.4800

> <Gold.Chemscore.Hbond>
0.9399

> <Gold.Chemscore.Metal>
0.0000

> <Gold.Chemscore.Lipo>
113.3735

> <Gold.Chemscore.Internal_Hbond>
0.0000

> <Gold.Chemscore.DEClash>
1.3680

> <Gold.Chemscore.DEInternal>
0.9714

> <Gold.Chemscore.Rot>
1.5938

> <Gold.Chemscore.Internal.Correction>
   9.000000E+99

> <Gold.Chemscore.Hbonds>
donor molecule, donor type, donor heavy atom, donor atom, acceptor molecule, acceptor atom, score
      L1  H     3    22       P1  8028  0.89

> <Gold.Chemscore.Hbond.Weighted>
-3.1393

> <Gold.Chemscore.Metal.Weighted>
-0.0000

> <Gold.Chemscore.Lipo.Weighted>
-13.2647

> <Gold.Chemscore.Internal_Hbond.Weighted>
0.0000

> <Gold.Chemscore.DEClash.Weighted>
1.3680

> <Gold.Chemscore.DEInternal.Weighted>
0.9714

> <Gold.Chemscore.Rot.Weighted>
4.0802

> <Gold.Chemscore.Internal.Correction.Weighted>
   9.000000E+99

> <Gold.Protein.RotatedTorsions>
[ 6907 6896 6895 6894 ] final   87.67 input  -60.11 | X-H torsion
[ 7974 7965 7964 7962 ] final  -85.26 input  175.53 | X-H torsion
[ 8008 7997 7996 7995 ] final -103.53 input   59.86 | X-H torsion
[ 10167 10162 10161 10158 ] final   69.32 input  -65.29 | X-H torsion
[ 10718 10713 10712 10709 ] final  151.31 input   66.30 | X-H torsion
[ 10763 10752 10751 10750 ] final -169.92 input  -60.55 | X-H torsion
[ 11005 11000 10999 10996 ] final   23.56 input  -57.11 | X-H torsion

> <Gold.Protein.ActiveResidues>
 VAL166  LYS551  ARG553  GLY616  TRP617  ASP618  TYR619  PRO620  LYS621  CYS622 
 ASP623  PHE694  ASN695  SER759  ASP760  ASP761  ALA762  ILE779  LEU786  VAL792 
 PHE793  MET794  SER795  GLU796  ALA797  LYS798  CYS799  TRP800  GLU811  SER814 

> <Gold.Protein.RotatedAtoms>
  152.5414  134.2240  159.8798 H   0  0  0  0  0  0  0  0  0  0  0  0  # atno 6907 bound_to 6896
  151.2215  133.4493  159.2608 H   0  0  0  0  0  0  0  0  0  0  0  0  # atno 6908 bound_to 6896
  151.0801  134.9866  159.8407 H   0  0  0  0  0  0  0  0  0  0  0  0  # atno 6909 bound_to 6896
  145.4957  140.9550  143.1787 H   0  0  0  0  0  0  0  0  0  0  0  0  # atno 7974 bound_to 7965
  154.8723  140.0422  157.1732 H   0  0  0  0  0  0  0  0  0  0  0  0  # atno 8008 bound_to 7997
  154.8726  140.2960  155.5451 H   0  0  0  0  0  0  0  0  0  0  0  0  # atno 8009 bound_to 7997
  156.2999  140.2426  156.3717 H   0  0  0  0  0  0  0  0  0  0  0  0  # atno 8010 bound_to 7997
  140.0691  144.5168  150.7240 H   0  0  0  0  0  0  0  0  0  0  0  0  # atno 10167 bound_to 10162
  157.2723  131.0819  151.1591 H   0  0  0  0  0  0  0  0  0  0  0  0  # atno 10718 bound_to 10713
  154.6471  135.2906  155.0032 H   0  0  0  0  0  0  0  0  0  0  0  0  # atno 10763 bound_to 10752
  154.1138  135.6558  153.4894 H   0  0  0  0  0  0  0  0  0  0  0  0  # atno 10764 bound_to 10752
  153.0357  135.5271  154.7363 H   0  0  0  0  0  0  0  0  0  0  0  0  # atno 10765 bound_to 10752
  140.3683  134.2050  155.7668 H   0  0  0  0  0  0  0  0  0  0  0  0  # atno 11005 bound_to 11000
  144.7808  139.6529  143.7155 LP  0  0  0  0  0  0  0  0  0  0  0  0  # atno 17320 bound_to 7965
  146.2257  139.5718  142.9589 LP  0  0  0  0  0  0  0  0  0  0  0  0  # atno 17321 bound_to 7965
  140.7134  143.2524  151.4509 LP  0  0  0  0  0  0  0  0  0  0  0  0  # atno 17342 bound_to 10162
  139.5847  144.1631  152.2013 LP  0  0  0  0  0  0  0  0  0  0  0  0  # atno 17343 bound_to 10162
  157.3058  130.6865  149.6188 LP  0  0  0  0  0  0  0  0  0  0  0  0  # atno 17370 bound_to 10713
  155.9663  130.4378  150.5192 LP  0  0  0  0  0  0  0  0  0  0  0  0  # atno 17371 bound_to 10713
  141.1963  133.8086  157.0679 LP  0  0  0  0  0  0  0  0  0  0  0  0  # atno 17394 bound_to 11000
  140.0572  134.9774  157.1241 LP  0  0  0  0  0  0  0  0  0  0  0  0  # atno 17395 bound_to 11000

$$$$
