AV-unprocessed.smi:2138|AV-procd|sdf|8711|dock2
  -GOLD-   2272011473D 1   1.00000     0.00000
 Structure written by MMmdl.
 46 47  0  0  0  0  0  0  0  0  1 V2000
  148.2213  126.9787  151.4651 C   0  0  0  0  0  0  0  0  0  0  0  0
  147.5874  127.1981  152.7130 O   0  0  0  0  0  0  0  0  0  0  0  0
  146.4315  128.0108  152.5987 C   0  0  0  0  0  0  0  0  0  0  0  0
  146.8518  129.4828  152.6157 C   0  0  0  0  0  0  0  0  0  0  0  0
  147.5176  129.7540  153.8454 O   0  0  0  0  0  0  0  0  0  0  0  0
  148.0551  131.0100  154.0408 C   0  0  0  0  0  0  0  0  0  0  0  0
  148.7432  131.2693  155.2425 C   0  0  0  0  0  0  0  0  0  0  0  0
  149.2998  132.5465  155.4487 C   0  0  0  0  0  0  0  0  0  0  0  0
  149.1435  133.5320  154.4437 C   0  0  0  0  0  0  0  0  0  0  0  0
  149.6658  134.8533  154.5099 N   0  0  0  0  0  0  0  0  0  0  0  0
  150.4121  135.4327  155.4688 C   0  0  0  0  0  0  0  0  0  0  0  0
  150.7631  134.8860  156.5141 O   0  0  0  0  0  0  0  0  0  0  0  0
  150.8221  136.8902  155.2009 C   0  0  1  0  0  0  0  0  0  0  0  0
  149.6015  137.7791  154.8964 C   0  0  0  0  0  0  0  0  0  0  0  0
  149.5211  138.7190  156.0878 C   0  0  0  0  0  0  0  0  0  0  0  0
  148.6009  139.5225  156.2316 O   0  0  0  0  0  0  0  0  0  0  0  0
  150.5569  138.5373  156.9202 N   0  0  0  0  0  0  0  0  0  0  0  0
  150.8387  139.2382  158.1794 C   0  0  0  0  0  0  0  0  0  0  0  0
  150.9667  140.7565  157.9653 C   0  0  0  0  0  0  0  0  0  0  0  0
  152.0683  138.6477  158.8911 C   0  0  0  0  0  0  0  0  0  0  0  0
  151.4973  137.5436  156.4252 C   0  0  0  0  0  0  0  0  0  0  0  0
  148.4416  133.1680  153.2757 C   0  0  0  0  0  0  0  0  0  0  0  0
  147.9070  131.9459  153.0714 N   0  0  0  0  0  0  0  0  0  0  0  0
  149.0991  126.3480  151.6061 H   0  0  0  0  0  0  0  0  0  0  0  0
  148.5499  127.9181  151.0188 H   0  0  0  0  0  0  0  0  0  0  0  0
  147.5530  126.4738  150.7661 H   0  0  0  0  0  0  0  0  0  0  0  0
  145.9024  127.7841  151.6718 H   0  0  0  0  0  0  0  0  0  0  0  0
  145.7500  127.8085  153.4266 H   0  0  0  0  0  0  0  0  0  0  0  0
  147.5168  129.6834  151.7739 H   0  0  0  0  0  0  0  0  0  0  0  0
  145.9703  130.1177  152.5102 H   0  0  0  0  0  0  0  0  0  0  0  0
  148.8478  130.4990  155.9924 H   0  0  0  0  0  0  0  0  0  0  0  0
  149.8391  132.7303  156.3638 H   0  0  0  0  0  0  0  0  0  0  0  0
  149.4149  135.4501  153.7349 H   0  0  0  0  0  0  0  0  0  0  0  0
  151.5107  136.9167  154.3545 H   0  0  0  0  0  0  0  0  0  0  0  0
  149.7556  138.3594  153.9862 H   0  0  0  0  0  0  0  0  0  0  0  0
  148.6687  137.2234  154.7864 H   0  0  0  0  0  0  0  0  0  0  0  0
  149.9832  139.0807  158.8380 H   0  0  0  0  0  0  0  0  0  0  0  0
  151.0728  141.2749  158.9184 H   0  0  0  0  0  0  0  0  0  0  0  0
  150.0825  141.1584  157.4689 H   0  0  0  0  0  0  0  0  0  0  0  0
  151.8351  141.0108  157.3573 H   0  0  0  0  0  0  0  0  0  0  0  0
  152.2060  139.1038  159.8718 H   0  0  0  0  0  0  0  0  0  0  0  0
  152.9845  138.8122  158.3237 H   0  0  0  0  0  0  0  0  0  0  0  0
  151.9560  137.5737  159.0420 H   0  0  0  0  0  0  0  0  0  0  0  0
  151.7423  136.8248  157.2096 H   0  0  0  0  0  0  0  0  0  0  0  0
  152.4242  138.0402  156.1354 H   0  0  0  0  0  0  0  0  0  0  0  0
  148.3023  133.8805  152.4758 H   0  0  0  0  0  0  0  0  0  0  0  0
  1  2  1  0  0  0  0
  1 24  1  0  0  0  0
  1 25  1  0  0  0  0
  1 26  1  0  0  0  0
  2  3  1  0  0  0  0
  3  4  1  0  0  0  0
  3 27  1  0  0  0  0
  3 28  1  0  0  0  0
  4  5  1  0  0  0  0
  4 29  1  0  0  0  0
  4 30  1  0  0  0  0
  5  6  1  0  0  0  0
  6 23  1  0  0  0  0
  6  7  2  0  0  0  0
  7  8  1  0  0  0  0
  7 31  1  0  0  0  0
  8  9  2  0  0  0  0
  8 32  1  0  0  0  0
  9 10  1  0  0  0  0
  9 22  1  0  0  0  0
 10 11  1  0  0  0  0
 10 33  1  0  0  0  0
 11 12  2  0  0  0  0
 11 13  1  0  0  0  0
 13 21  1  0  0  0  0
 13 14  1  0  0  0  0
 13 34  1  0  0  0  0
 14 15  1  0  0  0  0
 14 35  1  0  0  0  0
 14 36  1  0  0  0  0
 15 16  2  0  0  0  0
 15 17  1  0  0  0  0
 17 18  1  0  0  0  0
 17 21  1  0  0  0  0
 18 19  1  0  0  0  0
 18 20  1  0  0  0  0
 18 37  1  0  0  0  0
 19 38  1  0  0  0  0
 19 39  1  0  0  0  0
 19 40  1  0  0  0  0
 20 41  1  0  0  0  0
 20 42  1  0  0  0  0
 20 43  1  0  0  0  0
 21 44  1  0  0  0  0
 21 45  1  0  0  0  0
 22 23  2  0  0  0  0
 22 46  1  0  0  0  0
M  END
> <s_m_source_file>
AV-unprocessed.smi

> <i_m_source_file_index>
2138

> <i_lp_mmshare_version>
43012

> <i_f3d_flags>
0

> <s_epik_input>
W0NIM11PW0NIMl1bQ0gyXU9jMVtjSF1bY0hdYyhbY0hdbjEpW05IXUMoPU8pW0NAQEhdMltDSDJdQyg9TylOKFtDSDJdMilbQ0hdKFtDSDNdKVtDSDNd

> <s_epik_cmdline>
J2VwaWtfcHl0aG9uJywgJy1waCcsICc3LjAnLCAnLXRuJywgJzgnLCAnLW1hJywgJzIwMCcsICctbWV0YWxfYmluZGluZycsICctaW1hZScsICc8aW5maWxlLm1hZT4nLCAnLW9tYWUnLCAnPG91dGZpbGUubWFlPic=

> <r_lp_tautomer_probability>
1

> <r_epik_Ionization_Penalty>
1.72652e-05

> <r_epik_Ionization_Penalty_Charging>
0

> <r_epik_Ionization_Penalty_Neutral>
1.72652e-05

> <r_epik_State_Penalty>
-0

> <r_epik_Charging_Adjusted_Penalty>
0

> <i_epik_Tot_Q>
0

> <i_epik_Tot_abs_Q>
0

> <r_epik_Metal_State_Penalty>
-0

> <b_epik_Metal_Only>
0

> <s_lp_Force_Field>
OPLS_2005

> <r_lp_Energy>
21.5992

> <b_lp_Chiralities_Consistent>
1

> <s_lp_Variant>
AV-unprocessed.smi:2138-2

> <Gold.Version>
5.8.1

> <Gold.Id.Protein>
6NUR|6NUR_protein|mol2

> <Gold.PLP.Fitness>
41.7474

> <Gold.PLP.PLP>
-34.0149

> <Gold.PLP.part.hbond>
-2.2894

> <Gold.PLP.part.metal>
0.0000

> <Gold.PLP.part.buried>
-3.1333

> <Gold.PLP.part.nonpolar>
-28.2718

> <Gold.PLP.part.repulsive>
0.3898

> <Gold.PLP.ligand.clash>
0.0000

> <Gold.PLP.ligand.torsion>
0.2704

> <Gold.PLP.Chemscore.Hbond>
1.7280

> <Gold.PLP.Chemscore.CHOScore>
0.9611

> <Gold.PLP.Chemscore.Metal>
0.0000

> <Gold.Chemscore.Hbonds>
donor molecule, donor type, donor heavy atom, donor atom, acceptor molecule, acceptor atom, score
      L1  H    10    33       P1  7948  0.96
      L1  C    22    46       P1  7948  0.54

> <Gold.PLP.Chemscore.Internal.Correction>
0.2061

> <Gold.Rescore>
     Score         DG    S(hbond)    S(metal)    S(lipo)     H(rot)  DE(clash)    DE(int)     intcor
     12.22     -13.79       1.44        0.00      73.64       2.00       0.01       1.57       ----

> <Gold.Chemscore.Fitness>
12.2169

> <Gold.Chemscore.DG>
-13.7917

> <Gold.Chemscore.ZeroCoef>
-5.4800

> <Gold.Chemscore.Hbond>
1.4446

> <Gold.Chemscore.Metal>
0.0000

> <Gold.Chemscore.Lipo>
73.6395

> <Gold.Chemscore.Internal_Hbond>
0.0000

> <Gold.Chemscore.DEClash>
0.0088

> <Gold.Chemscore.DEInternal>
1.5660

> <Gold.Chemscore.Rot>
2.0035

> <Gold.Chemscore.Internal.Correction>
   9.000000E+99

> <Gold.Chemscore.Hbonds>
donor molecule, donor type, donor heavy atom, donor atom, acceptor molecule, acceptor atom, score
      L1  H    10    33       P1  7948  0.27

> <Gold.Chemscore.Hbond.Weighted>
-4.8249

> <Gold.Chemscore.Metal.Weighted>
-0.0000

> <Gold.Chemscore.Lipo.Weighted>
-8.6158

> <Gold.Chemscore.Internal_Hbond.Weighted>
0.0000

> <Gold.Chemscore.DEClash.Weighted>
0.0088

> <Gold.Chemscore.DEInternal.Weighted>
1.5660

> <Gold.Chemscore.Rot.Weighted>
5.1290

> <Gold.Chemscore.Internal.Correction.Weighted>
   9.000000E+99

> <Gold.Protein.RotatedTorsions>
[ 6907 6896 6895 6894 ] final  178.91 input  -60.11 | X-H torsion
[ 7974 7965 7964 7962 ] final   -5.38 input  175.53 | X-H torsion
[ 8008 7997 7996 7995 ] final -154.79 input   59.86 | X-H torsion
[ 10167 10162 10161 10158 ] final   92.64 input  -65.29 | X-H torsion
[ 10718 10713 10712 10709 ] final   -1.19 input   66.30 | X-H torsion
[ 10763 10752 10751 10750 ] final -144.23 input  -60.55 | X-H torsion
[ 11005 11000 10999 10996 ] final   13.83 input  -57.11 | X-H torsion

> <Gold.Protein.ActiveResidues>
 VAL166  LYS551  ARG553  GLY616  TRP617  ASP618  TYR619  PRO620  LYS621  CYS622 
 ASP623  PHE694  ASN695  SER759  ASP760  ASP761  ALA762  ILE779  LEU786  VAL792 
 PHE793  MET794  SER795  GLU796  ALA797  LYS798  CYS799  TRP800  GLU811  SER814 

> <Gold.Protein.RotatedAtoms>
  151.6802  133.3312  159.3217 H   0  0  0  0  0  0  0  0  0  0  0  0  # atno 6907 bound_to 6896
  150.7826  134.6787  159.6441 H   0  0  0  0  0  0  0  0  0  0  0  0  # atno 6908 bound_to 6896
  152.3888  134.6478  160.0167 H   0  0  0  0  0  0  0  0  0  0  0  0  # atno 6909 bound_to 6896
  146.2354  140.2013  142.8334 H   0  0  0  0  0  0  0  0  0  0  0  0  # atno 7974 bound_to 7965
  155.6918  140.0756  157.2445 H   0  0  0  0  0  0  0  0  0  0  0  0  # atno 8008 bound_to 7997
  154.4087  140.1663  156.2147 H   0  0  0  0  0  0  0  0  0  0  0  0  # atno 8009 bound_to 7997
  155.9445  140.3382  155.6358 H   0  0  0  0  0  0  0  0  0  0  0  0  # atno 8010 bound_to 7997
  139.8257  144.6711  150.9463 H   0  0  0  0  0  0  0  0  0  0  0  0  # atno 10167 bound_to 10162
  156.8093  130.5419  149.5711 H   0  0  0  0  0  0  0  0  0  0  0  0  # atno 10718 bound_to 10713
  154.8437  135.3446  154.6313 H   0  0  0  0  0  0  0  0  0  0  0  0  # atno 10763 bound_to 10752
  153.6923  135.6974  153.5091 H   0  0  0  0  0  0  0  0  0  0  0  0  # atno 10764 bound_to 10752
  153.2586  135.4330  155.0826 H   0  0  0  0  0  0  0  0  0  0  0  0  # atno 10765 bound_to 10752
  140.4763  134.0980  155.7742 H   0  0  0  0  0  0  0  0  0  0  0  0  # atno 11005 bound_to 11000
  144.9780  140.8432  143.5415 LP  0  0  0  0  0  0  0  0  0  0  0  0  # atno 17320 bound_to 7965
  145.2002  139.2256  143.5196 LP  0  0  0  0  0  0  0  0  0  0  0  0  # atno 17321 bound_to 7965
  140.7810  143.4049  151.1088 LP  0  0  0  0  0  0  0  0  0  0  0  0  # atno 17342 bound_to 10162
  139.7706  143.8499  152.3120 LP  0  0  0  0  0  0  0  0  0  0  0  0  # atno 17343 bound_to 10162
  156.1054  130.6000  150.9962 LP  0  0  0  0  0  0  0  0  0  0  0  0  # atno 17370 bound_to 10713
  157.6514  131.0896  150.8043 LP  0  0  0  0  0  0  0  0  0  0  0  0  # atno 17371 bound_to 10713
  141.1553  133.8895  157.1994 LP  0  0  0  0  0  0  0  0  0  0  0  0  # atno 17394 bound_to 11000
  139.9854  135.0084  156.9849 LP  0  0  0  0  0  0  0  0  0  0  0  0  # atno 17395 bound_to 11000

$$$$
