AV-unprocessed.smi:778|AV-procd|sdf|3703|dock2
  -GOLD-   22720 1123D 1   1.00000     0.00000
 Structure written by MMmdl.
 40 41  0  0  0  0  0  0  0  0  1 V2000
  153.8979  135.2835  164.7734 N   0  0  0  0  0  0  0  0  0  0  0  0
  153.8820  136.0762  163.9308 C   0  0  0  0  0  0  0  0  0  0  0  0
  153.8620  137.0742  162.8703 C   0  0  0  0  0  0  0  0  0  0  0  0
  153.1985  136.8099  161.6526 C   0  0  0  0  0  0  0  0  0  0  0  0
  153.1602  137.7126  160.6490 N   0  0  0  0  0  0  0  0  0  0  0  0
  153.7828  138.8738  160.8675 C   0  0  0  0  0  0  0  0  0  0  0  0
  153.7594  140.0924  159.5631 S   0  0  0  0  0  0  0  0  0  0  0  0
  154.0431  141.6514  160.4577 C   0  0  0  0  0  0  0  0  0  0  0  0
  152.7250  142.2720  160.9279 C   0  0  0  0  0  0  0  0  0  0  0  0
  151.7572  142.1013  159.9034 O   0  0  0  0  0  0  0  0  0  0  0  0
  152.1136  142.6347  158.6334 C   0  0  0  0  0  0  0  0  0  0  0  0
  152.9136  143.9543  158.7179 C   0  0  0  0  0  0  0  0  0  0  0  0
  152.2762  145.0656  159.5657 C   0  0  0  0  0  0  0  0  0  0  0  0
  150.8756  145.5032  159.1073 C   0  0  0  0  0  0  0  0  0  0  0  0
  149.7883  144.4785  159.4623 C   0  0  0  0  0  0  0  0  0  0  0  0
  149.5901  143.3396  158.4456 C   0  0  0  0  0  0  0  0  0  0  0  0
  150.8493  142.7662  157.7636 C   0  0  0  0  0  0  0  0  0  0  0  0
  154.4423  139.2375  161.9697 N   0  0  0  0  0  0  0  0  0  0  0  0
  154.4872  138.3423  162.9803 C   0  0  0  0  0  0  0  0  0  0  0  0
  155.1797  138.7405  164.1253 N   0  0  0  0  0  0  0  0  0  0  0  0
  152.6938  135.8706  161.4780 H   0  0  0  0  0  0  0  0  0  0  0  0
  154.6832  141.4553  161.3183 H   0  0  0  0  0  0  0  0  0  0  0  0
  154.5712  142.3516  159.8095 H   0  0  0  0  0  0  0  0  0  0  0  0
  152.4091  141.7958  161.8560 H   0  0  0  0  0  0  0  0  0  0  0  0
  152.8652  143.3344  161.1320 H   0  0  0  0  0  0  0  0  0  0  0  0
  152.7532  141.9077  158.1296 H   0  0  0  0  0  0  0  0  0  0  0  0
  153.9088  143.7501  159.1120 H   0  0  0  0  0  0  0  0  0  0  0  0
  153.0853  144.3320  157.7094 H   0  0  0  0  0  0  0  0  0  0  0  0
  152.2463  144.7605  160.6125 H   0  0  0  0  0  0  0  0  0  0  0  0
  152.9357  145.9333  159.5332 H   0  0  0  0  0  0  0  0  0  0  0  0
  150.6376  146.4353  159.6206 H   0  0  0  0  0  0  0  0  0  0  0  0
  150.8631  145.7373  158.0421 H   0  0  0  0  0  0  0  0  0  0  0  0
  149.9946  144.0594  160.4479 H   0  0  0  0  0  0  0  0  0  0  0  0
  148.8356  144.9980  159.5705 H   0  0  0  0  0  0  0  0  0  0  0  0
  149.0630  142.5296  158.9511 H   0  0  0  0  0  0  0  0  0  0  0  0
  148.9116  143.6795  157.6625 H   0  0  0  0  0  0  0  0  0  0  0  0
  151.0852  143.3648  156.8832 H   0  0  0  0  0  0  0  0  0  0  0  0
  150.5909  141.7809  157.3738 H   0  0  0  0  0  0  0  0  0  0  0  0
  155.2647  138.1362  164.9299 H   0  0  0  0  0  0  0  0  0  0  0  0
  155.6074  139.6532  164.1892 H   0  0  0  0  0  0  0  0  0  0  0  0
  1  2  3  0  0  0  0
  2  3  1  0  0  0  0
  3 19  1  0  0  0  0
  3  4  2  0  0  0  0
  4  5  1  0  0  0  0
  4 21  1  0  0  0  0
  5  6  2  0  0  0  0
  6  7  1  0  0  0  0
  6 18  1  0  0  0  0
  7  8  1  0  0  0  0
  8  9  1  0  0  0  0
  8 22  1  0  0  0  0
  8 23  1  0  0  0  0
  9 10  1  0  0  0  0
  9 24  1  0  0  0  0
  9 25  1  0  0  0  0
 10 11  1  0  0  0  0
 11 17  1  0  0  0  0
 11 12  1  0  0  0  0
 11 26  1  0  0  0  0
 12 13  1  0  0  0  0
 12 27  1  0  0  0  0
 12 28  1  0  0  0  0
 13 14  1  0  0  0  0
 13 29  1  0  0  0  0
 13 30  1  0  0  0  0
 14 15  1  0  0  0  0
 14 31  1  0  0  0  0
 14 32  1  0  0  0  0
 15 16  1  0  0  0  0
 15 33  1  0  0  0  0
 15 34  1  0  0  0  0
 16 17  1  0  0  0  0
 16 35  1  0  0  0  0
 16 36  1  0  0  0  0
 17 37  1  0  0  0  0
 17 38  1  0  0  0  0
 18 19  2  0  0  0  0
 19 20  1  0  0  0  0
 20 39  1  0  0  0  0
 20 40  1  0  0  0  0
M  END
> <s_m_source_file>
AV-unprocessed.smi

> <i_m_source_file_index>
778

> <i_lp_mmshare_version>
43012

> <i_f3d_flags>
0

> <s_epik_input>
TiNDYzFbY0hdbmMobmMxW05IMl0pU1tDSDJdW0NIMl1PW0NIXTJbQ0gyXVtDSDJdW0NIMl1bQ0gyXVtDSDJdW0NIMl0y

> <s_epik_cmdline>
J2VwaWtfcHl0aG9uJywgJy1waCcsICc3LjAnLCAnLXRuJywgJzgnLCAnLW1hJywgJzIwMCcsICctbWV0YWxfYmluZGluZycsICctaW1hZScsICc8aW5maWxlLm1hZT4nLCAnLW9tYWUnLCAnPG91dGZpbGUubWFlPic=

> <r_lp_tautomer_probability>
1

> <r_epik_Ionization_Penalty>
5.1519e-05

> <r_epik_Ionization_Penalty_Charging>
0

> <r_epik_Ionization_Penalty_Neutral>
5.1519e-05

> <r_epik_State_Penalty>
-0

> <r_epik_Charging_Adjusted_Penalty>
0

> <i_epik_Tot_Q>
0

> <i_epik_Tot_abs_Q>
0

> <r_epik_Metal_State_Penalty>
-0

> <b_epik_Metal_Only>
0

> <s_lp_Force_Field>
OPLS_2005

> <r_lp_Energy>
14.4265

> <b_lp_Chiralities_Consistent>
1

> <s_lp_Variant>
AV-unprocessed.smi:778-1

> <Gold.Version>
5.8.1

> <Gold.Id.Protein>
6NUR|6NUR_protein|mol2

> <Gold.PLP.Fitness>
39.7306

> <Gold.PLP.PLP>
-41.2905

> <Gold.PLP.part.hbond>
0.0000

> <Gold.PLP.part.metal>
0.0000

> <Gold.PLP.part.buried>
-5.9705

> <Gold.PLP.part.nonpolar>
-35.8708

> <Gold.PLP.part.repulsive>
0.1213

> <Gold.PLP.ligand.clash>
0.0000

> <Gold.PLP.ligand.torsion>
0.7982

> <Gold.PLP.Chemscore.Hbond>
0.0000

> <Gold.PLP.Chemscore.CHOScore>
0.0000

> <Gold.PLP.Chemscore.Metal>
0.0000

> <Gold.PLP.Chemscore.Internal.Correction>
0.0366

> <Gold.Rescore>
     Score         DG    S(hbond)    S(metal)    S(lipo)     H(rot)  DE(clash)    DE(int)     intcor
     12.42     -13.29       0.00        0.00     116.08       2.26       0.15       0.72       ----

> <Gold.Chemscore.Fitness>
12.4178

> <Gold.Chemscore.DG>
-13.2858

> <Gold.Chemscore.ZeroCoef>
-5.4800

> <Gold.Chemscore.Hbond>
0.0000

> <Gold.Chemscore.Metal>
0.0000

> <Gold.Chemscore.Lipo>
116.0832

> <Gold.Chemscore.Internal_Hbond>
0.0000

> <Gold.Chemscore.DEClash>
0.1491

> <Gold.Chemscore.DEInternal>
0.7190

> <Gold.Chemscore.Rot>
2.2562

> <Gold.Chemscore.Internal.Correction>
   9.000000E+99

> <Gold.Chemscore.Hbond.Weighted>
-0.0000

> <Gold.Chemscore.Metal.Weighted>
-0.0000

> <Gold.Chemscore.Lipo.Weighted>
-13.5817

> <Gold.Chemscore.Internal_Hbond.Weighted>
0.0000

> <Gold.Chemscore.DEClash.Weighted>
0.1491

> <Gold.Chemscore.DEInternal.Weighted>
0.7190

> <Gold.Chemscore.Rot.Weighted>
5.7759

> <Gold.Chemscore.Internal.Correction.Weighted>
   9.000000E+99

> <Gold.Protein.RotatedTorsions>
[ 6907 6896 6895 6894 ] final   29.00 input  -60.11 | X-H torsion
[ 7974 7965 7964 7962 ] final  111.67 input  175.53 | X-H torsion
[ 8008 7997 7996 7995 ] final  -93.12 input   59.86 | X-H torsion
[ 10167 10162 10161 10158 ] final   68.88 input  -65.29 | X-H torsion
[ 10718 10713 10712 10709 ] final -177.18 input   66.30 | X-H torsion
[ 10763 10752 10751 10750 ] final -126.96 input  -60.55 | X-H torsion
[ 11005 11000 10999 10996 ] final   80.54 input  -57.11 | X-H torsion

> <Gold.Protein.ActiveResidues>
 VAL166  LYS551  ARG553  GLY616  TRP617  ASP618  TYR619  PRO620  LYS621  CYS622 
 ASP623  PHE694  ASN695  SER759  ASP760  ASP761  ALA762  ILE779  LEU786  VAL792 
 PHE793  MET794  SER795  GLU796  ALA797  LYS798  CYS799  TRP800  GLU811  SER814 

> <Gold.Protein.RotatedAtoms>
  152.0251  134.9800  160.0571 H   0  0  0  0  0  0  0  0  0  0  0  0  # atno 6907 bound_to 6896
  152.1299  133.4397  159.4724 H   0  0  0  0  0  0  0  0  0  0  0  0  # atno 6908 bound_to 6896
  150.6855  134.2351  159.4493 H   0  0  0  0  0  0  0  0  0  0  0  0  # atno 6909 bound_to 6896
  145.2393  139.2785  143.4126 H   0  0  0  0  0  0  0  0  0  0  0  0  # atno 7974 bound_to 7965
  154.7317  140.0502  157.0732 H   0  0  0  0  0  0  0  0  0  0  0  0  # atno 8008 bound_to 7997
  155.0293  140.3156  155.4745 H   0  0  0  0  0  0  0  0  0  0  0  0  # atno 8009 bound_to 7997
  156.2843  140.2153  156.5413 H   0  0  0  0  0  0  0  0  0  0  0  0  # atno 8010 bound_to 7997
  140.0738  144.5130  150.7209 H   0  0  0  0  0  0  0  0  0  0  0  0  # atno 10167 bound_to 10162
  156.8256  130.9635  151.3109 H   0  0  0  0  0  0  0  0  0  0  0  0  # atno 10718 bound_to 10713
  154.8749  135.3978  154.3516 H   0  0  0  0  0  0  0  0  0  0  0  0  # atno 10763 bound_to 10752
  153.4301  135.7025  153.6242 H   0  0  0  0  0  0  0  0  0  0  0  0  # atno 10764 bound_to 10752
  153.4867  135.3757  155.2440 H   0  0  0  0  0  0  0  0  0  0  0  0  # atno 10765 bound_to 10752
  139.9131  134.7928  156.1923 H   0  0  0  0  0  0  0  0  0  0  0  0  # atno 11005 bound_to 11000
  146.3332  140.2752  142.8607 LP  0  0  0  0  0  0  0  0  0  0  0  0  # atno 17320 bound_to 7965
  144.9604  140.8269  143.5517 LP  0  0  0  0  0  0  0  0  0  0  0  0  # atno 17321 bound_to 7965
  140.7112  143.2507  151.4575 LP  0  0  0  0  0  0  0  0  0  0  0  0  # atno 17342 bound_to 10162
  139.5820  144.1689  152.1980 LP  0  0  0  0  0  0  0  0  0  0  0  0  # atno 17343 bound_to 10162
  157.6434  130.8824  149.9491 LP  0  0  0  0  0  0  0  0  0  0  0  0  # atno 17370 bound_to 10713
  156.0963  130.3659  150.0299 LP  0  0  0  0  0  0  0  0  0  0  0  0  # atno 17371 bound_to 10713
  141.0576  133.6857  156.1891 LP  0  0  0  0  0  0  0  0  0  0  0  0  # atno 17394 bound_to 11000
  140.6712  134.4866  157.5587 LP  0  0  0  0  0  0  0  0  0  0  0  0  # atno 17395 bound_to 11000

$$$$
