AV-unprocessed.smi:3238|AV-procd|sdf|12376|dock4
  -GOLD-   2272018233D 1   1.00000     0.00000
 Structure written by MMmdl.
 37 39  0  0  0  0  0  0  0  0  1 V2000
  146.7425  138.8976  152.2489 C   0  0  0  0  0  0  0  0  0  0  0  0
  147.6379  139.9638  152.6713 N   0  0  0  0  0  0  0  0  0  0  0  0
  147.6263  140.5213  153.8908 C   0  0  0  0  0  0  0  0  0  0  0  0
  146.8482  140.1702  154.7796 O   0  0  0  0  0  0  0  0  0  0  0  0
  148.6573  141.6332  154.1270 C   0  0  0  0  0  0  0  0  0  0  0  0
  149.7840  141.1942  155.0109 C   0  0  0  0  0  0  0  0  0  0  0  0
  150.5929  140.2023  154.6560 N   0  0  0  0  0  0  0  0  0  0  0  0
  151.4916  140.1171  155.7289 O   0  0  0  0  0  0  0  0  0  0  0  0
  151.1101  141.0745  156.6081 C   0  0  0  0  0  0  0  0  0  0  0  0
  151.9031  141.2675  157.8591 C   0  0  0  0  0  0  0  0  0  0  0  0
  151.4194  142.4580  158.7120 C   0  0  1  0  0  0  0  0  0  0  0  0
  152.3517  142.7513  159.9099 C   0  0  0  0  0  0  0  0  0  0  0  0
  152.6996  144.2401  159.7286 C   0  0  2  0  0  0  0  0  0  0  0  0
  151.4535  145.0983  160.0137 C   0  0  0  0  0  0  0  0  0  0  0  0
  150.5651  144.8218  158.7860 C   0  0  0  0  0  0  0  0  0  0  0  0
  151.4083  143.8195  157.9746 C   0  0  1  0  0  0  0  0  0  0  0  0
  152.8194  144.3479  158.2142 C   0  0  0  0  0  0  0  0  0  0  0  0
  150.0627  141.7892  156.2046 N   0  0  0  0  0  0  0  0  0  0  0  0
  146.9354  138.6412  151.2074 H   0  0  0  0  0  0  0  0  0  0  0  0
  145.7002  139.2073  152.3358 H   0  0  0  0  0  0  0  0  0  0  0  0
  146.8917  138.0027  152.8542 H   0  0  0  0  0  0  0  0  0  0  0  0
  148.3086  140.2988  151.9950 H   0  0  0  0  0  0  0  0  0  0  0  0
  149.0523  141.9625  153.1650 H   0  0  0  0  0  0  0  0  0  0  0  0
  148.1663  142.4959  154.5797 H   0  0  0  0  0  0  0  0  0  0  0  0
  151.8354  140.3490  158.4433 H   0  0  0  0  0  0  0  0  0  0  0  0
  152.9541  141.3829  157.5929 H   0  0  0  0  0  0  0  0  0  0  0  0
  150.4183  142.2248  159.0784 H   0  0  0  0  0  0  0  0  0  0  0  0
  151.8701  142.5532  160.8682 H   0  0  0  0  0  0  0  0  0  0  0  0
  153.2578  142.1451  159.8663 H   0  0  0  0  0  0  0  0  0  0  0  0
  153.5838  144.5529  160.2845 H   0  0  0  0  0  0  0  0  0  0  0  0
  150.9683  144.8228  160.9509 H   0  0  0  0  0  0  0  0  0  0  0  0
  151.7130  146.1563  160.0687 H   0  0  0  0  0  0  0  0  0  0  0  0
  149.5876  144.4223  159.0586 H   0  0  0  0  0  0  0  0  0  0  0  0
  150.4023  145.7388  158.2181 H   0  0  0  0  0  0  0  0  0  0  0  0
  151.1100  143.7649  156.9279 H   0  0  0  0  0  0  0  0  0  0  0  0
  152.9642  145.3713  157.8636 H   0  0  0  0  0  0  0  0  0  0  0  0
  153.6024  143.7142  157.7951 H   0  0  0  0  0  0  0  0  0  0  0  0
  1  2  1  0  0  0  0
  1 19  1  0  0  0  0
  1 20  1  0  0  0  0
  1 21  1  0  0  0  0
  2  3  1  0  0  0  0
  2 22  1  0  0  0  0
  3  4  2  0  0  0  0
  3  5  1  0  0  0  0
  5  6  1  0  0  0  0
  5 23  1  0  0  0  0
  5 24  1  0  0  0  0
  6 18  1  0  0  0  0
  6  7  2  0  0  0  0
  7  8  1  0  0  0  0
  8  9  1  0  0  0  0
  9 10  1  0  0  0  0
  9 18  2  0  0  0  0
 10 11  1  0  0  0  0
 10 25  1  0  0  0  0
 10 26  1  0  0  0  0
 11 16  1  0  0  0  0
 11 12  1  0  0  0  0
 11 27  1  0  0  0  0
 12 13  1  0  0  0  0
 12 28  1  0  0  0  0
 12 29  1  0  0  0  0
 13 17  1  0  0  0  0
 13 14  1  0  0  0  0
 13 30  1  0  0  0  0
 14 15  1  0  0  0  0
 14 31  1  0  0  0  0
 14 32  1  0  0  0  0
 15 16  1  0  0  0  0
 15 33  1  0  0  0  0
 15 34  1  0  0  0  0
 16 17  1  0  0  0  0
 16 35  1  0  0  0  0
 17 36  1  0  0  0  0
 17 37  1  0  0  0  0
M  END
> <s_m_source_file>
AV-unprocessed.smi

> <i_m_source_file_index>
3238

> <i_lp_mmshare_version>
43012

> <i_f3d_flags>
0

> <s_epik_input>
W0NIM11bTkhdQyg9TylbQ0gyXWMxbm9jKG4xKVtDSDJdW0NASF0oW0NIMl1bQ0BIXTIzKVtDQEhdKFtDSDJdMylbQ0gyXVtDSDJdMg==

> <s_epik_cmdline>
J2VwaWtfcHl0aG9uJywgJy1waCcsICc3LjAnLCAnLXRuJywgJzgnLCAnLW1hJywgJzIwMCcsICctbWV0YWxfYmluZGluZycsICctaW1hZScsICc8aW5maWxlLm1hZT4nLCAnLW9tYWUnLCAnPG91dGZpbGUubWFlPic=

> <r_lp_tautomer_probability>
1

> <r_epik_Ionization_Penalty>
1.02915e-07

> <r_epik_Ionization_Penalty_Charging>
0

> <r_epik_Ionization_Penalty_Neutral>
1.02915e-07

> <r_epik_State_Penalty>
-0

> <r_epik_Charging_Adjusted_Penalty>
0

> <i_epik_Tot_Q>
0

> <i_epik_Tot_abs_Q>
0

> <r_epik_Metal_State_Penalty>
-0

> <b_epik_Metal_Only>
0

> <s_lp_Force_Field>
OPLS_2005

> <r_lp_Energy>
47.9986

> <b_lp_Chiralities_Consistent>
1

> <s_lp_Variant>
AV-unprocessed.smi:3238-2

> <Gold.Version>
5.8.1

> <Gold.Id.Protein>
6NUR|6NUR_protein|mol2

> <Gold.PLP.Fitness>
48.3693

> <Gold.PLP.PLP>
-42.7295

> <Gold.PLP.part.hbond>
-1.9639

> <Gold.PLP.part.metal>
0.0000

> <Gold.PLP.part.buried>
-4.5352

> <Gold.PLP.part.nonpolar>
-36.3079

> <Gold.PLP.part.repulsive>
0.3500

> <Gold.PLP.ligand.clash>
0.0000

> <Gold.PLP.ligand.torsion>
0.1756

> <Gold.PLP.Chemscore.Hbond>
1.9920

> <Gold.PLP.Chemscore.CHOScore>
0.0000

> <Gold.PLP.Chemscore.Metal>
0.0000

> <Gold.Chemscore.Hbonds>
donor molecule, donor type, donor heavy atom, donor atom, acceptor molecule, acceptor atom, score
      L1  H     2    22       P1  7957  0.99
      P1  H  7989  7998       L1     7  0.95

> <Gold.PLP.Chemscore.Internal.Correction>
0.0150

> <Gold.Rescore>
     Score         DG    S(hbond)    S(metal)    S(lipo)     H(rot)  DE(clash)    DE(int)     intcor
     15.86     -17.29       1.32        0.00     103.87       1.85       0.10       1.33       ----

> <Gold.Chemscore.Fitness>
15.8555

> <Gold.Chemscore.DG>
-17.2925

> <Gold.Chemscore.ZeroCoef>
-5.4800

> <Gold.Chemscore.Hbond>
1.3155

> <Gold.Chemscore.Metal>
0.0000

> <Gold.Chemscore.Lipo>
103.8693

> <Gold.Chemscore.Internal_Hbond>
0.0000

> <Gold.Chemscore.DEClash>
0.1036

> <Gold.Chemscore.DEInternal>
1.3334

> <Gold.Chemscore.Rot>
1.8492

> <Gold.Chemscore.Internal.Correction>
   9.000000E+99

> <Gold.Chemscore.Hbonds>
donor molecule, donor type, donor heavy atom, donor atom, acceptor molecule, acceptor atom, score
      L1  H     2    22       P1  7957  0.89
      P1  H  7989  7998       L1     7  0.11

> <Gold.Chemscore.Hbond.Weighted>
-4.3937

> <Gold.Chemscore.Metal.Weighted>
-0.0000

> <Gold.Chemscore.Lipo.Weighted>
-12.1527

> <Gold.Chemscore.Internal_Hbond.Weighted>
0.0000

> <Gold.Chemscore.DEClash.Weighted>
0.1036

> <Gold.Chemscore.DEInternal.Weighted>
1.3334

> <Gold.Chemscore.Rot.Weighted>
4.7340

> <Gold.Chemscore.Internal.Correction.Weighted>
   9.000000E+99

> <Gold.Protein.RotatedTorsions>
[ 6907 6896 6895 6894 ] final -120.46 input  -60.11 | X-H torsion
[ 7974 7965 7964 7962 ] final   49.05 input  175.53 | X-H torsion
[ 8008 7997 7996 7995 ] final  -76.62 input   59.86 | X-H torsion
[ 10167 10162 10161 10158 ] final  157.19 input  -65.29 | X-H torsion
[ 10718 10713 10712 10709 ] final -102.93 input   66.30 | X-H torsion
[ 10763 10752 10751 10750 ] final  -36.04 input  -60.55 | X-H torsion
[ 11005 11000 10999 10996 ] final -132.04 input  -57.11 | X-H torsion

> <Gold.Protein.ActiveResidues>
 VAL166  LYS551  ARG553  GLY616  TRP617  ASP618  TYR619  PRO620  LYS621  CYS622 
 ASP623  PHE694  ASN695  SER759  ASP760  ASP761  ALA762  ILE779  LEU786  VAL792 
 PHE793  MET794  SER795  GLU796  ALA797  LYS798  CYS799  TRP800  GLU811  SER814 

> <Gold.Protein.RotatedAtoms>
  150.8395  133.7959  159.3066 H   0  0  0  0  0  0  0  0  0  0  0  0  # atno 6907 bound_to 6896
  151.5664  135.1062  159.9994 H   0  0  0  0  0  0  0  0  0  0  0  0  # atno 6908 bound_to 6896
  152.4461  133.7497  159.6743 H   0  0  0  0  0  0  0  0  0  0  0  0  # atno 6909 bound_to 6896
  146.0146  139.4582  142.9935 H   0  0  0  0  0  0  0  0  0  0  0  0  # atno 7974 bound_to 7965
  154.5521  140.0724  156.8685 H   0  0  0  0  0  0  0  0  0  0  0  0  # atno 8008 bound_to 7997
  155.2972  140.3382  155.4231 H   0  0  0  0  0  0  0  0  0  0  0  0  # atno 8009 bound_to 7997
  156.1970  140.1707  156.7963 H   0  0  0  0  0  0  0  0  0  0  0  0  # atno 8010 bound_to 7997
  139.4822  144.4940  151.8267 H   0  0  0  0  0  0  0  0  0  0  0  0  # atno 10167 bound_to 10162
  156.0246  130.5443  150.7180 H   0  0  0  0  0  0  0  0  0  0  0  0  # atno 10718 bound_to 10713
  153.8731  135.6829  153.4773 H   0  0  0  0  0  0  0  0  0  0  0  0  # atno 10763 bound_to 10752
  153.1276  135.4712  154.9295 H   0  0  0  0  0  0  0  0  0  0  0  0  # atno 10764 bound_to 10752
  154.7705  135.3237  154.8151 H   0  0  0  0  0  0  0  0  0  0  0  0  # atno 10765 bound_to 10752
  140.9206  134.1450  157.4317 H   0  0  0  0  0  0  0  0  0  0  0  0  # atno 11005 bound_to 11000
  145.7289  141.0049  143.1362 LP  0  0  0  0  0  0  0  0  0  0  0  0  # atno 17320 bound_to 7965
  144.6966  139.8960  143.7456 LP  0  0  0  0  0  0  0  0  0  0  0  0  # atno 17321 bound_to 7965
  140.4426  144.1965  150.5892 LP  0  0  0  0  0  0  0  0  0  0  0  0  # atno 17342 bound_to 10162
  140.4667  143.2428  151.9145 LP  0  0  0  0  0  0  0  0  0  0  0  0  # atno 17343 bound_to 10162
  157.4802  131.0901  151.0545 LP  0  0  0  0  0  0  0  0  0  0  0  0  # atno 17370 bound_to 10713
  157.0980  130.5970  149.5454 LP  0  0  0  0  0  0  0  0  0  0  0  0  # atno 17371 bound_to 10713
  139.8774  134.9970  156.5822 LP  0  0  0  0  0  0  0  0  0  0  0  0  # atno 17394 bound_to 11000
  140.7993  133.8518  155.8713 LP  0  0  0  0  0  0  0  0  0  0  0  0  # atno 17395 bound_to 11000

$$$$
