AV-unprocessed.smi:2641|AV-procd|sdf|10273|dock4
  -GOLD-   2272014283D 1   1.00000     0.00000
 Structure written by MMmdl.
 40 41  0  0  0  0  0  0  0  0  3 V2000
  146.2478  133.3950  151.9272 C   0  0  0  0  0  0  0  0  0  0  0  0
  146.8873  133.1978  153.2854 C   0  0  0  0  0  0  0  0  0  0  0  0
  146.3092  132.3790  154.2792 C   0  0  0  0  0  0  0  0  0  0  0  0
  146.9598  132.2436  155.5233 C   0  0  0  0  0  0  0  0  0  0  0  0
  148.1746  132.9282  155.7489 C   0  0  0  0  0  0  0  0  0  0  0  0
  148.8980  132.8042  157.0780 C   0  0  0  0  0  0  0  0  0  0  0  0
  147.9605  133.1614  158.2330 C   0  0  0  0  0  0  0  0  0  0  0  0
  147.0123  132.4202  158.4870 O   0  0  0  0  0  0  0  0  0  0  0  0
  148.2618  134.2944  158.8948 N   0  0  0  0  0  0  0  0  0  0  0  0
  147.6423  134.9579  160.0537 C   0  0  0  0  0  0  0  0  0  0  0  0
  148.4795  136.2458  160.2635 C   0  0  0  0  0  0  0  0  0  0  0  0
  149.5555  136.3516  159.6328 O   0  0  0  0  0  0  0  0  0  0  0  0
  148.0639  137.0872  161.0912 O   0  5  0  0  0  0  0  0  0  0  0  0
  146.1773  135.2966  159.6538 C   0  0  0  0  0  0  0  0  0  0  0  0
  145.3707  135.9638  160.7858 C   0  0  0  0  0  0  0  0  0  0  0  0
  145.3705  135.0997  162.0548 C   0  0  0  0  0  0  0  0  0  0  0  0
  146.8019  134.7653  162.4978 C   0  0  0  0  0  0  0  0  0  0  0  0
  147.5950  134.0972  161.3572 C   0  0  0  0  0  0  0  0  0  0  0  0
  148.7048  133.7334  154.7176 C   0  0  0  0  0  0  0  0  0  0  0  0
  148.0508  133.8378  153.5402 N   0  3  0  0  0  0  0  0  0  0  0  0
  145.3635  132.7671  151.8142 H   0  0  0  0  0  0  0  0  0  0  0  0
  146.9502  133.1382  151.1336 H   0  0  0  0  0  0  0  0  0  0  0  0
  145.9462  134.4348  151.7981 H   0  0  0  0  0  0  0  0  0  0  0  0
  145.3789  131.8614  154.0947 H   0  0  0  0  0  0  0  0  0  0  0  0
  146.5281  131.6238  156.2958 H   0  0  0  0  0  0  0  0  0  0  0  0
  149.2595  131.7841  157.2130 H   0  0  0  0  0  0  0  0  0  0  0  0
  149.7770  133.4511  157.0776 H   0  0  0  0  0  0  0  0  0  0  0  0
  149.0877  134.7717  158.5639 H   0  0  0  0  0  0  0  0  0  0  0  0
  146.1487  135.9302  158.7662 H   0  0  0  0  0  0  0  0  0  0  0  0
  145.6678  134.3763  159.3644 H   0  0  0  0  0  0  0  0  0  0  0  0
  145.7828  136.9477  161.0123 H   0  0  0  0  0  0  0  0  0  0  0  0
  144.3454  136.1337  160.4563 H   0  0  0  0  0  0  0  0  0  0  0  0
  144.8425  135.6154  162.8573 H   0  0  0  0  0  0  0  0  0  0  0  0
  144.8223  134.1758  161.8667 H   0  0  0  0  0  0  0  0  0  0  0  0
  147.3067  135.6732  162.8292 H   0  0  0  0  0  0  0  0  0  0  0  0
  146.7731  134.1019  163.3625 H   0  0  0  0  0  0  0  0  0  0  0  0
  147.1106  133.1432  161.1457 H   0  0  0  0  0  0  0  0  0  0  0  0
  148.5985  133.8537  161.7095 H   0  0  0  0  0  0  0  0  0  0  0  0
  149.6237  134.2958  154.8000 H   0  0  0  0  0  0  0  0  0  0  0  0
  148.4531  134.4272  152.8111 H   0  0  0  0  0  0  0  0  0  0  0  0
  1  2  1  0  0  0  0
  1 21  1  0  0  0  0
  1 22  1  0  0  0  0
  1 23  1  0  0  0  0
  2 20  1  0  0  0  0
  2  3  2  0  0  0  0
  3  4  1  0  0  0  0
  3 24  1  0  0  0  0
  4  5  2  0  0  0  0
  4 25  1  0  0  0  0
  5  6  1  0  0  0  0
  5 19  1  0  0  0  0
  6  7  1  0  0  0  0
  6 26  1  0  0  0  0
  6 27  1  0  0  0  0
  7  8  2  0  0  0  0
  7  9  1  0  0  0  0
  9 10  1  0  0  0  0
  9 28  1  0  0  0  0
 10 18  1  0  0  0  0
 10 11  1  0  0  0  0
 10 14  1  0  0  0  0
 11 12  2  0  0  0  0
 11 13  1  0  0  0  0
 14 15  1  0  0  0  0
 14 29  1  0  0  0  0
 14 30  1  0  0  0  0
 15 16  1  0  0  0  0
 15 31  1  0  0  0  0
 15 32  1  0  0  0  0
 16 17  1  0  0  0  0
 16 33  1  0  0  0  0
 16 34  1  0  0  0  0
 17 18  1  0  0  0  0
 17 35  1  0  0  0  0
 17 36  1  0  0  0  0
 18 37  1  0  0  0  0
 18 38  1  0  0  0  0
 19 20  2  0  0  0  0
 19 39  1  0  0  0  0
 20 40  1  0  0  0  0
M  CHG  1  13  -1
M  CHG  1  20   1
M  END
> <s_m_source_file>
AV-unprocessed.smi

> <i_m_source_file_index>
2641

> <i_lp_mmshare_version>
43012

> <i_f3d_flags>
0

> <s_epik_input>
W0NIM11jMVtjSF1bY0hdYyhbY0hdbjEpW0NIMl1DKD1PKVtOSF1DMihDKD1PKVtPSF0pW0NIMl1bQ0gyXVtDSDJdW0NIMl1bQ0gyXTI=

> <s_epik_cmdline>
J2VwaWtfcHl0aG9uJywgJy1waCcsICc3LjAnLCAnLXRuJywgJzgnLCAnLW1hJywgJzIwMCcsICctbWV0YWxfYmluZGluZycsICctaW1hZScsICc8aW5maWxlLm1hZT4nLCAnLW9tYWUnLCAnPG91dGZpbGUubWFlPic=

> <r_epik_Ionization_Penalty>
2.05743

> <r_epik_Ionization_Penalty_Charging>
2.05743

> <r_epik_Ionization_Penalty_Neutral>
6.51537e-08

> <r_epik_State_Penalty>
2.19002

> <r_epik_Charging_Adjusted_Penalty>
4.24745

> <i_epik_Tot_Q>
0

> <i_epik_Tot_abs_Q>
2

> <r_epik_Metal_State_Penalty>
2.2083

> <b_epik_Metal_Only>
0

> <s_lp_Force_Field>
OPLS_2005

> <r_lp_Energy>
7.8147

> <b_lp_Chiralities_Consistent>
1

> <s_lp_Variant>
AV-unprocessed.smi:2641-2

> <Gold.Version>
5.8.1

> <Gold.Id.Protein>
6NUR|6NUR_protein|mol2

> <Gold.PLP.Fitness>
45.1305

> <Gold.PLP.PLP>
-23.8510

> <Gold.PLP.part.hbond>
-4.0000

> <Gold.PLP.part.metal>
0.0000

> <Gold.PLP.part.buried>
-3.6683

> <Gold.PLP.part.nonpolar>
-16.6365

> <Gold.PLP.part.repulsive>
0.0868

> <Gold.PLP.ligand.clash>
0.0000

> <Gold.PLP.ligand.torsion>
0.2557

> <Gold.PLP.Chemscore.Hbond>
7.2461

> <Gold.PLP.Chemscore.CHOScore>
0.0000

> <Gold.PLP.Chemscore.Metal>
0.0000

> <Gold.Chemscore.Hbonds>
donor molecule, donor type, donor heavy atom, donor atom, acceptor molecule, acceptor atom, score
      L1  H    20    40       P1  7948  1.70
      P1  H  6896  6907       L1    12  2.00
      P1  H  6931  6943       L1    13  2.00
      P1  H  6934  6947       L1    13  1.10

> <Gold.PLP.Chemscore.Internal.Correction>
0.0525

> <Gold.Rescore>
     Score         DG    S(hbond)    S(metal)    S(lipo)     H(rot)  DE(clash)    DE(int)     intcor
     16.25     -18.93       3.60        0.00      54.09       1.91       0.00       2.68       ----

> <Gold.Chemscore.Fitness>
16.2486

> <Gold.Chemscore.DG>
-18.9333

> <Gold.Chemscore.ZeroCoef>
-5.4800

> <Gold.Chemscore.Hbond>
3.6008

> <Gold.Chemscore.Metal>
0.0000

> <Gold.Chemscore.Lipo>
54.0939

> <Gold.Chemscore.Internal_Hbond>
0.0000

> <Gold.Chemscore.DEClash>
0.0000

> <Gold.Chemscore.DEInternal>
2.6847

> <Gold.Chemscore.Rot>
1.9149

> <Gold.Chemscore.Internal.Correction>
   9.000000E+99

> <Gold.Chemscore.Hbonds>
donor molecule, donor type, donor heavy atom, donor atom, acceptor molecule, acceptor atom, score
      L1  H    20    40       P1  7948  0.16
      P1  H  6896  6907       L1    12  0.94
      P1  H  6931  6943       L1    13  0.96
      P1  H  6934  6947       L1    13  0.54

> <Gold.Chemscore.Hbond.Weighted>
-12.0266

> <Gold.Chemscore.Metal.Weighted>
-0.0000

> <Gold.Chemscore.Lipo.Weighted>
-6.3290

> <Gold.Chemscore.Internal_Hbond.Weighted>
0.0000

> <Gold.Chemscore.DEClash.Weighted>
0.0000

> <Gold.Chemscore.DEInternal.Weighted>
2.6847

> <Gold.Chemscore.Rot.Weighted>
4.9023

> <Gold.Chemscore.Internal.Correction.Weighted>
   9.000000E+99

> <Gold.Protein.RotatedTorsions>
[ 6907 6896 6895 6894 ] final  -49.52 input  -60.11 | X-H torsion
[ 7974 7965 7964 7962 ] final  106.13 input  175.53 | X-H torsion
[ 8008 7997 7996 7995 ] final  -33.68 input   59.86 | X-H torsion
[ 10167 10162 10161 10158 ] final  -92.53 input  -65.29 | X-H torsion
[ 10718 10713 10712 10709 ] final   17.15 input   66.30 | X-H torsion
[ 10763 10752 10751 10750 ] final   67.84 input  -60.55 | X-H torsion
[ 11005 11000 10999 10996 ] final  138.41 input  -57.11 | X-H torsion

> <Gold.Protein.ActiveResidues>
 VAL166  LYS551  ARG553  GLY616  TRP617  ASP618  TYR619  PRO620  LYS621  CYS622 
 ASP623  PHE694  ASN695  SER759  ASP760  ASP761  ALA762  ILE779  LEU786  VAL792 
 PHE793  MET794  SER795  GLU796  ALA797  LYS798  CYS799  TRP800  GLU811  SER814 

> <Gold.Protein.RotatedAtoms>
  150.8797  134.8186  159.7215 H   0  0  0  0  0  0  0  0  0  0  0  0  # atno 6907 bound_to 6896
  152.4770  134.4816  159.9677 H   0  0  0  0  0  0  0  0  0  0  0  0  # atno 6908 bound_to 6896
  151.4892  133.3490  159.2886 H   0  0  0  0  0  0  0  0  0  0  0  0  # atno 6909 bound_to 6896
  145.3106  139.2541  143.3765 H   0  0  0  0  0  0  0  0  0  0  0  0  # atno 7974 bound_to 7965
  154.4142  140.1704  156.1927 H   0  0  0  0  0  0  0  0  0  0  0  0  # atno 8008 bound_to 7997
  155.9590  140.3395  155.6450 H   0  0  0  0  0  0  0  0  0  0  0  0  # atno 8009 bound_to 7997
  155.6773  140.0718  157.2488 H   0  0  0  0  0  0  0  0  0  0  0  0  # atno 8010 bound_to 7997
  140.3339  143.2979  151.9911 H   0  0  0  0  0  0  0  0  0  0  0  0  # atno 10167 bound_to 10162
  157.0780  130.6376  149.5820 H   0  0  0  0  0  0  0  0  0  0  0  0  # atno 10718 bound_to 10713
  153.0205  135.5269  154.7041 H   0  0  0  0  0  0  0  0  0  0  0  0  # atno 10763 bound_to 10752
  154.6142  135.2881  155.0401 H   0  0  0  0  0  0  0  0  0  0  0  0  # atno 10764 bound_to 10752
  154.1411  135.6578  153.4995 H   0  0  0  0  0  0  0  0  0  0  0  0  # atno 10765 bound_to 10752
  140.0182  134.9409  157.0419 H   0  0  0  0  0  0  0  0  0  0  0  0  # atno 11005 bound_to 11000
  146.3119  140.3641  142.8668 LP  0  0  0  0  0  0  0  0  0  0  0  0  # atno 17320 bound_to 7965
  144.9019  140.7652  143.5862 LP  0  0  0  0  0  0  0  0  0  0  0  0  # atno 17321 bound_to 7965
  139.4852  144.6213  151.7250 LP  0  0  0  0  0  0  0  0  0  0  0  0  # atno 17342 bound_to 10162
  140.5372  144.0637  150.6075 LP  0  0  0  0  0  0  0  0  0  0  0  0  # atno 17343 bound_to 10162
  155.9931  130.4991  150.7368 LP  0  0  0  0  0  0  0  0  0  0  0  0  # atno 17370 bound_to 10713
  157.4823  131.0903  151.0522 LP  0  0  0  0  0  0  0  0  0  0  0  0  # atno 17371 bound_to 10713
  140.4434  134.1657  155.7175 LP  0  0  0  0  0  0  0  0  0  0  0  0  # atno 17394 bound_to 11000
  141.1756  133.8520  157.1430 LP  0  0  0  0  0  0  0  0  0  0  0  0  # atno 17395 bound_to 11000

$$$$
