AV-unprocessed.smi:1885|AV-procd|sdf|7653|dock4
  -GOLD-   22720 9383D 1   1.00000     0.00000
 Structure written by MMmdl.
 44 46  0  0  0  0  0  0  0  0  2 V2000
  142.6802  146.8269  153.9838 C   0  0  0  0  0  0  0  0  0  0  0  0
  143.7134  146.1707  153.2634 O   0  0  0  0  0  0  0  0  0  0  0  0
  144.2695  145.0362  153.8150 C   0  0  0  0  0  0  0  0  0  0  0  0
  143.8773  144.4808  155.0589 C   0  0  0  0  0  0  0  0  0  0  0  0
  144.4999  143.3159  155.5482 C   0  0  0  0  0  0  0  0  0  0  0  0
  145.5252  142.6907  154.8105 C   0  0  0  0  0  0  0  0  0  0  0  0
  146.1705  141.4228  155.3391 C   0  0  0  0  0  0  0  0  0  0  0  0
  147.5877  141.4982  155.3489 O   0  0  0  0  0  0  0  0  0  0  0  0
  148.2061  140.2288  155.2181 C   0  0  0  0  0  0  0  0  0  0  0  0
  149.7021  140.4249  154.9111 C   0  0  1  0  0  0  0  0  0  0  0  0
  149.8394  140.7657  153.5472 O   0  0  0  0  0  0  0  0  0  0  0  0
  150.3670  141.5513  155.7277 C   0  0  0  0  0  0  0  0  0  0  0  0
  151.0439  141.0616  156.9374 N   0  0  0  0  0  0  0  0  0  0  0  0
  151.4271  139.7955  157.2574 C   0  0  0  0  0  0  0  0  0  0  0  0
  152.0231  139.8420  158.4808 N   0  3  0  0  0  0  0  0  0  0  0  0
  152.0219  141.1570  158.9506 C   0  0  0  0  0  0  0  0  0  0  0  0
  152.5086  141.7003  160.1352 C   0  0  0  0  0  0  0  0  0  0  0  0
  152.3453  143.0900  160.3112 C   0  0  0  0  0  0  0  0  0  0  0  0
  152.7992  143.6701  161.4474 F   0  0  0  0  0  0  0  0  0  0  0  0
  151.7172  143.8847  159.3291 C   0  0  0  0  0  0  0  0  0  0  0  0
  151.5772  145.2150  159.5391 F   0  0  0  0  0  0  0  0  0  0  0  0
  151.2289  143.3226  158.1312 C   0  0  0  0  0  0  0  0  0  0  0  0
  151.3953  141.9479  157.9639 C   0  0  0  0  0  0  0  0  0  0  0  0
  145.9129  143.2342  153.5685 C   0  0  0  0  0  0  0  0  0  0  0  0
  145.2902  144.3990  153.0802 C   0  0  0  0  0  0  0  0  0  0  0  0
  142.3498  147.7010  153.4229 H   0  0  0  0  0  0  0  0  0  0  0  0
  143.0304  147.1735  154.9573 H   0  0  0  0  0  0  0  0  0  0  0  0
  141.8148  146.1773  154.1210 H   0  0  0  0  0  0  0  0  0  0  0  0
  143.0986  144.9290  155.6571 H   0  0  0  0  0  0  0  0  0  0  0  0
  144.1854  142.9032  156.4955 H   0  0  0  0  0  0  0  0  0  0  0  0
  145.8091  141.2331  156.3513 H   0  0  0  0  0  0  0  0  0  0  0  0
  145.8457  140.5892  154.7148 H   0  0  0  0  0  0  0  0  0  0  0  0
  148.0647  139.6210  156.1135 H   0  0  0  0  0  0  0  0  0  0  0  0
  147.7167  139.7086  154.3949 H   0  0  0  0  0  0  0  0  0  0  0  0
  150.2397  139.4929  155.0914 H   0  0  0  0  0  0  0  0  0  0  0  0
  149.6390  140.0055  153.0229 H   0  0  0  0  0  0  0  0  0  0  0  0
  151.1291  142.0448  155.1228 H   0  0  0  0  0  0  0  0  0  0  0  0
  149.6468  142.3242  155.9957 H   0  0  0  0  0  0  0  0  0  0  0  0
  151.2842  138.9131  156.6499 H   0  0  0  0  0  0  0  0  0  0  0  0
  152.9883  141.0955  160.8905 H   0  0  0  0  0  0  0  0  0  0  0  0
  150.7462  143.9440  157.3922 H   0  0  0  0  0  0  0  0  0  0  0  0
  146.6883  142.7622  152.9834 H   0  0  0  0  0  0  0  0  0  0  0  0
  145.5985  144.8069  152.1286 H   0  0  0  0  0  0  0  0  0  0  0  0
  152.4019  139.0333  158.9570 H   0  0  0  0  0  0  0  0  0  0  0  0
  1  2  1  0  0  0  0
  1 26  1  0  0  0  0
  1 27  1  0  0  0  0
  1 28  1  0  0  0  0
  2  3  1  0  0  0  0
  3 25  1  0  0  0  0
  3  4  2  0  0  0  0
  4  5  1  0  0  0  0
  4 29  1  0  0  0  0
  5  6  2  0  0  0  0
  5 30  1  0  0  0  0
  6  7  1  0  0  0  0
  6 24  1  0  0  0  0
  7  8  1  0  0  0  0
  7 31  1  0  0  0  0
  7 32  1  0  0  0  0
  8  9  1  0  0  0  0
  9 10  1  0  0  0  0
  9 33  1  0  0  0  0
  9 34  1  0  0  0  0
 10 11  1  0  0  0  0
 10 12  1  0  0  0  0
 10 35  1  0  0  0  0
 11 36  1  0  0  0  0
 12 13  1  0  0  0  0
 12 37  1  0  0  0  0
 12 38  1  0  0  0  0
 13 23  1  0  0  0  0
 13 14  1  0  0  0  0
 14 15  2  0  0  0  0
 14 39  1  0  0  0  0
 15 16  1  0  0  0  0
 15 44  1  0  0  0  0
 16 23  2  0  0  0  0
 16 17  1  0  0  0  0
 17 18  2  0  0  0  0
 17 40  1  0  0  0  0
 18 19  1  0  0  0  0
 18 20  1  0  0  0  0
 20 21  1  0  0  0  0
 20 22  2  0  0  0  0
 22 23  1  0  0  0  0
 22 41  1  0  0  0  0
 24 25  2  0  0  0  0
 24 42  1  0  0  0  0
 25 43  1  0  0  0  0
M  CHG  1  15   1
M  END
> <s_m_source_file>
AV-unprocessed.smi

> <i_m_source_file_index>
1885

> <i_lp_mmshare_version>
43012

> <i_f3d_flags>
0

> <s_epik_input>
W0NIM11PYzFbY0hdW2NIXWMoW2NIXVtjSF0xKVtDSDJdT1tDSDJdW0NASF0oW09IXSlbQ0gyXW4oW2NIXW4yKWMoYzIzKVtjSF1jKEYpYyhGKVtjSF0z

> <s_epik_cmdline>
J2VwaWtfcHl0aG9uJywgJy1waCcsICc3LjAnLCAnLXRuJywgJzgnLCAnLW1hJywgJzIwMCcsICctbWV0YWxfYmluZGluZycsICctaW1hZScsICc8aW5maWxlLm1hZT4nLCAnLW9tYWUnLCAnPG91dGZpbGUubWFlPic=

> <r_lp_tautomer_probability>
1

> <r_epik_Ionization_Penalty>
2.14697

> <r_epik_Ionization_Penalty_Charging>
2.14697

> <r_epik_Ionization_Penalty_Neutral>
9.74819e-07

> <r_epik_State_Penalty>
2.28651

> <r_epik_Charging_Adjusted_Penalty>
4.43348

> <i_epik_Tot_Q>
1

> <i_epik_Tot_abs_Q>
1

> <r_epik_Metal_State_Penalty>
6.36664

> <b_epik_Metal_Only>
0

> <s_lp_Force_Field>
OPLS_2005

> <r_lp_Energy>
25.0693

> <b_lp_Chiralities_Consistent>
1

> <s_lp_Variant>
AV-unprocessed.smi:1885-4

> <Gold.Version>
5.8.1

> <Gold.Id.Protein>
6NUR|6NUR_protein|mol2

> <Gold.PLP.Fitness>
60.7112

> <Gold.PLP.PLP>
-57.0401

> <Gold.PLP.part.hbond>
-4.5689

> <Gold.PLP.part.metal>
0.0000

> <Gold.PLP.part.buried>
-7.8545

> <Gold.PLP.part.nonpolar>
-44.4170

> <Gold.PLP.part.repulsive>
0.2758

> <Gold.PLP.ligand.clash>
0.0000

> <Gold.PLP.ligand.torsion>
1.1417

> <Gold.PLP.Chemscore.Hbond>
1.8960

> <Gold.PLP.Chemscore.CHOScore>
0.0000

> <Gold.PLP.Chemscore.Metal>
0.0000

> <Gold.Chemscore.Hbonds>
donor molecule, donor type, donor heavy atom, donor atom, acceptor molecule, acceptor atom, score
      L1  H    11    36       P1  7957  0.45
      P1  H  7989  7998       L1    11  0.38
      P1  H  8011  8017       L1    11  0.98

> <Gold.PLP.Chemscore.Internal.Correction>
0.2664

> <Gold.Rescore>
     Score         DG    S(hbond)    S(metal)    S(lipo)     H(rot)  DE(clash)    DE(int)     intcor
     15.03     -16.36       1.39        0.00     119.49       3.03       0.19       1.15       ----

> <Gold.Chemscore.Fitness>
15.0304

> <Gold.Chemscore.DG>
-16.3632

> <Gold.Chemscore.ZeroCoef>
-5.4800

> <Gold.Chemscore.Hbond>
1.3934

> <Gold.Chemscore.Metal>
0.0000

> <Gold.Chemscore.Lipo>
119.4895

> <Gold.Chemscore.Internal_Hbond>
0.0000

> <Gold.Chemscore.DEClash>
0.1878

> <Gold.Chemscore.DEInternal>
1.1451

> <Gold.Chemscore.Rot>
3.0278

> <Gold.Chemscore.Internal.Correction>
   9.000000E+99

> <Gold.Chemscore.Hbonds>
donor molecule, donor type, donor heavy atom, donor atom, acceptor molecule, acceptor atom, score
      L1  H    11    36       P1  7957  0.46
      P1  H  7989  7998       L1    11  0.04
      P1  H  8011  8017       L1    11  0.58

> <Gold.Chemscore.Hbond.Weighted>
-4.6541

> <Gold.Chemscore.Metal.Weighted>
-0.0000

> <Gold.Chemscore.Lipo.Weighted>
-13.9803

> <Gold.Chemscore.Internal_Hbond.Weighted>
0.0000

> <Gold.Chemscore.DEClash.Weighted>
0.1878

> <Gold.Chemscore.DEInternal.Weighted>
1.1451

> <Gold.Chemscore.Rot.Weighted>
7.7512

> <Gold.Chemscore.Internal.Correction.Weighted>
   9.000000E+99

> <Gold.Protein.RotatedTorsions>
[ 6907 6896 6895 6894 ] final  158.76 input  -60.11 | X-H torsion
[ 7974 7965 7964 7962 ] final -104.94 input  175.53 | X-H torsion
[ 8008 7997 7996 7995 ] final   13.66 input   59.86 | X-H torsion
[ 10167 10162 10161 10158 ] final  -19.97 input  -65.29 | X-H torsion
[ 10718 10713 10712 10709 ] final -108.66 input   66.30 | X-H torsion
[ 10763 10752 10751 10750 ] final   78.63 input  -60.55 | X-H torsion
[ 11005 11000 10999 10996 ] final    5.14 input  -57.11 | X-H torsion

> <Gold.Protein.ActiveResidues>
 VAL166  LYS551  ARG553  GLY616  TRP617  ASP618  TYR619  PRO620  LYS621  CYS622 
 ASP623  PHE694  ASN695  SER759  ASP760  ASP761  ALA762  ILE779  LEU786  VAL792 
 PHE793  MET794  SER795  GLU796  ALA797  LYS798  CYS799  TRP800  GLU811  SER814 

> <Gold.Protein.RotatedAtoms>
  151.9956  133.3807  159.4161 H   0  0  0  0  0  0  0  0  0  0  0  0  # atno 6907 bound_to 6896
  150.6916  134.3889  159.5077 H   0  0  0  0  0  0  0  0  0  0  0  0  # atno 6908 bound_to 6896
  152.1629  134.8897  160.0591 H   0  0  0  0  0  0  0  0  0  0  0  0  # atno 6909 bound_to 6896
  145.2367  140.9190  143.3173 H   0  0  0  0  0  0  0  0  0  0  0  0  # atno 7974 bound_to 7965
  154.8376  140.2909  155.5681 H   0  0  0  0  0  0  0  0  0  0  0  0  # atno 8008 bound_to 7997
  156.3009  140.2520  156.3244 H   0  0  0  0  0  0  0  0  0  0  0  0  # atno 8009 bound_to 7997
  154.9161  140.0387  157.1962 H   0  0  0  0  0  0  0  0  0  0  0  0  # atno 8010 bound_to 7997
  140.7272  143.4767  151.0172 H   0  0  0  0  0  0  0  0  0  0  0  0  # atno 10167 bound_to 10162
  156.0497  130.5724  150.7991 H   0  0  0  0  0  0  0  0  0  0  0  0  # atno 10718 bound_to 10713
  153.0889  135.4870  154.8651 H   0  0  0  0  0  0  0  0  0  0  0  0  # atno 10763 bound_to 10752
  154.7245  135.3046  154.8996 H   0  0  0  0  0  0  0  0  0  0  0  0  # atno 10764 bound_to 10752
  153.9650  135.6808  153.4799 H   0  0  0  0  0  0  0  0  0  0  0  0  # atno 10765 bound_to 10752
  140.5740  134.0075  155.8020 H   0  0  0  0  0  0  0  0  0  0  0  0  # atno 11005 bound_to 11000
  144.9626  139.3963  143.6348 LP  0  0  0  0  0  0  0  0  0  0  0  0  # atno 17320 bound_to 7965
  146.3339  139.8687  142.8844 LP  0  0  0  0  0  0  0  0  0  0  0  0  # atno 17321 bound_to 7965
  139.8463  143.7497  152.3179 LP  0  0  0  0  0  0  0  0  0  0  0  0  # atno 17342 bound_to 10162
  139.7663  144.7491  151.0289 LP  0  0  0  0  0  0  0  0  0  0  0  0  # atno 17343 bound_to 10162
  157.5410  131.0940  150.9828 LP  0  0  0  0  0  0  0  0  0  0  0  0  # atno 17370 bound_to 10713
  157.0111  130.5637  149.5321 LP  0  0  0  0  0  0  0  0  0  0  0  0  # atno 17371 bound_to 10713
  141.1038  133.9726  157.3033 LP  0  0  0  0  0  0  0  0  0  0  0  0  # atno 17394 bound_to 11000
  139.9348  135.0197  156.8520 LP  0  0  0  0  0  0  0  0  0  0  0  0  # atno 17395 bound_to 11000

$$$$
