AV-unprocessed.smi:1220|AV-procd|sdf|5115|dock8
  -GOLD-   22720 4173D 1   1.00000     0.00000
 Structure written by MMmdl.
 35 36  0  0  0  0  0  0  0  0  1 V2000
  150.5842  140.2822  155.9114 C   0  0  0  0  0  0  0  0  0  0  0  0
  151.2129  141.3549  156.8158 C   0  0  1  0  0  0  0  0  0  0  0  0
  150.1653  142.1650  157.6124 C   0  0  0  0  0  0  0  0  0  0  0  0
  150.7444  143.2757  158.3458 N   0  0  0  0  0  0  0  0  0  0  0  0
  150.1027  144.3533  158.9190 C   0  0  0  0  0  0  0  0  0  0  0  0
  151.0599  145.1307  159.5055 C   0  0  0  0  0  0  0  0  0  0  0  0
  152.2716  144.4339  159.2386 C   0  0  0  0  0  0  0  0  0  0  0  0
  152.0790  143.3225  158.5467 N   0  0  0  0  0  0  0  0  0  0  0  0
  152.1565  140.7170  157.7295 N   0  0  0  0  0  0  0  0  0  0  0  0
  151.8444  139.7818  158.6406 C   0  0  0  0  0  0  0  0  0  0  0  0
  150.7006  139.3582  158.8092 O   0  0  0  0  0  0  0  0  0  0  0  0
  153.0036  139.2388  159.4853 C   0  0  2  0  0  0  0  0  0  0  0  0
  153.7302  140.3609  160.2576 C   0  0  0  0  0  0  0  0  0  0  0  0
  155.0450  139.7986  160.8059 C   0  0  0  0  0  0  0  0  0  0  0  0
  155.6322  138.6085  159.5449 S   0  0  0  0  0  0  0  0  0  0  0  0
  156.6330  139.2611  158.6875 O   0  0  0  0  0  0  0  0  0  0  0  0
  155.9165  137.3207  160.1958 O   0  0  0  0  0  0  0  0  0  0  0  0
  154.0482  138.4991  158.6285 C   0  0  0  0  0  0  0  0  0  0  0  0
  149.9359  140.7259  155.1554 H   0  0  0  0  0  0  0  0  0  0  0  0
  149.9867  139.5766  156.4895 H   0  0  0  0  0  0  0  0  0  0  0  0
  151.3521  139.7152  155.3842 H   0  0  0  0  0  0  0  0  0  0  0  0
  151.7674  142.0390  156.1705 H   0  0  0  0  0  0  0  0  0  0  0  0
  149.4035  142.5596  156.9385 H   0  0  0  0  0  0  0  0  0  0  0  0
  149.6455  141.5236  158.3258 H   0  0  0  0  0  0  0  0  0  0  0  0
  149.0313  144.4772  158.8609 H   0  0  0  0  0  0  0  0  0  0  0  0
  150.9166  146.0553  160.0448 H   0  0  0  0  0  0  0  0  0  0  0  0
  153.2781  144.6998  159.5263 H   0  0  0  0  0  0  0  0  0  0  0  0
  153.1212  141.0074  157.6610 H   0  0  0  0  0  0  0  0  0  0  0  0
  152.6143  138.5317  160.2201 H   0  0  0  0  0  0  0  0  0  0  0  0
  153.9584  141.1900  159.5857 H   0  0  0  0  0  0  0  0  0  0  0  0
  153.1110  140.7632  161.0602 H   0  0  0  0  0  0  0  0  0  0  0  0
  155.7994  140.5649  160.9843 H   0  0  0  0  0  0  0  0  0  0  0  0
  154.8745  139.2516  161.7335 H   0  0  0  0  0  0  0  0  0  0  0  0
  153.7908  137.4518  158.4700 H   0  0  0  0  0  0  0  0  0  0  0  0
  154.1929  138.9683  157.6541 H   0  0  0  0  0  0  0  0  0  0  0  0
  1  2  1  0  0  0  0
  1 19  1  0  0  0  0
  1 20  1  0  0  0  0
  1 21  1  0  0  0  0
  2  3  1  0  0  0  0
  2  9  1  0  0  0  0
  2 22  1  0  0  0  0
  3  4  1  0  0  0  0
  3 23  1  0  0  0  0
  3 24  1  0  0  0  0
  4  8  1  0  0  0  0
  4  5  1  0  0  0  0
  5  6  2  0  0  0  0
  5 25  1  0  0  0  0
  6  7  1  0  0  0  0
  6 26  1  0  0  0  0
  7  8  2  0  0  0  0
  7 27  1  0  0  0  0
  9 10  1  0  0  0  0
  9 28  1  0  0  0  0
 10 11  2  0  0  0  0
 10 12  1  0  0  0  0
 12 18  1  0  0  0  0
 12 13  1  0  0  0  0
 12 29  1  0  0  0  0
 13 14  1  0  0  0  0
 13 30  1  0  0  0  0
 13 31  1  0  0  0  0
 14 15  1  0  0  0  0
 14 32  1  0  0  0  0
 14 33  1  0  0  0  0
 15 16  2  0  0  0  0
 15 17  2  0  0  0  0
 15 18  1  0  0  0  0
 18 34  1  0  0  0  0
 18 35  1  0  0  0  0
M  END
> <s_m_source_file>
AV-unprocessed.smi

> <i_m_source_file_index>
1220

> <i_lp_mmshare_version>
43012

> <i_f3d_flags>
0

> <s_epik_input>
bjFbY0hdW2NIXVtjSF1uMVtDSDJdW0NAQEhdKFtDSDNdKVtOSF1DKD1PKVtDQEBIXShbQ0gyXTIpW0NIMl1bQ0gyXVMyKD1PKT1P

> <s_epik_cmdline>
J2VwaWtfcHl0aG9uJywgJy1waCcsICc3LjAnLCAnLXRuJywgJzgnLCAnLW1hJywgJzIwMCcsICctbWV0YWxfYmluZGluZycsICctaW1hZScsICc8aW5maWxlLm1hZT4nLCAnLW9tYWUnLCAnPG91dGZpbGUubWFlPic=

> <r_lp_tautomer_probability>
1

> <r_epik_Ionization_Penalty>
0.000293905

> <r_epik_Ionization_Penalty_Charging>
0

> <r_epik_Ionization_Penalty_Neutral>
0.000293905

> <r_epik_State_Penalty>
-0

> <r_epik_Charging_Adjusted_Penalty>
0

> <i_epik_Tot_Q>
0

> <i_epik_Tot_abs_Q>
0

> <r_epik_Metal_State_Penalty>
-0

> <b_epik_Metal_Only>
0

> <s_lp_Force_Field>
OPLS_2005

> <r_lp_Energy>
2.06683

> <b_lp_Chiralities_Consistent>
1

> <s_lp_Variant>
AV-unprocessed.smi:1220-2

> <Gold.Version>
5.8.1

> <Gold.Id.Protein>
6NUR|6NUR_protein|mol2

> <Gold.PLP.Fitness>
35.5897

> <Gold.PLP.PLP>
-30.0536

> <Gold.PLP.part.hbond>
-1.0000

> <Gold.PLP.part.metal>
0.0000

> <Gold.PLP.part.buried>
-5.1375

> <Gold.PLP.part.nonpolar>
-24.0579

> <Gold.PLP.part.repulsive>
0.1742

> <Gold.PLP.ligand.clash>
0.0000

> <Gold.PLP.ligand.torsion>
0.2408

> <Gold.PLP.Chemscore.Hbond>
1.0000

> <Gold.PLP.Chemscore.CHOScore>
1.0000

> <Gold.PLP.Chemscore.Metal>
0.0000

> <Gold.Chemscore.Hbonds>
donor molecule, donor type, donor heavy atom, donor atom, acceptor molecule, acceptor atom, score
      P1  H  7997  8010       L1    16  1.00
      L1  C     5    25       P1  8029  0.88

> <Gold.PLP.Chemscore.Internal.Correction>
0.0176

> <Gold.Rescore>
     Score         DG    S(hbond)    S(metal)    S(lipo)     H(rot)  DE(clash)    DE(int)     intcor
     12.27     -13.37       0.95        0.00      78.64       1.75       0.01       1.10       ----

> <Gold.Chemscore.Fitness>
12.2714

> <Gold.Chemscore.DG>
-13.3728

> <Gold.Chemscore.ZeroCoef>
-5.4800

> <Gold.Chemscore.Hbond>
0.9467

> <Gold.Chemscore.Metal>
0.0000

> <Gold.Chemscore.Lipo>
78.6361

> <Gold.Chemscore.Internal_Hbond>
0.0000

> <Gold.Chemscore.DEClash>
0.0050

> <Gold.Chemscore.DEInternal>
1.0964

> <Gold.Chemscore.Rot>
1.7460

> <Gold.Chemscore.Internal.Correction>
   9.000000E+99

> <Gold.Chemscore.Hbonds>
donor molecule, donor type, donor heavy atom, donor atom, acceptor molecule, acceptor atom, score
      P1  H  7997  8010       L1    16  0.91

> <Gold.Chemscore.Hbond.Weighted>
-3.1621

> <Gold.Chemscore.Metal.Weighted>
-0.0000

> <Gold.Chemscore.Lipo.Weighted>
-9.2004

> <Gold.Chemscore.Internal_Hbond.Weighted>
0.0000

> <Gold.Chemscore.DEClash.Weighted>
0.0050

> <Gold.Chemscore.DEInternal.Weighted>
1.0964

> <Gold.Chemscore.Rot.Weighted>
4.4697

> <Gold.Chemscore.Internal.Correction.Weighted>
   9.000000E+99

> <Gold.Protein.RotatedTorsions>
[ 6907 6896 6895 6894 ] final   27.62 input  -60.11 | X-H torsion
[ 7974 7965 7964 7962 ] final   25.96 input  175.53 | X-H torsion
[ 8008 7997 7996 7995 ] final  -51.27 input   59.86 | X-H torsion
[ 10167 10162 10161 10158 ] final   41.50 input  -65.29 | X-H torsion
[ 10718 10713 10712 10709 ] final  149.91 input   66.30 | X-H torsion
[ 10763 10752 10751 10750 ] final  124.61 input  -60.55 | X-H torsion
[ 11005 11000 10999 10996 ] final -156.24 input  -57.11 | X-H torsion

> <Gold.Protein.ActiveResidues>
 VAL166  LYS551  ARG553  GLY616  TRP617  ASP618  TYR619  PRO620  LYS621  CYS622 
 ASP623  PHE694  ASN695  SER759  ASP760  ASP761  ALA762  ILE779  LEU786  VAL792 
 PHE793  MET794  SER795  GLU796  ALA797  LYS798  CYS799  TRP800  GLU811  SER814 

> <Gold.Protein.RotatedAtoms>
  152.0049  134.9908  160.0566 H   0  0  0  0  0  0  0  0  0  0  0  0  # atno 6907 bound_to 6896
  152.1484  133.4502  159.4809 H   0  0  0  0  0  0  0  0  0  0  0  0  # atno 6908 bound_to 6896
  150.6873  134.2137  159.4412 H   0  0  0  0  0  0  0  0  0  0  0  0  # atno 6909 bound_to 6896
  146.1862  139.7393  142.8865 H   0  0  0  0  0  0  0  0  0  0  0  0  # atno 7974 bound_to 7965
  154.4079  140.1252  156.4802 H   0  0  0  0  0  0  0  0  0  0  0  0  # atno 8008 bound_to 7997
  155.7092  140.3494  155.4947 H   0  0  0  0  0  0  0  0  0  0  0  0  # atno 8009 bound_to 7997
  155.9315  140.1070  157.1118 H   0  0  0  0  0  0  0  0  0  0  0  0  # atno 8010 bound_to 7997
  140.3637  144.2195  150.6136 H   0  0  0  0  0  0  0  0  0  0  0  0  # atno 10167 bound_to 10162
  157.2902  131.0852  151.1468 H   0  0  0  0  0  0  0  0  0  0  0  0  # atno 10718 bound_to 10713
  153.6641  135.3341  155.3135 H   0  0  0  0  0  0  0  0  0  0  0  0  # atno 10763 bound_to 10752
  154.8507  135.4371  154.1773 H   0  0  0  0  0  0  0  0  0  0  0  0  # atno 10764 bound_to 10752
  153.2747  135.7003  153.7520 H   0  0  0  0  0  0  0  0  0  0  0  0  # atno 10765 bound_to 10752
  140.6777  134.4178  157.5228 H   0  0  0  0  0  0  0  0  0  0  0  0  # atno 11005 bound_to 11000
  145.3932  141.0375  143.3112 LP  0  0  0  0  0  0  0  0  0  0  0  0  # atno 17320 bound_to 7965
  144.8401  139.5485  143.6904 LP  0  0  0  0  0  0  0  0  0  0  0  0  # atno 17321 bound_to 7965
  140.5101  143.2293  151.8548 LP  0  0  0  0  0  0  0  0  0  0  0  0  # atno 17342 bound_to 10162
  139.4811  144.4959  151.9124 LP  0  0  0  0  0  0  0  0  0  0  0  0  # atno 17343 bound_to 10162
  157.2867  130.6776  149.6093 LP  0  0  0  0  0  0  0  0  0  0  0  0  # atno 17370 bound_to 10713
  155.9667  130.4433  150.5416 LP  0  0  0  0  0  0  0  0  0  0  0  0  # atno 17371 bound_to 10713
  139.8961  134.8666  156.2101 LP  0  0  0  0  0  0  0  0  0  0  0  0  # atno 17394 bound_to 11000
  141.0342  133.6972  156.1483 LP  0  0  0  0  0  0  0  0  0  0  0  0  # atno 17395 bound_to 11000

$$$$
