AV-unprocessed.smi:3135|AV-procd|sdf|11947|dock10
  -GOLD-   2272017343D 1   1.00000     0.00000
 Structure written by MMmdl.
 37 38  0  0  0  0  0  0  0  0  1 V2000
  144.0519  143.3922  155.2635 C   0  0  0  0  0  0  0  0  0  0  0  0
  145.4348  142.8084  155.2961 C   0  0  0  0  0  0  0  0  0  0  0  0
  146.1776  142.3891  156.4361 C   0  0  0  0  0  0  0  0  0  0  0  0
  147.3736  141.9166  156.1255 N   0  0  0  0  0  0  0  0  0  0  0  0
  147.4362  142.0111  154.7801 N   0  0  0  0  0  0  0  0  0  0  0  0
  148.6324  141.5774  154.0789 C   0  0  0  0  0  0  0  0  0  0  0  0
  149.7845  141.3134  155.0515 C   0  0  0  0  0  0  0  0  0  0  0  0
  150.4809  140.3061  154.9255 O   0  0  0  0  0  0  0  0  0  0  0  0
  149.9755  142.2271  156.0159 N   0  0  0  0  0  0  0  0  0  0  0  0
  151.0175  142.1661  157.0333 C   0  0  0  0  0  0  0  0  0  0  0  0
  150.4242  142.2805  158.4508 C   0  0  0  0  0  0  0  0  0  0  0  0
  151.4060  142.7668  159.4178 N   0  0  0  0  0  0  0  0  0  0  0  0
  152.5822  141.9052  159.4499 C   0  0  0  0  0  0  0  0  0  0  0  0
  151.8348  144.0965  159.0137 C   0  0  0  0  0  0  0  0  0  0  0  0
  151.9284  145.1587  160.0857 C   0  0  0  0  0  0  0  0  0  0  0  0
  150.8116  145.2084  159.0715 C   0  0  0  0  0  0  0  0  0  0  0  0
  146.2809  142.5519  154.2545 C   0  0  0  0  0  0  0  0  0  0  0  0
  143.3701  142.8469  155.9163 H   0  0  0  0  0  0  0  0  0  0  0  0
  143.6239  143.3673  154.2613 H   0  0  0  0  0  0  0  0  0  0  0  0
  144.0478  144.4322  155.5898 H   0  0  0  0  0  0  0  0  0  0  0  0
  145.8843  142.4153  157.4751 H   0  0  0  0  0  0  0  0  0  0  0  0
  148.3921  140.6792  153.5082 H   0  0  0  0  0  0  0  0  0  0  0  0
  148.9351  142.3417  153.3613 H   0  0  0  0  0  0  0  0  0  0  0  0
  149.3559  143.0238  156.0451 H   0  0  0  0  0  0  0  0  0  0  0  0
  151.5860  141.2403  156.9289 H   0  0  0  0  0  0  0  0  0  0  0  0
  151.7105  142.9826  156.8337 H   0  0  0  0  0  0  0  0  0  0  0  0
  149.5392  142.9190  158.4528 H   0  0  0  0  0  0  0  0  0  0  0  0
  150.0934  141.2891  158.7641 H   0  0  0  0  0  0  0  0  0  0  0  0
  153.3280  142.3066  160.1371 H   0  0  0  0  0  0  0  0  0  0  0  0
  153.0416  141.8220  158.4638 H   0  0  0  0  0  0  0  0  0  0  0  0
  152.3324  140.9036  159.7976 H   0  0  0  0  0  0  0  0  0  0  0  0
  152.5660  144.1835  158.2114 H   0  0  0  0  0  0  0  0  0  0  0  0
  151.6672  144.8801  161.1049 H   0  0  0  0  0  0  0  0  0  0  0  0
  152.7249  145.8941  159.9934 H   0  0  0  0  0  0  0  0  0  0  0  0
  150.8630  145.9770  158.3031 H   0  0  0  0  0  0  0  0  0  0  0  0
  149.8092  144.9612  159.4168 H   0  0  0  0  0  0  0  0  0  0  0  0
  146.1571  142.7044  153.1923 H   0  0  0  0  0  0  0  0  0  0  0  0
  1  2  1  0  0  0  0
  1 18  1  0  0  0  0
  1 19  1  0  0  0  0
  1 20  1  0  0  0  0
  2 17  2  0  0  0  0
  2  3  1  0  0  0  0
  3  4  2  0  0  0  0
  3 21  1  0  0  0  0
  4  5  1  0  0  0  0
  5  6  1  0  0  0  0
  5 17  1  0  0  0  0
  6  7  1  0  0  0  0
  6 22  1  0  0  0  0
  6 23  1  0  0  0  0
  7  8  2  0  0  0  0
  7  9  1  0  0  0  0
  9 10  1  0  0  0  0
  9 24  1  0  0  0  0
 10 11  1  0  0  0  0
 10 25  1  0  0  0  0
 10 26  1  0  0  0  0
 11 12  1  0  0  0  0
 11 27  1  0  0  0  0
 11 28  1  0  0  0  0
 12 13  1  0  0  0  0
 12 14  1  0  0  0  0
 13 29  1  0  0  0  0
 13 30  1  0  0  0  0
 13 31  1  0  0  0  0
 14 16  1  0  0  0  0
 14 15  1  0  0  0  0
 14 32  1  0  0  0  0
 15 16  1  0  0  0  0
 15 33  1  0  0  0  0
 15 34  1  0  0  0  0
 16 35  1  0  0  0  0
 16 36  1  0  0  0  0
 17 37  1  0  0  0  0
M  END
> <s_m_source_file>
AV-unprocessed.smi

> <i_m_source_file_index>
3135

> <i_lp_mmshare_version>
43012

> <i_f3d_flags>
0

> <s_epik_input>
W0NIM11jMVtjSF1ubihbY0hdMSlbQ0gyXUMoPU8pW05IXVtDSDJdW0NIMl1OKFtDSDNdKVtDSF0yW0NIMl1bQ0gyXTI=

> <s_epik_cmdline>
J2VwaWtfcHl0aG9uJywgJy1waCcsICc3LjAnLCAnLXRuJywgJzgnLCAnLW1hJywgJzIwMCcsICctbWV0YWxfYmluZGluZycsICctaW1hZScsICc8aW5maWxlLm1hZT4nLCAnLW9tYWUnLCAnPG91dGZpbGUubWFlPic=

> <r_lp_tautomer_probability>
1

> <r_epik_Ionization_Penalty>
0.809981

> <r_epik_Ionization_Penalty_Charging>
0

> <r_epik_Ionization_Penalty_Neutral>
0.809981

> <r_epik_State_Penalty>
0.842006

> <r_epik_Charging_Adjusted_Penalty>
0.842006

> <i_epik_Tot_Q>
0

> <i_epik_Tot_abs_Q>
0

> <r_epik_Metal_State_Penalty>
0.84199

> <b_epik_Metal_Only>
0

> <s_lp_Force_Field>
OPLS_2005

> <r_lp_Energy>
14.2809

> <b_lp_Chiralities_Consistent>
1

> <s_lp_Variant>
AV-unprocessed.smi:3135-3

> <Gold.Version>
5.8.1

> <Gold.Id.Protein>
6NUR|6NUR_protein|mol2

> <Gold.PLP.Fitness>
43.9674

> <Gold.PLP.PLP>
-39.0212

> <Gold.PLP.part.hbond>
-2.0000

> <Gold.PLP.part.metal>
0.0000

> <Gold.PLP.part.buried>
-3.6877

> <Gold.PLP.part.nonpolar>
-33.1411

> <Gold.PLP.part.repulsive>
0.3356

> <Gold.PLP.ligand.clash>
0.0000

> <Gold.PLP.ligand.torsion>
1.1240

> <Gold.PLP.Chemscore.Hbond>
2.0000

> <Gold.PLP.Chemscore.CHOScore>
0.0000

> <Gold.PLP.Chemscore.Metal>
0.0000

> <Gold.Chemscore.Hbonds>
donor molecule, donor type, donor heavy atom, donor atom, acceptor molecule, acceptor atom, score
      L1  H     9    24       P1  8028  1.00
      P1  H  7989  7998       L1     8  1.00

> <Gold.PLP.Chemscore.Internal.Correction>
1.1941

> <Gold.Rescore>
     Score         DG    S(hbond)    S(metal)    S(lipo)     H(rot)  DE(clash)    DE(int)     intcor
     13.06     -14.15       1.00        0.00      85.97       1.85       0.05       1.04       ----

> <Gold.Chemscore.Fitness>
13.0586

> <Gold.Chemscore.DG>
-14.1462

> <Gold.Chemscore.ZeroCoef>
-5.4800

> <Gold.Chemscore.Hbond>
1.0001

> <Gold.Chemscore.Metal>
0.0000

> <Gold.Chemscore.Lipo>
85.9705

> <Gold.Chemscore.Internal_Hbond>
0.0000

> <Gold.Chemscore.DEClash>
0.0483

> <Gold.Chemscore.DEInternal>
1.0393

> <Gold.Chemscore.Rot>
1.8487

> <Gold.Chemscore.Internal.Correction>
   9.000000E+99

> <Gold.Chemscore.Hbonds>
donor molecule, donor type, donor heavy atom, donor atom, acceptor molecule, acceptor atom, score
      L1  H     9    24       P1  8028  0.98
      P1  H  7989  7998       L1     8  0.25

> <Gold.Chemscore.Hbond.Weighted>
-3.3403

> <Gold.Chemscore.Metal.Weighted>
-0.0000

> <Gold.Chemscore.Lipo.Weighted>
-10.0585

> <Gold.Chemscore.Internal_Hbond.Weighted>
0.0000

> <Gold.Chemscore.DEClash.Weighted>
0.0483

> <Gold.Chemscore.DEInternal.Weighted>
1.0393

> <Gold.Chemscore.Rot.Weighted>
4.7326

> <Gold.Chemscore.Internal.Correction.Weighted>
   9.000000E+99

> <Gold.Protein.RotatedTorsions>
[ 6907 6896 6895 6894 ] final   59.21 input  -60.11 | X-H torsion
[ 7974 7965 7964 7962 ] final  151.31 input  175.53 | X-H torsion
[ 8008 7997 7996 7995 ] final -131.39 input   59.86 | X-H torsion
[ 10167 10162 10161 10158 ] final  -96.93 input  -65.29 | X-H torsion
[ 10718 10713 10712 10709 ] final  111.62 input   66.30 | X-H torsion
[ 10763 10752 10751 10750 ] final  130.04 input  -60.55 | X-H torsion
[ 11005 11000 10999 10996 ] final    1.38 input  -57.11 | X-H torsion

> <Gold.Protein.ActiveResidues>
 VAL166  LYS551  ARG553  GLY616  TRP617  ASP618  TYR619  PRO620  LYS621  CYS622 
 ASP623  PHE694  ASN695  SER759  ASP760  ASP761  ALA762  ILE779  LEU786  VAL792 
 PHE793  MET794  SER795  GLU796  ALA797  LYS798  CYS799  TRP800  GLU811  SER814 

> <Gold.Protein.RotatedAtoms>
  152.3894  134.6465  160.0112 H   0  0  0  0  0  0  0  0  0  0  0  0  # atno 6907 bound_to 6896
  151.6703  133.3308  159.3203 H   0  0  0  0  0  0  0  0  0  0  0  0  # atno 6908 bound_to 6896
  150.7814  134.6805  159.6486 H   0  0  0  0  0  0  0  0  0  0  0  0  # atno 6909 bound_to 6896
  144.8302  139.6521  143.6062 H   0  0  0  0  0  0  0  0  0  0  0  0  # atno 7974 bound_to 7965
  155.3115  140.0457  157.3035 H   0  0  0  0  0  0  0  0  0  0  0  0  # atno 8008 bound_to 7997
  154.5430  140.2294  155.8575 H   0  0  0  0  0  0  0  0  0  0  0  0  # atno 8009 bound_to 7997
  156.1899  140.3053  155.9317 H   0  0  0  0  0  0  0  0  0  0  0  0  # atno 8010 bound_to 7997
  140.2887  143.3235  152.0368 H   0  0  0  0  0  0  0  0  0  0  0  0  # atno 10167 bound_to 10162
  157.6435  131.0954  150.6775 H   0  0  0  0  0  0  0  0  0  0  0  0  # atno 10718 bound_to 10713
  153.7515  135.3209  155.3322 H   0  0  0  0  0  0  0  0  0  0  0  0  # atno 10763 bound_to 10752
  154.8261  135.4568  154.0927 H   0  0  0  0  0  0  0  0  0  0  0  0  # atno 10764 bound_to 10752
  153.2131  135.6938  153.8172 H   0  0  0  0  0  0  0  0  0  0  0  0  # atno 10765 bound_to 10752
  140.6160  133.9704  155.8201 H   0  0  0  0  0  0  0  0  0  0  0  0  # atno 11005 bound_to 11000
  146.2605  139.6399  142.9365 LP  0  0  0  0  0  0  0  0  0  0  0  0  # atno 17320 bound_to 7965
  145.4913  141.0438  143.2591 LP  0  0  0  0  0  0  0  0  0  0  0  0  # atno 17321 bound_to 7965
  139.4943  144.6541  151.6612 LP  0  0  0  0  0  0  0  0  0  0  0  0  # atno 17342 bound_to 10162
  140.5751  144.0042  150.6237 LP  0  0  0  0  0  0  0  0  0  0  0  0  # atno 17343 bound_to 10162
  156.7096  130.4648  149.5551 LP  0  0  0  0  0  0  0  0  0  0  0  0  # atno 17370 bound_to 10713
  156.1739  130.6455  151.0871 LP  0  0  0  0  0  0  0  0  0  0  0  0  # atno 17371 bound_to 10713
  141.0775  134.0112  157.3436 LP  0  0  0  0  0  0  0  0  0  0  0  0  # atno 17394 bound_to 11000
  139.9172  135.0198  156.7928 LP  0  0  0  0  0  0  0  0  0  0  0  0  # atno 17395 bound_to 11000

$$$$
