AV-unprocessed.smi:1220|AV-procd|sdf|5116|dock5
  -GOLD-   22720 4173D 1   1.00000     0.00000
 Structure written by MMmdl.
 35 36  0  0  0  0  0  0  0  0  1 V2000
  149.8076  141.7002  157.7202 C   0  0  0  0  0  0  0  0  0  0  0  0
  151.1278  141.0948  158.2154 C   0  0  2  0  0  0  0  0  0  0  0  0
  152.2669  142.1373  158.1973 C   0  0  0  0  0  0  0  0  0  0  0  0
  151.9143  143.3651  158.8901 N   0  0  0  0  0  0  0  0  0  0  0  0
  151.0820  144.3795  158.4661 C   0  0  0  0  0  0  0  0  0  0  0  0
  151.0329  145.3091  159.4652 C   0  0  0  0  0  0  0  0  0  0  0  0
  151.8846  144.7710  160.4699 C   0  0  0  0  0  0  0  0  0  0  0  0
  152.4146  143.6100  160.1211 N   0  0  0  0  0  0  0  0  0  0  0  0
  151.4650  139.9405  157.3827 N   0  0  0  0  0  0  0  0  0  0  0  0
  151.3121  139.8665  156.0506 C   0  0  0  0  0  0  0  0  0  0  0  0
  150.9157  140.8086  155.3635 O   0  0  0  0  0  0  0  0  0  0  0  0
  151.6399  138.5139  155.3994 C   0  0  1  0  0  0  0  0  0  0  0  0
  153.1464  138.1865  155.5186 C   0  0  0  0  0  0  0  0  0  0  0  0
  153.4296  137.5566  156.8860 C   0  0  0  0  0  0  0  0  0  0  0  0
  151.9450  136.5604  157.2732 S   0  0  0  0  0  0  0  0  0  0  0  0
  152.1753  135.1683  156.8579 O   0  0  0  0  0  0  0  0  0  0  0  0
  151.4905  136.8773  158.6355 O   0  0  0  0  0  0  0  0  0  0  0  0
  150.8391  137.3640  156.0465 C   0  0  0  0  0  0  0  0  0  0  0  0
  149.5087  142.5468  158.3388 H   0  0  0  0  0  0  0  0  0  0  0  0
  149.0012  140.9670  157.7556 H   0  0  0  0  0  0  0  0  0  0  0  0
  149.8922  142.0533  156.6918 H   0  0  0  0  0  0  0  0  0  0  0  0
  150.9667  140.7736  159.2460 H   0  0  0  0  0  0  0  0  0  0  0  0
  153.1733  141.7221  158.6414 H   0  0  0  0  0  0  0  0  0  0  0  0
  152.5173  142.3974  157.1680 H   0  0  0  0  0  0  0  0  0  0  0  0
  150.5919  144.3499  157.5042 H   0  0  0  0  0  0  0  0  0  0  0  0
  150.4718  146.2316  159.4777 H   0  0  0  0  0  0  0  0  0  0  0  0
  152.1317  145.1862  161.4358 H   0  0  0  0  0  0  0  0  0  0  0  0
  151.7981  139.1179  157.8643 H   0  0  0  0  0  0  0  0  0  0  0  0
  151.3711  138.5808  154.3439 H   0  0  0  0  0  0  0  0  0  0  0  0
  153.4080  137.4685  154.7404 H   0  0  0  0  0  0  0  0  0  0  0  0
  153.7753  139.0620  155.3521 H   0  0  0  0  0  0  0  0  0  0  0  0
  154.3211  136.9295  156.8956 H   0  0  0  0  0  0  0  0  0  0  0  0
  153.5343  138.3241  157.6534 H   0  0  0  0  0  0  0  0  0  0  0  0
  149.9233  137.6904  156.5418 H   0  0  0  0  0  0  0  0  0  0  0  0
  150.5660  136.6178  155.3005 H   0  0  0  0  0  0  0  0  0  0  0  0
  1  2  1  0  0  0  0
  1 19  1  0  0  0  0
  1 20  1  0  0  0  0
  1 21  1  0  0  0  0
  2  3  1  0  0  0  0
  2  9  1  0  0  0  0
  2 22  1  0  0  0  0
  3  4  1  0  0  0  0
  3 23  1  0  0  0  0
  3 24  1  0  0  0  0
  4  8  1  0  0  0  0
  4  5  1  0  0  0  0
  5  6  2  0  0  0  0
  5 25  1  0  0  0  0
  6  7  1  0  0  0  0
  6 26  1  0  0  0  0
  7  8  2  0  0  0  0
  7 27  1  0  0  0  0
  9 10  1  0  0  0  0
  9 28  1  0  0  0  0
 10 11  2  0  0  0  0
 10 12  1  0  0  0  0
 12 18  1  0  0  0  0
 12 13  1  0  0  0  0
 12 29  1  0  0  0  0
 13 14  1  0  0  0  0
 13 30  1  0  0  0  0
 13 31  1  0  0  0  0
 14 15  1  0  0  0  0
 14 32  1  0  0  0  0
 14 33  1  0  0  0  0
 15 16  2  0  0  0  0
 15 17  2  0  0  0  0
 15 18  1  0  0  0  0
 18 34  1  0  0  0  0
 18 35  1  0  0  0  0
M  END
> <s_m_source_file>
AV-unprocessed.smi

> <i_m_source_file_index>
1220

> <i_lp_mmshare_version>
43012

> <i_f3d_flags>
0

> <s_epik_input>
bjFbY0hdW2NIXVtjSF1uMVtDSDJdW0NAQEhdKFtDSDNdKVtOSF1DKD1PKVtDQEBIXShbQ0gyXTIpW0NIMl1bQ0gyXVMyKD1PKT1P

> <s_epik_cmdline>
J2VwaWtfcHl0aG9uJywgJy1waCcsICc3LjAnLCAnLXRuJywgJzgnLCAnLW1hJywgJzIwMCcsICctbWV0YWxfYmluZGluZycsICctaW1hZScsICc8aW5maWxlLm1hZT4nLCAnLW9tYWUnLCAnPG91dGZpbGUubWFlPic=

> <r_lp_tautomer_probability>
1

> <r_epik_Ionization_Penalty>
0.000293905

> <r_epik_Ionization_Penalty_Charging>
0

> <r_epik_Ionization_Penalty_Neutral>
0.000293905

> <r_epik_State_Penalty>
-0

> <r_epik_Charging_Adjusted_Penalty>
0

> <i_epik_Tot_Q>
0

> <i_epik_Tot_abs_Q>
0

> <r_epik_Metal_State_Penalty>
-0

> <b_epik_Metal_Only>
0

> <s_lp_Force_Field>
OPLS_2005

> <r_lp_Energy>
1.9569

> <b_lp_Chiralities_Consistent>
1

> <s_lp_Variant>
AV-unprocessed.smi:1220-3

> <Gold.Version>
5.8.1

> <Gold.Id.Protein>
6NUR|6NUR_protein|mol2

> <Gold.PLP.Fitness>
40.8485

> <Gold.PLP.PLP>
-31.6871

> <Gold.PLP.part.hbond>
-3.1514

> <Gold.PLP.part.metal>
0.0000

> <Gold.PLP.part.buried>
-5.6716

> <Gold.PLP.part.nonpolar>
-23.6894

> <Gold.PLP.part.repulsive>
0.1330

> <Gold.PLP.ligand.clash>
0.0000

> <Gold.PLP.ligand.torsion>
0.5818

> <Gold.PLP.Chemscore.Hbond>
2.4361

> <Gold.PLP.Chemscore.CHOScore>
1.0000

> <Gold.PLP.Chemscore.Metal>
0.0000

> <Gold.Chemscore.Hbonds>
donor molecule, donor type, donor heavy atom, donor atom, acceptor molecule, acceptor atom, score
      P1  H  6896  6908       L1    17  0.59
      P1  H  7989  7998       L1    11  0.80
      P1  H 10752 10764       L1    16  1.00
      L1  C     5    25       P1  8028  1.00

> <Gold.PLP.Chemscore.Internal.Correction>
0.0166

> <Gold.Rescore>
     Score         DG    S(hbond)    S(metal)    S(lipo)     H(rot)  DE(clash)    DE(int)     intcor
     13.59     -15.78       1.75        0.00      76.45       1.75       0.03       2.16       ----

> <Gold.Chemscore.Fitness>
13.5903

> <Gold.Chemscore.DG>
-15.7830

> <Gold.Chemscore.ZeroCoef>
-5.4800

> <Gold.Chemscore.Hbond>
1.7450

> <Gold.Chemscore.Metal>
0.0000

> <Gold.Chemscore.Lipo>
76.4469

> <Gold.Chemscore.Internal_Hbond>
0.0000

> <Gold.Chemscore.DEClash>
0.0323

> <Gold.Chemscore.DEInternal>
2.1605

> <Gold.Chemscore.Rot>
1.7460

> <Gold.Chemscore.Internal.Correction>
   9.000000E+99

> <Gold.Chemscore.Hbonds>
donor molecule, donor type, donor heavy atom, donor atom, acceptor molecule, acceptor atom, score
      P1  H  6896  6908       L1    17  0.51
      P1  H  7989  7998       L1    11  0.71
      P1  H 10752 10764       L1    16  0.38

> <Gold.Chemscore.Hbond.Weighted>
-5.8284

> <Gold.Chemscore.Metal.Weighted>
-0.0000

> <Gold.Chemscore.Lipo.Weighted>
-8.9443

> <Gold.Chemscore.Internal_Hbond.Weighted>
0.0000

> <Gold.Chemscore.DEClash.Weighted>
0.0323

> <Gold.Chemscore.DEInternal.Weighted>
2.1605

> <Gold.Chemscore.Rot.Weighted>
4.4697

> <Gold.Chemscore.Internal.Correction.Weighted>
   9.000000E+99

> <Gold.Protein.RotatedTorsions>
[ 6907 6896 6895 6894 ] final -131.52 input  -60.11 | X-H torsion
[ 7974 7965 7964 7962 ] final  -38.43 input  175.53 | X-H torsion
[ 8008 7997 7996 7995 ] final  -70.10 input   59.86 | X-H torsion
[ 10167 10162 10161 10158 ] final   18.09 input  -65.29 | X-H torsion
[ 10718 10713 10712 10709 ] final  -12.64 input   66.30 | X-H torsion
[ 10763 10752 10751 10750 ] final  -11.69 input  -60.55 | X-H torsion
[ 11005 11000 10999 10996 ] final  116.63 input  -57.11 | X-H torsion

> <Gold.Protein.ActiveResidues>
 VAL166  LYS551  ARG553  GLY616  TRP617  ASP618  TYR619  PRO620  LYS621  CYS622 
 ASP623  PHE694  ASN695  SER759  ASP760  ASP761  ALA762  ILE779  LEU786  VAL792 
 PHE793  MET794  SER795  GLU796  ALA797  LYS798  CYS799  TRP800  GLU811  SER814 

> <Gold.Protein.RotatedAtoms>
  150.9519  133.6540  159.2770 H   0  0  0  0  0  0  0  0  0  0  0  0  # atno 6907 bound_to 6896
  151.3893  135.0952  159.9530 H   0  0  0  0  0  0  0  0  0  0  0  0  # atno 6908 bound_to 6896
  152.5113  133.9037  159.7508 H   0  0  0  0  0  0  0  0  0  0  0  0  # atno 6909 bound_to 6896
  146.0487  140.6511  142.9052 H   0  0  0  0  0  0  0  0  0  0  0  0  # atno 7974 bound_to 7965
  154.4987  140.0841  156.7752 H   0  0  0  0  0  0  0  0  0  0  0  0  # atno 8008 bound_to 7997
  155.4054  140.3439  155.4241 H   0  0  0  0  0  0  0  0  0  0  0  0  # atno 8009 bound_to 7997
  156.1428  140.1534  156.8881 H   0  0  0  0  0  0  0  0  0  0  0  0  # atno 8010 bound_to 7997
  140.5678  143.9218  150.6690 H   0  0  0  0  0  0  0  0  0  0  0  0  # atno 10167 bound_to 10162
  156.6418  130.4930  149.6092 H   0  0  0  0  0  0  0  0  0  0  0  0  # atno 10718 bound_to 10713
  153.4874  135.7017  153.5903 H   0  0  0  0  0  0  0  0  0  0  0  0  # atno 10763 bound_to 10752
  153.4091  135.3853  155.2038 H   0  0  0  0  0  0  0  0  0  0  0  0  # atno 10764 bound_to 10752
  154.8718  135.3900  154.4330 H   0  0  0  0  0  0  0  0  0  0  0  0  # atno 10765 bound_to 10752
  139.9047  134.9600  156.7227 H   0  0  0  0  0  0  0  0  0  0  0  0  # atno 11005 bound_to 11000
  144.7111  140.4042  143.7080 LP  0  0  0  0  0  0  0  0  0  0  0  0  # atno 17320 bound_to 7965
  145.6761  139.1609  143.2727 LP  0  0  0  0  0  0  0  0  0  0  0  0  # atno 17321 bound_to 7965
  140.2685  143.3473  152.1259 LP  0  0  0  0  0  0  0  0  0  0  0  0  # atno 17342 bound_to 10162
  139.5102  144.6880  151.5836 LP  0  0  0  0  0  0  0  0  0  0  0  0  # atno 17343 bound_to 10162
  156.2153  130.6704  151.1312 LP  0  0  0  0  0  0  0  0  0  0  0  0  # atno 17370 bound_to 10713
  157.7169  131.0705  150.6293 LP  0  0  0  0  0  0  0  0  0  0  0  0  # atno 17371 bound_to 10713
  140.6988  133.9325  155.8011 LP  0  0  0  0  0  0  0  0  0  0  0  0  # atno 17394 bound_to 11000
  141.0387  134.0652  157.3928 LP  0  0  0  0  0  0  0  0  0  0  0  0  # atno 17395 bound_to 11000

$$$$
