AV-unprocessed.smi:754|AV-procd|sdf|3609|dock7
  -GOLD-   22720 1 03D 1   1.00000     0.00000
 Structure written by MMmdl.
 37 38  0  0  0  0  0  0  0  0  1 V2000
  153.6934  141.1929  160.4583 C   0  0  0  0  0  0  0  0  0  0  0  0
  152.4122  142.0264  160.5265 C   0  0  0  0  0  0  0  0  0  0  0  0
  151.4531  141.4640  159.6471 O   0  0  0  0  0  0  0  0  0  0  0  0
  151.8178  141.5854  158.2813 C   0  0  2  0  0  0  0  0  0  0  0  0
  151.0765  142.6884  157.5196 C   0  0  0  0  0  0  0  0  0  0  0  0
  151.0454  141.7068  156.3472 C   0  0  2  0  0  0  0  0  0  0  0  0
  149.7949  141.7643  155.6008 N   0  0  0  0  0  0  0  0  0  0  0  0
  149.4723  140.9337  154.5982 C   0  0  0  0  0  0  0  0  0  0  0  0
  150.2462  140.0970  154.1344 O   0  0  0  0  0  0  0  0  0  0  0  0
  148.0479  141.0446  154.0551 C   0  0  0  0  0  0  0  0  0  0  0  0
  147.2783  142.0011  154.8294 N   0  0  0  0  0  0  0  0  0  0  0  0
  146.5646  143.0638  154.4515 C   0  0  0  0  0  0  0  0  0  0  0  0
  146.0368  143.6932  155.4900 N   0  0  0  0  0  0  0  0  0  0  0  0
  146.4725  142.9408  156.5681 N   0  0  0  0  0  0  0  0  0  0  0  0
  147.2096  141.9356  156.1825 N   0  0  0  0  0  0  0  0  0  0  0  0
  151.1260  140.5414  157.3707 C   0  0  0  0  0  0  0  0  0  0  0  0
  151.9897  139.3504  156.9566 C   0  0  0  0  0  0  0  0  0  0  0  0
  149.7945  139.9680  157.8899 C   0  0  0  0  0  0  0  0  0  0  0  0
  154.4576  141.5980  161.1216 H   0  0  0  0  0  0  0  0  0  0  0  0
  154.0992  141.1820  159.4464 H   0  0  0  0  0  0  0  0  0  0  0  0
  153.5047  140.1610  160.7554 H   0  0  0  0  0  0  0  0  0  0  0  0
  152.0312  142.0381  161.5484 H   0  0  0  0  0  0  0  0  0  0  0  0
  152.6238  143.0576  160.2407 H   0  0  0  0  0  0  0  0  0  0  0  0
  152.8989  141.6180  158.1254 H   0  0  0  0  0  0  0  0  0  0  0  0
  150.0939  142.9149  157.9378 H   0  0  0  0  0  0  0  0  0  0  0  0
  151.6609  143.5919  157.3444 H   0  0  0  0  0  0  0  0  0  0  0  0
  151.9412  141.7917  155.7272 H   0  0  0  0  0  0  0  0  0  0  0  0
  149.1041  142.4302  155.9147 H   0  0  0  0  0  0  0  0  0  0  0  0
  148.0684  141.3644  153.0125 H   0  0  0  0  0  0  0  0  0  0  0  0
  147.5519  140.0734  154.0882 H   0  0  0  0  0  0  0  0  0  0  0  0
  146.4411  143.3791  153.4259 H   0  0  0  0  0  0  0  0  0  0  0  0
  151.5095  138.7609  156.1749 H   0  0  0  0  0  0  0  0  0  0  0  0
  152.1848  138.6863  157.7991 H   0  0  0  0  0  0  0  0  0  0  0  0
  152.9564  139.6722  156.5684 H   0  0  0  0  0  0  0  0  0  0  0  0
  149.2884  139.3720  157.1293 H   0  0  0  0  0  0  0  0  0  0  0  0
  149.1008  140.7507  158.1971 H   0  0  0  0  0  0  0  0  0  0  0  0
  149.9498  139.3233  158.7553 H   0  0  0  0  0  0  0  0  0  0  0  0
  1  2  1  0  0  0  0
  1 19  1  0  0  0  0
  1 20  1  0  0  0  0
  1 21  1  0  0  0  0
  2  3  1  0  0  0  0
  2 22  1  0  0  0  0
  2 23  1  0  0  0  0
  3  4  1  0  0  0  0
  4 16  1  0  0  0  0
  4  5  1  0  0  0  0
  4 24  1  0  0  0  0
  5  6  1  0  0  0  0
  5 25  1  0  0  0  0
  5 26  1  0  0  0  0
  6  7  1  0  0  0  0
  6 16  1  0  0  0  0
  6 27  1  0  0  0  0
  7  8  1  0  0  0  0
  7 28  1  0  0  0  0
  8  9  2  0  0  0  0
  8 10  1  0  0  0  0
 10 11  1  0  0  0  0
 10 29  1  0  0  0  0
 10 30  1  0  0  0  0
 11 15  1  0  0  0  0
 11 12  1  0  0  0  0
 12 13  2  0  0  0  0
 12 31  1  0  0  0  0
 13 14  1  0  0  0  0
 14 15  2  0  0  0  0
 16 17  1  0  0  0  0
 16 18  1  0  0  0  0
 17 32  1  0  0  0  0
 17 33  1  0  0  0  0
 17 34  1  0  0  0  0
 18 35  1  0  0  0  0
 18 36  1  0  0  0  0
 18 37  1  0  0  0  0
M  END
> <s_m_source_file>
AV-unprocessed.smi

> <i_m_source_file_index>
754

> <i_lp_mmshare_version>
43012

> <i_f3d_flags>
0

> <s_epik_input>
W0NIM11bQ0gyXU9bQ0BASF0oQzEoW0NIM10pW0NIM10pW0NIMl1bQ0BIXTFbTkhdQyg9TylbQ0gyXW4yW2NIXW5ubjI=

> <s_epik_cmdline>
J2VwaWtfcHl0aG9uJywgJy1waCcsICc3LjAnLCAnLXRuJywgJzgnLCAnLW1hJywgJzIwMCcsICctbWV0YWxfYmluZGluZycsICctaW1hZScsICc8aW5maWxlLm1hZT4nLCAnLW9tYWUnLCAnPG91dGZpbGUubWFlPic=

> <r_lp_tautomer_probability>
1

> <r_epik_Ionization_Penalty>
8.28422e-07

> <r_epik_Ionization_Penalty_Charging>
0

> <r_epik_Ionization_Penalty_Neutral>
8.28422e-07

> <r_epik_State_Penalty>
-0

> <r_epik_Charging_Adjusted_Penalty>
0

> <i_epik_Tot_Q>
0

> <i_epik_Tot_abs_Q>
0

> <r_epik_Metal_State_Penalty>
-0

> <b_epik_Metal_Only>
0

> <s_lp_Force_Field>
OPLS_2005

> <r_lp_Energy>
20.4803

> <b_lp_Chiralities_Consistent>
1

> <s_lp_Variant>
AV-unprocessed.smi:754-3

> <Gold.Version>
5.8.1

> <Gold.Id.Protein>
6NUR|6NUR_protein|mol2

> <Gold.PLP.Fitness>
36.5769

> <Gold.PLP.PLP>
-33.8420

> <Gold.PLP.part.hbond>
-2.7369

> <Gold.PLP.part.metal>
0.0000

> <Gold.PLP.part.buried>
-3.5175

> <Gold.PLP.part.nonpolar>
-27.7714

> <Gold.PLP.part.repulsive>
0.7428

> <Gold.PLP.ligand.clash>
0.0000

> <Gold.PLP.ligand.torsion>
0.6300

> <Gold.PLP.Chemscore.Hbond>
1.2231

> <Gold.PLP.Chemscore.CHOScore>
0.0000

> <Gold.PLP.Chemscore.Metal>
0.0000

> <Gold.Chemscore.Hbonds>
donor molecule, donor type, donor heavy atom, donor atom, acceptor molecule, acceptor atom, score
      L1  H     7    28       P1  8028  0.20
      P1  H  7989  7998       L1     9  1.00

> <Gold.PLP.Chemscore.Internal.Correction>
0.3257

> <Gold.Rescore>
     Score         DG    S(hbond)    S(metal)    S(lipo)     H(rot)  DE(clash)    DE(int)     intcor
      9.27     -11.77       1.33        0.00      69.52       2.46       0.21       2.29       ----

> <Gold.Chemscore.Fitness>
9.2691

> <Gold.Chemscore.DG>
-11.7676

> <Gold.Chemscore.ZeroCoef>
-5.4800

> <Gold.Chemscore.Hbond>
1.3338

> <Gold.Chemscore.Metal>
0.0000

> <Gold.Chemscore.Lipo>
69.5238

> <Gold.Chemscore.Internal_Hbond>
0.0000

> <Gold.Chemscore.DEClash>
0.2078

> <Gold.Chemscore.DEInternal>
2.2908

> <Gold.Chemscore.Rot>
2.4616

> <Gold.Chemscore.Internal.Correction>
   9.000000E+99

> <Gold.Chemscore.Hbonds>
donor molecule, donor type, donor heavy atom, donor atom, acceptor molecule, acceptor atom, score
      L1  H     7    28       P1  8028  0.19
      P1  H  7989  7998       L1     9  0.71

> <Gold.Chemscore.Hbond.Weighted>
-4.4550

> <Gold.Chemscore.Metal.Weighted>
-0.0000

> <Gold.Chemscore.Lipo.Weighted>
-8.1343

> <Gold.Chemscore.Internal_Hbond.Weighted>
0.0000

> <Gold.Chemscore.DEClash.Weighted>
0.2078

> <Gold.Chemscore.DEInternal.Weighted>
2.2908

> <Gold.Chemscore.Rot.Weighted>
6.3016

> <Gold.Chemscore.Internal.Correction.Weighted>
   9.000000E+99

> <Gold.Protein.RotatedTorsions>
[ 6907 6896 6895 6894 ] final   95.14 input  -60.11 | X-H torsion
[ 7974 7965 7964 7962 ] final -178.31 input  175.53 | X-H torsion
[ 8008 7997 7996 7995 ] final  143.28 input   59.86 | X-H torsion
[ 10167 10162 10161 10158 ] final -114.23 input  -65.29 | X-H torsion
[ 10718 10713 10712 10709 ] final  -98.66 input   66.30 | X-H torsion
[ 10763 10752 10751 10750 ] final -164.88 input  -60.55 | X-H torsion
[ 11005 11000 10999 10996 ] final  -44.13 input  -57.11 | X-H torsion

> <Gold.Protein.ActiveResidues>
 VAL166  LYS551  ARG553  GLY616  TRP617  ASP618  TYR619  PRO620  LYS621  CYS622 
 ASP623  PHE694  ASN695  SER759  ASP760  ASP761  ALA762  ILE779  LEU786  VAL792 
 PHE793  MET794  SER795  GLU796  ALA797  LYS798  CYS799  TRP800  GLU811  SER814 

> <Gold.Protein.RotatedAtoms>
  152.5445  134.1086  159.8348 H   0  0  0  0  0  0  0  0  0  0  0  0  # atno 6907 bound_to 6896
  151.1155  133.5134  159.2611 H   0  0  0  0  0  0  0  0  0  0  0  0  # atno 6908 bound_to 6896
  151.1836  135.0381  159.8857 H   0  0  0  0  0  0  0  0  0  0  0  0  # atno 6909 bound_to 6896
  144.7130  140.0887  143.6422 H   0  0  0  0  0  0  0  0  0  0  0  0  # atno 7974 bound_to 7965
  156.2933  140.2266  156.4865 H   0  0  0  0  0  0  0  0  0  0  0  0  # atno 8008 bound_to 7997
  154.7808  140.0460  157.1146 H   0  0  0  0  0  0  0  0  0  0  0  0  # atno 8009 bound_to 7997
  154.9761  140.3072  155.4970 H   0  0  0  0  0  0  0  0  0  0  0  0  # atno 8010 bound_to 7997
  140.1032  143.4594  152.1799 H   0  0  0  0  0  0  0  0  0  0  0  0  # atno 10167 bound_to 10162
  156.0113  130.5248  150.6555 H   0  0  0  0  0  0  0  0  0  0  0  0  # atno 10718 bound_to 10713
  154.6985  135.2983  154.9375 H   0  0  0  0  0  0  0  0  0  0  0  0  # atno 10763 bound_to 10752
  154.0315  135.6669  153.4785 H   0  0  0  0  0  0  0  0  0  0  0  0  # atno 10764 bound_to 10752
  153.0664  135.5086  154.8116 H   0  0  0  0  0  0  0  0  0  0  0  0  # atno 10765 bound_to 10752
  141.0430  133.6772  156.2829 H   0  0  0  0  0  0  0  0  0  0  0  0  # atno 11005 bound_to 11000
  145.9639  139.2820  143.1139 LP  0  0  0  0  0  0  0  0  0  0  0  0  # atno 17320 bound_to 7965
  145.9191  140.9128  143.0414 LP  0  0  0  0  0  0  0  0  0  0  0  0  # atno 17321 bound_to 7965
  139.5660  144.7435  151.4022 LP  0  0  0  0  0  0  0  0  0  0  0  0  # atno 17342 bound_to 10162
  140.6966  143.7733  150.7337 LP  0  0  0  0  0  0  0  0  0  0  0  0  # atno 17343 bound_to 10162
  157.4308  131.0849  151.1040 LP  0  0  0  0  0  0  0  0  0  0  0  0  # atno 17370 bound_to 10713
  157.1614  130.6227  149.5612 LP  0  0  0  0  0  0  0  0  0  0  0  0  # atno 17371 bound_to 10713
  140.6200  134.5372  157.5546 LP  0  0  0  0  0  0  0  0  0  0  0  0  # atno 17394 bound_to 11000
  139.9290  134.8000  156.0985 LP  0  0  0  0  0  0  0  0  0  0  0  0  # atno 17395 bound_to 11000

$$$$
