AV-unprocessed.smi:3085|AV-procd|sdf|11758|dock3
  -GOLD-   2272017143D 1   1.00000     0.00000
 Structure written by MMmdl.
 28 29  0  0  0  0  0  0  0  0  2 V2000
  152.2605  143.0971  161.6746 C   0  0  0  0  0  0  0  0  0  0  0  0
  153.1926  141.8948  161.4879 C   0  0  0  0  0  0  0  0  0  0  0  0
  153.0565  141.2667  160.1397 C   0  0  0  0  0  0  0  0  0  0  0  0
  152.2411  141.7679  159.2005 N   0  0  0  0  0  0  0  0  0  0  0  0
  152.4331  140.9394  158.1632 C   0  0  0  0  0  0  0  0  0  0  0  0
  151.7046  141.1088  156.8672 C   0  0  2  0  0  0  0  0  0  0  0  0
  150.7666  142.3316  156.8759 C   0  0  0  0  0  0  0  0  0  0  0  0
  149.9988  142.3882  155.6167 N   0  3  0  0  0  0  0  0  0  0  0  0
  149.2728  141.1266  155.3691 C   0  0  0  0  0  0  0  0  0  0  0  0
  150.2481  139.9369  155.4124 C   0  0  0  0  0  0  0  0  0  0  0  0
  150.9383  139.9249  156.6579 O   0  0  0  0  0  0  0  0  0  0  0  0
  153.3149  139.9688  158.4261 N   0  0  0  0  0  0  0  0  0  0  0  0
  153.7298  140.1883  159.7282 N   0  0  0  0  0  0  0  0  0  0  0  0
  151.6358  142.5738  159.2615 H   0  0  0  0  0  0  0  0  0  0  0  0
  152.3811  143.5316  162.6670 H   0  0  0  0  0  0  0  0  0  0  0  0
  151.2158  142.8063  161.5625 H   0  0  0  0  0  0  0  0  0  0  0  0
  152.4726  143.8766  160.9422 H   0  0  0  0  0  0  0  0  0  0  0  0
  154.2289  142.2062  161.6245 H   0  0  0  0  0  0  0  0  0  0  0  0
  152.9908  141.1446  162.2532 H   0  0  0  0  0  0  0  0  0  0  0  0
  152.4402  141.2064  156.0659 H   0  0  0  0  0  0  0  0  0  0  0  0
  150.0695  142.2724  157.7132 H   0  0  0  0  0  0  0  0  0  0  0  0
  151.3355  143.2540  156.9950 H   0  0  0  0  0  0  0  0  0  0  0  0
  149.3392  143.1523  155.6592 H   0  0  0  0  0  0  0  0  0  0  0  0
  148.4971  141.0040  156.1263 H   0  0  0  0  0  0  0  0  0  0  0  0
  148.7729  141.1796  154.4017 H   0  0  0  0  0  0  0  0  0  0  0  0
  149.7024  138.9997  155.3020 H   0  0  0  0  0  0  0  0  0  0  0  0
  150.9624  139.9881  154.5891 H   0  0  0  0  0  0  0  0  0  0  0  0
  150.6398  142.5481  154.8527 H   0  0  0  0  0  0  0  0  0  0  0  0
  1  2  1  0  0  0  0
  1 15  1  0  0  0  0
  1 16  1  0  0  0  0
  1 17  1  0  0  0  0
  2 18  1  0  0  0  0
  2 19  1  0  0  0  0
  2  3  1  0  0  0  0
  3  4  1  0  0  0  0
  3 13  2  0  0  0  0
  4 14  1  0  0  0  0
  4  5  1  0  0  0  0
  5 12  2  0  0  0  0
  5  6  1  0  0  0  0
  6 11  1  0  0  0  0
  6  7  1  0  0  0  0
  6 20  1  0  0  0  0
  7  8  1  0  0  0  0
  7 21  1  0  0  0  0
  7 22  1  0  0  0  0
  8  9  1  0  0  0  0
  8 23  1  0  0  0  0
  8 28  1  0  0  0  0
  9 10  1  0  0  0  0
  9 24  1  0  0  0  0
  9 25  1  0  0  0  0
 10 11  1  0  0  0  0
 10 26  1  0  0  0  0
 10 27  1  0  0  0  0
 12 13  1  0  0  0  0
M  CHG  1   8   1
M  END
> <s_m_source_file>
AV-unprocessed.smi

> <i_m_source_file_index>
3085

> <i_lp_mmshare_version>
43012

> <i_f3d_flags>
0

> <s_epik_input>
W0NIM11bQ0gyXWMxbmMobltuSF0xKVtDQEBIXTJbQ0gyXVtOSF1bQ0gyXVtDSDJdTzI=

> <s_epik_cmdline>
J2VwaWtfcHl0aG9uJywgJy1waCcsICc3LjAnLCAnLXRuJywgJzgnLCAnLW1hJywgJzIwMCcsICctbWV0YWxfYmluZGluZycsICctaW1hZScsICc8aW5maWxlLm1hZT4nLCAnLW9tYWUnLCAnPG91dGZpbGUubWFlPic=

> <r_lp_tautomer_probability>
0.0517155

> <r_epik_Ionization_Penalty>
0.290065

> <r_epik_Ionization_Penalty_Charging>
0.125708

> <r_epik_Ionization_Penalty_Neutral>
0.164357

> <r_epik_State_Penalty>
2.26879

> <r_epik_Charging_Adjusted_Penalty>
2.39449

> <i_epik_Tot_Q>
1

> <i_epik_Tot_abs_Q>
1

> <r_epik_Metal_State_Penalty>
2.49092

> <b_epik_Metal_Only>
0

> <s_lp_Force_Field>
OPLS_2005

> <r_lp_Energy>
12.4164

> <b_lp_Chiralities_Consistent>
1

> <s_lp_Variant>
AV-unprocessed.smi:3085-9

> <Gold.Version>
5.8.1

> <Gold.Id.Protein>
6NUR|6NUR_protein|mol2

> <Gold.PLP.Fitness>
32.6904

> <Gold.PLP.PLP>
-23.7025

> <Gold.PLP.part.hbond>
-2.0000

> <Gold.PLP.part.metal>
0.0000

> <Gold.PLP.part.buried>
-4.2083

> <Gold.PLP.part.nonpolar>
-17.7775

> <Gold.PLP.part.repulsive>
0.2695

> <Gold.PLP.ligand.clash>
0.0000

> <Gold.PLP.ligand.torsion>
0.0069

> <Gold.PLP.Chemscore.Hbond>
3.0000

> <Gold.PLP.Chemscore.CHOScore>
0.0000

> <Gold.PLP.Chemscore.Metal>
0.0000

> <Gold.Chemscore.Hbonds>
donor molecule, donor type, donor heavy atom, donor atom, acceptor molecule, acceptor atom, score
      L1  H     8    23       P1  8028  2.00
      P1  H  7997  8010       L1    12  1.00

> <Gold.PLP.Chemscore.Internal.Correction>
0.0018

> <Gold.Rescore>
     Score         DG    S(hbond)    S(metal)    S(lipo)     H(rot)  DE(clash)    DE(int)     intcor
     13.00     -13.15       1.57        0.00      49.13       1.30       0.08       0.08       ----

> <Gold.Chemscore.Fitness>
13.0011

> <Gold.Chemscore.DG>
-13.1535

> <Gold.Chemscore.ZeroCoef>
-5.4800

> <Gold.Chemscore.Hbond>
1.5736

> <Gold.Chemscore.Metal>
0.0000

> <Gold.Chemscore.Lipo>
49.1321

> <Gold.Chemscore.Internal_Hbond>
0.0000

> <Gold.Chemscore.DEClash>
0.0756

> <Gold.Chemscore.DEInternal>
0.0767

> <Gold.Chemscore.Rot>
1.3011

> <Gold.Chemscore.Internal.Correction>
   9.000000E+99

> <Gold.Chemscore.Hbonds>
donor molecule, donor type, donor heavy atom, donor atom, acceptor molecule, acceptor atom, score
      L1  H     8    23       P1  8028  0.97
      P1  H  7997  8010       L1    12  0.47

> <Gold.Chemscore.Hbond.Weighted>
-5.2558

> <Gold.Chemscore.Metal.Weighted>
-0.0000

> <Gold.Chemscore.Lipo.Weighted>
-5.7485

> <Gold.Chemscore.Internal_Hbond.Weighted>
0.0000

> <Gold.Chemscore.DEClash.Weighted>
0.0756

> <Gold.Chemscore.DEInternal.Weighted>
0.0767

> <Gold.Chemscore.Rot.Weighted>
3.3308

> <Gold.Chemscore.Internal.Correction.Weighted>
   9.000000E+99

> <Gold.Protein.RotatedTorsions>
[ 6907 6896 6895 6894 ] final -165.13 input  -60.11 | X-H torsion
[ 7974 7965 7964 7962 ] final -156.91 input  175.53 | X-H torsion
[ 8008 7997 7996 7995 ] final   37.27 input   59.86 | X-H torsion
[ 10167 10162 10161 10158 ] final   43.00 input  -65.29 | X-H torsion
[ 10718 10713 10712 10709 ] final   69.49 input   66.30 | X-H torsion
[ 10763 10752 10751 10750 ] final  -13.55 input  -60.55 | X-H torsion
[ 11005 11000 10999 10996 ] final  -68.70 input  -57.11 | X-H torsion

> <Gold.Protein.ActiveResidues>
 VAL166  LYS551  ARG553  GLY616  TRP617  ASP618  TYR619  PRO620  LYS621  CYS622 
 ASP623  PHE694  ASN695  SER759  ASP760  ASP761  ALA762  ILE779  LEU786  VAL792 
 PHE793  MET794  SER795  GLU796  ALA797  LYS798  CYS799  TRP800  GLU811  SER814 

> <Gold.Protein.RotatedAtoms>
  151.4229  133.3693  159.2758 H   0  0  0  0  0  0  0  0  0  0  0  0  # atno 6907 bound_to 6896
  150.9281  134.8698  159.7544 H   0  0  0  0  0  0  0  0  0  0  0  0  # atno 6908 bound_to 6896
  152.5015  134.4171  159.9520 H   0  0  0  0  0  0  0  0  0  0  0  0  # atno 6909 bound_to 6896
  144.7572  140.4044  143.6004 H   0  0  0  0  0  0  0  0  0  0  0  0  # atno 7974 bound_to 7965
  155.2011  140.3316  155.4343 H   0  0  0  0  0  0  0  0  0  0  0  0  # atno 8008 bound_to 7997
  156.2406  140.1893  156.7048 H   0  0  0  0  0  0  0  0  0  0  0  0  # atno 8009 bound_to 7997
  154.6141  140.0605  156.9517 H   0  0  0  0  0  0  0  0  0  0  0  0  # atno 8010 bound_to 7997
  140.3487  144.2377  150.6148 H   0  0  0  0  0  0  0  0  0  0  0  0  # atno 10167 bound_to 10162
  157.6349  130.9428  150.0521 H   0  0  0  0  0  0  0  0  0  0  0  0  # atno 10718 bound_to 10713
  153.5149  135.7016  153.5761 H   0  0  0  0  0  0  0  0  0  0  0  0  # atno 10763 bound_to 10752
  153.3835  135.3914  155.1874 H   0  0  0  0  0  0  0  0  0  0  0  0  # atno 10764 bound_to 10752
  154.8700  135.3841  154.4633 H   0  0  0  0  0  0  0  0  0  0  0  0  # atno 10765 bound_to 10752
  141.1538  133.6747  156.6487 H   0  0  0  0  0  0  0  0  0  0  0  0  # atno 11005 bound_to 11000
  145.6740  139.1605  143.2738 LP  0  0  0  0  0  0  0  0  0  0  0  0  # atno 17320 bound_to 7965
  146.1595  140.6809  142.9284 LP  0  0  0  0  0  0  0  0  0  0  0  0  # atno 17321 bound_to 7965
  140.5239  143.2259  151.8345 LP  0  0  0  0  0  0  0  0  0  0  0  0  # atno 17342 bound_to 10162
  139.4829  144.4803  151.9315 LP  0  0  0  0  0  0  0  0  0  0  0  0  # atno 17343 bound_to 10162
  156.1580  130.3643  149.9341 LP  0  0  0  0  0  0  0  0  0  0  0  0  # atno 17370 bound_to 10713
  156.7346  130.9056  151.3628 LP  0  0  0  0  0  0  0  0  0  0  0  0  # atno 17371 bound_to 10713
  140.3337  134.7907  157.4346 LP  0  0  0  0  0  0  0  0  0  0  0  0  # atno 17394 bound_to 11000
  140.0995  134.5492  155.8366 LP  0  0  0  0  0  0  0  0  0  0  0  0  # atno 17395 bound_to 11000

$$$$
