AV-unprocessed.smi:1005|AV-procd|sdf|4387|dock10
  -GOLD-   22720 2313D 1   1.00000     0.00000
 Structure written by MMmdl.
 55 57  0  0  0  0  0  0  0  0  1 V2000
  153.4696  142.3527  161.5779 C   0  0  0  0  0  0  0  0  0  0  0  0
  152.7602  142.1083  160.2577 C   0  0  0  0  0  0  0  0  0  0  0  0
  152.6813  140.7902  159.7542 C   0  0  0  0  0  0  0  0  0  0  0  0
  152.0303  140.5200  158.5305 C   0  0  0  0  0  0  0  0  0  0  0  0
  151.8375  139.3248  157.8588 N   0  0  0  0  0  0  0  0  0  0  0  0
  151.1652  139.7267  156.7839 C   0  0  0  0  0  0  0  0  0  0  0  0
  150.8997  141.0431  156.6796 N   0  0  0  0  0  0  0  0  0  0  0  0
  150.1866  141.7140  155.6077 C   0  0  0  0  0  0  0  0  0  0  0  0
  148.6768  141.4111  155.6282 C   0  0  1  0  0  0  0  0  0  0  0  0
  148.4559  140.1150  155.1058 O   0  0  0  0  0  0  0  0  0  0  0  0
  148.1063  141.4753  157.0599 C   0  0  0  0  0  0  0  0  0  0  0  0
  147.1039  142.5153  157.2973 N   0  0  0  0  0  0  0  0  0  0  0  0
  146.0745  142.4910  156.2645 C   0  0  0  0  0  0  0  0  0  0  0  0
  145.0044  143.5705  156.4940 C   0  0  0  0  0  0  0  0  0  0  0  0
  144.4396  143.4061  157.7905 O   0  0  0  0  0  0  0  0  0  0  0  0
  145.4046  143.4989  158.8363 C   0  0  1  0  0  0  0  0  0  0  0  0
  144.6610  143.3467  160.1798 C   0  0  0  0  0  0  0  0  0  0  0  0
  145.1703  144.1624  161.2839 N   0  0  0  0  0  0  0  0  0  0  0  0
  146.5744  143.9027  161.5758 C   0  0  0  0  0  0  0  0  0  0  0  0
  144.3624  143.9710  162.4804 C   0  0  0  0  0  0  0  0  0  0  0  0
  146.4598  142.3946  158.6042 C   0  0  0  0  0  0  0  0  0  0  0  0
  151.4551  141.6133  157.8195 C   0  0  0  0  0  0  0  0  0  0  0  0
  151.5267  142.9291  158.3100 C   0  0  0  0  0  0  0  0  0  0  0  0
  152.1809  143.1816  159.5339 C   0  0  0  0  0  0  0  0  0  0  0  0
  152.2542  144.6067  160.0533 C   0  0  0  0  0  0  0  0  0  0  0  0
  153.9097  141.4350  161.9694 H   0  0  0  0  0  0  0  0  0  0  0  0
  152.7686  142.7321  162.3219 H   0  0  0  0  0  0  0  0  0  0  0  0
  154.2717  143.0805  161.4538 H   0  0  0  0  0  0  0  0  0  0  0  0
  153.1217  139.9722  160.3053 H   0  0  0  0  0  0  0  0  0  0  0  0
  150.8490  139.0241  156.0267 H   0  0  0  0  0  0  0  0  0  0  0  0
  150.3649  142.7877  155.6835 H   0  0  0  0  0  0  0  0  0  0  0  0
  150.6216  141.3915  154.6610 H   0  0  0  0  0  0  0  0  0  0  0  0
  148.1786  142.1298  154.9794 H   0  0  0  0  0  0  0  0  0  0  0  0
  148.8723  140.0561  154.2598 H   0  0  0  0  0  0  0  0  0  0  0  0
  147.6766  140.5002  157.2955 H   0  0  0  0  0  0  0  0  0  0  0  0
  148.9279  141.6108  157.7651 H   0  0  0  0  0  0  0  0  0  0  0  0
  146.5288  142.6382  155.2840 H   0  0  0  0  0  0  0  0  0  0  0  0
  145.5961  141.5104  156.2425 H   0  0  0  0  0  0  0  0  0  0  0  0
  145.4336  144.5689  156.3979 H   0  0  0  0  0  0  0  0  0  0  0  0
  144.2145  143.4874  155.7475 H   0  0  0  0  0  0  0  0  0  0  0  0
  145.8683  144.4861  158.7828 H   0  0  0  0  0  0  0  0  0  0  0  0
  143.6241  143.6394  160.0077 H   0  0  0  0  0  0  0  0  0  0  0  0
  144.6183  142.2961  160.4709 H   0  0  0  0  0  0  0  0  0  0  0  0
  146.9053  144.4872  162.4349 H   0  0  0  0  0  0  0  0  0  0  0  0
  147.2085  144.1862  160.7363 H   0  0  0  0  0  0  0  0  0  0  0  0
  146.7435  142.8482  161.7984 H   0  0  0  0  0  0  0  0  0  0  0  0
  144.7049  144.6200  163.2870 H   0  0  0  0  0  0  0  0  0  0  0  0
  144.4138  142.9388  162.8295 H   0  0  0  0  0  0  0  0  0  0  0  0
  143.3168  144.2127  162.2863 H   0  0  0  0  0  0  0  0  0  0  0  0
  145.9856  141.4157  158.6906 H   0  0  0  0  0  0  0  0  0  0  0  0
  147.2032  142.4453  159.3955 H   0  0  0  0  0  0  0  0  0  0  0  0
  151.0819  143.7365  157.7472 H   0  0  0  0  0  0  0  0  0  0  0  0
  151.7003  145.2926  159.4114 H   0  0  0  0  0  0  0  0  0  0  0  0
  153.2900  144.9453  160.0910 H   0  0  0  0  0  0  0  0  0  0  0  0
  151.8305  144.6733  161.0557 H   0  0  0  0  0  0  0  0  0  0  0  0
  1  2  1  0  0  0  0
  1 26  1  0  0  0  0
  1 27  1  0  0  0  0
  1 28  1  0  0  0  0
  2 24  1  0  0  0  0
  2  3  2  0  0  0  0
  3  4  1  0  0  0  0
  3 29  1  0  0  0  0
  4 22  2  0  0  0  0
  4  5  1  0  0  0  0
  5  6  2  0  0  0  0
  6  7  1  0  0  0  0
  6 30  1  0  0  0  0
  7  8  1  0  0  0  0
  7 22  1  0  0  0  0
  8  9  1  0  0  0  0
  8 31  1  0  0  0  0
  8 32  1  0  0  0  0
  9 10  1  0  0  0  0
  9 11  1  0  0  0  0
  9 33  1  0  0  0  0
 10 34  1  0  0  0  0
 11 12  1  0  0  0  0
 11 35  1  0  0  0  0
 11 36  1  0  0  0  0
 12 21  1  0  0  0  0
 12 13  1  0  0  0  0
 13 14  1  0  0  0  0
 13 37  1  0  0  0  0
 13 38  1  0  0  0  0
 14 15  1  0  0  0  0
 14 39  1  0  0  0  0
 14 40  1  0  0  0  0
 15 16  1  0  0  0  0
 16 17  1  0  0  0  0
 16 21  1  0  0  0  0
 16 41  1  0  0  0  0
 17 18  1  0  0  0  0
 17 42  1  0  0  0  0
 17 43  1  0  0  0  0
 18 19  1  0  0  0  0
 18 20  1  0  0  0  0
 19 44  1  0  0  0  0
 19 45  1  0  0  0  0
 19 46  1  0  0  0  0
 20 47  1  0  0  0  0
 20 48  1  0  0  0  0
 20 49  1  0  0  0  0
 21 50  1  0  0  0  0
 21 51  1  0  0  0  0
 22 23  1  0  0  0  0
 23 24  2  0  0  0  0
 23 52  1  0  0  0  0
 24 25  1  0  0  0  0
 25 53  1  0  0  0  0
 25 54  1  0  0  0  0
 25 55  1  0  0  0  0
M  END
> <s_m_source_file>
AV-unprocessed.smi

> <i_m_source_file_index>
1005

> <i_lp_mmshare_version>
43012

> <i_f3d_flags>
0

> <s_epik_input>
W0NIM11jKFtjSF0xKWMoW0NIM10pW2NIXWMoYzEyKW4oW2NIXW4yKVtDSDJdW0NASF0oW09IXSlbQ0gyXU4zW0NIMl1bQ0gyXU9bQ0BIXShbQ0gyXTMpW0NIMl1OKFtDSDNdKVtDSDNd

> <s_epik_cmdline>
J2VwaWtfcHl0aG9uJywgJy1waCcsICc3LjAnLCAnLXRuJywgJzgnLCAnLW1hJywgJzIwMCcsICctbWV0YWxfYmluZGluZycsICctaW1hZScsICc8aW5maWxlLm1hZT4nLCAnLW9tYWUnLCAnPG91dGZpbGUubWFlPic=

> <r_epik_Ionization_Penalty>
2.78613

> <r_epik_Ionization_Penalty_Charging>
0

> <r_epik_Ionization_Penalty_Neutral>
2.78613

> <r_epik_State_Penalty>
2.57336

> <r_epik_Charging_Adjusted_Penalty>
2.57336

> <i_epik_Tot_Q>
0

> <i_epik_Tot_abs_Q>
0

> <r_epik_Metal_State_Penalty>
2.49087

> <b_epik_Metal_Only>
0

> <s_lp_Force_Field>
OPLS_2005

> <r_lp_Energy>
38.3146

> <b_lp_Chiralities_Consistent>
1

> <s_lp_Variant>
AV-unprocessed.smi:1005-26

> <Gold.Version>
5.8.1

> <Gold.Id.Protein>
6NUR|6NUR_protein|mol2

> <Gold.PLP.Fitness>
42.5951

> <Gold.PLP.PLP>
-45.6316

> <Gold.PLP.part.hbond>
0.0000

> <Gold.PLP.part.metal>
0.0000

> <Gold.PLP.part.buried>
-7.5313

> <Gold.PLP.part.nonpolar>
-38.2745

> <Gold.PLP.part.repulsive>
0.2678

> <Gold.PLP.ligand.clash>
0.0000

> <Gold.PLP.ligand.torsion>
1.5586

> <Gold.PLP.Chemscore.Hbond>
0.0000

> <Gold.PLP.Chemscore.CHOScore>
0.0000

> <Gold.PLP.Chemscore.Metal>
0.0000

> <Gold.PLP.Chemscore.Internal.Correction>
0.0808

> <Gold.Rescore>
     Score         DG    S(hbond)    S(metal)    S(lipo)     H(rot)  DE(clash)    DE(int)     intcor
     12.25     -13.89       0.00        0.00     122.00       2.29       0.05       1.59       ----

> <Gold.Chemscore.Fitness>
12.2519

> <Gold.Chemscore.DG>
-13.8932

> <Gold.Chemscore.ZeroCoef>
-5.4800

> <Gold.Chemscore.Hbond>
0.0000

> <Gold.Chemscore.Metal>
0.0000

> <Gold.Chemscore.Lipo>
122.0030

> <Gold.Chemscore.Internal_Hbond>
0.0000

> <Gold.Chemscore.DEClash>
0.0494

> <Gold.Chemscore.DEInternal>
1.5918

> <Gold.Chemscore.Rot>
2.2895

> <Gold.Chemscore.Internal.Correction>
   9.000000E+99

> <Gold.Chemscore.Hbond.Weighted>
-0.0000

> <Gold.Chemscore.Metal.Weighted>
-0.0000

> <Gold.Chemscore.Lipo.Weighted>
-14.2744

> <Gold.Chemscore.Internal_Hbond.Weighted>
0.0000

> <Gold.Chemscore.DEClash.Weighted>
0.0494

> <Gold.Chemscore.DEInternal.Weighted>
1.5918

> <Gold.Chemscore.Rot.Weighted>
5.8612

> <Gold.Chemscore.Internal.Correction.Weighted>
   9.000000E+99

> <Gold.Protein.RotatedTorsions>
[ 6907 6896 6895 6894 ] final -141.93 input  -60.11 | X-H torsion
[ 7974 7965 7964 7962 ] final -138.60 input  175.53 | X-H torsion
[ 8008 7997 7996 7995 ] final  164.97 input   59.86 | X-H torsion
[ 10167 10162 10161 10158 ] final  104.89 input  -65.29 | X-H torsion
[ 10718 10713 10712 10709 ] final   73.95 input   66.30 | X-H torsion
[ 10763 10752 10751 10750 ] final -162.57 input  -60.55 | X-H torsion
[ 11005 11000 10999 10996 ] final   89.41 input  -57.11 | X-H torsion

> <Gold.Protein.ActiveResidues>
 VAL166  LYS551  ARG553  GLY616  TRP617  ASP618  TYR619  PRO620  LYS621  CYS622 
 ASP623  PHE694  ASN695  SER759  ASP760  ASP761  ALA762  ILE779  LEU786  VAL792 
 PHE793  MET794  SER795  GLU796  ALA797  LYS798  CYS799  TRP800  GLU811  SER814 

> <Gold.Protein.RotatedAtoms>
  151.0802  133.5396  159.2620 H   0  0  0  0  0  0  0  0  0  0  0  0  # atno 6907 bound_to 6896
  151.2302  135.0551  159.8994 H   0  0  0  0  0  0  0  0  0  0  0  0  # atno 6908 bound_to 6896
  152.5423  134.0593  159.8198 H   0  0  0  0  0  0  0  0  0  0  0  0  # atno 6909 bound_to 6896
  144.8745  140.6416  143.5245 H   0  0  0  0  0  0  0  0  0  0  0  0  # atno 7974 bound_to 7965
  156.1838  140.1682  156.8224 H   0  0  0  0  0  0  0  0  0  0  0  0  # atno 8008 bound_to 7997
  154.5390  140.0740  156.8510 H   0  0  0  0  0  0  0  0  0  0  0  0  # atno 8009 bound_to 7997
  155.3253  140.3376  155.4243 H   0  0  0  0  0  0  0  0  0  0  0  0  # atno 8010 bound_to 7997
  139.7138  144.7072  151.0983 H   0  0  0  0  0  0  0  0  0  0  0  0  # atno 10167 bound_to 10162
  157.6570  130.9653  150.1141 H   0  0  0  0  0  0  0  0  0  0  0  0  # atno 10718 bound_to 10713
  154.7202  135.3024  154.9059 H   0  0  0  0  0  0  0  0  0  0  0  0  # atno 10763 bound_to 10752
  153.9933  135.6716  153.4759 H   0  0  0  0  0  0  0  0  0  0  0  0  # atno 10764 bound_to 10752
  153.0828  135.5000  154.8453 H   0  0  0  0  0  0  0  0  0  0  0  0  # atno 10765 bound_to 10752
  139.8876  134.8549  156.3138 H   0  0  0  0  0  0  0  0  0  0  0  0  # atno 11005 bound_to 11000
  145.4068  139.1587  143.4147 LP  0  0  0  0  0  0  0  0  0  0  0  0  # atno 17320 bound_to 7965
  146.2953  140.4169  142.8724 LP  0  0  0  0  0  0  0  0  0  0  0  0  # atno 17321 bound_to 7965
  140.7739  143.5256  150.9484 LP  0  0  0  0  0  0  0  0  0  0  0  0  # atno 17342 bound_to 10162
  139.8942  143.6915  152.3141 LP  0  0  0  0  0  0  0  0  0  0  0  0  # atno 17343 bound_to 10162
  156.2030  130.3661  149.8764 LP  0  0  0  0  0  0  0  0  0  0  0  0  # atno 17370 bound_to 10713
  156.6663  130.8802  151.3555 LP  0  0  0  0  0  0  0  0  0  0  0  0  # atno 17371 bound_to 10713
  140.9833  133.7254  156.0704 LP  0  0  0  0  0  0  0  0  0  0  0  0  # atno 17394 bound_to 11000
  140.7721  134.3820  157.5505 LP  0  0  0  0  0  0  0  0  0  0  0  0  # atno 17395 bound_to 11000

$$$$
