AV-unprocessed.smi:518|AV-procd|sdf|2793|dock2
  -GOLD-   2262023263D 1   1.00000     0.00000
 Structure written by MMmdl.
 40 42  0  0  0  0  0  0  0  0  1 V2000
  154.0261  139.5103  158.5512 O   0  0  0  0  0  0  0  0  0  0  0  0
  152.8289  139.2635  159.2553 C   0  0  0  0  0  0  0  0  0  0  0  0
  151.6291  139.4401  158.3152 C   0  0  0  0  0  0  0  0  0  0  0  0
  151.4685  140.8278  157.9098 N   0  0  0  0  0  0  0  0  0  0  0  0
  151.0819  141.3131  156.7033 C   0  0  0  0  0  0  0  0  0  0  0  0
  150.7437  140.4136  155.5504 C   0  0  0  0  0  0  0  0  0  0  0  0
  149.3595  140.5229  155.0915 N   0  0  0  0  0  0  0  0  0  0  0  0
  149.0841  139.4283  154.1577 C   0  0  0  0  0  0  0  0  0  0  0  0
  147.6075  139.4501  153.7250 C   0  0  0  0  0  0  0  0  0  0  0  0
  147.2529  140.7891  153.0688 C   0  0  0  0  0  0  0  0  0  0  0  0
  147.6516  141.9357  154.0047 C   0  0  0  0  0  0  0  0  0  0  0  0
  149.1262  141.8105  154.4274 C   0  0  0  0  0  0  0  0  0  0  0  0
  151.0290  142.6420  156.6022 N   0  0  0  0  0  0  0  0  0  0  0  0
  151.4135  143.0576  157.8620 C   0  0  0  0  0  0  0  0  0  0  0  0
  151.5570  144.3581  158.3958 C   0  0  0  0  0  0  0  0  0  0  0  0
  151.9755  144.5392  159.7304 C   0  0  0  0  0  0  0  0  0  0  0  0
  152.2563  143.4253  160.5487 C   0  0  0  0  0  0  0  0  0  0  0  0
  152.7692  143.6598  162.1790 Cl  0  0  0  0  0  0  0  0  0  0  0  0
  152.1188  142.1208  160.0362 C   0  0  0  0  0  0  0  0  0  0  0  0
  151.6989  141.9458  158.7043 C   0  0  0  0  0  0  0  0  0  0  0  0
  154.7440  139.1342  159.0370 H   0  0  0  0  0  0  0  0  0  0  0  0
  152.8569  138.2504  159.6581 H   0  0  0  0  0  0  0  0  0  0  0  0
  152.7650  139.9505  160.0995 H   0  0  0  0  0  0  0  0  0  0  0  0
  151.7368  138.8109  157.4320 H   0  0  0  0  0  0  0  0  0  0  0  0
  150.7121  139.1165  158.8090 H   0  0  0  0  0  0  0  0  0  0  0  0
  151.4259  140.6198  154.7239 H   0  0  0  0  0  0  0  0  0  0  0  0
  150.9415  139.3872  155.8615 H   0  0  0  0  0  0  0  0  0  0  0  0
  149.7366  139.5031  153.2861 H   0  0  0  0  0  0  0  0  0  0  0  0
  149.3003  138.4734  154.6387 H   0  0  0  0  0  0  0  0  0  0  0  0
  147.4096  138.6319  153.0321 H   0  0  0  0  0  0  0  0  0  0  0  0
  146.9684  139.2832  154.5934 H   0  0  0  0  0  0  0  0  0  0  0  0
  147.7825  140.8867  152.1204 H   0  0  0  0  0  0  0  0  0  0  0  0
  146.1875  140.8337  152.8420 H   0  0  0  0  0  0  0  0  0  0  0  0
  147.4851  142.8934  153.5111 H   0  0  0  0  0  0  0  0  0  0  0  0
  147.0145  141.9288  154.8902 H   0  0  0  0  0  0  0  0  0  0  0  0
  149.3659  142.6311  155.1035 H   0  0  0  0  0  0  0  0  0  0  0  0
  149.7804  141.9099  153.5596 H   0  0  0  0  0  0  0  0  0  0  0  0
  151.3461  145.2175  157.7768 H   0  0  0  0  0  0  0  0  0  0  0  0
  152.0822  145.5385  160.1267 H   0  0  0  0  0  0  0  0  0  0  0  0
  152.3343  141.2644  160.6578 H   0  0  0  0  0  0  0  0  0  0  0  0
  1  2  1  0  0  0  0
  1 21  1  0  0  0  0
  2  3  1  0  0  0  0
  2 22  1  0  0  0  0
  2 23  1  0  0  0  0
  3  4  1  0  0  0  0
  3 24  1  0  0  0  0
  3 25  1  0  0  0  0
  4 20  1  0  0  0  0
  4  5  1  0  0  0  0
  5  6  1  0  0  0  0
  5 13  2  0  0  0  0
  6  7  1  0  0  0  0
  6 26  1  0  0  0  0
  6 27  1  0  0  0  0
  7 12  1  0  0  0  0
  7  8  1  0  0  0  0
  8  9  1  0  0  0  0
  8 28  1  0  0  0  0
  8 29  1  0  0  0  0
  9 10  1  0  0  0  0
  9 30  1  0  0  0  0
  9 31  1  0  0  0  0
 10 11  1  0  0  0  0
 10 32  1  0  0  0  0
 10 33  1  0  0  0  0
 11 12  1  0  0  0  0
 11 34  1  0  0  0  0
 11 35  1  0  0  0  0
 12 36  1  0  0  0  0
 12 37  1  0  0  0  0
 13 14  1  0  0  0  0
 14 20  2  0  0  0  0
 14 15  1  0  0  0  0
 15 16  2  0  0  0  0
 15 38  1  0  0  0  0
 16 17  1  0  0  0  0
 16 39  1  0  0  0  0
 17 18  1  0  0  0  0
 17 19  2  0  0  0  0
 19 20  1  0  0  0  0
 19 40  1  0  0  0  0
M  END
> <s_m_source_file>
AV-unprocessed.smi

> <i_m_source_file_index>
518

> <i_lp_mmshare_version>
43012

> <i_f3d_flags>
0

> <s_epik_input>
W2NIXTFbY0hdYyhDbClbY0hdYyhjMTIpbihbQ0gyXVtDSDJdW09IXSljKG4yKVtDSDJdTjNbQ0gyXVtDSDJdW0NIMl1bQ0gyXVtDSDJdMw==

> <s_epik_cmdline>
J2VwaWtfcHl0aG9uJywgJy1waCcsICc3LjAnLCAnLXRuJywgJzgnLCAnLW1hJywgJzIwMCcsICctbWV0YWxfYmluZGluZycsICctaW1hZScsICc8aW5maWxlLm1hZT4nLCAnLW9tYWUnLCAnPG91dGZpbGUubWFlPic=

> <r_epik_Ionization_Penalty>
0.921249

> <r_epik_Ionization_Penalty_Charging>
0

> <r_epik_Ionization_Penalty_Neutral>
0.921249

> <r_epik_State_Penalty>
0.872823

> <r_epik_Charging_Adjusted_Penalty>
0.872823

> <i_epik_Tot_Q>
0

> <i_epik_Tot_abs_Q>
0

> <r_epik_Metal_State_Penalty>
0.771629

> <b_epik_Metal_Only>
0

> <s_lp_Force_Field>
OPLS_2005

> <r_lp_Energy>
19.1482

> <b_lp_Chiralities_Consistent>
1

> <s_lp_Variant>
AV-unprocessed.smi:518-2

> <Gold.Version>
5.8.1

> <Gold.Id.Protein>
6NUR|6NUR_protein|mol2

> <Gold.PLP.Fitness>
48.5256

> <Gold.PLP.PLP>
-46.3163

> <Gold.PLP.part.hbond>
-1.0000

> <Gold.PLP.part.metal>
0.0000

> <Gold.PLP.part.buried>
-3.3466

> <Gold.PLP.part.nonpolar>
-41.2836

> <Gold.PLP.part.repulsive>
0.1999

> <Gold.PLP.ligand.clash>
0.0000

> <Gold.PLP.ligand.torsion>
0.4045

> <Gold.PLP.Chemscore.Hbond>
1.0000

> <Gold.PLP.Chemscore.CHOScore>
0.0000

> <Gold.PLP.Chemscore.Metal>
0.0000

> <Gold.Chemscore.Hbonds>
donor molecule, donor type, donor heavy atom, donor atom, acceptor molecule, acceptor atom, score
      P1  H  7997  8008       L1     1  1.00

> <Gold.PLP.Chemscore.Internal.Correction>
0.0183

> <Gold.Rescore>
     Score         DG    S(hbond)    S(metal)    S(lipo)     H(rot)  DE(clash)    DE(int)     intcor
     15.76     -18.01       0.83        0.00     127.80       2.02       0.11       2.15       ----

> <Gold.Chemscore.Fitness>
15.7571

> <Gold.Chemscore.DG>
-18.0129

> <Gold.Chemscore.ZeroCoef>
-5.4800

> <Gold.Chemscore.Hbond>
0.8256

> <Gold.Chemscore.Metal>
0.0000

> <Gold.Chemscore.Lipo>
127.8018

> <Gold.Chemscore.Internal_Hbond>
0.0000

> <Gold.Chemscore.DEClash>
0.1089

> <Gold.Chemscore.DEInternal>
2.1469

> <Gold.Chemscore.Rot>
2.0224

> <Gold.Chemscore.Internal.Correction>
   9.000000E+99

> <Gold.Chemscore.Hbonds>
donor molecule, donor type, donor heavy atom, donor atom, acceptor molecule, acceptor atom, score
      P1  H  7997  8008       L1     1  0.40

> <Gold.Chemscore.Hbond.Weighted>
-2.7575

> <Gold.Chemscore.Metal.Weighted>
-0.0000

> <Gold.Chemscore.Lipo.Weighted>
-14.9528

> <Gold.Chemscore.Internal_Hbond.Weighted>
0.0000

> <Gold.Chemscore.DEClash.Weighted>
0.1089

> <Gold.Chemscore.DEInternal.Weighted>
2.1469

> <Gold.Chemscore.Rot.Weighted>
5.1775

> <Gold.Chemscore.Internal.Correction.Weighted>
   9.000000E+99

> <Gold.Protein.RotatedTorsions>
[ 6907 6896 6895 6894 ] final -101.27 input  -60.11 | X-H torsion
[ 7974 7965 7964 7962 ] final   75.84 input  175.53 | X-H torsion
[ 8008 7997 7996 7995 ] final  -95.78 input   59.86 | X-H torsion
[ 10167 10162 10161 10158 ] final -164.42 input  -65.29 | X-H torsion
[ 10718 10713 10712 10709 ] final   95.81 input   66.30 | X-H torsion
[ 10763 10752 10751 10750 ] final   70.17 input  -60.55 | X-H torsion
[ 11005 11000 10999 10996 ] final -146.76 input  -57.11 | X-H torsion

> <Gold.Protein.ActiveResidues>
 VAL166  LYS551  ARG553  GLY616  TRP617  ASP618  TYR619  PRO620  LYS621  CYS622 
 ASP623  PHE694  ASN695  SER759  ASP760  ASP761  ALA762  ILE779  LEU786  VAL792 
 PHE793  MET794  SER795  GLU796  ALA797  LYS798  CYS799  TRP800  GLU811  SER814 

> <Gold.Protein.RotatedAtoms>
  150.7148  134.0759  159.3880 H   0  0  0  0  0  0  0  0  0  0  0  0  # atno 6907 bound_to 6896
  151.8742  135.0476  160.0491 H   0  0  0  0  0  0  0  0  0  0  0  0  # atno 6908 bound_to 6896
  152.2619  133.5269  159.5423 H   0  0  0  0  0  0  0  0  0  0  0  0  # atno 6909 bound_to 6896
  145.7104  139.2613  143.1654 H   0  0  0  0  0  0  0  0  0  0  0  0  # atno 7974 bound_to 7965
  154.7659  140.0477  157.1011 H   0  0  0  0  0  0  0  0  0  0  0  0  # atno 8008 bound_to 7997
  154.9880  140.3109  155.4898 H   0  0  0  0  0  0  0  0  0  0  0  0  # atno 8009 bound_to 7997
  156.2912  140.2224  156.4983 H   0  0  0  0  0  0  0  0  0  0  0  0  # atno 8010 bound_to 7997
  139.6252  144.0547  152.1968 H   0  0  0  0  0  0  0  0  0  0  0  0  # atno 10167 bound_to 10162
  157.6934  131.0558  150.4395 H   0  0  0  0  0  0  0  0  0  0  0  0  # atno 10718 bound_to 10713
  153.0327  135.5183  154.7400 H   0  0  0  0  0  0  0  0  0  0  0  0  # atno 10763 bound_to 10752
  154.6402  135.2911  155.0114 H   0  0  0  0  0  0  0  0  0  0  0  0  # atno 10764 bound_to 10752
  154.1035  135.6633  153.4925 H   0  0  0  0  0  0  0  0  0  0  0  0  # atno 10765 bound_to 10752
  140.7787  134.3105  157.5052 H   0  0  0  0  0  0  0  0  0  0  0  0  # atno 11005 bound_to 11000
  146.0717  140.7861  142.9685 LP  0  0  0  0  0  0  0  0  0  0  0  0  # atno 17320 bound_to 7965
  144.6943  140.3352  143.7209 LP  0  0  0  0  0  0  0  0  0  0  0  0  # atno 17321 bound_to 7965
  140.0199  144.6161  150.7576 LP  0  0  0  0  0  0  0  0  0  0  0  0  # atno 17342 bound_to 10162
  140.7406  143.2807  151.3607 LP  0  0  0  0  0  0  0  0  0  0  0  0  # atno 17343 bound_to 10162
  156.4755  130.4062  149.6492 LP  0  0  0  0  0  0  0  0  0  0  0  0  # atno 17370 bound_to 10713
  156.3557  130.7455  151.2421 LP  0  0  0  0  0  0  0  0  0  0  0  0  # atno 17371 bound_to 10713
  139.8745  134.9305  156.3504 LP  0  0  0  0  0  0  0  0  0  0  0  0  # atno 17394 bound_to 11000
  140.9504  133.7455  156.0264 LP  0  0  0  0  0  0  0  0  0  0  0  0  # atno 17395 bound_to 11000

$$$$
