AV-unprocessed.smi:1303|AV-procd|sdf|5428|dock7
  -GOLD-   22720 4583D 1   1.00000     0.00000
 Structure written by MMmdl.
 40 41  0  0  0  0  0  0  0  0  1 V2000
  148.3196  135.1336  155.2296 C   0  0  0  0  0  0  0  0  0  0  0  0
  149.7748  134.7101  154.9698 C   0  0  0  0  0  0  0  0  0  0  0  0
  150.1720  133.5082  155.8428 C   0  0  0  0  0  0  0  0  0  0  0  0
  150.7359  135.8827  155.2027 C   0  0  0  0  0  0  0  0  0  0  0  0
  151.5889  135.8203  156.0889 O   0  0  0  0  0  0  0  0  0  0  0  0
  150.5975  136.9418  154.3901 N   0  0  0  0  0  0  0  0  0  0  0  0
  151.4511  138.1259  154.4093 C   0  0  0  0  0  0  0  0  0  0  0  0
  150.7972  139.3667  155.0043 C   0  0  0  0  0  0  0  0  0  0  0  0
  149.5688  139.8244  154.4893 C   0  0  0  0  0  0  0  0  0  0  0  0
  148.9906  140.9752  155.0559 C   0  0  0  0  0  0  0  0  0  0  0  0
  149.5533  141.6636  156.0708 N   0  0  0  0  0  0  0  0  0  0  0  0
  150.7354  141.2341  156.5775 C   0  0  0  0  0  0  0  0  0  0  0  0
  151.3094  141.9553  157.6468 N   0  0  0  0  0  0  0  0  0  0  0  0
  152.3594  141.3033  158.4274 C   0  0  0  0  0  0  0  0  0  0  0  0
  152.6607  142.1118  159.7005 C   0  0  0  0  0  0  0  0  0  0  0  0
  152.9887  143.4523  159.3510 O   0  0  0  0  0  0  0  0  0  0  0  0
  151.9114  144.1050  158.6873 C   0  0  0  0  0  0  0  0  0  0  0  0
  151.5800  143.3661  157.3796 C   0  0  0  0  0  0  0  0  0  0  0  0
  151.3939  140.0942  156.0586 C   0  0  0  0  0  0  0  0  0  0  0  0
  148.0427  135.9966  154.6226 H   0  0  0  0  0  0  0  0  0  0  0  0
  148.1579  135.3959  156.2760 H   0  0  0  0  0  0  0  0  0  0  0  0
  147.6300  134.3263  154.9825 H   0  0  0  0  0  0  0  0  0  0  0  0
  149.8520  134.4059  153.9246 H   0  0  0  0  0  0  0  0  0  0  0  0
  151.2071  133.2128  155.6645 H   0  0  0  0  0  0  0  0  0  0  0  0
  149.5441  132.6442  155.6244 H   0  0  0  0  0  0  0  0  0  0  0  0
  150.0681  133.7314  156.9055 H   0  0  0  0  0  0  0  0  0  0  0  0
  149.8716  136.9128  153.6890 H   0  0  0  0  0  0  0  0  0  0  0  0
  152.3401  137.8943  154.9957 H   0  0  0  0  0  0  0  0  0  0  0  0
  151.7963  138.3426  153.3968 H   0  0  0  0  0  0  0  0  0  0  0  0
  149.0774  139.3066  153.6788 H   0  0  0  0  0  0  0  0  0  0  0  0
  148.0490  141.3528  154.6854 H   0  0  0  0  0  0  0  0  0  0  0  0
  152.0523  140.2942  158.7043 H   0  0  0  0  0  0  0  0  0  0  0  0
  153.2607  141.2157  157.8193 H   0  0  0  0  0  0  0  0  0  0  0  0
  151.8073  142.0995  160.3804 H   0  0  0  0  0  0  0  0  0  0  0  0
  153.5003  141.6685  160.2361 H   0  0  0  0  0  0  0  0  0  0  0  0
  151.0390  144.1476  159.3415 H   0  0  0  0  0  0  0  0  0  0  0  0
  152.1983  145.1344  158.4730 H   0  0  0  0  0  0  0  0  0  0  0  0
  152.4207  143.4375  156.6885 H   0  0  0  0  0  0  0  0  0  0  0  0
  150.7347  143.8579  156.9004 H   0  0  0  0  0  0  0  0  0  0  0  0
  152.3483  139.7850  156.4572 H   0  0  0  0  0  0  0  0  0  0  0  0
  1  2  1  0  0  0  0
  1 20  1  0  0  0  0
  1 21  1  0  0  0  0
  1 22  1  0  0  0  0
  2  3  1  0  0  0  0
  2  4  1  0  0  0  0
  2 23  1  0  0  0  0
  3 24  1  0  0  0  0
  3 25  1  0  0  0  0
  3 26  1  0  0  0  0
  4  5  2  0  0  0  0
  4  6  1  0  0  0  0
  6  7  1  0  0  0  0
  6 27  1  0  0  0  0
  7  8  1  0  0  0  0
  7 28  1  0  0  0  0
  7 29  1  0  0  0  0
  8 19  1  0  0  0  0
  8  9  2  0  0  0  0
  9 10  1  0  0  0  0
  9 30  1  0  0  0  0
 10 11  2  0  0  0  0
 10 31  1  0  0  0  0
 11 12  1  0  0  0  0
 12 13  1  0  0  0  0
 12 19  2  0  0  0  0
 13 18  1  0  0  0  0
 13 14  1  0  0  0  0
 14 15  1  0  0  0  0
 14 32  1  0  0  0  0
 14 33  1  0  0  0  0
 15 16  1  0  0  0  0
 15 34  1  0  0  0  0
 15 35  1  0  0  0  0
 16 17  1  0  0  0  0
 17 18  1  0  0  0  0
 17 36  1  0  0  0  0
 17 37  1  0  0  0  0
 18 38  1  0  0  0  0
 18 39  1  0  0  0  0
 19 40  1  0  0  0  0
M  END
> <s_m_source_file>
AV-unprocessed.smi

> <i_m_source_file_index>
1303

> <i_lp_mmshare_version>
43012

> <i_f3d_flags>
0

> <s_epik_input>
W0NIM11bQ0hdKFtDSDNdKUMoPU8pW05IXVtDSDJdYzFbY0hdW2NIXW5jKFtjSF0xKU4yW0NIMl1bQ0gyXU9bQ0gyXVtDSDJdMg==

> <s_epik_cmdline>
J2VwaWtfcHl0aG9uJywgJy1waCcsICc3LjAnLCAnLXRuJywgJzgnLCAnLW1hJywgJzIwMCcsICctbWV0YWxfYmluZGluZycsICctaW1hZScsICc8aW5maWxlLm1hZT4nLCAnLW9tYWUnLCAnPG91dGZpbGUubWFlPic=

> <r_lp_tautomer_probability>
1

> <r_epik_Ionization_Penalty>
0.00576177

> <r_epik_Ionization_Penalty_Charging>
0

> <r_epik_Ionization_Penalty_Neutral>
0.00576177

> <r_epik_State_Penalty>
0.00422935

> <r_epik_Charging_Adjusted_Penalty>
0.00422935

> <i_epik_Tot_Q>
0

> <i_epik_Tot_abs_Q>
0

> <r_epik_Metal_State_Penalty>
-0

> <b_epik_Metal_Only>
0

> <s_lp_Force_Field>
OPLS_2005

> <r_lp_Energy>
14.5519

> <b_lp_Chiralities_Consistent>
1

> <s_lp_Variant>
AV-unprocessed.smi:1303-1

> <Gold.Version>
5.8.1

> <Gold.Id.Protein>
6NUR|6NUR_protein|mol2

> <Gold.PLP.Fitness>
44.0580

> <Gold.PLP.PLP>
-38.5069

> <Gold.PLP.part.hbond>
-3.0000

> <Gold.PLP.part.metal>
0.0000

> <Gold.PLP.part.buried>
-4.7171

> <Gold.PLP.part.nonpolar>
-31.1930

> <Gold.PLP.part.repulsive>
0.4704

> <Gold.PLP.ligand.clash>
0.0000

> <Gold.PLP.ligand.torsion>
0.3960

> <Gold.PLP.Chemscore.Hbond>
2.0000

> <Gold.PLP.Chemscore.CHOScore>
0.0000

> <Gold.PLP.Chemscore.Metal>
0.0000

> <Gold.Chemscore.Hbonds>
donor molecule, donor type, donor heavy atom, donor atom, acceptor molecule, acceptor atom, score
      L1  H     6    27       P1  7948  0.78
      P1  H 10752 10763       L1     5  0.75

> <Gold.PLP.Chemscore.Internal.Correction>
0.3431

> <Gold.Rescore>
     Score         DG    S(hbond)    S(metal)    S(lipo)     H(rot)  DE(clash)    DE(int)     intcor
     16.53     -17.28       1.53        0.00      91.17       1.56       0.02       0.73       ----

> <Gold.Chemscore.Fitness>
16.5295

> <Gold.Chemscore.DG>
-17.2754

> <Gold.Chemscore.ZeroCoef>
-5.4800

> <Gold.Chemscore.Hbond>
1.5324

> <Gold.Chemscore.Metal>
0.0000

> <Gold.Chemscore.Lipo>
91.1692

> <Gold.Chemscore.Internal_Hbond>
0.0000

> <Gold.Chemscore.DEClash>
0.0191

> <Gold.Chemscore.DEInternal>
0.7268

> <Gold.Chemscore.Rot>
1.5584

> <Gold.Chemscore.Internal.Correction>
   9.000000E+99

> <Gold.Chemscore.Hbonds>
donor molecule, donor type, donor heavy atom, donor atom, acceptor molecule, acceptor atom, score
      L1  H     6    27       P1  7948  0.37
      P1  H 10752 10763       L1     5  0.09

> <Gold.Chemscore.Hbond.Weighted>
-5.1181

> <Gold.Chemscore.Metal.Weighted>
-0.0000

> <Gold.Chemscore.Lipo.Weighted>
-10.6668

> <Gold.Chemscore.Internal_Hbond.Weighted>
0.0000

> <Gold.Chemscore.DEClash.Weighted>
0.0191

> <Gold.Chemscore.DEInternal.Weighted>
0.7268

> <Gold.Chemscore.Rot.Weighted>
3.9895

> <Gold.Chemscore.Internal.Correction.Weighted>
   9.000000E+99

> <Gold.Protein.RotatedTorsions>
[ 6907 6896 6895 6894 ] final   64.55 input  -60.11 | X-H torsion
[ 7974 7965 7964 7962 ] final  -92.24 input  175.53 | X-H torsion
[ 8008 7997 7996 7995 ] final  104.50 input   59.86 | X-H torsion
[ 10167 10162 10161 10158 ] final   11.78 input  -65.29 | X-H torsion
[ 10718 10713 10712 10709 ] final -149.97 input   66.30 | X-H torsion
[ 10763 10752 10751 10750 ] final   78.12 input  -60.55 | X-H torsion
[ 11005 11000 10999 10996 ] final   66.39 input  -57.11 | X-H torsion

> <Gold.Protein.ActiveResidues>
 VAL166  LYS551  ARG553  GLY616  TRP617  ASP618  TYR619  PRO620  LYS621  CYS622 
 ASP623  PHE694  ASN695  SER759  ASP760  ASP761  ALA762  ILE779  LEU786  VAL792 
 PHE793  MET794  SER795  GLU796  ALA797  LYS798  CYS799  TRP800  GLU811  SER814 

> <Gold.Protein.RotatedAtoms>
  152.4340  134.5723  159.9924 H   0  0  0  0  0  0  0  0  0  0  0  0  # atno 6907 bound_to 6896
  151.5838  133.3369  159.3022 H   0  0  0  0  0  0  0  0  0  0  0  0  # atno 6908 bound_to 6896
  150.8236  134.7491  159.6858 H   0  0  0  0  0  0  0  0  0  0  0  0  # atno 6909 bound_to 6896
  145.4024  140.9538  143.2280 H   0  0  0  0  0  0  0  0  0  0  0  0  # atno 7974 bound_to 7965
  156.1578  140.3146  155.8756 H   0  0  0  0  0  0  0  0  0  0  0  0  # atno 8008 bound_to 7997
  155.3842  140.0489  157.3060 H   0  0  0  0  0  0  0  0  0  0  0  0  # atno 8009 bound_to 7997
  154.5118  140.2167  155.9153 H   0  0  0  0  0  0  0  0  0  0  0  0  # atno 8010 bound_to 7997
  140.6110  143.8408  150.7065 H   0  0  0  0  0  0  0  0  0  0  0  0  # atno 10167 bound_to 10162
  156.4400  130.8117  151.2346 H   0  0  0  0  0  0  0  0  0  0  0  0  # atno 10718 bound_to 10713
  153.0850  135.4889  154.8578 H   0  0  0  0  0  0  0  0  0  0  0  0  # atno 10763 bound_to 10752
  154.7199  135.3037  154.9067 H   0  0  0  0  0  0  0  0  0  0  0  0  # atno 10764 bound_to 10752
  153.9734  135.6798  153.4801 H   0  0  0  0  0  0  0  0  0  0  0  0  # atno 10765 bound_to 10752
  139.9835  134.6706  156.0219 H   0  0  0  0  0  0  0  0  0  0  0  0  # atno 11005 bound_to 11000
  144.8365  139.5542  143.6920 LP  0  0  0  0  0  0  0  0  0  0  0  0  # atno 17320 bound_to 7965
  146.2745  139.6718  142.9272 LP  0  0  0  0  0  0  0  0  0  0  0  0  # atno 17321 bound_to 7965
  140.1976  143.3985  152.1816 LP  0  0  0  0  0  0  0  0  0  0  0  0  # atno 17342 bound_to 10162
  139.5361  144.7211  151.4888 LP  0  0  0  0  0  0  0  0  0  0  0  0  # atno 17343 bound_to 10162
  157.7506  131.0171  150.3572 LP  0  0  0  0  0  0  0  0  0  0  0  0  # atno 17370 bound_to 10713
  156.3928  130.3901  149.7017 LP  0  0  0  0  0  0  0  0  0  0  0  0  # atno 17371 bound_to 10713
  141.1503  133.6549  156.3994 LP  0  0  0  0  0  0  0  0  0  0  0  0  # atno 17394 bound_to 11000
  140.5050  134.6450  157.5263 LP  0  0  0  0  0  0  0  0  0  0  0  0  # atno 17395 bound_to 11000

$$$$
