AV-unprocessed.smi:115|AV-procd|sdf|1126|dock9
  -GOLD-   2262018253D 1   1.00000     0.00000
 Structure written by MMmdl.
 55 57  0  0  0  0  0  0  0  0  1 V2000
  151.9986  144.7119  159.3142 C   0  0  0  0  0  0  0  0  0  0  0  0
  151.1359  144.0895  158.3782 O   0  0  0  0  0  0  0  0  0  0  0  0
  151.0229  142.6904  158.5855 C   0  0  0  0  0  0  0  0  0  0  0  0
  150.3562  142.0520  157.3498 C   0  0  1  0  0  0  0  0  0  0  0  0
  151.2862  141.9376  156.1296 C   0  0  0  0  0  0  0  0  0  0  0  0
  149.6732  140.7801  157.6395 N   0  0  0  0  0  0  0  0  0  0  0  0
  148.3130  140.5626  157.4218 C   0  0  0  0  0  0  0  0  0  0  0  0
  147.3874  141.5987  156.8662 C   0  0  0  0  0  0  0  0  0  0  0  0
  148.0242  139.2886  157.8062 C   0  0  0  0  0  0  0  0  0  0  0  0
  149.2185  138.6706  158.2616 C   0  0  0  0  0  0  0  0  0  0  0  0
  149.3804  137.2978  158.8056 C   0  0  0  0  0  0  0  0  0  0  0  0
  150.3887  136.9216  159.4049 O   0  0  0  0  0  0  0  0  0  0  0  0
  148.1864  136.3488  158.5908 C   0  0  0  0  0  0  0  0  0  0  0  0
  148.0146  135.3944  159.6791 N   0  0  0  0  0  0  0  0  0  0  0  0
  147.8393  135.9042  160.9900 C   0  0  0  0  0  0  0  0  0  0  0  0
  147.8206  137.1135  161.2261 O   0  0  0  0  0  0  0  0  0  0  0  0
  147.7025  134.8833  162.0232 C   0  0  0  0  0  0  0  0  0  0  0  0
  147.5338  135.2530  163.3041 F   0  0  0  0  0  0  0  0  0  0  0  0
  147.7493  133.5690  161.7165 C   0  0  0  0  0  0  0  0  0  0  0  0
  147.9246  133.0997  160.4253 N   0  0  0  0  0  0  0  0  0  0  0  0
  147.9932  131.6184  160.1255 C   0  0  1  0  0  0  0  0  0  0  0  0
  149.2335  131.0022  160.7824 C   0  0  0  0  0  0  0  0  0  0  0  0
  148.6776  130.5244  162.1059 C   0  0  0  0  0  0  0  0  0  0  0  0
  147.2709  130.0908  161.7091 C   0  0  0  0  0  0  0  0  0  0  0  0
  146.8721  130.9863  160.6736 O   0  0  0  0  0  0  0  0  0  0  0  0
  148.0759  134.0160  159.3623 C   0  0  0  0  0  0  0  0  0  0  0  0
  148.2701  133.6211  158.2102 O   0  0  0  0  0  0  0  0  0  0  0  0
  150.2364  139.5883  158.1229 C   0  0  0  0  0  0  0  0  0  0  0  0
  151.7056  139.4448  158.4121 C   0  0  0  0  0  0  0  0  0  0  0  0
  152.0464  145.7819  159.1121 H   0  0  0  0  0  0  0  0  0  0  0  0
  153.0106  144.3111  159.2454 H   0  0  0  0  0  0  0  0  0  0  0  0
  151.6368  144.5781  160.3344 H   0  0  0  0  0  0  0  0  0  0  0  0
  152.0124  142.2769  158.7736 H   0  0  0  0  0  0  0  0  0  0  0  0
  150.4132  142.5095  159.4723 H   0  0  0  0  0  0  0  0  0  0  0  0
  149.5872  142.7680  157.0667 H   0  0  0  0  0  0  0  0  0  0  0  0
  151.6980  142.9113  155.8637 H   0  0  0  0  0  0  0  0  0  0  0  0
  150.7407  141.5675  155.2611 H   0  0  0  0  0  0  0  0  0  0  0  0
  152.1251  141.2657  156.2991 H   0  0  0  0  0  0  0  0  0  0  0  0
  146.3970  141.1785  156.6901 H   0  0  0  0  0  0  0  0  0  0  0  0
  147.7548  141.9849  155.9152 H   0  0  0  0  0  0  0  0  0  0  0  0
  147.2741  142.4331  157.5587 H   0  0  0  0  0  0  0  0  0  0  0  0
  147.0397  138.8458  157.7677 H   0  0  0  0  0  0  0  0  0  0  0  0
  147.2580  136.9105  158.4790 H   0  0  0  0  0  0  0  0  0  0  0  0
  148.2953  135.7829  157.6642 H   0  0  0  0  0  0  0  0  0  0  0  0
  147.6510  132.8637  162.5279 H   0  0  0  0  0  0  0  0  0  0  0  0
  147.9733  131.5276  159.0383 H   0  0  0  0  0  0  0  0  0  0  0  0
  149.5628  130.1561  160.1782 H   0  0  0  0  0  0  0  0  0  0  0  0
  150.0555  131.7130  160.8745 H   0  0  0  0  0  0  0  0  0  0  0  0
  149.2628  129.7197  162.5515 H   0  0  0  0  0  0  0  0  0  0  0  0
  148.6342  131.3496  162.8176 H   0  0  0  0  0  0  0  0  0  0  0  0
  147.2872  129.0777  161.3057 H   0  0  0  0  0  0  0  0  0  0  0  0
  146.5734  130.1122  162.5465 H   0  0  0  0  0  0  0  0  0  0  0  0
  152.0457  138.4218  158.2622 H   0  0  0  0  0  0  0  0  0  0  0  0
  151.9265  139.7247  159.4421 H   0  0  0  0  0  0  0  0  0  0  0  0
  152.3225  140.0478  157.7529 H   0  0  0  0  0  0  0  0  0  0  0  0
  1  2  1  0  0  0  0
  1 30  1  0  0  0  0
  1 31  1  0  0  0  0
  1 32  1  0  0  0  0
  2  3  1  0  0  0  0
  3  4  1  0  0  0  0
  3 33  1  0  0  0  0
  3 34  1  0  0  0  0
  4  5  1  0  0  0  0
  4  6  1  0  0  0  0
  4 35  1  0  0  0  0
  5 36  1  0  0  0  0
  5 37  1  0  0  0  0
  5 38  1  0  0  0  0
  6 28  1  0  0  0  0
  6  7  1  0  0  0  0
  7  8  1  0  0  0  0
  7  9  2  0  0  0  0
  8 39  1  0  0  0  0
  8 40  1  0  0  0  0
  8 41  1  0  0  0  0
  9 10  1  0  0  0  0
  9 42  1  0  0  0  0
 10 11  1  0  0  0  0
 10 28  2  0  0  0  0
 11 12  2  0  0  0  0
 11 13  1  0  0  0  0
 13 14  1  0  0  0  0
 13 43  1  0  0  0  0
 13 44  1  0  0  0  0
 14 26  1  0  0  0  0
 14 15  1  0  0  0  0
 15 16  2  0  0  0  0
 15 17  1  0  0  0  0
 17 18  1  0  0  0  0
 17 19  2  0  0  0  0
 19 20  1  0  0  0  0
 19 45  1  0  0  0  0
 20 21  1  0  0  0  0
 20 26  1  0  0  0  0
 21 25  1  0  0  0  0
 21 22  1  0  0  0  0
 21 46  1  0  0  0  0
 22 23  1  0  0  0  0
 22 47  1  0  0  0  0
 22 48  1  0  0  0  0
 23 24  1  0  0  0  0
 23 49  1  0  0  0  0
 23 50  1  0  0  0  0
 24 25  1  0  0  0  0
 24 51  1  0  0  0  0
 24 52  1  0  0  0  0
 26 27  2  0  0  0  0
 28 29  1  0  0  0  0
 29 53  1  0  0  0  0
 29 54  1  0  0  0  0
 29 55  1  0  0  0  0
M  END
> <s_m_source_file>
AV-unprocessed.smi

> <i_m_source_file_index>
115

> <i_lp_mmshare_version>
43012

> <i_f3d_flags>
0

> <s_epik_input>
W0NIM11PW0NIMl1bQ0BIXShbQ0gzXSluMWMoW0NIM10pW2NIXWMoYzFbQ0gzXSlDKD1PKVtDSDJdbjJjKD1PKWMoRilbY0hdbihjMj1PKVtDQEBIXTNbQ0gyXVtDSDJdW0NIMl1PMw==

> <s_epik_cmdline>
J2VwaWtfcHl0aG9uJywgJy1waCcsICc3LjAnLCAnLXRuJywgJzgnLCAnLW1hJywgJzIwMCcsICctbWV0YWxfYmluZGluZycsICctaW1hZScsICc8aW5maWxlLm1hZT4nLCAnLW9tYWUnLCAnPG91dGZpbGUubWFlPic=

> <r_lp_tautomer_probability>
1

> <r_epik_Ionization_Penalty>
5.02611e-09

> <r_epik_Ionization_Penalty_Charging>
5.01743e-09

> <r_epik_Ionization_Penalty_Neutral>
8.68114e-12

> <r_epik_State_Penalty>
-0

> <r_epik_Charging_Adjusted_Penalty>
5.01743e-09

> <i_epik_Tot_Q>
0

> <i_epik_Tot_abs_Q>
0

> <r_epik_Metal_State_Penalty>
-0

> <b_epik_Metal_Only>
0

> <s_epik_Chemistry_Notes>
This compound contains an acetal/aminal-like group ( X-CH(R)-Y where X, Y are N, S, or O) that may be acid/base labile, releasing an aldehyde.

> <s_lp_Force_Field>
OPLS_2005

> <r_lp_Energy>
46.6669

> <b_lp_Chiralities_Consistent>
1

> <s_lp_Variant>
AV-unprocessed.smi:115-4

> <Gold.Version>
5.8.1

> <Gold.Id.Protein>
6NUR|6NUR_protein|mol2

> <Gold.PLP.Fitness>
49.7564

> <Gold.PLP.PLP>
-42.6095

> <Gold.PLP.part.hbond>
-2.9730

> <Gold.PLP.part.metal>
0.0000

> <Gold.PLP.part.buried>
-8.4548

> <Gold.PLP.part.nonpolar>
-31.3067

> <Gold.PLP.part.repulsive>
0.1358

> <Gold.PLP.ligand.clash>
0.0000

> <Gold.PLP.ligand.torsion>
0.8816

> <Gold.PLP.Chemscore.Hbond>
2.8554

> <Gold.PLP.Chemscore.CHOScore>
0.0000

> <Gold.PLP.Chemscore.Metal>
0.0000

> <Gold.Chemscore.Hbonds>
donor molecule, donor type, donor heavy atom, donor atom, acceptor molecule, acceptor atom, score
      P1  H  6896  6908       L1    12  1.00
      P1  H  6931  6943       L1    16  1.00
      P1  H  6934  6947       L1    16  0.80

> <Gold.PLP.Chemscore.Internal.Correction>
0.3439

> <Gold.Rescore>
     Score         DG    S(hbond)    S(metal)    S(lipo)     H(rot)  DE(clash)    DE(int)     intcor
     15.08     -18.50       2.73        0.00      81.28       2.19       0.43       2.99       ----

> <Gold.Chemscore.Fitness>
15.0759

> <Gold.Chemscore.DG>
-18.4982

> <Gold.Chemscore.ZeroCoef>
-5.4800

> <Gold.Chemscore.Hbond>
2.7317

> <Gold.Chemscore.Metal>
0.0000

> <Gold.Chemscore.Lipo>
81.2843

> <Gold.Chemscore.Internal_Hbond>
0.0000

> <Gold.Chemscore.DEClash>
0.4320

> <Gold.Chemscore.DEInternal>
2.9903

> <Gold.Chemscore.Rot>
2.1938

> <Gold.Chemscore.Internal.Correction>
   9.000000E+99

> <Gold.Chemscore.Hbonds>
donor molecule, donor type, donor heavy atom, donor atom, acceptor molecule, acceptor atom, score
      P1  H  6896  6908       L1    12  0.93
      P1  H  6931  6943       L1    16  0.95
      P1  H  6934  6947       L1    16  0.74

> <Gold.Chemscore.Hbond.Weighted>
-9.1240

> <Gold.Chemscore.Metal.Weighted>
-0.0000

> <Gold.Chemscore.Lipo.Weighted>
-9.5103

> <Gold.Chemscore.Internal_Hbond.Weighted>
0.0000

> <Gold.Chemscore.DEClash.Weighted>
0.4320

> <Gold.Chemscore.DEInternal.Weighted>
2.9903

> <Gold.Chemscore.Rot.Weighted>
5.6160

> <Gold.Chemscore.Internal.Correction.Weighted>
   9.000000E+99

> <Gold.Protein.RotatedTorsions>
[ 6907 6896 6895 6894 ] final -149.08 input  -60.11 | X-H torsion
[ 7974 7965 7964 7962 ] final  172.88 input  175.53 | X-H torsion
[ 8008 7997 7996 7995 ] final -108.54 input   59.86 | X-H torsion
[ 10167 10162 10161 10158 ] final  144.49 input  -65.29 | X-H torsion
[ 10718 10713 10712 10709 ] final -142.70 input   66.30 | X-H torsion
[ 10763 10752 10751 10750 ] final -150.95 input  -60.55 | X-H torsion
[ 11005 11000 10999 10996 ] final  -75.80 input  -57.11 | X-H torsion

> <Gold.Protein.ActiveResidues>
 VAL166  LYS551  ARG553  GLY616  TRP617  ASP618  TYR619  PRO620  LYS621  CYS622 
 ASP623  PHE694  ASN695  SER759  ASP760  ASP761  ALA762  ILE779  LEU786  VAL792 
 PHE793  MET794  SER795  GLU796  ALA797  LYS798  CYS799  TRP800  GLU811  SER814 

> <Gold.Protein.RotatedAtoms>
  151.1790  133.4737  159.2593 H   0  0  0  0  0  0  0  0  0  0  0  0  # atno 6907 bound_to 6896
  151.1278  135.0114  159.8578 H   0  0  0  0  0  0  0  0  0  0  0  0  # atno 6908 bound_to 6896
  152.5459  134.1696  159.8644 H   0  0  0  0  0  0  0  0  0  0  0  0  # atno 6909 bound_to 6896
  144.7257  139.9564  143.6433 H   0  0  0  0  0  0  0  0  0  0  0  0  # atno 7974 bound_to 7965
  154.9458  140.0402  157.2119 H   0  0  0  0  0  0  0  0  0  0  0  0  # atno 8008 bound_to 7997
  154.8025  140.2854  155.5889 H   0  0  0  0  0  0  0  0  0  0  0  0  # atno 8009 bound_to 7997
  156.2963  140.2552  156.2897 H   0  0  0  0  0  0  0  0  0  0  0  0  # atno 8010 bound_to 7997
  139.4946  144.5968  151.6565 H   0  0  0  0  0  0  0  0  0  0  0  0  # atno 10167 bound_to 10162
  156.3491  130.7678  151.1828 H   0  0  0  0  0  0  0  0  0  0  0  0  # atno 10718 bound_to 10713
  154.8088  135.3272  154.7361 H   0  0  0  0  0  0  0  0  0  0  0  0  # atno 10763 bound_to 10752
  153.8014  135.6903  153.4859 H   0  0  0  0  0  0  0  0  0  0  0  0  # atno 10764 bound_to 10752
  153.1851  135.4572  155.0024 H   0  0  0  0  0  0  0  0  0  0  0  0  # atno 10765 bound_to 10752
  141.1648  133.6960  156.7571 H   0  0  0  0  0  0  0  0  0  0  0  0  # atno 11005 bound_to 11000
  146.0671  139.3662  143.0545 LP  0  0  0  0  0  0  0  0  0  0  0  0  # atno 17320 bound_to 7965
  145.8016  140.9768  143.0995 LP  0  0  0  0  0  0  0  0  0  0  0  0  # atno 17321 bound_to 7965
  140.5608  144.0271  150.6169 LP  0  0  0  0  0  0  0  0  0  0  0  0  # atno 17342 bound_to 10162
  140.3357  143.3050  152.0641 LP  0  0  0  0  0  0  0  0  0  0  0  0  # atno 17343 bound_to 10162
  157.7458  131.0432  150.4735 LP  0  0  0  0  0  0  0  0  0  0  0  0  # atno 17370 bound_to 10713
  156.4927  130.4099  149.6397 LP  0  0  0  0  0  0  0  0  0  0  0  0  # atno 17371 bound_to 10713
  140.2561  134.8503  157.3714 LP  0  0  0  0  0  0  0  0  0  0  0  0  # atno 17394 bound_to 11000
  140.1656  134.4673  155.7865 LP  0  0  0  0  0  0  0  0  0  0  0  0  # atno 17395 bound_to 11000

$$$$
