AV-unprocessed.smi:104|AV-procd|sdf|998|dock1
  -GOLD-   2262017583D 1   1.00000     0.00000
 Structure written by MMmdl.
 47 49  0  0  0  0  0  0  0  0  1 V2000
  152.0040  144.7795  158.8920 C   0  0  0  0  0  0  0  0  0  0  0  0
  152.1396  143.2893  158.6086 C   0  0  0  0  0  0  0  0  0  0  0  0
  152.9281  142.5876  159.2409 O   0  0  0  0  0  0  0  0  0  0  0  0
  151.3203  142.8787  157.6242 O   0  0  0  0  0  0  0  0  0  0  0  0
  151.3994  141.5541  157.1141 C   0  0  0  0  0  0  0  0  0  0  0  0
  150.2980  140.6689  157.7245 C   0  0  1  0  0  0  0  0  0  0  0  0
  149.0275  140.9717  157.1748 O   0  0  0  0  0  0  0  0  0  0  0  0
  148.1634  139.9477  157.5460 C   0  0  1  0  0  0  0  0  0  0  0  0
  147.1015  139.8243  156.5049 N   0  0  0  0  0  0  0  0  0  0  0  0
  146.9945  140.4554  155.2864 C   0  0  0  0  0  0  0  0  0  0  0  0
  148.2872  141.7101  154.6685 Br  0  0  0  0  0  0  0  0  0  0  0  0
  145.9501  140.1704  154.5595 N   0  0  0  0  0  0  0  0  0  0  0  0
  145.2661  139.2559  155.3513 C   0  0  0  0  0  0  0  0  0  0  0  0
  144.0556  138.5334  155.2018 C   0  0  0  0  0  0  0  0  0  0  0  0
  143.2738  138.6334  154.1183 N   0  0  0  0  0  0  0  0  0  0  0  0
  143.6690  137.7043  156.1999 N   0  0  0  0  0  0  0  0  0  0  0  0
  144.4310  137.5865  157.2923 C   0  0  0  0  0  0  0  0  0  0  0  0
  145.5865  138.1938  157.5740 N   0  0  0  0  0  0  0  0  0  0  0  0
  145.9750  139.0302  156.5670 C   0  0  0  0  0  0  0  0  0  0  0  0
  148.9900  138.6541  157.6284 C   0  0  2  0  0  0  0  0  0  0  0  0
  148.7861  137.9965  158.8714 O   0  0  0  0  0  0  0  0  0  0  0  0
  149.3397  136.7917  159.0942 C   0  0  0  0  0  0  0  0  0  0  0  0
  148.6895  136.0609  160.2610 C   0  0  0  0  0  0  0  0  0  0  0  0
  150.2611  136.2871  158.4523 O   0  0  0  0  0  0  0  0  0  0  0  0
  150.4307  139.1530  157.5289 C   0  0  1  0  0  0  0  0  0  0  0  0
  150.9615  138.8391  156.2465 O   0  0  0  0  0  0  0  0  0  0  0  0
  152.2850  138.9024  156.0217 C   0  0  0  0  0  0  0  0  0  0  0  0
  152.6399  138.5933  154.5738 C   0  0  0  0  0  0  0  0  0  0  0  0
  153.1498  139.1699  156.8558 O   0  0  0  0  0  0  0  0  0  0  0  0
  151.1789  144.9580  159.5813 H   0  0  0  0  0  0  0  0  0  0  0  0
  151.8121  145.3296  157.9705 H   0  0  0  0  0  0  0  0  0  0  0  0
  152.9195  145.1673  159.3393 H   0  0  0  0  0  0  0  0  0  0  0  0
  151.2306  141.6265  156.0396 H   0  0  0  0  0  0  0  0  0  0  0  0
  152.3909  141.1151  157.2322 H   0  0  0  0  0  0  0  0  0  0  0  0
  150.2276  140.8817  158.7932 H   0  0  0  0  0  0  0  0  0  0  0  0
  147.6549  140.2046  158.4751 H   0  0  0  0  0  0  0  0  0  0  0  0
  143.5402  139.2461  153.3609 H   0  0  0  0  0  0  0  0  0  0  0  0
  142.4195  138.0980  154.0616 H   0  0  0  0  0  0  0  0  0  0  0  0
  144.0628  136.9093  158.0488 H   0  0  0  0  0  0  0  0  0  0  0  0
  148.7535  137.9937  156.7920 H   0  0  0  0  0  0  0  0  0  0  0  0
  147.6566  135.8091  160.0200 H   0  0  0  0  0  0  0  0  0  0  0  0
  148.6959  136.6875  161.1529 H   0  0  0  0  0  0  0  0  0  0  0  0
  149.2272  135.1389  160.4828 H   0  0  0  0  0  0  0  0  0  0  0  0
  151.0707  138.7290  158.3048 H   0  0  0  0  0  0  0  0  0  0  0  0
  152.2193  139.3510  153.9126 H   0  0  0  0  0  0  0  0  0  0  0  0
  152.2403  137.6206  154.2862 H   0  0  0  0  0  0  0  0  0  0  0  0
  153.7215  138.5770  154.4385 H   0  0  0  0  0  0  0  0  0  0  0  0
  1  2  1  0  0  0  0
  1 30  1  0  0  0  0
  1 31  1  0  0  0  0
  1 32  1  0  0  0  0
  2  3  2  0  0  0  0
  2  4  1  0  0  0  0
  4  5  1  0  0  0  0
  5  6  1  0  0  0  0
  5 33  1  0  0  0  0
  5 34  1  0  0  0  0
  6 25  1  0  0  0  0
  6  7  1  0  0  0  0
  6 35  1  0  0  0  0
  7  8  1  0  0  0  0
  8  9  1  0  0  0  0
  8 20  1  0  0  0  0
  8 36  1  0  0  0  0
  9 19  1  0  0  0  0
  9 10  1  0  0  0  0
 10 11  1  0  0  0  0
 10 12  2  0  0  0  0
 12 13  1  0  0  0  0
 13 19  2  0  0  0  0
 13 14  1  0  0  0  0
 14 15  1  0  0  0  0
 14 16  2  0  0  0  0
 15 37  1  0  0  0  0
 15 38  1  0  0  0  0
 16 17  1  0  0  0  0
 17 18  2  0  0  0  0
 17 39  1  0  0  0  0
 18 19  1  0  0  0  0
 20 21  1  0  0  0  0
 20 25  1  0  0  0  0
 20 40  1  0  0  0  0
 21 22  1  0  0  0  0
 22 23  1  0  0  0  0
 22 24  2  0  0  0  0
 23 41  1  0  0  0  0
 23 42  1  0  0  0  0
 23 43  1  0  0  0  0
 25 26  1  0  0  0  0
 25 44  1  0  0  0  0
 26 27  1  0  0  0  0
 27 28  1  0  0  0  0
 27 29  2  0  0  0  0
 28 45  1  0  0  0  0
 28 46  1  0  0  0  0
 28 47  1  0  0  0  0
M  END
> <s_m_source_file>
AV-unprocessed.smi

> <i_m_source_file_index>
104

> <i_lp_mmshare_version>
43012

> <i_f3d_flags>
0

> <s_epik_input>
W0NIM11DKD1PKU9bQ0gyXVtDQEBIXTFPW0NASF0oW0NAQEhdKE9DKD1PKVtDSDNdKVtDQEhdMU9DKD1PKVtDSDNdKW4oYyhCciluMiljKGMyMyluW2NIXW5jM1tOSDJd

> <s_epik_cmdline>
J2VwaWtfcHl0aG9uJywgJy1waCcsICc3LjAnLCAnLXRuJywgJzgnLCAnLW1hJywgJzIwMCcsICctbWV0YWxfYmluZGluZycsICctaW1hZScsICc8aW5maWxlLm1hZT4nLCAnLW9tYWUnLCAnPG91dGZpbGUubWFlPic=

> <r_lp_tautomer_probability>
1

> <r_epik_Ionization_Penalty>
7.36622e-05

> <r_epik_Ionization_Penalty_Charging>
0

> <r_epik_Ionization_Penalty_Neutral>
7.36622e-05

> <r_epik_State_Penalty>
-0

> <r_epik_Charging_Adjusted_Penalty>
0

> <i_epik_Tot_Q>
0

> <i_epik_Tot_abs_Q>
0

> <r_epik_Metal_State_Penalty>
-0

> <b_epik_Metal_Only>
0

> <s_epik_Chemistry_Notes>
This compound has an ester and may undergo hydrolysis at high or low pH. This compound contains an acetal/aminal-like group ( X-CH(R)-Y where X, Y are N, S, or O) that may be acid/base labile, releasing an aldehyde.

> <s_lp_Force_Field>
OPLS_2005

> <r_lp_Energy>
14.1863

> <b_lp_Chiralities_Consistent>
1

> <s_lp_Variant>
AV-unprocessed.smi:104-6

> <Gold.Version>
5.8.1

> <Gold.Id.Protein>
6NUR|6NUR_protein|mol2

> <Gold.PLP.Fitness>
41.0129

> <Gold.PLP.PLP>
-33.7272

> <Gold.PLP.part.hbond>
-4.1854

> <Gold.PLP.part.metal>
0.0000

> <Gold.PLP.part.buried>
-7.5185

> <Gold.PLP.part.nonpolar>
-24.4939

> <Gold.PLP.part.repulsive>
0.8667

> <Gold.PLP.ligand.clash>
0.0000

> <Gold.PLP.ligand.torsion>
0.9983

> <Gold.PLP.Chemscore.Hbond>
2.9920

> <Gold.PLP.Chemscore.CHOScore>
0.0000

> <Gold.PLP.Chemscore.Metal>
0.0000

> <Gold.Chemscore.Hbonds>
donor molecule, donor type, donor heavy atom, donor atom, acceptor molecule, acceptor atom, score
      L1  H    15    37       P1 10175  0.89
      P1  H  6896  6909       L1    24  0.93
      P1  H  7997  8010       L1    29  1.00

> <Gold.PLP.Chemscore.Internal.Correction>
0.3062

> <Gold.Rescore>
     Score         DG    S(hbond)    S(metal)    S(lipo)     H(rot)  DE(clash)    DE(int)     intcor
      4.60      -9.03       2.79        0.00      44.88       4.31       0.53       3.90       ----

> <Gold.Chemscore.Fitness>
4.5984

> <Gold.Chemscore.DG>
-9.0312

> <Gold.Chemscore.ZeroCoef>
-5.4800

> <Gold.Chemscore.Hbond>
2.7921

> <Gold.Chemscore.Metal>
0.0000

> <Gold.Chemscore.Lipo>
44.8837

> <Gold.Chemscore.Internal_Hbond>
0.0000

> <Gold.Chemscore.DEClash>
0.5334

> <Gold.Chemscore.DEInternal>
3.8994

> <Gold.Chemscore.Rot>
4.3070

> <Gold.Chemscore.Internal.Correction>
   9.000000E+99

> <Gold.Chemscore.Hbonds>
donor molecule, donor type, donor heavy atom, donor atom, acceptor molecule, acceptor atom, score
      L1  H    15    37       P1 10175  0.87
      P1  H  6896  6909       L1    24  0.30
      P1  H  7997  8010       L1    29  0.94

> <Gold.Chemscore.Hbond.Weighted>
-9.3257

> <Gold.Chemscore.Metal.Weighted>
-0.0000

> <Gold.Chemscore.Lipo.Weighted>
-5.2514

> <Gold.Chemscore.Internal_Hbond.Weighted>
0.0000

> <Gold.Chemscore.DEClash.Weighted>
0.5334

> <Gold.Chemscore.DEInternal.Weighted>
3.8994

> <Gold.Chemscore.Rot.Weighted>
11.0259

> <Gold.Chemscore.Internal.Correction.Weighted>
   9.000000E+99

> <Gold.Protein.RotatedTorsions>
[ 6907 6896 6895 6894 ] final   61.10 input  -60.11 | X-H torsion
[ 7974 7965 7964 7962 ] final -166.07 input  175.53 | X-H torsion
[ 8008 7997 7996 7995 ] final   62.70 input   59.86 | X-H torsion
[ 10167 10162 10161 10158 ] final   59.07 input  -65.29 | X-H torsion
[ 10718 10713 10712 10709 ] final   88.02 input   66.30 | X-H torsion
[ 10763 10752 10751 10750 ] final -104.58 input  -60.55 | X-H torsion
[ 11005 11000 10999 10996 ] final   85.00 input  -57.11 | X-H torsion

> <Gold.Protein.ActiveResidues>
 VAL166  LYS551  ARG553  GLY616  TRP617  ASP618  TYR619  PRO620  LYS621  CYS622 
 ASP623  PHE694  ASN695  SER759  ASP760  ASP761  ALA762  ILE779  LEU786  VAL792 
 PHE793  MET794  SER795  GLU796  ALA797  LYS798  CYS799  TRP800  GLU811  SER814 

> <Gold.Protein.RotatedAtoms>
  152.4060  134.6206  160.0049 H   0  0  0  0  0  0  0  0  0  0  0  0  # atno 6907 bound_to 6896
  151.6398  133.3321  159.3135 H   0  0  0  0  0  0  0  0  0  0  0  0  # atno 6908 bound_to 6896
  150.7955  134.7052  159.6617 H   0  0  0  0  0  0  0  0  0  0  0  0  # atno 6909 bound_to 6896
  144.7254  140.2721  143.6249 H   0  0  0  0  0  0  0  0  0  0  0  0  # atno 7974 bound_to 7965
  155.6185  140.3495  155.4644 H   0  0  0  0  0  0  0  0  0  0  0  0  # atno 8008 bound_to 7997
  156.0098  140.1231  157.0489 H   0  0  0  0  0  0  0  0  0  0  0  0  # atno 8009 bound_to 7997
  154.4277  140.1084  156.5799 H   0  0  0  0  0  0  0  0  0  0  0  0  # atno 8010 bound_to 7997
  140.1804  144.4187  150.6618 H   0  0  0  0  0  0  0  0  0  0  0  0  # atno 10167 bound_to 10162
  157.6945  131.0278  150.3211 H   0  0  0  0  0  0  0  0  0  0  0  0  # atno 10718 bound_to 10713
  154.7888  135.4781  154.0005 H   0  0  0  0  0  0  0  0  0  0  0  0  # atno 10763 bound_to 10752
  153.1599  135.6807  153.8764 H   0  0  0  0  0  0  0  0  0  0  0  0  # atno 10764 bound_to 10752
  153.8381  135.3183  155.3402 H   0  0  0  0  0  0  0  0  0  0  0  0  # atno 10765 bound_to 10752
  139.8984  134.8256  156.2522 H   0  0  0  0  0  0  0  0  0  0  0  0  # atno 11005 bound_to 11000
  145.8032  139.1973  143.2036 LP  0  0  0  0  0  0  0  0  0  0  0  0  # atno 17320 bound_to 7965
  146.0659  140.7921  142.9712 LP  0  0  0  0  0  0  0  0  0  0  0  0  # atno 17321 bound_to 7965
  140.6523  143.2228  151.6049 LP  0  0  0  0  0  0  0  0  0  0  0  0  # atno 17342 bound_to 10162
  139.5298  144.2949  152.1122 LP  0  0  0  0  0  0  0  0  0  0  0  0  # atno 17343 bound_to 10162
  156.3698  130.3861  149.7184 LP  0  0  0  0  0  0  0  0  0  0  0  0  # atno 17370 bound_to 10713
  156.4602  130.7948  151.2969 LP  0  0  0  0  0  0  0  0  0  0  0  0  # atno 17371 bound_to 10713
  141.0216  133.7038  156.1278 LP  0  0  0  0  0  0  0  0  0  0  0  0  # atno 17394 bound_to 11000
  140.7225  134.4343  157.5573 LP  0  0  0  0  0  0  0  0  0  0  0  0  # atno 17395 bound_to 11000

$$$$
