AV-unprocessed.smi:1504|AV-procd|sdf|6074|dock5
  -GOLD-   22720 6193D 1   1.00000     0.00000
 Structure written by MMmdl.
 40 41  0  0  0  0  0  0  0  0  2 V2000
  146.2010  136.4140  154.0754 O   0  0  0  0  0  0  0  0  0  0  0  0
  147.0408  136.0976  153.2326 C   0  0  0  0  0  0  0  0  0  0  0  0
  147.4229  134.8351  152.9940 N   0  0  0  0  0  0  0  0  0  0  0  0
  146.9089  133.6640  153.6946 C   0  0  0  0  0  0  0  0  0  0  0  0
  146.9408  132.4115  152.8025 C   0  0  0  0  0  0  0  0  0  0  0  0
  145.9196  132.4765  151.6837 C   0  0  0  0  0  0  0  0  0  0  0  0
  144.6574  133.0854  151.8551 C   0  0  0  0  0  0  0  0  0  0  0  0
  143.7549  133.1176  150.7715 C   0  0  0  0  0  0  0  0  0  0  0  0
  144.1338  132.5428  149.5406 C   0  0  0  0  0  0  0  0  0  0  0  0
  145.4077  131.9500  149.4241 C   0  0  0  0  0  0  0  0  0  0  0  0
  146.2438  131.9385  150.4855 N   0  3  0  0  0  0  0  0  0  0  0  0
  147.6881  136.9697  152.4488 N   0  0  0  0  0  0  0  0  0  0  0  0
  147.5127  138.4176  152.4825 C   0  0  0  0  0  0  0  0  0  0  0  0
  148.8716  139.1374  152.4468 C   0  0  1  0  0  0  0  0  0  0  0  0
  148.7248  140.6714  152.4353 C   0  0  0  0  0  0  0  0  0  0  0  0
  150.1026  141.2948  152.6780 C   0  0  0  0  0  0  0  0  0  0  0  0
  150.9595  140.1590  153.8304 S   0  0  0  0  0  0  0  0  0  0  0  0
  152.2669  139.7961  153.2629 O   0  0  0  0  0  0  0  0  0  0  0  0
  150.8463  140.6753  155.2027 O   0  0  0  0  0  0  0  0  0  0  0  0
  149.7903  138.7619  153.6234 C   0  0  0  0  0  0  0  0  0  0  0  0
  148.1175  134.6734  152.2791 H   0  0  0  0  0  0  0  0  0  0  0  0
  147.4816  133.4968  154.6087 H   0  0  0  0  0  0  0  0  0  0  0  0
  145.8854  133.8773  154.0041 H   0  0  0  0  0  0  0  0  0  0  0  0
  147.9341  132.2858  152.3691 H   0  0  0  0  0  0  0  0  0  0  0  0
  146.7514  131.5173  153.3979 H   0  0  0  0  0  0  0  0  0  0  0  0
  144.3829  133.5240  152.8036 H   0  0  0  0  0  0  0  0  0  0  0  0
  142.7844  133.5789  150.8833 H   0  0  0  0  0  0  0  0  0  0  0  0
  143.4572  132.5573  148.6984 H   0  0  0  0  0  0  0  0  0  0  0  0
  145.7804  131.4884  148.5214 H   0  0  0  0  0  0  0  0  0  0  0  0
  148.3585  136.6085  151.7859 H   0  0  0  0  0  0  0  0  0  0  0  0
  146.9093  138.7123  151.6232 H   0  0  0  0  0  0  0  0  0  0  0  0
  146.9612  138.7217  153.3742 H   0  0  0  0  0  0  0  0  0  0  0  0
  149.3873  138.8586  151.5262 H   0  0  0  0  0  0  0  0  0  0  0  0
  148.2850  141.0289  151.5038 H   0  0  0  0  0  0  0  0  0  0  0  0
  148.0547  140.9749  153.2409 H   0  0  0  0  0  0  0  0  0  0  0  0
  150.6777  141.3334  151.7527 H   0  0  0  0  0  0  0  0  0  0  0  0
  150.0517  142.2979  153.1013 H   0  0  0  0  0  0  0  0  0  0  0  0
  149.2225  138.6655  154.5494 H   0  0  0  0  0  0  0  0  0  0  0  0
  150.3396  137.8352  153.4566 H   0  0  0  0  0  0  0  0  0  0  0  0
  147.1608  131.5042  150.3784 H   0  0  0  0  0  0  0  0  0  0  0  0
  1  2  2  0  0  0  0
  2  3  1  0  0  0  0
  2 12  1  0  0  0  0
  3  4  1  0  0  0  0
  3 21  1  0  0  0  0
  4  5  1  0  0  0  0
  4 22  1  0  0  0  0
  4 23  1  0  0  0  0
  5  6  1  0  0  0  0
  5 24  1  0  0  0  0
  5 25  1  0  0  0  0
  6 11  1  0  0  0  0
  6  7  2  0  0  0  0
  7  8  1  0  0  0  0
  7 26  1  0  0  0  0
  8  9  2  0  0  0  0
  8 27  1  0  0  0  0
  9 10  1  0  0  0  0
  9 28  1  0  0  0  0
 10 11  2  0  0  0  0
 10 29  1  0  0  0  0
 11 40  1  0  0  0  0
 12 13  1  0  0  0  0
 12 30  1  0  0  0  0
 13 14  1  0  0  0  0
 13 31  1  0  0  0  0
 13 32  1  0  0  0  0
 14 20  1  0  0  0  0
 14 15  1  0  0  0  0
 14 33  1  0  0  0  0
 15 16  1  0  0  0  0
 15 34  1  0  0  0  0
 15 35  1  0  0  0  0
 16 17  1  0  0  0  0
 16 36  1  0  0  0  0
 16 37  1  0  0  0  0
 17 18  2  0  0  0  0
 17 19  2  0  0  0  0
 17 20  1  0  0  0  0
 20 38  1  0  0  0  0
 20 39  1  0  0  0  0
M  CHG  1  11   1
M  END
> <s_m_source_file>
AV-unprocessed.smi

> <i_m_source_file_index>
1504

> <i_lp_mmshare_version>
43012

> <i_f3d_flags>
0

> <s_epik_input>
Tz1TMSg9TylbQ0gyXVtDSDJdW0NASF0oW0NIMl0xKVtDSDJdW05IXUMoPU8pW05IXVtDSDJdW0NIMl1jMltjSF1bY0hdW2NIXVtjSF1uMg==

> <s_epik_cmdline>
J2VwaWtfcHl0aG9uJywgJy1waCcsICc3LjAnLCAnLXRuJywgJzgnLCAnLW1hJywgJzIwMCcsICctbWV0YWxfYmluZGluZycsICctaW1hZScsICc8aW5maWxlLm1hZT4nLCAnLW9tYWUnLCAnPG91dGZpbGUubWFlPic=

> <r_epik_Ionization_Penalty>
1.57393

> <r_epik_Ionization_Penalty_Charging>
1.57388

> <r_epik_Ionization_Penalty_Neutral>
4.82054e-05

> <r_epik_State_Penalty>
1.66991

> <r_epik_Charging_Adjusted_Penalty>
3.24379

> <i_epik_Tot_Q>
1

> <i_epik_Tot_abs_Q>
1

> <r_epik_Metal_State_Penalty>
1.71052

> <b_epik_Metal_Only>
0

> <s_lp_Force_Field>
OPLS_2005

> <r_lp_Energy>
6.78157

> <b_lp_Chiralities_Consistent>
1

> <s_lp_Variant>
AV-unprocessed.smi:1504-4

> <Gold.Version>
5.8.1

> <Gold.Id.Protein>
6NUR|6NUR_protein|mol2

> <Gold.PLP.Fitness>
44.5612

> <Gold.PLP.PLP>
-34.2652

> <Gold.PLP.part.hbond>
-3.9325

> <Gold.PLP.part.metal>
0.0000

> <Gold.PLP.part.buried>
-3.3352

> <Gold.PLP.part.nonpolar>
-25.3988

> <Gold.PLP.part.repulsive>
0.3003

> <Gold.PLP.ligand.clash>
0.0000

> <Gold.PLP.ligand.torsion>
0.6527

> <Gold.PLP.Chemscore.Hbond>
3.8640

> <Gold.PLP.Chemscore.CHOScore>
0.0000

> <Gold.PLP.Chemscore.Metal>
0.0000

> <Gold.Chemscore.Hbonds>
donor molecule, donor type, donor heavy atom, donor atom, acceptor molecule, acceptor atom, score
      L1  H     3    21       P1  7948  0.24
      L1  H    11    40       P1 10747  1.00

> <Gold.PLP.Chemscore.Internal.Correction>
0.0095

> <Gold.Rescore>
     Score         DG    S(hbond)    S(metal)    S(lipo)     H(rot)  DE(clash)    DE(int)     intcor
     22.32     -22.87       3.75        0.00      85.77       2.01       0.01       0.55       ----

> <Gold.Chemscore.Fitness>
22.3154

> <Gold.Chemscore.DG>
-22.8713

> <Gold.Chemscore.ZeroCoef>
-5.4800

> <Gold.Chemscore.Hbond>
3.7467

> <Gold.Chemscore.Metal>
0.0000

> <Gold.Chemscore.Lipo>
85.7655

> <Gold.Chemscore.Internal_Hbond>
0.0000

> <Gold.Chemscore.DEClash>
0.0089

> <Gold.Chemscore.DEInternal>
0.5469

> <Gold.Chemscore.Rot>
2.0146

> <Gold.Chemscore.Internal.Correction>
   9.000000E+99

> <Gold.Chemscore.Hbonds>
donor molecule, donor type, donor heavy atom, donor atom, acceptor molecule, acceptor atom, score
      L1  H     3    21       P1  7948  0.07
      L1  H    11    40       P1 10747  1.00

> <Gold.Chemscore.Hbond.Weighted>
-12.5140

> <Gold.Chemscore.Metal.Weighted>
-0.0000

> <Gold.Chemscore.Lipo.Weighted>
-10.0346

> <Gold.Chemscore.Internal_Hbond.Weighted>
0.0000

> <Gold.Chemscore.DEClash.Weighted>
0.0089

> <Gold.Chemscore.DEInternal.Weighted>
0.5469

> <Gold.Chemscore.Rot.Weighted>
5.1573

> <Gold.Chemscore.Internal.Correction.Weighted>
   9.000000E+99

> <Gold.Protein.RotatedTorsions>
[ 6907 6896 6895 6894 ] final   22.41 input  -60.11 | X-H torsion
[ 7974 7965 7964 7962 ] final  124.00 input  175.53 | X-H torsion
[ 8008 7997 7996 7995 ] final -176.01 input   59.86 | X-H torsion
[ 10167 10162 10161 10158 ] final   78.53 input  -65.29 | X-H torsion
[ 10718 10713 10712 10709 ] final -151.73 input   66.30 | X-H torsion
[ 10763 10752 10751 10750 ] final  -35.43 input  -60.55 | X-H torsion
[ 11005 11000 10999 10996 ] final -166.28 input  -57.11 | X-H torsion

> <Gold.Protein.ActiveResidues>
 VAL166  LYS551  ARG553  GLY616  TRP617  ASP618  TYR619  PRO620  LYS621  CYS622 
 ASP623  PHE694  ASN695  SER759  ASP760  ASP761  ALA762  ILE779  LEU786  VAL792 
 PHE793  MET794  SER795  GLU796  ALA797  LYS798  CYS799  TRP800  GLU811  SER814 

> <Gold.Protein.RotatedAtoms>
  151.9268  135.0274  160.0525 H   0  0  0  0  0  0  0  0  0  0  0  0  # atno 6907 bound_to 6896
  152.2153  133.4937  159.5141 H   0  0  0  0  0  0  0  0  0  0  0  0  # atno 6908 bound_to 6896
  150.6986  134.1330  159.4119 H   0  0  0  0  0  0  0  0  0  0  0  0  # atno 6909 bound_to 6896
  145.0894  139.3598  143.4868 H   0  0  0  0  0  0  0  0  0  0  0  0  # atno 7974 bound_to 7965
  155.9896  140.1198  157.0651 H   0  0  0  0  0  0  0  0  0  0  0  0  # atno 8008 bound_to 7997
  154.4207  140.1128  156.5615 H   0  0  0  0  0  0  0  0  0  0  0  0  # atno 8009 bound_to 7997
  155.6361  140.3473  155.4701 H   0  0  0  0  0  0  0  0  0  0  0  0  # atno 8010 bound_to 7997
  139.9700  144.5901  150.7994 H   0  0  0  0  0  0  0  0  0  0  0  0  # atno 10167 bound_to 10162
  156.4631  130.8222  151.2453 H   0  0  0  0  0  0  0  0  0  0  0  0  # atno 10718 bound_to 10713
  153.8630  135.6838  153.4781 H   0  0  0  0  0  0  0  0  0  0  0  0  # atno 10763 bound_to 10752
  153.1330  135.4689  154.9377 H   0  0  0  0  0  0  0  0  0  0  0  0  # atno 10764 bound_to 10752
  154.7749  135.3250  154.8061 H   0  0  0  0  0  0  0  0  0  0  0  0  # atno 10765 bound_to 10752
  140.5662  134.5283  157.5153 H   0  0  0  0  0  0  0  0  0  0  0  0  # atno 11005 bound_to 11000
  146.3531  140.0721  142.8622 LP  0  0  0  0  0  0  0  0  0  0  0  0  # atno 17320 bound_to 7965
  145.1084  140.9389  143.4671 LP  0  0  0  0  0  0  0  0  0  0  0  0  # atno 17321 bound_to 7965
  140.7525  143.2991  151.3126 LP  0  0  0  0  0  0  0  0  0  0  0  0  # atno 17342 bound_to 10162
  139.6489  144.0400  152.2611 LP  0  0  0  0  0  0  0  0  0  0  0  0  # atno 17343 bound_to 10162
  157.7496  131.0101  150.3292 LP  0  0  0  0  0  0  0  0  0  0  0  0  # atno 17370 bound_to 10713
  156.3696  130.3861  149.7186 LP  0  0  0  0  0  0  0  0  0  0  0  0  # atno 17371 bound_to 10713
  139.9383  134.7833  156.0743 LP  0  0  0  0  0  0  0  0  0  0  0  0  # atno 17394 bound_to 11000
  141.1084  133.6652  156.2919 LP  0  0  0  0  0  0  0  0  0  0  0  0  # atno 17395 bound_to 11000

$$$$
