AV-unprocessed.smi:3334|AV-procd|sdf|12835|dock7
  -GOLD-   2272019213D 1   1.00000     0.00000
 Structure written by MMmdl.
 41 42  0  0  0  0  0  0  0  0  1 V2000
  145.8411  140.0993  157.7667 C   0  0  0  0  0  0  0  0  0  0  0  0
  146.9885  141.1140  157.8691 C   0  0  0  0  0  0  0  0  0  0  0  0
  146.5030  142.5547  158.0838 C   0  0  0  0  0  0  0  0  0  0  0  0
  147.9371  141.0037  156.7172 C   0  0  0  0  0  0  0  0  0  0  0  0
  149.2084  140.6115  156.8398 N   0  0  0  0  0  0  0  0  0  0  0  0
  149.8981  140.6153  155.6228 C   0  0  0  0  0  0  0  0  0  0  0  0
  151.3458  140.2164  155.5725 C   0  0  0  0  0  0  0  0  0  0  0  0
  151.8283  139.4946  156.8429 C   0  0  0  0  0  0  0  0  0  0  0  0
  151.7458  140.3587  158.0140 N   0  0  0  0  0  0  0  0  0  0  0  0
  152.7230  140.5309  158.9141 C   0  0  0  0  0  0  0  0  0  0  0  0
  153.8010  139.9388  158.8639 O   0  0  0  0  0  0  0  0  0  0  0  0
  152.4362  141.5267  160.0423 C   0  0  0  0  0  0  0  0  0  0  0  0
  152.7539  142.9860  159.6578 C   0  0  2  0  0  0  0  0  0  0  0  0
  152.3330  143.9611  160.7266 C   0  0  0  0  0  0  0  0  0  0  0  0
  151.5930  144.9601  160.2504 C   0  0  0  0  0  0  0  0  0  0  0  0
  151.3708  144.8541  158.7675 C   0  0  0  0  0  0  0  0  0  0  0  0
  152.0069  143.4961  158.3961 C   0  0  0  0  0  0  0  0  0  0  0  0
  149.1194  141.0120  154.5644 C   0  0  0  0  0  0  0  0  0  0  0  0
  147.4950  141.4000  155.0603 S   0  0  0  0  0  0  0  0  0  0  0  0
  146.2278  139.0811  157.7164 H   0  0  0  0  0  0  0  0  0  0  0  0
  145.2347  140.2706  156.8767 H   0  0  0  0  0  0  0  0  0  0  0  0
  145.1832  140.1595  158.6341 H   0  0  0  0  0  0  0  0  0  0  0  0
  147.5569  140.8467  158.7608 H   0  0  0  0  0  0  0  0  0  0  0  0
  147.3429  143.2341  158.2314 H   0  0  0  0  0  0  0  0  0  0  0  0
  145.8619  142.6259  158.9627 H   0  0  0  0  0  0  0  0  0  0  0  0
  145.9313  142.9121  157.2266 H   0  0  0  0  0  0  0  0  0  0  0  0
  151.5231  139.5763  154.7072 H   0  0  0  0  0  0  0  0  0  0  0  0
  151.9656  141.0993  155.4133 H   0  0  0  0  0  0  0  0  0  0  0  0
  151.2239  138.6038  157.0177 H   0  0  0  0  0  0  0  0  0  0  0  0
  152.8573  139.1593  156.7021 H   0  0  0  0  0  0  0  0  0  0  0  0
  150.8949  140.8910  158.1283 H   0  0  0  0  0  0  0  0  0  0  0  0
  151.3921  141.4451  160.3503 H   0  0  0  0  0  0  0  0  0  0  0  0
  153.0350  141.2345  160.9055 H   0  0  0  0  0  0  0  0  0  0  0  0
  153.8296  143.1088  159.5238 H   0  0  0  0  0  0  0  0  0  0  0  0
  152.6295  143.8457  161.7588 H   0  0  0  0  0  0  0  0  0  0  0  0
  151.1980  145.7773  160.8360 H   0  0  0  0  0  0  0  0  0  0  0  0
  150.3071  144.8864  158.5306 H   0  0  0  0  0  0  0  0  0  0  0  0
  151.8669  145.6827  158.2614 H   0  0  0  0  0  0  0  0  0  0  0  0
  152.6805  143.5879  157.5433 H   0  0  0  0  0  0  0  0  0  0  0  0
  151.2207  142.7982  158.1056 H   0  0  0  0  0  0  0  0  0  0  0  0
  149.4029  141.1026  153.5264 H   0  0  0  0  0  0  0  0  0  0  0  0
  1  2  1  0  0  0  0
  1 20  1  0  0  0  0
  1 21  1  0  0  0  0
  1 22  1  0  0  0  0
  2  3  1  0  0  0  0
  2  4  1  0  0  0  0
  2 23  1  0  0  0  0
  3 24  1  0  0  0  0
  3 25  1  0  0  0  0
  3 26  1  0  0  0  0
  4 19  1  0  0  0  0
  4  5  2  0  0  0  0
  5  6  1  0  0  0  0
  6  7  1  0  0  0  0
  6 18  2  0  0  0  0
  7  8  1  0  0  0  0
  7 27  1  0  0  0  0
  7 28  1  0  0  0  0
  8  9  1  0  0  0  0
  8 29  1  0  0  0  0
  8 30  1  0  0  0  0
  9 10  1  0  0  0  0
  9 31  1  0  0  0  0
 10 11  2  0  0  0  0
 10 12  1  0  0  0  0
 12 13  1  0  0  0  0
 12 32  1  0  0  0  0
 12 33  1  0  0  0  0
 13 17  1  0  0  0  0
 13 14  1  0  0  0  0
 13 34  1  0  0  0  0
 14 15  2  0  0  0  0
 14 35  1  0  0  0  0
 15 16  1  0  0  0  0
 15 36  1  0  0  0  0
 16 17  1  0  0  0  0
 16 37  1  0  0  0  0
 16 38  1  0  0  0  0
 17 39  1  0  0  0  0
 17 40  1  0  0  0  0
 18 19  1  0  0  0  0
 18 41  1  0  0  0  0
M  END
> <s_m_source_file>
AV-unprocessed.smi

> <i_m_source_file_index>
3334

> <i_lp_mmshare_version>
43012

> <i_f3d_flags>
0

> <s_epik_input>
W0NIM11bQ0hdKFtDSDNdKWMxbmMoW2NIXXMxKVtDSDJdW0NIMl1bTkhdQyg9TylbQ0gyXVtDQEBIXTJbQ0hdPVtDSF1bQ0gyXVtDSDJdMg==

> <s_epik_cmdline>
J2VwaWtfcHl0aG9uJywgJy1waCcsICc3LjAnLCAnLXRuJywgJzgnLCAnLW1hJywgJzIwMCcsICctbWV0YWxfYmluZGluZycsICctaW1hZScsICc8aW5maWxlLm1hZT4nLCAnLW9tYWUnLCAnPG91dGZpbGUubWFlPic=

> <r_epik_Ionization_Penalty>
0.000771592

> <r_epik_Ionization_Penalty_Charging>
0

> <r_epik_Ionization_Penalty_Neutral>
0.000771592

> <r_epik_State_Penalty>
0.000494253

> <r_epik_Charging_Adjusted_Penalty>
0.000494253

> <i_epik_Tot_Q>
0

> <i_epik_Tot_abs_Q>
0

> <r_epik_Metal_State_Penalty>
-0

> <b_epik_Metal_Only>
0

> <s_lp_Force_Field>
OPLS_2005

> <r_lp_Energy>
4.8696

> <b_lp_Chiralities_Consistent>
1

> <s_lp_Variant>
AV-unprocessed.smi:3334-1

> <Gold.Version>
5.8.1

> <Gold.Id.Protein>
6NUR|6NUR_protein|mol2

> <Gold.PLP.Fitness>
45.5591

> <Gold.PLP.PLP>
-40.7582

> <Gold.PLP.part.hbond>
-1.0000

> <Gold.PLP.part.metal>
0.0000

> <Gold.PLP.part.buried>
-3.1800

> <Gold.PLP.part.nonpolar>
-35.5999

> <Gold.PLP.part.repulsive>
0.1313

> <Gold.PLP.ligand.clash>
0.0000

> <Gold.PLP.ligand.torsion>
0.6603

> <Gold.PLP.Chemscore.Hbond>
1.0000

> <Gold.PLP.Chemscore.CHOScore>
1.0000

> <Gold.PLP.Chemscore.Metal>
0.0000

> <Gold.Chemscore.Hbonds>
donor molecule, donor type, donor heavy atom, donor atom, acceptor molecule, acceptor atom, score
      P1  H  7997  8010       L1    11  1.00
      L1  C    18    41       P1  7957  0.84

> <Gold.PLP.Chemscore.Internal.Correction>
0.1215

> <Gold.Rescore>
     Score         DG    S(hbond)    S(metal)    S(lipo)     H(rot)  DE(clash)    DE(int)     intcor
     15.64     -17.43       0.91        0.00     109.22       1.52       1.26       0.53       ----

> <Gold.Chemscore.Fitness>
15.6446

> <Gold.Chemscore.DG>
-17.4260

> <Gold.Chemscore.ZeroCoef>
-5.4800

> <Gold.Chemscore.Hbond>
0.9129

> <Gold.Chemscore.Metal>
0.0000

> <Gold.Chemscore.Lipo>
109.2163

> <Gold.Chemscore.Internal_Hbond>
0.0000

> <Gold.Chemscore.DEClash>
1.2558

> <Gold.Chemscore.DEInternal>
0.5256

> <Gold.Chemscore.Rot>
1.5162

> <Gold.Chemscore.Internal.Correction>
   9.000000E+99

> <Gold.Chemscore.Hbonds>
donor molecule, donor type, donor heavy atom, donor atom, acceptor molecule, acceptor atom, score
      P1  H  7997  8010       L1    11  0.86

> <Gold.Chemscore.Hbond.Weighted>
-3.0492

> <Gold.Chemscore.Metal.Weighted>
-0.0000

> <Gold.Chemscore.Lipo.Weighted>
-12.7783

> <Gold.Chemscore.Internal_Hbond.Weighted>
0.0000

> <Gold.Chemscore.DEClash.Weighted>
1.2558

> <Gold.Chemscore.DEInternal.Weighted>
0.5256

> <Gold.Chemscore.Rot.Weighted>
3.8815

> <Gold.Chemscore.Internal.Correction.Weighted>
   9.000000E+99

> <Gold.Protein.RotatedTorsions>
[ 6907 6896 6895 6894 ] final  134.43 input  -60.11 | X-H torsion
[ 7974 7965 7964 7962 ] final  -58.53 input  175.53 | X-H torsion
[ 8008 7997 7996 7995 ] final   26.33 input   59.86 | X-H torsion
[ 10167 10162 10161 10158 ] final  171.64 input  -65.29 | X-H torsion
[ 10718 10713 10712 10709 ] final  170.98 input   66.30 | X-H torsion
[ 10763 10752 10751 10750 ] final   81.45 input  -60.55 | X-H torsion
[ 11005 11000 10999 10996 ] final   65.39 input  -57.11 | X-H torsion

> <Gold.Protein.ActiveResidues>
 VAL166  LYS551  ARG553  GLY616  TRP617  ASP618  TYR619  PRO620  LYS621  CYS622 
 ASP623  PHE694  ASN695  SER759  ASP760  ASP761  ALA762  ILE779  LEU786  VAL792 
 PHE793  MET794  SER795  GLU796  ALA797  LYS798  CYS799  TRP800  GLU811  SER814 

> <Gold.Protein.RotatedAtoms>
  152.3114  133.5756  159.5682 H   0  0  0  0  0  0  0  0  0  0  0  0  # atno 6907 bound_to 6896
  150.7325  134.0147  159.3690 H   0  0  0  0  0  0  0  0  0  0  0  0  # atno 6908 bound_to 6896
  151.8039  135.0701  160.0455 H   0  0  0  0  0  0  0  0  0  0  0  0  # atno 6909 bound_to 6896
  145.8382  140.8434  143.0048 H   0  0  0  0  0  0  0  0  0  0  0  0  # atno 7974 bound_to 7965
  155.0255  140.3152  155.4777 H   0  0  0  0  0  0  0  0  0  0  0  0  # atno 8008 bound_to 7997
  156.2884  140.2189  156.5317 H   0  0  0  0  0  0  0  0  0  0  0  0  # atno 8009 bound_to 7997
  154.7415  140.0473  157.0803 H   0  0  0  0  0  0  0  0  0  0  0  0  # atno 8010 bound_to 7997
  139.5052  144.3463  151.9967 H   0  0  0  0  0  0  0  0  0  0  0  0  # atno 10167 bound_to 10162
  157.0003  131.0174  151.2832 H   0  0  0  0  0  0  0  0  0  0  0  0  # atno 10718 bound_to 10713
  153.1118  135.4765  154.9047 H   0  0  0  0  0  0  0  0  0  0  0  0  # atno 10763 bound_to 10752
  154.7488  135.3100  154.8598 H   0  0  0  0  0  0  0  0  0  0  0  0  # atno 10764 bound_to 10752
  153.9185  135.6857  153.4802 H   0  0  0  0  0  0  0  0  0  0  0  0  # atno 10765 bound_to 10752
  139.9898  134.6610  156.0112 H   0  0  0  0  0  0  0  0  0  0  0  0  # atno 11005 bound_to 11000
  144.6735  140.0773  143.7470 LP  0  0  0  0  0  0  0  0  0  0  0  0  # atno 17320 bound_to 7965
  145.9494  139.2723  143.1221 LP  0  0  0  0  0  0  0  0  0  0  0  0  # atno 17321 bound_to 7965
  140.2901  144.3763  150.6091 LP  0  0  0  0  0  0  0  0  0  0  0  0  # atno 17342 bound_to 10162
  140.5953  143.2167  151.7176 LP  0  0  0  0  0  0  0  0  0  0  0  0  # atno 17343 bound_to 10162
  157.5395  130.8110  149.8012 LP  0  0  0  0  0  0  0  0  0  0  0  0  # atno 17370 bound_to 10713
  156.0174  130.3808  150.2069 LP  0  0  0  0  0  0  0  0  0  0  0  0  # atno 17371 bound_to 10713
  141.1556  133.6543  156.4150 LP  0  0  0  0  0  0  0  0  0  0  0  0  # atno 17394 bound_to 11000
  140.4931  134.6556  157.5219 LP  0  0  0  0  0  0  0  0  0  0  0  0  # atno 17395 bound_to 11000

$$$$
