AV-unprocessed.smi:2146|AV-procd|sdf|8738|dock8
  -GOLD-   2272011513D 1   1.00000     0.00000
 Structure written by MMmdl.
 44 45  0  0  0  0  0  0  0  0  1 V2000
  141.5518  141.4954  156.9335 C   0  0  0  0  0  0  0  0  0  0  0  0
  143.0660  141.7260  156.6961 C   0  0  2  0  0  0  0  0  0  0  0  0
  143.6930  140.4146  156.1383 C   0  0  0  0  0  0  0  0  0  0  0  0
  142.8804  139.7688  155.1111 N   0  0  0  0  0  0  0  0  0  0  0  0
  142.0604  138.7271  155.3165 C   0  0  0  0  0  0  0  0  0  0  0  0
  141.9128  138.1926  156.4166 O   0  0  0  0  0  0  0  0  0  0  0  0
  141.3150  138.2077  154.0787 C   0  0  0  0  0  0  0  0  0  0  0  0
  141.8510  136.9371  153.5623 N   0  0  0  0  0  0  0  0  0  0  0  0
  143.1058  136.9824  152.9233 C   0  0  0  0  0  0  0  0  0  0  0  0
  143.7132  135.8898  152.4225 C   0  0  0  0  0  0  0  0  0  0  0  0
  145.0460  135.9818  151.6961 C   0  0  0  0  0  0  0  0  0  0  0  0
  144.8695  135.7535  150.3956 F   0  0  0  0  0  0  0  0  0  0  0  0
  145.5901  137.1908  151.8367 F   0  0  0  0  0  0  0  0  0  0  0  0
  145.9082  135.0777  152.1623 F   0  0  0  0  0  0  0  0  0  0  0  0
  142.9908  134.6384  152.5410 C   0  0  0  0  0  0  0  0  0  0  0  0
  141.7877  134.5786  153.1444 C   0  0  0  0  0  0  0  0  0  0  0  0
  141.1510  135.7721  153.7060 C   0  0  0  0  0  0  0  0  0  0  0  0
  140.0569  135.7276  154.2689 O   0  0  0  0  0  0  0  0  0  0  0  0
  143.7622  142.2424  157.8980 N   0  0  0  0  0  0  0  0  0  0  0  0
  143.7276  141.3003  159.0228 C   0  0  0  0  0  0  0  0  0  0  0  0
  144.4769  141.8202  160.2619 C   0  0  0  0  0  0  0  0  0  0  0  0
  145.8224  142.1204  159.9184 O   0  0  0  0  0  0  0  0  0  0  0  0
  145.9043  143.0898  158.8832 C   0  0  0  0  0  0  0  0  0  0  0  0
  145.1665  142.5775  157.6344 C   0  0  0  0  0  0  0  0  0  0  0  0
  141.0533  141.0727  156.0622 H   0  0  0  0  0  0  0  0  0  0  0  0
  141.0194  142.4229  157.1396 H   0  0  0  0  0  0  0  0  0  0  0  0
  141.3831  140.8156  157.7693 H   0  0  0  0  0  0  0  0  0  0  0  0
  143.1514  142.4815  155.9135 H   0  0  0  0  0  0  0  0  0  0  0  0
  144.6740  140.5849  155.6973 H   0  0  0  0  0  0  0  0  0  0  0  0
  143.8408  139.7011  156.9496 H   0  0  0  0  0  0  0  0  0  0  0  0
  142.9470  140.1434  154.1757 H   0  0  0  0  0  0  0  0  0  0  0  0
  140.2553  138.0991  154.3163 H   0  0  0  0  0  0  0  0  0  0  0  0
  141.3556  138.9804  153.3100 H   0  0  0  0  0  0  0  0  0  0  0  0
  143.5485  137.9665  152.8702 H   0  0  0  0  0  0  0  0  0  0  0  0
  143.4227  133.7316  152.1439 H   0  0  0  0  0  0  0  0  0  0  0  0
  141.2795  133.6283  153.2176 H   0  0  0  0  0  0  0  0  0  0  0  0
  142.7035  141.1076  159.3345 H   0  0  0  0  0  0  0  0  0  0  0  0
  144.1530  140.3434  158.7168 H   0  0  0  0  0  0  0  0  0  0  0  0
  143.9883  142.7091  160.6641 H   0  0  0  0  0  0  0  0  0  0  0  0
  144.4708  141.0681  161.0506 H   0  0  0  0  0  0  0  0  0  0  0  0
  145.4792  144.0354  159.2235 H   0  0  0  0  0  0  0  0  0  0  0  0
  146.9534  143.2754  158.6527 H   0  0  0  0  0  0  0  0  0  0  0  0
  145.6876  141.7035  157.2399 H   0  0  0  0  0  0  0  0  0  0  0  0
  145.2408  143.3577  156.8794 H   0  0  0  0  0  0  0  0  0  0  0  0
  1  2  1  0  0  0  0
  1 25  1  0  0  0  0
  1 26  1  0  0  0  0
  1 27  1  0  0  0  0
  2  3  1  0  0  0  0
  2 19  1  0  0  0  0
  2 28  1  0  0  0  0
  3  4  1  0  0  0  0
  3 29  1  0  0  0  0
  3 30  1  0  0  0  0
  4  5  1  0  0  0  0
  4 31  1  0  0  0  0
  5  6  2  0  0  0  0
  5  7  1  0  0  0  0
  7  8  1  0  0  0  0
  7 32  1  0  0  0  0
  7 33  1  0  0  0  0
  8 17  1  0  0  0  0
  8  9  1  0  0  0  0
  9 10  2  0  0  0  0
  9 34  1  0  0  0  0
 10 11  1  0  0  0  0
 10 15  1  0  0  0  0
 11 12  1  0  0  0  0
 11 13  1  0  0  0  0
 11 14  1  0  0  0  0
 15 16  2  0  0  0  0
 15 35  1  0  0  0  0
 16 17  1  0  0  0  0
 16 36  1  0  0  0  0
 17 18  2  0  0  0  0
 19 24  1  0  0  0  0
 19 20  1  0  0  0  0
 20 21  1  0  0  0  0
 20 37  1  0  0  0  0
 20 38  1  0  0  0  0
 21 22  1  0  0  0  0
 21 39  1  0  0  0  0
 21 40  1  0  0  0  0
 22 23  1  0  0  0  0
 23 24  1  0  0  0  0
 23 41  1  0  0  0  0
 23 42  1  0  0  0  0
 24 43  1  0  0  0  0
 24 44  1  0  0  0  0
M  END
> <s_m_source_file>
AV-unprocessed.smi

> <i_m_source_file_index>
2146

> <i_lp_mmshare_version>
43012

> <i_f3d_flags>
0

> <s_epik_input>
W0NIMl0xW0NIMl1PW0NIMl1bQ0gyXU4xW0NASF0oW0NIM10pW0NIMl1bTkhdQyg9TylbQ0gyXW4yW2NIXWMoQyhGKShGKUYpW2NIXVtjSF1jMj1P

> <s_epik_cmdline>
J2VwaWtfcHl0aG9uJywgJy1waCcsICc3LjAnLCAnLXRuJywgJzgnLCAnLW1hJywgJzIwMCcsICctbWV0YWxfYmluZGluZycsICctaW1hZScsICc8aW5maWxlLm1hZT4nLCAnLW9tYWUnLCAnPG91dGZpbGUubWFlPic=

> <r_lp_tautomer_probability>
1

> <r_epik_Ionization_Penalty>
0.237382

> <r_epik_Ionization_Penalty_Charging>
1.80451e-08

> <r_epik_Ionization_Penalty_Neutral>
0.237382

> <r_epik_State_Penalty>
0.228245

> <r_epik_Charging_Adjusted_Penalty>
0.228245

> <i_epik_Tot_Q>
0

> <i_epik_Tot_abs_Q>
0

> <r_epik_Metal_State_Penalty>
0.22822

> <b_epik_Metal_Only>
0

> <s_lp_Force_Field>
OPLS_2005

> <r_lp_Energy>
40.571

> <b_lp_Chiralities_Consistent>
1

> <s_lp_Variant>
AV-unprocessed.smi:2146-1

> <Gold.Version>
5.8.1

> <Gold.Id.Protein>
6NUR|6NUR_protein|mol2

> <Gold.PLP.Fitness>
42.1483

> <Gold.PLP.PLP>
-32.8294

> <Gold.PLP.part.hbond>
-3.0000

> <Gold.PLP.part.metal>
0.0000

> <Gold.PLP.part.buried>
-4.7124

> <Gold.PLP.part.nonpolar>
-25.8854

> <Gold.PLP.part.repulsive>
0.1326

> <Gold.PLP.ligand.clash>
1.1006

> <Gold.PLP.ligand.torsion>
0.7703

> <Gold.PLP.Chemscore.Hbond>
2.9588

> <Gold.PLP.Chemscore.CHOScore>
0.9937

> <Gold.PLP.Chemscore.Metal>
0.0000

> <Gold.Chemscore.Hbonds>
donor molecule, donor type, donor heavy atom, donor atom, acceptor molecule, acceptor atom, score
      L1  H     4    31       P1 10175  1.00
      P1  H  6934  6946       L1    22  1.00
      P1  H 11000 11005       L1    18  1.00
      L1  C     9    34       P1 10175  1.00

> <Gold.PLP.Chemscore.Internal.Correction>
0.1026

> <Gold.Rescore>
     Score         DG    S(hbond)    S(metal)    S(lipo)     H(rot)  DE(clash)    DE(int)     intcor
     12.53     -14.23       2.91        0.00      37.63       2.10       0.91       0.79       ----

> <Gold.Chemscore.Fitness>
12.5336

> <Gold.Chemscore.DG>
-14.2325

> <Gold.Chemscore.ZeroCoef>
-5.4800

> <Gold.Chemscore.Hbond>
2.9148

> <Gold.Chemscore.Metal>
0.0000

> <Gold.Chemscore.Lipo>
37.6333

> <Gold.Chemscore.Internal_Hbond>
0.0000

> <Gold.Chemscore.DEClash>
0.9133

> <Gold.Chemscore.DEInternal>
0.7856

> <Gold.Chemscore.Rot>
2.1039

> <Gold.Chemscore.Internal.Correction>
   9.000000E+99

> <Gold.Chemscore.Hbonds>
donor molecule, donor type, donor heavy atom, donor atom, acceptor molecule, acceptor atom, score
      L1  H     4    31       P1 10175  0.99
      P1  H  6934  6946       L1    22  0.65
      P1  H 11000 11005       L1    18  0.87

> <Gold.Chemscore.Hbond.Weighted>
-9.7354

> <Gold.Chemscore.Metal.Weighted>
-0.0000

> <Gold.Chemscore.Lipo.Weighted>
-4.4031

> <Gold.Chemscore.Internal_Hbond.Weighted>
0.0000

> <Gold.Chemscore.DEClash.Weighted>
0.9133

> <Gold.Chemscore.DEInternal.Weighted>
0.7856

> <Gold.Chemscore.Rot.Weighted>
5.3860

> <Gold.Chemscore.Internal.Correction.Weighted>
   9.000000E+99

> <Gold.Protein.RotatedTorsions>
[ 6907 6896 6895 6894 ] final  -56.39 input  -60.11 | X-H torsion
[ 7974 7965 7964 7962 ] final  125.84 input  175.53 | X-H torsion
[ 8008 7997 7996 7995 ] final -126.16 input   59.86 | X-H torsion
[ 10167 10162 10161 10158 ] final  178.19 input  -65.29 | X-H torsion
[ 10718 10713 10712 10709 ] final   36.70 input   66.30 | X-H torsion
[ 10763 10752 10751 10750 ] final  118.65 input  -60.55 | X-H torsion
[ 11005 11000 10999 10996 ] final   56.97 input  -57.11 | X-H torsion

> <Gold.Protein.ActiveResidues>
 VAL166  LYS551  ARG553  GLY616  TRP617  ASP618  TYR619  PRO620  LYS621  CYS622 
 ASP623  PHE694  ASN695  SER759  ASP760  ASP761  ALA762  ILE779  LEU786  VAL792 
 PHE793  MET794  SER795  GLU796  ALA797  LYS798  CYS799  TRP800  GLU811  SER814 

> <Gold.Protein.RotatedAtoms>
  150.8171  134.7359  159.6739 H   0  0  0  0  0  0  0  0  0  0  0  0  # atno 6907 bound_to 6896
  152.4289  134.5812  159.9958 H   0  0  0  0  0  0  0  0  0  0  0  0  # atno 6908 bound_to 6896
  151.6006  133.3319  159.3082 H   0  0  0  0  0  0  0  0  0  0  0  0  # atno 6909 bound_to 6896
  145.0685  139.3748  143.4969 H   0  0  0  0  0  0  0  0  0  0  0  0  # atno 7974 bound_to 7965
  155.2251  140.0423  157.2954 H   0  0  0  0  0  0  0  0  0  0  0  0  # atno 8008 bound_to 7997
  154.5924  140.2430  155.7873 H   0  0  0  0  0  0  0  0  0  0  0  0  # atno 8009 bound_to 7997
  156.2268  140.2952  156.0096 H   0  0  0  0  0  0  0  0  0  0  0  0  # atno 8010 bound_to 7997
  139.5284  144.2709  152.0628 H   0  0  0  0  0  0  0  0  0  0  0  0  # atno 10167 bound_to 10162
  157.3380  130.7533  149.6892 H   0  0  0  0  0  0  0  0  0  0  0  0  # atno 10718 bound_to 10713
  153.5709  135.3502  155.2837 H   0  0  0  0  0  0  0  0  0  0  0  0  # atno 10763 bound_to 10752
  154.8682  135.4159  154.2727 H   0  0  0  0  0  0  0  0  0  0  0  0  # atno 10764 bound_to 10752
  153.3492  135.7054  153.6872 H   0  0  0  0  0  0  0  0  0  0  0  0  # atno 10765 bound_to 10752
  140.0488  134.5766  155.9289 H   0  0  0  0  0  0  0  0  0  0  0  0  # atno 11005 bound_to 11000
  146.3528  140.0418  142.8642 LP  0  0  0  0  0  0  0  0  0  0  0  0  # atno 17320 bound_to 7965
  145.1321  140.9524  143.4538 LP  0  0  0  0  0  0  0  0  0  0  0  0  # atno 17321 bound_to 7965
  140.2169  144.4506  150.6360 LP  0  0  0  0  0  0  0  0  0  0  0  0  # atno 17342 bound_to 10162
  140.6444  143.2210  151.6218 LP  0  0  0  0  0  0  0  0  0  0  0  0  # atno 17343 bound_to 10162
  155.9704  130.4176  150.4286 LP  0  0  0  0  0  0  0  0  0  0  0  0  # atno 17370 bound_to 10713
  157.2329  131.0508  151.2481 LP  0  0  0  0  0  0  0  0  0  0  0  0  # atno 17371 bound_to 10713
  141.1920  133.6574  156.5483 LP  0  0  0  0  0  0  0  0  0  0  0  0  # atno 17394 bound_to 11000
  140.3950  134.7407  157.4745 LP  0  0  0  0  0  0  0  0  0  0  0  0  # atno 17395 bound_to 11000

$$$$
