AV-unprocessed.smi:1911|AV-procd|sdf|7747|dock1
  -GOLD-   22720 9483D 1   1.00000     0.00000
 Structure written by MMmdl.
 52 54  0  0  0  0  0  0  0  0  4 V2000
  143.1034  132.7434  150.8146 N   0  5  0  0  0  0  0  0  0  0  0  0
  144.4426  132.7718  150.9572 C   0  0  0  0  0  0  0  0  0  0  0  0
  145.2881  132.2070  150.2656 O   0  0  0  0  0  0  0  0  0  0  0  0
  144.8868  133.6110  152.1604 C   0  0  0  0  0  0  0  0  0  0  0  0
  144.8428  135.0560  151.8236 N   0  3  2  0  0  0  0  0  0  0  0  0
  145.9151  135.4702  150.8789 C   0  0  0  0  0  0  0  0  0  0  0  0
  145.7481  136.9407  150.4554 C   0  0  0  0  0  0  0  0  0  0  0  0
  145.6902  137.8888  151.6656 C   0  0  2  0  0  0  0  0  0  0  0  0
  147.0063  138.0009  152.2944 N   0  0  0  0  0  0  0  0  0  0  0  0
  147.3915  138.9908  153.1131 C   0  0  0  0  0  0  0  0  0  0  0  0
  146.6628  139.9307  153.4283 O   0  0  0  0  0  0  0  0  0  0  0  0
  148.6617  138.8197  153.5195 N   0  0  0  0  0  0  0  0  0  0  0  0
  149.4345  139.6312  154.3947 C   0  0  0  0  0  0  0  0  0  0  0  0
  150.6071  139.1969  155.0617 C   0  0  0  0  0  0  0  0  0  0  0  0
  151.3047  140.0931  155.8976 C   0  0  0  0  0  0  0  0  0  0  0  0
  150.8340  141.4175  156.0589 C   0  0  0  0  0  0  0  0  0  0  0  0
  151.4835  142.3665  156.8711 N   0  0  0  0  0  0  0  0  0  0  0  0
  151.2459  143.7967  156.7228 C   0  0  0  0  0  0  0  0  0  0  0  0
  151.5051  144.4018  158.1070 C   0  0  0  0  0  0  0  0  0  0  0  0
  152.3989  143.3737  158.8006 C   0  0  0  0  0  0  0  0  0  0  0  0
  151.9145  142.0450  158.2215 C   0  0  0  0  0  0  0  0  0  0  0  0
  149.7186  141.7912  155.3880 N   0  3  0  0  0  0  0  0  0  0  0  0
  149.0199  140.9660  154.5793 C   0  0  0  0  0  0  0  0  0  0  0  0
  144.6213  137.3962  152.6610 C   0  0  0  0  0  0  0  0  0  0  0  0
  144.8176  135.9159  153.0337 C   0  0  0  0  0  0  0  0  0  0  0  0
  142.6293  133.5552  150.4013 H   0  0  0  0  0  0  0  0  0  0  0  0
  144.1867  133.3953  152.9686 H   0  0  0  0  0  0  0  0  0  0  0  0
  145.8786  133.3365  152.5268 H   0  0  0  0  0  0  0  0  0  0  0  0
  146.8900  135.3180  151.3442 H   0  0  0  0  0  0  0  0  0  0  0  0
  145.8948  134.8430  149.9871 H   0  0  0  0  0  0  0  0  0  0  0  0
  146.5562  137.2319  149.7832 H   0  0  0  0  0  0  0  0  0  0  0  0
  144.8265  137.0400  149.8800 H   0  0  0  0  0  0  0  0  0  0  0  0
  145.4042  138.8781  151.3034 H   0  0  0  0  0  0  0  0  0  0  0  0
  147.6741  137.2738  152.0823 H   0  0  0  0  0  0  0  0  0  0  0  0
  149.1514  138.0346  153.1157 H   0  0  0  0  0  0  0  0  0  0  0  0
  150.9989  138.1992  154.9419 H   0  0  0  0  0  0  0  0  0  0  0  0
  152.1983  139.7520  156.3988 H   0  0  0  0  0  0  0  0  0  0  0  0
  151.9485  144.1945  155.9898 H   0  0  0  0  0  0  0  0  0  0  0  0
  150.2338  144.0198  156.3833 H   0  0  0  0  0  0  0  0  0  0  0  0
  151.9551  145.3937  158.0579 H   0  0  0  0  0  0  0  0  0  0  0  0
  150.5630  144.4887  158.6503 H   0  0  0  0  0  0  0  0  0  0  0  0
  153.4396  143.5424  158.5200 H   0  0  0  0  0  0  0  0  0  0  0  0
  152.3315  143.4125  159.8880 H   0  0  0  0  0  0  0  0  0  0  0  0
  151.0672  141.6623  158.7921 H   0  0  0  0  0  0  0  0  0  0  0  0
  152.7050  141.2940  158.2265 H   0  0  0  0  0  0  0  0  0  0  0  0
  148.1493  141.4002  154.1090 H   0  0  0  0  0  0  0  0  0  0  0  0
  144.6199  138.0123  153.5608 H   0  0  0  0  0  0  0  0  0  0  0  0
  143.6346  137.5195  152.2127 H   0  0  0  0  0  0  0  0  0  0  0  0
  144.0030  135.6042  153.6888 H   0  0  0  0  0  0  0  0  0  0  0  0
  145.7433  135.7834  153.5960 H   0  0  0  0  0  0  0  0  0  0  0  0
  143.9614  135.1998  151.3514 H   0  0  0  0  0  0  0  0  0  0  0  0
  149.3868  142.7494  155.4993 H   0  0  0  0  0  0  0  0  0  0  0  0
  1  2  1  0  0  0  0
  1 26  1  0  0  0  0
  2  3  2  0  0  0  0
  2  4  1  0  0  0  0
  4  5  1  0  0  0  0
  4 27  1  0  0  0  0
  4 28  1  0  0  0  0
  5 25  1  0  0  0  0
  5  6  1  0  0  0  0
  5 51  1  0  0  0  0
  6  7  1  0  0  0  0
  6 29  1  0  0  0  0
  6 30  1  0  0  0  0
  7  8  1  0  0  0  0
  7 31  1  0  0  0  0
  7 32  1  0  0  0  0
  8  9  1  0  0  0  0
  8 24  1  0  0  0  0
  8 33  1  0  0  0  0
  9 10  1  0  0  0  0
  9 34  1  0  0  0  0
 10 11  2  0  0  0  0
 10 12  1  0  0  0  0
 12 13  1  0  0  0  0
 12 35  1  0  0  0  0
 13 23  1  0  0  0  0
 13 14  2  0  0  0  0
 14 15  1  0  0  0  0
 14 36  1  0  0  0  0
 15 16  2  0  0  0  0
 15 37  1  0  0  0  0
 16 17  1  0  0  0  0
 16 22  1  0  0  0  0
 17 21  1  0  0  0  0
 17 18  1  0  0  0  0
 18 19  1  0  0  0  0
 18 38  1  0  0  0  0
 18 39  1  0  0  0  0
 19 20  1  0  0  0  0
 19 40  1  0  0  0  0
 19 41  1  0  0  0  0
 20 21  1  0  0  0  0
 20 42  1  0  0  0  0
 20 43  1  0  0  0  0
 21 44  1  0  0  0  0
 21 45  1  0  0  0  0
 22 23  2  0  0  0  0
 22 52  1  0  0  0  0
 23 46  1  0  0  0  0
 24 25  1  0  0  0  0
 24 47  1  0  0  0  0
 24 48  1  0  0  0  0
 25 49  1  0  0  0  0
 25 50  1  0  0  0  0
M  CHG  1   1  -1
M  CHG  1   5   1
M  CHG  1  22   1
M  END
> <s_m_source_file>
AV-unprocessed.smi

> <i_m_source_file_index>
1911

> <i_lp_mmshare_version>
43012

> <i_f3d_flags>
0

> <s_epik_input>
W05IMl1DKD1PKVtDSDJdTjFbQ0gyXVtDSDJdW0NIXShbQ0gyXVtDSDJdMSlbTkhdQyg9TylbTkhdYzJbY0hdW2NIXWMobltjSF0yKU4zW0NIMl1bQ0gyXVtDSDJdW0NIMl0z

> <s_epik_cmdline>
J2VwaWtfcHl0aG9uJywgJy1waCcsICc3LjAnLCAnLXRuJywgJzgnLCAnLW1hJywgJzIwMCcsICctbWV0YWxfYmluZGluZycsICctaW1hZScsICc8aW5maWxlLm1hZT4nLCAnLW9tYWUnLCAnPG91dGZpbGUubWFlPic=

> <r_lp_tautomer_probability>
0.999994

> <r_epik_Ionization_Penalty>
6.97817

> <r_epik_Ionization_Penalty_Charging>
6.97815

> <r_epik_Ionization_Penalty_Neutral>
1.89299e-05

> <r_epik_State_Penalty>
7.80985

> <r_epik_Charging_Adjusted_Penalty>
14.788

> <i_epik_Tot_Q>
1

> <i_epik_Tot_abs_Q>
3

> <r_epik_Metal_State_Penalty>
3.85727

> <b_epik_Metal_Only>
1

> <s_lp_Force_Field>
OPLS_2005

> <r_lp_Energy>
41.382

> <b_lp_Chiralities_Consistent>
1

> <s_lp_Variant>
AV-unprocessed.smi:1911-10

> <Gold.Version>
5.8.1

> <Gold.Id.Protein>
6NUR|6NUR_protein|mol2

> <Gold.PLP.Fitness>
53.0211

> <Gold.PLP.PLP>
-41.3986

> <Gold.PLP.part.hbond>
-4.8219

> <Gold.PLP.part.metal>
0.0000

> <Gold.PLP.part.buried>
4.9486

> <Gold.PLP.part.nonpolar>
-42.1813

> <Gold.PLP.part.repulsive>
0.6219

> <Gold.PLP.ligand.clash>
0.0000

> <Gold.PLP.ligand.torsion>
1.1776

> <Gold.PLP.Chemscore.Hbond>
4.5881

> <Gold.PLP.Chemscore.CHOScore>
0.0000

> <Gold.PLP.Chemscore.Metal>
0.0000

> <Gold.Chemscore.Hbonds>
donor molecule, donor type, donor heavy atom, donor atom, acceptor molecule, acceptor atom, score
      L1  H     1    26       P1 10186  1.00
      L1  H     9    34       P1  7948  1.00
      L1  H    12    35       P1  7948  0.59
      L1  H    22    52       P1  8028  1.98

> <Gold.PLP.Chemscore.Internal.Correction>
0.2133

> <Gold.Rescore>
     Score         DG    S(hbond)    S(metal)    S(lipo)     H(rot)  DE(clash)    DE(int)     intcor
     17.23     -25.04       3.47        0.00     109.66       1.90       5.27       2.54       ----

> <Gold.Chemscore.Fitness>
17.2349

> <Gold.Chemscore.DG>
-25.0417

> <Gold.Chemscore.ZeroCoef>
-5.4800

> <Gold.Chemscore.Hbond>
3.4703

> <Gold.Chemscore.Metal>
0.0000

> <Gold.Chemscore.Lipo>
109.6562

> <Gold.Chemscore.Internal_Hbond>
0.0000

> <Gold.Chemscore.DEClash>
5.2678

> <Gold.Chemscore.DEInternal>
2.5391

> <Gold.Chemscore.Rot>
1.8979

> <Gold.Chemscore.Internal.Correction>
   9.000000E+99

> <Gold.Chemscore.Hbonds>
donor molecule, donor type, donor heavy atom, donor atom, acceptor molecule, acceptor atom, score
      L1  H     1    26       P1 10186  0.89
      L1  H     9    34       P1  7948  1.00
      L1  H    12    35       P1  7948  0.57
      L1  H    22    52       P1  8028  0.92

> <Gold.Chemscore.Hbond.Weighted>
-11.5906

> <Gold.Chemscore.Metal.Weighted>
-0.0000

> <Gold.Chemscore.Lipo.Weighted>
-12.8298

> <Gold.Chemscore.Internal_Hbond.Weighted>
0.0000

> <Gold.Chemscore.DEClash.Weighted>
5.2678

> <Gold.Chemscore.DEInternal.Weighted>
2.5391

> <Gold.Chemscore.Rot.Weighted>
4.8587

> <Gold.Chemscore.Internal.Correction.Weighted>
   9.000000E+99

> <Gold.Protein.RotatedTorsions>
[ 6907 6896 6895 6894 ] final  161.77 input  -60.11 | X-H torsion
[ 7974 7965 7964 7962 ] final  -30.88 input  175.53 | X-H torsion
[ 8008 7997 7996 7995 ] final  123.17 input   59.86 | X-H torsion
[ 10167 10162 10161 10158 ] final  167.92 input  -65.29 | X-H torsion
[ 10718 10713 10712 10709 ] final   48.97 input   66.30 | X-H torsion
[ 10763 10752 10751 10750 ] final  -71.06 input  -60.55 | X-H torsion
[ 11005 11000 10999 10996 ] final -150.77 input  -57.11 | X-H torsion

> <Gold.Protein.ActiveResidues>
 VAL166  LYS551  ARG553  GLY616  TRP617  ASP618  TYR619  PRO620  LYS621  CYS622 
 ASP623  PHE694  ASN695  SER759  ASP760  ASP761  ALA762  ILE779  LEU786  VAL792 
 PHE793  MET794  SER795  GLU796  ALA797  LYS798  CYS799  TRP800  GLU811  SER814 

> <Gold.Protein.RotatedAtoms>
  151.9506  133.3665  159.3998 H   0  0  0  0  0  0  0  0  0  0  0  0  # atno 6907 bound_to 6896
  150.6981  134.4344  159.5272 H   0  0  0  0  0  0  0  0  0  0  0  0  # atno 6908 bound_to 6896
  152.2017  134.8582  160.0558 H   0  0  0  0  0  0  0  0  0  0  0  0  # atno 6909 bound_to 6896
  146.1110  140.5596  142.8778 H   0  0  0  0  0  0  0  0  0  0  0  0  # atno 7974 bound_to 7965
  156.2756  140.2769  156.1585 H   0  0  0  0  0  0  0  0  0  0  0  0  # atno 8008 bound_to 7997
  155.0778  140.0387  157.2647 H   0  0  0  0  0  0  0  0  0  0  0  0  # atno 8009 bound_to 7997
  154.6988  140.2644  155.6745 H   0  0  0  0  0  0  0  0  0  0  0  0  # atno 8010 bound_to 7997
  139.4956  144.3869  151.9560 H   0  0  0  0  0  0  0  0  0  0  0  0  # atno 10167 bound_to 10162
  157.4740  130.8273  149.8019 H   0  0  0  0  0  0  0  0  0  0  0  0  # atno 10718 bound_to 10713
  154.4264  135.5974  153.6041 H   0  0  0  0  0  0  0  0  0  0  0  0  # atno 10763 bound_to 10752
  152.9796  135.5964  154.3892 H   0  0  0  0  0  0  0  0  0  0  0  0  # atno 10764 bound_to 10752
  154.3725  135.2841  155.2237 H   0  0  0  0  0  0  0  0  0  0  0  0  # atno 10765 bound_to 10752
  140.7367  134.3560  157.5156 H   0  0  0  0  0  0  0  0  0  0  0  0  # atno 11005 bound_to 11000
  144.7511  140.5193  143.6801 LP  0  0  0  0  0  0  0  0  0  0  0  0  # atno 17320 bound_to 7965
  145.5664  139.1481  143.3313 LP  0  0  0  0  0  0  0  0  0  0  0  0  # atno 17321 bound_to 7965
  140.3306  144.3320  150.5988 LP  0  0  0  0  0  0  0  0  0  0  0  0  # atno 17342 bound_to 10162
  140.5648  143.2187  151.7703 LP  0  0  0  0  0  0  0  0  0  0  0  0  # atno 17343 bound_to 10162
  156.0087  130.3843  150.2339 LP  0  0  0  0  0  0  0  0  0  0  0  0  # atno 17370 bound_to 10713
  157.0522  131.0066  151.3250 LP  0  0  0  0  0  0  0  0  0  0  0  0  # atno 17371 bound_to 10713
  139.8815  134.9054  156.2898 LP  0  0  0  0  0  0  0  0  0  0  0  0  # atno 17394 bound_to 11000
  140.9873  133.7230  156.0761 LP  0  0  0  0  0  0  0  0  0  0  0  0  # atno 17395 bound_to 11000

$$$$
