AV-unprocessed.smi:2226|AV-procd|sdf|9014|dock7
  -GOLD-   2272012223D 1   1.00000     0.00000
 Structure written by MMmdl.
 40 42  0  0  0  0  0  0  0  0  2 V2000
  146.0760  143.2067  153.8757 C   0  0  0  0  0  0  0  0  0  0  0  0
  147.1342  142.6019  154.7195 N   0  3  2  0  0  0  0  0  0  0  0  0
  148.0802  141.7183  153.9953 C   0  0  1  0  0  0  0  0  0  0  0  0
  149.3437  141.5177  154.8649 C   0  0  0  0  0  0  0  0  0  0  0  0
  149.0444  141.0238  156.2951 C   0  0  0  0  0  0  0  0  0  0  0  0
  147.8296  141.7382  156.9215 C   0  0  0  0  0  0  0  0  0  0  0  0
  146.6439  141.9274  155.9463 C   0  0  2  0  0  0  0  0  0  0  0  0
  145.8707  140.6293  155.6042 C   0  0  0  0  0  0  0  0  0  0  0  0
  146.6167  139.6650  154.6530 C   0  0  1  0  0  0  0  0  0  0  0  0
  145.6493  138.7572  154.0381 N   0  0  0  0  0  0  0  0  0  0  0  0
  145.6649  137.4160  154.0861 C   0  0  0  0  0  0  0  0  0  0  0  0
  146.5472  136.7955  154.6876 O   0  0  0  0  0  0  0  0  0  0  0  0
  144.5811  136.9099  153.3829 N   0  0  0  0  0  0  0  0  0  0  0  0
  144.7681  136.2460  152.2832 C   0  0  0  0  0  0  0  0  0  0  0  0
  145.9100  135.8859  151.5720 N   0  0  0  0  0  0  0  0  0  0  0  0
  145.5199  135.1804  150.4683 C   0  0  0  0  0  0  0  0  0  0  0  0
  144.1931  135.0976  150.4802 C   0  0  0  0  0  0  0  0  0  0  0  0
  143.7052  135.7401  151.5783 O   0  0  0  0  0  0  0  0  0  0  0  0
  147.3905  140.4082  153.5396 C   0  0  0  0  0  0  0  0  0  0  0  0
  145.4008  142.4598  153.4591 H   0  0  0  0  0  0  0  0  0  0  0  0
  146.5200  143.7590  153.0470 H   0  0  0  0  0  0  0  0  0  0  0  0
  145.4814  143.9107  154.4584 H   0  0  0  0  0  0  0  0  0  0  0  0
  148.4048  142.2440  153.0962 H   0  0  0  0  0  0  0  0  0  0  0  0
  150.0416  140.8392  154.3731 H   0  0  0  0  0  0  0  0  0  0  0  0
  149.8615  142.4749  154.9379 H   0  0  0  0  0  0  0  0  0  0  0  0
  148.8974  139.9471  156.3024 H   0  0  0  0  0  0  0  0  0  0  0  0
  149.9213  141.1813  156.9237 H   0  0  0  0  0  0  0  0  0  0  0  0
  147.5055  141.2089  157.8182 H   0  0  0  0  0  0  0  0  0  0  0  0
  148.1526  142.7241  157.2591 H   0  0  0  0  0  0  0  0  0  0  0  0
  145.9431  142.6023  156.4396 H   0  0  0  0  0  0  0  0  0  0  0  0
  145.5974  140.1040  156.5201 H   0  0  0  0  0  0  0  0  0  0  0  0
  144.9227  140.9144  155.1460 H   0  0  0  0  0  0  0  0  0  0  0  0
  147.3268  139.0865  155.2375 H   0  0  0  0  0  0  0  0  0  0  0  0
  144.8931  139.1876  153.5254 H   0  0  0  0  0  0  0  0  0  0  0  0
  146.8749  136.0875  151.7931 H   0  0  0  0  0  0  0  0  0  0  0  0
  146.2545  134.8021  149.7727 H   0  0  0  0  0  0  0  0  0  0  0  0
  143.4809  134.6377  149.8113 H   0  0  0  0  0  0  0  0  0  0  0  0
  146.6984  140.6562  152.7337 H   0  0  0  0  0  0  0  0  0  0  0  0
  148.1224  139.7368  153.0894 H   0  0  0  0  0  0  0  0  0  0  0  0
  147.6847  143.3854  155.0409 H   0  0  0  0  0  0  0  0  0  0  0  0
  1  2  1  0  0  0  0
  1 20  1  0  0  0  0
  1 21  1  0  0  0  0
  1 22  1  0  0  0  0
  2  7  1  0  0  0  0
  2  3  1  0  0  0  0
  2 40  1  0  0  0  0
  3 19  1  0  0  0  0
  3  4  1  0  0  0  0
  3 23  1  0  0  0  0
  4  5  1  0  0  0  0
  4 24  1  0  0  0  0
  4 25  1  0  0  0  0
  5  6  1  0  0  0  0
  5 26  1  0  0  0  0
  5 27  1  0  0  0  0
  6  7  1  0  0  0  0
  6 28  1  0  0  0  0
  6 29  1  0  0  0  0
  7  8  1  0  0  0  0
  7 30  1  0  0  0  0
  8  9  1  0  0  0  0
  8 31  1  0  0  0  0
  8 32  1  0  0  0  0
  9 10  1  0  0  0  0
  9 19  1  0  0  0  0
  9 33  1  0  0  0  0
 10 34  1  0  0  0  0
 10 11  1  0  0  0  0
 11 13  1  0  0  0  0
 11 12  2  0  0  0  0
 13 14  2  0  0  0  0
 14 18  1  0  0  0  0
 14 15  1  0  0  0  0
 15 35  1  0  0  0  0
 15 16  1  0  0  0  0
 16 36  1  0  0  0  0
 16 17  2  0  0  0  0
 17 37  1  0  0  0  0
 17 18  1  0  0  0  0
 19 38  1  0  0  0  0
 19 39  1  0  0  0  0
M  CHG  1   2   1
M  END
> <s_m_source_file>
AV-unprocessed.smi

> <i_m_source_file_index>
2226

> <i_lp_mmshare_version>
43012

> <i_f3d_flags>
0

> <s_epik_input>
W0NIMl0xW0NIMl1bQ0gyXVtDQEhdKE4oW0NIM10pW0NIXTEyKVtDSDJdW0NASF0oW0NIMl0yKVtOSF1DKD1PKVtOSF1jM25bY0hdW2NIXW8z

> <s_epik_cmdline>
J2VwaWtfcHl0aG9uJywgJy1waCcsICc3LjAnLCAnLXRuJywgJzgnLCAnLW1hJywgJzIwMCcsICctbWV0YWxfYmluZGluZycsICctaW1hZScsICc8aW5maWxlLm1hZT4nLCAnLW9tYWUnLCAnPG91dGZpbGUubWFlPic=

> <r_lp_tautomer_probability>
0.107061

> <r_epik_Ionization_Penalty>
1.08307

> <r_epik_Ionization_Penalty_Charging>
1.08272

> <r_epik_Ionization_Penalty_Neutral>
0.000345913

> <r_epik_State_Penalty>
2.5744

> <r_epik_Charging_Adjusted_Penalty>
3.65713

> <i_epik_Tot_Q>
1

> <i_epik_Tot_abs_Q>
1

> <r_epik_Metal_State_Penalty>
3.72133

> <b_epik_Metal_Only>
0

> <s_lp_Force_Field>
OPLS_2005

> <r_lp_Energy>
58.9785

> <b_lp_Chiralities_Consistent>
1

> <s_lp_Variant>
AV-unprocessed.smi:2226-14

> <Gold.Version>
5.8.1

> <Gold.Id.Protein>
6NUR|6NUR_protein|mol2

> <Gold.PLP.Fitness>
42.0424

> <Gold.PLP.PLP>
-25.8413

> <Gold.PLP.part.hbond>
-3.0000

> <Gold.PLP.part.metal>
0.0000

> <Gold.PLP.part.buried>
-3.2164

> <Gold.PLP.part.nonpolar>
-21.3198

> <Gold.PLP.part.repulsive>
0.5740

> <Gold.PLP.ligand.clash>
0.0000

> <Gold.PLP.ligand.torsion>
0.6638

> <Gold.PLP.Chemscore.Hbond>
3.9500

> <Gold.PLP.Chemscore.CHOScore>
1.8909

> <Gold.PLP.Chemscore.Metal>
0.0000

> <Gold.Chemscore.Hbonds>
donor molecule, donor type, donor heavy atom, donor atom, acceptor molecule, acceptor atom, score
      L1  H     2    40       P1  8028  2.00
      L1  H    10    34       P1 10175  0.94
      L1  H    15    35       P1  7948  0.94
      L1  C    16    36       P1  7921  0.96
      L1  C    17    37       P1 10186  1.00

> <Gold.PLP.Chemscore.Internal.Correction>
0.0058

> <Gold.Rescore>
     Score         DG    S(hbond)    S(metal)    S(lipo)     H(rot)  DE(clash)    DE(int)     intcor
     17.26     -18.26       2.52        0.00      59.34       1.00       0.34       0.67       ----

> <Gold.Chemscore.Fitness>
17.2577

> <Gold.Chemscore.DG>
-18.2648

> <Gold.Chemscore.ZeroCoef>
-5.4800

> <Gold.Chemscore.Hbond>
2.5156

> <Gold.Chemscore.Metal>
0.0000

> <Gold.Chemscore.Lipo>
59.3403

> <Gold.Chemscore.Internal_Hbond>
0.0000

> <Gold.Chemscore.DEClash>
0.3418

> <Gold.Chemscore.DEInternal>
0.6653

> <Gold.Chemscore.Rot>
1.0000

> <Gold.Chemscore.Internal.Correction>
   9.000000E+99

> <Gold.Chemscore.Hbonds>
donor molecule, donor type, donor heavy atom, donor atom, acceptor molecule, acceptor atom, score
      L1  H     2    40       P1  8028  0.35
      L1  H    10    34       P1 10175  0.90
      L1  H    15    35       P1  7948  0.90

> <Gold.Chemscore.Hbond.Weighted>
-8.4020

> <Gold.Chemscore.Metal.Weighted>
-0.0000

> <Gold.Chemscore.Lipo.Weighted>
-6.9428

> <Gold.Chemscore.Internal_Hbond.Weighted>
0.0000

> <Gold.Chemscore.DEClash.Weighted>
0.3418

> <Gold.Chemscore.DEInternal.Weighted>
0.6653

> <Gold.Chemscore.Rot.Weighted>
2.5600

> <Gold.Chemscore.Internal.Correction.Weighted>
   9.000000E+99

> <Gold.Protein.RotatedTorsions>
[ 6907 6896 6895 6894 ] final   33.60 input  -60.11 | X-H torsion
[ 7974 7965 7964 7962 ] final  -47.67 input  175.53 | X-H torsion
[ 8008 7997 7996 7995 ] final -138.75 input   59.86 | X-H torsion
[ 10167 10162 10161 10158 ] final  -12.82 input  -65.29 | X-H torsion
[ 10718 10713 10712 10709 ] final  -44.64 input   66.30 | X-H torsion
[ 10763 10752 10751 10750 ] final   43.92 input  -60.55 | X-H torsion
[ 11005 11000 10999 10996 ] final  -51.91 input  -57.11 | X-H torsion

> <Gold.Protein.ActiveResidues>
 VAL166  LYS551  ARG553  GLY616  TRP617  ASP618  TYR619  PRO620  LYS621  CYS622 
 ASP623  PHE694  ASN695  SER759  ASP760  ASP761  ALA762  ILE779  LEU786  VAL792 
 PHE793  MET794  SER795  GLU796  ALA797  LYS798  CYS799  TRP800  GLU811  SER814 

> <Gold.Protein.RotatedAtoms>
  152.0908  134.9408  160.0571 H   0  0  0  0  0  0  0  0  0  0  0  0  # atno 6907 bound_to 6896
  152.0661  133.4079  159.4447 H   0  0  0  0  0  0  0  0  0  0  0  0  # atno 6908 bound_to 6896
  150.6837  134.3065  159.4772 H   0  0  0  0  0  0  0  0  0  0  0  0  # atno 6909 bound_to 6896
  145.9592  140.7496  142.9466 H   0  0  0  0  0  0  0  0  0  0  0  0  # atno 7974 bound_to 7965
  155.4335  140.0527  157.3016 H   0  0  0  0  0  0  0  0  0  0  0  0  # atno 8008 bound_to 7997
  154.4849  140.2096  155.9636 H   0  0  0  0  0  0  0  0  0  0  0  0  # atno 8009 bound_to 7997
  156.1260  140.3180  155.8283 H   0  0  0  0  0  0  0  0  0  0  0  0  # atno 8010 bound_to 7997
  140.7169  143.5492  150.9321 H   0  0  0  0  0  0  0  0  0  0  0  0  # atno 10167 bound_to 10162
  156.2365  130.4176  149.8812 H   0  0  0  0  0  0  0  0  0  0  0  0  # atno 10718 bound_to 10713
  152.9851  135.6086  154.3189 H   0  0  0  0  0  0  0  0  0  0  0  0  # atno 10763 bound_to 10752
  154.2900  135.2775  155.2661 H   0  0  0  0  0  0  0  0  0  0  0  0  # atno 10764 bound_to 10752
  154.4960  135.5879  153.6551 H   0  0  0  0  0  0  0  0  0  0  0  0  # atno 10765 bound_to 10752
  141.0896  133.6635  156.3946 H   0  0  0  0  0  0  0  0  0  0  0  0  # atno 11005 bound_to 11000
  144.6811  140.2562  143.7325 LP  0  0  0  0  0  0  0  0  0  0  0  0  # atno 17320 bound_to 7965
  145.8064  139.1985  143.2018 LP  0  0  0  0  0  0  0  0  0  0  0  0  # atno 17321 bound_to 7965
  139.9216  143.6599  152.3095 LP  0  0  0  0  0  0  0  0  0  0  0  0  # atno 17342 bound_to 10162
  139.7018  144.7634  151.1260 LP  0  0  0  0  0  0  0  0  0  0  0  0  # atno 17343 bound_to 10162
  156.6408  130.8704  151.3513 LP  0  0  0  0  0  0  0  0  0  0  0  0  # atno 17370 bound_to 10713
  157.7156  130.9493  150.1245 LP  0  0  0  0  0  0  0  0  0  0  0  0  # atno 17371 bound_to 10713
  140.5283  134.6237  157.5341 LP  0  0  0  0  0  0  0  0  0  0  0  0  # atno 17394 bound_to 11000
  139.9720  134.7278  156.0024 LP  0  0  0  0  0  0  0  0  0  0  0  0  # atno 17395 bound_to 11000

$$$$
