AV-unprocessed.smi:557|AV-procd|sdf|2915|dock7
  -GOLD-   2262023403D 1   1.00000     0.00000
 Structure written by MMmdl.
 47 49  0  0  0  0  0  0  0  0  2 V2000
  150.7148  142.3058  156.6378 C   0  0  0  0  0  0  0  0  0  0  0  0
  149.9167  141.3631  155.8839 N   0  0  0  0  0  0  0  0  0  0  0  0
  148.5652  141.1096  155.9787 C   0  0  0  0  0  0  0  0  0  0  0  0
  148.2653  140.1396  155.0642 C   0  0  0  0  0  0  0  0  0  0  0  0
  146.9362  139.5040  154.7662 C   0  0  0  0  0  0  0  0  0  0  0  0
  146.6815  139.4161  153.2556 C   0  0  0  0  0  0  0  0  0  0  0  0
  146.7577  138.0302  152.8015 N   0  0  0  0  0  0  0  0  0  0  0  0
  145.7322  137.1996  152.5487 C   0  0  0  0  0  0  0  0  0  0  0  0
  144.5617  137.5486  152.6888 O   0  0  0  0  0  0  0  0  0  0  0  0
  146.0953  135.9717  152.1410 N   0  0  0  0  0  0  0  0  0  0  0  0
  145.1750  134.8896  151.8054 C   0  0  1  0  0  0  0  0  0  0  0  0
  144.5211  135.0682  150.4238 C   0  0  0  0  0  0  0  0  0  0  0  0
  144.4348  133.6505  149.8254 C   0  0  0  0  0  0  0  0  0  0  0  0
  144.9256  132.7484  150.8843 N   0  3  1  0  0  0  0  0  0  0  0  0
  145.4709  131.4416  150.4568 C   0  0  0  0  0  0  0  0  0  0  0  0
  145.8461  130.6154  151.7034 C   0  0  0  0  0  0  0  0  0  0  0  0
  146.7840  131.3969  152.6460 C   0  0  0  0  0  0  0  0  0  0  0  0
  146.2078  132.7866  152.9793 C   0  0  0  0  0  0  0  0  0  0  0  0
  145.8815  133.5372  151.6767 C   0  0  2  0  0  0  0  0  0  0  0  0
  149.5207  139.8646  154.4506 C   0  0  0  0  0  0  0  0  0  0  0  0
  150.5061  140.5965  154.9439 N   0  0  0  0  0  0  0  0  0  0  0  0
  150.0904  142.8314  157.3606 H   0  0  0  0  0  0  0  0  0  0  0  0
  151.1624  143.0338  155.9605 H   0  0  0  0  0  0  0  0  0  0  0  0
  151.5063  141.7774  157.1702 H   0  0  0  0  0  0  0  0  0  0  0  0
  147.9349  141.6339  156.6818 H   0  0  0  0  0  0  0  0  0  0  0  0
  146.8856  138.5045  155.2000 H   0  0  0  0  0  0  0  0  0  0  0  0
  146.1319  140.0717  155.2355 H   0  0  0  0  0  0  0  0  0  0  0  0
  145.6952  139.8204  153.0210 H   0  0  0  0  0  0  0  0  0  0  0  0
  147.4179  140.0178  152.7202 H   0  0  0  0  0  0  0  0  0  0  0  0
  147.6876  137.6574  152.6718 H   0  0  0  0  0  0  0  0  0  0  0  0
  147.0822  135.7768  152.0534 H   0  0  0  0  0  0  0  0  0  0  0  0
  144.3820  134.8164  152.5530 H   0  0  0  0  0  0  0  0  0  0  0  0
  143.5381  135.5321  150.5120 H   0  0  0  0  0  0  0  0  0  0  0  0
  145.1254  135.7042  149.7752 H   0  0  0  0  0  0  0  0  0  0  0  0
  143.4195  133.3836  149.5308 H   0  0  0  0  0  0  0  0  0  0  0  0
  145.0741  133.5773  148.9442 H   0  0  0  0  0  0  0  0  0  0  0  0
  144.7267  130.9104  149.8624 H   0  0  0  0  0  0  0  0  0  0  0  0
  146.3446  131.5931  149.8210 H   0  0  0  0  0  0  0  0  0  0  0  0
  144.9375  130.3466  152.2442 H   0  0  0  0  0  0  0  0  0  0  0  0
  146.3140  129.6771  151.4040 H   0  0  0  0  0  0  0  0  0  0  0  0
  146.9528  130.8307  153.5624 H   0  0  0  0  0  0  0  0  0  0  0  0
  147.7590  131.5136  152.1707 H   0  0  0  0  0  0  0  0  0  0  0  0
  145.3088  132.6811  153.5879 H   0  0  0  0  0  0  0  0  0  0  0  0
  146.9258  133.3506  153.5749 H   0  0  0  0  0  0  0  0  0  0  0  0
  146.7957  133.6649  151.0922 H   0  0  0  0  0  0  0  0  0  0  0  0
  149.7430  139.1564  153.6662 H   0  0  0  0  0  0  0  0  0  0  0  0
  144.1394  132.5629  151.4909 H   0  0  0  0  0  0  0  0  0  0  0  0
  1  2  1  0  0  0  0
  1 22  1  0  0  0  0
  1 23  1  0  0  0  0
  1 24  1  0  0  0  0
  2 21  1  0  0  0  0
  2  3  1  0  0  0  0
  3  4  2  0  0  0  0
  3 25  1  0  0  0  0
  4  5  1  0  0  0  0
  4 20  1  0  0  0  0
  5  6  1  0  0  0  0
  5 26  1  0  0  0  0
  5 27  1  0  0  0  0
  6  7  1  0  0  0  0
  6 28  1  0  0  0  0
  6 29  1  0  0  0  0
  7  8  1  0  0  0  0
  7 30  1  0  0  0  0
  8  9  2  0  0  0  0
  8 10  1  0  0  0  0
 10 11  1  0  0  0  0
 10 31  1  0  0  0  0
 11 19  1  0  0  0  0
 11 12  1  0  0  0  0
 11 32  1  0  0  0  0
 12 13  1  0  0  0  0
 12 33  1  0  0  0  0
 12 34  1  0  0  0  0
 13 14  1  0  0  0  0
 13 35  1  0  0  0  0
 13 36  1  0  0  0  0
 14 19  1  0  0  0  0
 14 15  1  0  0  0  0
 14 47  1  0  0  0  0
 15 16  1  0  0  0  0
 15 37  1  0  0  0  0
 15 38  1  0  0  0  0
 16 17  1  0  0  0  0
 16 39  1  0  0  0  0
 16 40  1  0  0  0  0
 17 18  1  0  0  0  0
 17 41  1  0  0  0  0
 17 42  1  0  0  0  0
 18 19  1  0  0  0  0
 18 43  1  0  0  0  0
 18 44  1  0  0  0  0
 19 45  1  0  0  0  0
 20 21  2  0  0  0  0
 20 46  1  0  0  0  0
M  CHG  1  14   1
M  END
> <s_m_source_file>
AV-unprocessed.smi

> <i_m_source_file_index>
557

> <i_lp_mmshare_version>
43012

> <i_f3d_flags>
0

> <s_epik_input>
W0NIM11uMVtjSF1jKFtjSF1uMSlbQ0gyXVtDSDJdW05IXUMoPU8pW05IXVtDQEhdKFtDSDJdW0NIMl0yKVtDQEhdKE4yMylbQ0gyXVtDSDJdW0NIMl1bQ0gyXTM=

> <s_epik_cmdline>
J2VwaWtfcHl0aG9uJywgJy1waCcsICc3LjAnLCAnLXRuJywgJzgnLCAnLW1hJywgJzIwMCcsICctbWV0YWxfYmluZGluZycsICctaW1hZScsICc8aW5maWxlLm1hZT4nLCAnLW9tYWUnLCAnPG91dGZpbGUubWFlPic=

> <r_lp_tautomer_probability>
1

> <r_epik_Ionization_Penalty>
0.000956547

> <r_epik_Ionization_Penalty_Charging>
0.000435796

> <r_epik_Ionization_Penalty_Neutral>
0.000520752

> <r_epik_State_Penalty>
-0

> <r_epik_Charging_Adjusted_Penalty>
0.000435796

> <i_epik_Tot_Q>
1

> <i_epik_Tot_abs_Q>
1

> <r_epik_Metal_State_Penalty>
-0

> <b_epik_Metal_Only>
0

> <s_lp_Force_Field>
OPLS_2005

> <r_lp_Energy>
39.7592

> <b_lp_Chiralities_Consistent>
1

> <s_lp_Variant>
AV-unprocessed.smi:557-2

> <Gold.Version>
5.8.1

> <Gold.Id.Protein>
6NUR|6NUR_protein|mol2

> <Gold.PLP.Fitness>
43.8826

> <Gold.PLP.PLP>
-34.6759

> <Gold.PLP.part.hbond>
-3.0000

> <Gold.PLP.part.metal>
0.0000

> <Gold.PLP.part.buried>
-4.1331

> <Gold.PLP.part.nonpolar>
-27.0199

> <Gold.PLP.part.repulsive>
0.7319

> <Gold.PLP.ligand.clash>
0.0000

> <Gold.PLP.ligand.torsion>
0.8388

> <Gold.PLP.Chemscore.Hbond>
3.0000

> <Gold.PLP.Chemscore.CHOScore>
0.6241

> <Gold.PLP.Chemscore.Metal>
0.0000

> <Gold.Chemscore.Hbonds>
donor molecule, donor type, donor heavy atom, donor atom, acceptor molecule, acceptor atom, score
      L1  H     7    30       P1  7948  0.93
      L1  H    10    31       P1  7948  1.00
      P1  H  7989  7998       L1    21  0.96
      L1  C    20    46       P1  7957  0.52

> <Gold.PLP.Chemscore.Internal.Correction>
0.0121

> <Gold.Rescore>
     Score         DG    S(hbond)    S(metal)    S(lipo)     H(rot)  DE(clash)    DE(int)     intcor
     19.90     -20.68       2.67        0.00      88.82       1.60       0.05       0.73       ----

> <Gold.Chemscore.Fitness>
19.8963

> <Gold.Chemscore.DG>
-20.6752

> <Gold.Chemscore.ZeroCoef>
-5.4800

> <Gold.Chemscore.Hbond>
2.6657

> <Gold.Chemscore.Metal>
0.0000

> <Gold.Chemscore.Lipo>
88.8247

> <Gold.Chemscore.Internal_Hbond>
0.0000

> <Gold.Chemscore.DEClash>
0.0524

> <Gold.Chemscore.DEInternal>
0.7265

> <Gold.Chemscore.Rot>
1.6018

> <Gold.Chemscore.Internal.Correction>
   9.000000E+99

> <Gold.Chemscore.Hbonds>
donor molecule, donor type, donor heavy atom, donor atom, acceptor molecule, acceptor atom, score
      L1  H     7    30       P1  7948  0.84
      L1  H    10    31       P1  7948  0.98
      P1  H  7989  7998       L1    21  0.41

> <Gold.Chemscore.Hbond.Weighted>
-8.9033

> <Gold.Chemscore.Metal.Weighted>
-0.0000

> <Gold.Chemscore.Lipo.Weighted>
-10.3925

> <Gold.Chemscore.Internal_Hbond.Weighted>
0.0000

> <Gold.Chemscore.DEClash.Weighted>
0.0524

> <Gold.Chemscore.DEInternal.Weighted>
0.7265

> <Gold.Chemscore.Rot.Weighted>
4.1006

> <Gold.Chemscore.Internal.Correction.Weighted>
   9.000000E+99

> <Gold.Protein.RotatedTorsions>
[ 6907 6896 6895 6894 ] final   55.60 input  -60.11 | X-H torsion
[ 7974 7965 7964 7962 ] final  -97.68 input  175.53 | X-H torsion
[ 8008 7997 7996 7995 ] final  118.26 input   59.86 | X-H torsion
[ 10167 10162 10161 10158 ] final -123.20 input  -65.29 | X-H torsion
[ 10718 10713 10712 10709 ] final -148.84 input   66.30 | X-H torsion
[ 10763 10752 10751 10750 ] final  -24.33 input  -60.55 | X-H torsion
[ 11005 11000 10999 10996 ] final   19.72 input  -57.11 | X-H torsion

> <Gold.Protein.ActiveResidues>
 VAL166  LYS551  ARG553  GLY616  TRP617  ASP618  TYR619  PRO620  LYS621  CYS622 
 ASP623  PHE694  ASN695  SER759  ASP760  ASP761  ALA762  ILE779  LEU786  VAL792 
 PHE793  MET794  SER795  GLU796  ALA797  LYS798  CYS799  TRP800  GLU811  SER814 

> <Gold.Protein.RotatedAtoms>
  152.3554  134.6947  160.0223 H   0  0  0  0  0  0  0  0  0  0  0  0  # atno 6907 bound_to 6896
  151.7287  133.3311  159.3342 H   0  0  0  0  0  0  0  0  0  0  0  0  # atno 6908 bound_to 6896
  150.7568  134.6316  159.6234 H   0  0  0  0  0  0  0  0  0  0  0  0  # atno 6909 bound_to 6896
  145.3305  140.9440  143.2664 H   0  0  0  0  0  0  0  0  0  0  0  0  # atno 7974 bound_to 7965
  156.2537  140.2878  156.0807 H   0  0  0  0  0  0  0  0  0  0  0  0  # atno 8008 bound_to 7997
  155.1570  140.0398  157.2851 H   0  0  0  0  0  0  0  0  0  0  0  0  # atno 8009 bound_to 7997
  154.6420  140.2524  155.7318 H   0  0  0  0  0  0  0  0  0  0  0  0  # atno 8010 bound_to 7997
  140.0061  143.5490  152.2283 H   0  0  0  0  0  0  0  0  0  0  0  0  # atno 10167 bound_to 10162
  156.4254  130.8049  151.2274 H   0  0  0  0  0  0  0  0  0  0  0  0  # atno 10718 bound_to 10713
  153.6821  135.6966  153.5115 H   0  0  0  0  0  0  0  0  0  0  0  0  # atno 10763 bound_to 10752
  153.2477  135.4285  155.0764 H   0  0  0  0  0  0  0  0  0  0  0  0  # atno 10764 bound_to 10752
  154.8397  135.3523  154.6364 H   0  0  0  0  0  0  0  0  0  0  0  0  # atno 10765 bound_to 10752
  140.4106  134.1622  155.7667 H   0  0  0  0  0  0  0  0  0  0  0  0  # atno 11005 bound_to 11000
  144.8868  139.4828  143.6697 LP  0  0  0  0  0  0  0  0  0  0  0  0  # atno 17320 bound_to 7965
  146.3047  139.7542  142.9065 LP  0  0  0  0  0  0  0  0  0  0  0  0  # atno 17321 bound_to 7965
  139.6237  144.7633  151.2684 LP  0  0  0  0  0  0  0  0  0  0  0  0  # atno 17342 bound_to 10162
  140.7400  143.6601  150.8171 LP  0  0  0  0  0  0  0  0  0  0  0  0  # atno 17343 bound_to 10162
  157.7508  131.0215  150.3752 LP  0  0  0  0  0  0  0  0  0  0  0  0  # atno 17370 bound_to 10713
  156.4078  130.3928  149.6913 LP  0  0  0  0  0  0  0  0  0  0  0  0  # atno 17371 bound_to 10713
  141.1822  133.8389  157.1215 LP  0  0  0  0  0  0  0  0  0  0  0  0  # atno 17394 bound_to 11000
  140.0270  134.9919  157.0706 LP  0  0  0  0  0  0  0  0  0  0  0  0  # atno 17395 bound_to 11000

$$$$
