AV-unprocessed.smi:1978|AV-procd|sdf|8013|dock3
  -GOLD-   2272010203D 1   1.00000     0.00000
 Structure written by MMmdl.
 44 45  0  0  0  0  0  0  0  0  3 V2000
  149.0687  141.3896  154.3823 C   0  0  0  0  0  0  0  0  0  0  0  0
  149.4437  139.9508  154.4823 C   0  0  0  0  0  0  0  0  0  0  0  0
  148.7145  138.7956  154.4610 C   0  0  0  0  0  0  0  0  0  0  0  0
  149.7060  137.7873  154.5948 C   0  0  0  0  0  0  0  0  0  0  0  0
  149.3441  136.4144  154.6133 N   0  0  0  0  0  0  0  0  0  0  0  0
  149.0362  135.6393  155.6688 C   0  0  0  0  0  0  0  0  0  0  0  0
  149.0536  136.1066  156.8139 O   0  0  0  0  0  0  0  0  0  0  0  0
  148.7243  134.3659  155.3004 N   0  5  0  0  0  0  0  0  0  0  0  0
  147.8897  134.0084  154.1522 C   0  0  0  0  0  0  0  0  0  0  0  0
  148.5423  132.8551  153.3168 C   0  0  1  0  0  0  0  0  0  0  0  0
  149.5418  132.0032  154.1375 C   0  0  0  0  0  0  0  0  0  0  0  0
  147.5753  131.9648  152.5737 N   0  3  1  0  0  0  0  0  0  0  0  0
  147.1737  130.7132  153.2915 C   0  0  0  0  0  0  0  0  0  0  0  0
  146.5070  129.7100  152.3408 C   0  0  0  0  0  0  0  0  0  0  0  0
  145.2845  130.3398  151.6709 C   0  0  0  0  0  0  0  0  0  0  0  0
  145.6992  131.6272  150.9521 C   0  0  0  0  0  0  0  0  0  0  0  0
  146.4012  132.6248  151.8997 C   0  0  2  0  0  0  0  0  0  0  0  0
  146.7713  133.8878  151.0942 C   0  0  0  0  0  0  0  0  0  0  0  0
  150.9299  138.2846  154.6958 N   0  0  0  0  0  0  0  0  0  0  0  0
  150.7679  139.6731  154.6240 O   0  0  0  0  0  0  0  0  0  0  0  0
  148.0096  141.5013  154.1495 H   0  0  0  0  0  0  0  0  0  0  0  0
  149.6412  141.8839  153.5975 H   0  0  0  0  0  0  0  0  0  0  0  0
  149.2654  141.9056  155.3220 H   0  0  0  0  0  0  0  0  0  0  0  0
  147.6445  138.6895  154.3615 H   0  0  0  0  0  0  0  0  0  0  0  0
  149.3175  135.9589  153.7132 H   0  0  0  0  0  0  0  0  0  0  0  0
  146.8946  133.6953  154.4688 H   0  0  0  0  0  0  0  0  0  0  0  0
  147.7215  134.8682  153.5030 H   0  0  0  0  0  0  0  0  0  0  0  0
  149.1708  133.3183  152.5590 H   0  0  0  0  0  0  0  0  0  0  0  0
  150.3994  132.5922  154.4683 H   0  0  0  0  0  0  0  0  0  0  0  0
  149.9418  131.1895  153.5317 H   0  0  0  0  0  0  0  0  0  0  0  0
  149.0983  131.5582  155.0293 H   0  0  0  0  0  0  0  0  0  0  0  0
  148.0368  130.2277  153.7435 H   0  0  0  0  0  0  0  0  0  0  0  0
  146.4854  130.9486  154.1045 H   0  0  0  0  0  0  0  0  0  0  0  0
  147.2218  129.3867  151.5827 H   0  0  0  0  0  0  0  0  0  0  0  0
  146.2102  128.8159  152.8900 H   0  0  0  0  0  0  0  0  0  0  0  0
  144.8388  129.6395  150.9638 H   0  0  0  0  0  0  0  0  0  0  0  0
  144.5217  130.5606  152.4188 H   0  0  0  0  0  0  0  0  0  0  0  0
  146.3639  131.3792  150.1231 H   0  0  0  0  0  0  0  0  0  0  0  0
  144.8163  132.0897  150.5090 H   0  0  0  0  0  0  0  0  0  0  0  0
  145.6815  132.9155  152.6666 H   0  0  0  0  0  0  0  0  0  0  0  0
  145.9187  134.2443  150.5158 H   0  0  0  0  0  0  0  0  0  0  0  0
  147.5839  133.6918  150.3940 H   0  0  0  0  0  0  0  0  0  0  0  0
  147.0664  134.7154  151.7382 H   0  0  0  0  0  0  0  0  0  0  0  0
  148.1330  131.6349  151.7994 H   0  0  0  0  0  0  0  0  0  0  0  0
  1  2  1  0  0  0  0
  1 21  1  0  0  0  0
  1 22  1  0  0  0  0
  1 23  1  0  0  0  0
  2 20  1  0  0  0  0
  2  3  2  0  0  0  0
  3  4  1  0  0  0  0
  3 24  1  0  0  0  0
  4  5  1  0  0  0  0
  4 19  2  0  0  0  0
  5  6  1  0  0  0  0
  5 25  1  0  0  0  0
  6  7  2  0  0  0  0
  6  8  1  0  0  0  0
  8  9  1  0  0  0  0
  9 10  1  0  0  0  0
  9 26  1  0  0  0  0
  9 27  1  0  0  0  0
 10 11  1  0  0  0  0
 10 12  1  0  0  0  0
 10 28  1  0  0  0  0
 11 29  1  0  0  0  0
 11 30  1  0  0  0  0
 11 31  1  0  0  0  0
 12 17  1  0  0  0  0
 12 13  1  0  0  0  0
 12 44  1  0  0  0  0
 13 14  1  0  0  0  0
 13 32  1  0  0  0  0
 13 33  1  0  0  0  0
 14 15  1  0  0  0  0
 14 34  1  0  0  0  0
 14 35  1  0  0  0  0
 15 16  1  0  0  0  0
 15 36  1  0  0  0  0
 15 37  1  0  0  0  0
 16 17  1  0  0  0  0
 16 38  1  0  0  0  0
 16 39  1  0  0  0  0
 17 18  1  0  0  0  0
 17 40  1  0  0  0  0
 18 41  1  0  0  0  0
 18 42  1  0  0  0  0
 18 43  1  0  0  0  0
 19 20  1  0  0  0  0
M  CHG  1   8  -1
M  CHG  1  12   1
M  END
> <s_m_source_file>
AV-unprocessed.smi

> <i_m_source_file_index>
1978

> <i_lp_mmshare_version>
43012

> <i_f3d_flags>
0

> <s_epik_input>
W0NIM11jMVtjSF1jKG5vMSlbTkhdQyg9TylbTkhdW0NIMl1bQ0BIXShbQ0gzXSlOMltDSDJdW0NIMl1bQ0gyXVtDSDJdW0NASF0yW0NIM10=

> <s_epik_cmdline>
J2VwaWtfcHl0aG9uJywgJy1waCcsICc3LjAnLCAnLXRuJywgJzgnLCAnLW1hJywgJzIwMCcsICctbWV0YWxfYmluZGluZycsICctaW1hZScsICc8aW5maWxlLm1hZT4nLCAnLW9tYWUnLCAnPG91dGZpbGUubWFlPic=

> <r_epik_Ionization_Penalty>
6.7666

> <r_epik_Ionization_Penalty_Charging>
6.7666

> <r_epik_Ionization_Penalty_Neutral>
5.77131e-06

> <r_epik_State_Penalty>
6.79217

> <r_epik_Charging_Adjusted_Penalty>
13.5588

> <i_epik_Tot_Q>
0

> <i_epik_Tot_abs_Q>
2

> <r_epik_Metal_State_Penalty>
2.72569

> <b_epik_Metal_Only>
1

> <s_lp_Force_Field>
OPLS_2005

> <r_lp_Energy>
22.3243

> <b_lp_Chiralities_Consistent>
1

> <s_lp_Variant>
AV-unprocessed.smi:1978-22

> <Gold.Version>
5.8.1

> <Gold.Id.Protein>
6NUR|6NUR_protein|mol2

> <Gold.PLP.Fitness>
39.0114

> <Gold.PLP.PLP>
-34.1731

> <Gold.PLP.part.hbond>
-3.0000

> <Gold.PLP.part.metal>
0.0000

> <Gold.PLP.part.buried>
-4.7447

> <Gold.PLP.part.nonpolar>
-25.4900

> <Gold.PLP.part.repulsive>
0.3354

> <Gold.PLP.ligand.clash>
0.0000

> <Gold.PLP.ligand.torsion>
2.0796

> <Gold.PLP.Chemscore.Hbond>
2.9120

> <Gold.PLP.Chemscore.CHOScore>
0.0000

> <Gold.PLP.Chemscore.Metal>
0.0000

> <Gold.Chemscore.Hbonds>
donor molecule, donor type, donor heavy atom, donor atom, acceptor molecule, acceptor atom, score
      L1  H     5    25       P1  7948  0.90
      L1  H    12    44       P1 10747  1.00
      P1  H  7989  7998       L1    20  1.00

> <Gold.PLP.Chemscore.Internal.Correction>
0.2614

> <Gold.Rescore>
     Score         DG    S(hbond)    S(metal)    S(lipo)     H(rot)  DE(clash)    DE(int)     intcor
     18.58     -20.50       2.81        0.00      81.36       1.52       0.09       1.83       ----

> <Gold.Chemscore.Fitness>
18.5784

> <Gold.Chemscore.DG>
-20.4991

> <Gold.Chemscore.ZeroCoef>
-5.4800

> <Gold.Chemscore.Hbond>
2.8108

> <Gold.Chemscore.Metal>
0.0000

> <Gold.Chemscore.Lipo>
81.3645

> <Gold.Chemscore.Internal_Hbond>
0.0000

> <Gold.Chemscore.DEClash>
0.0898

> <Gold.Chemscore.DEInternal>
1.8308

> <Gold.Chemscore.Rot>
1.5190

> <Gold.Chemscore.Internal.Correction>
   9.000000E+99

> <Gold.Chemscore.Hbonds>
donor molecule, donor type, donor heavy atom, donor atom, acceptor molecule, acceptor atom, score
      L1  H     5    25       P1  7948  0.62
      L1  H    12    44       P1 10747  1.00
      P1  H  7989  7998       L1    20  0.50

> <Gold.Chemscore.Hbond.Weighted>
-9.3880

> <Gold.Chemscore.Metal.Weighted>
-0.0000

> <Gold.Chemscore.Lipo.Weighted>
-9.5197

> <Gold.Chemscore.Internal_Hbond.Weighted>
0.0000

> <Gold.Chemscore.DEClash.Weighted>
0.0898

> <Gold.Chemscore.DEInternal.Weighted>
1.8308

> <Gold.Chemscore.Rot.Weighted>
3.8886

> <Gold.Chemscore.Internal.Correction.Weighted>
   9.000000E+99

> <Gold.Protein.RotatedTorsions>
[ 6907 6896 6895 6894 ] final   31.03 input  -60.11 | X-H torsion
[ 7974 7965 7964 7962 ] final  155.50 input  175.53 | X-H torsion
[ 8008 7997 7996 7995 ] final   36.82 input   59.86 | X-H torsion
[ 10167 10162 10161 10158 ] final  -28.92 input  -65.29 | X-H torsion
[ 10718 10713 10712 10709 ] final  -79.26 input   66.30 | X-H torsion
[ 10763 10752 10751 10750 ] final -166.57 input  -60.55 | X-H torsion
[ 11005 11000 10999 10996 ] final  153.85 input  -57.11 | X-H torsion

> <Gold.Protein.ActiveResidues>
 VAL166  LYS551  ARG553  GLY616  TRP617  ASP618  TYR619  PRO620  LYS621  CYS622 
 ASP623  PHE694  ASN695  SER759  ASP760  ASP761  ALA762  ILE779  LEU786  VAL792 
 PHE793  MET794  SER795  GLU796  ALA797  LYS798  CYS799  TRP800  GLU811  SER814 

> <Gold.Protein.RotatedAtoms>
  152.0544  134.9633  160.0574 H   0  0  0  0  0  0  0  0  0  0  0  0  # atno 6907 bound_to 6896
  152.1022  133.4251  159.4600 H   0  0  0  0  0  0  0  0  0  0  0  0  # atno 6908 bound_to 6896
  150.6840  134.2666  159.4614 H   0  0  0  0  0  0  0  0  0  0  0  0  # atno 6909 bound_to 6896
  144.8021  139.7077  143.6177 H   0  0  0  0  0  0  0  0  0  0  0  0  # atno 7974 bound_to 7965
  155.1936  140.3310  155.4354 H   0  0  0  0  0  0  0  0  0  0  0  0  # atno 8008 bound_to 7997
  156.2433  140.1906  156.6977 H   0  0  0  0  0  0  0  0  0  0  0  0  # atno 8009 bound_to 7997
  154.6189  140.0598  156.9575 H   0  0  0  0  0  0  0  0  0  0  0  0  # atno 8010 bound_to 7997
  140.7265  143.3971  151.1329 H   0  0  0  0  0  0  0  0  0  0  0  0  # atno 10167 bound_to 10162
  156.0097  130.4541  150.3621 H   0  0  0  0  0  0  0  0  0  0  0  0  # atno 10718 bound_to 10713
  154.6820  135.2956  154.9600 H   0  0  0  0  0  0  0  0  0  0  0  0  # atno 10763 bound_to 10752
  154.0592  135.6634  153.4813 H   0  0  0  0  0  0  0  0  0  0  0  0  # atno 10764 bound_to 10752
  153.0553  135.5148  154.7868 H   0  0  0  0  0  0  0  0  0  0  0  0  # atno 10765 bound_to 10752
  140.1435  134.8723  157.2362 H   0  0  0  0  0  0  0  0  0  0  0  0  # atno 11005 bound_to 11000
  146.2304  139.5803  142.9559 LP  0  0  0  0  0  0  0  0  0  0  0  0  # atno 17320 bound_to 7965
  145.5528  141.0412  143.2269 LP  0  0  0  0  0  0  0  0  0  0  0  0  # atno 17321 bound_to 7965
  139.7585  143.8671  152.3094 LP  0  0  0  0  0  0  0  0  0  0  0  0  # atno 17342 bound_to 10162
  139.8549  144.7146  150.9169 LP  0  0  0  0  0  0  0  0  0  0  0  0  # atno 17343 bound_to 10162
  157.1709  131.0368  151.2795 LP  0  0  0  0  0  0  0  0  0  0  0  0  # atno 17370 bound_to 10713
  157.4229  130.7448  149.6928 LP  0  0  0  0  0  0  0  0  0  0  0  0  # atno 17371 bound_to 10713
  140.2692  134.3480  155.7379 LP  0  0  0  0  0  0  0  0  0  0  0  0  # atno 17394 bound_to 11000
  141.2189  133.7413  156.9197 LP  0  0  0  0  0  0  0  0  0  0  0  0  # atno 17395 bound_to 11000

$$$$
