AV-unprocessed.smi:115|AV-procd|sdf|1125|dock9
  -GOLD-   2262018253D 1   1.00000     0.00000
 Structure written by MMmdl.
 55 57  0  0  0  0  0  0  0  0  1 V2000
  150.9374  129.8331  157.2338 C   0  0  0  0  0  0  0  0  0  0  0  0
  149.9273  130.7651  156.8773 O   0  0  0  0  0  0  0  0  0  0  0  0
  150.0748  132.0409  157.4876 C   0  0  0  0  0  0  0  0  0  0  0  0
  149.0976  133.0756  156.8818 C   0  0  2  0  0  0  0  0  0  0  0  0
  149.3517  133.3670  155.3928 C   0  0  0  0  0  0  0  0  0  0  0  0
  148.9913  134.3133  157.6727 N   0  0  0  0  0  0  0  0  0  0  0  0
  147.8261  134.7241  158.3178 C   0  0  0  0  0  0  0  0  0  0  0  0
  146.5416  133.9576  158.2764 C   0  0  0  0  0  0  0  0  0  0  0  0
  148.0927  135.8941  158.9615 C   0  0  0  0  0  0  0  0  0  0  0  0
  149.4427  136.2578  158.7075 C   0  0  0  0  0  0  0  0  0  0  0  0
  150.2010  137.4315  159.2223 C   0  0  0  0  0  0  0  0  0  0  0  0
  150.0128  137.9167  160.3374 O   0  0  0  0  0  0  0  0  0  0  0  0
  151.2608  138.0574  158.2988 C   0  0  0  0  0  0  0  0  0  0  0  0
  150.8886  139.4075  157.8976 N   0  0  0  0  0  0  0  0  0  0  0  0
  149.6630  139.5713  157.2036 C   0  0  0  0  0  0  0  0  0  0  0  0
  148.9288  138.6177  156.9385 O   0  0  0  0  0  0  0  0  0  0  0  0
  149.3564  140.9473  156.8280 C   0  0  0  0  0  0  0  0  0  0  0  0
  148.2226  141.2169  156.1591 F   0  0  0  0  0  0  0  0  0  0  0  0
  150.1958  141.9582  157.1393 C   0  0  0  0  0  0  0  0  0  0  0  0
  151.3841  141.7700  157.8238 N   0  0  0  0  0  0  0  0  0  0  0  0
  152.2914  142.9366  158.1399 C   0  0  1  0  0  0  0  0  0  0  0  0
  151.7925  144.2057  157.4384 C   0  0  0  0  0  0  0  0  0  0  0  0
  151.0495  144.9137  158.5512 C   0  0  0  0  0  0  0  0  0  0  0  0
  151.8688  144.5129  159.7718 C   0  0  0  0  0  0  0  0  0  0  0  0
  152.2637  143.1688  159.5189 O   0  0  0  0  0  0  0  0  0  0  0  0
  151.7748  140.4684  158.2076 C   0  0  0  0  0  0  0  0  0  0  0  0
  152.8512  140.2741  158.7769 O   0  0  0  0  0  0  0  0  0  0  0  0
  149.9770  135.2897  157.8848 C   0  0  0  0  0  0  0  0  0  0  0  0
  151.3490  135.1981  157.2747 C   0  0  0  0  0  0  0  0  0  0  0  0
  150.7474  128.8835  156.7334 H   0  0  0  0  0  0  0  0  0  0  0  0
  150.9628  129.6436  158.3069 H   0  0  0  0  0  0  0  0  0  0  0  0
  151.9215  130.1832  156.9196 H   0  0  0  0  0  0  0  0  0  0  0  0
  149.9477  131.9613  158.5690 H   0  0  0  0  0  0  0  0  0  0  0  0
  151.1059  132.3455  157.3207 H   0  0  0  0  0  0  0  0  0  0  0  0
  148.1224  132.5981  156.9162 H   0  0  0  0  0  0  0  0  0  0  0  0
  149.3198  132.4472  154.8084 H   0  0  0  0  0  0  0  0  0  0  0  0
  150.3183  133.8328  155.2125 H   0  0  0  0  0  0  0  0  0  0  0  0
  148.5872  134.0332  154.9921 H   0  0  0  0  0  0  0  0  0  0  0  0
  145.7445  134.5099  158.7746 H   0  0  0  0  0  0  0  0  0  0  0  0
  146.6423  132.9963  158.7809 H   0  0  0  0  0  0  0  0  0  0  0  0
  146.2246  133.7783  157.2488 H   0  0  0  0  0  0  0  0  0  0  0  0
  147.3736  136.4292  159.5633 H   0  0  0  0  0  0  0  0  0  0  0  0
  152.2539  138.1128  158.7425 H   0  0  0  0  0  0  0  0  0  0  0  0
  151.3906  137.4509  157.4018 H   0  0  0  0  0  0  0  0  0  0  0  0
  149.9184  142.9552  156.8306 H   0  0  0  0  0  0  0  0  0  0  0  0
  153.2993  142.6404  157.8460 H   0  0  0  0  0  0  0  0  0  0  0  0
  152.6573  144.7909  157.1233 H   0  0  0  0  0  0  0  0  0  0  0  0
  151.1782  143.9843  156.5644 H   0  0  0  0  0  0  0  0  0  0  0  0
  150.9936  145.9933  158.4106 H   0  0  0  0  0  0  0  0  0  0  0  0
  150.0334  144.5264  158.6335 H   0  0  0  0  0  0  0  0  0  0  0  0
  152.7618  145.1342  159.8528 H   0  0  0  0  0  0  0  0  0  0  0  0
  151.3085  144.5971  160.7030 H   0  0  0  0  0  0  0  0  0  0  0  0
  151.7802  136.1835  157.1066 H   0  0  0  0  0  0  0  0  0  0  0  0
  151.3398  134.7230  156.2983 H   0  0  0  0  0  0  0  0  0  0  0  0
  152.0255  134.6411  157.9227 H   0  0  0  0  0  0  0  0  0  0  0  0
  1  2  1  0  0  0  0
  1 30  1  0  0  0  0
  1 31  1  0  0  0  0
  1 32  1  0  0  0  0
  2  3  1  0  0  0  0
  3  4  1  0  0  0  0
  3 33  1  0  0  0  0
  3 34  1  0  0  0  0
  4  5  1  0  0  0  0
  4  6  1  0  0  0  0
  4 35  1  0  0  0  0
  5 36  1  0  0  0  0
  5 37  1  0  0  0  0
  5 38  1  0  0  0  0
  6 28  1  0  0  0  0
  6  7  1  0  0  0  0
  7  8  1  0  0  0  0
  7  9  2  0  0  0  0
  8 39  1  0  0  0  0
  8 40  1  0  0  0  0
  8 41  1  0  0  0  0
  9 10  1  0  0  0  0
  9 42  1  0  0  0  0
 10 11  1  0  0  0  0
 10 28  2  0  0  0  0
 11 12  2  0  0  0  0
 11 13  1  0  0  0  0
 13 14  1  0  0  0  0
 13 43  1  0  0  0  0
 13 44  1  0  0  0  0
 14 26  1  0  0  0  0
 14 15  1  0  0  0  0
 15 16  2  0  0  0  0
 15 17  1  0  0  0  0
 17 18  1  0  0  0  0
 17 19  2  0  0  0  0
 19 20  1  0  0  0  0
 19 45  1  0  0  0  0
 20 21  1  0  0  0  0
 20 26  1  0  0  0  0
 21 25  1  0  0  0  0
 21 22  1  0  0  0  0
 21 46  1  0  0  0  0
 22 23  1  0  0  0  0
 22 47  1  0  0  0  0
 22 48  1  0  0  0  0
 23 24  1  0  0  0  0
 23 49  1  0  0  0  0
 23 50  1  0  0  0  0
 24 25  1  0  0  0  0
 24 51  1  0  0  0  0
 24 52  1  0  0  0  0
 26 27  2  0  0  0  0
 28 29  1  0  0  0  0
 29 53  1  0  0  0  0
 29 54  1  0  0  0  0
 29 55  1  0  0  0  0
M  END
> <s_m_source_file>
AV-unprocessed.smi

> <i_m_source_file_index>
115

> <i_lp_mmshare_version>
43012

> <i_f3d_flags>
0

> <s_epik_input>
W0NIM11PW0NIMl1bQ0BIXShbQ0gzXSluMWMoW0NIM10pW2NIXWMoYzFbQ0gzXSlDKD1PKVtDSDJdbjJjKD1PKWMoRilbY0hdbihjMj1PKVtDQEBIXTNbQ0gyXVtDSDJdW0NIMl1PMw==

> <s_epik_cmdline>
J2VwaWtfcHl0aG9uJywgJy1waCcsICc3LjAnLCAnLXRuJywgJzgnLCAnLW1hJywgJzIwMCcsICctbWV0YWxfYmluZGluZycsICctaW1hZScsICc8aW5maWxlLm1hZT4nLCAnLW9tYWUnLCAnPG91dGZpbGUubWFlPic=

> <r_lp_tautomer_probability>
1

> <r_epik_Ionization_Penalty>
5.02611e-09

> <r_epik_Ionization_Penalty_Charging>
5.01743e-09

> <r_epik_Ionization_Penalty_Neutral>
8.68114e-12

> <r_epik_State_Penalty>
-0

> <r_epik_Charging_Adjusted_Penalty>
5.01743e-09

> <i_epik_Tot_Q>
0

> <i_epik_Tot_abs_Q>
0

> <r_epik_Metal_State_Penalty>
-0

> <b_epik_Metal_Only>
0

> <s_epik_Chemistry_Notes>
This compound contains an acetal/aminal-like group ( X-CH(R)-Y where X, Y are N, S, or O) that may be acid/base labile, releasing an aldehyde.

> <s_lp_Force_Field>
OPLS_2005

> <r_lp_Energy>
51.0988

> <b_lp_Chiralities_Consistent>
1

> <s_lp_Variant>
AV-unprocessed.smi:115-3

> <Gold.Version>
5.8.1

> <Gold.Id.Protein>
6NUR|6NUR_protein|mol2

> <Gold.PLP.Fitness>
44.1954

> <Gold.PLP.PLP>
-39.6354

> <Gold.PLP.part.hbond>
-2.0000

> <Gold.PLP.part.metal>
0.0000

> <Gold.PLP.part.buried>
-3.9981

> <Gold.PLP.part.nonpolar>
-32.6661

> <Gold.PLP.part.repulsive>
0.0095

> <Gold.PLP.ligand.clash>
0.0000

> <Gold.PLP.ligand.torsion>
0.8070

> <Gold.PLP.Chemscore.Hbond>
0.9600

> <Gold.PLP.Chemscore.CHOScore>
0.9949

> <Gold.PLP.Chemscore.Metal>
0.0000

> <Gold.Chemscore.Hbonds>
donor molecule, donor type, donor heavy atom, donor atom, acceptor molecule, acceptor atom, score
      L1  C    19    45       P1  8028  1.00

> <Gold.PLP.Chemscore.Internal.Correction>
0.3094

> <Gold.Rescore>
     Score         DG    S(hbond)    S(metal)    S(lipo)     H(rot)  DE(clash)    DE(int)     intcor
     10.47     -14.98       1.92        0.00      74.40       2.19       0.17       4.34       ----

> <Gold.Chemscore.Fitness>
10.4707

> <Gold.Chemscore.DG>
-14.9799

> <Gold.Chemscore.ZeroCoef>
-5.4800

> <Gold.Chemscore.Hbond>
1.9193

> <Gold.Chemscore.Metal>
0.0000

> <Gold.Chemscore.Lipo>
74.4045

> <Gold.Chemscore.Internal_Hbond>
0.0000

> <Gold.Chemscore.DEClash>
0.1730

> <Gold.Chemscore.DEInternal>
4.3362

> <Gold.Chemscore.Rot>
2.1938

> <Gold.Chemscore.Internal.Correction>
   9.000000E+99

> <Gold.Chemscore.Hbonds>
donor molecule, donor type, donor heavy atom, donor atom, acceptor molecule, acceptor atom, score
      P1  H  6931  6943       L1    12  0.02
      P1  H  7997  8009       L1    27  0.02

> <Gold.Chemscore.Hbond.Weighted>
-6.4105

> <Gold.Chemscore.Metal.Weighted>
-0.0000

> <Gold.Chemscore.Lipo.Weighted>
-8.7053

> <Gold.Chemscore.Internal_Hbond.Weighted>
0.0000

> <Gold.Chemscore.DEClash.Weighted>
0.1730

> <Gold.Chemscore.DEInternal.Weighted>
4.3362

> <Gold.Chemscore.Rot.Weighted>
5.6160

> <Gold.Chemscore.Internal.Correction.Weighted>
   9.000000E+99

> <Gold.Protein.RotatedTorsions>
[ 6907 6896 6895 6894 ] final  112.30 input  -60.11 | X-H torsion
[ 7974 7965 7964 7962 ] final  -57.23 input  175.53 | X-H torsion
[ 8008 7997 7996 7995 ] final  156.66 input   59.86 | X-H torsion
[ 10167 10162 10161 10158 ] final   49.13 input  -65.29 | X-H torsion
[ 10718 10713 10712 10709 ] final -173.49 input   66.30 | X-H torsion
[ 10763 10752 10751 10750 ] final  -37.08 input  -60.55 | X-H torsion
[ 11005 11000 10999 10996 ] final -157.86 input  -57.11 | X-H torsion

> <Gold.Protein.ActiveResidues>
 VAL166  LYS551  ARG553  GLY616  TRP617  ASP618  TYR619  PRO620  LYS621  CYS622 
 ASP623  PHE694  ASN695  SER759  ASP760  ASP761  ALA762  ILE779  LEU786  VAL792 
 PHE793  MET794  SER795  GLU796  ALA797  LYS798  CYS799  TRP800  GLU811  SER814 

> <Gold.Protein.RotatedAtoms>
  152.4923  133.8535  159.7213 H   0  0  0  0  0  0  0  0  0  0  0  0  # atno 6907 bound_to 6896
  150.9066  133.7042  159.2872 H   0  0  0  0  0  0  0  0  0  0  0  0  # atno 6908 bound_to 6896
  151.4465  135.1030  159.9738 H   0  0  0  0  0  0  0  0  0  0  0  0  # atno 6909 bound_to 6896
  145.8535  140.8336  142.9973 H   0  0  0  0  0  0  0  0  0  0  0  0  # atno 7974 bound_to 7965
  156.2409  140.1906  156.6990 H   0  0  0  0  0  0  0  0  0  0  0  0  # atno 8008 bound_to 7997
  154.6196  140.0610  156.9624 H   0  0  0  0  0  0  0  0  0  0  0  0  # atno 8009 bound_to 7997
  155.1883  140.3282  155.4365 H   0  0  0  0  0  0  0  0  0  0  0  0  # atno 8010 bound_to 7997
  140.2861  144.3100  150.6252 H   0  0  0  0  0  0  0  0  0  0  0  0  # atno 10167 bound_to 10162
  156.7711  130.9449  151.3120 H   0  0  0  0  0  0  0  0  0  0  0  0  # atno 10718 bound_to 10713
  153.8904  135.6812  153.4761 H   0  0  0  0  0  0  0  0  0  0  0  0  # atno 10763 bound_to 10752
  153.1184  135.4751  154.9152 H   0  0  0  0  0  0  0  0  0  0  0  0  # atno 10764 bound_to 10752
  154.7625  135.3215  154.8303 H   0  0  0  0  0  0  0  0  0  0  0  0  # atno 10765 bound_to 10752
  140.6600  134.4359  157.5234 H   0  0  0  0  0  0  0  0  0  0  0  0  # atno 11005 bound_to 11000
  144.6728  140.0988  143.7461 LP  0  0  0  0  0  0  0  0  0  0  0  0  # atno 17320 bound_to 7965
  145.9331  139.2619  143.1313 LP  0  0  0  0  0  0  0  0  0  0  0  0  # atno 17321 bound_to 7965
  140.5771  143.2175  151.7495 LP  0  0  0  0  0  0  0  0  0  0  0  0  # atno 17342 bound_to 10162
  139.4950  144.4134  152.0056 LP  0  0  0  0  0  0  0  0  0  0  0  0  # atno 17343 bound_to 10162
  157.6690  130.9034  149.9998 LP  0  0  0  0  0  0  0  0  0  0  0  0  # atno 17370 bound_to 10713
  156.1277  130.3644  149.9782 LP  0  0  0  0  0  0  0  0  0  0  0  0  # atno 17371 bound_to 10713
  139.9016  134.8543  156.1872 LP  0  0  0  0  0  0  0  0  0  0  0  0  # atno 17394 bound_to 11000
  141.0472  133.6907  156.1705 LP  0  0  0  0  0  0  0  0  0  0  0  0  # atno 17395 bound_to 11000

$$$$
