AV-unprocessed.smi:1758|AV-procd|sdf|7081|dock8
  -GOLD-   22720 8303D 1   1.00000     0.00000
 Structure written by MMmdl.
 44 46  0  0  0  0  0  0  0  0  2 V2000
  145.5014  143.3338  154.2397 C   0  0  0  0  0  0  0  0  0  0  0  0
  146.8767  142.6788  154.0659 C   0  0  0  0  0  0  0  0  0  0  0  0
  146.8102  141.2396  154.2263 N   0  0  0  0  0  0  0  0  0  0  0  0
  147.1757  140.2623  153.3218 C   0  0  0  0  0  0  0  0  0  0  0  0
  146.9229  139.0717  153.9427 C   0  0  0  0  0  0  0  0  0  0  0  0
  147.1071  137.7499  153.4640 N   0  0  0  0  0  0  0  0  0  0  0  0
  146.4072  136.6549  153.8031 C   0  0  0  0  0  0  0  0  0  0  0  0
  145.4510  136.6388  154.5780 O   0  0  0  0  0  0  0  0  0  0  0  0
  146.8804  135.5651  153.1825 N   0  0  0  0  0  0  0  0  0  0  0  0
  146.3508  134.2114  153.3235 C   0  0  2  0  0  0  0  0  0  0  0  0
  147.4090  133.1869  153.7699 C   0  0  0  0  0  0  0  0  0  0  0  0
  147.0877  131.9004  152.9821 C   0  0  0  0  0  0  0  0  0  0  0  0
  145.8540  132.2006  152.2301 N   0  3  2  0  0  0  0  0  0  0  0  0
  145.6010  131.4141  151.0032 C   0  0  0  0  0  0  0  0  0  0  0  0
  144.2361  131.8204  150.4105 C   0  0  0  0  0  0  0  0  0  0  0  0
  144.1290  133.3457  150.2038 C   0  0  0  0  0  0  0  0  0  0  0  0
  144.4935  134.1094  151.4918 C   0  0  0  0  0  0  0  0  0  0  0  0
  145.8749  133.6502  151.9847 C   0  0  1  0  0  0  0  0  0  0  0  0
  146.4064  139.4042  155.2220 C   0  0  0  0  0  0  0  0  0  0  0  0
  146.3418  140.7166  155.3865 N   0  0  0  0  0  0  0  0  0  0  0  0
  145.5720  144.4164  154.1331 H   0  0  0  0  0  0  0  0  0  0  0  0
  145.0870  143.1222  155.2257 H   0  0  0  0  0  0  0  0  0  0  0  0
  144.7942  142.9717  153.4927 H   0  0  0  0  0  0  0  0  0  0  0  0
  147.2840  142.9050  153.0795 H   0  0  0  0  0  0  0  0  0  0  0  0
  147.5792  143.0793  154.7979 H   0  0  0  0  0  0  0  0  0  0  0  0
  147.5702  140.5032  152.3457 H   0  0  0  0  0  0  0  0  0  0  0  0
  147.8586  137.6249  152.8017 H   0  0  0  0  0  0  0  0  0  0  0  0
  147.6706  135.6816  152.5649 H   0  0  0  0  0  0  0  0  0  0  0  0
  145.5200  134.1780  154.0315 H   0  0  0  0  0  0  0  0  0  0  0  0
  148.4183  133.5242  153.5297 H   0  0  0  0  0  0  0  0  0  0  0  0
  147.3664  133.0251  154.8476 H   0  0  0  0  0  0  0  0  0  0  0  0
  147.9019  131.6717  152.2927 H   0  0  0  0  0  0  0  0  0  0  0  0
  146.9427  131.0381  153.6335 H   0  0  0  0  0  0  0  0  0  0  0  0
  146.3989  131.5861  150.2791 H   0  0  0  0  0  0  0  0  0  0  0  0
  145.6055  130.3502  151.2429 H   0  0  0  0  0  0  0  0  0  0  0  0
  144.0705  131.3028  149.4649 H   0  0  0  0  0  0  0  0  0  0  0  0
  143.4410  131.4935  151.0820 H   0  0  0  0  0  0  0  0  0  0  0  0
  144.7998  133.6499  149.3994 H   0  0  0  0  0  0  0  0  0  0  0  0
  143.1214  133.6109  149.8824 H   0  0  0  0  0  0  0  0  0  0  0  0
  144.4953  135.1836  151.3048 H   0  0  0  0  0  0  0  0  0  0  0  0
  143.7397  133.9253  152.2587 H   0  0  0  0  0  0  0  0  0  0  0  0
  146.6247  133.8623  151.2186 H   0  0  0  0  0  0  0  0  0  0  0  0
  146.0825  138.7523  156.0200 H   0  0  0  0  0  0  0  0  0  0  0  0
  145.0842  132.0300  152.8615 H   0  0  0  0  0  0  0  0  0  0  0  0
  1  2  1  0  0  0  0
  1 21  1  0  0  0  0
  1 22  1  0  0  0  0
  1 23  1  0  0  0  0
  2  3  1  0  0  0  0
  2 24  1  0  0  0  0
  2 25  1  0  0  0  0
  3 20  1  0  0  0  0
  3  4  1  0  0  0  0
  4  5  2  0  0  0  0
  4 26  1  0  0  0  0
  5  6  1  0  0  0  0
  5 19  1  0  0  0  0
  6  7  1  0  0  0  0
  6 27  1  0  0  0  0
  7  8  2  0  0  0  0
  7  9  1  0  0  0  0
  9 10  1  0  0  0  0
  9 28  1  0  0  0  0
 10 18  1  0  0  0  0
 10 11  1  0  0  0  0
 10 29  1  0  0  0  0
 11 12  1  0  0  0  0
 11 30  1  0  0  0  0
 11 31  1  0  0  0  0
 12 13  1  0  0  0  0
 12 32  1  0  0  0  0
 12 33  1  0  0  0  0
 13 18  1  0  0  0  0
 13 14  1  0  0  0  0
 13 44  1  0  0  0  0
 14 15  1  0  0  0  0
 14 34  1  0  0  0  0
 14 35  1  0  0  0  0
 15 16  1  0  0  0  0
 15 36  1  0  0  0  0
 15 37  1  0  0  0  0
 16 17  1  0  0  0  0
 16 38  1  0  0  0  0
 16 39  1  0  0  0  0
 17 18  1  0  0  0  0
 17 40  1  0  0  0  0
 17 41  1  0  0  0  0
 18 42  1  0  0  0  0
 19 20  2  0  0  0  0
 19 43  1  0  0  0  0
M  CHG  1  13   1
M  END
> <s_m_source_file>
AV-unprocessed.smi

> <i_m_source_file_index>
1758

> <i_lp_mmshare_version>
43012

> <i_f3d_flags>
0

> <s_epik_input>
W0NIM11bQ0gyXW4xW2NIXWMoW2NIXW4xKVtOSF1DKD1PKVtOSF1bQ0BIXShbQ0gyXVtDSDJdMilbQ0BASF0oTjIzKVtDSDJdW0NIMl1bQ0gyXVtDSDJdMw==

> <s_epik_cmdline>
J2VwaWtfcHl0aG9uJywgJy1waCcsICc3LjAnLCAnLXRuJywgJzgnLCAnLW1hJywgJzIwMCcsICctbWV0YWxfYmluZGluZycsICctaW1hZScsICc8aW5maWxlLm1hZT4nLCAnLW9tYWUnLCAnPG91dGZpbGUubWFlPic=

> <r_lp_tautomer_probability>
1

> <r_epik_Ionization_Penalty>
0.00111541

> <r_epik_Ionization_Penalty_Charging>
0.000974069

> <r_epik_Ionization_Penalty_Neutral>
0.000141346

> <r_epik_State_Penalty>
0.000633842

> <r_epik_Charging_Adjusted_Penalty>
0.00160791

> <i_epik_Tot_Q>
1

> <i_epik_Tot_abs_Q>
1

> <r_epik_Metal_State_Penalty>
-0

> <b_epik_Metal_Only>
0

> <s_lp_Force_Field>
OPLS_2005

> <r_lp_Energy>
39.1276

> <b_lp_Chiralities_Consistent>
1

> <s_lp_Variant>
AV-unprocessed.smi:1758-3

> <Gold.Version>
5.8.1

> <Gold.Id.Protein>
6NUR|6NUR_protein|mol2

> <Gold.PLP.Fitness>
40.2688

> <Gold.PLP.PLP>
-32.0432

> <Gold.PLP.part.hbond>
-1.9615

> <Gold.PLP.part.metal>
0.0000

> <Gold.PLP.part.buried>
-5.5311

> <Gold.PLP.part.nonpolar>
-25.8786

> <Gold.PLP.part.repulsive>
0.1343

> <Gold.PLP.ligand.clash>
0.0000

> <Gold.PLP.ligand.torsion>
0.1887

> <Gold.PLP.Chemscore.Hbond>
1.8640

> <Gold.PLP.Chemscore.CHOScore>
1.0000

> <Gold.PLP.Chemscore.Metal>
0.0000

> <Gold.Chemscore.Hbonds>
donor molecule, donor type, donor heavy atom, donor atom, acceptor molecule, acceptor atom, score
      L1  H     6    27       P1  7948  0.88
      L1  H     9    28       P1  7948  1.00
      L1  C     4    26       P1  7957  1.00

> <Gold.PLP.Chemscore.Internal.Correction>
0.0110

> <Gold.Rescore>
     Score         DG    S(hbond)    S(metal)    S(lipo)     H(rot)  DE(clash)    DE(int)     intcor
     17.72     -18.18       1.95        0.00      78.98       1.19       0.11       0.36       ----

> <Gold.Chemscore.Fitness>
17.7162

> <Gold.Chemscore.DG>
-18.1808

> <Gold.Chemscore.ZeroCoef>
-5.4800

> <Gold.Chemscore.Hbond>
1.9467

> <Gold.Chemscore.Metal>
0.0000

> <Gold.Chemscore.Lipo>
78.9841

> <Gold.Chemscore.Internal_Hbond>
0.0000

> <Gold.Chemscore.DEClash>
0.1078

> <Gold.Chemscore.DEInternal>
0.3568

> <Gold.Chemscore.Rot>
1.1884

> <Gold.Chemscore.Internal.Correction>
   9.000000E+99

> <Gold.Chemscore.Hbonds>
donor molecule, donor type, donor heavy atom, donor atom, acceptor molecule, acceptor atom, score
      L1  H     6    27       P1  7948  0.84
      L1  H     9    28       P1  7948  0.95

> <Gold.Chemscore.Hbond.Weighted>
-6.5020

> <Gold.Chemscore.Metal.Weighted>
-0.0000

> <Gold.Chemscore.Lipo.Weighted>
-9.2411

> <Gold.Chemscore.Internal_Hbond.Weighted>
0.0000

> <Gold.Chemscore.DEClash.Weighted>
0.1078

> <Gold.Chemscore.DEInternal.Weighted>
0.3568

> <Gold.Chemscore.Rot.Weighted>
3.0423

> <Gold.Chemscore.Internal.Correction.Weighted>
   9.000000E+99

> <Gold.Protein.RotatedTorsions>
[ 6907 6896 6895 6894 ] final  -55.75 input  -60.11 | X-H torsion
[ 7974 7965 7964 7962 ] final   73.92 input  175.53 | X-H torsion
[ 8008 7997 7996 7995 ] final   16.41 input   59.86 | X-H torsion
[ 10167 10162 10161 10158 ] final  166.89 input  -65.29 | X-H torsion
[ 10718 10713 10712 10709 ] final  -14.02 input   66.30 | X-H torsion
[ 10763 10752 10751 10750 ] final  -89.32 input  -60.55 | X-H torsion
[ 11005 11000 10999 10996 ] final   34.91 input  -57.11 | X-H torsion

> <Gold.Protein.ActiveResidues>
 VAL166  LYS551  ARG553  GLY616  TRP617  ASP618  TYR619  PRO620  LYS621  CYS622 
 ASP623  PHE694  ASN695  SER759  ASP760  ASP761  ALA762  ILE779  LEU786  VAL792 
 PHE793  MET794  SER795  GLU796  ALA797  LYS798  CYS799  TRP800  GLU811  SER814 

> <Gold.Protein.RotatedAtoms>
  150.8225  134.7439  159.6784 H   0  0  0  0  0  0  0  0  0  0  0  0  # atno 6907 bound_to 6896
  152.4339  134.5721  159.9934 H   0  0  0  0  0  0  0  0  0  0  0  0  # atno 6908 bound_to 6896
  151.5902  133.3330  159.3062 H   0  0  0  0  0  0  0  0  0  0  0  0  # atno 6909 bound_to 6896
  145.7348  139.2698  143.1520 H   0  0  0  0  0  0  0  0  0  0  0  0  # atno 7974 bound_to 7965
  154.8766  140.2967  155.5449 H   0  0  0  0  0  0  0  0  0  0  0  0  # atno 8008 bound_to 7997
  156.3022  140.2450  156.3696 H   0  0  0  0  0  0  0  0  0  0  0  0  # atno 8009 bound_to 7997
  154.8761  140.0399  157.1743 H   0  0  0  0  0  0  0  0  0  0  0  0  # atno 8010 bound_to 7997
  139.4934  144.3980  151.9442 H   0  0  0  0  0  0  0  0  0  0  0  0  # atno 10167 bound_to 10162
  156.6220  130.4878  149.6161 H   0  0  0  0  0  0  0  0  0  0  0  0  # atno 10718 bound_to 10713
  154.6541  135.5345  153.7937 H   0  0  0  0  0  0  0  0  0  0  0  0  # atno 10763 bound_to 10752
  153.0403  135.6489  154.0973 H   0  0  0  0  0  0  0  0  0  0  0  0  # atno 10764 bound_to 10752
  154.0887  135.2941  155.3256 H   0  0  0  0  0  0  0  0  0  0  0  0  # atno 10765 bound_to 10752
  140.2480  134.3336  155.7900 H   0  0  0  0  0  0  0  0  0  0  0  0  # atno 11005 bound_to 11000
  146.0503  140.8076  142.9785 LP  0  0  0  0  0  0  0  0  0  0  0  0  # atno 17320 bound_to 7965
  144.6884  140.3043  143.7258 LP  0  0  0  0  0  0  0  0  0  0  0  0  # atno 17321 bound_to 7965
  140.3418  144.3194  150.5966 LP  0  0  0  0  0  0  0  0  0  0  0  0  # atno 17342 bound_to 10162
  140.5559  143.2199  151.7848 LP  0  0  0  0  0  0  0  0  0  0  0  0  # atno 17343 bound_to 10162
  156.2304  130.6791  151.1458 LP  0  0  0  0  0  0  0  0  0  0  0  0  # atno 17370 bound_to 10713
  157.7225  131.0672  150.6076 LP  0  0  0  0  0  0  0  0  0  0  0  0  # atno 17371 bound_to 10713
  141.2204  133.7337  156.8992 LP  0  0  0  0  0  0  0  0  0  0  0  0  # atno 17394 bound_to 11000
  140.1586  134.9181  157.2686 LP  0  0  0  0  0  0  0  0  0  0  0  0  # atno 17395 bound_to 11000

$$$$
