AV-unprocessed.smi:1111|AV-procd|sdf|4794|dock3
  -GOLD-   22720 3343D 1   1.00000     0.00000
 Structure written by MMmdl.
 33 34  0  0  0  0  0  0  0  0  2 V2000
  150.4264  137.6551  158.8551 C   0  0  0  0  0  0  0  0  0  0  0  0
  151.4470  138.2177  157.8431 C   0  0  1  0  0  0  0  0  0  0  0  0
  152.1021  139.4169  158.3835 N   0  0  0  0  0  0  0  0  0  0  0  0
  151.5313  140.5507  158.8273 C   0  0  0  0  0  0  0  0  0  0  0  0
  150.3170  140.7444  158.8613 O   0  0  0  0  0  0  0  0  0  0  0  0
  152.4842  141.6412  159.3164 C   0  0  0  0  0  0  0  0  0  0  0  0
  152.1333  142.9457  158.7478 N   0  0  0  0  0  0  0  0  0  0  0  0
  152.6192  144.1734  159.1196 C   0  0  0  0  0  0  0  0  0  0  0  0
  152.0042  145.0973  158.3144 C   0  0  0  0  0  0  0  0  0  0  0  0
  151.1679  144.3958  157.4876 N   0  3  0  0  0  0  0  0  0  0  0  0
  151.2471  143.0878  157.7530 C   0  0  0  0  0  0  0  0  0  0  0  0
  152.5559  137.1712  157.5768 C   0  0  0  0  0  0  0  0  0  0  0  0
  153.3353  137.5516  156.3115 C   0  0  0  0  0  0  0  0  0  0  0  0
  152.1287  138.3861  155.2179 S   0  0  0  0  0  0  0  0  0  0  0  0
  152.6280  139.7330  154.9016 O   0  0  0  0  0  0  0  0  0  0  0  0
  151.7050  137.4645  154.1532 O   0  0  0  0  0  0  0  0  0  0  0  0
  150.7960  138.5096  156.4711 C   0  0  0  0  0  0  0  0  0  0  0  0
  150.0047  136.7114  158.5074 H   0  0  0  0  0  0  0  0  0  0  0  0
  149.5898  138.3352  159.0144 H   0  0  0  0  0  0  0  0  0  0  0  0
  150.8915  137.4675  159.8233 H   0  0  0  0  0  0  0  0  0  0  0  0
  153.1110  139.3825  158.4056 H   0  0  0  0  0  0  0  0  0  0  0  0
  152.4581  141.7197  160.4045 H   0  0  0  0  0  0  0  0  0  0  0  0
  153.5099  141.4019  159.0315 H   0  0  0  0  0  0  0  0  0  0  0  0
  153.3477  144.2953  159.9082 H   0  0  0  0  0  0  0  0  0  0  0  0
  152.0962  146.1728  158.2693 H   0  0  0  0  0  0  0  0  0  0  0  0
  150.7012  142.3014  157.2624 H   0  0  0  0  0  0  0  0  0  0  0  0
  153.2215  137.0475  158.4322 H   0  0  0  0  0  0  0  0  0  0  0  0
  152.0927  136.1983  157.4052 H   0  0  0  0  0  0  0  0  0  0  0  0
  154.1313  138.2605  156.5399 H   0  0  0  0  0  0  0  0  0  0  0  0
  153.7708  136.6903  155.8050 H   0  0  0  0  0  0  0  0  0  0  0  0
  150.0582  137.7443  156.2284 H   0  0  0  0  0  0  0  0  0  0  0  0
  150.3007  139.4773  156.3956 H   0  0  0  0  0  0  0  0  0  0  0  0
  150.5740  144.8052  156.7771 H   0  0  0  0  0  0  0  0  0  0  0  0
  1  2  1  0  0  0  0
  1 18  1  0  0  0  0
  1 19  1  0  0  0  0
  1 20  1  0  0  0  0
  2 17  1  0  0  0  0
  2  3  1  0  0  0  0
  2 12  1  0  0  0  0
  3  4  1  0  0  0  0
  3 21  1  0  0  0  0
  4  5  2  0  0  0  0
  4  6  1  0  0  0  0
  6  7  1  0  0  0  0
  6 22  1  0  0  0  0
  6 23  1  0  0  0  0
  7 11  1  0  0  0  0
  7  8  1  0  0  0  0
  8  9  2  0  0  0  0
  8 24  1  0  0  0  0
  9 10  1  0  0  0  0
  9 25  1  0  0  0  0
 10 11  2  0  0  0  0
 10 33  1  0  0  0  0
 11 26  1  0  0  0  0
 12 13  1  0  0  0  0
 12 27  1  0  0  0  0
 12 28  1  0  0  0  0
 13 14  1  0  0  0  0
 13 29  1  0  0  0  0
 13 30  1  0  0  0  0
 14 15  2  0  0  0  0
 14 16  2  0  0  0  0
 14 17  1  0  0  0  0
 17 31  1  0  0  0  0
 17 32  1  0  0  0  0
M  CHG  1  10   1
M  END
> <s_m_source_file>
AV-unprocessed.smi

> <i_m_source_file_index>
1111

> <i_lp_mmshare_version>
43012

> <i_f3d_flags>
0

> <s_epik_input>
Tz1TKD1PKShbQ0gyXTEpW0NIMl1bQ0gyXVtDQEBdMShbQ0gzXSlbTkhdQyg9TylbQ0gyXW4yW2NIXVtjSF1uW2NIXTI=

> <s_epik_cmdline>
J2VwaWtfcHl0aG9uJywgJy1waCcsICc3LjAnLCAnLXRuJywgJzgnLCAnLW1hJywgJzIwMCcsICctbWV0YWxfYmluZGluZycsICctaW1hZScsICc8aW5maWxlLm1hZT4nLCAnLW9tYWUnLCAnPG91dGZpbGUubWFlPic=

> <r_lp_tautomer_probability>
1

> <r_epik_Ionization_Penalty>
0.638881

> <r_epik_Ionization_Penalty_Charging>
0

> <r_epik_Ionization_Penalty_Neutral>
0.638881

> <r_epik_State_Penalty>
0.656385

> <r_epik_Charging_Adjusted_Penalty>
0.656385

> <i_epik_Tot_Q>
1

> <i_epik_Tot_abs_Q>
1

> <r_epik_Metal_State_Penalty>
0.832701

> <b_epik_Metal_Only>
0

> <s_lp_Force_Field>
OPLS_2005

> <r_lp_Energy>
7.94824

> <b_lp_Chiralities_Consistent>
1

> <s_lp_Variant>
AV-unprocessed.smi:1111-3

> <Gold.Version>
5.8.1

> <Gold.Id.Protein>
6NUR|6NUR_protein|mol2

> <Gold.PLP.Fitness>
40.1921

> <Gold.PLP.PLP>
-28.7782

> <Gold.PLP.part.hbond>
-4.2964

> <Gold.PLP.part.metal>
0.0000

> <Gold.PLP.part.buried>
-4.3622

> <Gold.PLP.part.nonpolar>
-21.4407

> <Gold.PLP.part.repulsive>
0.3064

> <Gold.PLP.ligand.clash>
0.0000

> <Gold.PLP.ligand.torsion>
0.3006

> <Gold.PLP.Chemscore.Hbond>
3.9994

> <Gold.PLP.Chemscore.CHOScore>
0.0000

> <Gold.PLP.Chemscore.Metal>
0.0000

> <Gold.Chemscore.Hbonds>
donor molecule, donor type, donor heavy atom, donor atom, acceptor molecule, acceptor atom, score
      L1  H    10    33       P1  8028  2.00
      P1  H  7989  7998       L1    15  0.56
      P1  H  7997  8010       L1    15  0.75
      P1  H 10752 10765       L1    16  0.37

> <Gold.PLP.Chemscore.Internal.Correction>
0.0169

> <Gold.Rescore>
     Score         DG    S(hbond)    S(metal)    S(lipo)     H(rot)  DE(clash)    DE(int)     intcor
     15.09     -16.86       2.91        0.00      53.16       1.78       0.07       1.70       ----

> <Gold.Chemscore.Fitness>
15.0893

> <Gold.Chemscore.DG>
-16.8585

> <Gold.Chemscore.ZeroCoef>
-5.4800

> <Gold.Chemscore.Hbond>
2.9078

> <Gold.Chemscore.Metal>
0.0000

> <Gold.Chemscore.Lipo>
53.1635

> <Gold.Chemscore.Internal_Hbond>
0.0000

> <Gold.Chemscore.DEClash>
0.0650

> <Gold.Chemscore.DEInternal>
1.7043

> <Gold.Chemscore.Rot>
1.7787

> <Gold.Chemscore.Internal.Correction>
   9.000000E+99

> <Gold.Chemscore.Hbonds>
donor molecule, donor type, donor heavy atom, donor atom, acceptor molecule, acceptor atom, score
      L1  H    10    33       P1  8028  0.73
      P1  H  7989  7998       L1    15  0.51
      P1  H  7997  8010       L1    15  0.59
      P1  H 10752 10765       L1    16  0.31

> <Gold.Chemscore.Hbond.Weighted>
-9.7120

> <Gold.Chemscore.Metal.Weighted>
-0.0000

> <Gold.Chemscore.Lipo.Weighted>
-6.2201

> <Gold.Chemscore.Internal_Hbond.Weighted>
0.0000

> <Gold.Chemscore.DEClash.Weighted>
0.0650

> <Gold.Chemscore.DEInternal.Weighted>
1.7043

> <Gold.Chemscore.Rot.Weighted>
4.5536

> <Gold.Chemscore.Internal.Correction.Weighted>
   9.000000E+99

> <Gold.Protein.RotatedTorsions>
[ 6907 6896 6895 6894 ] final -171.10 input  -60.11 | X-H torsion
[ 7974 7965 7964 7962 ] final -115.60 input  175.53 | X-H torsion
[ 8008 7997 7996 7995 ] final   96.08 input   59.86 | X-H torsion
[ 10167 10162 10161 10158 ] final  -98.27 input  -65.29 | X-H torsion
[ 10718 10713 10712 10709 ] final -177.52 input   66.30 | X-H torsion
[ 10763 10752 10751 10750 ] final  133.27 input  -60.55 | X-H torsion
[ 11005 11000 10999 10996 ] final -161.53 input  -57.11 | X-H torsion

> <Gold.Protein.ActiveResidues>
 VAL166  LYS551  ARG553  GLY616  TRP617  ASP618  TYR619  PRO620  LYS621  CYS622 
 ASP623  PHE694  ASN695  SER759  ASP760  ASP761  ALA762  ILE779  LEU786  VAL792 
 PHE793  MET794  SER795  GLU796  ALA797  LYS798  CYS799  TRP800  GLU811  SER814 

> <Gold.Protein.RotatedAtoms>
  151.5183  133.3471  159.2896 H   0  0  0  0  0  0  0  0  0  0  0  0  # atno 6907 bound_to 6896
  150.8668  134.8036  159.7136 H   0  0  0  0  0  0  0  0  0  0  0  0  # atno 6908 bound_to 6896
  152.4670  134.5061  159.9791 H   0  0  0  0  0  0  0  0  0  0  0  0  # atno 6909 bound_to 6896
  145.1065  140.8585  143.3895 H   0  0  0  0  0  0  0  0  0  0  0  0  # atno 7974 bound_to 7965
  156.0757  140.3277  155.7631 H   0  0  0  0  0  0  0  0  0  0  0  0  # atno 8008 bound_to 7997
  155.5233  140.0587  157.2920 H   0  0  0  0  0  0  0  0  0  0  0  0  # atno 8009 bound_to 7997
  154.4554  140.1940  156.0412 H   0  0  0  0  0  0  0  0  0  0  0  0  # atno 8010 bound_to 7997
  140.2748  143.3320  152.0500 H   0  0  0  0  0  0  0  0  0  0  0  0  # atno 10167 bound_to 10162
  156.8306  130.9652  151.3106 H   0  0  0  0  0  0  0  0  0  0  0  0  # atno 10718 bound_to 10713
  153.8043  135.3137  155.3394 H   0  0  0  0  0  0  0  0  0  0  0  0  # atno 10763 bound_to 10752
  154.8076  135.4687  154.0436 H   0  0  0  0  0  0  0  0  0  0  0  0  # atno 10764 bound_to 10752
  153.1794  135.6891  153.8586 H   0  0  0  0  0  0  0  0  0  0  0  0  # atno 10765 bound_to 10752
  140.6194  134.4766  157.5222 H   0  0  0  0  0  0  0  0  0  0  0  0  # atno 11005 bound_to 11000
  145.0896  139.2900  143.5742 LP  0  0  0  0  0  0  0  0  0  0  0  0  # atno 17320 bound_to 7965
  146.3528  140.0429  142.8641 LP  0  0  0  0  0  0  0  0  0  0  0  0  # atno 17321 bound_to 7965
  139.4979  144.6632  151.6416 LP  0  0  0  0  0  0  0  0  0  0  0  0  # atno 17342 bound_to 10162
  140.5860  143.9862  150.6296 LP  0  0  0  0  0  0  0  0  0  0  0  0  # atno 17343 bound_to 10162
  157.6408  130.8804  149.9445 LP  0  0  0  0  0  0  0  0  0  0  0  0  # atno 17370 bound_to 10713
  156.0936  130.3661  150.0348 LP  0  0  0  0  0  0  0  0  0  0  0  0  # atno 17371 bound_to 10713
  139.9159  134.8246  156.1367 LP  0  0  0  0  0  0  0  0  0  0  0  0  # atno 17394 bound_to 11000
  141.0753  133.6778  156.2223 LP  0  0  0  0  0  0  0  0  0  0  0  0  # atno 17395 bound_to 11000

$$$$
