AV-unprocessed.smi:3336|AV-procd|sdf|12856|dock3
  -GOLD-   2272019253D 1   1.00000     0.00000
 Structure written by MMmdl.
 42 43  0  0  0  0  0  0  0  0  2 V2000
  145.9154  136.0704  150.7419 C   0  0  0  0  0  0  0  0  0  0  0  0
  145.6719  135.2788  152.0419 C   0  0  1  0  0  0  0  0  0  0  0  0
  144.5493  134.2312  151.8947 C   0  0  0  0  0  0  0  0  0  0  0  0
  144.8105  133.2618  150.8456 N   0  0  0  0  0  0  0  0  0  0  0  0
  144.0608  132.9975  149.7186 C   0  0  0  0  0  0  0  0  0  0  0  0
  144.6991  132.0065  149.0296 C   0  0  0  0  0  0  0  0  0  0  0  0
  145.8435  131.7234  149.8263 C   0  0  0  0  0  0  0  0  0  0  0  0
  145.9066  132.4755  150.9134 N   0  0  0  0  0  0  0  0  0  0  0  0
  146.9101  134.5951  152.4836 N   0  3  0  0  0  0  0  0  0  0  0  0
  147.1139  134.4499  153.9472 C   0  0  1  0  0  0  0  0  0  0  0  0
  145.7695  134.1944  154.6581 C   0  0  0  0  0  0  0  0  0  0  0  0
  148.0960  133.2957  154.2388 C   0  0  0  0  0  0  0  0  0  0  0  0
  147.8258  132.1791  153.7920 O   0  0  0  0  0  0  0  0  0  0  0  0
  149.2159  133.5172  154.9735 N   0  0  0  0  0  0  0  0  0  0  0  0
  150.1840  132.4584  155.2821 C   0  0  0  0  0  0  0  0  0  0  0  0
  150.2161  132.2502  156.8060 C   0  0  0  0  0  0  0  0  0  0  0  0
  150.5716  133.4740  157.4425 O   0  0  0  0  0  0  0  0  0  0  0  0
  149.6670  134.5350  157.1504 C   0  0  0  0  0  0  0  0  0  0  0  0
  149.6089  134.7707  155.6293 C   0  0  0  0  0  0  0  0  0  0  0  0
  145.0225  136.6138  150.4325 H   0  0  0  0  0  0  0  0  0  0  0  0
  146.1984  135.4073  149.9239 H   0  0  0  0  0  0  0  0  0  0  0  0
  146.7062  136.8108  150.8560 H   0  0  0  0  0  0  0  0  0  0  0  0
  145.3618  135.9800  152.8164 H   0  0  0  0  0  0  0  0  0  0  0  0
  144.3991  133.7003  152.8366 H   0  0  0  0  0  0  0  0  0  0  0  0
  143.6039  134.7246  151.6649 H   0  0  0  0  0  0  0  0  0  0  0  0
  143.1465  133.5306  149.5024 H   0  0  0  0  0  0  0  0  0  0  0  0
  144.3943  131.5513  148.0988 H   0  0  0  0  0  0  0  0  0  0  0  0
  146.6246  130.9991  149.6484 H   0  0  0  0  0  0  0  0  0  0  0  0
  146.9237  133.6664  152.0869 H   0  0  0  0  0  0  0  0  0  0  0  0
  147.5568  135.3783  154.3014 H   0  0  0  0  0  0  0  0  0  0  0  0
  145.8998  134.0380  155.7287 H   0  0  0  0  0  0  0  0  0  0  0  0
  145.2719  133.3098  154.2585 H   0  0  0  0  0  0  0  0  0  0  0  0
  145.0855  135.0350  154.5467 H   0  0  0  0  0  0  0  0  0  0  0  0
  149.9591  131.5119  154.7891 H   0  0  0  0  0  0  0  0  0  0  0  0
  151.1708  132.7553  154.9238 H   0  0  0  0  0  0  0  0  0  0  0  0
  149.2486  131.9036  157.1727 H   0  0  0  0  0  0  0  0  0  0  0  0
  150.9502  131.4886  157.0690 H   0  0  0  0  0  0  0  0  0  0  0  0
  148.6783  134.2986  157.5465 H   0  0  0  0  0  0  0  0  0  0  0  0
  150.0073  135.4369  157.6594 H   0  0  0  0  0  0  0  0  0  0  0  0
  150.5903  135.0734  155.2609 H   0  0  0  0  0  0  0  0  0  0  0  0
  148.9451  135.6084  155.4299 H   0  0  0  0  0  0  0  0  0  0  0  0
  147.6943  135.1063  152.1034 H   0  0  0  0  0  0  0  0  0  0  0  0
  1  2  1  0  0  0  0
  1 20  1  0  0  0  0
  1 21  1  0  0  0  0
  1 22  1  0  0  0  0
  2  3  1  0  0  0  0
  2  9  1  0  0  0  0
  2 23  1  0  0  0  0
  3  4  1  0  0  0  0
  3 24  1  0  0  0  0
  3 25  1  0  0  0  0
  4  8  1  0  0  0  0
  4  5  1  0  0  0  0
  5  6  2  0  0  0  0
  5 26  1  0  0  0  0
  6  7  1  0  0  0  0
  6 27  1  0  0  0  0
  7  8  2  0  0  0  0
  7 28  1  0  0  0  0
  9 10  1  0  0  0  0
  9 29  1  0  0  0  0
  9 42  1  0  0  0  0
 10 11  1  0  0  0  0
 10 12  1  0  0  0  0
 10 30  1  0  0  0  0
 11 31  1  0  0  0  0
 11 32  1  0  0  0  0
 11 33  1  0  0  0  0
 12 13  2  0  0  0  0
 12 14  1  0  0  0  0
 14 19  1  0  0  0  0
 14 15  1  0  0  0  0
 15 16  1  0  0  0  0
 15 34  1  0  0  0  0
 15 35  1  0  0  0  0
 16 17  1  0  0  0  0
 16 36  1  0  0  0  0
 16 37  1  0  0  0  0
 17 18  1  0  0  0  0
 18 19  1  0  0  0  0
 18 38  1  0  0  0  0
 18 39  1  0  0  0  0
 19 40  1  0  0  0  0
 19 41  1  0  0  0  0
M  CHG  1   9   1
M  END
> <s_m_source_file>
AV-unprocessed.smi

> <i_m_source_file_index>
3336

> <i_lp_mmshare_version>
43012

> <i_f3d_flags>
0

> <s_epik_input>
bjFbY0hdW2NIXVtjSF1uMVtDSDJdW0NAQEhdKFtDSDNdKVtOSF1bQ0BIXShbQ0gzXSlDKD1PKU4yW0NIMl1bQ0gyXU9bQ0gyXVtDSDJdMg==

> <s_epik_cmdline>
J2VwaWtfcHl0aG9uJywgJy1waCcsICc3LjAnLCAnLXRuJywgJzgnLCAnLW1hJywgJzIwMCcsICctbWV0YWxfYmluZGluZycsICctaW1hZScsICc8aW5maWxlLm1hZT4nLCAnLW9tYWUnLCAnPG91dGZpbGUubWFlPic=

> <r_lp_tautomer_probability>
1

> <r_epik_Ionization_Penalty>
0.200288

> <r_epik_Ionization_Penalty_Charging>
0.200285

> <r_epik_Ionization_Penalty_Neutral>
3.37705e-06

> <r_epik_State_Penalty>
0.190126

> <r_epik_Charging_Adjusted_Penalty>
0.39041

> <i_epik_Tot_Q>
1

> <i_epik_Tot_abs_Q>
1

> <r_epik_Metal_State_Penalty>
0.190133

> <b_epik_Metal_Only>
0

> <s_lp_Force_Field>
OPLS_2005

> <r_lp_Energy>
28.672

> <b_lp_Chiralities_Consistent>
1

> <s_lp_Variant>
AV-unprocessed.smi:3336-4

> <Gold.Version>
5.8.1

> <Gold.Id.Protein>
6NUR|6NUR_protein|mol2

> <Gold.PLP.Fitness>
44.4032

> <Gold.PLP.PLP>
-31.2786

> <Gold.PLP.part.hbond>
-2.0000

> <Gold.PLP.part.metal>
0.0000

> <Gold.PLP.part.buried>
-3.7735

> <Gold.PLP.part.nonpolar>
-26.6948

> <Gold.PLP.part.repulsive>
0.2519

> <Gold.PLP.ligand.clash>
0.0000

> <Gold.PLP.ligand.torsion>
0.6934

> <Gold.PLP.Chemscore.Hbond>
2.7977

> <Gold.PLP.Chemscore.CHOScore>
2.0000

> <Gold.PLP.Chemscore.Metal>
0.0000

> <Gold.Chemscore.Hbonds>
donor molecule, donor type, donor heavy atom, donor atom, acceptor molecule, acceptor atom, score
      L1  H     9    42       P1  7948  2.00
      P1  H  6896  6909       L1    17  0.70
      L1  C     5    26       P1 10186  1.00
      L1  C     7    28       P1 10747  1.00

> <Gold.PLP.Chemscore.Internal.Correction>
0.1184

> <Gold.Rescore>
     Score         DG    S(hbond)    S(metal)    S(lipo)     H(rot)  DE(clash)    DE(int)     intcor
     13.88     -14.66       1.78        0.00      68.17       1.85       0.08       0.70       ----

> <Gold.Chemscore.Fitness>
13.8830

> <Gold.Chemscore.DG>
-14.6551

> <Gold.Chemscore.ZeroCoef>
-5.4800

> <Gold.Chemscore.Hbond>
1.7801

> <Gold.Chemscore.Metal>
0.0000

> <Gold.Chemscore.Lipo>
68.1708

> <Gold.Chemscore.Internal_Hbond>
0.0000

> <Gold.Chemscore.DEClash>
0.0761

> <Gold.Chemscore.DEInternal>
0.6960

> <Gold.Chemscore.Rot>
1.8541

> <Gold.Chemscore.Internal.Correction>
   9.000000E+99

> <Gold.Chemscore.Hbonds>
donor molecule, donor type, donor heavy atom, donor atom, acceptor molecule, acceptor atom, score
      L1  H     9    42       P1  7948  0.93
      P1  H  6896  6909       L1    17  0.64

> <Gold.Chemscore.Hbond.Weighted>
-5.9457

> <Gold.Chemscore.Metal.Weighted>
-0.0000

> <Gold.Chemscore.Lipo.Weighted>
-7.9760

> <Gold.Chemscore.Internal_Hbond.Weighted>
0.0000

> <Gold.Chemscore.DEClash.Weighted>
0.0761

> <Gold.Chemscore.DEInternal.Weighted>
0.6960

> <Gold.Chemscore.Rot.Weighted>
4.7465

> <Gold.Chemscore.Internal.Correction.Weighted>
   9.000000E+99

> <Gold.Protein.RotatedTorsions>
[ 6907 6896 6895 6894 ] final  -37.71 input  -60.11 | X-H torsion
[ 7974 7965 7964 7962 ] final -126.48 input  175.53 | X-H torsion
[ 8008 7997 7996 7995 ] final  -66.49 input   59.86 | X-H torsion
[ 10167 10162 10161 10158 ] final  -63.09 input  -65.29 | X-H torsion
[ 10718 10713 10712 10709 ] final   45.10 input   66.30 | X-H torsion
[ 10763 10752 10751 10750 ] final  162.11 input  -60.55 | X-H torsion
[ 11005 11000 10999 10996 ] final   64.14 input  -57.11 | X-H torsion

> <Gold.Protein.ActiveResidues>
 VAL166  LYS551  ARG553  GLY616  TRP617  ASP618  TYR619  PRO620  LYS621  CYS622 
 ASP623  PHE694  ASN695  SER759  ASP760  ASP761  ALA762  ILE779  LEU786  VAL792 
 PHE793  MET794  SER795  GLU796  ALA797  LYS798  CYS799  TRP800  GLU811  SER814 

> <Gold.Protein.RotatedAtoms>
  151.0114  134.9399  159.8008 H   0  0  0  0  0  0  0  0  0  0  0  0  # atno 6907 bound_to 6896
  152.5303  134.3023  159.9093 H   0  0  0  0  0  0  0  0  0  0  0  0  # atno 6908 bound_to 6896
  151.3029  133.4072  159.2675 H   0  0  0  0  0  0  0  0  0  0  0  0  # atno 6909 bound_to 6896
  144.9868  140.7694  143.4578 H   0  0  0  0  0  0  0  0  0  0  0  0  # atno 7974 bound_to 7965
  154.4738  140.0911  156.7211 H   0  0  0  0  0  0  0  0  0  0  0  0  # atno 8008 bound_to 7997
  155.4652  140.3462  155.4300 H   0  0  0  0  0  0  0  0  0  0  0  0  # atno 8009 bound_to 7997
  156.1083  140.1441  156.9362 H   0  0  0  0  0  0  0  0  0  0  0  0  # atno 8010 bound_to 7997
  140.5894  143.2339  151.6171 H   0  0  0  0  0  0  0  0  0  0  0  0  # atno 10167 bound_to 10162
  157.4339  130.8041  149.7629 H   0  0  0  0  0  0  0  0  0  0  0  0  # atno 10718 bound_to 10713
  154.2733  135.2765  155.2729 H   0  0  0  0  0  0  0  0  0  0  0  0  # atno 10763 bound_to 10752
  154.5282  135.5737  153.6740 H   0  0  0  0  0  0  0  0  0  0  0  0  # atno 10764 bound_to 10752
  152.9941  135.6221  154.2889 H   0  0  0  0  0  0  0  0  0  0  0  0  # atno 10765 bound_to 10752
  139.9978  134.6489  155.9981 H   0  0  0  0  0  0  0  0  0  0  0  0  # atno 11005 bound_to 11000
  145.2342  139.2101  143.5027 LP  0  0  0  0  0  0  0  0  0  0  0  0  # atno 17320 bound_to 7965
  146.3422  140.2225  142.8591 LP  0  0  0  0  0  0  0  0  0  0  0  0  # atno 17321 bound_to 7965
  139.5218  144.3181  152.0934 LP  0  0  0  0  0  0  0  0  0  0  0  0  # atno 17342 bound_to 10162
  140.2344  144.4335  150.6286 LP  0  0  0  0  0  0  0  0  0  0  0  0  # atno 17343 bound_to 10162
  155.9923  130.3931  150.2946 LP  0  0  0  0  0  0  0  0  0  0  0  0  # atno 17370 bound_to 10713
  157.1106  131.0220  151.3050 LP  0  0  0  0  0  0  0  0  0  0  0  0  # atno 17371 bound_to 10713
  141.1618  133.6538  156.4345 LP  0  0  0  0  0  0  0  0  0  0  0  0  # atno 17394 bound_to 11000
  140.4785  134.6687  157.5160 LP  0  0  0  0  0  0  0  0  0  0  0  0  # atno 17395 bound_to 11000

$$$$
