AV-unprocessed.smi:3037|AV-procd|sdf|11586|dock5
  -GOLD-   2272016563D 1   1.00000     0.00000
 Structure written by MMmdl.
 47 48  0  0  0  0  0  0  0  0  2 V2000
  151.8251  145.4967  159.8005 C   0  0  0  0  0  0  0  0  0  0  0  0
  151.7886  144.0841  159.2923 C   0  0  0  0  0  0  0  0  0  0  0  0
  152.3103  142.9165  159.9184 C   0  0  0  0  0  0  0  0  0  0  0  0
  152.1157  141.8198  159.2043 N   0  0  0  0  0  0  0  0  0  0  0  0
  151.4639  142.2463  158.1019 N   0  0  0  0  0  0  0  0  0  0  0  0
  151.0815  141.2946  157.0740 C   0  0  0  0  0  0  0  0  0  0  0  0
  151.2857  139.8270  157.5035 C   0  0  2  0  0  0  0  0  0  0  0  0
  152.0145  138.9919  156.4317 C   0  0  0  0  0  0  0  0  0  0  0  0
  149.9710  139.2358  157.8405 N   0  3  0  0  0  0  0  0  0  0  0  0
  149.9715  137.7783  158.0876 C   0  0  0  0  0  0  0  0  0  0  0  0
  149.0388  137.4208  159.2594 C   0  0  0  0  0  0  0  0  0  0  0  0
  148.5834  135.9506  159.2628 C   0  0  0  0  0  0  0  0  0  0  0  0
  149.1133  135.1640  158.4765 O   0  0  0  0  0  0  0  0  0  0  0  0
  147.6138  135.5633  160.1278 N   0  0  0  0  0  0  0  0  0  0  0  0
  147.1517  134.1718  160.2280 C   0  0  0  0  0  0  0  0  0  0  0  0
  147.6077  133.5878  161.5778 C   0  0  0  0  0  0  0  0  0  0  0  0
  147.1042  134.4505  162.7496 C   0  0  0  0  0  0  0  0  0  0  0  0
  147.4402  135.9390  162.5425 C   0  0  0  0  0  0  0  0  0  0  0  0
  146.9891  136.4159  161.1497 C   0  0  0  0  0  0  0  0  0  0  0  0
  151.2566  143.6093  158.1270 C   0  0  0  0  0  0  0  0  0  0  0  0
  152.0342  145.5374  160.8697 H   0  0  0  0  0  0  0  0  0  0  0  0
  150.8758  146.0081  159.6401 H   0  0  0  0  0  0  0  0  0  0  0  0
  152.5960  146.0830  159.3002 H   0  0  0  0  0  0  0  0  0  0  0  0
  152.8230  142.8350  160.8656 H   0  0  0  0  0  0  0  0  0  0  0  0
  150.0336  141.4720  156.8283 H   0  0  0  0  0  0  0  0  0  0  0  0
  151.6520  141.5066  156.1677 H   0  0  0  0  0  0  0  0  0  0  0  0
  151.8927  139.8312  158.4103 H   0  0  0  0  0  0  0  0  0  0  0  0
  152.9970  139.4050  156.2035 H   0  0  0  0  0  0  0  0  0  0  0  0
  151.4459  138.9598  155.5019 H   0  0  0  0  0  0  0  0  0  0  0  0
  152.1794  137.9653  156.7572 H   0  0  0  0  0  0  0  0  0  0  0  0
  149.6476  139.6808  158.6876 H   0  0  0  0  0  0  0  0  0  0  0  0
  149.6492  137.2571  157.1860 H   0  0  0  0  0  0  0  0  0  0  0  0
  150.9897  137.4529  158.3067 H   0  0  0  0  0  0  0  0  0  0  0  0
  149.5467  137.6325  160.2015 H   0  0  0  0  0  0  0  0  0  0  0  0
  148.1545  138.0577  159.2142 H   0  0  0  0  0  0  0  0  0  0  0  0
  146.0634  134.1473  160.1568 H   0  0  0  0  0  0  0  0  0  0  0  0
  147.5142  133.5434  159.4135 H   0  0  0  0  0  0  0  0  0  0  0  0
  147.2471  132.5646  161.6856 H   0  0  0  0  0  0  0  0  0  0  0  0
  148.6970  133.5370  161.6028 H   0  0  0  0  0  0  0  0  0  0  0  0
  146.0227  134.3379  162.8356 H   0  0  0  0  0  0  0  0  0  0  0  0
  147.5268  134.0946  163.6896 H   0  0  0  0  0  0  0  0  0  0  0  0
  146.9644  136.5397  163.3180 H   0  0  0  0  0  0  0  0  0  0  0  0
  148.5152  136.0898  162.6492 H   0  0  0  0  0  0  0  0  0  0  0  0
  147.2105  137.4756  161.0369 H   0  0  0  0  0  0  0  0  0  0  0  0
  145.9042  136.3371  161.0640 H   0  0  0  0  0  0  0  0  0  0  0  0
  150.7518  144.1238  157.3226 H   0  0  0  0  0  0  0  0  0  0  0  0
  149.3186  139.4482  157.0993 H   0  0  0  0  0  0  0  0  0  0  0  0
  1  2  1  0  0  0  0
  1 21  1  0  0  0  0
  1 22  1  0  0  0  0
  1 23  1  0  0  0  0
  2 20  2  0  0  0  0
  2  3  1  0  0  0  0
  3  4  2  0  0  0  0
  3 24  1  0  0  0  0
  4  5  1  0  0  0  0
  5  6  1  0  0  0  0
  5 20  1  0  0  0  0
  6  7  1  0  0  0  0
  6 25  1  0  0  0  0
  6 26  1  0  0  0  0
  7  8  1  0  0  0  0
  7  9  1  0  0  0  0
  7 27  1  0  0  0  0
  8 28  1  0  0  0  0
  8 29  1  0  0  0  0
  8 30  1  0  0  0  0
  9 10  1  0  0  0  0
  9 31  1  0  0  0  0
  9 47  1  0  0  0  0
 10 11  1  0  0  0  0
 10 32  1  0  0  0  0
 10 33  1  0  0  0  0
 11 12  1  0  0  0  0
 11 34  1  0  0  0  0
 11 35  1  0  0  0  0
 12 13  2  0  0  0  0
 12 14  1  0  0  0  0
 14 19  1  0  0  0  0
 14 15  1  0  0  0  0
 15 16  1  0  0  0  0
 15 36  1  0  0  0  0
 15 37  1  0  0  0  0
 16 17  1  0  0  0  0
 16 38  1  0  0  0  0
 16 39  1  0  0  0  0
 17 18  1  0  0  0  0
 17 40  1  0  0  0  0
 17 41  1  0  0  0  0
 18 19  1  0  0  0  0
 18 42  1  0  0  0  0
 18 43  1  0  0  0  0
 19 44  1  0  0  0  0
 19 45  1  0  0  0  0
 20 46  1  0  0  0  0
M  CHG  1   9   1
M  END
> <s_m_source_file>
AV-unprocessed.smi

> <i_m_source_file_index>
3037

> <i_lp_mmshare_version>
43012

> <i_f3d_flags>
0

> <s_epik_input>
W0NIM11jMVtjSF1ubihbY0hdMSlbQ0gyXVtDQEhdKFtDSDNdKVtOSF1bQ0gyXVtDSDJdQyg9TylOMltDSDJdW0NIMl1bQ0gyXVtDSDJdW0NIMl0y

> <s_epik_cmdline>
J2VwaWtfcHl0aG9uJywgJy1waCcsICc3LjAnLCAnLXRuJywgJzgnLCAnLW1hJywgJzIwMCcsICctbWV0YWxfYmluZGluZycsICctaW1hZScsICc8aW5maWxlLm1hZT4nLCAnLW9tYWUnLCAnPG91dGZpbGUubWFlPic=

> <r_lp_tautomer_probability>
1

> <r_epik_Ionization_Penalty>
0.00574983

> <r_epik_Ionization_Penalty_Charging>
0.00574185

> <r_epik_Ionization_Penalty_Neutral>
7.97936e-06

> <r_epik_State_Penalty>
0.00421386

> <r_epik_Charging_Adjusted_Penalty>
0.00995571

> <i_epik_Tot_Q>
1

> <i_epik_Tot_abs_Q>
1

> <r_epik_Metal_State_Penalty>
-0

> <b_epik_Metal_Only>
0

> <s_lp_Force_Field>
OPLS_2005

> <r_lp_Energy>
27.2307

> <b_lp_Chiralities_Consistent>
1

> <s_lp_Variant>
AV-unprocessed.smi:3037-1

> <Gold.Version>
5.8.1

> <Gold.Id.Protein>
6NUR|6NUR_protein|mol2

> <Gold.PLP.Fitness>
48.6675

> <Gold.PLP.PLP>
-45.0902

> <Gold.PLP.part.hbond>
-1.0000

> <Gold.PLP.part.metal>
0.0000

> <Gold.PLP.part.buried>
-4.9561

> <Gold.PLP.part.nonpolar>
-39.7729

> <Gold.PLP.part.repulsive>
0.0970

> <Gold.PLP.ligand.clash>
0.0000

> <Gold.PLP.ligand.torsion>
1.2579

> <Gold.PLP.Chemscore.Hbond>
1.0000

> <Gold.PLP.Chemscore.CHOScore>
1.0000

> <Gold.PLP.Chemscore.Metal>
0.0000

> <Gold.Chemscore.Hbonds>
donor molecule, donor type, donor heavy atom, donor atom, acceptor molecule, acceptor atom, score
      P1  H  6896  6909       L1    13  1.00
      L1  C    20    46       P1  8028  0.97

> <Gold.PLP.Chemscore.Internal.Correction>
0.0931

> <Gold.Rescore>
     Score         DG    S(hbond)    S(metal)    S(lipo)     H(rot)  DE(clash)    DE(int)     intcor
     16.16     -17.88       0.99        0.00     117.83       1.84       0.37       1.35       ----

> <Gold.Chemscore.Fitness>
16.1599

> <Gold.Chemscore.DG>
-17.8822

> <Gold.Chemscore.ZeroCoef>
-5.4800

> <Gold.Chemscore.Hbond>
0.9948

> <Gold.Chemscore.Metal>
0.0000

> <Gold.Chemscore.Lipo>
117.8273

> <Gold.Chemscore.Internal_Hbond>
0.0000

> <Gold.Chemscore.DEClash>
0.3723

> <Gold.Chemscore.DEInternal>
1.3500

> <Gold.Chemscore.Rot>
1.8383

> <Gold.Chemscore.Internal.Correction>
   9.000000E+99

> <Gold.Chemscore.Hbonds>
donor molecule, donor type, donor heavy atom, donor atom, acceptor molecule, acceptor atom, score
      P1  H  6896  6909       L1    13  0.25

> <Gold.Chemscore.Hbond.Weighted>
-3.3225

> <Gold.Chemscore.Metal.Weighted>
-0.0000

> <Gold.Chemscore.Lipo.Weighted>
-13.7858

> <Gold.Chemscore.Internal_Hbond.Weighted>
0.0000

> <Gold.Chemscore.DEClash.Weighted>
0.3723

> <Gold.Chemscore.DEInternal.Weighted>
1.3500

> <Gold.Chemscore.Rot.Weighted>
4.7062

> <Gold.Chemscore.Internal.Correction.Weighted>
   9.000000E+99

> <Gold.Protein.RotatedTorsions>
[ 6907 6896 6895 6894 ] final   51.32 input  -60.11 | X-H torsion
[ 7974 7965 7964 7962 ] final  -10.85 input  175.53 | X-H torsion
[ 8008 7997 7996 7995 ] final -133.78 input   59.86 | X-H torsion
[ 10167 10162 10161 10158 ] final   19.22 input  -65.29 | X-H torsion
[ 10718 10713 10712 10709 ] final  -35.71 input   66.30 | X-H torsion
[ 10763 10752 10751 10750 ] final   86.74 input  -60.55 | X-H torsion
[ 11005 11000 10999 10996 ] final  146.01 input  -57.11 | X-H torsion

> <Gold.Protein.ActiveResidues>
 VAL166  LYS551  ARG553  GLY616  TRP617  ASP618  TYR619  PRO620  LYS621  CYS622 
 ASP623  PHE694  ASN695  SER759  ASP760  ASP761  ALA762  ILE779  LEU786  VAL792 
 PHE793  MET794  SER795  GLU796  ALA797  LYS798  CYS799  TRP800  GLU811  SER814 

> <Gold.Protein.RotatedAtoms>
  152.3114  134.7493  160.0335 H   0  0  0  0  0  0  0  0  0  0  0  0  # atno 6907 bound_to 6896
  151.7972  133.3360  159.3524 H   0  0  0  0  0  0  0  0  0  0  0  0  # atno 6908 bound_to 6896
  150.7322  134.5717  159.5938 H   0  0  0  0  0  0  0  0  0  0  0  0  # atno 6909 bound_to 6896
  146.2207  140.2824  142.8363 H   0  0  0  0  0  0  0  0  0  0  0  0  # atno 7974 bound_to 7965
  155.3512  140.0477  157.3046 H   0  0  0  0  0  0  0  0  0  0  0  0  # atno 8008 bound_to 7997
  154.5226  140.2230  155.8912 H   0  0  0  0  0  0  0  0  0  0  0  0  # atno 8009 bound_to 7997
  156.1705  140.3097  155.8972 H   0  0  0  0  0  0  0  0  0  0  0  0  # atno 8010 bound_to 7997
  140.5595  143.9362  150.6633 H   0  0  0  0  0  0  0  0  0  0  0  0  # atno 10167 bound_to 10162
  156.3354  130.4285  149.7834 H   0  0  0  0  0  0  0  0  0  0  0  0  # atno 10718 bound_to 10713
  153.1600  135.4569  154.9758 H   0  0  0  0  0  0  0  0  0  0  0  0  # atno 10763 bound_to 10752
  154.7890  135.3214  154.7823 H   0  0  0  0  0  0  0  0  0  0  0  0  # atno 10764 bound_to 10752
  153.8314  135.6938  153.4868 H   0  0  0  0  0  0  0  0  0  0  0  0  # atno 10765 bound_to 10752
  140.0758  134.9125  157.1421 H   0  0  0  0  0  0  0  0  0  0  0  0  # atno 11005 bound_to 11000
  144.9187  140.7843  143.5762 LP  0  0  0  0  0  0  0  0  0  0  0  0  # atno 17320 bound_to 7965
  145.2759  139.1936  143.4817 LP  0  0  0  0  0  0  0  0  0  0  0  0  # atno 17321 bound_to 7965
  140.2810  143.3390  152.1151 LP  0  0  0  0  0  0  0  0  0  0  0  0  # atno 17342 bound_to 10162
  139.5063  144.6812  151.6003 LP  0  0  0  0  0  0  0  0  0  0  0  0  # atno 17343 bound_to 10162
  156.5091  130.8164  151.3162 LP  0  0  0  0  0  0  0  0  0  0  0  0  # atno 17370 bound_to 10713
  157.7438  130.9920  150.2620 LP  0  0  0  0  0  0  0  0  0  0  0  0  # atno 17371 bound_to 10713
  140.3559  134.2547  155.7192 LP  0  0  0  0  0  0  0  0  0  0  0  0  # atno 17394 bound_to 11000
  141.2029  133.7926  157.0367 LP  0  0  0  0  0  0  0  0  0  0  0  0  # atno 17395 bound_to 11000

$$$$
