AV-unprocessed.smi:3249|AV-procd|sdf|12421|dock4
  -GOLD-   2272018303D 1   1.00000     0.00000
 Structure written by MMmdl.
 44 45  0  0  0  0  0  0  0  0  2 V2000
  153.5196  143.0765  163.3708 C   0  0  0  0  0  0  0  0  0  0  0  0
  153.2425  142.7108  161.9410 C   0  0  0  0  0  0  0  0  0  0  0  0
  153.6548  141.5420  161.2403 C   0  0  0  0  0  0  0  0  0  0  0  0
  153.2429  141.5246  159.9833 N   0  0  0  0  0  0  0  0  0  0  0  0
  152.5584  142.6788  159.8327 N   0  0  0  0  0  0  0  0  0  0  0  0
  151.9425  142.9922  158.5496 C   0  0  2  0  0  0  0  0  0  0  0  0
  151.8908  144.5188  158.3556 C   0  0  0  0  0  0  0  0  0  0  0  0
  150.5566  142.3113  158.3953 C   0  0  2  0  0  0  0  0  0  0  0  0
  150.6165  140.7788  158.5291 C   0  0  0  0  0  0  0  0  0  0  0  0
  149.9580  142.6508  157.0850 N   0  3  0  0  0  0  0  0  0  0  0  0
  150.5562  141.9537  155.9279 C   0  0  0  0  0  0  0  0  0  0  0  0
  149.6076  140.8773  155.3838 C   0  0  1  0  0  0  0  0  0  0  0  0
  148.4658  141.4890  154.5492 C   0  0  0  0  0  0  0  0  0  0  0  0
  147.5955  140.3868  153.9352 C   0  0  0  0  0  0  0  0  0  0  0  0
  148.4788  139.4010  153.1632 C   0  0  0  0  0  0  0  0  0  0  0  0
  149.6239  138.8972  154.0558 C   0  0  0  0  0  0  0  0  0  0  0  0
  150.3712  140.0025  154.5554 O   0  0  0  0  0  0  0  0  0  0  0  0
  152.5403  143.4120  161.0025 C   0  0  0  0  0  0  0  0  0  0  0  0
  154.1180  142.3176  163.8755 H   0  0  0  0  0  0  0  0  0  0  0  0
  152.5981  143.1914  163.9417 H   0  0  0  0  0  0  0  0  0  0  0  0
  154.0650  144.0173  163.4464 H   0  0  0  0  0  0  0  0  0  0  0  0
  154.2376  140.7099  161.6070 H   0  0  0  0  0  0  0  0  0  0  0  0
  152.5970  142.5920  157.7722 H   0  0  0  0  0  0  0  0  0  0  0  0
  151.5731  144.7831  157.3469 H   0  0  0  0  0  0  0  0  0  0  0  0
  152.8740  144.9653  158.5088 H   0  0  0  0  0  0  0  0  0  0  0  0
  151.2000  144.9891  159.0559 H   0  0  0  0  0  0  0  0  0  0  0  0
  149.9024  142.6730  159.1910 H   0  0  0  0  0  0  0  0  0  0  0  0
  150.9495  140.4702  159.5202 H   0  0  0  0  0  0  0  0  0  0  0  0
  151.2997  140.3440  157.7987 H   0  0  0  0  0  0  0  0  0  0  0  0
  149.6336  140.3335  158.3715 H   0  0  0  0  0  0  0  0  0  0  0  0
  148.9724  142.4317  157.1198 H   0  0  0  0  0  0  0  0  0  0  0  0
  150.7682  142.6913  155.1526 H   0  0  0  0  0  0  0  0  0  0  0  0
  151.5080  141.5029  156.2118 H   0  0  0  0  0  0  0  0  0  0  0  0
  149.1854  140.3147  156.2188 H   0  0  0  0  0  0  0  0  0  0  0  0
  147.8527  142.1449  155.1681 H   0  0  0  0  0  0  0  0  0  0  0  0
  148.8816  142.1091  153.7539 H   0  0  0  0  0  0  0  0  0  0  0  0
  147.0586  139.8594  154.7250 H   0  0  0  0  0  0  0  0  0  0  0  0
  146.8414  140.8188  153.2768 H   0  0  0  0  0  0  0  0  0  0  0  0
  147.8829  138.5622  152.8023 H   0  0  0  0  0  0  0  0  0  0  0  0
  148.8938  139.8927  152.2826 H   0  0  0  0  0  0  0  0  0  0  0  0
  149.2395  138.2999  154.8839 H   0  0  0  0  0  0  0  0  0  0  0  0
  150.2901  138.2532  153.4814 H   0  0  0  0  0  0  0  0  0  0  0  0
  152.0346  144.3639  161.0712 H   0  0  0  0  0  0  0  0  0  0  0  0
  150.0577  143.6451  156.9374 H   0  0  0  0  0  0  0  0  0  0  0  0
  1  2  1  0  0  0  0
  1 19  1  0  0  0  0
  1 20  1  0  0  0  0
  1 21  1  0  0  0  0
  2 18  2  0  0  0  0
  2  3  1  0  0  0  0
  3  4  2  0  0  0  0
  3 22  1  0  0  0  0
  4  5  1  0  0  0  0
  5  6  1  0  0  0  0
  5 18  1  0  0  0  0
  6  7  1  0  0  0  0
  6  8  1  0  0  0  0
  6 23  1  0  0  0  0
  7 24  1  0  0  0  0
  7 25  1  0  0  0  0
  7 26  1  0  0  0  0
  8  9  1  0  0  0  0
  8 10  1  0  0  0  0
  8 27  1  0  0  0  0
  9 28  1  0  0  0  0
  9 29  1  0  0  0  0
  9 30  1  0  0  0  0
 10 11  1  0  0  0  0
 10 31  1  0  0  0  0
 10 44  1  0  0  0  0
 11 12  1  0  0  0  0
 11 32  1  0  0  0  0
 11 33  1  0  0  0  0
 12 17  1  0  0  0  0
 12 13  1  0  0  0  0
 12 34  1  0  0  0  0
 13 14  1  0  0  0  0
 13 35  1  0  0  0  0
 13 36  1  0  0  0  0
 14 15  1  0  0  0  0
 14 37  1  0  0  0  0
 14 38  1  0  0  0  0
 15 16  1  0  0  0  0
 15 39  1  0  0  0  0
 15 40  1  0  0  0  0
 16 17  1  0  0  0  0
 16 41  1  0  0  0  0
 16 42  1  0  0  0  0
 18 43  1  0  0  0  0
M  CHG  1  10   1
M  END
> <s_m_source_file>
AV-unprocessed.smi

> <i_m_source_file_index>
3249

> <i_lp_mmshare_version>
43012

> <i_f3d_flags>
0

> <s_epik_input>
W0NIM11jMVtjSF1ubihbY0hdMSlbQ0BIXShbQ0gzXSlbQ0BIXShbQ0gzXSlbTkhdW0NIMl1bQ0BASF0yW0NIMl1bQ0gyXVtDSDJdW0NIMl1PMg==

> <s_epik_cmdline>
J2VwaWtfcHl0aG9uJywgJy1waCcsICc3LjAnLCAnLXRuJywgJzgnLCAnLW1hJywgJzIwMCcsICctbWV0YWxfYmluZGluZycsICctaW1hZScsICc8aW5maWxlLm1hZT4nLCAnLW9tYWUnLCAnPG91dGZpbGUubWFlPic=

> <r_lp_tautomer_probability>
1

> <r_epik_Ionization_Penalty>
0.00659207

> <r_epik_Ionization_Penalty_Charging>
0.00656881

> <r_epik_Ionization_Penalty_Neutral>
2.32662e-05

> <r_epik_State_Penalty>
0.0048654

> <r_epik_Charging_Adjusted_Penalty>
0.0114342

> <i_epik_Tot_Q>
1

> <i_epik_Tot_abs_Q>
1

> <r_epik_Metal_State_Penalty>
-0

> <b_epik_Metal_Only>
0

> <s_lp_Force_Field>
OPLS_2005

> <r_lp_Energy>
18.8744

> <b_lp_Chiralities_Consistent>
1

> <s_lp_Variant>
AV-unprocessed.smi:3249-5

> <Gold.Version>
5.8.1

> <Gold.Id.Protein>
6NUR|6NUR_protein|mol2

> <Gold.PLP.Fitness>
47.8503

> <Gold.PLP.PLP>
-43.9847

> <Gold.PLP.part.hbond>
-2.0000

> <Gold.PLP.part.metal>
0.0000

> <Gold.PLP.part.buried>
-1.2621

> <Gold.PLP.part.nonpolar>
-40.0601

> <Gold.PLP.part.repulsive>
0.0975

> <Gold.PLP.ligand.clash>
0.0000

> <Gold.PLP.ligand.torsion>
1.2659

> <Gold.PLP.Chemscore.Hbond>
2.0880

> <Gold.PLP.Chemscore.CHOScore>
0.0000

> <Gold.PLP.Chemscore.Metal>
0.0000

> <Gold.Chemscore.Hbonds>
donor molecule, donor type, donor heavy atom, donor atom, acceptor molecule, acceptor atom, score
      L1  H    10    44       P1  8028  0.99
      P1  H  7989  7998       L1    17  1.00

> <Gold.PLP.Chemscore.Internal.Correction>
0.1333

> <Gold.Rescore>
     Score         DG    S(hbond)    S(metal)    S(lipo)     H(rot)  DE(clash)    DE(int)     intcor
     18.43     -21.85       1.65        0.00     126.36       1.53       2.20       1.23       ----

> <Gold.Chemscore.Fitness>
18.4268

> <Gold.Chemscore.DG>
-21.8531

> <Gold.Chemscore.ZeroCoef>
-5.4800

> <Gold.Chemscore.Hbond>
1.6511

> <Gold.Chemscore.Metal>
0.0000

> <Gold.Chemscore.Lipo>
126.3566

> <Gold.Chemscore.Internal_Hbond>
0.0000

> <Gold.Chemscore.DEClash>
2.1983

> <Gold.Chemscore.DEInternal>
1.2280

> <Gold.Chemscore.Rot>
1.5333

> <Gold.Chemscore.Internal.Correction>
   9.000000E+99

> <Gold.Chemscore.Hbonds>
donor molecule, donor type, donor heavy atom, donor atom, acceptor molecule, acceptor atom, score
      L1  H    10    44       P1  8028  0.47
      P1  H  7989  7998       L1    17  0.87

> <Gold.Chemscore.Hbond.Weighted>
-5.5146

> <Gold.Chemscore.Metal.Weighted>
-0.0000

> <Gold.Chemscore.Lipo.Weighted>
-14.7837

> <Gold.Chemscore.Internal_Hbond.Weighted>
0.0000

> <Gold.Chemscore.DEClash.Weighted>
2.1983

> <Gold.Chemscore.DEInternal.Weighted>
1.2280

> <Gold.Chemscore.Rot.Weighted>
3.9252

> <Gold.Chemscore.Internal.Correction.Weighted>
   9.000000E+99

> <Gold.Protein.RotatedTorsions>
[ 6907 6896 6895 6894 ] final   -9.95 input  -60.11 | X-H torsion
[ 7974 7965 7964 7962 ] final  -92.64 input  175.53 | X-H torsion
[ 8008 7997 7996 7995 ] final  150.40 input   59.86 | X-H torsion
[ 10167 10162 10161 10158 ] final  -87.59 input  -65.29 | X-H torsion
[ 10718 10713 10712 10709 ] final  -80.24 input   66.30 | X-H torsion
[ 10763 10752 10751 10750 ] final -163.82 input  -60.55 | X-H torsion
[ 11005 11000 10999 10996 ] final -124.94 input  -57.11 | X-H torsion

> <Gold.Protein.ActiveResidues>
 VAL166  LYS551  ARG553  GLY616  TRP617  ASP618  TYR619  PRO620  LYS621  CYS622 
 ASP623  PHE694  ASN695  SER759  ASP760  ASP761  ALA762  ILE779  LEU786  VAL792 
 PHE793  MET794  SER795  GLU796  ALA797  LYS798  CYS799  TRP800  GLU811  SER814 

> <Gold.Protein.RotatedAtoms>
  151.4096  135.0983  159.9580 H   0  0  0  0  0  0  0  0  0  0  0  0  # atno 6907 bound_to 6896
  152.5024  133.8810  159.7357 H   0  0  0  0  0  0  0  0  0  0  0  0  # atno 6908 bound_to 6896
  150.9302  133.6719  159.2841 H   0  0  0  0  0  0  0  0  0  0  0  0  # atno 6909 bound_to 6896
  145.3971  140.9534  143.2308 H   0  0  0  0  0  0  0  0  0  0  0  0  # atno 7974 bound_to 7965
  156.2717  140.2075  156.6012 H   0  0  0  0  0  0  0  0  0  0  0  0  # atno 8008 bound_to 7997
  154.6905  140.0530  157.0382 H   0  0  0  0  0  0  0  0  0  0  0  0  # atno 8009 bound_to 7997
  155.0873  140.3193  155.4587 H   0  0  0  0  0  0  0  0  0  0  0  0  # atno 8010 bound_to 7997
  140.3829  143.2740  151.9361 H   0  0  0  0  0  0  0  0  0  0  0  0  # atno 10167 bound_to 10162
  156.0074  130.4569  150.3771 H   0  0  0  0  0  0  0  0  0  0  0  0  # atno 10718 bound_to 10713
  154.7087  135.3002  154.9231 H   0  0  0  0  0  0  0  0  0  0  0  0  # atno 10763 bound_to 10752
  154.0140  135.6691  153.4771 H   0  0  0  0  0  0  0  0  0  0  0  0  # atno 10764 bound_to 10752
  153.0737  135.5046  154.8272 H   0  0  0  0  0  0  0  0  0  0  0  0  # atno 10765 bound_to 10752
  140.9801  134.0685  157.3774 H   0  0  0  0  0  0  0  0  0  0  0  0  # atno 11005 bound_to 11000
  144.8399  139.5488  143.6905 LP  0  0  0  0  0  0  0  0  0  0  0  0  # atno 17320 bound_to 7965
  146.2770  139.6777  142.9256 LP  0  0  0  0  0  0  0  0  0  0  0  0  # atno 17321 bound_to 7965
  139.4794  144.5801  151.7947 LP  0  0  0  0  0  0  0  0  0  0  0  0  # atno 17342 bound_to 10162
  140.4919  144.1298  150.5952 LP  0  0  0  0  0  0  0  0  0  0  0  0  # atno 17343 bound_to 10162
  157.1852  131.0402  151.2728 LP  0  0  0  0  0  0  0  0  0  0  0  0  # atno 17370 bound_to 10713
  157.4110  130.7385  149.6839 LP  0  0  0  0  0  0  0  0  0  0  0  0  # atno 17371 bound_to 10713
  139.8947  135.0137  156.6962 LP  0  0  0  0  0  0  0  0  0  0  0  0  # atno 17394 bound_to 11000
  140.7199  133.9150  155.8140 LP  0  0  0  0  0  0  0  0  0  0  0  0  # atno 17395 bound_to 11000

$$$$
