AV-unprocessed.smi:3126|AV-procd|sdf|11911|dock5
  -GOLD-   2272017293D 1   1.00000     0.00000
 Structure written by MMmdl.
 42 43  0  0  0  0  0  0  0  0  2 V2000
  153.9534  141.3969  161.8362 C   0  0  0  0  0  0  0  0  0  0  0  0
  153.2277  141.1039  160.5156 C   0  0  0  0  0  0  0  0  0  0  0  0
  152.4333  142.3008  159.9535 C   0  0  1  0  0  0  0  0  0  0  0  0
  153.3520  143.5234  159.7595 C   0  0  0  0  0  0  0  0  0  0  0  0
  152.5800  144.7316  159.2091 C   0  0  0  0  0  0  0  0  0  0  0  0
  151.8710  144.3816  157.8933 C   0  0  0  0  0  0  0  0  0  0  0  0
  150.9345  143.1723  158.0657 C   0  0  1  0  0  0  0  0  0  0  0  0
  150.2906  142.8535  156.7715 N   0  3  0  0  0  0  0  0  0  0  0  0
  149.6267  141.5350  156.7027 C   0  0  0  0  0  0  0  0  0  0  0  0
  150.0153  140.7914  155.4185 C   0  0  0  0  0  0  0  0  0  0  0  0
  148.8169  140.5349  154.5264 C   0  0  0  0  0  0  0  0  0  0  0  0
  148.5080  139.2316  154.0847 C   0  0  0  0  0  0  0  0  0  0  0  0
  147.3799  139.0433  153.2633 C   0  0  0  0  0  0  0  0  0  0  0  0
  146.6065  140.1693  152.9172 C   0  0  0  0  0  0  0  0  0  0  0  0
  146.8926  141.4214  153.3350 N   0  0  0  0  0  0  0  0  0  0  0  0
  147.9763  141.5937  154.1214 C   0  0  0  0  0  0  0  0  0  0  0  0
  151.7142  141.9633  158.6284 C   0  0  0  0  0  0  0  0  0  0  0  0
  154.5500  140.5383  162.1446 H   0  0  0  0  0  0  0  0  0  0  0  0
  153.2554  141.6138  162.6441 H   0  0  0  0  0  0  0  0  0  0  0  0
  154.6279  142.2474  161.7347 H   0  0  0  0  0  0  0  0  0  0  0  0
  153.9767  140.7987  159.7838 H   0  0  0  0  0  0  0  0  0  0  0  0
  152.5671  140.2455  160.6434 H   0  0  0  0  0  0  0  0  0  0  0  0
  151.6762  142.5732  160.6906 H   0  0  0  0  0  0  0  0  0  0  0  0
  153.8182  143.7949  160.7074 H   0  0  0  0  0  0  0  0  0  0  0  0
  154.1656  143.2700  159.0783 H   0  0  0  0  0  0  0  0  0  0  0  0
  151.8468  145.0654  159.9447 H   0  0  0  0  0  0  0  0  0  0  0  0
  153.2624  145.5675  159.0523 H   0  0  0  0  0  0  0  0  0  0  0  0
  151.3060  145.2462  157.5428 H   0  0  0  0  0  0  0  0  0  0  0  0
  152.6172  144.1682  157.1263 H   0  0  0  0  0  0  0  0  0  0  0  0
  150.1527  143.4519  158.7739 H   0  0  0  0  0  0  0  0  0  0  0  0
  149.5821  143.5537  156.6044 H   0  0  0  0  0  0  0  0  0  0  0  0
  149.9042  140.9349  157.5694 H   0  0  0  0  0  0  0  0  0  0  0  0
  148.5453  141.6737  156.7375 H   0  0  0  0  0  0  0  0  0  0  0  0
  150.7557  141.3669  154.8608 H   0  0  0  0  0  0  0  0  0  0  0  0
  150.4857  139.8380  155.6632 H   0  0  0  0  0  0  0  0  0  0  0  0
  149.1215  138.3898  154.3709 H   0  0  0  0  0  0  0  0  0  0  0  0
  147.1124  138.0593  152.9072 H   0  0  0  0  0  0  0  0  0  0  0  0
  145.7337  140.0611  152.2904 H   0  0  0  0  0  0  0  0  0  0  0  0
  148.1759  142.6062  154.4403 H   0  0  0  0  0  0  0  0  0  0  0  0
  152.4444  141.6229  157.8924 H   0  0  0  0  0  0  0  0  0  0  0  0
  151.0309  141.1314  158.7918 H   0  0  0  0  0  0  0  0  0  0  0  0
  150.9819  142.9176  156.0379 H   0  0  0  0  0  0  0  0  0  0  0  0
  1  2  1  0  0  0  0
  1 18  1  0  0  0  0
  1 19  1  0  0  0  0
  1 20  1  0  0  0  0
  2  3  1  0  0  0  0
  2 21  1  0  0  0  0
  2 22  1  0  0  0  0
  3 17  1  0  0  0  0
  3  4  1  0  0  0  0
  3 23  1  0  0  0  0
  4  5  1  0  0  0  0
  4 24  1  0  0  0  0
  4 25  1  0  0  0  0
  5  6  1  0  0  0  0
  5 26  1  0  0  0  0
  5 27  1  0  0  0  0
  6  7  1  0  0  0  0
  6 28  1  0  0  0  0
  6 29  1  0  0  0  0
  7  8  1  0  0  0  0
  7 17  1  0  0  0  0
  7 30  1  0  0  0  0
  8  9  1  0  0  0  0
  8 31  1  0  0  0  0
  8 42  1  0  0  0  0
  9 10  1  0  0  0  0
  9 32  1  0  0  0  0
  9 33  1  0  0  0  0
 10 11  1  0  0  0  0
 10 34  1  0  0  0  0
 10 35  1  0  0  0  0
 11 16  1  0  0  0  0
 11 12  2  0  0  0  0
 12 13  1  0  0  0  0
 12 36  1  0  0  0  0
 13 14  2  0  0  0  0
 13 37  1  0  0  0  0
 14 15  1  0  0  0  0
 14 38  1  0  0  0  0
 15 16  2  0  0  0  0
 16 39  1  0  0  0  0
 17 40  1  0  0  0  0
 17 41  1  0  0  0  0
M  CHG  1   8   1
M  END
> <s_m_source_file>
AV-unprocessed.smi

> <i_m_source_file_index>
3126

> <i_lp_mmshare_version>
43012

> <i_f3d_flags>
0

> <s_epik_input>
W0NIM11bQ0gyXVtDQEBIXTFbQ0gyXVtDSDJdW0NIMl1bQ0BIXShbQ0gyXTEpW05IXVtDSDJdW0NIMl1jMltjSF1bY0hdW2NIXW5bY0hdMg==

> <s_epik_cmdline>
J2VwaWtfcHl0aG9uJywgJy1waCcsICc3LjAnLCAnLXRuJywgJzgnLCAnLW1hJywgJzIwMCcsICctbWV0YWxfYmluZGluZycsICctaW1hZScsICc8aW5maWxlLm1hZT4nLCAnLW9tYWUnLCAnPG91dGZpbGUubWFlPic=

> <r_lp_tautomer_probability>
1

> <r_epik_Ionization_Penalty>
0.000947364

> <r_epik_Ionization_Penalty_Charging>
0.000286103

> <r_epik_Ionization_Penalty_Neutral>
0.000661261

> <r_epik_State_Penalty>
-0

> <r_epik_Charging_Adjusted_Penalty>
0.000286103

> <i_epik_Tot_Q>
1

> <i_epik_Tot_abs_Q>
1

> <r_epik_Metal_State_Penalty>
-0

> <b_epik_Metal_Only>
0

> <s_lp_Force_Field>
OPLS_2005

> <r_lp_Energy>
13.7456

> <b_lp_Chiralities_Consistent>
1

> <s_lp_Variant>
AV-unprocessed.smi:3126-2

> <Gold.Version>
5.8.1

> <Gold.Id.Protein>
6NUR|6NUR_protein|mol2

> <Gold.PLP.Fitness>
50.7194

> <Gold.PLP.PLP>
-40.4346

> <Gold.PLP.part.hbond>
-1.0000

> <Gold.PLP.part.metal>
0.0000

> <Gold.PLP.part.buried>
-0.2098

> <Gold.PLP.part.nonpolar>
-38.1099

> <Gold.PLP.part.repulsive>
0.2387

> <Gold.PLP.ligand.clash>
0.0000

> <Gold.PLP.ligand.torsion>
0.8624

> <Gold.PLP.Chemscore.Hbond>
2.0000

> <Gold.PLP.Chemscore.CHOScore>
2.0000

> <Gold.PLP.Chemscore.Metal>
0.0000

> <Gold.Chemscore.Hbonds>
donor molecule, donor type, donor heavy atom, donor atom, acceptor molecule, acceptor atom, score
      L1  H     8    31       P1  8028  2.00
      L1  C    14    38       P1 10175  1.00
      L1  C    16    39       P1  8028  1.00

> <Gold.PLP.Chemscore.Internal.Correction>
0.0097

> <Gold.Rescore>
     Score         DG    S(hbond)    S(metal)    S(lipo)     H(rot)  DE(clash)    DE(int)     intcor
     20.16     -21.06       0.97        0.00     135.14       1.35       0.05       0.86       ----

> <Gold.Chemscore.Fitness>
20.1593

> <Gold.Chemscore.DG>
-21.0643

> <Gold.Chemscore.ZeroCoef>
-5.4800

> <Gold.Chemscore.Hbond>
0.9673

> <Gold.Chemscore.Metal>
0.0000

> <Gold.Chemscore.Lipo>
135.1412

> <Gold.Chemscore.Internal_Hbond>
0.0000

> <Gold.Chemscore.DEClash>
0.0456

> <Gold.Chemscore.DEInternal>
0.8594

> <Gold.Chemscore.Rot>
1.3507

> <Gold.Chemscore.Internal.Correction>
   9.000000E+99

> <Gold.Chemscore.Hbonds>
donor molecule, donor type, donor heavy atom, donor atom, acceptor molecule, acceptor atom, score
      L1  H     8    31       P1  8028  0.96

> <Gold.Chemscore.Hbond.Weighted>
-3.2307

> <Gold.Chemscore.Metal.Weighted>
-0.0000

> <Gold.Chemscore.Lipo.Weighted>
-15.8115

> <Gold.Chemscore.Internal_Hbond.Weighted>
0.0000

> <Gold.Chemscore.DEClash.Weighted>
0.0456

> <Gold.Chemscore.DEInternal.Weighted>
0.8594

> <Gold.Chemscore.Rot.Weighted>
3.4579

> <Gold.Chemscore.Internal.Correction.Weighted>
   9.000000E+99

> <Gold.Protein.RotatedTorsions>
[ 6907 6896 6895 6894 ] final   -8.39 input  -60.11 | X-H torsion
[ 7974 7965 7964 7962 ] final -150.97 input  175.53 | X-H torsion
[ 8008 7997 7996 7995 ] final  105.75 input   59.86 | X-H torsion
[ 10167 10162 10161 10158 ] final  -95.36 input  -65.29 | X-H torsion
[ 10718 10713 10712 10709 ] final   38.79 input   66.30 | X-H torsion
[ 10763 10752 10751 10750 ] final -163.86 input  -60.55 | X-H torsion
[ 11005 11000 10999 10996 ] final   71.50 input  -57.11 | X-H torsion

> <Gold.Protein.ActiveResidues>
 VAL166  LYS551  ARG553  GLY616  TRP617  ASP618  TYR619  PRO620  LYS621  CYS622 
 ASP623  PHE694  ASN695  SER759  ASP760  ASP761  ALA762  ILE779  LEU786  VAL792 
 PHE793  MET794  SER795  GLU796  ALA797  LYS798  CYS799  TRP800  GLU811  SER814 

> <Gold.Protein.RotatedAtoms>
  151.4345  135.1013  159.9651 H   0  0  0  0  0  0  0  0  0  0  0  0  # atno 6907 bound_to 6896
  152.4944  133.8586  159.7249 H   0  0  0  0  0  0  0  0  0  0  0  0  # atno 6908 bound_to 6896
  150.9132  133.6913  159.2877 H   0  0  0  0  0  0  0  0  0  0  0  0  # atno 6909 bound_to 6896
  144.7877  140.4861  143.5795 H   0  0  0  0  0  0  0  0  0  0  0  0  # atno 7974 bound_to 7965
  156.1685  140.3125  155.8932 H   0  0  0  0  0  0  0  0  0  0  0  0  # atno 8008 bound_to 7997
  155.3635  140.0478  157.3063 H   0  0  0  0  0  0  0  0  0  0  0  0  # atno 8009 bound_to 7997
  154.5217  140.2200  155.8974 H   0  0  0  0  0  0  0  0  0  0  0  0  # atno 8010 bound_to 7997
  140.3050  143.3139  152.0209 H   0  0  0  0  0  0  0  0  0  0  0  0  # atno 10167 bound_to 10162
  157.3630  130.7660  149.7062 H   0  0  0  0  0  0  0  0  0  0  0  0  # atno 10718 bound_to 10713
  154.7083  135.3001  154.9237 H   0  0  0  0  0  0  0  0  0  0  0  0  # atno 10763 bound_to 10752
  154.0146  135.6690  153.4772 H   0  0  0  0  0  0  0  0  0  0  0  0  # atno 10764 bound_to 10752
  153.0734  135.5048  154.8266 H   0  0  0  0  0  0  0  0  0  0  0  0  # atno 10765 bound_to 10752
  139.9540  134.7177  156.0796 H   0  0  0  0  0  0  0  0  0  0  0  0  # atno 11005 bound_to 11000
  145.5878  139.1493  143.3199 LP  0  0  0  0  0  0  0  0  0  0  0  0  # atno 17320 bound_to 7965
  146.2116  140.6005  142.9057 LP  0  0  0  0  0  0  0  0  0  0  0  0  # atno 17321 bound_to 7965
  139.4906  144.6428  151.6842 LP  0  0  0  0  0  0  0  0  0  0  0  0  # atno 17342 bound_to 10162
  140.5618  144.0256  150.6173 LP  0  0  0  0  0  0  0  0  0  0  0  0  # atno 17343 bound_to 10162
  155.9741  130.4108  150.3950 LP  0  0  0  0  0  0  0  0  0  0  0  0  # atno 17370 bound_to 10713
  157.2030  131.0442  151.2640 LP  0  0  0  0  0  0  0  0  0  0  0  0  # atno 17371 bound_to 10713
  141.1208  133.6613  156.3210 LP  0  0  0  0  0  0  0  0  0  0  0  0  # atno 17394 bound_to 11000
  140.5652  134.5894  157.5444 LP  0  0  0  0  0  0  0  0  0  0  0  0  # atno 17395 bound_to 11000

$$$$
