AV-unprocessed.smi:1454|AV-procd|sdf|5914|dock3
  -GOLD-   22720 6 03D 1   1.00000     0.00000
 Structure written by MMmdl.
 45 46  0  0  0  0  0  0  0  0  2 V2000
  154.0714  139.1077  159.2765 O   0  0  0  0  0  0  0  0  0  0  0  0
  154.1890  139.0543  160.5003 C   0  0  0  0  0  0  0  0  0  0  0  0
  154.6518  137.7512  161.1597 C   0  0  0  0  0  0  0  0  0  0  0  0
  153.6586  137.1869  162.1984 C   0  0  0  0  0  0  0  0  0  0  0  0
  154.0551  135.8728  162.6947 N   0  0  0  0  0  0  0  0  0  0  0  0
  154.9583  135.6284  163.6551 C   0  0  0  0  0  0  0  0  0  0  0  0
  155.5606  136.5185  164.2551 O   0  0  0  0  0  0  0  0  0  0  0  0
  155.2069  134.1448  163.9796 C   0  0  0  0  0  0  0  0  0  0  0  0
  154.1574  133.2019  163.3554 C   0  0  0  0  0  0  0  0  0  0  0  0
  153.1543  132.8435  164.4657 C   0  0  0  0  0  0  0  0  0  0  0  0
  153.6245  133.5656  165.7322 C   0  0  0  0  0  0  0  0  0  0  0  0
  155.1000  133.8740  165.4870 C   0  0  0  0  0  0  0  0  0  0  0  0
  153.9723  140.1031  161.3109 N   0  0  0  0  0  0  0  0  0  0  0  0
  153.7225  141.4767  160.8758 C   0  0  0  0  0  0  0  0  0  0  0  0
  152.7820  141.5743  159.6563 C   0  0  0  0  0  0  0  0  0  0  0  0
  152.1839  142.9480  159.3837 C   0  0  0  0  0  0  0  0  0  0  0  0
  152.5131  144.0399  160.2181 C   0  0  0  0  0  0  0  0  0  0  0  0
  151.9610  145.3106  159.9548 C   0  0  0  0  0  0  0  0  0  0  0  0
  151.0914  145.4661  158.8571 C   0  0  0  0  0  0  0  0  0  0  0  0
  150.8124  144.4066  158.0677 N   0  3  0  0  0  0  0  0  0  0  0  0
  151.3275  143.1765  158.2827 C   0  0  0  0  0  0  0  0  0  0  0  0
  154.7653  137.0231  160.3558 H   0  0  0  0  0  0  0  0  0  0  0  0
  155.6450  137.8673  161.5963 H   0  0  0  0  0  0  0  0  0  0  0  0
  153.5058  137.8770  163.0303 H   0  0  0  0  0  0  0  0  0  0  0  0
  152.6824  137.0692  161.7275 H   0  0  0  0  0  0  0  0  0  0  0  0
  153.6055  135.0771  162.2647 H   0  0  0  0  0  0  0  0  0  0  0  0
  156.2027  133.8810  163.6189 H   0  0  0  0  0  0  0  0  0  0  0  0
  153.6543  133.6382  162.4911 H   0  0  0  0  0  0  0  0  0  0  0  0
  154.6466  132.2946  162.9988 H   0  0  0  0  0  0  0  0  0  0  0  0
  152.1366  133.1299  164.2019 H   0  0  0  0  0  0  0  0  0  0  0  0
  153.1544  131.7648  164.6265 H   0  0  0  0  0  0  0  0  0  0  0  0
  153.0775  134.5001  165.8524 H   0  0  0  0  0  0  0  0  0  0  0  0
  153.4650  132.9740  166.6341 H   0  0  0  0  0  0  0  0  0  0  0  0
  155.7060  133.0041  165.7434 H   0  0  0  0  0  0  0  0  0  0  0  0
  155.4512  134.7043  166.1017 H   0  0  0  0  0  0  0  0  0  0  0  0
  154.0817  139.9574  162.3042 H   0  0  0  0  0  0  0  0  0  0  0  0
  153.2579  141.9945  161.7151 H   0  0  0  0  0  0  0  0  0  0  0  0
  154.6552  142.0103  160.6887 H   0  0  0  0  0  0  0  0  0  0  0  0
  153.3193  141.2393  158.7677 H   0  0  0  0  0  0  0  0  0  0  0  0
  151.9548  140.8763  159.7887 H   0  0  0  0  0  0  0  0  0  0  0  0
  153.1836  143.9090  161.0544 H   0  0  0  0  0  0  0  0  0  0  0  0
  152.1984  146.1528  160.5877 H   0  0  0  0  0  0  0  0  0  0  0  0
  150.6202  146.3992  158.5847 H   0  0  0  0  0  0  0  0  0  0  0  0
  151.0301  142.4193  157.5727 H   0  0  0  0  0  0  0  0  0  0  0  0
  150.1862  144.5407  157.2734 H   0  0  0  0  0  0  0  0  0  0  0  0
  1  2  2  0  0  0  0
  2  3  1  0  0  0  0
  2 13  1  0  0  0  0
  3  4  1  0  0  0  0
  3 22  1  0  0  0  0
  3 23  1  0  0  0  0
  4  5  1  0  0  0  0
  4 24  1  0  0  0  0
  4 25  1  0  0  0  0
  5  6  1  0  0  0  0
  5 26  1  0  0  0  0
  6  7  2  0  0  0  0
  6  8  1  0  0  0  0
  8 12  1  0  0  0  0
  8  9  1  0  0  0  0
  8 27  1  0  0  0  0
  9 10  1  0  0  0  0
  9 28  1  0  0  0  0
  9 29  1  0  0  0  0
 10 11  1  0  0  0  0
 10 30  1  0  0  0  0
 10 31  1  0  0  0  0
 11 12  1  0  0  0  0
 11 32  1  0  0  0  0
 11 33  1  0  0  0  0
 12 34  1  0  0  0  0
 12 35  1  0  0  0  0
 13 14  1  0  0  0  0
 13 36  1  0  0  0  0
 14 15  1  0  0  0  0
 14 37  1  0  0  0  0
 14 38  1  0  0  0  0
 15 16  1  0  0  0  0
 15 39  1  0  0  0  0
 15 40  1  0  0  0  0
 16 21  1  0  0  0  0
 16 17  2  0  0  0  0
 17 18  1  0  0  0  0
 17 41  1  0  0  0  0
 18 19  2  0  0  0  0
 18 42  1  0  0  0  0
 19 20  1  0  0  0  0
 19 43  1  0  0  0  0
 20 21  2  0  0  0  0
 20 45  1  0  0  0  0
 21 44  1  0  0  0  0
M  CHG  1  20   1
M  END
> <s_m_source_file>
AV-unprocessed.smi

> <i_m_source_file_index>
1454

> <i_lp_mmshare_version>
43012

> <i_f3d_flags>
0

> <s_epik_input>
W2NIXTFuW2NIXVtjSF1bY0hdYzFbQ0gyXVtDSDJdW05IXUMoPU8pW0NIMl1bQ0gyXVtOSF1DKD1PKVtDSF0yW0NIMl1bQ0gyXVtDSDJdW0NIMl0y

> <s_epik_cmdline>
J2VwaWtfcHl0aG9uJywgJy1waCcsICc3LjAnLCAnLXRuJywgJzgnLCAnLW1hJywgJzIwMCcsICctbWV0YWxfYmluZGluZycsICctaW1hZScsICc8aW5maWxlLm1hZT4nLCAnLW9tYWUnLCAnPG91dGZpbGUubWFlPic=

> <r_epik_Ionization_Penalty>
2.25878

> <r_epik_Ionization_Penalty_Charging>
2.25878

> <r_epik_Ionization_Penalty_Neutral>
5.05393e-08

> <r_epik_State_Penalty>
2.40647

> <r_epik_Charging_Adjusted_Penalty>
4.66526

> <i_epik_Tot_Q>
1

> <i_epik_Tot_abs_Q>
1

> <r_epik_Metal_State_Penalty>
2.41947

> <b_epik_Metal_Only>
0

> <s_lp_Force_Field>
OPLS_2005

> <r_lp_Energy>
23.282

> <b_lp_Chiralities_Consistent>
1

> <s_lp_Variant>
AV-unprocessed.smi:1454-2

> <Gold.Version>
5.8.1

> <Gold.Id.Protein>
6NUR|6NUR_protein|mol2

> <Gold.PLP.Fitness>
50.2594

> <Gold.PLP.PLP>
-42.2729

> <Gold.PLP.part.hbond>
-2.0000

> <Gold.PLP.part.metal>
0.0000

> <Gold.PLP.part.buried>
-5.4767

> <Gold.PLP.part.nonpolar>
-35.0714

> <Gold.PLP.part.repulsive>
0.1577

> <Gold.PLP.ligand.clash>
0.0000

> <Gold.PLP.ligand.torsion>
0.5779

> <Gold.PLP.Chemscore.Hbond>
3.0000

> <Gold.PLP.Chemscore.CHOScore>
0.0000

> <Gold.PLP.Chemscore.Metal>
0.0000

> <Gold.Chemscore.Hbonds>
donor molecule, donor type, donor heavy atom, donor atom, acceptor molecule, acceptor atom, score
      L1  H    20    45       P1  8028  1.92
      P1  H  7997  8009       L1     1  0.18

> <Gold.PLP.Chemscore.Internal.Correction>
0.1423

> <Gold.Rescore>
     Score         DG    S(hbond)    S(metal)    S(lipo)     H(rot)  DE(clash)    DE(int)     intcor
     18.84     -20.30       1.97        0.00     119.38       2.23       0.07       1.39       ----

> <Gold.Chemscore.Fitness>
18.8412

> <Gold.Chemscore.DG>
-20.2972

> <Gold.Chemscore.ZeroCoef>
-5.4800

> <Gold.Chemscore.Hbond>
1.9672

> <Gold.Chemscore.Metal>
0.0000

> <Gold.Chemscore.Lipo>
119.3827

> <Gold.Chemscore.Internal_Hbond>
0.0000

> <Gold.Chemscore.DEClash>
0.0650

> <Gold.Chemscore.DEInternal>
1.3909

> <Gold.Chemscore.Rot>
2.2348

> <Gold.Chemscore.Internal.Correction>
   9.000000E+99

> <Gold.Chemscore.Hbonds>
donor molecule, donor type, donor heavy atom, donor atom, acceptor molecule, acceptor atom, score
      L1  H    20    45       P1  8028  0.41
      P1  H  7997  8009       L1     1  0.19

> <Gold.Chemscore.Hbond.Weighted>
-6.5706

> <Gold.Chemscore.Metal.Weighted>
-0.0000

> <Gold.Chemscore.Lipo.Weighted>
-13.9678

> <Gold.Chemscore.Internal_Hbond.Weighted>
0.0000

> <Gold.Chemscore.DEClash.Weighted>
0.0650

> <Gold.Chemscore.DEInternal.Weighted>
1.3909

> <Gold.Chemscore.Rot.Weighted>
5.7212

> <Gold.Chemscore.Internal.Correction.Weighted>
   9.000000E+99

> <Gold.Protein.RotatedTorsions>
[ 6907 6896 6895 6894 ] final  -39.56 input  -60.11 | X-H torsion
[ 7974 7965 7964 7962 ] final  -81.98 input  175.53 | X-H torsion
[ 8008 7997 7996 7995 ] final  126.39 input   59.86 | X-H torsion
[ 10167 10162 10161 10158 ] final  112.71 input  -65.29 | X-H torsion
[ 10718 10713 10712 10709 ] final   77.63 input   66.30 | X-H torsion
[ 10763 10752 10751 10750 ] final    1.28 input  -60.55 | X-H torsion
[ 11005 11000 10999 10996 ] final   72.82 input  -57.11 | X-H torsion

> <Gold.Protein.ActiveResidues>
 VAL166  LYS551  ARG553  GLY616  TRP617  ASP618  TYR619  PRO620  LYS621  CYS622 
 ASP623  PHE694  ASN695  SER759  ASP760  ASP761  ALA762  ILE779  LEU786  VAL792 
 PHE793  MET794  SER795  GLU796  ALA797  LYS798  CYS799  TRP800  GLU811  SER814 

> <Gold.Protein.RotatedAtoms>
  150.9889  134.9228  159.7887 H   0  0  0  0  0  0  0  0  0  0  0  0  # atno 6907 bound_to 6896
  152.5245  134.3308  159.9192 H   0  0  0  0  0  0  0  0  0  0  0  0  # atno 6908 bound_to 6896
  151.3314  133.3958  159.2697 H   0  0  0  0  0  0  0  0  0  0  0  0  # atno 6909 bound_to 6896
  145.5395  140.9511  143.1559 H   0  0  0  0  0  0  0  0  0  0  0  0  # atno 7974 bound_to 7965
  156.2862  140.2694  156.2103 H   0  0  0  0  0  0  0  0  0  0  0  0  # atno 8008 bound_to 7997
  155.0271  140.0386  157.2478 H   0  0  0  0  0  0  0  0  0  0  0  0  # atno 8009 bound_to 7997
  154.7386  140.2720  155.6398 H   0  0  0  0  0  0  0  0  0  0  0  0  # atno 8010 bound_to 7997
  139.6516  144.7128  151.2038 H   0  0  0  0  0  0  0  0  0  0  0  0  # atno 10167 bound_to 10162
  157.6717  130.9830  150.1668 H   0  0  0  0  0  0  0  0  0  0  0  0  # atno 10718 bound_to 10713
  153.3100  135.6962  153.7124 H   0  0  0  0  0  0  0  0  0  0  0  0  # atno 10763 bound_to 10752
  153.6005  135.3463  155.2944 H   0  0  0  0  0  0  0  0  0  0  0  0  # atno 10764 bound_to 10752
  154.8573  135.4339  154.2236 H   0  0  0  0  0  0  0  0  0  0  0  0  # atno 10765 bound_to 10752
  139.9471  134.7293  156.0952 H   0  0  0  0  0  0  0  0  0  0  0  0  # atno 11005 bound_to 11000
  144.7584  139.7016  143.7244 LP  0  0  0  0  0  0  0  0  0  0  0  0  # atno 17320 bound_to 7965
  146.1991  139.5274  142.9755 LP  0  0  0  0  0  0  0  0  0  0  0  0  # atno 17321 bound_to 7965
  140.7540  143.6141  150.8576 LP  0  0  0  0  0  0  0  0  0  0  0  0  # atno 17342 bound_to 10162
  139.9790  143.5972  152.2949 LP  0  0  0  0  0  0  0  0  0  0  0  0  # atno 17343 bound_to 10162
  156.2432  130.3693  149.8314 LP  0  0  0  0  0  0  0  0  0  0  0  0  # atno 17370 bound_to 10713
  156.6108  130.8586  151.3454 LP  0  0  0  0  0  0  0  0  0  0  0  0  # atno 17371 bound_to 10713
  141.1125  133.6638  156.3013 LP  0  0  0  0  0  0  0  0  0  0  0  0  # atno 17394 bound_to 11000
  140.5807  134.5748  157.5479 LP  0  0  0  0  0  0  0  0  0  0  0  0  # atno 17395 bound_to 11000

$$$$
