AV-unprocessed.smi:1847|AV-procd|sdf|7517|dock1
  -GOLD-   22720 9223D 1   1.00000     0.00000
 Structure written by MMmdl.
 24 25  0  0  0  0  0  0  0  0  2 V2000
  151.2521  140.5813  158.6499 O   0  0  0  0  0  0  0  0  0  0  0  0
  152.2344  140.1162  158.0644 C   0  0  0  0  0  0  0  0  0  0  0  0
  153.4747  140.0282  158.6110 N   0  5  0  0  0  0  0  0  0  0  0  0
  153.7297  140.5477  159.8221 C   0  0  0  0  0  0  0  0  0  0  0  0
  154.5873  139.8985  160.7380 C   0  0  0  0  0  0  0  0  0  0  0  0
  154.8321  140.4889  161.9941 C   0  0  0  0  0  0  0  0  0  0  0  0
  154.2903  141.6623  162.3816 N   0  0  0  0  0  0  0  0  0  0  0  0
  153.4763  142.2895  161.5072 C   0  0  0  0  0  0  0  0  0  0  0  0
  153.1710  141.7799  160.2292 C   0  0  0  0  0  0  0  0  0  0  0  0
  152.1119  139.6147  156.6978 C   0  0  0  0  0  0  0  0  0  0  0  0
  151.1018  140.0444  155.9041 C   0  0  0  0  0  0  0  0  0  0  0  0
  150.8935  139.5968  154.6233 O   0  0  0  0  0  0  0  0  0  0  0  0
  151.6626  138.4563  154.2613 C   0  0  0  0  0  0  0  0  0  0  0  0
  153.0920  138.5818  154.8069 C   0  0  0  0  0  0  0  0  0  0  0  0
  153.0640  138.7402  156.2207 O   0  0  0  0  0  0  0  0  0  0  0  0
  155.0513  138.9571  160.4830 H   0  0  0  0  0  0  0  0  0  0  0  0
  155.4829  140.0040  162.7065 H   0  0  0  0  0  0  0  0  0  0  0  0
  153.0547  143.2281  161.8350 H   0  0  0  0  0  0  0  0  0  0  0  0
  152.5133  142.3289  159.5709 H   0  0  0  0  0  0  0  0  0  0  0  0
  150.3381  140.7477  156.2037 H   0  0  0  0  0  0  0  0  0  0  0  0
  151.1827  137.5593  154.6551 H   0  0  0  0  0  0  0  0  0  0  0  0
  151.6750  138.3639  153.1753 H   0  0  0  0  0  0  0  0  0  0  0  0
  153.6751  137.6951  154.5587 H   0  0  0  0  0  0  0  0  0  0  0  0
  153.5997  139.4371  154.3588 H   0  0  0  0  0  0  0  0  0  0  0  0
  1  2  2  0  0  0  0
  2  3  1  0  0  0  0
  2 10  1  0  0  0  0
  3  4  1  0  0  0  0
  4  9  1  0  0  0  0
  4  5  2  0  0  0  0
  5  6  1  0  0  0  0
  5 16  1  0  0  0  0
  6  7  2  0  0  0  0
  6 17  1  0  0  0  0
  7  8  1  0  0  0  0
  8  9  2  0  0  0  0
  8 18  1  0  0  0  0
  9 19  1  0  0  0  0
 10 15  1  0  0  0  0
 10 11  2  0  0  0  0
 11 12  1  0  0  0  0
 11 20  1  0  0  0  0
 12 13  1  0  0  0  0
 13 14  1  0  0  0  0
 13 21  1  0  0  0  0
 13 22  1  0  0  0  0
 14 15  1  0  0  0  0
 14 23  1  0  0  0  0
 14 24  1  0  0  0  0
M  CHG  1   3  -1
M  END
> <s_m_source_file>
AV-unprocessed.smi

> <i_m_source_file_index>
1847

> <i_lp_mmshare_version>
43012

> <i_f3d_flags>
0

> <s_epik_input>
TzFbQ0gyXVtDSDJdT1tDSF09QzFDKD1PKVtOSF1jMltjSF1bY0hdbltjSF1bY0hdMg==

> <s_epik_cmdline>
J2VwaWtfcHl0aG9uJywgJy1waCcsICc3LjAnLCAnLXRuJywgJzgnLCAnLW1hJywgJzIwMCcsICctbWV0YWxfYmluZGluZycsICctaW1hZScsICc8aW5maWxlLm1hZT4nLCAnLW9tYWUnLCAnPG91dGZpbGUubWFlPic=

> <r_epik_Ionization_Penalty>
6.68616

> <r_epik_Ionization_Penalty_Charging>
5.33655

> <r_epik_Ionization_Penalty_Neutral>
1.34962

> <r_epik_State_Penalty>
5.36971

> <r_epik_Charging_Adjusted_Penalty>
10.7063

> <i_epik_Tot_Q>
-1

> <i_epik_Tot_abs_Q>
1

> <r_epik_Metal_State_Penalty>
1.43726

> <b_epik_Metal_Only>
1

> <s_lp_Force_Field>
OPLS_2005

> <r_lp_Energy>
5.87976

> <b_lp_Chiralities_Consistent>
1

> <s_lp_Variant>
AV-unprocessed.smi:1847-3

> <Gold.Version>
5.8.1

> <Gold.Id.Protein>
6NUR|6NUR_protein|mol2

> <Gold.PLP.Fitness>
40.9100

> <Gold.PLP.PLP>
-32.3640

> <Gold.PLP.part.hbond>
-4.0000

> <Gold.PLP.part.metal>
0.0000

> <Gold.PLP.part.buried>
-3.2743

> <Gold.PLP.part.nonpolar>
-24.0532

> <Gold.PLP.part.repulsive>
0.0935

> <Gold.PLP.ligand.clash>
0.0000

> <Gold.PLP.ligand.torsion>
0.4960

> <Gold.PLP.Chemscore.Hbond>
3.0000

> <Gold.PLP.Chemscore.CHOScore>
0.0000

> <Gold.PLP.Chemscore.Metal>
0.0000

> <Gold.Chemscore.Hbonds>
donor molecule, donor type, donor heavy atom, donor atom, acceptor molecule, acceptor atom, score
      P1  H  7989  7998       L1    12  1.00
      P1  H  7997  8009       L1     3  2.00

> <Gold.PLP.Chemscore.Internal.Correction>
0.5380

> <Gold.Rescore>
     Score         DG    S(hbond)    S(metal)    S(lipo)     H(rot)  DE(clash)    DE(int)     intcor
     15.58     -18.01       1.11        0.00      75.51       0.00       0.39       2.04       ----

> <Gold.Chemscore.Fitness>
15.5787

> <Gold.Chemscore.DG>
-18.0115

> <Gold.Chemscore.ZeroCoef>
-5.4800

> <Gold.Chemscore.Hbond>
1.1070

> <Gold.Chemscore.Metal>
0.0000

> <Gold.Chemscore.Lipo>
75.5066

> <Gold.Chemscore.Internal_Hbond>
0.0000

> <Gold.Chemscore.DEClash>
0.3937

> <Gold.Chemscore.DEInternal>
2.0391

> <Gold.Chemscore.Rot>
0.0000

> <Gold.Chemscore.Internal.Correction>
   9.000000E+99

> <Gold.Chemscore.Hbonds>
donor molecule, donor type, donor heavy atom, donor atom, acceptor molecule, acceptor atom, score
      P1  H  7989  7998       L1    12  0.15
      P1  H  7997  8009       L1     3  0.66

> <Gold.Chemscore.Hbond.Weighted>
-3.6972

> <Gold.Chemscore.Metal.Weighted>
-0.0000

> <Gold.Chemscore.Lipo.Weighted>
-8.8343

> <Gold.Chemscore.Internal_Hbond.Weighted>
0.0000

> <Gold.Chemscore.DEClash.Weighted>
0.3937

> <Gold.Chemscore.DEInternal.Weighted>
2.0391

> <Gold.Chemscore.Rot.Weighted>
0.0000

> <Gold.Chemscore.Internal.Correction.Weighted>
   9.000000E+99

> <Gold.Protein.RotatedTorsions>
[ 6907 6896 6895 6894 ] final -167.04 input  -60.11 | X-H torsion
[ 7974 7965 7964 7962 ] final   -3.72 input  175.53 | X-H torsion
[ 8008 7997 7996 7995 ] final  139.13 input   59.86 | X-H torsion
[ 10167 10162 10161 10158 ] final -155.40 input  -65.29 | X-H torsion
[ 10718 10713 10712 10709 ] final   57.10 input   66.30 | X-H torsion
[ 10763 10752 10751 10750 ] final  124.11 input  -60.55 | X-H torsion
[ 11005 11000 10999 10996 ] final   36.93 input  -57.11 | X-H torsion

> <Gold.Protein.ActiveResidues>
 VAL166  LYS551  ARG553  GLY616  TRP617  ASP618  TYR619  PRO620  LYS621  CYS622 
 ASP623  PHE694  ASN695  SER759  ASP760  ASP761  ALA762  ILE779  LEU786  VAL792 
 PHE793  MET794  SER795  GLU796  ALA797  LYS798  CYS799  TRP800  GLU811  SER814 

> <Gold.Protein.RotatedAtoms>
  151.4532  133.3612  159.2797 H   0  0  0  0  0  0  0  0  0  0  0  0  # atno 6907 bound_to 6896
  150.9077  134.8494  159.7414 H   0  0  0  0  0  0  0  0  0  0  0  0  # atno 6908 bound_to 6896
  152.4915  134.4458  159.9610 H   0  0  0  0  0  0  0  0  0  0  0  0  # atno 6909 bound_to 6896
  146.2385  140.1763  142.8332 H   0  0  0  0  0  0  0  0  0  0  0  0  # atno 7974 bound_to 7965
  156.2992  140.2375  156.4186 H   0  0  0  0  0  0  0  0  0  0  0  0  # atno 8008 bound_to 7997
  154.8376  140.0430  157.1539 H   0  0  0  0  0  0  0  0  0  0  0  0  # atno 8009 bound_to 7997
  154.9139  140.2994  155.5255 H   0  0  0  0  0  0  0  0  0  0  0  0  # atno 8010 bound_to 7997
  139.6934  143.9382  152.2396 H   0  0  0  0  0  0  0  0  0  0  0  0  # atno 10167 bound_to 10162
  157.5487  130.8749  149.8930 H   0  0  0  0  0  0  0  0  0  0  0  0  # atno 10718 bound_to 10713
  153.6562  135.3354  155.3114 H   0  0  0  0  0  0  0  0  0  0  0  0  # atno 10763 bound_to 10752
  154.8526  135.4353  154.1852 H   0  0  0  0  0  0  0  0  0  0  0  0  # atno 10764 bound_to 10752
  153.2807  135.7008  153.7463 H   0  0  0  0  0  0  0  0  0  0  0  0  # atno 10765 bound_to 10752
  140.2277  134.3565  155.7977 H   0  0  0  0  0  0  0  0  0  0  0  0  # atno 11005 bound_to 11000
  144.9971  140.8599  143.5304 LP  0  0  0  0  0  0  0  0  0  0  0  0  # atno 17320 bound_to 7965
  145.1777  139.2369  143.5309 LP  0  0  0  0  0  0  0  0  0  0  0  0  # atno 17321 bound_to 7965
  139.9205  144.6802  150.8467 LP  0  0  0  0  0  0  0  0  0  0  0  0  # atno 17342 bound_to 10162
  140.7689  143.3378  151.2271 LP  0  0  0  0  0  0  0  0  0  0  0  0  # atno 17343 bound_to 10162
  156.0557  130.3709  150.1096 LP  0  0  0  0  0  0  0  0  0  0  0  0  # atno 17370 bound_to 10713
  156.9270  130.9701  151.3539 LP  0  0  0  0  0  0  0  0  0  0  0  0  # atno 17371 bound_to 10713
  141.2219  133.7228  156.8680 LP  0  0  0  0  0  0  0  0  0  0  0  0  # atno 17394 bound_to 11000
  140.1783  134.9051  157.2918 LP  0  0  0  0  0  0  0  0  0  0  0  0  # atno 17395 bound_to 11000

$$$$
