AV-unprocessed.smi:304|AV-procd|sdf|2276|dock4
  -GOLD-   2262022173D 1   1.00000     0.00000
 Structure written by MMmdl.
 36 38  0  0  0  0  0  0  0  0  1 V2000
  150.1801  139.9694  153.8319 O   0  0  0  0  0  0  0  0  0  0  0  0
  149.5237  140.4075  155.0057 C   0  0  2  0  0  0  0  0  0  0  0  0
  148.0825  140.7941  154.6391 C   0  0  0  0  0  0  0  0  0  0  0  0
  147.5001  141.4893  155.7287 O   0  0  0  0  0  0  0  0  0  0  0  0
  146.0826  141.4357  155.7187 C   0  0  0  0  0  0  0  0  0  0  0  0
  145.5880  142.6224  154.9553 C   0  0  0  0  0  0  0  0  0  0  0  0
  145.9788  143.0183  153.7014 C   0  0  0  0  0  0  0  0  0  0  0  0
  145.3043  144.1883  153.2438 C   0  0  0  0  0  0  0  0  0  0  0  0
  144.3978  144.6676  154.1511 C   0  0  0  0  0  0  0  0  0  0  0  0
  144.3542  143.6866  155.5901 S   0  0  0  0  0  0  0  0  0  0  0  0
  150.3016  141.5951  155.6052 C   0  0  0  0  0  0  0  0  0  0  0  0
  150.9151  141.2738  156.8819 N   0  0  0  0  0  0  0  0  0  0  0  0
  151.3224  140.0605  157.3010 C   0  0  0  0  0  0  0  0  0  0  0  0
  151.8606  139.9839  158.5148 N   0  0  0  0  0  0  0  0  0  0  0  0
  151.7965  141.3023  158.9324 C   0  0  0  0  0  0  0  0  0  0  0  0
  152.2088  141.9010  160.1443 C   0  0  0  0  0  0  0  0  0  0  0  0
  152.0416  143.2863  160.3503 C   0  0  0  0  0  0  0  0  0  0  0  0
  152.4420  143.8439  161.5177 F   0  0  0  0  0  0  0  0  0  0  0  0
  151.4612  144.0928  159.3489 C   0  0  0  0  0  0  0  0  0  0  0  0
  151.3060  145.4221  159.5544 F   0  0  0  0  0  0  0  0  0  0  0  0
  151.0424  143.5184  158.1335 C   0  0  0  0  0  0  0  0  0  0  0  0
  151.2098  142.1358  157.9329 C   0  0  0  0  0  0  0  0  0  0  0  0
  149.6291  140.1694  153.0905 H   0  0  0  0  0  0  0  0  0  0  0  0
  149.5108  139.5912  155.7296 H   0  0  0  0  0  0  0  0  0  0  0  0
  148.0900  141.4607  153.7751 H   0  0  0  0  0  0  0  0  0  0  0  0
  147.4948  139.9163  154.3644 H   0  0  0  0  0  0  0  0  0  0  0  0
  145.7391  140.5132  155.2479 H   0  0  0  0  0  0  0  0  0  0  0  0
  145.6938  141.4586  156.7375 H   0  0  0  0  0  0  0  0  0  0  0  0
  146.7220  142.5135  153.1022 H   0  0  0  0  0  0  0  0  0  0  0  0
  145.5035  144.6294  152.2782 H   0  0  0  0  0  0  0  0  0  0  0  0
  143.7546  145.5305  154.0622 H   0  0  0  0  0  0  0  0  0  0  0  0
  151.0785  141.9306  154.9171 H   0  0  0  0  0  0  0  0  0  0  0  0
  149.6335  142.4442  155.7559 H   0  0  0  0  0  0  0  0  0  0  0  0
  151.2178  139.1837  156.6785 H   0  0  0  0  0  0  0  0  0  0  0  0
  152.6551  141.2936  160.9175 H   0  0  0  0  0  0  0  0  0  0  0  0
  150.6007  144.1339  157.3640 H   0  0  0  0  0  0  0  0  0  0  0  0
  1  2  1  0  0  0  0
  1 23  1  0  0  0  0
  2  3  1  0  0  0  0
  2 11  1  0  0  0  0
  2 24  1  0  0  0  0
  3  4  1  0  0  0  0
  3 25  1  0  0  0  0
  3 26  1  0  0  0  0
  4  5  1  0  0  0  0
  5  6  1  0  0  0  0
  5 27  1  0  0  0  0
  5 28  1  0  0  0  0
  6 10  1  0  0  0  0
  6  7  2  0  0  0  0
  7  8  1  0  0  0  0
  7 29  1  0  0  0  0
  8  9  2  0  0  0  0
  8 30  1  0  0  0  0
  9 10  1  0  0  0  0
  9 31  1  0  0  0  0
 11 12  1  0  0  0  0
 11 32  1  0  0  0  0
 11 33  1  0  0  0  0
 12 22  1  0  0  0  0
 12 13  1  0  0  0  0
 13 14  2  0  0  0  0
 13 34  1  0  0  0  0
 14 15  1  0  0  0  0
 15 22  2  0  0  0  0
 15 16  1  0  0  0  0
 16 17  2  0  0  0  0
 16 35  1  0  0  0  0
 17 18  1  0  0  0  0
 17 19  1  0  0  0  0
 19 20  1  0  0  0  0
 19 21  2  0  0  0  0
 21 22  1  0  0  0  0
 21 36  1  0  0  0  0
M  END
> <s_m_source_file>
AV-unprocessed.smi

> <i_m_source_file_index>
304

> <i_lp_mmshare_version>
43012

> <i_f3d_flags>
0

> <s_epik_input>
W2NIXTFjKEYpYyhGKVtjSF1jKGMxMiluKFtjSF1uMilbQ0gyXVtDQEhdKFtPSF0pW0NIMl1PW0NIMl1jM1tjSF1bY0hdW2NIXXMz

> <s_epik_cmdline>
J2VwaWtfcHl0aG9uJywgJy1waCcsICc3LjAnLCAnLXRuJywgJzgnLCAnLW1hJywgJzIwMCcsICctbWV0YWxfYmluZGluZycsICctaW1hZScsICc8aW5maWxlLm1hZT4nLCAnLW9tYWUnLCAnPG91dGZpbGUubWFlPic=

> <r_epik_Ionization_Penalty>
0.0152118

> <r_epik_Ionization_Penalty_Charging>
0

> <r_epik_Ionization_Penalty_Neutral>
0.0152118

> <r_epik_State_Penalty>
0.0119413

> <r_epik_Charging_Adjusted_Penalty>
0.0119413

> <i_epik_Tot_Q>
0

> <i_epik_Tot_abs_Q>
0

> <r_epik_Metal_State_Penalty>
1.20623e-05

> <b_epik_Metal_Only>
0

> <s_lp_Force_Field>
OPLS_2005

> <r_lp_Energy>
8.33782

> <b_lp_Chiralities_Consistent>
1

> <s_lp_Variant>
AV-unprocessed.smi:304-1

> <Gold.Version>
5.8.1

> <Gold.Id.Protein>
6NUR|6NUR_protein|mol2

> <Gold.PLP.Fitness>
53.3058

> <Gold.PLP.PLP>
-51.3216

> <Gold.PLP.part.hbond>
-2.0000

> <Gold.PLP.part.metal>
0.0000

> <Gold.PLP.part.buried>
-8.2608

> <Gold.PLP.part.nonpolar>
-41.6338

> <Gold.PLP.part.repulsive>
0.0941

> <Gold.PLP.ligand.clash>
0.0000

> <Gold.PLP.ligand.torsion>
1.5649

> <Gold.PLP.Chemscore.Hbond>
1.6640

> <Gold.PLP.Chemscore.CHOScore>
0.0000

> <Gold.PLP.Chemscore.Metal>
0.0000

> <Gold.Chemscore.Hbonds>
donor molecule, donor type, donor heavy atom, donor atom, acceptor molecule, acceptor atom, score
      L1  H     1    23       P1  7957  0.82
      P1  H  7989  7998       L1     1  0.90

> <Gold.PLP.Chemscore.Internal.Correction>
0.1221

> <Gold.Rescore>
     Score         DG    S(hbond)    S(metal)    S(lipo)     H(rot)  DE(clash)    DE(int)     intcor
     14.43     -16.23       1.31        0.00     112.36       2.64       0.14       1.65       ----

> <Gold.Chemscore.Fitness>
14.4330

> <Gold.Chemscore.DG>
-16.2280

> <Gold.Chemscore.ZeroCoef>
-5.4800

> <Gold.Chemscore.Hbond>
1.3059

> <Gold.Chemscore.Metal>
0.0000

> <Gold.Chemscore.Lipo>
112.3552

> <Gold.Chemscore.Internal_Hbond>
0.0000

> <Gold.Chemscore.DEClash>
0.1434

> <Gold.Chemscore.DEInternal>
1.6516

> <Gold.Chemscore.Rot>
2.6403

> <Gold.Chemscore.Internal.Correction>
   9.000000E+99

> <Gold.Chemscore.Hbonds>
donor molecule, donor type, donor heavy atom, donor atom, acceptor molecule, acceptor atom, score
      L1  H     1    23       P1  7957  0.79
      P1  H  7989  7998       L1     1  0.27

> <Gold.Chemscore.Hbond.Weighted>
-4.3617

> <Gold.Chemscore.Metal.Weighted>
-0.0000

> <Gold.Chemscore.Lipo.Weighted>
-13.1456

> <Gold.Chemscore.Internal_Hbond.Weighted>
0.0000

> <Gold.Chemscore.DEClash.Weighted>
0.1434

> <Gold.Chemscore.DEInternal.Weighted>
1.6516

> <Gold.Chemscore.Rot.Weighted>
6.7592

> <Gold.Chemscore.Internal.Correction.Weighted>
   9.000000E+99

> <Gold.Protein.RotatedTorsions>
[ 6907 6896 6895 6894 ] final -143.60 input  -60.11 | X-H torsion
[ 7974 7965 7964 7962 ] final  -22.10 input  175.53 | X-H torsion
[ 8008 7997 7996 7995 ] final    5.72 input   59.86 | X-H torsion
[ 10167 10162 10161 10158 ] final  153.11 input  -65.29 | X-H torsion
[ 10718 10713 10712 10709 ] final   98.88 input   66.30 | X-H torsion
[ 10763 10752 10751 10750 ] final   54.98 input  -60.55 | X-H torsion
[ 11005 11000 10999 10996 ] final -157.57 input  -57.11 | X-H torsion

> <Gold.Protein.ActiveResidues>
 VAL166  LYS551  ARG553  GLY616  TRP617  ASP618  TYR619  PRO620  LYS621  CYS622 
 ASP623  PHE694  ASN695  SER759  ASP760  ASP761  ALA762  ILE779  LEU786  VAL792 
 PHE793  MET794  SER795  GLU796  ALA797  LYS798  CYS799  TRP800  GLU811  SER814 

> <Gold.Protein.RotatedAtoms>
  151.1026  133.5232  159.2609 H   0  0  0  0  0  0  0  0  0  0  0  0  # atno 6907 bound_to 6896
  151.2057  135.0460  159.8900 H   0  0  0  0  0  0  0  0  0  0  0  0  # atno 6908 bound_to 6896
  152.5444  134.0849  159.8305 H   0  0  0  0  0  0  0  0  0  0  0  0  # atno 6909 bound_to 6896
  146.1695  140.4433  142.8538 H   0  0  0  0  0  0  0  0  0  0  0  0  # atno 7974 bound_to 7965
  154.7319  140.2732  155.6449 H   0  0  0  0  0  0  0  0  0  0  0  0  # atno 8008 bound_to 7997
  156.2852  140.2714  156.1947 H   0  0  0  0  0  0  0  0  0  0  0  0  # atno 8009 bound_to 7997
  155.0371  140.0371  157.2485 H   0  0  0  0  0  0  0  0  0  0  0  0  # atno 8010 bound_to 7997
  139.4829  144.5301  151.7737 H   0  0  0  0  0  0  0  0  0  0  0  0  # atno 10167 bound_to 10162
  157.6887  131.0653  150.4864 H   0  0  0  0  0  0  0  0  0  0  0  0  # atno 10718 bound_to 10713
  152.9811  135.5726  154.4993 H   0  0  0  0  0  0  0  0  0  0  0  0  # atno 10763 bound_to 10752
  154.4515  135.2778  155.1780 H   0  0  0  0  0  0  0  0  0  0  0  0  # atno 10764 bound_to 10752
  154.3406  135.6230  153.5648 H   0  0  0  0  0  0  0  0  0  0  0  0  # atno 10765 bound_to 10752
  140.6632  134.4327  157.5234 H   0  0  0  0  0  0  0  0  0  0  0  0  # atno 11005 bound_to 11000
  144.8141  140.6438  143.6395 LP  0  0  0  0  0  0  0  0  0  0  0  0  # atno 17320 bound_to 7965
  145.4379  139.1540  143.3987 LP  0  0  0  0  0  0  0  0  0  0  0  0  # atno 17321 bound_to 7965
  140.4826  144.1427  150.5935 LP  0  0  0  0  0  0  0  0  0  0  0  0  # atno 17342 bound_to 10162
  140.4261  143.2589  151.9655 LP  0  0  0  0  0  0  0  0  0  0  0  0  # atno 17343 bound_to 10162
  156.5193  130.4158  149.6259 LP  0  0  0  0  0  0  0  0  0  0  0  0  # atno 17370 bound_to 10713
  156.3169  130.7259  151.2163 LP  0  0  0  0  0  0  0  0  0  0  0  0  # atno 17371 bound_to 10713
  139.9006  134.8565  156.1913 LP  0  0  0  0  0  0  0  0  0  0  0  0  # atno 17394 bound_to 11000
  141.0449  133.6918  156.1665 LP  0  0  0  0  0  0  0  0  0  0  0  0  # atno 17395 bound_to 11000

$$$$
