AV-unprocessed.smi:2143|AV-procd|sdf|8729|dock4
  -GOLD-   2272011493D 1   1.00000     0.00000
 Structure written by MMmdl.
 44 45  0  0  0  0  0  0  0  0  1 V2000
  151.0440  138.1789  154.7479 C   0  0  0  0  0  0  0  0  0  0  0  0
  150.5990  139.4785  155.4426 C   0  0  1  0  0  0  0  0  0  0  0  0
  149.6099  140.2407  154.5366 C   0  0  0  0  0  0  0  0  0  0  0  0
  149.1392  141.5559  155.1711 C   0  0  0  0  0  0  0  0  0  0  0  0
  148.5111  141.3055  156.5492 C   0  0  0  0  0  0  0  0  0  0  0  0
  149.4735  140.5514  157.4879 C   0  0  2  0  0  0  0  0  0  0  0  0
  150.5904  141.4102  157.8842 N   0  0  0  0  0  0  0  0  0  0  0  0
  150.4871  142.5696  158.5506 C   0  0  0  0  0  0  0  0  0  0  0  0
  149.4109  143.0632  158.8890 O   0  0  0  0  0  0  0  0  0  0  0  0
  151.8062  143.2893  158.8579 C   0  0  0  0  0  0  0  0  0  0  0  0
  152.5376  142.6766  159.9737 N   0  0  0  0  0  0  0  0  0  0  0  0
  153.2372  141.5007  159.7738 C   0  0  0  0  0  0  0  0  0  0  0  0
  153.9490  140.8838  160.7422 C   0  0  0  0  0  0  0  0  0  0  0  0
  154.0184  141.4374  162.0891 C   0  0  0  0  0  0  0  0  0  0  0  0
  154.6683  140.9148  162.9953 O   0  0  0  0  0  0  0  0  0  0  0  0
  153.2841  142.6347  162.2691 N   0  0  0  0  0  0  0  0  0  0  0  0
  153.2972  143.2753  163.5678 C   0  0  0  0  0  0  0  0  0  0  0  0
  152.5540  143.2824  161.2482 C   0  0  0  0  0  0  0  0  0  0  0  0
  151.9536  144.3414  161.4494 O   0  0  0  0  0  0  0  0  0  0  0  0
  149.9804  139.2329  156.8476 C   0  0  2  0  0  0  0  0  0  0  0  0
  150.9278  138.4779  157.8027 C   0  0  0  0  0  0  0  0  0  0  0  0
  150.2172  137.4734  154.6584 H   0  0  0  0  0  0  0  0  0  0  0  0
  151.8503  137.6854  155.2898 H   0  0  0  0  0  0  0  0  0  0  0  0
  151.4161  138.3809  153.7433 H   0  0  0  0  0  0  0  0  0  0  0  0
  151.4863  140.1015  155.5628 H   0  0  0  0  0  0  0  0  0  0  0  0
  150.0742  140.4515  153.5726 H   0  0  0  0  0  0  0  0  0  0  0  0
  148.7436  139.6115  154.3277 H   0  0  0  0  0  0  0  0  0  0  0  0
  149.9815  142.2424  155.2644 H   0  0  0  0  0  0  0  0  0  0  0  0
  148.4153  142.0446  154.5182 H   0  0  0  0  0  0  0  0  0  0  0  0
  148.2022  142.2505  156.9975 H   0  0  0  0  0  0  0  0  0  0  0  0
  147.5998  140.7193  156.4249 H   0  0  0  0  0  0  0  0  0  0  0  0
  148.9169  140.2820  158.3877 H   0  0  0  0  0  0  0  0  0  0  0  0
  151.5156  141.0868  157.6423 H   0  0  0  0  0  0  0  0  0  0  0  0
  152.4363  143.3152  157.9667 H   0  0  0  0  0  0  0  0  0  0  0  0
  151.5790  144.3313  159.0877 H   0  0  0  0  0  0  0  0  0  0  0  0
  153.2211  141.0527  158.7907 H   0  0  0  0  0  0  0  0  0  0  0  0
  154.4773  139.9690  160.5165 H   0  0  0  0  0  0  0  0  0  0  0  0
  152.2727  143.5586  163.8164 H   0  0  0  0  0  0  0  0  0  0  0  0
  153.9439  144.1499  163.4838 H   0  0  0  0  0  0  0  0  0  0  0  0
  153.6631  142.5932  164.3351 H   0  0  0  0  0  0  0  0  0  0  0  0
  149.1050  138.5961  156.7089 H   0  0  0  0  0  0  0  0  0  0  0  0
  151.8907  138.9806  157.8975 H   0  0  0  0  0  0  0  0  0  0  0  0
  151.1162  137.4605  157.4606 H   0  0  0  0  0  0  0  0  0  0  0  0
  150.4951  138.4005  158.8007 H   0  0  0  0  0  0  0  0  0  0  0  0
  1  2  1  0  0  0  0
  1 22  1  0  0  0  0
  1 23  1  0  0  0  0
  1 24  1  0  0  0  0
  2 20  1  0  0  0  0
  2  3  1  0  0  0  0
  2 25  1  0  0  0  0
  3  4  1  0  0  0  0
  3 26  1  0  0  0  0
  3 27  1  0  0  0  0
  4  5  1  0  0  0  0
  4 28  1  0  0  0  0
  4 29  1  0  0  0  0
  5  6  1  0  0  0  0
  5 30  1  0  0  0  0
  5 31  1  0  0  0  0
  6  7  1  0  0  0  0
  6 20  1  0  0  0  0
  6 32  1  0  0  0  0
  7  8  1  0  0  0  0
  7 33  1  0  0  0  0
  8  9  2  0  0  0  0
  8 10  1  0  0  0  0
 10 11  1  0  0  0  0
 10 34  1  0  0  0  0
 10 35  1  0  0  0  0
 11 18  1  0  0  0  0
 11 12  1  0  0  0  0
 12 13  2  0  0  0  0
 12 36  1  0  0  0  0
 13 14  1  0  0  0  0
 13 37  1  0  0  0  0
 14 15  2  0  0  0  0
 14 16  1  0  0  0  0
 16 17  1  0  0  0  0
 16 18  1  0  0  0  0
 17 38  1  0  0  0  0
 17 39  1  0  0  0  0
 17 40  1  0  0  0  0
 18 19  2  0  0  0  0
 20 21  1  0  0  0  0
 20 41  1  0  0  0  0
 21 42  1  0  0  0  0
 21 43  1  0  0  0  0
 21 44  1  0  0  0  0
M  END
> <s_m_source_file>
AV-unprocessed.smi

> <i_m_source_file_index>
2143

> <i_lp_mmshare_version>
43012

> <i_f3d_flags>
0

> <s_epik_input>
W0NIM11bQ0BASF0xW0NIMl1bQ0gyXVtDSDJdW0NASF0oW0NASF0xW0NIM10pW05IXUMoPU8pW0NIMl1uMltjSF1bY0hdYyg9TyluKFtDSDNdKWMyPU8=

> <s_epik_cmdline>
J2VwaWtfcHl0aG9uJywgJy1waCcsICc3LjAnLCAnLXRuJywgJzgnLCAnLW1hJywgJzIwMCcsICctbWV0YWxfYmluZGluZycsICctaW1hZScsICc8aW5maWxlLm1hZT4nLCAnLW9tYWUnLCAnPG91dGZpbGUubWFlPic=

> <r_lp_tautomer_probability>
1

> <r_epik_Ionization_Penalty>
3.18445e-08

> <r_epik_Ionization_Penalty_Charging>
1.27977e-08

> <r_epik_Ionization_Penalty_Neutral>
1.90469e-08

> <r_epik_State_Penalty>
-0

> <r_epik_Charging_Adjusted_Penalty>
1.27977e-08

> <i_epik_Tot_Q>
0

> <i_epik_Tot_abs_Q>
0

> <r_epik_Metal_State_Penalty>
-0

> <b_epik_Metal_Only>
0

> <s_lp_Force_Field>
OPLS_2005

> <r_lp_Energy>
18.9337

> <b_lp_Chiralities_Consistent>
1

> <s_lp_Variant>
AV-unprocessed.smi:2143-8

> <Gold.Version>
5.8.1

> <Gold.Id.Protein>
6NUR|6NUR_protein|mol2

> <Gold.PLP.Fitness>
44.7183

> <Gold.PLP.PLP>
-45.5752

> <Gold.PLP.part.hbond>
-1.8173

> <Gold.PLP.part.metal>
0.0000

> <Gold.PLP.part.buried>
-3.9173

> <Gold.PLP.part.nonpolar>
-38.5294

> <Gold.PLP.part.repulsive>
0.3598

> <Gold.PLP.ligand.clash>
0.0000

> <Gold.PLP.ligand.torsion>
0.4351

> <Gold.PLP.Chemscore.Hbond>
0.0000

> <Gold.PLP.Chemscore.CHOScore>
0.0000

> <Gold.PLP.Chemscore.Metal>
0.0000

> <Gold.PLP.Chemscore.Internal.Correction>
0.0133

> <Gold.Rescore>
     Score         DG    S(hbond)    S(metal)    S(lipo)     H(rot)  DE(clash)    DE(int)     intcor
     11.10     -11.65       0.00        0.00      85.82       1.51       0.05       0.49       ----

> <Gold.Chemscore.Fitness>
11.1041

> <Gold.Chemscore.DG>
-11.6474

> <Gold.Chemscore.ZeroCoef>
-5.4800

> <Gold.Chemscore.Hbond>
0.0000

> <Gold.Chemscore.Metal>
0.0000

> <Gold.Chemscore.Lipo>
85.8193

> <Gold.Chemscore.Internal_Hbond>
0.0000

> <Gold.Chemscore.DEClash>
0.0496

> <Gold.Chemscore.DEInternal>
0.4938

> <Gold.Chemscore.Rot>
1.5131

> <Gold.Chemscore.Internal.Correction>
   9.000000E+99

> <Gold.Chemscore.Hbond.Weighted>
-0.0000

> <Gold.Chemscore.Metal.Weighted>
-0.0000

> <Gold.Chemscore.Lipo.Weighted>
-10.0409

> <Gold.Chemscore.Internal_Hbond.Weighted>
0.0000

> <Gold.Chemscore.DEClash.Weighted>
0.0496

> <Gold.Chemscore.DEInternal.Weighted>
0.4938

> <Gold.Chemscore.Rot.Weighted>
3.8734

> <Gold.Chemscore.Internal.Correction.Weighted>
   9.000000E+99

> <Gold.Protein.RotatedTorsions>
[ 6907 6896 6895 6894 ] final  -30.55 input  -60.11 | X-H torsion
[ 7974 7965 7964 7962 ] final   53.44 input  175.53 | X-H torsion
[ 8008 7997 7996 7995 ] final -152.65 input   59.86 | X-H torsion
[ 10167 10162 10161 10158 ] final -176.94 input  -65.29 | X-H torsion
[ 10718 10713 10712 10709 ] final  112.92 input   66.30 | X-H torsion
[ 10763 10752 10751 10750 ] final   70.10 input  -60.55 | X-H torsion
[ 11005 11000 10999 10996 ] final  102.15 input  -57.11 | X-H torsion

> <Gold.Protein.ActiveResidues>
 VAL166  LYS551  ARG553  GLY616  TRP617  ASP618  TYR619  PRO620  LYS621  CYS622 
 ASP623  PHE694  ASN695  SER759  ASP760  ASP761  ALA762  ILE779  LEU786  VAL792 
 PHE793  MET794  SER795  GLU796  ALA797  LYS798  CYS799  TRP800  GLU811  SER814 

> <Gold.Protein.RotatedAtoms>
  151.1041  134.9989  159.8462 H   0  0  0  0  0  0  0  0  0  0  0  0  # atno 6907 bound_to 6896
  152.5439  134.1915  159.8686 H   0  0  0  0  0  0  0  0  0  0  0  0  # atno 6908 bound_to 6896
  151.1960  133.4594  159.2629 H   0  0  0  0  0  0  0  0  0  0  0  0  # atno 6909 bound_to 6896
  145.9711  139.4150  143.0189 H   0  0  0  0  0  0  0  0  0  0  0  0  # atno 7974 bound_to 7965
  155.6585  140.0720  157.2562 H   0  0  0  0  0  0  0  0  0  0  0  0  # atno 8008 bound_to 7997
  154.4147  140.1720  156.1802 H   0  0  0  0  0  0  0  0  0  0  0  0  # atno 8009 bound_to 7997
  155.9717  140.3361  155.6585 H   0  0  0  0  0  0  0  0  0  0  0  0  # atno 8010 bound_to 7997
  139.5505  144.2123  152.1067 H   0  0  0  0  0  0  0  0  0  0  0  0  # atno 10167 bound_to 10162
  157.6366  131.0975  150.6965 H   0  0  0  0  0  0  0  0  0  0  0  0  # atno 10718 bound_to 10713
  153.0323  135.5186  154.7389 H   0  0  0  0  0  0  0  0  0  0  0  0  # atno 10763 bound_to 10752
  154.6394  135.2910  155.0123 H   0  0  0  0  0  0  0  0  0  0  0  0  # atno 10764 bound_to 10752
  154.1047  135.6631  153.4927 H   0  0  0  0  0  0  0  0  0  0  0  0  # atno 10765 bound_to 10752
  139.8776  134.9212  156.5014 H   0  0  0  0  0  0  0  0  0  0  0  0  # atno 11005 bound_to 11000
  145.7904  140.9817  143.1052 LP  0  0  0  0  0  0  0  0  0  0  0  0  # atno 17320 bound_to 7965
  144.6837  139.9675  143.7481 LP  0  0  0  0  0  0  0  0  0  0  0  0  # atno 17321 bound_to 7965
  140.1617  144.5019  150.6629 LP  0  0  0  0  0  0  0  0  0  0  0  0  # atno 17342 bound_to 10162
  140.6766  143.2307  151.5492 LP  0  0  0  0  0  0  0  0  0  0  0  0  # atno 17343 bound_to 10162
  156.7295  130.4705  149.5503 LP  0  0  0  0  0  0  0  0  0  0  0  0  # atno 17370 bound_to 10713
  156.1611  130.6375  151.0720 LP  0  0  0  0  0  0  0  0  0  0  0  0  # atno 17371 bound_to 10713
  140.8586  133.8077  155.9242 LP  0  0  0  0  0  0  0  0  0  0  0  0  # atno 17394 bound_to 11000
  140.9072  134.2306  157.5007 LP  0  0  0  0  0  0  0  0  0  0  0  0  # atno 17395 bound_to 11000

$$$$
