AV-unprocessed.smi:2489|AV-procd|sdf|9796|dock3
  -GOLD-   2272013433D 1   1.00000     0.00000
 Structure written by MMmdl.
 33 34  0  0  0  0  0  0  0  0  1 V2000
  151.5779  145.2124  159.0101 C   0  0  0  0  0  0  0  0  0  0  0  0
  152.1586  144.4108  160.0282 O   0  0  0  0  0  0  0  0  0  0  0  0
  152.4219  143.0898  159.7375 C   0  0  0  0  0  0  0  0  0  0  0  0
  153.1317  142.3398  160.6936 C   0  0  0  0  0  0  0  0  0  0  0  0
  153.4127  140.9886  160.4231 C   0  0  0  0  0  0  0  0  0  0  0  0
  153.0352  140.3698  159.2863 N   0  0  0  0  0  0  0  0  0  0  0  0
  152.3509  141.0723  158.3508 C   0  0  0  0  0  0  0  0  0  0  0  0
  151.9059  140.5191  157.1210 N   0  0  0  0  0  0  0  0  0  0  0  0
  152.4045  139.4664  156.4444 C   0  0  0  0  0  0  0  0  0  0  0  0
  153.3851  138.8132  156.8018 O   0  0  0  0  0  0  0  0  0  0  0  0
  151.6960  139.0990  155.1314 C   0  0  1  0  0  0  0  0  0  0  0  0
  150.9512  137.7505  155.1708 C   0  0  0  0  0  0  0  0  0  0  0  0
  149.5047  138.1224  154.8996 C   0  0  0  0  0  0  0  0  0  0  0  0
  149.6388  139.4327  154.1321 C   0  0  1  0  0  0  0  0  0  0  0  0
  148.3788  140.3046  154.1516 C   0  0  0  0  0  0  0  0  0  0  0  0
  150.7015  140.0748  154.8166 O   0  0  0  0  0  0  0  0  0  0  0  0
  152.0273  142.4345  158.5442 C   0  0  0  0  0  0  0  0  0  0  0  0
  151.4315  146.2242  159.3880 H   0  0  0  0  0  0  0  0  0  0  0  0
  150.6022  144.8287  158.7089 H   0  0  0  0  0  0  0  0  0  0  0  0
  152.2267  145.2775  158.1355 H   0  0  0  0  0  0  0  0  0  0  0  0
  153.4555  142.7920  161.6194 H   0  0  0  0  0  0  0  0  0  0  0  0
  153.9550  140.3884  161.1385 H   0  0  0  0  0  0  0  0  0  0  0  0
  151.1031  140.9687  156.7052 H   0  0  0  0  0  0  0  0  0  0  0  0
  152.4343  139.0863  154.3282 H   0  0  0  0  0  0  0  0  0  0  0  0
  151.3281  137.0980  154.3824 H   0  0  0  0  0  0  0  0  0  0  0  0
  151.0491  137.2126  156.1148 H   0  0  0  0  0  0  0  0  0  0  0  0
  148.9641  137.3559  154.3434 H   0  0  0  0  0  0  0  0  0  0  0  0
  148.9844  138.2888  155.8442 H   0  0  0  0  0  0  0  0  0  0  0  0
  149.9476  139.2354  153.1039 H   0  0  0  0  0  0  0  0  0  0  0  0
  147.5465  139.7995  153.6610 H   0  0  0  0  0  0  0  0  0  0  0  0
  148.5503  141.2475  153.6318 H   0  0  0  0  0  0  0  0  0  0  0  0
  148.0751  140.5379  155.1725 H   0  0  0  0  0  0  0  0  0  0  0  0
  151.4801  142.9556  157.7728 H   0  0  0  0  0  0  0  0  0  0  0  0
  1  2  1  0  0  0  0
  1 18  1  0  0  0  0
  1 19  1  0  0  0  0
  1 20  1  0  0  0  0
  2  3  1  0  0  0  0
  3 17  1  0  0  0  0
  3  4  2  0  0  0  0
  4  5  1  0  0  0  0
  4 21  1  0  0  0  0
  5  6  2  0  0  0  0
  5 22  1  0  0  0  0
  6  7  1  0  0  0  0
  7  8  1  0  0  0  0
  7 17  2  0  0  0  0
  8  9  1  0  0  0  0
  8 23  1  0  0  0  0
  9 10  2  0  0  0  0
  9 11  1  0  0  0  0
 11 16  1  0  0  0  0
 11 12  1  0  0  0  0
 11 24  1  0  0  0  0
 12 13  1  0  0  0  0
 12 25  1  0  0  0  0
 12 26  1  0  0  0  0
 13 14  1  0  0  0  0
 13 27  1  0  0  0  0
 13 28  1  0  0  0  0
 14 15  1  0  0  0  0
 14 16  1  0  0  0  0
 14 29  1  0  0  0  0
 15 30  1  0  0  0  0
 15 31  1  0  0  0  0
 15 32  1  0  0  0  0
 17 33  1  0  0  0  0
M  END
> <s_m_source_file>
AV-unprocessed.smi

> <i_m_source_file_index>
2489

> <i_lp_mmshare_version>
43012

> <i_f3d_flags>
0

> <s_epik_input>
W0NIM11PYzFbY0hdW2NIXW5jKFtjSF0xKVtOSF1DKD1PKVtDQEBIXTJbQ0gyXVtDSDJdW0NASF0oTzIpW0NIM10=

> <s_epik_cmdline>
J2VwaWtfcHl0aG9uJywgJy1waCcsICc3LjAnLCAnLXRuJywgJzgnLCAnLW1hJywgJzIwMCcsICctbWV0YWxfYmluZGluZycsICctaW1hZScsICc8aW5maWxlLm1hZT4nLCAnLW9tYWUnLCAnPG91dGZpbGUubWFlPic=

> <r_epik_Ionization_Penalty>
0.0871917

> <r_epik_Ionization_Penalty_Charging>
0

> <r_epik_Ionization_Penalty_Neutral>
0.0871917

> <r_epik_State_Penalty>
0.146479

> <r_epik_Charging_Adjusted_Penalty>
0.146479

> <i_epik_Tot_Q>
0

> <i_epik_Tot_abs_Q>
0

> <r_epik_Metal_State_Penalty>
0.067489

> <b_epik_Metal_Only>
0

> <s_lp_Force_Field>
OPLS_2005

> <r_lp_Energy>
22.1586

> <b_lp_Chiralities_Consistent>
1

> <s_lp_Variant>
AV-unprocessed.smi:2489-2

> <Gold.Version>
5.8.1

> <Gold.Id.Protein>
6NUR|6NUR_protein|mol2

> <Gold.PLP.Fitness>
40.0261

> <Gold.PLP.PLP>
-35.1942

> <Gold.PLP.part.hbond>
-2.0000

> <Gold.PLP.part.metal>
0.0000

> <Gold.PLP.part.buried>
-2.5923

> <Gold.PLP.part.nonpolar>
-30.6467

> <Gold.PLP.part.repulsive>
0.2210

> <Gold.PLP.ligand.clash>
0.0000

> <Gold.PLP.ligand.torsion>
0.2889

> <Gold.PLP.Chemscore.Hbond>
1.8012

> <Gold.PLP.Chemscore.CHOScore>
0.0000

> <Gold.PLP.Chemscore.Metal>
0.0000

> <Gold.Chemscore.Hbonds>
donor molecule, donor type, donor heavy atom, donor atom, acceptor molecule, acceptor atom, score
      P1  H  7989  7998       L1    16  0.80
      P1  H  7997  8009       L1    10  0.86

> <Gold.PLP.Chemscore.Internal.Correction>
0.0061

> <Gold.Rescore>
     Score         DG    S(hbond)    S(metal)    S(lipo)     H(rot)  DE(clash)    DE(int)     intcor
     13.23     -14.90       0.76        0.00      85.75       1.23       0.24       1.43       ----

> <Gold.Chemscore.Fitness>
13.2257

> <Gold.Chemscore.DG>
-14.9012

> <Gold.Chemscore.ZeroCoef>
-5.4800

> <Gold.Chemscore.Hbond>
0.7570

> <Gold.Chemscore.Metal>
0.0000

> <Gold.Chemscore.Lipo>
85.7479

> <Gold.Chemscore.Internal_Hbond>
0.0000

> <Gold.Chemscore.DEClash>
0.2416

> <Gold.Chemscore.DEInternal>
1.4338

> <Gold.Chemscore.Rot>
1.2264

> <Gold.Chemscore.Internal.Correction>
   9.000000E+99

> <Gold.Chemscore.Hbonds>
donor molecule, donor type, donor heavy atom, donor atom, acceptor molecule, acceptor atom, score
      P1  H  7989  7998       L1    16  0.05
      P1  H  7997  8009       L1    10  0.25

> <Gold.Chemscore.Hbond.Weighted>
-2.5282

> <Gold.Chemscore.Metal.Weighted>
-0.0000

> <Gold.Chemscore.Lipo.Weighted>
-10.0325

> <Gold.Chemscore.Internal_Hbond.Weighted>
0.0000

> <Gold.Chemscore.DEClash.Weighted>
0.2416

> <Gold.Chemscore.DEInternal.Weighted>
1.4338

> <Gold.Chemscore.Rot.Weighted>
3.1396

> <Gold.Chemscore.Internal.Correction.Weighted>
   9.000000E+99

> <Gold.Protein.RotatedTorsions>
[ 6907 6896 6895 6894 ] final  160.49 input  -60.11 | X-H torsion
[ 7974 7965 7964 7962 ] final   48.90 input  175.53 | X-H torsion
[ 8008 7997 7996 7995 ] final  159.50 input   59.86 | X-H torsion
[ 10167 10162 10161 10158 ] final  162.64 input  -65.29 | X-H torsion
[ 10718 10713 10712 10709 ] final  174.06 input   66.30 | X-H torsion
[ 10763 10752 10751 10750 ] final -104.86 input  -60.55 | X-H torsion
[ 11005 11000 10999 10996 ] final  -94.76 input  -57.11 | X-H torsion

> <Gold.Protein.ActiveResidues>
 VAL166  LYS551  ARG553  GLY616  TRP617  ASP618  TYR619  PRO620  LYS621  CYS622 
 ASP623  PHE694  ASN695  SER759  ASP760  ASP761  ALA762  ILE779  LEU786  VAL792 
 PHE793  MET794  SER795  GLU796  ALA797  LYS798  CYS799  TRP800  GLU811  SER814 

> <Gold.Protein.RotatedAtoms>
  151.9699  133.3722  159.4066 H   0  0  0  0  0  0  0  0  0  0  0  0  # atno 6907 bound_to 6896
  150.6950  134.4151  159.5189 H   0  0  0  0  0  0  0  0  0  0  0  0  # atno 6908 bound_to 6896
  152.1854  134.8718  160.0573 H   0  0  0  0  0  0  0  0  0  0  0  0  # atno 6909 bound_to 6896
  146.0160  139.4596  142.9927 H   0  0  0  0  0  0  0  0  0  0  0  0  # atno 7974 bound_to 7965
  156.2235  140.1829  156.7421 H   0  0  0  0  0  0  0  0  0  0  0  0  # atno 8008 bound_to 7997
  154.5902  140.0652  156.9257 H   0  0  0  0  0  0  0  0  0  0  0  0  # atno 8009 bound_to 7997
  155.2349  140.3317  155.4301 H   0  0  0  0  0  0  0  0  0  0  0  0  # atno 8010 bound_to 7997
  139.4863  144.4418  151.8943 H   0  0  0  0  0  0  0  0  0  0  0  0  # atno 10167 bound_to 10162
  156.9552  131.0043  151.2940 H   0  0  0  0  0  0  0  0  0  0  0  0  # atno 10718 bound_to 10713
  154.7907  135.4771  154.0046 H   0  0  0  0  0  0  0  0  0  0  0  0  # atno 10763 bound_to 10752
  153.1626  135.6811  153.8727 H   0  0  0  0  0  0  0  0  0  0  0  0  # atno 10764 bound_to 10752
  153.8336  135.3188  155.3398 H   0  0  0  0  0  0  0  0  0  0  0  0  # atno 10765 bound_to 10752
  141.1461  133.7978  157.0342 H   0  0  0  0  0  0  0  0  0  0  0  0  # atno 11005 bound_to 11000
  145.7268  141.0056  143.1373 LP  0  0  0  0  0  0  0  0  0  0  0  0  # atno 17320 bound_to 7965
  144.6971  139.8936  143.7454 LP  0  0  0  0  0  0  0  0  0  0  0  0  # atno 17321 bound_to 7965
  140.3870  144.2664  150.5903 LP  0  0  0  0  0  0  0  0  0  0  0  0  # atno 17342 bound_to 10162
  140.5181  143.2273  151.8431 LP  0  0  0  0  0  0  0  0  0  0  0  0  # atno 17343 bound_to 10162
  157.5695  130.8301  149.8372 LP  0  0  0  0  0  0  0  0  0  0  0  0  # atno 17370 bound_to 10713
  156.0346  130.3755  150.1596 LP  0  0  0  0  0  0  0  0  0  0  0  0  # atno 17371 bound_to 10713
  140.0734  134.9689  157.1506 LP  0  0  0  0  0  0  0  0  0  0  0  0  # atno 17394 bound_to 11000
  140.3678  134.2424  155.7181 LP  0  0  0  0  0  0  0  0  0  0  0  0  # atno 17395 bound_to 11000

$$$$
