AV-unprocessed.smi:102|AV-procd|sdf|954|dock6
  -GOLD-   2262017483D 1   1.00000     0.00000
 Structure written by MMmdl.
 44 45  0  0  0  0  0  0  0  0  1 V2000
  147.1471  134.8698  161.1488 C   0  0  0  0  0  0  0  0  0  0  0  0
  147.6426  136.0996  160.3997 C   0  0  0  0  0  0  0  0  0  0  0  0
  147.0683  137.1845  160.4934 O   0  0  0  0  0  0  0  0  0  0  0  0
  148.7334  135.8444  159.6605 O   0  0  0  0  0  0  0  0  0  0  0  0
  149.2336  136.8382  158.7812 C   0  0  0  0  0  0  0  0  0  0  0  0
  149.0952  136.3572  157.3288 C   0  0  1  0  0  0  0  0  0  0  0  0
  148.7349  137.4540  156.4914 O   0  0  0  0  0  0  0  0  0  0  0  0
  149.8455  137.9836  155.8267 C   0  0  1  0  0  0  0  0  0  0  0  0
  150.0332  139.4402  156.2081 N   0  0  0  0  0  0  0  0  0  0  0  0
  149.1252  140.1314  157.0019 C   0  0  0  0  0  0  0  0  0  0  0  0
  149.2917  141.4285  157.3527 C   0  0  0  0  0  0  0  0  0  0  0  0
  148.3706  142.0300  158.1247 F   0  0  0  0  0  0  0  0  0  0  0  0
  150.4567  142.1810  156.8961 C   0  0  0  0  0  0  0  0  0  0  0  0
  150.6968  143.3561  157.1654 O   0  0  0  0  0  0  0  0  0  0  0  0
  151.3332  141.4523  156.0871 N   0  0  0  0  0  0  0  0  0  0  0  0
  151.1723  140.1161  155.7171 C   0  0  0  0  0  0  0  0  0  0  0  0
  152.0080  139.5689  154.9988 O   0  0  0  0  0  0  0  0  0  0  0  0
  151.0654  137.1024  156.1733 C   0  0  1  0  0  0  0  0  0  0  0  0
  151.9195  137.7208  157.1330 O   0  0  0  0  0  0  0  0  0  0  0  0
  153.0178  137.0885  157.5747 C   0  0  0  0  0  0  0  0  0  0  0  0
  153.7657  137.8979  158.6253 C   0  0  0  0  0  0  0  0  0  0  0  0
  153.4141  135.9820  157.2097 O   0  0  0  0  0  0  0  0  0  0  0  0
  150.4288  135.8568  156.7664 C   0  0  2  0  0  0  0  0  0  0  0  0
  150.2401  134.8911  155.7389 O   0  0  0  0  0  0  0  0  0  0  0  0
  150.2025  133.5798  156.0357 C   0  0  0  0  0  0  0  0  0  0  0  0
  150.0186  132.7100  154.7993 C   0  0  0  0  0  0  0  0  0  0  0  0
  150.2944  133.0878  157.1606 O   0  0  0  0  0  0  0  0  0  0  0  0
  152.1511  141.9336  155.7421 H   0  0  0  0  0  0  0  0  0  0  0  0
  147.0558  134.0216  160.4698 H   0  0  0  0  0  0  0  0  0  0  0  0
  146.1708  135.0614  161.5949 H   0  0  0  0  0  0  0  0  0  0  0  0
  147.8448  134.6053  161.9435 H   0  0  0  0  0  0  0  0  0  0  0  0
  148.7116  137.7855  158.9196 H   0  0  0  0  0  0  0  0  0  0  0  0
  150.2838  137.0116  159.0188 H   0  0  0  0  0  0  0  0  0  0  0  0
  148.3305  135.5807  157.2816 H   0  0  0  0  0  0  0  0  0  0  0  0
  149.6182  137.9913  154.7589 H   0  0  0  0  0  0  0  0  0  0  0  0
  148.2368  139.6399  157.3652 H   0  0  0  0  0  0  0  0  0  0  0  0
  151.6167  136.8889  155.2560 H   0  0  0  0  0  0  0  0  0  0  0  0
  153.9459  138.9114  158.2660 H   0  0  0  0  0  0  0  0  0  0  0  0
  154.7265  137.4362  158.8533 H   0  0  0  0  0  0  0  0  0  0  0  0
  153.1819  137.9545  159.5440 H   0  0  0  0  0  0  0  0  0  0  0  0
  151.0624  135.4321  157.5470 H   0  0  0  0  0  0  0  0  0  0  0  0
  150.7617  132.9629  154.0427 H   0  0  0  0  0  0  0  0  0  0  0  0
  149.0258  132.8619  154.3755 H   0  0  0  0  0  0  0  0  0  0  0  0
  150.1288  131.6553  155.0524 H   0  0  0  0  0  0  0  0  0  0  0  0
  1  2  1  0  0  0  0
  1 29  1  0  0  0  0
  1 30  1  0  0  0  0
  1 31  1  0  0  0  0
  2  3  2  0  0  0  0
  2  4  1  0  0  0  0
  4  5  1  0  0  0  0
  5  6  1  0  0  0  0
  5 32  1  0  0  0  0
  5 33  1  0  0  0  0
  6 23  1  0  0  0  0
  6  7  1  0  0  0  0
  6 34  1  0  0  0  0
  7  8  1  0  0  0  0
  8  9  1  0  0  0  0
  8 18  1  0  0  0  0
  8 35  1  0  0  0  0
  9 16  1  0  0  0  0
  9 10  1  0  0  0  0
 10 11  2  0  0  0  0
 10 36  1  0  0  0  0
 11 12  1  0  0  0  0
 11 13  1  0  0  0  0
 13 14  2  0  0  0  0
 13 15  1  0  0  0  0
 15 28  1  0  0  0  0
 15 16  1  0  0  0  0
 16 17  2  0  0  0  0
 18 19  1  0  0  0  0
 18 23  1  0  0  0  0
 18 37  1  0  0  0  0
 19 20  1  0  0  0  0
 20 21  1  0  0  0  0
 20 22  2  0  0  0  0
 21 38  1  0  0  0  0
 21 39  1  0  0  0  0
 21 40  1  0  0  0  0
 23 24  1  0  0  0  0
 23 41  1  0  0  0  0
 24 25  1  0  0  0  0
 25 26  1  0  0  0  0
 25 27  2  0  0  0  0
 26 42  1  0  0  0  0
 26 43  1  0  0  0  0
 26 44  1  0  0  0  0
M  END
> <s_m_source_file>
AV-unprocessed.smi

> <i_m_source_file_index>
102

> <i_lp_mmshare_version>
43012

> <i_f3d_flags>
0

> <s_epik_input>
W0NIM11DKD1PKU9bQ0gyXVtDQEBIXTFPW0NASF0oW0NAQEhdKE9DKD1PKVtDSDNdKVtDQEhdMU9DKD1PKVtDSDNdKW4yW2NIXWMoRiljKD1PKVtuSF1jMj1P

> <s_epik_cmdline>
J2VwaWtfcHl0aG9uJywgJy1waCcsICc3LjAnLCAnLXRuJywgJzgnLCAnLW1hJywgJzIwMCcsICctbWV0YWxfYmluZGluZycsICctaW1hZScsICc8aW5maWxlLm1hZT4nLCAnLW9tYWUnLCAnPG91dGZpbGUubWFlPic=

> <r_lp_tautomer_probability>
0.999537

> <r_epik_Ionization_Penalty>
0.058267

> <r_epik_Ionization_Penalty_Charging>
0.058267

> <r_epik_Ionization_Penalty_Neutral>
6.57791e-16

> <r_epik_State_Penalty>
0.0503774

> <r_epik_Charging_Adjusted_Penalty>
0.108644

> <i_epik_Tot_Q>
0

> <i_epik_Tot_abs_Q>
0

> <r_epik_Metal_State_Penalty>
2.6644

> <b_epik_Metal_Only>
0

> <s_epik_Chemistry_Notes>
This compound has an ester and may undergo hydrolysis at high or low pH. This compound contains an acetal/aminal-like group ( X-CH(R)-Y where X, Y are N, S, or O) that may be acid/base labile, releasing an aldehyde.

> <s_lp_Force_Field>
OPLS_2005

> <r_lp_Energy>
14.5716

> <b_lp_Chiralities_Consistent>
1

> <s_lp_Variant>
AV-unprocessed.smi:102-10

> <Gold.Version>
5.8.1

> <Gold.Id.Protein>
6NUR|6NUR_protein|mol2

> <Gold.PLP.Fitness>
36.7940

> <Gold.PLP.PLP>
-26.5784

> <Gold.PLP.part.hbond>
-6.0000

> <Gold.PLP.part.metal>
0.0000

> <Gold.PLP.part.buried>
-2.8629

> <Gold.PLP.part.nonpolar>
-19.5522

> <Gold.PLP.part.repulsive>
1.7282

> <Gold.PLP.ligand.clash>
0.0000

> <Gold.PLP.ligand.torsion>
1.4093

> <Gold.PLP.Chemscore.Hbond>
4.3129

> <Gold.PLP.Chemscore.CHOScore>
0.0000

> <Gold.PLP.Chemscore.Metal>
0.0000

> <Gold.Chemscore.Hbonds>
donor molecule, donor type, donor heavy atom, donor atom, acceptor molecule, acceptor atom, score
      P1  H  6896  6907       L1    27  0.47
      P1  H  6934  6947       L1     3  1.00
      P1  H  7989  7998       L1    17  0.55
      P1  H 10752 10764       L1    22  1.00

> <Gold.PLP.Chemscore.Internal.Correction>
0.0956

> <Gold.Rescore>
     Score         DG    S(hbond)    S(metal)    S(lipo)     H(rot)  DE(clash)    DE(int)     intcor
      6.37     -12.17       3.81        0.00      36.95       4.05       1.09       4.71       ----

> <Gold.Chemscore.Fitness>
6.3652

> <Gold.Chemscore.DG>
-12.1682

> <Gold.Chemscore.ZeroCoef>
-5.4800

> <Gold.Chemscore.Hbond>
3.8138

> <Gold.Chemscore.Metal>
0.0000

> <Gold.Chemscore.Lipo>
36.9523

> <Gold.Chemscore.Internal_Hbond>
0.0000

> <Gold.Chemscore.DEClash>
1.0947

> <Gold.Chemscore.DEInternal>
4.7083

> <Gold.Chemscore.Rot>
4.0520

> <Gold.Chemscore.Internal.Correction>
   9.000000E+99

> <Gold.Chemscore.Hbonds>
donor molecule, donor type, donor heavy atom, donor atom, acceptor molecule, acceptor atom, score
      P1  H  6896  6907       L1    27  0.46
      P1  H  6934  6947       L1     3  1.00
      P1  H  7989  7998       L1    17  0.04
      P1  H 10752 10764       L1    22  0.99

> <Gold.Chemscore.Hbond.Weighted>
-12.7380

> <Gold.Chemscore.Metal.Weighted>
-0.0000

> <Gold.Chemscore.Lipo.Weighted>
-4.3234

> <Gold.Chemscore.Internal_Hbond.Weighted>
0.0000

> <Gold.Chemscore.DEClash.Weighted>
1.0947

> <Gold.Chemscore.DEInternal.Weighted>
4.7083

> <Gold.Chemscore.Rot.Weighted>
10.3732

> <Gold.Chemscore.Internal.Correction.Weighted>
   9.000000E+99

> <Gold.Protein.RotatedTorsions>
[ 6907 6896 6895 6894 ] final -148.76 input  -60.11 | X-H torsion
[ 7974 7965 7964 7962 ] final  -94.91 input  175.53 | X-H torsion
[ 8008 7997 7996 7995 ] final  -61.04 input   59.86 | X-H torsion
[ 10167 10162 10161 10158 ] final  107.77 input  -65.29 | X-H torsion
[ 10718 10713 10712 10709 ] final -133.21 input   66.30 | X-H torsion
[ 10763 10752 10751 10750 ] final    5.49 input  -60.55 | X-H torsion
[ 11005 11000 10999 10996 ] final  -19.86 input  -57.11 | X-H torsion

> <Gold.Protein.ActiveResidues>
 VAL166  LYS551  ARG553  GLY616  TRP617  ASP618  TYR619  PRO620  LYS621  CYS622 
 ASP623  PHE694  ASN695  SER759  ASP760  ASP761  ALA762  ILE779  LEU786  VAL792 
 PHE793  MET794  SER795  GLU796  ALA797  LYS798  CYS799  TRP800  GLU811  SER814 

> <Gold.Protein.RotatedAtoms>
  151.1744  133.4764  159.2593 H   0  0  0  0  0  0  0  0  0  0  0  0  # atno 6907 bound_to 6896
  151.1323  135.0136  159.8598 H   0  0  0  0  0  0  0  0  0  0  0  0  # atno 6908 bound_to 6896
  152.5460  134.1645  159.8624 H   0  0  0  0  0  0  0  0  0  0  0  0  # atno 6909 bound_to 6896
  145.3671  140.9500  143.2468 H   0  0  0  0  0  0  0  0  0  0  0  0  # atno 7974 bound_to 7965
  154.4428  140.1026  156.6369 H   0  0  0  0  0  0  0  0  0  0  0  0  # atno 8008 bound_to 7997
  155.5544  140.3486  155.4457 H   0  0  0  0  0  0  0  0  0  0  0  0  # atno 8009 bound_to 7997
  156.0506  140.1303  157.0044 H   0  0  0  0  0  0  0  0  0  0  0  0  # atno 8010 bound_to 7997
  139.6900  144.7109  151.1365 H   0  0  0  0  0  0  0  0  0  0  0  0  # atno 10167 bound_to 10162
  156.2425  130.7104  151.0971 H   0  0  0  0  0  0  0  0  0  0  0  0  # atno 10718 bound_to 10713
  153.2588  135.6921  153.7600 H   0  0  0  0  0  0  0  0  0  0  0  0  # atno 10763 bound_to 10752
  153.6667  135.3351  155.3143 H   0  0  0  0  0  0  0  0  0  0  0  0  # atno 10764 bound_to 10752
  154.8422  135.4490  154.1571 H   0  0  0  0  0  0  0  0  0  0  0  0  # atno 10765 bound_to 10752
  140.8408  133.7928  155.9858 H   0  0  0  0  0  0  0  0  0  0  0  0  # atno 11005 bound_to 11000
  144.8604  139.5186  143.6815 LP  0  0  0  0  0  0  0  0  0  0  0  0  # atno 17320 bound_to 7965
  146.2902  139.7117  142.9166 LP  0  0  0  0  0  0  0  0  0  0  0  0  # atno 17321 bound_to 7965
  140.7679  143.5573  150.9137 LP  0  0  0  0  0  0  0  0  0  0  0  0  # atno 17342 bound_to 10162
  139.9250  143.6561  152.3089 LP  0  0  0  0  0  0  0  0  0  0  0  0  # atno 17343 bound_to 10162
  157.7181  131.0698  150.6246 LP  0  0  0  0  0  0  0  0  0  0  0  0  # atno 17370 bound_to 10713
  156.6320  130.4434  149.5783 LP  0  0  0  0  0  0  0  0  0  0  0  0  # atno 17371 bound_to 10713
  140.8898  134.2510  157.5100 LP  0  0  0  0  0  0  0  0  0  0  0  0  # atno 17394 bound_to 11000
  139.8703  134.9656  156.4533 LP  0  0  0  0  0  0  0  0  0  0  0  0  # atno 17395 bound_to 11000

$$$$
