AV-unprocessed.smi:1005|AV-procd|sdf|4389|dock5
  -GOLD-   22720 2313D 1   1.00000     0.00000
 Structure written by MMmdl.
 55 57  0  0  0  0  0  0  0  0  1 V2000
  153.2809  142.7130  161.7096 C   0  0  0  0  0  0  0  0  0  0  0  0
  152.6326  142.4962  160.3538 C   0  0  0  0  0  0  0  0  0  0  0  0
  152.8660  141.2835  159.6657 C   0  0  0  0  0  0  0  0  0  0  0  0
  152.2869  141.0460  158.3996 C   0  0  0  0  0  0  0  0  0  0  0  0
  152.3783  139.9504  157.5575 N   0  0  0  0  0  0  0  0  0  0  0  0
  151.6271  140.3377  156.5300 C   0  0  0  0  0  0  0  0  0  0  0  0
  151.0593  141.5560  156.6085 N   0  0  0  0  0  0  0  0  0  0  0  0
  150.2170  142.2064  155.6231 C   0  0  0  0  0  0  0  0  0  0  0  0
  148.9016  141.4347  155.3954 C   0  0  1  0  0  0  0  0  0  0  0  0
  148.0287  142.2272  154.6161 O   0  0  0  0  0  0  0  0  0  0  0  0
  149.1058  140.0880  154.6730 C   0  0  0  0  0  0  0  0  0  0  0  0
  148.0782  139.0779  154.9290 N   0  0  0  0  0  0  0  0  0  0  0  0
  148.6460  137.8985  155.5707 C   0  0  0  0  0  0  0  0  0  0  0  0
  147.5756  136.8322  155.8570 C   0  0  0  0  0  0  0  0  0  0  0  0
  146.9023  136.4980  154.6475 O   0  0  0  0  0  0  0  0  0  0  0  0
  146.2769  137.6198  154.0273 C   0  0  2  0  0  0  0  0  0  0  0  0
  145.5454  137.1692  152.7483 C   0  0  0  0  0  0  0  0  0  0  0  0
  144.3915  136.2921  152.9546 N   0  0  0  0  0  0  0  0  0  0  0  0
  144.0940  135.4700  151.7879 C   0  0  0  0  0  0  0  0  0  0  0  0
  143.2192  137.0667  153.3367 C   0  0  0  0  0  0  0  0  0  0  0  0
  147.3675  138.6644  153.7212 C   0  0  0  0  0  0  0  0  0  0  0  0
  151.4635  142.0640  157.8372 C   0  0  0  0  0  0  0  0  0  0  0  0
  151.2181  143.2713  158.5141 C   0  0  0  0  0  0  0  0  0  0  0  0
  151.8032  143.4922  159.7779 C   0  0  0  0  0  0  0  0  0  0  0  0
  151.5319  144.8007  160.4990 C   0  0  0  0  0  0  0  0  0  0  0  0
  153.8933  141.8589  162.0001 H   0  0  0  0  0  0  0  0  0  0  0  0
  152.5207  142.8571  162.4775 H   0  0  0  0  0  0  0  0  0  0  0  0
  153.9241  143.5930  161.6889 H   0  0  0  0  0  0  0  0  0  0  0  0
  153.4960  140.5239  160.1046 H   0  0  0  0  0  0  0  0  0  0  0  0
  151.4865  139.7026  155.6676 H   0  0  0  0  0  0  0  0  0  0  0  0
  150.0203  143.2322  155.9382 H   0  0  0  0  0  0  0  0  0  0  0  0
  150.7882  142.2706  154.6964 H   0  0  0  0  0  0  0  0  0  0  0  0
  148.4005  141.2703  156.3491 H   0  0  0  0  0  0  0  0  0  0  0  0
  148.2155  143.1372  154.7890 H   0  0  0  0  0  0  0  0  0  0  0  0
  149.1756  140.2649  153.5985 H   0  0  0  0  0  0  0  0  0  0  0  0
  150.0751  139.6875  154.9736 H   0  0  0  0  0  0  0  0  0  0  0  0
  149.4206  137.4684  154.9339 H   0  0  0  0  0  0  0  0  0  0  0  0
  149.1317  138.1814  156.5052 H   0  0  0  0  0  0  0  0  0  0  0  0
  148.0349  135.9339  156.2698 H   0  0  0  0  0  0  0  0  0  0  0  0
  146.8565  137.1932  156.5939 H   0  0  0  0  0  0  0  0  0  0  0  0
  145.5508  138.0584  154.7147 H   0  0  0  0  0  0  0  0  0  0  0  0
  145.1912  138.0707  152.2462 H   0  0  0  0  0  0  0  0  0  0  0  0
  146.2540  136.7072  152.0591 H   0  0  0  0  0  0  0  0  0  0  0  0
  143.1977  134.8715  151.9548 H   0  0  0  0  0  0  0  0  0  0  0  0
  144.9055  134.7741  151.5784 H   0  0  0  0  0  0  0  0  0  0  0  0
  143.9294  136.0854  150.9025 H   0  0  0  0  0  0  0  0  0  0  0  0
  142.3716  136.4115  153.5406 H   0  0  0  0  0  0  0  0  0  0  0  0
  142.9303  137.7605  152.5460 H   0  0  0  0  0  0  0  0  0  0  0  0
  143.4129  137.6432  154.2419 H   0  0  0  0  0  0  0  0  0  0  0  0
  146.8926  139.5235  153.2505 H   0  0  0  0  0  0  0  0  0  0  0  0
  148.0732  138.2587  152.9944 H   0  0  0  0  0  0  0  0  0  0  0  0
  150.5854  144.0210  158.0629 H   0  0  0  0  0  0  0  0  0  0  0  0
  150.8756  145.4477  159.9160 H   0  0  0  0  0  0  0  0  0  0  0  0
  152.4625  145.3405  160.6754 H   0  0  0  0  0  0  0  0  0  0  0  0
  151.0505  144.6149  161.4594 H   0  0  0  0  0  0  0  0  0  0  0  0
  1  2  1  0  0  0  0
  1 26  1  0  0  0  0
  1 27  1  0  0  0  0
  1 28  1  0  0  0  0
  2 24  1  0  0  0  0
  2  3  2  0  0  0  0
  3  4  1  0  0  0  0
  3 29  1  0  0  0  0
  4 22  2  0  0  0  0
  4  5  1  0  0  0  0
  5  6  2  0  0  0  0
  6  7  1  0  0  0  0
  6 30  1  0  0  0  0
  7  8  1  0  0  0  0
  7 22  1  0  0  0  0
  8  9  1  0  0  0  0
  8 31  1  0  0  0  0
  8 32  1  0  0  0  0
  9 10  1  0  0  0  0
  9 11  1  0  0  0  0
  9 33  1  0  0  0  0
 10 34  1  0  0  0  0
 11 12  1  0  0  0  0
 11 35  1  0  0  0  0
 11 36  1  0  0  0  0
 12 21  1  0  0  0  0
 12 13  1  0  0  0  0
 13 14  1  0  0  0  0
 13 37  1  0  0  0  0
 13 38  1  0  0  0  0
 14 15  1  0  0  0  0
 14 39  1  0  0  0  0
 14 40  1  0  0  0  0
 15 16  1  0  0  0  0
 16 17  1  0  0  0  0
 16 21  1  0  0  0  0
 16 41  1  0  0  0  0
 17 18  1  0  0  0  0
 17 42  1  0  0  0  0
 17 43  1  0  0  0  0
 18 19  1  0  0  0  0
 18 20  1  0  0  0  0
 19 44  1  0  0  0  0
 19 45  1  0  0  0  0
 19 46  1  0  0  0  0
 20 47  1  0  0  0  0
 20 48  1  0  0  0  0
 20 49  1  0  0  0  0
 21 50  1  0  0  0  0
 21 51  1  0  0  0  0
 22 23  1  0  0  0  0
 23 24  2  0  0  0  0
 23 52  1  0  0  0  0
 24 25  1  0  0  0  0
 25 53  1  0  0  0  0
 25 54  1  0  0  0  0
 25 55  1  0  0  0  0
M  END
> <s_m_source_file>
AV-unprocessed.smi

> <i_m_source_file_index>
1005

> <i_lp_mmshare_version>
43012

> <i_f3d_flags>
0

> <s_epik_input>
W0NIM11jKFtjSF0xKWMoW0NIM10pW2NIXWMoYzEyKW4oW2NIXW4yKVtDSDJdW0NASF0oW09IXSlbQ0gyXU4zW0NIMl1bQ0gyXU9bQ0BIXShbQ0gyXTMpW0NIMl1OKFtDSDNdKVtDSDNd

> <s_epik_cmdline>
J2VwaWtfcHl0aG9uJywgJy1waCcsICc3LjAnLCAnLXRuJywgJzgnLCAnLW1hJywgJzIwMCcsICctbWV0YWxfYmluZGluZycsICctaW1hZScsICc8aW5maWxlLm1hZT4nLCAnLW9tYWUnLCAnPG91dGZpbGUubWFlPic=

> <r_epik_Ionization_Penalty>
2.78613

> <r_epik_Ionization_Penalty_Charging>
0

> <r_epik_Ionization_Penalty_Neutral>
2.78613

> <r_epik_State_Penalty>
2.57336

> <r_epik_Charging_Adjusted_Penalty>
2.57336

> <i_epik_Tot_Q>
0

> <i_epik_Tot_abs_Q>
0

> <r_epik_Metal_State_Penalty>
2.49087

> <b_epik_Metal_Only>
0

> <s_lp_Force_Field>
OPLS_2005

> <r_lp_Energy>
32.9837

> <b_lp_Chiralities_Consistent>
1

> <s_lp_Variant>
AV-unprocessed.smi:1005-28

> <Gold.Version>
5.8.1

> <Gold.Id.Protein>
6NUR|6NUR_protein|mol2

> <Gold.PLP.Fitness>
46.9702

> <Gold.PLP.PLP>
-43.7259

> <Gold.PLP.part.hbond>
-2.3107

> <Gold.PLP.part.metal>
0.0000

> <Gold.PLP.part.buried>
-4.4032

> <Gold.PLP.part.nonpolar>
-37.2764

> <Gold.PLP.part.repulsive>
0.5245

> <Gold.PLP.ligand.clash>
0.0000

> <Gold.PLP.ligand.torsion>
1.3332

> <Gold.PLP.Chemscore.Hbond>
1.9417

> <Gold.PLP.Chemscore.CHOScore>
0.0000

> <Gold.PLP.Chemscore.Metal>
0.0000

> <Gold.Chemscore.Hbonds>
donor molecule, donor type, donor heavy atom, donor atom, acceptor molecule, acceptor atom, score
      L1  H    10    34       P1  8028  1.00
      P1  H  7997  8009       L1     5  0.60

> <Gold.PLP.Chemscore.Internal.Correction>
0.0856

> <Gold.Rescore>
     Score         DG    S(hbond)    S(metal)    S(lipo)     H(rot)  DE(clash)    DE(int)     intcor
     16.32     -18.34       1.01        0.00     131.06       2.29       0.65       1.37       ----

> <Gold.Chemscore.Fitness>
16.3232

> <Gold.Chemscore.DG>
-18.3364

> <Gold.Chemscore.ZeroCoef>
-5.4800

> <Gold.Chemscore.Hbond>
1.0129

> <Gold.Chemscore.Metal>
0.0000

> <Gold.Chemscore.Lipo>
131.0626

> <Gold.Chemscore.Internal_Hbond>
0.0000

> <Gold.Chemscore.DEClash>
0.6457

> <Gold.Chemscore.DEInternal>
1.3675

> <Gold.Chemscore.Rot>
2.2895

> <Gold.Chemscore.Internal.Correction>
   9.000000E+99

> <Gold.Chemscore.Hbonds>
donor molecule, donor type, donor heavy atom, donor atom, acceptor molecule, acceptor atom, score
      L1  H    10    34       P1  8028  0.98
      P1  H  7997  8009       L1     5  0.09

> <Gold.Chemscore.Hbond.Weighted>
-3.3832

> <Gold.Chemscore.Metal.Weighted>
-0.0000

> <Gold.Chemscore.Lipo.Weighted>
-15.3343

> <Gold.Chemscore.Internal_Hbond.Weighted>
0.0000

> <Gold.Chemscore.DEClash.Weighted>
0.6457

> <Gold.Chemscore.DEInternal.Weighted>
1.3675

> <Gold.Chemscore.Rot.Weighted>
5.8612

> <Gold.Chemscore.Internal.Correction.Weighted>
   9.000000E+99

> <Gold.Protein.RotatedTorsions>
[ 6907 6896 6895 6894 ] final   -2.43 input  -60.11 | X-H torsion
[ 7974 7965 7964 7962 ] final   95.19 input  175.53 | X-H torsion
[ 8008 7997 7996 7995 ] final  175.83 input   59.86 | X-H torsion
[ 10167 10162 10161 10158 ] final    6.06 input  -65.29 | X-H torsion
[ 10718 10713 10712 10709 ] final   93.03 input   66.30 | X-H torsion
[ 10763 10752 10751 10750 ] final   74.92 input  -60.55 | X-H torsion
[ 11005 11000 10999 10996 ] final   61.49 input  -57.11 | X-H torsion

> <Gold.Protein.ActiveResidues>
 VAL166  LYS551  ARG553  GLY616  TRP617  ASP618  TYR619  PRO620  LYS621  CYS622 
 ASP623  PHE694  ASN695  SER759  ASP760  ASP761  ALA762  ILE779  LEU786  VAL792 
 PHE793  MET794  SER795  GLU796  ALA797  LYS798  CYS799  TRP800  GLU811  SER814 

> <Gold.Protein.RotatedAtoms>
  151.5300  135.1068  159.9899 H   0  0  0  0  0  0  0  0  0  0  0  0  # atno 6907 bound_to 6896
  152.4583  133.7764  159.6837 H   0  0  0  0  0  0  0  0  0  0  0  0  # atno 6908 bound_to 6896
  150.8535  133.7686  159.3042 H   0  0  0  0  0  0  0  0  0  0  0  0  # atno 6909 bound_to 6896
  145.4555  139.2290  143.3016 H   0  0  0  0  0  0  0  0  0  0  0  0  # atno 7974 bound_to 7965
  156.0829  140.1399  156.9690 H   0  0  0  0  0  0  0  0  0  0  0  0  # atno 8008 bound_to 7997
  154.4595  140.0948  156.6902 H   0  0  0  0  0  0  0  0  0  0  0  0  # atno 8009 bound_to 7997
  155.5047  140.3452  155.4379 H   0  0  0  0  0  0  0  0  0  0  0  0  # atno 8010 bound_to 7997
  140.6448  143.7688  150.7482 H   0  0  0  0  0  0  0  0  0  0  0  0  # atno 10167 bound_to 10162
  157.6956  131.0464  150.3972 H   0  0  0  0  0  0  0  0  0  0  0  0  # atno 10718 bound_to 10713
  153.0619  135.5008  154.8114 H   0  0  0  0  0  0  0  0  0  0  0  0  # atno 10763 bound_to 10752
  154.6896  135.2982  154.9501 H   0  0  0  0  0  0  0  0  0  0  0  0  # atno 10764 bound_to 10752
  154.0260  135.6736  153.4829 H   0  0  0  0  0  0  0  0  0  0  0  0  # atno 10765 bound_to 10752
  140.0157  134.6228  155.9713 H   0  0  0  0  0  0  0  0  0  0  0  0  # atno 11005 bound_to 11000
  146.2481  140.5318  142.8905 LP  0  0  0  0  0  0  0  0  0  0  0  0  # atno 17320 bound_to 7965
  144.8035  140.6257  143.6462 LP  0  0  0  0  0  0  0  0  0  0  0  0  # atno 17321 bound_to 7965
  140.1327  143.4512  152.2244 LP  0  0  0  0  0  0  0  0  0  0  0  0  # atno 17342 bound_to 10162
  139.5658  144.7434  151.4026 LP  0  0  0  0  0  0  0  0  0  0  0  0  # atno 17343 bound_to 10162
  156.4370  130.3983  149.6722 LP  0  0  0  0  0  0  0  0  0  0  0  0  # atno 17370 bound_to 10713
  156.3920  130.7632  151.2633 LP  0  0  0  0  0  0  0  0  0  0  0  0  # atno 17371 bound_to 10713
  141.1741  133.6539  156.4762 LP  0  0  0  0  0  0  0  0  0  0  0  0  # atno 17394 bound_to 11000
  140.4475  134.6959  157.5023 LP  0  0  0  0  0  0  0  0  0  0  0  0  # atno 17395 bound_to 11000

$$$$
