AV-unprocessed.smi:2067|AV-procd|sdf|8426|dock4
  -GOLD-   2272011123D 1   1.00000     0.00000
 Structure written by MMmdl.
 47 48  0  0  0  0  0  0  0  0  1 V2000
  147.1153  132.4510  153.0225 C   0  0  0  0  0  0  0  0  0  0  0  0
  146.3262  132.8491  151.7656 C   0  0  1  0  0  0  0  0  0  0  0  0
  145.8195  131.5961  151.0241 C   0  0  0  0  0  0  0  0  0  0  0  0
  145.0428  131.9644  149.7518 C   0  0  0  0  0  0  0  0  0  0  0  0
  143.8771  132.9091  150.0736 C   0  0  0  0  0  0  0  0  0  0  0  0
  144.3688  134.1647  150.8094 C   0  0  0  0  0  0  0  0  0  0  0  0
  145.1532  133.8034  152.0914 C   0  0  2  0  0  0  0  0  0  0  0  0
  145.6999  134.9666  152.7034 O   0  0  0  0  0  0  0  0  0  0  0  0
  145.7788  134.9268  154.1216 C   0  0  0  0  0  0  0  0  0  0  0  0
  147.2255  135.2203  154.5322 C   0  0  0  0  0  0  0  0  0  0  0  0
  147.5451  136.6288  154.3544 N   0  0  0  0  0  0  0  0  0  0  0  0
  148.7997  137.1994  154.5383 C   0  0  0  0  0  0  0  0  0  0  0  0
  149.8752  136.4491  154.9072 C   0  0  0  0  0  0  0  0  0  0  0  0
  149.8183  135.0320  155.0822 C   0  0  0  0  0  0  0  0  0  0  0  0
  149.7777  133.8803  155.1992 N   0  0  0  0  0  0  0  0  0  0  0  0
  151.1986  137.0354  155.1142 C   0  0  0  0  0  0  0  0  0  0  0  0
  152.1850  136.3792  155.4551 O   0  0  0  0  0  0  0  0  0  0  0  0
  151.2645  138.4282  154.8905 N   0  0  0  0  0  0  0  0  0  0  0  0
  152.5258  139.1177  155.0756 C   0  0  0  0  0  0  0  0  0  0  0  0
  150.1717  139.2219  154.4929 C   0  0  0  0  0  0  0  0  0  0  0  0
  150.2993  140.4369  154.3102 O   0  0  0  0  0  0  0  0  0  0  0  0
  148.9247  138.5745  154.3222 N   0  0  0  0  0  0  0  0  0  0  0  0
  147.8373  139.4551  153.9482 C   0  0  0  0  0  0  0  0  0  0  0  0
  146.4764  131.9538  153.7526 H   0  0  0  0  0  0  0  0  0  0  0  0
  147.5575  133.3237  153.5023 H   0  0  0  0  0  0  0  0  0  0  0  0
  147.9314  131.7714  152.7764 H   0  0  0  0  0  0  0  0  0  0  0  0
  147.0138  133.3743  151.1007 H   0  0  0  0  0  0  0  0  0  0  0  0
  146.6596  130.9517  150.7619 H   0  0  0  0  0  0  0  0  0  0  0  0
  145.1775  131.0115  151.6846 H   0  0  0  0  0  0  0  0  0  0  0  0
  145.7148  132.4406  149.0365 H   0  0  0  0  0  0  0  0  0  0  0  0
  144.6677  131.0610  149.2701 H   0  0  0  0  0  0  0  0  0  0  0  0
  143.3642  133.1936  149.1543 H   0  0  0  0  0  0  0  0  0  0  0  0
  143.1428  132.3884  150.6894 H   0  0  0  0  0  0  0  0  0  0  0  0
  145.0048  134.7506  150.1445 H   0  0  0  0  0  0  0  0  0  0  0  0
  143.5084  134.7902  151.0465 H   0  0  0  0  0  0  0  0  0  0  0  0
  144.4861  133.3077  152.7994 H   0  0  0  0  0  0  0  0  0  0  0  0
  145.1203  135.6892  154.5382 H   0  0  0  0  0  0  0  0  0  0  0  0
  145.4591  133.9618  154.5195 H   0  0  0  0  0  0  0  0  0  0  0  0
  147.4003  134.8809  155.5511 H   0  0  0  0  0  0  0  0  0  0  0  0
  147.9033  134.6528  153.8944 H   0  0  0  0  0  0  0  0  0  0  0  0
  146.7829  137.2223  154.6484 H   0  0  0  0  0  0  0  0  0  0  0  0
  152.3635  139.8962  155.8233 H   0  0  0  0  0  0  0  0  0  0  0  0
  152.8039  139.5446  154.1103 H   0  0  0  0  0  0  0  0  0  0  0  0
  153.3065  138.4409  155.4202 H   0  0  0  0  0  0  0  0  0  0  0  0
  147.7159  140.1837  154.7520 H   0  0  0  0  0  0  0  0  0  0  0  0
  146.9143  138.8946  153.8194 H   0  0  0  0  0  0  0  0  0  0  0  0
  148.1100  139.9330  153.0056 H   0  0  0  0  0  0  0  0  0  0  0  0
  1  2  1  0  0  0  0
  1 24  1  0  0  0  0
  1 25  1  0  0  0  0
  1 26  1  0  0  0  0
  2  7  1  0  0  0  0
  2  3  1  0  0  0  0
  2 27  1  0  0  0  0
  3  4  1  0  0  0  0
  3 28  1  0  0  0  0
  3 29  1  0  0  0  0
  4  5  1  0  0  0  0
  4 30  1  0  0  0  0
  4 31  1  0  0  0  0
  5  6  1  0  0  0  0
  5 32  1  0  0  0  0
  5 33  1  0  0  0  0
  6  7  1  0  0  0  0
  6 34  1  0  0  0  0
  6 35  1  0  0  0  0
  7  8  1  0  0  0  0
  7 36  1  0  0  0  0
  8  9  1  0  0  0  0
  9 10  1  0  0  0  0
  9 37  1  0  0  0  0
  9 38  1  0  0  0  0
 10 11  1  0  0  0  0
 10 39  1  0  0  0  0
 10 40  1  0  0  0  0
 11 12  1  0  0  0  0
 11 41  1  0  0  0  0
 12 22  1  0  0  0  0
 12 13  2  0  0  0  0
 13 14  1  0  0  0  0
 13 16  1  0  0  0  0
 14 15  3  0  0  0  0
 16 17  2  0  0  0  0
 16 18  1  0  0  0  0
 18 19  1  0  0  0  0
 18 20  1  0  0  0  0
 19 42  1  0  0  0  0
 19 43  1  0  0  0  0
 19 44  1  0  0  0  0
 20 21  2  0  0  0  0
 20 22  1  0  0  0  0
 22 23  1  0  0  0  0
 23 45  1  0  0  0  0
 23 46  1  0  0  0  0
 23 47  1  0  0  0  0
M  END
> <s_m_source_file>
AV-unprocessed.smi

> <i_m_source_file_index>
2067

> <i_lp_mmshare_version>
43012

> <i_f3d_flags>
0

> <s_epik_input>
W0NIM11bQ0BASF0xW0NIMl1bQ0gyXVtDSDJdW0NIMl1bQ0BIXTFPW0NIMl1bQ0gyXVtOSF1jMmMoQyNOKWMoPU8pbihbQ0gzXSljKD1PKW4yW0NIM10=

> <s_epik_cmdline>
J2VwaWtfcHl0aG9uJywgJy1waCcsICc3LjAnLCAnLXRuJywgJzgnLCAnLW1hJywgJzIwMCcsICctbWV0YWxfYmluZGluZycsICctaW1hZScsICc8aW5maWxlLm1hZT4nLCAnLW9tYWUnLCAnPG91dGZpbGUubWFlPic=

> <r_epik_Ionization_Penalty>
0.00056529

> <r_epik_Ionization_Penalty_Charging>
3.94678e-10

> <r_epik_Ionization_Penalty_Neutral>
0.000565289

> <r_epik_State_Penalty>
0.000354611

> <r_epik_Charging_Adjusted_Penalty>
0.000354611

> <i_epik_Tot_Q>
0

> <i_epik_Tot_abs_Q>
0

> <r_epik_Metal_State_Penalty>
-0

> <b_epik_Metal_Only>
0

> <s_lp_Force_Field>
OPLS_2005

> <r_lp_Energy>
31.2775

> <b_lp_Chiralities_Consistent>
1

> <s_lp_Variant>
AV-unprocessed.smi:2067-4

> <Gold.Version>
5.8.1

> <Gold.Id.Protein>
6NUR|6NUR_protein|mol2

> <Gold.PLP.Fitness>
40.6360

> <Gold.PLP.PLP>
-36.4706

> <Gold.PLP.part.hbond>
-2.8024

> <Gold.PLP.part.metal>
0.0000

> <Gold.PLP.part.buried>
-2.1660

> <Gold.PLP.part.nonpolar>
-32.0043

> <Gold.PLP.part.repulsive>
0.3151

> <Gold.PLP.ligand.clash>
10.7747

> <Gold.PLP.ligand.torsion>
0.8409

> <Gold.PLP.Chemscore.Hbond>
1.9440

> <Gold.PLP.Chemscore.CHOScore>
0.0000

> <Gold.PLP.Chemscore.Metal>
0.0000

> <Gold.Chemscore.Hbonds>
donor molecule, donor type, donor heavy atom, donor atom, acceptor molecule, acceptor atom, score
      P1  H  7989  7998       L1    21  0.94
      P1  H 10752 10765       L1    17  0.60

> <Gold.PLP.Chemscore.Internal.Correction>
10.7898

> <Gold.Rescore>
     Score         DG    S(hbond)    S(metal)    S(lipo)     H(rot)  DE(clash)    DE(int)     intcor
     12.14     -16.24       1.92        0.00      75.51       1.76       0.28       3.82       ----

> <Gold.Chemscore.Fitness>
12.1370

> <Gold.Chemscore.DG>
-16.2367

> <Gold.Chemscore.ZeroCoef>
-5.4800

> <Gold.Chemscore.Hbond>
1.9232

> <Gold.Chemscore.Metal>
0.0000

> <Gold.Chemscore.Lipo>
75.5073

> <Gold.Chemscore.Internal_Hbond>
0.0000

> <Gold.Chemscore.DEClash>
0.2804

> <Gold.Chemscore.DEInternal>
3.8193

> <Gold.Chemscore.Rot>
1.7583

> <Gold.Chemscore.Internal.Correction>
   9.000000E+99

> <Gold.Chemscore.Hbonds>
donor molecule, donor type, donor heavy atom, donor atom, acceptor molecule, acceptor atom, score
      P1  H  7989  7998       L1    21  0.83
      P1  H 10752 10765       L1    17  0.57

> <Gold.Chemscore.Hbond.Weighted>
-6.4236

> <Gold.Chemscore.Metal.Weighted>
-0.0000

> <Gold.Chemscore.Lipo.Weighted>
-8.8344

> <Gold.Chemscore.Internal_Hbond.Weighted>
0.0000

> <Gold.Chemscore.DEClash.Weighted>
0.2804

> <Gold.Chemscore.DEInternal.Weighted>
3.8193

> <Gold.Chemscore.Rot.Weighted>
4.5012

> <Gold.Chemscore.Internal.Correction.Weighted>
   9.000000E+99

> <Gold.Protein.RotatedTorsions>
[ 6907 6896 6895 6894 ] final  -61.17 input  -60.11 | X-H torsion
[ 7974 7965 7964 7962 ] final  173.60 input  175.53 | X-H torsion
[ 8008 7997 7996 7995 ] final   -8.08 input   59.86 | X-H torsion
[ 10167 10162 10161 10158 ] final -178.57 input  -65.29 | X-H torsion
[ 10718 10713 10712 10709 ] final   75.96 input   66.30 | X-H torsion
[ 10763 10752 10751 10750 ] final -149.67 input  -60.55 | X-H torsion
[ 11005 11000 10999 10996 ] final  -30.53 input  -57.11 | X-H torsion

> <Gold.Protein.ActiveResidues>
 VAL166  LYS551  ARG553  GLY616  TRP617  ASP618  TYR619  PRO620  LYS621  CYS622 
 ASP623  PHE694  ASN695  SER759  ASP760  ASP761  ALA762  ILE779  LEU786  VAL792 
 PHE793  MET794  SER795  GLU796  ALA797  LYS798  CYS799  TRP800  GLU811  SER814 

> <Gold.Protein.RotatedAtoms>
  150.7804  134.6740  159.6406 H   0  0  0  0  0  0  0  0  0  0  0  0  # atno 6907 bound_to 6896
  152.3886  134.6474  160.0125 H   0  0  0  0  0  0  0  0  0  0  0  0  # atno 6908 bound_to 6896
  151.6782  133.3276  159.3249 H   0  0  0  0  0  0  0  0  0  0  0  0  # atno 6909 bound_to 6896
  144.7240  139.9671  143.6436 H   0  0  0  0  0  0  0  0  0  0  0  0  # atno 7974 bound_to 7965
  154.5776  140.2390  155.8101 H   0  0  0  0  0  0  0  0  0  0  0  0  # atno 8008 bound_to 7997
  156.2155  140.3013  155.9785 H   0  0  0  0  0  0  0  0  0  0  0  0  # atno 8009 bound_to 7997
  155.2599  140.0414  157.2987 H   0  0  0  0  0  0  0  0  0  0  0  0  # atno 8010 bound_to 7997
  139.5426  144.2322  152.0925 H   0  0  0  0  0  0  0  0  0  0  0  0  # atno 10167 bound_to 10162
  157.6655  130.9751  150.1428 H   0  0  0  0  0  0  0  0  0  0  0  0  # atno 10718 bound_to 10713
  154.8163  135.3303  154.7165 H   0  0  0  0  0  0  0  0  0  0  0  0  # atno 10763 bound_to 10752
  153.7805  135.6919  153.4894 H   0  0  0  0  0  0  0  0  0  0  0  0  # atno 10764 bound_to 10752
  153.1983  135.4525  155.0183 H   0  0  0  0  0  0  0  0  0  0  0  0  # atno 10765 bound_to 10752
  140.9391  133.7290  156.1049 H   0  0  0  0  0  0  0  0  0  0  0  0  # atno 11005 bound_to 11000
  146.0592  139.3586  143.0592 LP  0  0  0  0  0  0  0  0  0  0  0  0  # atno 17320 bound_to 7965
  145.8115  140.9723  143.0946 LP  0  0  0  0  0  0  0  0  0  0  0  0  # atno 17321 bound_to 7965
  140.1803  144.4851  150.6532 LP  0  0  0  0  0  0  0  0  0  0  0  0  # atno 17342 bound_to 10162
  140.6662  143.2269  151.5737 LP  0  0  0  0  0  0  0  0  0  0  0  0  # atno 17343 bound_to 10162
  156.2247  130.3677  149.8515 LP  0  0  0  0  0  0  0  0  0  0  0  0  # atno 17370 bound_to 10713
  156.6358  130.8684  151.3504 LP  0  0  0  0  0  0  0  0  0  0  0  0  # atno 17371 bound_to 10713
  140.7759  134.3780  157.5498 LP  0  0  0  0  0  0  0  0  0  0  0  0  # atno 17394 bound_to 11000
  139.8815  134.9051  156.2892 LP  0  0  0  0  0  0  0  0  0  0  0  0  # atno 17395 bound_to 11000

$$$$
