AV-unprocessed.smi:234|AV-procd|sdf|1791|dock2
  -GOLD-   2262020353D 1   1.00000     0.00000
 Structure written by MMmdl.
 59 62  0  0  0  0  0  0  0  0  1 V2000
  147.6660  127.5724  152.2397 C   0  0  0  0  0  0  0  0  0  0  0  0
  146.5680  128.2647  153.0579 C   0  0  0  0  0  0  0  0  0  0  0  0
  145.8341  129.2064  152.2881 O   0  0  0  0  0  0  0  0  0  0  0  0
  146.4759  130.4627  152.1124 C   0  0  2  0  0  0  0  0  0  0  0  0
  146.1861  131.4146  153.2727 C   0  0  0  0  0  0  0  0  0  0  0  0
  146.1391  132.5191  152.2101 C   0  0  2  0  0  0  0  0  0  0  0  0
  145.1388  133.5596  152.4608 N   0  0  0  0  0  0  0  0  0  0  0  0
  144.4829  134.1383  151.2950 C   0  0  0  0  0  0  0  0  0  0  0  0
  145.4740  134.5194  153.3542 C   0  0  0  0  0  0  0  0  0  0  0  0
  145.7405  134.1144  154.6211 N   0  0  0  0  0  0  0  0  0  0  0  0
  146.0737  135.0099  155.5551 C   0  0  0  0  0  0  0  0  0  0  0  0
  146.1888  136.3344  155.4389 N   0  0  0  0  0  0  0  0  0  0  0  0
  145.9067  136.7472  154.1698 C   0  0  0  0  0  0  0  0  0  0  0  0
  145.5443  135.9147  153.0732 C   0  0  0  0  0  0  0  0  0  0  0  0
  145.3268  136.6940  151.9424 N   0  0  0  0  0  0  0  0  0  0  0  0
  145.5568  137.9135  152.3447 C   0  0  0  0  0  0  0  0  0  0  0  0
  145.9014  138.0383  153.6713 N   0  0  0  0  0  0  0  0  0  0  0  0
  146.1974  139.2719  154.3826 C   0  0  0  0  0  0  0  0  0  0  0  0
  147.6053  139.8357  154.0761 C   0  0  2  0  0  0  0  0  0  0  0  0
  147.7564  139.9388  152.6694 O   0  0  0  0  0  0  0  0  0  0  0  0
  148.7457  138.9878  154.6203 C   0  0  0  0  0  0  0  0  0  0  0  0
  149.8809  139.9970  154.7383 C   0  0  0  0  0  0  0  0  0  0  0  0
  149.2495  141.2070  155.1355 O   0  0  0  0  0  0  0  0  0  0  0  0
  147.8735  141.1962  154.7574 C   0  0  1  0  0  0  0  0  0  0  0  0
  147.5183  142.4533  153.9472 C   0  0  0  0  0  0  0  0  0  0  0  0
  145.7172  131.4399  151.1751 C   0  0  0  0  0  0  0  0  0  0  0  0
  146.3014  131.6024  149.7713 C   0  0  0  0  0  0  0  0  0  0  0  0
  144.2120  131.1625  151.0115 C   0  0  0  0  0  0  0  0  0  0  0  0
  148.1309  126.7737  152.8177 H   0  0  0  0  0  0  0  0  0  0  0  0
  148.4544  128.2689  151.9569 H   0  0  0  0  0  0  0  0  0  0  0  0
  147.2584  127.1323  151.3295 H   0  0  0  0  0  0  0  0  0  0  0  0
  145.8631  127.5127  153.4123 H   0  0  0  0  0  0  0  0  0  0  0  0
  146.9848  128.7412  153.9463 H   0  0  0  0  0  0  0  0  0  0  0  0
  147.5481  130.4054  151.9075 H   0  0  0  0  0  0  0  0  0  0  0  0
  145.2288  131.2244  153.7615 H   0  0  0  0  0  0  0  0  0  0  0  0
  146.9965  131.5102  153.9955 H   0  0  0  0  0  0  0  0  0  0  0  0
  147.1337  132.9114  151.9902 H   0  0  0  0  0  0  0  0  0  0  0  0
  143.6898  134.8279  151.5867 H   0  0  0  0  0  0  0  0  0  0  0  0
  144.0311  133.3646  150.6767 H   0  0  0  0  0  0  0  0  0  0  0  0
  145.2025  134.6834  150.6834 H   0  0  0  0  0  0  0  0  0  0  0  0
  146.2758  134.6079  156.5369 H   0  0  0  0  0  0  0  0  0  0  0  0
  145.4726  138.7624  151.6820 H   0  0  0  0  0  0  0  0  0  0  0  0
  145.4328  140.0088  154.1328 H   0  0  0  0  0  0  0  0  0  0  0  0
  146.0929  139.0754  155.4505 H   0  0  0  0  0  0  0  0  0  0  0  0
  148.6394  139.6885  152.4444 H   0  0  0  0  0  0  0  0  0  0  0  0
  148.4954  138.6130  155.6136 H   0  0  0  0  0  0  0  0  0  0  0  0
  148.9971  138.1318  153.9926 H   0  0  0  0  0  0  0  0  0  0  0  0
  150.6443  139.6904  155.4533 H   0  0  0  0  0  0  0  0  0  0  0  0
  150.3618  140.1492  153.7712 H   0  0  0  0  0  0  0  0  0  0  0  0
  147.3174  141.2304  155.6954 H   0  0  0  0  0  0  0  0  0  0  0  0
  146.4713  142.4411  153.6444 H   0  0  0  0  0  0  0  0  0  0  0  0
  148.1296  142.5403  153.0486 H   0  0  0  0  0  0  0  0  0  0  0  0
  147.6814  143.3531  154.5404 H   0  0  0  0  0  0  0  0  0  0  0  0
  145.8955  132.4782  149.2658 H   0  0  0  0  0  0  0  0  0  0  0  0
  146.0868  130.7384  149.1427 H   0  0  0  0  0  0  0  0  0  0  0  0
  147.3847  131.7215  149.8004 H   0  0  0  0  0  0  0  0  0  0  0  0
  143.7142  131.9472  150.4423 H   0  0  0  0  0  0  0  0  0  0  0  0
  143.6999  131.0888  151.9710 H   0  0  0  0  0  0  0  0  0  0  0  0
  144.0374  130.2239  150.4849 H   0  0  0  0  0  0  0  0  0  0  0  0
  1  2  1  0  0  0  0
  1 29  1  0  0  0  0
  1 30  1  0  0  0  0
  1 31  1  0  0  0  0
  2  3  1  0  0  0  0
  2 32  1  0  0  0  0
  2 33  1  0  0  0  0
  3  4  1  0  0  0  0
  4 26  1  0  0  0  0
  4  5  1  0  0  0  0
  4 34  1  0  0  0  0
  5  6  1  0  0  0  0
  5 35  1  0  0  0  0
  5 36  1  0  0  0  0
  6  7  1  0  0  0  0
  6 26  1  0  0  0  0
  6 37  1  0  0  0  0
  7  8  1  0  0  0  0
  7  9  1  0  0  0  0
  8 38  1  0  0  0  0
  8 39  1  0  0  0  0
  8 40  1  0  0  0  0
  9 14  1  0  0  0  0
  9 10  2  0  0  0  0
 10 11  1  0  0  0  0
 11 12  2  0  0  0  0
 11 41  1  0  0  0  0
 12 13  1  0  0  0  0
 13 17  1  0  0  0  0
 13 14  2  0  0  0  0
 14 15  1  0  0  0  0
 15 16  2  0  0  0  0
 16 17  1  0  0  0  0
 16 42  1  0  0  0  0
 17 18  1  0  0  0  0
 18 19  1  0  0  0  0
 18 43  1  0  0  0  0
 18 44  1  0  0  0  0
 19 24  1  0  0  0  0
 19 20  1  0  0  0  0
 19 21  1  0  0  0  0
 20 45  1  0  0  0  0
 21 22  1  0  0  0  0
 21 46  1  0  0  0  0
 21 47  1  0  0  0  0
 22 23  1  0  0  0  0
 22 48  1  0  0  0  0
 22 49  1  0  0  0  0
 23 24  1  0  0  0  0
 24 25  1  0  0  0  0
 24 50  1  0  0  0  0
 25 51  1  0  0  0  0
 25 52  1  0  0  0  0
 25 53  1  0  0  0  0
 26 27  1  0  0  0  0
 26 28  1  0  0  0  0
 27 54  1  0  0  0  0
 27 55  1  0  0  0  0
 27 56  1  0  0  0  0
 28 57  1  0  0  0  0
 28 58  1  0  0  0  0
 28 59  1  0  0  0  0
M  END
> <s_m_source_file>
AV-unprocessed.smi

> <i_m_source_file_index>
234

> <i_lp_mmshare_version>
43012

> <i_f3d_flags>
0

> <s_epik_input>
W0NIM11bQ0gyXU9bQ0BASF0oQzEoW0NIM10pW0NIM10pW0NIMl1bQ0BIXTFOKFtDSDNdKWMobltjSF1uMiljKGMyMyluW2NIXW4zW0NIMl1bQ0BAXTQoW09IXSlbQ0gyXVtDSDJdT1tDQEhdNFtDSDNd

> <s_epik_cmdline>
J2VwaWtfcHl0aG9uJywgJy1waCcsICc3LjAnLCAnLXRuJywgJzgnLCAnLW1hJywgJzIwMCcsICctbWV0YWxfYmluZGluZycsICctaW1hZScsICc8aW5maWxlLm1hZT4nLCAnLW9tYWUnLCAnPG91dGZpbGUubWFlPic=

> <r_lp_tautomer_probability>
1

> <r_epik_Ionization_Penalty>
0.00349132

> <r_epik_Ionization_Penalty_Charging>
0

> <r_epik_Ionization_Penalty_Neutral>
0.00349132

> <r_epik_State_Penalty>
0.00242418

> <r_epik_Charging_Adjusted_Penalty>
0.00242418

> <i_epik_Tot_Q>
0

> <i_epik_Tot_abs_Q>
0

> <r_epik_Metal_State_Penalty>
-0

> <b_epik_Metal_Only>
0

> <s_lp_Force_Field>
OPLS_2005

> <r_lp_Energy>
50.4374

> <b_lp_Chiralities_Consistent>
1

> <s_lp_Variant>
AV-unprocessed.smi:234-7

> <Gold.Version>
5.8.1

> <Gold.Id.Protein>
6NUR|6NUR_protein|mol2

> <Gold.PLP.Fitness>
42.4186

> <Gold.PLP.PLP>
-36.0141

> <Gold.PLP.part.hbond>
-0.9798

> <Gold.PLP.part.metal>
0.0000

> <Gold.PLP.part.buried>
-0.6525

> <Gold.PLP.part.nonpolar>
-35.8075

> <Gold.PLP.part.repulsive>
0.6250

> <Gold.PLP.ligand.clash>
0.7796

> <Gold.PLP.ligand.torsion>
1.1237

> <Gold.PLP.Chemscore.Hbond>
0.9920

> <Gold.PLP.Chemscore.CHOScore>
1.7989

> <Gold.PLP.Chemscore.Metal>
0.0000

> <Gold.Chemscore.Hbonds>
donor molecule, donor type, donor heavy atom, donor atom, acceptor molecule, acceptor atom, score
      L1  H    20    45       P1  7957  0.64
      L1  C    16    42       P1 10171  0.77
      L1  C    16    42       P1 10175  0.58

> <Gold.PLP.Chemscore.Internal.Correction>
1.0587

> <Gold.Rescore>
     Score         DG    S(hbond)    S(metal)    S(lipo)     H(rot)  DE(clash)    DE(int)     intcor
      9.46     -14.93       1.00        0.00     109.68       2.62       1.38       4.09       ----

> <Gold.Chemscore.Fitness>
9.4624

> <Gold.Chemscore.DG>
-14.9330

> <Gold.Chemscore.ZeroCoef>
-5.4800

> <Gold.Chemscore.Hbond>
0.9978

> <Gold.Chemscore.Metal>
0.0000

> <Gold.Chemscore.Lipo>
109.6786

> <Gold.Chemscore.Internal_Hbond>
0.0000

> <Gold.Chemscore.DEClash>
1.3758

> <Gold.Chemscore.DEInternal>
4.0949

> <Gold.Chemscore.Rot>
2.6219

> <Gold.Chemscore.Internal.Correction>
   9.000000E+99

> <Gold.Chemscore.Hbonds>
donor molecule, donor type, donor heavy atom, donor atom, acceptor molecule, acceptor atom, score
      L1  H    20    45       P1  7957  0.64

> <Gold.Chemscore.Hbond.Weighted>
-3.3327

> <Gold.Chemscore.Metal.Weighted>
-0.0000

> <Gold.Chemscore.Lipo.Weighted>
-12.8324

> <Gold.Chemscore.Internal_Hbond.Weighted>
0.0000

> <Gold.Chemscore.DEClash.Weighted>
1.3758

> <Gold.Chemscore.DEInternal.Weighted>
4.0949

> <Gold.Chemscore.Rot.Weighted>
6.7121

> <Gold.Chemscore.Internal.Correction.Weighted>
   9.000000E+99

> <Gold.Protein.RotatedTorsions>
[ 6907 6896 6895 6894 ] final   51.46 input  -60.11 | X-H torsion
[ 7974 7965 7964 7962 ] final   81.15 input  175.53 | X-H torsion
[ 8008 7997 7996 7995 ] final    8.20 input   59.86 | X-H torsion
[ 10167 10162 10161 10158 ] final  150.46 input  -65.29 | X-H torsion
[ 10718 10713 10712 10709 ] final  148.80 input   66.30 | X-H torsion
[ 10763 10752 10751 10750 ] final   88.34 input  -60.55 | X-H torsion
[ 11005 11000 10999 10996 ] final -116.96 input  -57.11 | X-H torsion

> <Gold.Protein.ActiveResidues>
 VAL166  LYS551  ARG553  GLY616  TRP617  ASP618  TYR619  PRO620  LYS621  CYS622 
 ASP623  PHE694  ASN695  SER759  ASP760  ASP761  ALA762  ILE779  LEU786  VAL792 
 PHE793  MET794  SER795  GLU796  ALA797  LYS798  CYS799  TRP800  GLU811  SER814 

> <Gold.Protein.RotatedAtoms>
  152.3129  134.7475  160.0331 H   0  0  0  0  0  0  0  0  0  0  0  0  # atno 6907 bound_to 6896
  151.7950  133.3358  159.3518 H   0  0  0  0  0  0  0  0  0  0  0  0  # atno 6908 bound_to 6896
  150.7329  134.5737  159.5948 H   0  0  0  0  0  0  0  0  0  0  0  0  # atno 6909 bound_to 6896
  145.6419  139.2427  143.2026 H   0  0  0  0  0  0  0  0  0  0  0  0  # atno 7974 bound_to 7965
  154.7638  140.2789  155.6193 H   0  0  0  0  0  0  0  0  0  0  0  0  # atno 8008 bound_to 7997
  156.2921  140.2655  156.2350 H   0  0  0  0  0  0  0  0  0  0  0  0  # atno 8009 bound_to 7997
  154.9985  140.0373  157.2339 H   0  0  0  0  0  0  0  0  0  0  0  0  # atno 8010 bound_to 7997
  139.4850  144.5520  151.7383 H   0  0  0  0  0  0  0  0  0  0  0  0  # atno 10167 bound_to 10162
  157.3041  131.0876  151.1367 H   0  0  0  0  0  0  0  0  0  0  0  0  # atno 10718 bound_to 10713
  153.1759  135.4510  154.9964 H   0  0  0  0  0  0  0  0  0  0  0  0  # atno 10763 bound_to 10752
  154.7997  135.3251  154.7582 H   0  0  0  0  0  0  0  0  0  0  0  0  # atno 10764 bound_to 10752
  153.8052  135.6959  153.4904 H   0  0  0  0  0  0  0  0  0  0  0  0  # atno 10765 bound_to 10752
  141.0387  133.9870  157.3030 H   0  0  0  0  0  0  0  0  0  0  0  0  # atno 11005 bound_to 11000
  146.1274  140.7231  142.9428 LP  0  0  0  0  0  0  0  0  0  0  0  0  # atno 17320 bound_to 7965
  144.7154  140.4191  143.7048 LP  0  0  0  0  0  0  0  0  0  0  0  0  # atno 17321 bound_to 7965
  140.5076  144.1074  150.5986 LP  0  0  0  0  0  0  0  0  0  0  0  0  # atno 17342 bound_to 10162
  140.3989  143.2714  151.9971 LP  0  0  0  0  0  0  0  0  0  0  0  0  # atno 17343 bound_to 10162
  157.2715  130.6706  149.6022 LP  0  0  0  0  0  0  0  0  0  0  0  0  # atno 17370 bound_to 10713
  155.9673  130.4477  150.5593 LP  0  0  0  0  0  0  0  0  0  0  0  0  # atno 17371 bound_to 10713
  139.9259  135.0201  156.8233 LP  0  0  0  0  0  0  0  0  0  0  0  0  # atno 17394 bound_to 11000
  140.6275  133.9937  155.7646 LP  0  0  0  0  0  0  0  0  0  0  0  0  # atno 17395 bound_to 11000

$$$$
