AV-unprocessed.smi:1230|AV-procd|sdf|5157|dock3
  -GOLD-   22720 4233D 1   1.00000     0.00000
 Structure written by MMmdl.
 39 40  0  0  0  0  0  0  0  0  1 V2000
  151.1209  144.8391  159.5210 C   0  0  0  0  0  0  0  0  0  0  0  0
  152.2772  143.9483  160.0019 C   0  0  1  0  0  0  0  0  0  0  0  0
  152.1219  143.5555  161.4852 C   0  0  0  0  0  0  0  0  0  0  0  0
  153.3022  142.6971  161.9678 C   0  0  0  0  0  0  0  0  0  0  0  0
  153.4900  141.4557  161.0824 C   0  0  0  0  0  0  0  0  0  0  0  0
  153.6461  141.8460  159.6035 C   0  0  0  0  0  0  0  0  0  0  0  0
  152.4575  142.6992  159.1102 C   0  0  1  0  0  0  0  0  0  0  0  0
  151.2497  141.9454  159.1429 O   0  0  0  0  0  0  0  0  0  0  0  0
  150.3015  142.2994  158.1484 C   0  0  0  0  0  0  0  0  0  0  0  0
  150.6398  141.5269  156.8647 C   0  0  0  0  0  0  0  0  0  0  0  0
  149.5238  141.4278  155.9577 N   0  0  0  0  0  0  0  0  0  0  0  0
  148.2745  141.9506  156.2557 C   0  0  0  0  0  0  0  0  0  0  0  0
  147.2182  141.8490  155.4142 C   0  0  0  0  0  0  0  0  0  0  0  0
  145.9390  142.3917  155.7336 C   0  0  0  0  0  0  0  0  0  0  0  0
  144.9016  142.8463  155.9720 N   0  0  0  0  0  0  0  0  0  0  0  0
  147.3501  141.1662  154.1282 C   0  0  0  0  0  0  0  0  0  0  0  0
  146.4555  141.0234  153.2967 O   0  0  0  0  0  0  0  0  0  0  0  0
  148.6256  140.6493  153.8784 N   0  0  0  0  0  0  0  0  0  0  0  0
  149.7239  140.7435  154.7355 C   0  0  0  0  0  0  0  0  0  0  0  0
  150.7999  140.2409  154.4110 O   0  0  0  0  0  0  0  0  0  0  0  0
  148.7640  140.1640  153.0037 H   0  0  0  0  0  0  0  0  0  0  0  0
  150.1620  144.3255  159.5961 H   0  0  0  0  0  0  0  0  0  0  0  0
  151.2595  145.1341  158.4807 H   0  0  0  0  0  0  0  0  0  0  0  0
  151.0551  145.7503  160.1158 H   0  0  0  0  0  0  0  0  0  0  0  0
  153.1884  144.5424  159.9170 H   0  0  0  0  0  0  0  0  0  0  0  0
  152.0482  144.4516  162.1021 H   0  0  0  0  0  0  0  0  0  0  0  0
  151.1900  143.0071  161.6285 H   0  0  0  0  0  0  0  0  0  0  0  0
  154.2153  143.2939  161.9572 H   0  0  0  0  0  0  0  0  0  0  0  0
  153.1435  142.3946  163.0032 H   0  0  0  0  0  0  0  0  0  0  0  0
  154.3641  140.8934  161.4118 H   0  0  0  0  0  0  0  0  0  0  0  0
  152.6337  140.7900  161.1981 H   0  0  0  0  0  0  0  0  0  0  0  0
  154.5684  142.4153  159.4810 H   0  0  0  0  0  0  0  0  0  0  0  0
  153.7667  140.9518  158.9932 H   0  0  0  0  0  0  0  0  0  0  0  0
  152.6528  143.0344  158.0898 H   0  0  0  0  0  0  0  0  0  0  0  0
  149.2960  142.0515  158.4908 H   0  0  0  0  0  0  0  0  0  0  0  0
  150.3280  143.3712  157.9523 H   0  0  0  0  0  0  0  0  0  0  0  0
  151.4375  142.0279  156.3142 H   0  0  0  0  0  0  0  0  0  0  0  0
  150.9959  140.5141  157.0659 H   0  0  0  0  0  0  0  0  0  0  0  0
  148.1310  142.4603  157.1983 H   0  0  0  0  0  0  0  0  0  0  0  0
  1  2  1  0  0  0  0
  1 22  1  0  0  0  0
  1 23  1  0  0  0  0
  1 24  1  0  0  0  0
  2  7  1  0  0  0  0
  2  3  1  0  0  0  0
  2 25  1  0  0  0  0
  3  4  1  0  0  0  0
  3 26  1  0  0  0  0
  3 27  1  0  0  0  0
  4  5  1  0  0  0  0
  4 28  1  0  0  0  0
  4 29  1  0  0  0  0
  5  6  1  0  0  0  0
  5 30  1  0  0  0  0
  5 31  1  0  0  0  0
  6  7  1  0  0  0  0
  6 32  1  0  0  0  0
  6 33  1  0  0  0  0
  7  8  1  0  0  0  0
  7 34  1  0  0  0  0
  8  9  1  0  0  0  0
  9 10  1  0  0  0  0
  9 35  1  0  0  0  0
  9 36  1  0  0  0  0
 10 11  1  0  0  0  0
 10 37  1  0  0  0  0
 10 38  1  0  0  0  0
 11 19  1  0  0  0  0
 11 12  1  0  0  0  0
 12 13  2  0  0  0  0
 12 39  1  0  0  0  0
 13 14  1  0  0  0  0
 13 16  1  0  0  0  0
 14 15  3  0  0  0  0
 16 17  2  0  0  0  0
 16 18  1  0  0  0  0
 18 21  1  0  0  0  0
 18 19  1  0  0  0  0
 19 20  2  0  0  0  0
M  END
> <s_m_source_file>
AV-unprocessed.smi

> <i_m_source_file_index>
1230

> <i_lp_mmshare_version>
43012

> <i_f3d_flags>
0

> <s_epik_input>
W0NIM11bQ0BASF0xW0NIMl1bQ0gyXVtDSDJdW0NIMl1bQ0BIXTFPW0NIMl1bQ0gyXW4yW2NIXWMoQyNOKWMoPU8pW25IXWMyPU8=

> <s_epik_cmdline>
J2VwaWtfcHl0aG9uJywgJy1waCcsICc3LjAnLCAnLXRuJywgJzgnLCAnLW1hJywgJzIwMCcsICctbWV0YWxfYmluZGluZycsICctaW1hZScsICc8aW5maWxlLm1hZT4nLCAnLW9tYWUnLCAnPG91dGZpbGUubWFlPic=

> <r_epik_Ionization_Penalty>
0.421541

> <r_epik_Ionization_Penalty_Charging>
0.421541

> <r_epik_Ionization_Penalty_Neutral>
2.29267e-11

> <r_epik_State_Penalty>
0.422277

> <r_epik_Charging_Adjusted_Penalty>
0.843818

> <i_epik_Tot_Q>
0

> <i_epik_Tot_abs_Q>
0

> <r_epik_Metal_State_Penalty>
4.11629

> <b_epik_Metal_Only>
0

> <s_lp_Force_Field>
OPLS_2005

> <r_lp_Energy>
14.8101

> <b_lp_Chiralities_Consistent>
1

> <s_lp_Variant>
AV-unprocessed.smi:1230-6

> <Gold.Version>
5.8.1

> <Gold.Id.Protein>
6NUR|6NUR_protein|mol2

> <Gold.PLP.Fitness>
50.1011

> <Gold.PLP.PLP>
-45.4886

> <Gold.PLP.part.hbond>
-2.0000

> <Gold.PLP.part.metal>
0.0000

> <Gold.PLP.part.buried>
-2.2920

> <Gold.PLP.part.nonpolar>
-41.6656

> <Gold.PLP.part.repulsive>
0.6536

> <Gold.PLP.ligand.clash>
0.0000

> <Gold.PLP.ligand.torsion>
0.6226

> <Gold.PLP.Chemscore.Hbond>
1.6200

> <Gold.PLP.Chemscore.CHOScore>
0.3257

> <Gold.PLP.Chemscore.Metal>
0.0000

> <Gold.Chemscore.Hbonds>
donor molecule, donor type, donor heavy atom, donor atom, acceptor molecule, acceptor atom, score
      L1  H    18    21       P1  7957  1.00
      P1  H  7989  7998       L1    20  0.63
      L1  C    12    39       P1  8028  0.02

> <Gold.PLP.Chemscore.Internal.Correction>
0.0206

> <Gold.Rescore>
     Score         DG    S(hbond)    S(metal)    S(lipo)     H(rot)  DE(clash)    DE(int)     intcor
     15.48     -17.29       1.50        0.00     100.55       1.94       0.89       0.92       ----

> <Gold.Chemscore.Fitness>
15.4824

> <Gold.Chemscore.DG>
-17.2887

> <Gold.Chemscore.ZeroCoef>
-5.4800

> <Gold.Chemscore.Hbond>
1.4990

> <Gold.Chemscore.Metal>
0.0000

> <Gold.Chemscore.Lipo>
100.5514

> <Gold.Chemscore.Internal_Hbond>
0.0000

> <Gold.Chemscore.DEClash>
0.8852

> <Gold.Chemscore.DEInternal>
0.9212

> <Gold.Chemscore.Rot>
1.9385

> <Gold.Chemscore.Internal.Correction>
   9.000000E+99

> <Gold.Chemscore.Hbonds>
donor molecule, donor type, donor heavy atom, donor atom, acceptor molecule, acceptor atom, score
      L1  H    18    21       P1  7957  0.89
      P1  H  7989  7998       L1    20  0.62

> <Gold.Chemscore.Hbond.Weighted>
-5.0067

> <Gold.Chemscore.Metal.Weighted>
-0.0000

> <Gold.Chemscore.Lipo.Weighted>
-11.7645

> <Gold.Chemscore.Internal_Hbond.Weighted>
0.0000

> <Gold.Chemscore.DEClash.Weighted>
0.8852

> <Gold.Chemscore.DEInternal.Weighted>
0.9212

> <Gold.Chemscore.Rot.Weighted>
4.9625

> <Gold.Chemscore.Internal.Correction.Weighted>
   9.000000E+99

> <Gold.Protein.RotatedTorsions>
[ 6907 6896 6895 6894 ] final   63.82 input  -60.11 | X-H torsion
[ 7974 7965 7964 7962 ] final -154.39 input  175.53 | X-H torsion
[ 8008 7997 7996 7995 ] final  -41.80 input   59.86 | X-H torsion
[ 10167 10162 10161 10158 ] final   99.01 input  -65.29 | X-H torsion
[ 10718 10713 10712 10709 ] final -113.86 input   66.30 | X-H torsion
[ 10763 10752 10751 10750 ] final  -73.82 input  -60.55 | X-H torsion
[ 11005 11000 10999 10996 ] final  -97.49 input  -57.11 | X-H torsion

> <Gold.Protein.ActiveResidues>
 VAL166  LYS551  ARG553  GLY616  TRP617  ASP618  TYR619  PRO620  LYS621  CYS622 
 ASP623  PHE694  ASN695  SER759  ASP760  ASP761  ALA762  ILE779  LEU786  VAL792 
 PHE793  MET794  SER795  GLU796  ALA797  LYS798  CYS799  TRP800  GLU811  SER814 

> <Gold.Protein.RotatedAtoms>
  152.4283  134.5826  159.9951 H   0  0  0  0  0  0  0  0  0  0  0  0  # atno 6907 bound_to 6896
  151.5956  133.3356  159.3044 H   0  0  0  0  0  0  0  0  0  0  0  0  # atno 6908 bound_to 6896
  150.8174  134.7400  159.6807 H   0  0  0  0  0  0  0  0  0  0  0  0  # atno 6909 bound_to 6896
  144.7692  140.4395  143.5920 H   0  0  0  0  0  0  0  0  0  0  0  0  # atno 7974 bound_to 7965
  154.4002  140.1490  156.3250 H   0  0  0  0  0  0  0  0  0  0  0  0  # atno 8008 bound_to 7997
  155.8495  140.3458  155.5663 H   0  0  0  0  0  0  0  0  0  0  0  0  # atno 8009 bound_to 7997
  155.7999  140.0869  157.1953 H   0  0  0  0  0  0  0  0  0  0  0  0  # atno 8010 bound_to 7997
  139.7656  144.6940  151.0229 H   0  0  0  0  0  0  0  0  0  0  0  0  # atno 10167 bound_to 10162
  156.0793  130.5995  150.8698 H   0  0  0  0  0  0  0  0  0  0  0  0  # atno 10718 bound_to 10713
  154.4647  135.5885  153.6280 H   0  0  0  0  0  0  0  0  0  0  0  0  # atno 10763 bound_to 10752
  152.9827  135.6052  154.3442 H   0  0  0  0  0  0  0  0  0  0  0  0  # atno 10764 bound_to 10752
  154.3318  135.2842  155.2447 H   0  0  0  0  0  0  0  0  0  0  0  0  # atno 10765 bound_to 10752
  141.1377  133.8175  157.0713 H   0  0  0  0  0  0  0  0  0  0  0  0  # atno 11005 bound_to 11000
  145.6376  139.1545  143.2933 LP  0  0  0  0  0  0  0  0  0  0  0  0  # atno 17320 bound_to 7965
  146.1824  140.6475  142.9183 LP  0  0  0  0  0  0  0  0  0  0  0  0  # atno 17321 bound_to 7965
  140.7810  143.4646  151.0229 LP  0  0  0  0  0  0  0  0  0  0  0  0  # atno 17342 bound_to 10162
  139.8332  143.7663  152.3180 LP  0  0  0  0  0  0  0  0  0  0  0  0  # atno 17343 bound_to 10162
  157.5903  131.0944  150.9130 LP  0  0  0  0  0  0  0  0  0  0  0  0  # atno 17370 bound_to 10713
  156.9307  130.5349  149.5279 LP  0  0  0  0  0  0  0  0  0  0  0  0  # atno 17371 bound_to 10713
  140.0509  134.9806  157.1135 LP  0  0  0  0  0  0  0  0  0  0  0  0  # atno 17394 bound_to 11000
  140.3991  134.2102  155.7164 LP  0  0  0  0  0  0  0  0  0  0  0  0  # atno 17395 bound_to 11000

$$$$
