AV-unprocessed.smi:3340|AV-procd|sdf|12881|dock10
  -GOLD-   2272019283D 1   1.00000     0.00000
 Structure written by MMmdl.
 41 42  0  0  0  0  0  0  0  0  1 V2000
  149.9933  141.9037  156.0012 C   0  0  0  0  0  0  0  0  0  0  0  0
  150.2671  140.5316  155.3807 C   0  0  0  0  0  0  0  0  0  0  0  0
  151.4326  140.2454  155.1058 O   0  0  0  0  0  0  0  0  0  0  0  0
  149.2330  139.6851  155.1581 N   0  0  0  0  0  0  0  0  0  0  0  0
  147.8345  140.0468  155.4360 C   0  0  0  0  0  0  0  0  0  0  0  0
  147.0430  140.0519  154.1124 C   0  0  0  0  0  0  0  0  0  0  0  0
  147.1425  138.7168  153.4921 N   0  0  0  0  0  0  0  0  0  0  0  0
  146.1400  137.8096  153.3799 C   0  0  0  0  0  0  0  0  0  0  0  0
  145.0949  137.8751  154.0290 O   0  0  0  0  0  0  0  0  0  0  0  0
  146.3944  136.7940  152.5367 N   0  0  0  0  0  0  0  0  0  0  0  0
  145.4992  135.6748  152.2581 C   0  0  2  0  0  0  0  0  0  0  0  0
  145.3322  134.8338  153.5341 C   0  0  0  0  0  0  0  0  0  0  0  0
  146.0278  134.8588  151.0588 C   0  0  0  0  0  0  0  0  0  0  0  0
  145.3716  133.5721  150.9246 N   0  0  0  0  0  0  0  0  0  0  0  0
  144.0244  133.3437  150.6771 C   0  0  0  0  0  0  0  0  0  0  0  0
  143.8600  131.9778  150.6266 C   0  0  0  0  0  0  0  0  0  0  0  0
  145.0862  131.3500  150.8337 N   0  0  0  0  0  0  0  0  0  0  0  0
  145.9335  132.3576  150.9992 C   0  0  0  0  0  0  0  0  0  0  0  0
  148.5432  138.3695  153.2080 C   0  0  0  0  0  0  0  0  0  0  0  0
  149.3363  138.3582  154.5299 C   0  0  0  0  0  0  0  0  0  0  0  0
  149.5416  141.7986  156.9880 H   0  0  0  0  0  0  0  0  0  0  0  0
  149.3289  142.4901  155.3660 H   0  0  0  0  0  0  0  0  0  0  0  0
  150.9210  142.4651  156.1182 H   0  0  0  0  0  0  0  0  0  0  0  0
  147.4066  139.3218  156.1300 H   0  0  0  0  0  0  0  0  0  0  0  0
  147.7373  141.0187  155.9208 H   0  0  0  0  0  0  0  0  0  0  0  0
  146.0209  140.3759  154.3072 H   0  0  0  0  0  0  0  0  0  0  0  0
  147.4597  140.7941  153.4301 H   0  0  0  0  0  0  0  0  0  0  0  0
  147.2812  136.7965  152.0539 H   0  0  0  0  0  0  0  0  0  0  0  0
  144.5157  136.0739  152.0025 H   0  0  0  0  0  0  0  0  0  0  0  0
  144.5991  134.0387  153.3958 H   0  0  0  0  0  0  0  0  0  0  0  0
  144.9877  135.4488  154.3662 H   0  0  0  0  0  0  0  0  0  0  0  0
  146.2743  134.3707  153.8299 H   0  0  0  0  0  0  0  0  0  0  0  0
  145.8810  135.4080  150.1278 H   0  0  0  0  0  0  0  0  0  0  0  0
  147.1018  134.6937  151.1571 H   0  0  0  0  0  0  0  0  0  0  0  0
  143.3147  134.1499  150.5635 H   0  0  0  0  0  0  0  0  0  0  0  0
  142.9611  131.4036  150.4573 H   0  0  0  0  0  0  0  0  0  0  0  0
  146.9875  132.2082  151.1831 H   0  0  0  0  0  0  0  0  0  0  0  0
  148.6453  137.4058  152.7075 H   0  0  0  0  0  0  0  0  0  0  0  0
  148.9648  139.1053  152.5217 H   0  0  0  0  0  0  0  0  0  0  0  0
  150.3600  138.0447  154.3328 H   0  0  0  0  0  0  0  0  0  0  0  0
  148.9245  137.6098  155.2086 H   0  0  0  0  0  0  0  0  0  0  0  0
  1  2  1  0  0  0  0
  1 21  1  0  0  0  0
  1 22  1  0  0  0  0
  1 23  1  0  0  0  0
  2  3  2  0  0  0  0
  2  4  1  0  0  0  0
  4 20  1  0  0  0  0
  4  5  1  0  0  0  0
  5  6  1  0  0  0  0
  5 24  1  0  0  0  0
  5 25  1  0  0  0  0
  6  7  1  0  0  0  0
  6 26  1  0  0  0  0
  6 27  1  0  0  0  0
  7  8  1  0  0  0  0
  7 19  1  0  0  0  0
  8  9  2  0  0  0  0
  8 10  1  0  0  0  0
 10 11  1  0  0  0  0
 10 28  1  0  0  0  0
 11 12  1  0  0  0  0
 11 13  1  0  0  0  0
 11 29  1  0  0  0  0
 12 30  1  0  0  0  0
 12 31  1  0  0  0  0
 12 32  1  0  0  0  0
 13 14  1  0  0  0  0
 13 33  1  0  0  0  0
 13 34  1  0  0  0  0
 14 18  1  0  0  0  0
 14 15  1  0  0  0  0
 15 16  2  0  0  0  0
 15 35  1  0  0  0  0
 16 17  1  0  0  0  0
 16 36  1  0  0  0  0
 17 18  2  0  0  0  0
 18 37  1  0  0  0  0
 19 20  1  0  0  0  0
 19 38  1  0  0  0  0
 19 39  1  0  0  0  0
 20 40  1  0  0  0  0
 20 41  1  0  0  0  0
M  END
> <s_m_source_file>
AV-unprocessed.smi

> <i_m_source_file_index>
3340

> <i_lp_mmshare_version>
43012

> <i_f3d_flags>
0

> <s_epik_input>
W0NIM11DKD1PKU4xW0NIMl1bQ0gyXU4oW0NIMl1bQ0gyXTEpQyg9TylbTkhdW0NASF0oW0NIM10pW0NIMl1uMltjSF1bY0hdbltjSF0y

> <s_epik_cmdline>
J2VwaWtfcHl0aG9uJywgJy1waCcsICc3LjAnLCAnLXRuJywgJzgnLCAnLW1hJywgJzIwMCcsICctbWV0YWxfYmluZGluZycsICctaW1hZScsICc8aW5maWxlLm1hZT4nLCAnLW9tYWUnLCAnPG91dGZpbGUubWFlPic=

> <r_lp_tautomer_probability>
1

> <r_epik_Ionization_Penalty>
0.622948

> <r_epik_Ionization_Penalty_Charging>
0.622904

> <r_epik_Ionization_Penalty_Neutral>
4.39259e-05

> <r_epik_State_Penalty>
0.639086

> <r_epik_Charging_Adjusted_Penalty>
1.26199

> <i_epik_Tot_Q>
0

> <i_epik_Tot_abs_Q>
0

> <r_epik_Metal_State_Penalty>
0.307185

> <b_epik_Metal_Only>
0

> <s_lp_Force_Field>
OPLS_2005

> <r_lp_Energy>
49.2595

> <b_lp_Chiralities_Consistent>
1

> <s_lp_Variant>
AV-unprocessed.smi:3340-3

> <Gold.Version>
5.8.1

> <Gold.Id.Protein>
6NUR|6NUR_protein|mol2

> <Gold.PLP.Fitness>
38.3786

> <Gold.PLP.PLP>
-24.1503

> <Gold.PLP.part.hbond>
-2.0000

> <Gold.PLP.part.metal>
0.0000

> <Gold.PLP.part.buried>
1.9812

> <Gold.PLP.part.nonpolar>
-25.2059

> <Gold.PLP.part.repulsive>
0.3035

> <Gold.PLP.ligand.clash>
0.0818

> <Gold.PLP.ligand.torsion>
0.3677

> <Gold.PLP.Chemscore.Hbond>
2.0000

> <Gold.PLP.Chemscore.CHOScore>
2.9985

> <Gold.PLP.Chemscore.Metal>
0.0000

> <Gold.Chemscore.Hbonds>
donor molecule, donor type, donor heavy atom, donor atom, acceptor molecule, acceptor atom, score
      L1  H    10    28       P1  7948  1.00
      P1  H  7989  7998       L1     3  1.00
      L1  C    15    35       P1 10186  1.00
      L1  C    16    36       P1 10952  0.96
      L1  C    18    37       P1 10747  0.90

> <Gold.PLP.Chemscore.Internal.Correction>
0.0502

> <Gold.Rescore>
     Score         DG    S(hbond)    S(metal)    S(lipo)     H(rot)  DE(clash)    DE(int)     intcor
     11.67     -14.01       1.92        0.00      53.99       1.65       2.06       0.28       ----

> <Gold.Chemscore.Fitness>
11.6672

> <Gold.Chemscore.DG>
-14.0054

> <Gold.Chemscore.ZeroCoef>
-5.4800

> <Gold.Chemscore.Hbond>
1.9238

> <Gold.Chemscore.Metal>
0.0000

> <Gold.Chemscore.Lipo>
53.9885

> <Gold.Chemscore.Internal_Hbond>
0.0000

> <Gold.Chemscore.DEClash>
2.0562

> <Gold.Chemscore.DEInternal>
0.2819

> <Gold.Chemscore.Rot>
1.6471

> <Gold.Chemscore.Internal.Correction>
   9.000000E+99

> <Gold.Chemscore.Hbonds>
donor molecule, donor type, donor heavy atom, donor atom, acceptor molecule, acceptor atom, score
      L1  H    10    28       P1  7948  0.97
      P1  H  7989  7998       L1     3  0.43

> <Gold.Chemscore.Hbond.Weighted>
-6.4253

> <Gold.Chemscore.Metal.Weighted>
-0.0000

> <Gold.Chemscore.Lipo.Weighted>
-6.3167

> <Gold.Chemscore.Internal_Hbond.Weighted>
0.0000

> <Gold.Chemscore.DEClash.Weighted>
2.0562

> <Gold.Chemscore.DEInternal.Weighted>
0.2819

> <Gold.Chemscore.Rot.Weighted>
4.2166

> <Gold.Chemscore.Internal.Correction.Weighted>
   9.000000E+99

> <Gold.Protein.RotatedTorsions>
[ 6907 6896 6895 6894 ] final  -18.69 input  -60.11 | X-H torsion
[ 7974 7965 7964 7962 ] final  171.47 input  175.53 | X-H torsion
[ 8008 7997 7996 7995 ] final   31.33 input   59.86 | X-H torsion
[ 10167 10162 10161 10158 ] final -114.46 input  -65.29 | X-H torsion
[ 10718 10713 10712 10709 ] final   57.94 input   66.30 | X-H torsion
[ 10763 10752 10751 10750 ] final   -5.11 input  -60.55 | X-H torsion
[ 11005 11000 10999 10996 ] final -177.51 input  -57.11 | X-H torsion

> <Gold.Protein.ActiveResidues>
 VAL166  LYS551  ARG553  GLY616  TRP617  ASP618  TYR619  PRO620  LYS621  CYS622 
 ASP623  PHE694  ASN695  SER759  ASP760  ASP761  ALA762  ILE779  LEU786  VAL792 
 PHE793  MET794  SER795  GLU796  ALA797  LYS798  CYS799  TRP800  GLU811  SER814 

> <Gold.Protein.RotatedAtoms>
  151.2744  135.0694  159.9145 H   0  0  0  0  0  0  0  0  0  0  0  0  # atno 6907 bound_to 6896
  152.5345  134.0096  159.7942 H   0  0  0  0  0  0  0  0  0  0  0  0  # atno 6908 bound_to 6896
  151.0340  133.5715  159.2688 H   0  0  0  0  0  0  0  0  0  0  0  0  # atno 6909 bound_to 6896
  144.7294  139.9354  143.6426 H   0  0  0  0  0  0  0  0  0  0  0  0  # atno 7974 bound_to 7965
  155.1047  140.3233  155.4537 H   0  0  0  0  0  0  0  0  0  0  0  0  # atno 8008 bound_to 7997
  156.2707  140.2054  156.6120 H   0  0  0  0  0  0  0  0  0  0  0  0  # atno 8009 bound_to 7997
  154.6802  140.0527  157.0244 H   0  0  0  0  0  0  0  0  0  0  0  0  # atno 8010 bound_to 7997
  140.1008  143.4615  152.1813 H   0  0  0  0  0  0  0  0  0  0  0  0  # atno 10167 bound_to 10162
  157.5556  130.8797  149.9030 H   0  0  0  0  0  0  0  0  0  0  0  0  # atno 10718 bound_to 10713
  153.3940  135.7003  153.6474 H   0  0  0  0  0  0  0  0  0  0  0  0  # atno 10763 bound_to 10752
  153.5035  135.3647  155.2552 H   0  0  0  0  0  0  0  0  0  0  0  0  # atno 10764 bound_to 10752
  154.8705  135.4117  154.3262 H   0  0  0  0  0  0  0  0  0  0  0  0  # atno 10765 bound_to 10752
  140.4401  134.6439  157.4753 H   0  0  0  0  0  0  0  0  0  0  0  0  # atno 11005 bound_to 11000
  146.0825  139.3813  143.0455 LP  0  0  0  0  0  0  0  0  0  0  0  0  # atno 17320 bound_to 7965
  145.7821  140.9851  143.1093 LP  0  0  0  0  0  0  0  0  0  0  0  0  # atno 17321 bound_to 7965
  139.5672  144.7442  151.3989 LP  0  0  0  0  0  0  0  0  0  0  0  0  # atno 17342 bound_to 10162
  140.6979  143.7704  150.7355 LP  0  0  0  0  0  0  0  0  0  0  0  0  # atno 17343 bound_to 10162
  156.0615  130.3699  150.0971 LP  0  0  0  0  0  0  0  0  0  0  0  0  # atno 17370 bound_to 10713
  156.9140  130.9661  151.3559 LP  0  0  0  0  0  0  0  0  0  0  0  0  # atno 17371 bound_to 10713
  140.0076  134.6740  155.9431 LP  0  0  0  0  0  0  0  0  0  0  0  0  # atno 17394 bound_to 11000
  141.1709  133.6537  156.4649 LP  0  0  0  0  0  0  0  0  0  0  0  0  # atno 17395 bound_to 11000

$$$$
