AV-unprocessed.smi:2355|AV-procd|sdf|9387|dock5
  -GOLD-   2272013 23D 1   1.00000     0.00000
 Structure written by MMmdl.
 48 49  0  0  0  0  0  0  0  0  1 V2000
  145.3291  132.1791  149.9979 C   0  0  0  0  0  0  0  0  0  0  0  0
  144.8731  133.2858  150.9254 C   0  0  0  0  0  0  0  0  0  0  0  0
  143.5487  133.3303  151.4013 C   0  0  0  0  0  0  0  0  0  0  0  0
  143.1861  134.3856  152.2609 C   0  0  0  0  0  0  0  0  0  0  0  0
  141.7774  134.4968  152.8050 C   0  0  0  0  0  0  0  0  0  0  0  0
  144.0474  135.3515  152.6456 N   0  0  0  0  0  0  0  0  0  0  0  0
  145.3258  135.3184  152.1942 C   0  0  0  0  0  0  0  0  0  0  0  0
  146.3076  136.2846  152.5392 N   0  0  0  0  0  0  0  0  0  0  0  0
  146.2427  137.2311  153.4919 C   0  0  0  0  0  0  0  0  0  0  0  0
  145.2901  137.4163  154.2502 O   0  0  0  0  0  0  0  0  0  0  0  0
  147.3651  137.9649  153.5219 N   0  0  0  0  0  0  0  0  0  0  0  0
  147.6289  139.0718  154.4403 C   0  0  2  0  0  0  0  0  0  0  0  0
  146.7862  140.2859  154.0113 C   0  0  0  0  0  0  0  0  0  0  0  0
  149.1572  139.3850  154.5540 C   0  0  1  0  0  0  0  0  0  0  0  0
  149.3697  140.8996  154.8138 C   0  0  0  0  0  0  0  0  0  0  0  0
  149.8777  138.5245  155.5224 N   0  0  0  0  0  0  0  0  0  0  0  0
  151.3303  138.7298  155.4877 C   0  0  0  0  0  0  0  0  0  0  0  0
  152.0839  137.8244  156.4770 C   0  0  0  0  0  0  0  0  0  0  0  0
  151.7791  136.4631  156.2066 O   0  0  0  0  0  0  0  0  0  0  0  0
  150.3863  136.1993  156.3020 C   0  0  0  0  0  0  0  0  0  0  0  0
  149.6182  137.0951  155.3152 C   0  0  0  0  0  0  0  0  0  0  0  0
  145.7718  134.2935  151.3298 C   0  0  0  0  0  0  0  0  0  0  0  0
  144.4993  131.5292  149.7188 H   0  0  0  0  0  0  0  0  0  0  0  0
  146.0919  131.5701  150.4833 H   0  0  0  0  0  0  0  0  0  0  0  0
  145.7526  132.6001  149.0858 H   0  0  0  0  0  0  0  0  0  0  0  0
  142.8296  132.5770  151.1144 H   0  0  0  0  0  0  0  0  0  0  0  0
  141.2340  133.5593  152.6835 H   0  0  0  0  0  0  0  0  0  0  0  0
  141.2315  135.2799  152.2783 H   0  0  0  0  0  0  0  0  0  0  0  0
  141.7938  134.7434  153.8673 H   0  0  0  0  0  0  0  0  0  0  0  0
  147.1567  136.2527  151.9949 H   0  0  0  0  0  0  0  0  0  0  0  0
  148.0958  137.7422  152.8620 H   0  0  0  0  0  0  0  0  0  0  0  0
  147.2450  138.7404  155.4043 H   0  0  0  0  0  0  0  0  0  0  0  0
  146.9148  141.1210  154.7000 H   0  0  0  0  0  0  0  0  0  0  0  0
  145.7245  140.0374  153.9983 H   0  0  0  0  0  0  0  0  0  0  0  0
  147.0525  140.6331  153.0129 H   0  0  0  0  0  0  0  0  0  0  0  0
  149.5851  139.1860  153.5701 H   0  0  0  0  0  0  0  0  0  0  0  0
  148.7632  141.5261  154.1608 H   0  0  0  0  0  0  0  0  0  0  0  0
  150.3990  141.2023  154.6258 H   0  0  0  0  0  0  0  0  0  0  0  0
  149.1268  141.1660  155.8425 H   0  0  0  0  0  0  0  0  0  0  0  0
  151.7051  138.5534  154.4784 H   0  0  0  0  0  0  0  0  0  0  0  0
  151.5786  139.7589  155.7422 H   0  0  0  0  0  0  0  0  0  0  0  0
  153.1596  137.9731  156.3822 H   0  0  0  0  0  0  0  0  0  0  0  0
  151.8159  138.0688  157.5061 H   0  0  0  0  0  0  0  0  0  0  0  0
  150.2069  135.1481  156.0761 H   0  0  0  0  0  0  0  0  0  0  0  0
  150.0443  136.3695  157.3241 H   0  0  0  0  0  0  0  0  0  0  0  0
  148.5618  136.8708  155.4456 H   0  0  0  0  0  0  0  0  0  0  0  0
  149.8795  136.8162  154.2933 H   0  0  0  0  0  0  0  0  0  0  0  0
  146.7934  134.2789  150.9775 H   0  0  0  0  0  0  0  0  0  0  0  0
  1  2  1  0  0  0  0
  1 23  1  0  0  0  0
  1 24  1  0  0  0  0
  1 25  1  0  0  0  0
  2 22  1  0  0  0  0
  2  3  2  0  0  0  0
  3  4  1  0  0  0  0
  3 26  1  0  0  0  0
  4  5  1  0  0  0  0
  4  6  2  0  0  0  0
  5 27  1  0  0  0  0
  5 28  1  0  0  0  0
  5 29  1  0  0  0  0
  6  7  1  0  0  0  0
  7  8  1  0  0  0  0
  7 22  2  0  0  0  0
  8  9  1  0  0  0  0
  8 30  1  0  0  0  0
  9 10  2  0  0  0  0
  9 11  1  0  0  0  0
 11 12  1  0  0  0  0
 11 31  1  0  0  0  0
 12 13  1  0  0  0  0
 12 14  1  0  0  0  0
 12 32  1  0  0  0  0
 13 33  1  0  0  0  0
 13 34  1  0  0  0  0
 13 35  1  0  0  0  0
 14 15  1  0  0  0  0
 14 16  1  0  0  0  0
 14 36  1  0  0  0  0
 15 37  1  0  0  0  0
 15 38  1  0  0  0  0
 15 39  1  0  0  0  0
 16 21  1  0  0  0  0
 16 17  1  0  0  0  0
 17 18  1  0  0  0  0
 17 40  1  0  0  0  0
 17 41  1  0  0  0  0
 18 19  1  0  0  0  0
 18 42  1  0  0  0  0
 18 43  1  0  0  0  0
 19 20  1  0  0  0  0
 20 21  1  0  0  0  0
 20 44  1  0  0  0  0
 20 45  1  0  0  0  0
 21 46  1  0  0  0  0
 21 47  1  0  0  0  0
 22 48  1  0  0  0  0
M  END
> <s_m_source_file>
AV-unprocessed.smi

> <i_m_source_file_index>
2355

> <i_lp_mmshare_version>
43012

> <i_f3d_flags>
0

> <s_epik_input>
W0NIM11jMVtjSF1jKFtDSDNdKW5jKFtjSF0xKVtOSF1DKD1PKVtOSF1bQ0BIXShbQ0gzXSlbQ0BIXShbQ0gzXSlOMltDSDJdW0NIMl1PW0NIMl1bQ0gyXTI=

> <s_epik_cmdline>
J2VwaWtfcHl0aG9uJywgJy1waCcsICc3LjAnLCAnLXRuJywgJzgnLCAnLW1hJywgJzIwMCcsICctbWV0YWxfYmluZGluZycsICctaW1hZScsICc8aW5maWxlLm1hZT4nLCAnLW9tYWUnLCAnPG91dGZpbGUubWFlPic=

> <r_epik_Ionization_Penalty>
0.266238

> <r_epik_Ionization_Penalty_Charging>
0

> <r_epik_Ionization_Penalty_Neutral>
0.266238

> <r_epik_State_Penalty>
0.257924

> <r_epik_Charging_Adjusted_Penalty>
0.257924

> <i_epik_Tot_Q>
0

> <i_epik_Tot_abs_Q>
0

> <r_epik_Metal_State_Penalty>
0.257904

> <b_epik_Metal_Only>
0

> <s_lp_Force_Field>
OPLS_2005

> <r_lp_Energy>
33.2304

> <b_lp_Chiralities_Consistent>
1

> <s_lp_Variant>
AV-unprocessed.smi:2355-3

> <Gold.Version>
5.8.1

> <Gold.Id.Protein>
6NUR|6NUR_protein|mol2

> <Gold.PLP.Fitness>
41.2558

> <Gold.PLP.PLP>
-35.0664

> <Gold.PLP.part.hbond>
-3.0000

> <Gold.PLP.part.metal>
0.0000

> <Gold.PLP.part.buried>
-4.8202

> <Gold.PLP.part.nonpolar>
-28.0952

> <Gold.PLP.part.repulsive>
0.3803

> <Gold.PLP.ligand.clash>
0.0000

> <Gold.PLP.ligand.torsion>
1.0178

> <Gold.PLP.Chemscore.Hbond>
2.7120

> <Gold.PLP.Chemscore.CHOScore>
0.0000

> <Gold.PLP.Chemscore.Metal>
0.0000

> <Gold.Chemscore.Hbonds>
donor molecule, donor type, donor heavy atom, donor atom, acceptor molecule, acceptor atom, score
      L1  H     8    30       P1  7948  1.00
      L1  H    11    31       P1  7948  0.90
      P1  H 10752 10764       L1    19  0.75

> <Gold.PLP.Chemscore.Internal.Correction>
0.0891

> <Gold.Rescore>
     Score         DG    S(hbond)    S(metal)    S(lipo)     H(rot)  DE(clash)    DE(int)     intcor
     18.20     -21.64       2.72        0.00      91.29       1.40       0.15       3.30       ----

> <Gold.Chemscore.Fitness>
18.1969

> <Gold.Chemscore.DG>
-21.6444

> <Gold.Chemscore.ZeroCoef>
-5.4800

> <Gold.Chemscore.Hbond>
2.7161

> <Gold.Chemscore.Metal>
0.0000

> <Gold.Chemscore.Lipo>
91.2852

> <Gold.Chemscore.Internal_Hbond>
0.0000

> <Gold.Chemscore.DEClash>
0.1468

> <Gold.Chemscore.DEInternal>
3.3008

> <Gold.Chemscore.Rot>
1.4015

> <Gold.Chemscore.Internal.Correction>
   9.000000E+99

> <Gold.Chemscore.Hbonds>
donor molecule, donor type, donor heavy atom, donor atom, acceptor molecule, acceptor atom, score
      L1  H     8    30       P1  7948  0.97
      L1  H    11    31       P1  7948  0.84
      P1  H 10752 10764       L1    19  0.64

> <Gold.Chemscore.Hbond.Weighted>
-9.0718

> <Gold.Chemscore.Metal.Weighted>
-0.0000

> <Gold.Chemscore.Lipo.Weighted>
-10.6804

> <Gold.Chemscore.Internal_Hbond.Weighted>
0.0000

> <Gold.Chemscore.DEClash.Weighted>
0.1468

> <Gold.Chemscore.DEInternal.Weighted>
3.3008

> <Gold.Chemscore.Rot.Weighted>
3.5878

> <Gold.Chemscore.Internal.Correction.Weighted>
   9.000000E+99

> <Gold.Protein.RotatedTorsions>
[ 6907 6896 6895 6894 ] final    9.36 input  -60.11 | X-H torsion
[ 7974 7965 7964 7962 ] final  113.52 input  175.53 | X-H torsion
[ 8008 7997 7996 7995 ] final   96.33 input   59.86 | X-H torsion
[ 10167 10162 10161 10158 ] final -128.76 input  -65.29 | X-H torsion
[ 10718 10713 10712 10709 ] final -172.26 input   66.30 | X-H torsion
[ 10763 10752 10751 10750 ] final  -55.79 input  -60.55 | X-H torsion
[ 11005 11000 10999 10996 ] final  -29.13 input  -57.11 | X-H torsion

> <Gold.Protein.ActiveResidues>
 VAL166  LYS551  ARG553  GLY616  TRP617  ASP618  TYR619  PRO620  LYS621  CYS622 
 ASP623  PHE694  ASN695  SER759  ASP760  ASP761  ALA762  ILE779  LEU786  VAL792 
 PHE793  MET794  SER795  GLU796  ALA797  LYS798  CYS799  TRP800  GLU811  SER814 

> <Gold.Protein.RotatedAtoms>
  151.7208  135.0894  160.0283 H   0  0  0  0  0  0  0  0  0  0  0  0  # atno 6907 bound_to 6896
  152.3603  133.6284  159.6018 H   0  0  0  0  0  0  0  0  0  0  0  0  # atno 6908 bound_to 6896
  150.7599  133.9351  159.3480 H   0  0  0  0  0  0  0  0  0  0  0  0  # atno 6909 bound_to 6896
  145.2159  139.2884  143.4244 H   0  0  0  0  0  0  0  0  0  0  0  0  # atno 7974 bound_to 7965
  156.0785  140.3274  155.7664 H   0  0  0  0  0  0  0  0  0  0  0  0  # atno 8008 bound_to 7997
  155.5191  140.0583  157.2927 H   0  0  0  0  0  0  0  0  0  0  0  0  # atno 8009 bound_to 7997
  154.4569  140.1947  156.0372 H   0  0  0  0  0  0  0  0  0  0  0  0  # atno 8010 bound_to 7997
  139.9469  143.6100  152.2487 H   0  0  0  0  0  0  0  0  0  0  0  0  # atno 10167 bound_to 10162
  156.7530  130.9385  151.3115 H   0  0  0  0  0  0  0  0  0  0  0  0  # atno 10718 bound_to 10713
  154.1964  135.6418  153.5074 H   0  0  0  0  0  0  0  0  0  0  0  0  # atno 10763 bound_to 10752
  153.0022  135.5441  154.6362 H   0  0  0  0  0  0  0  0  0  0  0  0  # atno 10764 bound_to 10752
  154.5763  135.2921  155.0750 H   0  0  0  0  0  0  0  0  0  0  0  0  # atno 10765 bound_to 10752
  140.9269  133.7363  156.0880 H   0  0  0  0  0  0  0  0  0  0  0  0  # atno 11005 bound_to 11000
  146.3387  140.2449  142.8597 LP  0  0  0  0  0  0  0  0  0  0  0  0  # atno 17320 bound_to 7965
  144.9812  140.8460  143.5396 LP  0  0  0  0  0  0  0  0  0  0  0  0  # atno 17321 bound_to 7965
  139.6660  144.7662  151.1873 LP  0  0  0  0  0  0  0  0  0  0  0  0  # atno 17342 bound_to 10162
  140.7594  143.5938  150.8769 LP  0  0  0  0  0  0  0  0  0  0  0  0  # atno 17343 bound_to 10162
  157.6769  130.9103  150.0171 LP  0  0  0  0  0  0  0  0  0  0  0  0  # atno 17370 bound_to 10713
  156.1389  130.3642  149.9613 LP  0  0  0  0  0  0  0  0  0  0  0  0  # atno 17371 bound_to 10713
  140.7914  134.3613  157.5463 LP  0  0  0  0  0  0  0  0  0  0  0  0  # atno 17394 bound_to 11000
  139.8787  134.9142  156.3103 LP  0  0  0  0  0  0  0  0  0  0  0  0  # atno 17395 bound_to 11000

$$$$
