AV-unprocessed.smi:341|AV-procd|sdf|2383|dock10
  -GOLD-   2262022313D 1   1.00000     0.00000
 Structure written by MMmdl.
 44 46  0  0  0  0  0  0  0  0  1 V2000
  153.7577  141.6783  162.0576 C   0  0  0  0  0  0  0  0  0  0  0  0
  154.0640  141.0151  160.7088 C   0  0  0  0  0  0  0  0  0  0  0  0
  152.9886  141.2496  159.7485 N   0  0  0  0  0  0  0  0  0  0  0  0
  152.3282  140.3108  159.0305 C   0  0  0  0  0  0  0  0  0  0  0  0
  152.5155  139.0954  159.0828 O   0  0  0  0  0  0  0  0  0  0  0  0
  151.4264  140.9418  158.2417 N   0  0  0  0  0  0  0  0  0  0  0  0
  150.4962  140.3108  157.3058 C   0  0  0  0  0  0  0  0  0  0  0  0
  150.6445  140.8810  155.8805 C   0  0  1  0  0  0  0  0  0  0  0  0
  151.6427  140.1313  155.2165 O   0  0  0  0  0  0  0  0  0  0  0  0
  149.3475  140.7336  155.0672 C   0  0  0  0  0  0  0  0  0  0  0  0
  148.2381  140.9268  155.9351 O   0  0  0  0  0  0  0  0  0  0  0  0
  147.2493  141.8053  155.5474 C   0  0  0  0  0  0  0  0  0  0  0  0
  147.0827  142.0090  154.1621 C   0  0  0  0  0  0  0  0  0  0  0  0
  146.0975  142.8891  153.6745 C   0  0  0  0  0  0  0  0  0  0  0  0
  145.2625  143.5799  154.5743 C   0  0  0  0  0  0  0  0  0  0  0  0
  144.2447  144.4891  154.0747 C   0  0  0  0  0  0  0  0  0  0  0  0
  143.4342  145.2128  153.6770 N   0  0  0  0  0  0  0  0  0  0  0  0
  145.4185  143.3853  155.9608 C   0  0  0  0  0  0  0  0  0  0  0  0
  146.4048  142.5045  156.4466 C   0  0  0  0  0  0  0  0  0  0  0  0
  151.5146  142.3244  158.4590 C   0  0  0  0  0  0  0  0  0  0  0  0
  150.8037  143.3981  157.8945 C   0  0  0  0  0  0  0  0  0  0  0  0
  151.1401  144.6996  158.3347 C   0  0  0  0  0  0  0  0  0  0  0  0
  152.1555  144.8989  159.3058 C   0  0  0  0  0  0  0  0  0  0  0  0
  152.8550  143.8005  159.8584 C   0  0  0  0  0  0  0  0  0  0  0  0
  152.4990  142.5181  159.4055 C   0  0  0  0  0  0  0  0  0  0  0  0
  154.5644  141.5015  162.7690 H   0  0  0  0  0  0  0  0  0  0  0  0
  152.8390  141.2827  162.4921 H   0  0  0  0  0  0  0  0  0  0  0  0
  153.6406  142.7571  161.9497 H   0  0  0  0  0  0  0  0  0  0  0  0
  155.0058  141.3983  160.3133 H   0  0  0  0  0  0  0  0  0  0  0  0
  154.2075  139.9427  160.8433 H   0  0  0  0  0  0  0  0  0  0  0  0
  150.6114  139.2262  157.3105 H   0  0  0  0  0  0  0  0  0  0  0  0
  149.4856  140.4970  157.6726 H   0  0  0  0  0  0  0  0  0  0  0  0
  150.9311  141.9329  155.9230 H   0  0  0  0  0  0  0  0  0  0  0  0
  151.6061  139.2403  155.5292 H   0  0  0  0  0  0  0  0  0  0  0  0
  149.3332  141.4329  154.2290 H   0  0  0  0  0  0  0  0  0  0  0  0
  149.2866  139.7234  154.6594 H   0  0  0  0  0  0  0  0  0  0  0  0
  147.7181  141.4834  153.4643 H   0  0  0  0  0  0  0  0  0  0  0  0
  145.9879  143.0290  152.6086 H   0  0  0  0  0  0  0  0  0  0  0  0
  144.7832  143.9099  156.6603 H   0  0  0  0  0  0  0  0  0  0  0  0
  146.4929  142.3830  157.5153 H   0  0  0  0  0  0  0  0  0  0  0  0
  150.0317  143.2420  157.1557 H   0  0  0  0  0  0  0  0  0  0  0  0
  150.6179  145.5519  157.9257 H   0  0  0  0  0  0  0  0  0  0  0  0
  152.3975  145.9010  159.6270 H   0  0  0  0  0  0  0  0  0  0  0  0
  153.6293  143.9464  160.5968 H   0  0  0  0  0  0  0  0  0  0  0  0
  1  2  1  0  0  0  0
  1 26  1  0  0  0  0
  1 27  1  0  0  0  0
  1 28  1  0  0  0  0
  2  3  1  0  0  0  0
  2 29  1  0  0  0  0
  2 30  1  0  0  0  0
  3 25  1  0  0  0  0
  3  4  1  0  0  0  0
  4  5  2  0  0  0  0
  4  6  1  0  0  0  0
  6  7  1  0  0  0  0
  6 20  1  0  0  0  0
  7  8  1  0  0  0  0
  7 31  1  0  0  0  0
  7 32  1  0  0  0  0
  8  9  1  0  0  0  0
  8 10  1  0  0  0  0
  8 33  1  0  0  0  0
  9 34  1  0  0  0  0
 10 11  1  0  0  0  0
 10 35  1  0  0  0  0
 10 36  1  0  0  0  0
 11 12  1  0  0  0  0
 12 19  1  0  0  0  0
 12 13  2  0  0  0  0
 13 14  1  0  0  0  0
 13 37  1  0  0  0  0
 14 15  2  0  0  0  0
 14 38  1  0  0  0  0
 15 16  1  0  0  0  0
 15 18  1  0  0  0  0
 16 17  3  0  0  0  0
 18 19  2  0  0  0  0
 18 39  1  0  0  0  0
 19 40  1  0  0  0  0
 20 25  2  0  0  0  0
 20 21  1  0  0  0  0
 21 22  2  0  0  0  0
 21 41  1  0  0  0  0
 22 23  1  0  0  0  0
 22 42  1  0  0  0  0
 23 24  2  0  0  0  0
 23 43  1  0  0  0  0
 24 25  1  0  0  0  0
 24 44  1  0  0  0  0
M  END
> <s_m_source_file>
AV-unprocessed.smi

> <i_m_source_file_index>
341

> <i_lp_mmshare_version>
43012

> <i_f3d_flags>
0

> <s_epik_input>
W2NIXTFbY0hdW2NIXVtjSF1jKGMxMiluKFtDSDJdW0NIM10pYyg9TyluMltDSDJdW0NASF0oW09IXSlbQ0gyXU9jM1tjSF1bY0hdYyhDI04pW2NIXVtjSF0z

> <s_epik_cmdline>
J2VwaWtfcHl0aG9uJywgJy1waCcsICc3LjAnLCAnLXRuJywgJzgnLCAnLW1hJywgJzIwMCcsICctbWV0YWxfYmluZGluZycsICctaW1hZScsICc8aW5maWxlLm1hZT4nLCAnLW9tYWUnLCAnPG91dGZpbGUubWFlPic=

> <r_lp_tautomer_probability>
1

> <r_epik_Ionization_Penalty>
2.40146e-06

> <r_epik_Ionization_Penalty_Charging>
2.16099e-09

> <r_epik_Ionization_Penalty_Neutral>
2.3993e-06

> <r_epik_State_Penalty>
-0

> <r_epik_Charging_Adjusted_Penalty>
2.16099e-09

> <i_epik_Tot_Q>
0

> <i_epik_Tot_abs_Q>
0

> <r_epik_Metal_State_Penalty>
-0

> <b_epik_Metal_Only>
0

> <s_lp_Force_Field>
OPLS_2005

> <r_lp_Energy>
47.9836

> <b_lp_Chiralities_Consistent>
1

> <s_lp_Variant>
AV-unprocessed.smi:341-2

> <Gold.Version>
5.8.1

> <Gold.Id.Protein>
6NUR|6NUR_protein|mol2

> <Gold.PLP.Fitness>
58.0778

> <Gold.PLP.PLP>
-57.8900

> <Gold.PLP.part.hbond>
-2.0000

> <Gold.PLP.part.metal>
0.0000

> <Gold.PLP.part.buried>
-7.4528

> <Gold.PLP.part.nonpolar>
-48.4107

> <Gold.PLP.part.repulsive>
0.1755

> <Gold.PLP.ligand.clash>
0.0000

> <Gold.PLP.ligand.torsion>
1.3572

> <Gold.PLP.Chemscore.Hbond>
0.9440

> <Gold.PLP.Chemscore.CHOScore>
0.0000

> <Gold.PLP.Chemscore.Metal>
0.0000

> <Gold.Chemscore.Hbonds>
donor molecule, donor type, donor heavy atom, donor atom, acceptor molecule, acceptor atom, score
      P1  H  7989  7998       L1     9  0.96

> <Gold.PLP.Chemscore.Internal.Correction>
0.0703

> <Gold.Rescore>
     Score         DG    S(hbond)    S(metal)    S(lipo)     H(rot)  DE(clash)    DE(int)     intcor
     16.27     -17.58       0.85        0.00     133.49       2.48       0.00       1.32       ----

> <Gold.Chemscore.Fitness>
16.2660

> <Gold.Chemscore.DG>
-17.5823

> <Gold.Chemscore.ZeroCoef>
-5.4800

> <Gold.Chemscore.Hbond>
0.8457

> <Gold.Chemscore.Metal>
0.0000

> <Gold.Chemscore.Lipo>
133.4917

> <Gold.Chemscore.Internal_Hbond>
0.0000

> <Gold.Chemscore.DEClash>
0.0000

> <Gold.Chemscore.DEInternal>
1.3163

> <Gold.Chemscore.Rot>
2.4768

> <Gold.Chemscore.Internal.Correction>
   9.000000E+99

> <Gold.Chemscore.Hbonds>
donor molecule, donor type, donor heavy atom, donor atom, acceptor molecule, acceptor atom, score
      P1  H  7989  7998       L1     9  0.37

> <Gold.Chemscore.Hbond.Weighted>
-2.8245

> <Gold.Chemscore.Metal.Weighted>
-0.0000

> <Gold.Chemscore.Lipo.Weighted>
-15.6185

> <Gold.Chemscore.Internal_Hbond.Weighted>
0.0000

> <Gold.Chemscore.DEClash.Weighted>
0.0000

> <Gold.Chemscore.DEInternal.Weighted>
1.3163

> <Gold.Chemscore.Rot.Weighted>
6.3407

> <Gold.Chemscore.Internal.Correction.Weighted>
   9.000000E+99

> <Gold.Protein.RotatedTorsions>
[ 6907 6896 6895 6894 ] final -163.67 input  -60.11 | X-H torsion
[ 7974 7965 7964 7962 ] final   73.99 input  175.53 | X-H torsion
[ 8008 7997 7996 7995 ] final   80.35 input   59.86 | X-H torsion
[ 10167 10162 10161 10158 ] final  135.71 input  -65.29 | X-H torsion
[ 10718 10713 10712 10709 ] final  144.47 input   66.30 | X-H torsion
[ 10763 10752 10751 10750 ] final  173.29 input  -60.55 | X-H torsion
[ 11005 11000 10999 10996 ] final   -9.23 input  -57.11 | X-H torsion

> <Gold.Protein.ActiveResidues>
 VAL166  LYS551  ARG553  GLY616  TRP617  ASP618  TYR619  PRO620  LYS621  CYS622 
 ASP623  PHE694  ASN695  SER759  ASP760  ASP761  ALA762  ILE779  LEU786  VAL792 
 PHE793  MET794  SER795  GLU796  ALA797  LYS798  CYS799  TRP800  GLU811  SER814 

> <Gold.Protein.RotatedAtoms>
  151.3997  133.3761  159.2730 H   0  0  0  0  0  0  0  0  0  0  0  0  # atno 6907 bound_to 6896
  150.9442  134.8850  159.7642 H   0  0  0  0  0  0  0  0  0  0  0  0  # atno 6908 bound_to 6896
  152.5084  134.3949  159.9449 H   0  0  0  0  0  0  0  0  0  0  0  0  # atno 6909 bound_to 6896
  145.7340  139.2694  143.1525 H   0  0  0  0  0  0  0  0  0  0  0  0  # atno 7974 bound_to 7965
  155.8822  140.3443  155.5896 H   0  0  0  0  0  0  0  0  0  0  0  0  # atno 8008 bound_to 7997
  155.7706  140.0845  157.2129 H   0  0  0  0  0  0  0  0  0  0  0  0  # atno 8009 bound_to 7997
  154.4025  140.1519  156.2925 H   0  0  0  0  0  0  0  0  0  0  0  0  # atno 8010 bound_to 7997
  139.5207  144.6503  151.5322 H   0  0  0  0  0  0  0  0  0  0  0  0  # atno 10167 bound_to 10162
  157.3568  131.0959  151.0951 H   0  0  0  0  0  0  0  0  0  0  0  0  # atno 10718 bound_to 10713
  154.4379  135.2761  155.1867 H   0  0  0  0  0  0  0  0  0  0  0  0  # atno 10763 bound_to 10752
  154.3746  135.6101  153.5762 H   0  0  0  0  0  0  0  0  0  0  0  0  # atno 10764 bound_to 10752
  152.9839  135.5865  154.4702 H   0  0  0  0  0  0  0  0  0  0  0  0  # atno 10765 bound_to 10752
  140.7319  133.8742  155.8900 H   0  0  0  0  0  0  0  0  0  0  0  0  # atno 11005 bound_to 11000
  146.0511  140.8068  142.9781 LP  0  0  0  0  0  0  0  0  0  0  0  0  # atno 17320 bound_to 7965
  144.6886  140.3054  143.7256 LP  0  0  0  0  0  0  0  0  0  0  0  0  # atno 17321 bound_to 7965
  140.6305  143.9086  150.6601 LP  0  0  0  0  0  0  0  0  0  0  0  0  # atno 17342 bound_to 10162
  140.2388  143.3679  152.1504 LP  0  0  0  0  0  0  0  0  0  0  0  0  # atno 17343 bound_to 10162
  157.2106  130.6436  149.5772 LP  0  0  0  0  0  0  0  0  0  0  0  0  # atno 17370 bound_to 10713
  155.9730  130.4661  150.6278 LP  0  0  0  0  0  0  0  0  0  0  0  0  # atno 17371 bound_to 10713
  140.9913  134.1274  157.4405 LP  0  0  0  0  0  0  0  0  0  0  0  0  # atno 17394 bound_to 11000
  139.8824  135.0041  156.6229 LP  0  0  0  0  0  0  0  0  0  0  0  0  # atno 17395 bound_to 11000

$$$$
