AV-unprocessed.smi:1563|AV-procd|sdf|6289|dock4
  -GOLD-   22720 6483D 1   1.00000     0.00000
 Structure written by MMmdl.
 43 44  0  0  0  0  0  0  0  0  1 V2000
  150.0805  141.3650  154.9099 C   0  0  0  0  0  0  0  0  0  0  0  0
  150.5432  141.4191  156.3618 C   0  0  0  0  0  0  0  0  0  0  0  0
  151.0727  140.4358  156.8782 O   0  0  0  0  0  0  0  0  0  0  0  0
  150.3356  142.5770  157.0069 N   0  0  0  0  0  0  0  0  0  0  0  0
  150.6921  142.8442  158.3971 C   0  0  2  0  0  0  0  0  0  0  0  0
  150.1836  144.2444  158.8022 C   0  0  0  0  0  0  0  0  0  0  0  0
  150.6953  144.6646  160.1929 C   0  0  0  0  0  0  0  0  0  0  0  0
  152.2182  144.4765  160.2959 C   0  0  0  0  0  0  0  0  0  0  0  0
  152.5392  143.0707  159.9951 N   0  0  0  0  0  0  0  0  0  0  0  0
  152.9633  142.1333  160.8807 C   0  0  0  0  0  0  0  0  0  0  0  0
  153.2974  140.9952  160.5489 O   0  0  0  0  0  0  0  0  0  0  0  0
  152.9759  142.5402  162.1617 N   0  0  0  0  0  0  0  0  0  0  0  0
  153.4387  141.7644  163.3094 C   0  0  0  0  0  0  0  0  0  0  0  0
  153.6840  142.6551  164.5411 C   0  0  0  0  0  0  0  0  0  0  0  0
  154.2183  141.8989  165.7467 C   0  0  0  0  0  0  0  0  0  0  0  0
  154.2993  142.5274  167.0076 C   0  0  0  0  0  0  0  0  0  0  0  0
  154.7870  141.7827  168.0990 C   0  0  0  0  0  0  0  0  0  0  0  0
  155.1727  140.4447  167.8892 C   0  0  0  0  0  0  0  0  0  0  0  0
  155.0519  139.9082  166.5919 C   0  0  0  0  0  0  0  0  0  0  0  0
  154.5873  140.6139  165.5384 N   0  0  0  0  0  0  0  0  0  0  0  0
  152.2209  142.7404  158.5997 C   0  0  0  0  0  0  0  0  0  0  0  0
  150.5297  142.1752  154.3347 H   0  0  0  0  0  0  0  0  0  0  0  0
  148.9958  141.4599  154.8529 H   0  0  0  0  0  0  0  0  0  0  0  0
  150.3657  140.4196  154.4470 H   0  0  0  0  0  0  0  0  0  0  0  0
  149.8948  143.3292  156.4978 H   0  0  0  0  0  0  0  0  0  0  0  0
  150.2025  142.1089  159.0389 H   0  0  0  0  0  0  0  0  0  0  0  0
  150.5241  144.9781  158.0702 H   0  0  0  0  0  0  0  0  0  0  0  0
  149.0936  144.2724  158.7817 H   0  0  0  0  0  0  0  0  0  0  0  0
  150.4303  145.7038  160.3888 H   0  0  0  0  0  0  0  0  0  0  0  0
  150.2015  144.0677  160.9609 H   0  0  0  0  0  0  0  0  0  0  0  0
  152.7210  145.1195  159.5723 H   0  0  0  0  0  0  0  0  0  0  0  0
  152.5717  144.8147  161.2700 H   0  0  0  0  0  0  0  0  0  0  0  0
  152.6763  143.4856  162.3504 H   0  0  0  0  0  0  0  0  0  0  0  0
  152.6786  141.0187  163.5427 H   0  0  0  0  0  0  0  0  0  0  0  0
  154.3491  141.2101  163.0764 H   0  0  0  0  0  0  0  0  0  0  0  0
  154.3840  143.4516  164.2847 H   0  0  0  0  0  0  0  0  0  0  0  0
  152.7546  143.1530  164.8204 H   0  0  0  0  0  0  0  0  0  0  0  0
  153.9912  143.5545  167.1379 H   0  0  0  0  0  0  0  0  0  0  0  0
  154.8626  142.2295  169.0793 H   0  0  0  0  0  0  0  0  0  0  0  0
  155.5505  139.8435  168.7027 H   0  0  0  0  0  0  0  0  0  0  0  0
  155.3368  138.8854  166.3947 H   0  0  0  0  0  0  0  0  0  0  0  0
  152.5710  141.7468  158.3154 H   0  0  0  0  0  0  0  0  0  0  0  0
  152.7407  143.4350  157.9378 H   0  0  0  0  0  0  0  0  0  0  0  0
  1  2  1  0  0  0  0
  1 22  1  0  0  0  0
  1 23  1  0  0  0  0
  1 24  1  0  0  0  0
  2  3  2  0  0  0  0
  2  4  1  0  0  0  0
  4  5  1  0  0  0  0
  4 25  1  0  0  0  0
  5 21  1  0  0  0  0
  5  6  1  0  0  0  0
  5 26  1  0  0  0  0
  6  7  1  0  0  0  0
  6 27  1  0  0  0  0
  6 28  1  0  0  0  0
  7  8  1  0  0  0  0
  7 29  1  0  0  0  0
  7 30  1  0  0  0  0
  8  9  1  0  0  0  0
  8 31  1  0  0  0  0
  8 32  1  0  0  0  0
  9 10  1  0  0  0  0
  9 21  1  0  0  0  0
 10 11  2  0  0  0  0
 10 12  1  0  0  0  0
 12 13  1  0  0  0  0
 12 33  1  0  0  0  0
 13 14  1  0  0  0  0
 13 34  1  0  0  0  0
 13 35  1  0  0  0  0
 14 15  1  0  0  0  0
 14 36  1  0  0  0  0
 14 37  1  0  0  0  0
 15 20  1  0  0  0  0
 15 16  2  0  0  0  0
 16 17  1  0  0  0  0
 16 38  1  0  0  0  0
 17 18  2  0  0  0  0
 17 39  1  0  0  0  0
 18 19  1  0  0  0  0
 18 40  1  0  0  0  0
 19 20  2  0  0  0  0
 19 41  1  0  0  0  0
 21 42  1  0  0  0  0
 21 43  1  0  0  0  0
M  END
> <s_m_source_file>
AV-unprocessed.smi

> <i_m_source_file_index>
1563

> <i_lp_mmshare_version>
43012

> <i_f3d_flags>
0

> <s_epik_input>
W0NIM11DKD1PKVtOSF1bQ0BASF0xW0NIMl1bQ0gyXVtDSDJdTihbQ0gyXTEpQyg9TylbTkhdW0NIMl1bQ0gyXWMyW2NIXVtjSF1bY0hdW2NIXW4y

> <s_epik_cmdline>
J2VwaWtfcHl0aG9uJywgJy1waCcsICc3LjAnLCAnLXRuJywgJzgnLCAnLW1hJywgJzIwMCcsICctbWV0YWxfYmluZGluZycsICctaW1hZScsICc8aW5maWxlLm1hZT4nLCAnLW9tYWUnLCAnPG91dGZpbGUubWFlPic=

> <r_epik_Ionization_Penalty>
0.0442074

> <r_epik_Ionization_Penalty_Charging>
0

> <r_epik_Ionization_Penalty_Neutral>
0.0442074

> <r_epik_State_Penalty>
0.0374027

> <r_epik_Charging_Adjusted_Penalty>
0.0374027

> <i_epik_Tot_Q>
0

> <i_epik_Tot_abs_Q>
0

> <r_epik_Metal_State_Penalty>
0.0347963

> <b_epik_Metal_Only>
0

> <s_lp_Force_Field>
OPLS_2005

> <r_lp_Energy>
29.1558

> <b_lp_Chiralities_Consistent>
1

> <s_lp_Variant>
AV-unprocessed.smi:1563-1

> <Gold.Version>
5.8.1

> <Gold.Id.Protein>
6NUR|6NUR_protein|mol2

> <Gold.PLP.Fitness>
47.5741

> <Gold.PLP.PLP>
-45.0396

> <Gold.PLP.part.hbond>
-1.0000

> <Gold.PLP.part.metal>
0.0000

> <Gold.PLP.part.buried>
-3.9148

> <Gold.PLP.part.nonpolar>
-38.5185

> <Gold.PLP.part.repulsive>
0.0577

> <Gold.PLP.ligand.clash>
0.0000

> <Gold.PLP.ligand.torsion>
0.2406

> <Gold.PLP.Chemscore.Hbond>
1.0000

> <Gold.PLP.Chemscore.CHOScore>
0.0000

> <Gold.PLP.Chemscore.Metal>
0.0000

> <Gold.Chemscore.Hbonds>
donor molecule, donor type, donor heavy atom, donor atom, acceptor molecule, acceptor atom, score
      L1  H     4    25       P1  8028  1.00

> <Gold.PLP.Chemscore.Internal.Correction>
0.0157

> <Gold.Rescore>
     Score         DG    S(hbond)    S(metal)    S(lipo)     H(rot)  DE(clash)    DE(int)     intcor
     15.85     -16.49       1.00        0.00     102.34       1.68       0.06       0.58       ----

> <Gold.Chemscore.Fitness>
15.8550

> <Gold.Chemscore.DG>
-16.4898

> <Gold.Chemscore.ZeroCoef>
-5.4800

> <Gold.Chemscore.Hbond>
0.9999

> <Gold.Chemscore.Metal>
0.0000

> <Gold.Chemscore.Lipo>
102.3441

> <Gold.Chemscore.Internal_Hbond>
0.0000

> <Gold.Chemscore.DEClash>
0.0595

> <Gold.Chemscore.DEInternal>
0.5754

> <Gold.Chemscore.Rot>
1.6813

> <Gold.Chemscore.Internal.Correction>
   9.000000E+99

> <Gold.Chemscore.Hbonds>
donor molecule, donor type, donor heavy atom, donor atom, acceptor molecule, acceptor atom, score
      L1  H     4    25       P1  8028  1.00

> <Gold.Chemscore.Hbond.Weighted>
-3.3398

> <Gold.Chemscore.Metal.Weighted>
-0.0000

> <Gold.Chemscore.Lipo.Weighted>
-11.9743

> <Gold.Chemscore.Internal_Hbond.Weighted>
0.0000

> <Gold.Chemscore.DEClash.Weighted>
0.0595

> <Gold.Chemscore.DEInternal.Weighted>
0.5754

> <Gold.Chemscore.Rot.Weighted>
4.3042

> <Gold.Chemscore.Internal.Correction.Weighted>
   9.000000E+99

> <Gold.Protein.RotatedTorsions>
[ 6907 6896 6895 6894 ] final   91.07 input  -60.11 | X-H torsion
[ 7974 7965 7964 7962 ] final   16.62 input  175.53 | X-H torsion
[ 8008 7997 7996 7995 ] final -133.86 input   59.86 | X-H torsion
[ 10167 10162 10161 10158 ] final  -94.84 input  -65.29 | X-H torsion
[ 10718 10713 10712 10709 ] final -147.78 input   66.30 | X-H torsion
[ 10763 10752 10751 10750 ] final -155.67 input  -60.55 | X-H torsion
[ 11005 11000 10999 10996 ] final   89.05 input  -57.11 | X-H torsion

> <Gold.Protein.ActiveResidues>
 VAL166  LYS551  ARG553  GLY616  TRP617  ASP618  TYR619  PRO620  LYS621  CYS622 
 ASP623  PHE694  ASN695  SER759  ASP760  ASP761  ALA762  ILE779  LEU786  VAL792 
 PHE793  MET794  SER795  GLU796  ALA797  LYS798  CYS799  TRP800  GLU811  SER814 

> <Gold.Protein.RotatedAtoms>
  152.5448  134.1714  159.8598 H   0  0  0  0  0  0  0  0  0  0  0  0  # atno 6907 bound_to 6896
  151.1724  133.4769  159.2601 H   0  0  0  0  0  0  0  0  0  0  0  0  # atno 6908 bound_to 6896
  151.1261  135.0117  159.8616 H   0  0  0  0  0  0  0  0  0  0  0  0  # atno 6909 bound_to 6896
  146.2244  139.8722  142.8585 H   0  0  0  0  0  0  0  0  0  0  0  0  # atno 7974 bound_to 7965
  155.3525  140.0478  157.3046 H   0  0  0  0  0  0  0  0  0  0  0  0  # atno 8008 bound_to 7997
  154.5220  140.2228  155.8923 H   0  0  0  0  0  0  0  0  0  0  0  0  # atno 8009 bound_to 7997
  156.1699  140.3098  155.8961 H   0  0  0  0  0  0  0  0  0  0  0  0  # atno 8010 bound_to 7997
  140.3102  143.3109  152.0156 H   0  0  0  0  0  0  0  0  0  0  0  0  # atno 10167 bound_to 10162
  156.4119  130.7986  151.2204 H   0  0  0  0  0  0  0  0  0  0  0  0  # atno 10718 bound_to 10713
  154.7770  135.3162  154.8071 H   0  0  0  0  0  0  0  0  0  0  0  0  # atno 10763 bound_to 10752
  153.8792  135.6836  153.4772 H   0  0  0  0  0  0  0  0  0  0  0  0  # atno 10764 bound_to 10752
  153.1396  135.4745  154.9412 H   0  0  0  0  0  0  0  0  0  0  0  0  # atno 10765 bound_to 10752
  139.8883  134.8527  156.3087 H   0  0  0  0  0  0  0  0  0  0  0  0  # atno 11005 bound_to 11000
  145.2597  141.0073  143.3834 LP  0  0  0  0  0  0  0  0  0  0  0  0  # atno 17320 bound_to 7965
  144.9308  139.4300  143.6496 LP  0  0  0  0  0  0  0  0  0  0  0  0  # atno 17321 bound_to 7965
  139.4895  144.6390  151.6916 LP  0  0  0  0  0  0  0  0  0  0  0  0  # atno 17342 bound_to 10162
  140.5574  144.0325  150.6154 LP  0  0  0  0  0  0  0  0  0  0  0  0  # atno 17343 bound_to 10162
  157.7507  131.0255  150.3921 LP  0  0  0  0  0  0  0  0  0  0  0  0  # atno 17370 bound_to 10713
  156.4221  130.3955  149.6818 LP  0  0  0  0  0  0  0  0  0  0  0  0  # atno 17371 bound_to 10713
  140.9865  133.7235  156.0749 LP  0  0  0  0  0  0  0  0  0  0  0  0  # atno 17394 bound_to 11000
  140.7681  134.3863  157.5513 LP  0  0  0  0  0  0  0  0  0  0  0  0  # atno 17395 bound_to 11000

$$$$
