AV-unprocessed.smi:542|AV-procd|sdf|2873|dock3
  -GOLD-   2262023363D 1   1.00000     0.00000
 Structure written by MMmdl.
 46 48  0  0  0  0  0  0  0  0  1 V2000
  148.6916  139.7232  154.0891 C   0  0  0  0  0  0  0  0  0  0  0  0
  150.0266  140.0654  154.4177 O   0  0  0  0  0  0  0  0  0  0  0  0
  150.4086  139.5896  155.6968 C   0  0  0  0  0  0  0  0  0  0  0  0
  151.7252  140.2716  156.1038 C   0  0  0  0  0  0  0  0  0  0  0  0
  152.2139  139.8082  157.3989 N   0  0  0  0  0  0  0  0  0  0  0  0
  152.4106  140.5046  158.5578 C   0  0  0  0  0  0  0  0  0  0  0  0
  152.1793  141.8816  158.6884 N   0  0  0  0  0  0  0  0  0  0  0  0
  151.5055  142.7758  157.7429 C   0  0  0  0  0  0  0  0  0  0  0  0
  150.4106  143.6190  158.4223 C   0  0  0  0  0  0  0  0  0  0  0  0
  151.0000  144.4582  159.5674 C   0  0  0  0  0  0  0  0  0  0  0  0
  149.9176  145.2462  160.3181 C   0  0  0  0  0  0  0  0  0  0  0  0
  151.7954  143.5360  160.5053 C   0  0  0  0  0  0  0  0  0  0  0  0
  152.8217  142.7033  159.7173 C   0  0  0  0  0  0  0  0  0  0  0  0
  152.8159  139.7494  159.5849 N   0  0  0  0  0  0  0  0  0  0  0  0
  152.8991  138.4798  159.0405 C   0  0  0  0  0  0  0  0  0  0  0  0
  152.5345  138.4904  157.7353 C   0  0  0  0  0  0  0  0  0  0  0  0
  152.5011  137.2665  156.9221 C   0  0  0  0  0  0  0  0  0  0  0  0
  152.1512  137.2423  155.7442 O   0  0  0  0  0  0  0  0  0  0  0  0
  152.8943  136.1637  157.6046 N   0  0  0  0  0  0  0  0  0  0  0  0
  153.2844  136.0892  158.9139 C   0  0  0  0  0  0  0  0  0  0  0  0
  153.6238  135.0055  159.3882 O   0  0  0  0  0  0  0  0  0  0  0  0
  153.2773  137.2500  159.6466 N   0  0  0  0  0  0  0  0  0  0  0  0
  153.6672  137.2772  161.0577 C   0  0  0  0  0  0  0  0  0  0  0  0
  152.8982  135.2962  157.0880 H   0  0  0  0  0  0  0  0  0  0  0  0
  148.4464  140.1125  153.1009 H   0  0  0  0  0  0  0  0  0  0  0  0
  147.9872  140.1510  154.8037 H   0  0  0  0  0  0  0  0  0  0  0  0
  148.5557  138.6410  154.0677 H   0  0  0  0  0  0  0  0  0  0  0  0
  149.6240  139.8084  156.4213 H   0  0  0  0  0  0  0  0  0  0  0  0
  150.5210  138.5058  155.6723 H   0  0  0  0  0  0  0  0  0  0  0  0
  152.4906  140.1225  155.3468 H   0  0  0  0  0  0  0  0  0  0  0  0
  151.5870  141.3516  156.1508 H   0  0  0  0  0  0  0  0  0  0  0  0
  152.2513  143.4370  157.2995 H   0  0  0  0  0  0  0  0  0  0  0  0
  151.0868  142.2195  156.9101 H   0  0  0  0  0  0  0  0  0  0  0  0
  149.9392  144.2710  157.6865 H   0  0  0  0  0  0  0  0  0  0  0  0
  149.6243  142.9688  158.8068 H   0  0  0  0  0  0  0  0  0  0  0  0
  151.6960  145.1782  159.1341 H   0  0  0  0  0  0  0  0  0  0  0  0
  149.1877  144.5788  160.7775 H   0  0  0  0  0  0  0  0  0  0  0  0
  149.3804  145.9142  159.6443 H   0  0  0  0  0  0  0  0  0  0  0  0
  150.3546  145.8568  161.1087 H   0  0  0  0  0  0  0  0  0  0  0  0
  152.3071  144.1270  161.2658 H   0  0  0  0  0  0  0  0  0  0  0  0
  151.1163  142.8670  161.0364 H   0  0  0  0  0  0  0  0  0  0  0  0
  153.3697  142.0689  160.4144 H   0  0  0  0  0  0  0  0  0  0  0  0
  153.5615  143.3550  159.2504 H   0  0  0  0  0  0  0  0  0  0  0  0
  153.8255  136.2898  161.4927 H   0  0  0  0  0  0  0  0  0  0  0  0
  152.8948  137.7688  161.6506 H   0  0  0  0  0  0  0  0  0  0  0  0
  154.5914  137.8436  161.1761 H   0  0  0  0  0  0  0  0  0  0  0  0
  1  2  1  0  0  0  0
  1 25  1  0  0  0  0
  1 26  1  0  0  0  0
  1 27  1  0  0  0  0
  2  3  1  0  0  0  0
  3  4  1  0  0  0  0
  3 28  1  0  0  0  0
  3 29  1  0  0  0  0
  4  5  1  0  0  0  0
  4 30  1  0  0  0  0
  4 31  1  0  0  0  0
  5 16  1  0  0  0  0
  5  6  1  0  0  0  0
  6  7  1  0  0  0  0
  6 14  2  0  0  0  0
  7 13  1  0  0  0  0
  7  8  1  0  0  0  0
  8  9  1  0  0  0  0
  8 32  1  0  0  0  0
  8 33  1  0  0  0  0
  9 10  1  0  0  0  0
  9 34  1  0  0  0  0
  9 35  1  0  0  0  0
 10 11  1  0  0  0  0
 10 12  1  0  0  0  0
 10 36  1  0  0  0  0
 11 37  1  0  0  0  0
 11 38  1  0  0  0  0
 11 39  1  0  0  0  0
 12 13  1  0  0  0  0
 12 40  1  0  0  0  0
 12 41  1  0  0  0  0
 13 42  1  0  0  0  0
 13 43  1  0  0  0  0
 14 15  1  0  0  0  0
 15 22  1  0  0  0  0
 15 16  2  0  0  0  0
 16 17  1  0  0  0  0
 17 18  2  0  0  0  0
 17 19  1  0  0  0  0
 19 24  1  0  0  0  0
 19 20  1  0  0  0  0
 20 21  2  0  0  0  0
 20 22  1  0  0  0  0
 22 23  1  0  0  0  0
 23 44  1  0  0  0  0
 23 45  1  0  0  0  0
 23 46  1  0  0  0  0
M  END
> <s_m_source_file>
AV-unprocessed.smi

> <i_m_source_file_index>
542

> <i_lp_mmshare_version>
43012

> <i_f3d_flags>
0

> <s_epik_input>
W0NIM11uMWMoPU8pW25IXWMoPU8pYyhjMTIpbihbQ0gyXVtDSDJdT1tDSDNdKWMobjIpTjNbQ0gyXVtDSDJdW0NIXShbQ0gzXSlbQ0gyXVtDSDJdMw==

> <s_epik_cmdline>
J2VwaWtfcHl0aG9uJywgJy1waCcsICc3LjAnLCAnLXRuJywgJzgnLCAnLW1hJywgJzIwMCcsICctbWV0YWxfYmluZGluZycsICctaW1hZScsICc8aW5maWxlLm1hZT4nLCAnLW9tYWUnLCAnPG91dGZpbGUubWFlPic=

> <r_lp_tautomer_probability>
1

> <r_epik_Ionization_Penalty>
0.000855395

> <r_epik_Ionization_Penalty_Charging>
0.000124032

> <r_epik_Ionization_Penalty_Neutral>
0.000731363

> <r_epik_State_Penalty>
-0

> <r_epik_Charging_Adjusted_Penalty>
0.000124032

> <i_epik_Tot_Q>
0

> <i_epik_Tot_abs_Q>
0

> <r_epik_Metal_State_Penalty>
0.0946135

> <b_epik_Metal_Only>
0

> <s_lp_Force_Field>
OPLS_2005

> <r_lp_Energy>
39.151

> <b_lp_Chiralities_Consistent>
1

> <s_lp_Variant>
AV-unprocessed.smi:542-1

> <Gold.Version>
5.8.1

> <Gold.Id.Protein>
6NUR|6NUR_protein|mol2

> <Gold.PLP.Fitness>
42.2704

> <Gold.PLP.PLP>
-34.3832

> <Gold.PLP.part.hbond>
-3.0000

> <Gold.PLP.part.metal>
0.0000

> <Gold.PLP.part.buried>
-2.6343

> <Gold.PLP.part.nonpolar>
-29.3575

> <Gold.PLP.part.repulsive>
0.3013

> <Gold.PLP.ligand.clash>
0.0000

> <Gold.PLP.ligand.torsion>
0.1992

> <Gold.PLP.Chemscore.Hbond>
2.7360

> <Gold.PLP.Chemscore.CHOScore>
0.0000

> <Gold.PLP.Chemscore.Metal>
0.0000

> <Gold.Chemscore.Hbonds>
donor molecule, donor type, donor heavy atom, donor atom, acceptor molecule, acceptor atom, score
      P1  H  6896  6908       L1    21  0.47
      P1  H  7989  7998       L1     2  1.00
      P1  H 10752 10765       L1    18  0.74

> <Gold.PLP.Chemscore.Internal.Correction>
0.0776

> <Gold.Rescore>
     Score         DG    S(hbond)    S(metal)    S(lipo)     H(rot)  DE(clash)    DE(int)     intcor
     17.70     -19.90       2.14        0.00      93.96       1.46       0.90       1.30       ----

> <Gold.Chemscore.Fitness>
17.7021

> <Gold.Chemscore.DG>
-19.8995

> <Gold.Chemscore.ZeroCoef>
-5.4800

> <Gold.Chemscore.Hbond>
2.1416

> <Gold.Chemscore.Metal>
0.0000

> <Gold.Chemscore.Lipo>
93.9609

> <Gold.Chemscore.Internal_Hbond>
0.0000

> <Gold.Chemscore.DEClash>
0.8985

> <Gold.Chemscore.DEInternal>
1.2989

> <Gold.Chemscore.Rot>
1.4557

> <Gold.Chemscore.Internal.Correction>
   9.000000E+99

> <Gold.Chemscore.Hbonds>
donor molecule, donor type, donor heavy atom, donor atom, acceptor molecule, acceptor atom, score
      P1  H  6896  6908       L1    21  0.27
      P1  H  7989  7998       L1     2  0.68
      P1  H 10752 10765       L1    18  0.43

> <Gold.Chemscore.Hbond.Weighted>
-7.1528

> <Gold.Chemscore.Metal.Weighted>
-0.0000

> <Gold.Chemscore.Lipo.Weighted>
-10.9934

> <Gold.Chemscore.Internal_Hbond.Weighted>
0.0000

> <Gold.Chemscore.DEClash.Weighted>
0.8985

> <Gold.Chemscore.DEInternal.Weighted>
1.2989

> <Gold.Chemscore.Rot.Weighted>
3.7267

> <Gold.Chemscore.Internal.Correction.Weighted>
   9.000000E+99

> <Gold.Protein.RotatedTorsions>
[ 6907 6896 6895 6894 ] final  -46.08 input  -60.11 | X-H torsion
[ 7974 7965 7964 7962 ] final   39.76 input  175.53 | X-H torsion
[ 8008 7997 7996 7995 ] final  173.88 input   59.86 | X-H torsion
[ 10167 10162 10161 10158 ] final -163.30 input  -65.29 | X-H torsion
[ 10718 10713 10712 10709 ] final -171.07 input   66.30 | X-H torsion
[ 10763 10752 10751 10750 ] final -163.10 input  -60.55 | X-H torsion
[ 11005 11000 10999 10996 ] final -121.16 input  -57.11 | X-H torsion

> <Gold.Protein.ActiveResidues>
 VAL166  LYS551  ARG553  GLY616  TRP617  ASP618  TYR619  PRO620  LYS621  CYS622 
 ASP623  PHE694  ASN695  SER759  ASP760  ASP761  ALA762  ILE779  LEU786  VAL792 
 PHE793  MET794  SER795  GLU796  ALA797  LYS798  CYS799  TRP800  GLU811  SER814 

> <Gold.Protein.RotatedAtoms>
  150.9151  134.8568  159.7450 H   0  0  0  0  0  0  0  0  0  0  0  0  # atno 6907 bound_to 6896
  152.4964  134.4302  159.9519 H   0  0  0  0  0  0  0  0  0  0  0  0  # atno 6908 bound_to 6896
  151.4340  133.3622  159.2808 H   0  0  0  0  0  0  0  0  0  0  0  0  # atno 6909 bound_to 6896
  146.0959  139.5613  142.9446 H   0  0  0  0  0  0  0  0  0  0  0  0  # atno 7974 bound_to 7965
  156.1031  140.1449  156.9441 H   0  0  0  0  0  0  0  0  0  0  0  0  # atno 8008 bound_to 7997
  154.4716  140.0908  156.7202 H   0  0  0  0  0  0  0  0  0  0  0  0  # atno 8009 bound_to 7997
  155.4726  140.3442  155.4330 H   0  0  0  0  0  0  0  0  0  0  0  0  # atno 8010 bound_to 7997
  139.6331  144.0402  152.2032 H   0  0  0  0  0  0  0  0  0  0  0  0  # atno 10167 bound_to 10162
  156.7354  130.9322  151.3107 H   0  0  0  0  0  0  0  0  0  0  0  0  # atno 10718 bound_to 10713
  154.7154  135.3014  154.9132 H   0  0  0  0  0  0  0  0  0  0  0  0  # atno 10763 bound_to 10752
  154.0020  135.6705  153.4764 H   0  0  0  0  0  0  0  0  0  0  0  0  # atno 10764 bound_to 10752
  153.0789  135.5020  154.8377 H   0  0  0  0  0  0  0  0  0  0  0  0  # atno 10765 bound_to 10752
  141.0091  134.0292  157.3438 H   0  0  0  0  0  0  0  0  0  0  0  0  # atno 11005 bound_to 11000
  145.5950  141.0364  143.2049 LP  0  0  0  0  0  0  0  0  0  0  0  0  # atno 17320 bound_to 7965
  144.7395  139.7490  143.7316 LP  0  0  0  0  0  0  0  0  0  0  0  0  # atno 17321 bound_to 7965
  140.0072  144.6250  150.7678 LP  0  0  0  0  0  0  0  0  0  0  0  0  # atno 17342 bound_to 10162
  140.7450  143.2869  151.3438 LP  0  0  0  0  0  0  0  0  0  0  0  0  # atno 17343 bound_to 10162
  157.6841  130.9168  150.0341 LP  0  0  0  0  0  0  0  0  0  0  0  0  # atno 17370 bound_to 10713
  156.1500  130.3642  149.9452 LP  0  0  0  0  0  0  0  0  0  0  0  0  # atno 17371 bound_to 10713
  139.9079  135.0184  156.7568 LP  0  0  0  0  0  0  0  0  0  0  0  0  # atno 17394 bound_to 11000
  140.6764  133.9513  155.7885 LP  0  0  0  0  0  0  0  0  0  0  0  0  # atno 17395 bound_to 11000

$$$$
