AV-unprocessed.smi:160|AV-procd|sdf|1363|dock2
  -GOLD-   2262019 73D 1   1.00000     0.00000
 Structure written by MMmdl.
 28 29  0  0  0  0  0  0  0  0  2 V2000
  149.3368  135.4861  158.8361 N   0  5  0  0  0  0  0  0  0  0  0  0
  149.3189  136.8016  158.5285 C   0  0  0  0  0  0  0  0  0  0  0  0
  149.1385  137.7306  159.3150 O   0  0  0  0  0  0  0  0  0  0  0  0
  149.5452  137.1059  157.0665 C   0  0  0  0  0  0  0  0  0  0  0  0
  149.7651  136.0966  156.1703 N   0  0  0  0  0  0  0  0  0  0  0  0
  149.8983  136.8187  155.0661 C   0  0  0  0  0  0  0  0  0  0  0  0
  149.8033  138.1389  155.2593 N   0  0  0  0  0  0  0  0  0  0  0  0
  149.8286  139.2761  154.2877 C   0  0  2  0  0  0  0  0  0  0  0  0
  150.7477  140.2247  154.7476 O   0  0  0  0  0  0  0  0  0  0  0  0
  150.0830  141.3502  155.3176 C   0  0  2  0  0  0  0  0  0  0  0  0
  149.8323  141.1223  156.8266 C   0  0  0  0  0  0  0  0  0  0  0  0
  149.1976  142.2537  157.3829 O   0  0  0  0  0  0  0  0  0  0  0  0
  148.8209  141.4320  154.4475 C   0  0  2  0  0  0  0  0  0  0  0  0
  147.7651  142.1401  155.0668 O   0  0  0  0  0  0  0  0  0  0  0  0
  148.4563  139.9730  154.2034 C   0  0  1  0  0  0  0  0  0  0  0  0
  147.8740  139.8332  152.9233 O   0  0  0  0  0  0  0  0  0  0  0  0
  149.5360  138.3475  156.5712 N   0  0  0  0  0  0  0  0  0  0  0  0
  150.1709  138.8279  153.3538 H   0  0  0  0  0  0  0  0  0  0  0  0
  150.6867  142.2489  155.1829 H   0  0  0  0  0  0  0  0  0  0  0  0
  149.0776  141.9205  153.5056 H   0  0  0  0  0  0  0  0  0  0  0  0
  147.7874  139.6007  154.9814 H   0  0  0  0  0  0  0  0  0  0  0  0
  148.5936  134.8856  158.4595 H   0  0  0  0  0  0  0  0  0  0  0  0
  150.0717  136.3752  154.0966 H   0  0  0  0  0  0  0  0  0  0  0  0
  149.1539  140.2831  156.9787 H   0  0  0  0  0  0  0  0  0  0  0  0
  150.7437  140.8889  157.3747 H   0  0  0  0  0  0  0  0  0  0  0  0
  149.1099  142.9100  156.7085 H   0  0  0  0  0  0  0  0  0  0  0  0
  148.1167  142.9386  155.4303 H   0  0  0  0  0  0  0  0  0  0  0  0
  148.5698  139.7822  152.2850 H   0  0  0  0  0  0  0  0  0  0  0  0
  1  2  1  0  0  0  0
  1 22  1  0  0  0  0
  2  3  2  0  0  0  0
  2  4  1  0  0  0  0
  4 17  2  0  0  0  0
  4  5  1  0  0  0  0
  5  6  2  0  0  0  0
  6  7  1  0  0  0  0
  6 23  1  0  0  0  0
  7  8  1  0  0  0  0
  7 17  1  0  0  0  0
  8 18  1  0  0  0  0
  8 15  1  0  0  0  0
  8  9  1  0  0  0  0
  9 10  1  0  0  0  0
 10 19  1  0  0  0  0
 10 11  1  0  0  0  0
 10 13  1  0  0  0  0
 11 12  1  0  0  0  0
 11 24  1  0  0  0  0
 11 25  1  0  0  0  0
 12 26  1  0  0  0  0
 13 20  1  0  0  0  0
 13 14  1  0  0  0  0
 13 15  1  0  0  0  0
 14 27  1  0  0  0  0
 15 21  1  0  0  0  0
 15 16  1  0  0  0  0
 16 28  1  0  0  0  0
M  CHG  1   1  -1
M  END
> <s_m_source_file>
AV-unprocessed.smi

> <i_m_source_file_index>
160

> <i_lp_mmshare_version>
43012

> <i_f3d_flags>
0

> <s_epik_input>
W05IMl1DKD1PKWMxbltjSF1uKG4xKVtDQEBIXTJPW0NASF0oW0NIMl1bT0hdKVtDQEBIXShbT0hdKVtDQEhdMltPSF0=

> <s_epik_cmdline>
J2VwaWtfcHl0aG9uJywgJy1waCcsICc3LjAnLCAnLXRuJywgJzgnLCAnLW1hJywgJzIwMCcsICctbWV0YWxfYmluZGluZycsICctaW1hZScsICc8aW5maWxlLm1hZT4nLCAnLW9tYWUnLCAnPG91dGZpbGUubWFlPic=

> <r_lp_tautomer_probability>
1

> <r_epik_Ionization_Penalty>
6.6993

> <r_epik_Ionization_Penalty_Charging>
6.6993

> <r_epik_Ionization_Penalty_Neutral>
6.01698e-06

> <r_epik_State_Penalty>
6.69929

> <r_epik_Charging_Adjusted_Penalty>
13.3986

> <i_epik_Tot_Q>
-1

> <i_epik_Tot_abs_Q>
1

> <r_epik_Metal_State_Penalty>
2.62798

> <b_epik_Metal_Only>
1

> <s_epik_Chemistry_Notes>
This compound contains an acetal/aminal-like group ( X-CH(R)-Y where X, Y are N, S, or O) that may be acid/base labile, releasing an aldehyde.

> <s_lp_Force_Field>
OPLS_2005

> <r_lp_Energy>
38.9008

> <b_lp_Chiralities_Consistent>
1

> <s_lp_Variant>
AV-unprocessed.smi:160-21

> <Gold.Version>
5.8.1

> <Gold.Id.Protein>
6NUR|6NUR_protein|mol2

> <Gold.PLP.Fitness>
44.6478

> <Gold.PLP.PLP>
-23.7714

> <Gold.PLP.part.hbond>
-6.3779

> <Gold.PLP.part.metal>
0.0000

> <Gold.PLP.part.buried>
-3.0818

> <Gold.PLP.part.nonpolar>
-14.0134

> <Gold.PLP.part.repulsive>
0.1043

> <Gold.PLP.ligand.clash>
0.0000

> <Gold.PLP.ligand.torsion>
0.1035

> <Gold.PLP.Chemscore.Hbond>
6.0000

> <Gold.PLP.Chemscore.CHOScore>
1.0089

> <Gold.PLP.Chemscore.Metal>
0.0000

> <Gold.Chemscore.Hbonds>
donor molecule, donor type, donor heavy atom, donor atom, acceptor molecule, acceptor atom, score
      L1  H    12    26       P1  8028  0.83
      L1  H    14    27       P1  8028  1.00
      L1  H    16    28       P1  7957  1.00
      P1  H  6896  6907       L1     1  2.00
      P1  H  7989  7998       L1     9  1.00
      L1  C     6    23       P1  7948  0.97
      L1  C     6    23       P1  7949  0.02

> <Gold.PLP.Chemscore.Internal.Correction>
0.0567

> <Gold.Rescore>
     Score         DG    S(hbond)    S(metal)    S(lipo)     H(rot)  DE(clash)    DE(int)     intcor
     11.22     -12.96       4.39        0.00      27.07       4.04       0.16       1.58       ----

> <Gold.Chemscore.Fitness>
11.2249

> <Gold.Chemscore.DG>
-12.9593

> <Gold.Chemscore.ZeroCoef>
-5.4800

> <Gold.Chemscore.Hbond>
4.3878

> <Gold.Chemscore.Metal>
0.0000

> <Gold.Chemscore.Lipo>
27.0685

> <Gold.Chemscore.Internal_Hbond>
0.0000

> <Gold.Chemscore.DEClash>
0.1559

> <Gold.Chemscore.DEInternal>
1.5785

> <Gold.Chemscore.Rot>
4.0403

> <Gold.Chemscore.Internal.Correction>
   9.000000E+99

> <Gold.Chemscore.Hbonds>
donor molecule, donor type, donor heavy atom, donor atom, acceptor molecule, acceptor atom, score
      L1  H    12    26       P1  8028  0.79
      L1  H    14    27       P1  8028  0.92
      L1  H    16    28       P1  7957  0.94
      P1  H  6896  6907       L1     1  0.95
      P1  H  7989  7998       L1     9  0.37

> <Gold.Chemscore.Hbond.Weighted>
-14.6554

> <Gold.Chemscore.Metal.Weighted>
-0.0000

> <Gold.Chemscore.Lipo.Weighted>
-3.1670

> <Gold.Chemscore.Internal_Hbond.Weighted>
0.0000

> <Gold.Chemscore.DEClash.Weighted>
0.1559

> <Gold.Chemscore.DEInternal.Weighted>
1.5785

> <Gold.Chemscore.Rot.Weighted>
10.3431

> <Gold.Chemscore.Internal.Correction.Weighted>
   9.000000E+99

> <Gold.Protein.RotatedTorsions>
[ 6907 6896 6895 6894 ] final  -53.28 input  -60.11 | X-H torsion
[ 7974 7965 7964 7962 ] final -156.97 input  175.53 | X-H torsion
[ 8008 7997 7996 7995 ] final -170.86 input   59.86 | X-H torsion
[ 10167 10162 10161 10158 ] final   80.87 input  -65.29 | X-H torsion
[ 10718 10713 10712 10709 ] final  -82.31 input   66.30 | X-H torsion
[ 10763 10752 10751 10750 ] final -151.09 input  -60.55 | X-H torsion
[ 11005 11000 10999 10996 ] final  135.88 input  -57.11 | X-H torsion

> <Gold.Protein.ActiveResidues>
 VAL166  LYS551  ARG553  GLY616  TRP617  ASP618  TYR619  PRO620  LYS621  CYS622 
 ASP623  PHE694  ASN695  SER759  ASP760  ASP761  ALA762  ILE779  LEU786  VAL792 
 PHE793  MET794  SER795  GLU796  ALA797  LYS798  CYS799  TRP800  GLU811  SER814 

> <Gold.Protein.RotatedAtoms>
  150.8441  134.7744  159.6955 H   0  0  0  0  0  0  0  0  0  0  0  0  # atno 6907 bound_to 6896
  152.4522  134.5366  159.9836 H   0  0  0  0  0  0  0  0  0  0  0  0  # atno 6908 bound_to 6896
  151.5500  133.3381  159.2987 H   0  0  0  0  0  0  0  0  0  0  0  0  # atno 6909 bound_to 6896
  144.7569  140.4034  143.6006 H   0  0  0  0  0  0  0  0  0  0  0  0  # atno 7974 bound_to 7965
  155.9239  140.1079  157.1185 H   0  0  0  0  0  0  0  0  0  0  0  0  # atno 8008 bound_to 7997
  154.4059  140.1250  156.4780 H   0  0  0  0  0  0  0  0  0  0  0  0  # atno 8009 bound_to 7997
  155.7162  140.3470  155.4998 H   0  0  0  0  0  0  0  0  0  0  0  0  # atno 8010 bound_to 7997
  139.9452  144.6063  150.8214 H   0  0  0  0  0  0  0  0  0  0  0  0  # atno 10167 bound_to 10162
  156.0035  130.4630  150.4085 H   0  0  0  0  0  0  0  0  0  0  0  0  # atno 10718 bound_to 10713
  154.8079  135.3268  154.7383 H   0  0  0  0  0  0  0  0  0  0  0  0  # atno 10763 bound_to 10752
  153.8038  135.6901  153.4856 H   0  0  0  0  0  0  0  0  0  0  0  0  # atno 10764 bound_to 10752
  153.1837  135.4577  155.0006 H   0  0  0  0  0  0  0  0  0  0  0  0  # atno 10765 bound_to 10752
  140.0009  134.9479  157.0069 H   0  0  0  0  0  0  0  0  0  0  0  0  # atno 11005 bound_to 11000
  145.6750  139.1607  143.2733 LP  0  0  0  0  0  0  0  0  0  0  0  0  # atno 17320 bound_to 7965
  146.1589  140.6817  142.9287 LP  0  0  0  0  0  0  0  0  0  0  0  0  # atno 17321 bound_to 7965
  140.7599  143.3140  151.2778 LP  0  0  0  0  0  0  0  0  0  0  0  0  # atno 17342 bound_to 10162
  139.6673  144.0083  152.2731 LP  0  0  0  0  0  0  0  0  0  0  0  0  # atno 17343 bound_to 10162
  157.2150  131.0469  151.2578 LP  0  0  0  0  0  0  0  0  0  0  0  0  # atno 17370 bound_to 10713
  157.3854  130.7253  149.6659 LP  0  0  0  0  0  0  0  0  0  0  0  0  # atno 17371 bound_to 10713
  140.4730  134.1367  155.7206 LP  0  0  0  0  0  0  0  0  0  0  0  0  # atno 17394 bound_to 11000
  141.1641  133.8737  157.1766 LP  0  0  0  0  0  0  0  0  0  0  0  0  # atno 17395 bound_to 11000

$$$$
