AV-unprocessed.smi:1199|AV-procd|sdf|5018|dock2
  -GOLD-   22720 4 33D 1   1.00000     0.00000
 Structure written by MMmdl.
 41 42  0  0  0  0  0  0  0  0  1 V2000
  147.0117  141.8332  153.9617 C   0  0  0  0  0  0  0  0  0  0  0  0
  147.7782  140.7614  154.7478 C   0  0  2  0  0  0  0  0  0  0  0  0
  149.2240  140.6030  154.2258 C   0  0  0  0  0  0  0  0  0  0  0  0
  150.1440  139.9062  155.1271 N   0  0  0  0  0  0  0  0  0  0  0  0
  150.7915  140.7990  156.0842 C   0  0  0  0  0  0  0  0  0  0  0  0
  151.7267  140.0279  157.0311 C   0  0  0  0  0  0  0  0  0  0  0  0
  152.6968  139.3173  156.2680 O   0  0  0  0  0  0  0  0  0  0  0  0
  152.1105  138.4102  155.3397 C   0  0  0  0  0  0  0  0  0  0  0  0
  151.1688  139.1749  154.3926 C   0  0  0  0  0  0  0  0  0  0  0  0
  147.0732  139.4852  154.6399 N   0  0  0  0  0  0  0  0  0  0  0  0
  146.6778  138.9048  153.4961 C   0  0  0  0  0  0  0  0  0  0  0  0
  146.9880  139.3174  152.3780 O   0  0  0  0  0  0  0  0  0  0  0  0
  145.7798  137.6703  153.6365 C   0  0  0  0  0  0  0  0  0  0  0  0
  146.0468  136.6810  152.5829 N   0  0  0  0  0  0  0  0  0  0  0  0
  145.8713  137.1610  151.2940 N   0  0  0  0  0  0  0  0  0  0  0  0
  146.0405  136.3748  150.2854 C   0  0  0  0  0  0  0  0  0  0  0  0
  145.8516  136.8898  149.0266 O   0  0  0  0  0  0  0  0  0  0  0  0
  146.4169  134.9904  150.4695 C   0  0  0  0  0  0  0  0  0  0  0  0
  146.5947  134.5338  151.7286 C   0  0  0  0  0  0  0  0  0  0  0  0
  146.4161  135.3997  152.8952 C   0  0  0  0  0  0  0  0  0  0  0  0
  146.5797  135.0128  154.0523 O   0  0  0  0  0  0  0  0  0  0  0  0
  145.3705  137.6930  149.1546 H   0  0  0  0  0  0  0  0  0  0  0  0
  147.5100  142.8004  154.0320 H   0  0  0  0  0  0  0  0  0  0  0  0
  145.9997  141.9554  154.3493 H   0  0  0  0  0  0  0  0  0  0  0  0
  146.9352  141.5751  152.9048 H   0  0  0  0  0  0  0  0  0  0  0  0
  147.8079  141.0923  155.7866 H   0  0  0  0  0  0  0  0  0  0  0  0
  149.1752  140.0515  153.2857 H   0  0  0  0  0  0  0  0  0  0  0  0
  149.6315  141.5827  153.9730 H   0  0  0  0  0  0  0  0  0  0  0  0
  151.3615  141.5622  155.5523 H   0  0  0  0  0  0  0  0  0  0  0  0
  150.0481  141.3255  156.6802 H   0  0  0  0  0  0  0  0  0  0  0  0
  152.2360  140.7160  157.7055 H   0  0  0  0  0  0  0  0  0  0  0  0
  151.1586  139.3320  157.6509 H   0  0  0  0  0  0  0  0  0  0  0  0
  152.9012  137.9179  154.7734 H   0  0  0  0  0  0  0  0  0  0  0  0
  151.5681  137.6308  155.8773 H   0  0  0  0  0  0  0  0  0  0  0  0
  150.7003  138.4687  153.7061 H   0  0  0  0  0  0  0  0  0  0  0  0
  151.7508  139.8665  153.7814 H   0  0  0  0  0  0  0  0  0  0  0  0
  146.7748  139.0617  155.5065 H   0  0  0  0  0  0  0  0  0  0  0  0
  145.9502  137.2366  154.6234 H   0  0  0  0  0  0  0  0  0  0  0  0
  144.7270  137.9594  153.6181 H   0  0  0  0  0  0  0  0  0  0  0  0
  146.5504  134.3447  149.6139 H   0  0  0  0  0  0  0  0  0  0  0  0
  146.8748  133.5017  151.8807 H   0  0  0  0  0  0  0  0  0  0  0  0
  1  2  1  0  0  0  0
  1 23  1  0  0  0  0
  1 24  1  0  0  0  0
  1 25  1  0  0  0  0
  2  3  1  0  0  0  0
  2 10  1  0  0  0  0
  2 26  1  0  0  0  0
  3  4  1  0  0  0  0
  3 27  1  0  0  0  0
  3 28  1  0  0  0  0
  4  9  1  0  0  0  0
  4  5  1  0  0  0  0
  5  6  1  0  0  0  0
  5 29  1  0  0  0  0
  5 30  1  0  0  0  0
  6  7  1  0  0  0  0
  6 31  1  0  0  0  0
  6 32  1  0  0  0  0
  7  8  1  0  0  0  0
  8  9  1  0  0  0  0
  8 33  1  0  0  0  0
  8 34  1  0  0  0  0
  9 35  1  0  0  0  0
  9 36  1  0  0  0  0
 10 11  1  0  0  0  0
 10 37  1  0  0  0  0
 11 12  2  0  0  0  0
 11 13  1  0  0  0  0
 13 38  1  0  0  0  0
 13 39  1  0  0  0  0
 13 14  1  0  0  0  0
 14 15  1  0  0  0  0
 14 20  1  0  0  0  0
 15 16  2  0  0  0  0
 16 17  1  0  0  0  0
 16 18  1  0  0  0  0
 17 22  1  0  0  0  0
 18 40  1  0  0  0  0
 18 19  2  0  0  0  0
 19 41  1  0  0  0  0
 19 20  1  0  0  0  0
 20 21  2  0  0  0  0
M  END
> <s_m_source_file>
AV-unprocessed.smi

> <i_m_source_file_index>
1199

> <i_lp_mmshare_version>
43012

> <i_f3d_flags>
0

> <s_epik_input>
W0NIMl0xW0NIMl1PW0NIMl1bQ0gyXU4xW0NIMl1bQ0BASF0oW0NIM10pW05IXUMoPU8pW0NIMl1uMltuSF1jKD1PKVtjSF1bY0hdYzI9Tw==

> <s_epik_cmdline>
J2VwaWtfcHl0aG9uJywgJy1waCcsICc3LjAnLCAnLXRuJywgJzgnLCAnLW1hJywgJzIwMCcsICctbWV0YWxfYmluZGluZycsICctaW1hZScsICc8aW5maWxlLm1hZT4nLCAnLW9tYWUnLCAnPG91dGZpbGUubWFlPic=

> <r_epik_Ionization_Penalty>
2.36432

> <r_epik_Ionization_Penalty_Charging>
3.67277e-08

> <r_epik_Ionization_Penalty_Neutral>
2.36432

> <r_epik_State_Penalty>
1.96081

> <r_epik_Charging_Adjusted_Penalty>
1.96081

> <i_epik_Tot_Q>
0

> <i_epik_Tot_abs_Q>
0

> <r_epik_Metal_State_Penalty>
1.96081

> <b_epik_Metal_Only>
0

> <s_lp_Force_Field>
OPLS_2005

> <r_lp_Energy>
35.6953

> <b_lp_Chiralities_Consistent>
1

> <s_lp_Variant>
AV-unprocessed.smi:1199-5

> <Gold.Version>
5.8.1

> <Gold.Id.Protein>
6NUR|6NUR_protein|mol2

> <Gold.PLP.Fitness>
35.6094

> <Gold.PLP.PLP>
-31.3465

> <Gold.PLP.part.hbond>
-3.0000

> <Gold.PLP.part.metal>
0.0000

> <Gold.PLP.part.buried>
-5.1065

> <Gold.PLP.part.nonpolar>
-24.0638

> <Gold.PLP.part.repulsive>
0.6178

> <Gold.PLP.ligand.clash>
0.0000

> <Gold.PLP.ligand.torsion>
0.9272

> <Gold.PLP.Chemscore.Hbond>
2.0000

> <Gold.PLP.Chemscore.CHOScore>
0.0000

> <Gold.PLP.Chemscore.Metal>
0.0000

> <Gold.Chemscore.Hbonds>
donor molecule, donor type, donor heavy atom, donor atom, acceptor molecule, acceptor atom, score
      L1  H    17    22       P1 10171  1.00
      P1  H  7997  8010       L1     7  1.00

> <Gold.PLP.Chemscore.Internal.Correction>
0.1173

> <Gold.Rescore>
     Score         DG    S(hbond)    S(metal)    S(lipo)     H(rot)  DE(clash)    DE(int)     intcor
      7.41     -11.16       1.98        0.00      56.33       2.94       0.24       3.51       ----

> <Gold.Chemscore.Fitness>
7.4147

> <Gold.Chemscore.DG>
-11.1638

> <Gold.Chemscore.ZeroCoef>
-5.4800

> <Gold.Chemscore.Hbond>
1.9847

> <Gold.Chemscore.Metal>
0.0000

> <Gold.Chemscore.Lipo>
56.3307

> <Gold.Chemscore.Internal_Hbond>
0.0000

> <Gold.Chemscore.DEClash>
0.2352

> <Gold.Chemscore.DEInternal>
3.5139

> <Gold.Chemscore.Rot>
2.9437

> <Gold.Chemscore.Internal.Correction>
   9.000000E+99

> <Gold.Chemscore.Hbonds>
donor molecule, donor type, donor heavy atom, donor atom, acceptor molecule, acceptor atom, score
      L1  H    17    22       P1 10171  0.95
      P1  H  7997  8010       L1     7  0.88

> <Gold.Chemscore.Hbond.Weighted>
-6.6291

> <Gold.Chemscore.Metal.Weighted>
-0.0000

> <Gold.Chemscore.Lipo.Weighted>
-6.5907

> <Gold.Chemscore.Internal_Hbond.Weighted>
0.0000

> <Gold.Chemscore.DEClash.Weighted>
0.2352

> <Gold.Chemscore.DEInternal.Weighted>
3.5139

> <Gold.Chemscore.Rot.Weighted>
7.5359

> <Gold.Chemscore.Internal.Correction.Weighted>
   9.000000E+99

> <Gold.Protein.RotatedTorsions>
[ 6907 6896 6895 6894 ] final  -81.39 input  -60.11 | X-H torsion
[ 7974 7965 7964 7962 ] final   30.01 input  175.53 | X-H torsion
[ 8008 7997 7996 7995 ] final   83.70 input   59.86 | X-H torsion
[ 10167 10162 10161 10158 ] final   34.05 input  -65.29 | X-H torsion
[ 10718 10713 10712 10709 ] final -142.38 input   66.30 | X-H torsion
[ 10763 10752 10751 10750 ] final  118.74 input  -60.55 | X-H torsion
[ 11005 11000 10999 10996 ] final -105.04 input  -57.11 | X-H torsion

> <Gold.Protein.ActiveResidues>
 VAL166  LYS551  ARG553  GLY616  TRP617  ASP618  TYR619  PRO620  LYS621  CYS622 
 ASP623  PHE694  ASN695  SER759  ASP760  ASP761  ALA762  ILE779  LEU786  VAL792 
 PHE793  MET794  SER795  GLU796  ALA797  LYS798  CYS799  TRP800  GLU811  SER814 

> <Gold.Protein.RotatedAtoms>
  150.6913  134.3824  159.5039 H   0  0  0  0  0  0  0  0  0  0  0  0  # atno 6907 bound_to 6896
  152.1625  134.8898  160.0550 H   0  0  0  0  0  0  0  0  0  0  0  0  # atno 6908 bound_to 6896
  151.9955  133.3771  159.4198 H   0  0  0  0  0  0  0  0  0  0  0  0  # atno 6909 bound_to 6896
  146.1637  139.6845  142.9016 H   0  0  0  0  0  0  0  0  0  0  0  0  # atno 7974 bound_to 7965
  155.9274  140.3417  155.6221 H   0  0  0  0  0  0  0  0  0  0  0  0  # atno 8008 bound_to 7997
  155.7199  140.0782  157.2353 H   0  0  0  0  0  0  0  0  0  0  0  0  # atno 8009 bound_to 7997
  154.4079  140.1607  156.2378 H   0  0  0  0  0  0  0  0  0  0  0  0  # atno 8010 bound_to 7997
  140.4351  144.1269  150.6165 H   0  0  0  0  0  0  0  0  0  0  0  0  # atno 10167 bound_to 10162
  156.3452  130.7658  151.1802 H   0  0  0  0  0  0  0  0  0  0  0  0  # atno 10718 bound_to 10713
  153.5722  135.3500  155.2842 H   0  0  0  0  0  0  0  0  0  0  0  0  # atno 10763 bound_to 10752
  154.8680  135.4162  154.2712 H   0  0  0  0  0  0  0  0  0  0  0  0  # atno 10764 bound_to 10752
  153.3481  135.7053  153.6881 H   0  0  0  0  0  0  0  0  0  0  0  0  # atno 10765 bound_to 10752
  141.1072  133.8774  157.1686 H   0  0  0  0  0  0  0  0  0  0  0  0  # atno 11005 bound_to 11000
  145.4522  141.0429  143.2798 LP  0  0  0  0  0  0  0  0  0  0  0  0  # atno 17320 bound_to 7965
  144.8063  139.6046  143.7049 LP  0  0  0  0  0  0  0  0  0  0  0  0  # atno 17321 bound_to 7965
  140.4383  143.2537  151.9506 LP  0  0  0  0  0  0  0  0  0  0  0  0  # atno 17342 bound_to 10162
  139.4786  144.5679  151.8136 LP  0  0  0  0  0  0  0  0  0  0  0  0  # atno 17343 bound_to 10162
  157.7453  131.0443  150.4787 LP  0  0  0  0  0  0  0  0  0  0  0  0  # atno 17370 bound_to 10713
  156.4974  130.4109  149.6372 LP  0  0  0  0  0  0  0  0  0  0  0  0  # atno 17371 bound_to 10713
  139.9948  135.0051  157.0057 LP  0  0  0  0  0  0  0  0  0  0  0  0  # atno 17394 bound_to 11000
  140.4871  134.1231  155.7226 LP  0  0  0  0  0  0  0  0  0  0  0  0  # atno 17395 bound_to 11000

$$$$
