AV-unprocessed.smi:1013|AV-procd|sdf|4426|dock9
  -GOLD-   22720 2383D 1   1.00000     0.00000
 Structure written by MMmdl.
 30 31  0  0  0  0  0  0  0  0  3 V2000
  150.8266  139.9896  154.5340 O   0  0  0  0  0  0  0  0  0  0  0  0
  151.4433  140.3306  155.5668 C   0  0  0  0  0  0  0  0  0  0  0  0
  152.3964  139.7005  156.0789 O   0  5  0  0  0  0  0  0  0  0  0  0
  150.9758  141.6227  156.2628 C   0  0  2  0  0  0  0  0  0  0  0  0
  150.6210  141.3590  157.7442 C   0  0  0  0  0  0  0  0  0  0  0  0
  151.7199  141.6595  158.6466 N   0  0  0  0  0  0  0  0  0  0  0  0
  152.1084  142.8834  159.1470 C   0  0  0  0  0  0  0  0  0  0  0  0
  153.1898  142.6677  159.9515 C   0  0  0  0  0  0  0  0  0  0  0  0
  153.3939  141.2585  159.8875 C   0  0  0  0  0  0  0  0  0  0  0  0
  154.4508  140.4348  160.5750 C   0  0  0  0  0  0  0  0  0  0  0  0
  154.4837  140.7196  161.8769 F   0  0  0  0  0  0  0  0  0  0  0  0
  154.1832  139.1374  160.4272 F   0  0  0  0  0  0  0  0  0  0  0  0
  155.6472  140.6953  160.0486 F   0  0  0  0  0  0  0  0  0  0  0  0
  152.5016  140.6614  159.1088 N   0  0  0  0  0  0  0  0  0  0  0  0
  149.7957  142.1627  155.5527 N   0  3  0  0  0  0  0  0  0  0  0  0
  148.6056  141.2873  155.5806 C   0  0  0  0  0  0  0  0  0  0  0  0
  148.1979  140.7693  154.2235 C   0  0  0  0  0  0  0  0  0  0  0  0
  147.4126  141.8868  154.8784 C   0  0  0  0  0  0  0  0  0  0  0  0
  151.7645  142.3773  156.2232 H   0  0  0  0  0  0  0  0  0  0  0  0
  149.7781  141.9852  158.0386 H   0  0  0  0  0  0  0  0  0  0  0  0
  150.2997  140.3265  157.8957 H   0  0  0  0  0  0  0  0  0  0  0  0
  151.5928  143.7962  158.8879 H   0  0  0  0  0  0  0  0  0  0  0  0
  153.7533  143.4059  160.5024 H   0  0  0  0  0  0  0  0  0  0  0  0
  149.5628  143.0527  155.9705 H   0  0  0  0  0  0  0  0  0  0  0  0
  148.4614  140.6884  156.4780 H   0  0  0  0  0  0  0  0  0  0  0  0
  148.8212  141.0238  153.3680 H   0  0  0  0  0  0  0  0  0  0  0  0
  147.7296  139.7879  154.1823 H   0  0  0  0  0  0  0  0  0  0  0  0
  146.4259  141.6409  155.2658 H   0  0  0  0  0  0  0  0  0  0  0  0
  147.5097  142.8845  154.4536 H   0  0  0  0  0  0  0  0  0  0  0  0
  150.0484  142.3113  154.5870 H   0  0  0  0  0  0  0  0  0  0  0  0
  1  2  2  0  0  0  0
  2  3  1  0  0  0  0
  2  4  1  0  0  0  0
  4  5  1  0  0  0  0
  4 15  1  0  0  0  0
  4 19  1  0  0  0  0
  5  6  1  0  0  0  0
  5 20  1  0  0  0  0
  5 21  1  0  0  0  0
  6 14  1  0  0  0  0
  6  7  1  0  0  0  0
  7  8  2  0  0  0  0
  7 22  1  0  0  0  0
  8  9  1  0  0  0  0
  8 23  1  0  0  0  0
  9 10  1  0  0  0  0
  9 14  2  0  0  0  0
 10 11  1  0  0  0  0
 10 12  1  0  0  0  0
 10 13  1  0  0  0  0
 15 16  1  0  0  0  0
 15 24  1  0  0  0  0
 15 30  1  0  0  0  0
 16 18  1  0  0  0  0
 16 17  1  0  0  0  0
 16 25  1  0  0  0  0
 17 18  1  0  0  0  0
 17 26  1  0  0  0  0
 17 27  1  0  0  0  0
 18 28  1  0  0  0  0
 18 29  1  0  0  0  0
M  CHG  1   3  -1
M  CHG  1  15   1
M  END
> <s_m_source_file>
AV-unprocessed.smi

> <i_m_source_file_index>
1013

> <i_lp_mmshare_version>
43012

> <i_f3d_flags>
0

> <s_epik_input>
W0NIMl0xW0NIMl1bQ0hdMVtOSF1bQ0BIXShDKD1PKVtPSF0pW0NIMl1uMltjSF1bY0hdYyhuMilDKEYpKEYpRg==

> <s_epik_cmdline>
J2VwaWtfcHl0aG9uJywgJy1waCcsICc3LjAnLCAnLXRuJywgJzgnLCAnLW1hJywgJzIwMCcsICctbWV0YWxfYmluZGluZycsICctaW1hZScsICc8aW5maWxlLm1hZT4nLCAnLW9tYWUnLCAnPG91dGZpbGUubWFlPic=

> <r_lp_tautomer_probability>
1

> <r_epik_Ionization_Penalty>
0.183175

> <r_epik_Ionization_Penalty_Charging>
0.183175

> <r_epik_Ionization_Penalty_Neutral>
3.57035e-11

> <r_epik_State_Penalty>
0.172705

> <r_epik_Charging_Adjusted_Penalty>
0.35588

> <i_epik_Tot_Q>
0

> <i_epik_Tot_abs_Q>
2

> <r_epik_Metal_State_Penalty>
0.172705

> <b_epik_Metal_Only>
0

> <s_lp_Force_Field>
OPLS_2005

> <r_lp_Energy>
11.6824

> <b_lp_Chiralities_Consistent>
1

> <s_lp_Variant>
AV-unprocessed.smi:1013-1

> <Gold.Version>
5.8.1

> <Gold.Id.Protein>
6NUR|6NUR_protein|mol2

> <Gold.PLP.Fitness>
52.3150

> <Gold.PLP.PLP>
-39.5332

> <Gold.PLP.part.hbond>
-3.0000

> <Gold.PLP.part.metal>
0.0000

> <Gold.PLP.part.buried>
-3.2508

> <Gold.PLP.part.nonpolar>
-33.3306

> <Gold.PLP.part.repulsive>
0.2754

> <Gold.PLP.ligand.clash>
0.0000

> <Gold.PLP.ligand.torsion>
1.4449

> <Gold.PLP.Chemscore.Hbond>
5.0000

> <Gold.PLP.Chemscore.CHOScore>
0.0000

> <Gold.PLP.Chemscore.Metal>
0.0000

> <Gold.Chemscore.Hbonds>
donor molecule, donor type, donor heavy atom, donor atom, acceptor molecule, acceptor atom, score
      L1  H    15    24       P1  8028  1.79
      P1  H  7989  7998       L1     1  0.90
      P1  H  7997  8009       L1     3  1.95

> <Gold.PLP.Chemscore.Internal.Correction>
0.6716

> <Gold.Rescore>
     Score         DG    S(hbond)    S(metal)    S(lipo)     H(rot)  DE(clash)    DE(int)     intcor
     13.30     -16.14       2.79        0.00      68.26       2.60       0.36       2.48       ----

> <Gold.Chemscore.Fitness>
13.2953

> <Gold.Chemscore.DG>
-16.1367

> <Gold.Chemscore.ZeroCoef>
-5.4800

> <Gold.Chemscore.Hbond>
2.7901

> <Gold.Chemscore.Metal>
0.0000

> <Gold.Chemscore.Lipo>
68.2589

> <Gold.Chemscore.Internal_Hbond>
0.0000

> <Gold.Chemscore.DEClash>
0.3588

> <Gold.Chemscore.DEInternal>
2.4826

> <Gold.Chemscore.Rot>
2.5970

> <Gold.Chemscore.Internal.Correction>
   9.000000E+99

> <Gold.Chemscore.Hbonds>
donor molecule, donor type, donor heavy atom, donor atom, acceptor molecule, acceptor atom, score
      L1  H    15    24       P1  8028  0.88
      P1  H  7989  7998       L1     1  0.17
      P1  H  7997  8009       L1     3  0.92

> <Gold.Chemscore.Hbond.Weighted>
-9.3188

> <Gold.Chemscore.Metal.Weighted>
-0.0000

> <Gold.Chemscore.Lipo.Weighted>
-7.9863

> <Gold.Chemscore.Internal_Hbond.Weighted>
0.0000

> <Gold.Chemscore.DEClash.Weighted>
0.3588

> <Gold.Chemscore.DEInternal.Weighted>
2.4826

> <Gold.Chemscore.Rot.Weighted>
6.6484

> <Gold.Chemscore.Internal.Correction.Weighted>
   9.000000E+99

> <Gold.Protein.RotatedTorsions>
[ 6907 6896 6895 6894 ] final   19.29 input  -60.11 | X-H torsion
[ 7974 7965 7964 7962 ] final   33.29 input  175.53 | X-H torsion
[ 8008 7997 7996 7995 ] final -145.26 input   59.86 | X-H torsion
[ 10167 10162 10161 10158 ] final   59.95 input  -65.29 | X-H torsion
[ 10718 10713 10712 10709 ] final  -33.68 input   66.30 | X-H torsion
[ 10763 10752 10751 10750 ] final  -74.84 input  -60.55 | X-H torsion
[ 11005 11000 10999 10996 ] final  -23.32 input  -57.11 | X-H torsion

> <Gold.Protein.ActiveResidues>
 VAL166  LYS551  ARG553  GLY616  TRP617  ASP618  TYR619  PRO620  LYS621  CYS622 
 ASP623  PHE694  ASN695  SER759  ASP760  ASP761  ALA762  ILE779  LEU786  VAL792 
 PHE793  MET794  SER795  GLU796  ALA797  LYS798  CYS799  TRP800  GLU811  SER814 

> <Gold.Protein.RotatedAtoms>
  151.8786  135.0462  160.0486 H   0  0  0  0  0  0  0  0  0  0  0  0  # atno 6907 bound_to 6896
  152.2530  133.5227  159.5345 H   0  0  0  0  0  0  0  0  0  0  0  0  # atno 6908 bound_to 6896
  150.7090  134.0850  159.3954 H   0  0  0  0  0  0  0  0  0  0  0  0  # atno 6909 bound_to 6896
  146.1430  139.6416  142.9150 H   0  0  0  0  0  0  0  0  0  0  0  0  # atno 7974 bound_to 7965
  155.5402  140.0607  157.2871 H   0  0  0  0  0  0  0  0  0  0  0  0  # atno 8008 bound_to 7997
  154.4454  140.1920  156.0627 H   0  0  0  0  0  0  0  0  0  0  0  0  # atno 8009 bound_to 7997
  156.0590  140.3275  155.7443 H   0  0  0  0  0  0  0  0  0  0  0  0  # atno 8010 bound_to 7997
  140.1709  144.4278  150.6662 H   0  0  0  0  0  0  0  0  0  0  0  0  # atno 10167 bound_to 10162
  156.3597  130.4321  149.7634 H   0  0  0  0  0  0  0  0  0  0  0  0  # atno 10718 bound_to 10713
  154.4785  135.5851  153.6373 H   0  0  0  0  0  0  0  0  0  0  0  0  # atno 10763 bound_to 10752
  152.9844  135.6084  154.3276 H   0  0  0  0  0  0  0  0  0  0  0  0  # atno 10764 bound_to 10752
  154.3165  135.2844  155.2520 H   0  0  0  0  0  0  0  0  0  0  0  0  # atno 10765 bound_to 10752
  140.8740  133.7700  156.0221 H   0  0  0  0  0  0  0  0  0  0  0  0  # atno 11005 bound_to 11000
  145.5002  141.0437  143.2544 LP  0  0  0  0  0  0  0  0  0  0  0  0  # atno 17320 bound_to 7965
  144.7814  139.6518  143.7153 LP  0  0  0  0  0  0  0  0  0  0  0  0  # atno 17321 bound_to 7965
  140.6583  143.2244  151.5917 LP  0  0  0  0  0  0  0  0  0  0  0  0  # atno 17342 bound_to 10162
  139.5338  144.2839  152.1207 LP  0  0  0  0  0  0  0  0  0  0  0  0  # atno 17343 bound_to 10162
  156.4803  130.8038  151.3052 LP  0  0  0  0  0  0  0  0  0  0  0  0  # atno 17370 bound_to 10713
  157.7472  131.0008  150.2939 LP  0  0  0  0  0  0  0  0  0  0  0  0  # atno 17371 bound_to 10713
  140.8539  134.2921  157.5263 LP  0  0  0  0  0  0  0  0  0  0  0  0  # atno 17394 bound_to 11000
  139.8714  134.9482  156.3991 LP  0  0  0  0  0  0  0  0  0  0  0  0  # atno 17395 bound_to 11000

$$$$
