AV-unprocessed.smi:2069|AV-procd|sdf|8435|dock5
  -GOLD-   2272011133D 1   1.00000     0.00000
 Structure written by MMmdl.
 37 38  0  0  0  0  0  0  0  0  2 V2000
  154.4126  141.1252  160.5935 C   0  0  0  0  0  0  0  0  0  0  0  0
  153.4040  141.1090  159.4966 C   0  0  0  0  0  0  0  0  0  0  0  0
  153.3827  140.1680  158.5497 N   0  0  0  0  0  0  0  0  0  0  0  0
  152.3560  140.3669  157.6379 N   0  0  0  0  0  0  0  0  0  0  0  0
  151.6234  141.4582  157.9006 C   0  0  0  0  0  0  0  0  0  0  0  0
  150.5799  141.8251  157.1383 N   0  5  0  0  0  0  0  0  0  0  0  0
  150.3705  141.2255  155.9443 C   0  0  0  0  0  0  0  0  0  0  0  0
  151.1449  140.4601  155.3650 O   0  0  0  0  0  0  0  0  0  0  0  0
  149.1926  141.5358  155.3839 N   0  0  0  0  0  0  0  0  0  0  0  0
  148.7040  141.0543  154.0937 C   0  0  0  0  0  0  0  0  0  0  0  0
  147.3069  140.3717  154.1740 C   0  0  2  0  0  0  0  0  0  0  0  0
  147.0934  139.5169  152.8986 C   0  0  0  0  0  0  0  0  0  0  0  0
  146.1986  141.3260  154.4140 N   0  0  0  0  0  0  0  0  0  0  0  0
  146.4518  142.6491  153.8320 C   0  0  0  0  0  0  0  0  0  0  0  0
  145.3194  143.6521  154.1121 C   0  0  0  0  0  0  0  0  0  0  0  0
  145.1141  143.7673  155.5134 O   0  0  0  0  0  0  0  0  0  0  0  0
  144.7877  142.5186  156.1071 C   0  0  0  0  0  0  0  0  0  0  0  0
  145.9168  141.5077  155.8427 C   0  0  0  0  0  0  0  0  0  0  0  0
  152.1503  142.3279  159.3417 S   0  0  0  0  0  0  0  0  0  0  0  0
  155.3605  141.5142  160.2212 H   0  0  0  0  0  0  0  0  0  0  0  0
  154.5719  140.1165  160.9755 H   0  0  0  0  0  0  0  0  0  0  0  0
  154.0713  141.7579  161.4131 H   0  0  0  0  0  0  0  0  0  0  0  0
  148.5892  142.1643  155.8937 H   0  0  0  0  0  0  0  0  0  0  0  0
  148.7039  141.9114  153.4216 H   0  0  0  0  0  0  0  0  0  0  0  0
  149.4372  140.3521  153.6964 H   0  0  0  0  0  0  0  0  0  0  0  0
  147.3369  139.6795  155.0169 H   0  0  0  0  0  0  0  0  0  0  0  0
  147.9324  138.8518  152.6980 H   0  0  0  0  0  0  0  0  0  0  0  0
  146.9593  140.1483  152.0197 H   0  0  0  0  0  0  0  0  0  0  0  0
  146.2276  138.8617  152.9791 H   0  0  0  0  0  0  0  0  0  0  0  0
  147.3932  143.0478  154.2134 H   0  0  0  0  0  0  0  0  0  0  0  0
  146.5497  142.5820  152.7507 H   0  0  0  0  0  0  0  0  0  0  0  0
  145.5740  144.6320  153.7081 H   0  0  0  0  0  0  0  0  0  0  0  0
  144.3951  143.3365  153.6256 H   0  0  0  0  0  0  0  0  0  0  0  0
  144.6501  142.6603  157.1789 H   0  0  0  0  0  0  0  0  0  0  0  0
  143.8400  142.1528  155.7083 H   0  0  0  0  0  0  0  0  0  0  0  0
  145.6139  140.5664  156.2976 H   0  0  0  0  0  0  0  0  0  0  0  0
  146.8210  141.8334  156.3592 H   0  0  0  0  0  0  0  0  0  0  0  0
  1  2  1  0  0  0  0
  1 20  1  0  0  0  0
  1 21  1  0  0  0  0
  1 22  1  0  0  0  0
  2 19  1  0  0  0  0
  2  3  2  0  0  0  0
  3  4  1  0  0  0  0
  4  5  2  0  0  0  0
  5  6  1  0  0  0  0
  5 19  1  0  0  0  0
  6  7  1  0  0  0  0
  7  8  2  0  0  0  0
  7  9  1  0  0  0  0
  9 10  1  0  0  0  0
  9 23  1  0  0  0  0
 10 11  1  0  0  0  0
 10 24  1  0  0  0  0
 10 25  1  0  0  0  0
 11 12  1  0  0  0  0
 11 13  1  0  0  0  0
 11 26  1  0  0  0  0
 12 27  1  0  0  0  0
 12 28  1  0  0  0  0
 12 29  1  0  0  0  0
 13 18  1  0  0  0  0
 13 14  1  0  0  0  0
 14 15  1  0  0  0  0
 14 30  1  0  0  0  0
 14 31  1  0  0  0  0
 15 16  1  0  0  0  0
 15 32  1  0  0  0  0
 15 33  1  0  0  0  0
 16 17  1  0  0  0  0
 17 18  1  0  0  0  0
 17 34  1  0  0  0  0
 17 35  1  0  0  0  0
 18 36  1  0  0  0  0
 18 37  1  0  0  0  0
M  CHG  1   6  -1
M  END
> <s_m_source_file>
AV-unprocessed.smi

> <i_m_source_file_index>
2069

> <i_lp_mmshare_version>
43012

> <i_f3d_flags>
0

> <s_epik_input>
W0NIM11jMW5uYyhzMSlbTkhdQyg9TylbTkhdW0NIMl1bQ0BIXShbQ0gzXSlOMltDSDJdW0NIMl1PW0NIMl1bQ0gyXTI=

> <s_epik_cmdline>
J2VwaWtfcHl0aG9uJywgJy1waCcsICc3LjAnLCAnLXRuJywgJzgnLCAnLW1hJywgJzIwMCcsICctbWV0YWxfYmluZGluZycsICctaW1hZScsICc8aW5maWxlLm1hZT4nLCAnLW9tYWUnLCAnPG91dGZpbGUubWFlPic=

> <r_lp_tautomer_probability>
1

> <r_epik_Ionization_Penalty>
3.82002

> <r_epik_Ionization_Penalty_Charging>
3.36369

> <r_epik_Ionization_Penalty_Neutral>
0.456339

> <r_epik_State_Penalty>
3.571

> <r_epik_Charging_Adjusted_Penalty>
6.93469

> <i_epik_Tot_Q>
-1

> <i_epik_Tot_abs_Q>
1

> <r_epik_Metal_State_Penalty>
0.710436

> <b_epik_Metal_Only>
1

> <s_lp_Force_Field>
OPLS_2005

> <r_lp_Energy>
26.0796

> <b_lp_Chiralities_Consistent>
1

> <s_lp_Variant>
AV-unprocessed.smi:2069-5

> <Gold.Version>
5.8.1

> <Gold.Id.Protein>
6NUR|6NUR_protein|mol2

> <Gold.PLP.Fitness>
37.0549

> <Gold.PLP.PLP>
-33.7844

> <Gold.PLP.part.hbond>
-3.0098

> <Gold.PLP.part.metal>
0.0000

> <Gold.PLP.part.buried>
-4.2972

> <Gold.PLP.part.nonpolar>
-26.4076

> <Gold.PLP.part.repulsive>
0.5605

> <Gold.PLP.ligand.clash>
0.0000

> <Gold.PLP.ligand.torsion>
1.0094

> <Gold.PLP.Chemscore.Hbond>
1.7232

> <Gold.PLP.Chemscore.CHOScore>
0.0000

> <Gold.PLP.Chemscore.Metal>
0.0000

> <Gold.Chemscore.Hbonds>
donor molecule, donor type, donor heavy atom, donor atom, acceptor molecule, acceptor atom, score
      P1  H  7989  7998       L1     8  0.94
      P1  H  7997  8008       L1     3  0.75

> <Gold.PLP.Chemscore.Internal.Correction>
0.1197

> <Gold.Rescore>
     Score         DG    S(hbond)    S(metal)    S(lipo)     H(rot)  DE(clash)    DE(int)     intcor
     11.13     -13.55       1.27        0.00      67.17       1.57       0.02       2.39       ----

> <Gold.Chemscore.Fitness>
11.1317

> <Gold.Chemscore.DG>
-13.5470

> <Gold.Chemscore.ZeroCoef>
-5.4800

> <Gold.Chemscore.Hbond>
1.2682

> <Gold.Chemscore.Metal>
0.0000

> <Gold.Chemscore.Lipo>
67.1677

> <Gold.Chemscore.Internal_Hbond>
0.0000

> <Gold.Chemscore.DEClash>
0.0234

> <Gold.Chemscore.DEInternal>
2.3920

> <Gold.Chemscore.Rot>
1.5732

> <Gold.Chemscore.Internal.Correction>
   9.000000E+99

> <Gold.Chemscore.Hbonds>
donor molecule, donor type, donor heavy atom, donor atom, acceptor molecule, acceptor atom, score
      P1  H  7989  7998       L1     8  0.87
      P1  H  7997  8008       L1     3  0.14

> <Gold.Chemscore.Hbond.Weighted>
-4.2358

> <Gold.Chemscore.Metal.Weighted>
-0.0000

> <Gold.Chemscore.Lipo.Weighted>
-7.8586

> <Gold.Chemscore.Internal_Hbond.Weighted>
0.0000

> <Gold.Chemscore.DEClash.Weighted>
0.0234

> <Gold.Chemscore.DEInternal.Weighted>
2.3920

> <Gold.Chemscore.Rot.Weighted>
4.0274

> <Gold.Chemscore.Internal.Correction.Weighted>
   9.000000E+99

> <Gold.Protein.RotatedTorsions>
[ 6907 6896 6895 6894 ] final  118.07 input  -60.11 | X-H torsion
[ 7974 7965 7964 7962 ] final   13.01 input  175.53 | X-H torsion
[ 8008 7997 7996 7995 ] final -106.84 input   59.86 | X-H torsion
[ 10167 10162 10161 10158 ] final -178.42 input  -65.29 | X-H torsion
[ 10718 10713 10712 10709 ] final  -41.17 input   66.30 | X-H torsion
[ 10763 10752 10751 10750 ] final   92.15 input  -60.55 | X-H torsion
[ 11005 11000 10999 10996 ] final  -89.56 input  -57.11 | X-H torsion

> <Gold.Protein.ActiveResidues>
 VAL166  LYS551  ARG553  GLY616  TRP617  ASP618  TYR619  PRO620  LYS621  CYS622 
 ASP623  PHE694  ASN695  SER759  ASP760  ASP761  ALA762  ILE779  LEU786  VAL792 
 PHE793  MET794  SER795  GLU796  ALA797  LYS798  CYS799  TRP800  GLU811  SER814 

> <Gold.Protein.RotatedAtoms>
  152.4568  133.7740  159.6814 H   0  0  0  0  0  0  0  0  0  0  0  0  # atno 6907 bound_to 6896
  150.8497  133.7795  159.3036 H   0  0  0  0  0  0  0  0  0  0  0  0  # atno 6908 bound_to 6896
  151.5394  135.1071  159.9974 H   0  0  0  0  0  0  0  0  0  0  0  0  # atno 6909 bound_to 6896
  146.2339  139.9252  142.8504 H   0  0  0  0  0  0  0  0  0  0  0  0  # atno 7974 bound_to 7965
  154.9205  140.0407  157.1995 H   0  0  0  0  0  0  0  0  0  0  0  0  # atno 8008 bound_to 7997
  154.8258  140.2891  155.5734 H   0  0  0  0  0  0  0  0  0  0  0  0  # atno 8009 bound_to 7997
  156.2983  140.2510  156.3174 H   0  0  0  0  0  0  0  0  0  0  0  0  # atno 8010 bound_to 7997
  139.5433  144.2304  152.0938 H   0  0  0  0  0  0  0  0  0  0  0  0  # atno 10167 bound_to 10162
  156.2733  130.4209  149.8414 H   0  0  0  0  0  0  0  0  0  0  0  0  # atno 10718 bound_to 10713
  153.2160  135.4372  155.0435 H   0  0  0  0  0  0  0  0  0  0  0  0  # atno 10763 bound_to 10752
  154.8225  135.3344  154.6998 H   0  0  0  0  0  0  0  0  0  0  0  0  # atno 10764 bound_to 10752
  153.7432  135.7003  153.5018 H   0  0  0  0  0  0  0  0  0  0  0  0  # atno 10765 bound_to 10752
  141.1582  133.7638  156.9612 H   0  0  0  0  0  0  0  0  0  0  0  0  # atno 11005 bound_to 11000
  145.2097  140.9890  143.4107 LP  0  0  0  0  0  0  0  0  0  0  0  0  # atno 17320 bound_to 7965
  144.9702  139.3888  143.6313 LP  0  0  0  0  0  0  0  0  0  0  0  0  # atno 17321 bound_to 7965
  140.1786  144.4867  150.6540 LP  0  0  0  0  0  0  0  0  0  0  0  0  # atno 17342 bound_to 10162
  140.6672  143.2272  151.5715 LP  0  0  0  0  0  0  0  0  0  0  0  0  # atno 17343 bound_to 10162
  156.5888  130.8497  151.3402 LP  0  0  0  0  0  0  0  0  0  0  0  0  # atno 17370 bound_to 10713
  157.7291  130.9666  150.1772 LP  0  0  0  0  0  0  0  0  0  0  0  0  # atno 17371 bound_to 10713
  140.1192  134.9428  157.2178 LP  0  0  0  0  0  0  0  0  0  0  0  0  # atno 17394 bound_to 11000
  140.3094  134.3040  155.7270 LP  0  0  0  0  0  0  0  0  0  0  0  0  # atno 17395 bound_to 11000

$$$$
