AV-unprocessed.smi:3162|AV-procd|sdf|12067|dock1
  -GOLD-   2272017493D 1   1.00000     0.00000
 Structure written by MMmdl.
 36 36  0  0  0  0  0  0  0  0  1 V2000
  147.0409  141.3427  154.1943 C   0  0  0  0  0  0  0  0  0  0  0  0
  148.5759  141.4014  154.1485 C   0  0  0  0  0  0  0  0  0  0  0  0
  149.2826  140.2883  154.9539 C   0  0  2  0  0  0  0  0  0  0  0  0
  150.7404  140.5140  154.9162 N   0  0  0  0  0  0  0  0  0  0  0  0
  151.3621  140.9220  156.1746 C   0  0  2  0  0  0  0  0  0  0  0  0
  151.2024  139.7554  157.1641 C   0  0  0  0  0  0  0  0  0  0  0  0
  150.7062  142.2265  156.6835 C   0  0  0  0  0  0  0  0  0  0  0  0
  151.3836  142.7844  157.8399 N   0  0  0  0  0  0  0  0  0  0  0  0
  151.6967  142.1656  159.0315 C   0  0  0  0  0  0  0  0  0  0  0  0
  152.3260  143.0866  159.8203 C   0  0  0  0  0  0  0  0  0  0  0  0
  152.8700  142.9155  161.2094 C   0  0  0  0  0  0  0  0  0  0  0  0
  152.3447  144.2575  159.0102 C   0  0  0  0  0  0  0  0  0  0  0  0
  151.7771  144.0757  157.8289 N   0  0  0  0  0  0  0  0  0  0  0  0
  148.8797  138.8839  154.4673 C   0  0  0  0  0  0  0  0  0  0  0  0
  149.1066  138.5929  153.1837 N   0  0  0  0  0  0  0  0  0  0  0  0
  148.3516  138.0818  155.2353 O   0  0  0  0  0  0  0  0  0  0  0  0
  146.6076  142.1912  153.6642 H   0  0  0  0  0  0  0  0  0  0  0  0
  146.6762  141.3731  155.2213 H   0  0  0  0  0  0  0  0  0  0  0  0
  146.6567  140.4359  153.7270 H   0  0  0  0  0  0  0  0  0  0  0  0
  148.9077  141.3836  153.1091 H   0  0  0  0  0  0  0  0  0  0  0  0
  148.8866  142.3709  154.5408 H   0  0  0  0  0  0  0  0  0  0  0  0
  148.9639  140.3909  155.9931 H   0  0  0  0  0  0  0  0  0  0  0  0
  151.2375  139.7328  154.5124 H   0  0  0  0  0  0  0  0  0  0  0  0
  152.4326  141.0785  156.0318 H   0  0  0  0  0  0  0  0  0  0  0  0
  151.7090  139.9607  158.1072 H   0  0  0  0  0  0  0  0  0  0  0  0
  151.6329  138.8375  156.7622 H   0  0  0  0  0  0  0  0  0  0  0  0
  150.1524  139.5618  157.3865 H   0  0  0  0  0  0  0  0  0  0  0  0
  150.6912  142.9901  155.9060 H   0  0  0  0  0  0  0  0  0  0  0  0
  149.6652  142.0432  156.9537 H   0  0  0  0  0  0  0  0  0  0  0  0
  151.4508  141.1301  159.2164 H   0  0  0  0  0  0  0  0  0  0  0  0
  153.2594  143.8513  161.6112 H   0  0  0  0  0  0  0  0  0  0  0  0
  153.6845  142.1914  161.2353 H   0  0  0  0  0  0  0  0  0  0  0  0
  152.1037  142.5638  161.9005 H   0  0  0  0  0  0  0  0  0  0  0  0
  152.7506  145.2304  159.2458 H   0  0  0  0  0  0  0  0  0  0  0  0
  148.8639  137.6821  152.8220 H   0  0  0  0  0  0  0  0  0  0  0  0
  149.5266  139.2851  152.5803 H   0  0  0  0  0  0  0  0  0  0  0  0
  1  2  1  0  0  0  0
  1 17  1  0  0  0  0
  1 18  1  0  0  0  0
  1 19  1  0  0  0  0
  2  3  1  0  0  0  0
  2 20  1  0  0  0  0
  2 21  1  0  0  0  0
  3  4  1  0  0  0  0
  3 14  1  0  0  0  0
  3 22  1  0  0  0  0
  4  5  1  0  0  0  0
  4 23  1  0  0  0  0
  5  6  1  0  0  0  0
  5  7  1  0  0  0  0
  5 24  1  0  0  0  0
  6 25  1  0  0  0  0
  6 26  1  0  0  0  0
  6 27  1  0  0  0  0
  7  8  1  0  0  0  0
  7 28  1  0  0  0  0
  7 29  1  0  0  0  0
  8 13  1  0  0  0  0
  8  9  1  0  0  0  0
  9 10  2  0  0  0  0
  9 30  1  0  0  0  0
 10 11  1  0  0  0  0
 10 12  1  0  0  0  0
 11 31  1  0  0  0  0
 11 32  1  0  0  0  0
 11 33  1  0  0  0  0
 12 13  2  0  0  0  0
 12 34  1  0  0  0  0
 14 15  1  0  0  0  0
 14 16  2  0  0  0  0
 15 35  1  0  0  0  0
 15 36  1  0  0  0  0
M  END
> <s_m_source_file>
AV-unprocessed.smi

> <i_m_source_file_index>
3162

> <i_lp_mmshare_version>
43012

> <i_f3d_flags>
0

> <s_epik_input>
W0NIM11bQ0gyXVtDQEBIXShDKD1PKVtOSDJdKVtOSF1bQ0BIXShbQ0gzXSlbQ0gyXW4xW2NIXWMoW0NIM10pW2NIXW4x

> <s_epik_cmdline>
J2VwaWtfcHl0aG9uJywgJy1waCcsICc3LjAnLCAnLXRuJywgJzgnLCAnLW1hJywgJzIwMCcsICctbWV0YWxfYmluZGluZycsICctaW1hZScsICc8aW5maWxlLm1hZT4nLCAnLW9tYWUnLCAnPG91dGZpbGUubWFlPic=

> <r_lp_tautomer_probability>
1

> <r_epik_Ionization_Penalty>
1.04167

> <r_epik_Ionization_Penalty_Charging>
0

> <r_epik_Ionization_Penalty_Neutral>
1.04167

> <r_epik_State_Penalty>
1.09367

> <r_epik_Charging_Adjusted_Penalty>
1.09367

> <i_epik_Tot_Q>
0

> <i_epik_Tot_abs_Q>
0

> <r_epik_Metal_State_Penalty>
1.09362

> <b_epik_Metal_Only>
0

> <s_lp_Force_Field>
OPLS_2005

> <r_lp_Energy>
3.0379

> <b_lp_Chiralities_Consistent>
1

> <s_lp_Variant>
AV-unprocessed.smi:3162-5

> <Gold.Version>
5.8.1

> <Gold.Id.Protein>
6NUR|6NUR_protein|mol2

> <Gold.PLP.Fitness>
41.9726

> <Gold.PLP.PLP>
-37.4714

> <Gold.PLP.part.hbond>
-3.0000

> <Gold.PLP.part.metal>
0.0000

> <Gold.PLP.part.buried>
-4.4634

> <Gold.PLP.part.nonpolar>
-30.5731

> <Gold.PLP.part.repulsive>
0.2487

> <Gold.PLP.ligand.clash>
0.0000

> <Gold.PLP.ligand.torsion>
0.8417

> <Gold.PLP.Chemscore.Hbond>
1.9920

> <Gold.PLP.Chemscore.CHOScore>
0.0000

> <Gold.PLP.Chemscore.Metal>
0.0000

> <Gold.Chemscore.Hbonds>
donor molecule, donor type, donor heavy atom, donor atom, acceptor molecule, acceptor atom, score
      L1  H    15    35       P1  7948  1.00
      L1  H    15    36       P1  7957  0.99

> <Gold.PLP.Chemscore.Internal.Correction>
0.2087

> <Gold.Rescore>
     Score         DG    S(hbond)    S(metal)    S(lipo)     H(rot)  DE(clash)    DE(int)     intcor
     15.08     -15.93       1.95        0.00      86.78       2.43       0.04       0.82       ----

> <Gold.Chemscore.Fitness>
15.0751

> <Gold.Chemscore.DG>
-15.9348

> <Gold.Chemscore.ZeroCoef>
-5.4800

> <Gold.Chemscore.Hbond>
1.9548

> <Gold.Chemscore.Metal>
0.0000

> <Gold.Chemscore.Lipo>
86.7840

> <Gold.Chemscore.Internal_Hbond>
0.0000

> <Gold.Chemscore.DEClash>
0.0358

> <Gold.Chemscore.DEInternal>
0.8239

> <Gold.Chemscore.Rot>
2.4328

> <Gold.Chemscore.Internal.Correction>
   9.000000E+99

> <Gold.Chemscore.Hbonds>
donor molecule, donor type, donor heavy atom, donor atom, acceptor molecule, acceptor atom, score
      L1  H    15    35       P1  7948  0.99
      L1  H    15    36       P1  7957  0.92

> <Gold.Chemscore.Hbond.Weighted>
-6.5290

> <Gold.Chemscore.Metal.Weighted>
-0.0000

> <Gold.Chemscore.Lipo.Weighted>
-10.1537

> <Gold.Chemscore.Internal_Hbond.Weighted>
0.0000

> <Gold.Chemscore.DEClash.Weighted>
0.0358

> <Gold.Chemscore.DEInternal.Weighted>
0.8239

> <Gold.Chemscore.Rot.Weighted>
6.2279

> <Gold.Chemscore.Internal.Correction.Weighted>
   9.000000E+99

> <Gold.Protein.RotatedTorsions>
[ 6907 6896 6895 6894 ] final  119.88 input  -60.11 | X-H torsion
[ 7974 7965 7964 7962 ] final  114.90 input  175.53 | X-H torsion
[ 8008 7997 7996 7995 ] final  -93.55 input   59.86 | X-H torsion
[ 10167 10162 10161 10158 ] final   61.48 input  -65.29 | X-H torsion
[ 10718 10713 10712 10709 ] final  -35.33 input   66.30 | X-H torsion
[ 10763 10752 10751 10750 ] final -173.36 input  -60.55 | X-H torsion
[ 11005 11000 10999 10996 ] final  -25.58 input  -57.11 | X-H torsion

> <Gold.Protein.ActiveResidues>
 VAL166  LYS551  ARG553  GLY616  TRP617  ASP618  TYR619  PRO620  LYS621  CYS622 
 ASP623  PHE694  ASN695  SER759  ASP760  ASP761  ALA762  ILE779  LEU786  VAL792 
 PHE793  MET794  SER795  GLU796  ALA797  LYS798  CYS799  TRP800  GLU811  SER814 

> <Gold.Protein.RotatedAtoms>
  152.4439  133.7500  159.6688 H   0  0  0  0  0  0  0  0  0  0  0  0  # atno 6907 bound_to 6896
  150.8335  133.8041  159.3095 H   0  0  0  0  0  0  0  0  0  0  0  0  # atno 6908 bound_to 6896
  151.5688  135.1065  160.0042 H   0  0  0  0  0  0  0  0  0  0  0  0  # atno 6909 bound_to 6896
  145.1987  139.2963  143.4330 H   0  0  0  0  0  0  0  0  0  0  0  0  # atno 7974 bound_to 7965
  154.7370  140.0498  157.0778 H   0  0  0  0  0  0  0  0  0  0  0  0  # atno 8008 bound_to 7997
  155.0227  140.3149  155.4768 H   0  0  0  0  0  0  0  0  0  0  0  0  # atno 8009 bound_to 7997
  156.2855  140.2164  156.5346 H   0  0  0  0  0  0  0  0  0  0  0  0  # atno 8010 bound_to 7997
  140.1543  144.4432  150.6742 H   0  0  0  0  0  0  0  0  0  0  0  0  # atno 10167 bound_to 10162
  156.3399  130.4292  149.7796 H   0  0  0  0  0  0  0  0  0  0  0  0  # atno 10718 bound_to 10713
  154.6087  135.2862  155.0456 H   0  0  0  0  0  0  0  0  0  0  0  0  # atno 10763 bound_to 10752
  154.1694  135.6475  153.5009 H   0  0  0  0  0  0  0  0  0  0  0  0  # atno 10764 bound_to 10752
  153.0186  135.5397  154.6833 H   0  0  0  0  0  0  0  0  0  0  0  0  # atno 10765 bound_to 10752
  140.8951  133.7562  156.0470 H   0  0  0  0  0  0  0  0  0  0  0  0  # atno 11005 bound_to 11000
  146.3422  140.2224  142.8591 LP  0  0  0  0  0  0  0  0  0  0  0  0  # atno 17320 bound_to 7965
  144.9969  140.8598  143.5305 LP  0  0  0  0  0  0  0  0  0  0  0  0  # atno 17321 bound_to 7965
  140.6683  143.2276  151.5689 LP  0  0  0  0  0  0  0  0  0  0  0  0  # atno 17342 bound_to 10162
  139.5411  144.2646  152.1352 LP  0  0  0  0  0  0  0  0  0  0  0  0  # atno 17343 bound_to 10162
  156.5036  130.8140  151.3142 LP  0  0  0  0  0  0  0  0  0  0  0  0  # atno 17370 bound_to 10713
  157.7445  130.9936  150.2679 LP  0  0  0  0  0  0  0  0  0  0  0  0  # atno 17371 bound_to 10713
  140.8300  134.3190  157.5352 LP  0  0  0  0  0  0  0  0  0  0  0  0  # atno 17394 bound_to 11000
  139.8734  134.9357  156.3642 LP  0  0  0  0  0  0  0  0  0  0  0  0  # atno 17395 bound_to 11000

$$$$
