AV-unprocessed.smi:3253|AV-procd|sdf|12451|dock9
  -GOLD-   2272018343D 1   1.00000     0.00000
 Structure written by MMmdl.
 36 37  0  0  0  0  0  0  0  0  1 V2000
  149.2591  142.3120  158.2360 C   0  0  0  0  0  0  0  0  0  0  0  0
  150.6969  142.0245  157.7734 C   0  0  2  0  0  0  0  0  0  0  0  0
  151.5009  143.3054  157.4595 C   0  0  0  0  0  0  0  0  0  0  0  0
  151.6166  144.1898  158.6035 N   0  0  0  0  0  0  0  0  0  0  0  0
  152.4120  144.0110  159.7277 C   0  0  0  0  0  0  0  0  0  0  0  0
  152.1921  145.0992  160.5416 C   0  0  0  0  0  0  0  0  0  0  0  0
  151.2668  145.9519  159.9444 N   0  0  0  0  0  0  0  0  0  0  0  0
  150.9693  145.3462  158.8021 C   0  0  0  0  0  0  0  0  0  0  0  0
  150.6573  141.1539  156.6019 N   0  0  0  0  0  0  0  0  0  0  0  0
  151.5324  140.1721  156.3339 C   0  0  0  0  0  0  0  0  0  0  0  0
  152.4864  139.9000  157.0635 O   0  0  0  0  0  0  0  0  0  0  0  0
  151.2935  139.3752  155.0420 C   0  0  1  0  0  0  0  0  0  0  0  0
  152.0734  138.0444  155.0470 C   0  0  0  0  0  0  0  0  0  0  0  0
  150.9892  136.9815  155.1064 C   0  0  0  0  0  0  0  0  0  0  0  0
  151.2355  135.7813  155.2154 O   0  0  0  0  0  0  0  0  0  0  0  0
  149.7748  137.5325  155.0326 N   0  0  0  0  0  0  0  0  0  0  0  0
  148.5097  136.8113  155.0640 C   0  0  0  0  0  0  0  0  0  0  0  0
  149.8123  138.9747  154.8629 C   0  0  0  0  0  0  0  0  0  0  0  0
  149.2436  142.8832  159.1645 H   0  0  0  0  0  0  0  0  0  0  0  0
  148.7139  141.3855  158.4192 H   0  0  0  0  0  0  0  0  0  0  0  0
  148.7078  142.8804  157.4862 H   0  0  0  0  0  0  0  0  0  0  0  0
  151.1970  141.4894  158.5832 H   0  0  0  0  0  0  0  0  0  0  0  0
  152.5090  143.0535  157.1268 H   0  0  0  0  0  0  0  0  0  0  0  0
  151.0320  143.8561  156.6428 H   0  0  0  0  0  0  0  0  0  0  0  0
  153.0529  143.1505  159.8512 H   0  0  0  0  0  0  0  0  0  0  0  0
  152.6240  145.3314  161.5038 H   0  0  0  0  0  0  0  0  0  0  0  0
  150.2660  145.7544  158.0912 H   0  0  0  0  0  0  0  0  0  0  0  0
  149.9049  141.3083  155.9464 H   0  0  0  0  0  0  0  0  0  0  0  0
  151.6087  139.9791  154.1891 H   0  0  0  0  0  0  0  0  0  0  0  0
  152.6509  137.9232  154.1299 H   0  0  0  0  0  0  0  0  0  0  0  0
  152.7570  137.9387  155.8911 H   0  0  0  0  0  0  0  0  0  0  0  0
  148.4354  136.1342  154.2123 H   0  0  0  0  0  0  0  0  0  0  0  0
  147.6641  137.4986  155.0253 H   0  0  0  0  0  0  0  0  0  0  0  0
  148.4263  136.2239  155.9791 H   0  0  0  0  0  0  0  0  0  0  0  0
  149.1472  139.4610  155.5790 H   0  0  0  0  0  0  0  0  0  0  0  0
  149.4607  139.2298  153.8624 H   0  0  0  0  0  0  0  0  0  0  0  0
  1  2  1  0  0  0  0
  1 19  1  0  0  0  0
  1 20  1  0  0  0  0
  1 21  1  0  0  0  0
  2  3  1  0  0  0  0
  2  9  1  0  0  0  0
  2 22  1  0  0  0  0
  3  4  1  0  0  0  0
  3 23  1  0  0  0  0
  3 24  1  0  0  0  0
  4  8  1  0  0  0  0
  4  5  1  0  0  0  0
  5  6  2  0  0  0  0
  5 25  1  0  0  0  0
  6  7  1  0  0  0  0
  6 26  1  0  0  0  0
  7  8  2  0  0  0  0
  8 27  1  0  0  0  0
  9 10  1  0  0  0  0
  9 28  1  0  0  0  0
 10 11  2  0  0  0  0
 10 12  1  0  0  0  0
 12 18  1  0  0  0  0
 12 13  1  0  0  0  0
 12 29  1  0  0  0  0
 13 14  1  0  0  0  0
 13 30  1  0  0  0  0
 13 31  1  0  0  0  0
 14 15  2  0  0  0  0
 14 16  1  0  0  0  0
 16 17  1  0  0  0  0
 16 18  1  0  0  0  0
 17 32  1  0  0  0  0
 17 33  1  0  0  0  0
 17 34  1  0  0  0  0
 18 35  1  0  0  0  0
 18 36  1  0  0  0  0
M  END
> <s_m_source_file>
AV-unprocessed.smi

> <i_m_source_file_index>
3253

> <i_lp_mmshare_version>
43012

> <i_f3d_flags>
0

> <s_epik_input>
W2NIXTFuW2NIXVtjSF1uMVtDSDJdW0NAQEhdKFtDSDNdKVtOSF1DKD1PKVtDQEBIXTJbQ0gyXUMoPU8pTihbQ0gzXSlbQ0gyXTI=

> <s_epik_cmdline>
J2VwaWtfcHl0aG9uJywgJy1waCcsICc3LjAnLCAnLXRuJywgJzgnLCAnLW1hJywgJzIwMCcsICctbWV0YWxfYmluZGluZycsICctaW1hZScsICc8aW5maWxlLm1hZT4nLCAnLW9tYWUnLCAnPG91dGZpbGUubWFlPic=

> <r_lp_tautomer_probability>
1

> <r_epik_Ionization_Penalty>
0.628884

> <r_epik_Ionization_Penalty_Charging>
0.628884

> <r_epik_Ionization_Penalty_Neutral>
2.35084e-08

> <r_epik_State_Penalty>
0.64556

> <r_epik_Charging_Adjusted_Penalty>
1.27444

> <i_epik_Tot_Q>
0

> <i_epik_Tot_abs_Q>
0

> <r_epik_Metal_State_Penalty>
0.308736

> <b_epik_Metal_Only>
0

> <s_lp_Force_Field>
OPLS_2005

> <r_lp_Energy>
12.6609

> <b_lp_Chiralities_Consistent>
1

> <s_lp_Variant>
AV-unprocessed.smi:3253-7

> <Gold.Version>
5.8.1

> <Gold.Id.Protein>
6NUR|6NUR_protein|mol2

> <Gold.PLP.Fitness>
44.5217

> <Gold.PLP.PLP>
-37.3753

> <Gold.PLP.part.hbond>
-3.8430

> <Gold.PLP.part.metal>
0.0000

> <Gold.PLP.part.buried>
-4.7486

> <Gold.PLP.part.nonpolar>
-29.4814

> <Gold.PLP.part.repulsive>
0.4155

> <Gold.PLP.ligand.clash>
0.0000

> <Gold.PLP.ligand.torsion>
0.9201

> <Gold.PLP.Chemscore.Hbond>
2.0000

> <Gold.PLP.Chemscore.CHOScore>
0.9851

> <Gold.PLP.Chemscore.Metal>
0.0000

> <Gold.Chemscore.Hbonds>
donor molecule, donor type, donor heavy atom, donor atom, acceptor molecule, acceptor atom, score
      P1  H  7997  8009       L1    11  1.00
      P1  H 10752 10765       L1    15  1.00
      L1  C     8    27       P1  8029  0.97

> <Gold.PLP.Chemscore.Internal.Correction>
0.0312

> <Gold.Rescore>
     Score         DG    S(hbond)    S(metal)    S(lipo)     H(rot)  DE(clash)    DE(int)     intcor
     13.50     -14.93       1.89        0.00      69.92       1.97       0.51       0.92       ----

> <Gold.Chemscore.Fitness>
13.5032

> <Gold.Chemscore.DG>
-14.9336

> <Gold.Chemscore.ZeroCoef>
-5.4800

> <Gold.Chemscore.Hbond>
1.8885

> <Gold.Chemscore.Metal>
0.0000

> <Gold.Chemscore.Lipo>
69.9234

> <Gold.Chemscore.Internal_Hbond>
0.0000

> <Gold.Chemscore.DEClash>
0.5137

> <Gold.Chemscore.DEInternal>
0.9168

> <Gold.Chemscore.Rot>
1.9669

> <Gold.Chemscore.Internal.Correction>
   9.000000E+99

> <Gold.Chemscore.Hbonds>
donor molecule, donor type, donor heavy atom, donor atom, acceptor molecule, acceptor atom, score
      P1  H  7997  8009       L1    11  0.98
      P1  H 10752 10765       L1    15  0.50

> <Gold.Chemscore.Hbond.Weighted>
-6.3077

> <Gold.Chemscore.Metal.Weighted>
-0.0000

> <Gold.Chemscore.Lipo.Weighted>
-8.1810

> <Gold.Chemscore.Internal_Hbond.Weighted>
0.0000

> <Gold.Chemscore.DEClash.Weighted>
0.5137

> <Gold.Chemscore.DEInternal.Weighted>
0.9168

> <Gold.Chemscore.Rot.Weighted>
5.0352

> <Gold.Chemscore.Internal.Correction.Weighted>
   9.000000E+99

> <Gold.Protein.RotatedTorsions>
[ 6907 6896 6895 6894 ] final -107.15 input  -60.11 | X-H torsion
[ 7974 7965 7964 7962 ] final -166.19 input  175.53 | X-H torsion
[ 8008 7997 7996 7995 ] final  172.55 input   59.86 | X-H torsion
[ 10167 10162 10161 10158 ] final   35.55 input  -65.29 | X-H torsion
[ 10718 10713 10712 10709 ] final   84.73 input   66.30 | X-H torsion
[ 10763 10752 10751 10750 ] final  176.45 input  -60.55 | X-H torsion
[ 11005 11000 10999 10996 ] final  151.69 input  -57.11 | X-H torsion

> <Gold.Protein.ActiveResidues>
 VAL166  LYS551  ARG553  GLY616  TRP617  ASP618  TYR619  PRO620  LYS621  CYS622 
 ASP623  PHE694  ASN695  SER759  ASP760  ASP761  ALA762  ILE779  LEU786  VAL792 
 PHE793  MET794  SER795  GLU796  ALA797  LYS798  CYS799  TRP800  GLU811  SER814 

> <Gold.Protein.RotatedAtoms>
  150.7428  133.9870  159.3594 H   0  0  0  0  0  0  0  0  0  0  0  0  # atno 6907 bound_to 6896
  151.7815  135.0758  160.0384 H   0  0  0  0  0  0  0  0  0  0  0  0  # atno 6908 bound_to 6896
  152.3271  133.5880  159.5820 H   0  0  0  0  0  0  0  0  0  0  0  0  # atno 6909 bound_to 6896
  144.7251  140.2703  143.6251 H   0  0  0  0  0  0  0  0  0  0  0  0  # atno 7974 bound_to 7965
  156.1164  140.1483  156.9267 H   0  0  0  0  0  0  0  0  0  0  0  0  # atno 8008 bound_to 7997
  154.4803  140.0881  156.7404 H   0  0  0  0  0  0  0  0  0  0  0  0  # atno 8009 bound_to 7997
  155.4507  140.3434  155.4302 H   0  0  0  0  0  0  0  0  0  0  0  0  # atno 8010 bound_to 7997
  140.4211  144.1458  150.6148 H   0  0  0  0  0  0  0  0  0  0  0  0  # atno 10167 bound_to 10162
  157.6903  131.0145  150.2717 H   0  0  0  0  0  0  0  0  0  0  0  0  # atno 10718 bound_to 10713
  154.4813  135.2775  155.1569 H   0  0  0  0  0  0  0  0  0  0  0  0  # atno 10763 bound_to 10752
  154.3278  135.6196  153.5541 H   0  0  0  0  0  0  0  0  0  0  0  0  # atno 10764 bound_to 10752
  152.9875  135.5758  154.5214 H   0  0  0  0  0  0  0  0  0  0  0  0  # atno 10765 bound_to 10752
  140.1241  134.8844  157.2113 H   0  0  0  0  0  0  0  0  0  0  0  0  # atno 11005 bound_to 11000
  145.8049  139.1979  143.2026 LP  0  0  0  0  0  0  0  0  0  0  0  0  # atno 17320 bound_to 7965
  146.0645  140.7935  142.9718 LP  0  0  0  0  0  0  0  0  0  0  0  0  # atno 17321 bound_to 7965
  140.4532  143.2478  151.9320 LP  0  0  0  0  0  0  0  0  0  0  0  0  # atno 17342 bound_to 10162
  139.4782  144.5541  151.8340 LP  0  0  0  0  0  0  0  0  0  0  0  0  # atno 17343 bound_to 10162
  156.3279  130.3796  149.7517 LP  0  0  0  0  0  0  0  0  0  0  0  0  # atno 17370 bound_to 10713
  156.5066  130.8153  151.3153 LP  0  0  0  0  0  0  0  0  0  0  0  0  # atno 17371 bound_to 10713
  140.2926  134.3223  155.7311 LP  0  0  0  0  0  0  0  0  0  0  0  0  # atno 17394 bound_to 11000
  141.2158  133.7544  156.9526 LP  0  0  0  0  0  0  0  0  0  0  0  0  # atno 17395 bound_to 11000

$$$$
