AV-unprocessed.smi:2671|AV-procd|sdf|10353|dock6
  -GOLD-   2272014373D 1   1.00000     0.00000
 Structure written by MMmdl.
 29 30  0  0  0  0  0  0  0  0  1 V2000
  150.4474  139.8875  153.7600 O   0  0  0  0  0  0  0  0  0  0  0  0
  149.7026  140.5983  154.6542 C   0  0  0  0  0  0  0  0  0  0  0  0
  148.4015  141.0163  154.3058 C   0  0  0  0  0  0  0  0  0  0  0  0
  147.6894  141.7484  155.2838 C   0  0  0  0  0  0  0  0  0  0  0  0
  146.2771  142.2593  155.0426 C   0  0  0  0  0  0  0  0  0  0  0  0
  145.4374  141.2289  154.9391 F   0  0  0  0  0  0  0  0  0  0  0  0
  145.8632  143.0436  156.0388 F   0  0  0  0  0  0  0  0  0  0  0  0
  146.2410  142.9605  153.9097 F   0  0  0  0  0  0  0  0  0  0  0  0
  148.2344  142.0291  156.4897 N   0  0  0  0  0  0  0  0  0  0  0  0
  149.4719  141.5821  156.7075 C   0  0  0  0  0  0  0  0  0  0  0  0
  150.1484  141.9810  158.3110 S   0  0  0  0  0  0  0  0  0  0  0  0
  151.5724  143.0358  157.9009 C   0  0  0  0  0  0  0  0  0  0  0  0
  152.5645  143.1308  159.0677 C   0  0  1  0  0  0  0  0  0  0  0  0
  151.9709  143.6726  160.3692 C   0  0  0  0  0  0  0  0  0  0  0  0
  152.8294  143.0366  161.4530 C   0  0  0  0  0  0  0  0  0  0  0  0
  153.6357  141.9654  160.7138 C   0  0  0  0  0  0  0  0  0  0  0  0
  153.0023  141.8371  159.4494 O   0  0  0  0  0  0  0  0  0  0  0  0
  150.2352  140.8853  155.8612 N   0  0  0  0  0  0  0  0  0  0  0  0
  150.0271  139.7947  152.9192 H   0  0  0  0  0  0  0  0  0  0  0  0
  147.9759  140.7862  153.3403 H   0  0  0  0  0  0  0  0  0  0  0  0
  152.0715  142.6458  157.0132 H   0  0  0  0  0  0  0  0  0  0  0  0
  151.2082  144.0335  157.6545 H   0  0  0  0  0  0  0  0  0  0  0  0
  153.4363  143.7201  158.7770 H   0  0  0  0  0  0  0  0  0  0  0  0
  151.9780  144.7623  160.4094 H   0  0  0  0  0  0  0  0  0  0  0  0
  150.9379  143.3407  160.4828 H   0  0  0  0  0  0  0  0  0  0  0  0
  153.4913  143.7638  161.9244 H   0  0  0  0  0  0  0  0  0  0  0  0
  152.2031  142.5987  162.2309 H   0  0  0  0  0  0  0  0  0  0  0  0
  154.6654  142.2942  160.5664 H   0  0  0  0  0  0  0  0  0  0  0  0
  153.6557  141.0133  161.2446 H   0  0  0  0  0  0  0  0  0  0  0  0
  1  2  1  0  0  0  0
  1 19  1  0  0  0  0
  2 18  1  0  0  0  0
  2  3  2  0  0  0  0
  3  4  1  0  0  0  0
  3 20  1  0  0  0  0
  4  5  1  0  0  0  0
  4  9  2  0  0  0  0
  5  6  1  0  0  0  0
  5  7  1  0  0  0  0
  5  8  1  0  0  0  0
  9 10  1  0  0  0  0
 10 11  1  0  0  0  0
 10 18  2  0  0  0  0
 11 12  1  0  0  0  0
 12 13  1  0  0  0  0
 12 21  1  0  0  0  0
 12 22  1  0  0  0  0
 13 17  1  0  0  0  0
 13 14  1  0  0  0  0
 13 23  1  0  0  0  0
 14 15  1  0  0  0  0
 14 24  1  0  0  0  0
 14 25  1  0  0  0  0
 15 16  1  0  0  0  0
 15 26  1  0  0  0  0
 15 27  1  0  0  0  0
 16 17  1  0  0  0  0
 16 28  1  0  0  0  0
 16 29  1  0  0  0  0
M  END
> <s_m_source_file>
AV-unprocessed.smi

> <i_m_source_file_index>
2671

> <i_lp_mmshare_version>
43012

> <i_f3d_flags>
0

> <s_epik_input>
W09IXWMxW2NIXWMoQyhGKShGKUYpbmMobjEpU1tDSDJdW0NAQEhdMltDSDJdW0NIMl1bQ0gyXU8y

> <s_epik_cmdline>
J2VwaWtfcHl0aG9uJywgJy1waCcsICc3LjAnLCAnLXRuJywgJzgnLCAnLW1hJywgJzIwMCcsICctbWV0YWxfYmluZGluZycsICctaW1hZScsICc8aW5maWxlLm1hZT4nLCAnLW9tYWUnLCAnPG91dGZpbGUubWFlPic=

> <r_lp_tautomer_probability>
0.0660145

> <r_epik_Ionization_Penalty>
3.60098

> <r_epik_Ionization_Penalty_Charging>
0

> <r_epik_Ionization_Penalty_Neutral>
3.60098

> <r_epik_State_Penalty>
2.71709

> <r_epik_Charging_Adjusted_Penalty>
2.71709

> <i_epik_Tot_Q>
0

> <i_epik_Tot_abs_Q>
0

> <r_epik_Metal_State_Penalty>
3.44057

> <b_epik_Metal_Only>
0

> <s_lp_Force_Field>
OPLS_2005

> <r_lp_Energy>
10.3894

> <b_lp_Chiralities_Consistent>
1

> <s_lp_Variant>
AV-unprocessed.smi:2671-8

> <Gold.Version>
5.8.1

> <Gold.Id.Protein>
6NUR|6NUR_protein|mol2

> <Gold.PLP.Fitness>
42.3485

> <Gold.PLP.PLP>
-36.8229

> <Gold.PLP.part.hbond>
-2.0000

> <Gold.PLP.part.metal>
0.0000

> <Gold.PLP.part.buried>
-3.0571

> <Gold.PLP.part.nonpolar>
-31.9248

> <Gold.PLP.part.repulsive>
1.4837

> <Gold.PLP.ligand.clash>
0.0000

> <Gold.PLP.ligand.torsion>
0.2312

> <Gold.PLP.Chemscore.Hbond>
1.9920

> <Gold.PLP.Chemscore.CHOScore>
0.0000

> <Gold.PLP.Chemscore.Metal>
0.0000

> <Gold.Chemscore.Hbonds>
donor molecule, donor type, donor heavy atom, donor atom, acceptor molecule, acceptor atom, score
      L1  H     1    19       P1  7957  1.00
      P1  H  7989  7998       L1     1  0.94

> <Gold.PLP.Chemscore.Internal.Correction>
0.0120

> <Gold.Rescore>
     Score         DG    S(hbond)    S(metal)    S(lipo)     H(rot)  DE(clash)    DE(int)     intcor
     13.33     -13.53       1.49        0.00      75.94       2.27       0.01       0.19       ----

> <Gold.Chemscore.Fitness>
13.3274

> <Gold.Chemscore.DG>
-13.5340

> <Gold.Chemscore.ZeroCoef>
-5.4800

> <Gold.Chemscore.Hbond>
1.4871

> <Gold.Chemscore.Metal>
0.0000

> <Gold.Chemscore.Lipo>
75.9434

> <Gold.Chemscore.Internal_Hbond>
0.0000

> <Gold.Chemscore.DEClash>
0.0149

> <Gold.Chemscore.DEInternal>
0.1917

> <Gold.Chemscore.Rot>
2.2650

> <Gold.Chemscore.Internal.Correction>
   9.000000E+99

> <Gold.Chemscore.Hbonds>
donor molecule, donor type, donor heavy atom, donor atom, acceptor molecule, acceptor atom, score
      L1  H     1    19       P1  7957  1.00
      P1  H  7989  7998       L1     1  0.12

> <Gold.Chemscore.Hbond.Weighted>
-4.9670

> <Gold.Chemscore.Metal.Weighted>
-0.0000

> <Gold.Chemscore.Lipo.Weighted>
-8.8854

> <Gold.Chemscore.Internal_Hbond.Weighted>
0.0000

> <Gold.Chemscore.DEClash.Weighted>
0.0149

> <Gold.Chemscore.DEInternal.Weighted>
0.1917

> <Gold.Chemscore.Rot.Weighted>
5.7984

> <Gold.Chemscore.Internal.Correction.Weighted>
   9.000000E+99

> <Gold.Protein.RotatedTorsions>
[ 6907 6896 6895 6894 ] final  -69.51 input  -60.11 | X-H torsion
[ 7974 7965 7964 7962 ] final -120.62 input  175.53 | X-H torsion
[ 8008 7997 7996 7995 ] final  124.67 input   59.86 | X-H torsion
[ 10167 10162 10161 10158 ] final  -10.03 input  -65.29 | X-H torsion
[ 10718 10713 10712 10709 ] final   -4.14 input   66.30 | X-H torsion
[ 10763 10752 10751 10750 ] final  -40.43 input  -60.55 | X-H torsion
[ 11005 11000 10999 10996 ] final   36.42 input  -57.11 | X-H torsion

> <Gold.Protein.ActiveResidues>
 VAL166  LYS551  ARG553  GLY616  TRP617  ASP618  TYR619  PRO620  LYS621  CYS622 
 ASP623  PHE694  ASN695  SER759  ASP760  ASP761  ALA762  ILE779  LEU786  VAL792 
 PHE793  MET794  SER795  GLU796  ALA797  LYS798  CYS799  TRP800  GLU811  SER814 

> <Gold.Protein.RotatedAtoms>
  150.7302  134.5586  159.5830 H   0  0  0  0  0  0  0  0  0  0  0  0  # atno 6907 bound_to 6896
  152.3055  134.7557  160.0357 H   0  0  0  0  0  0  0  0  0  0  0  0  # atno 6908 bound_to 6896
  151.8123  133.3348  159.3596 H   0  0  0  0  0  0  0  0  0  0  0  0  # atno 6909 bound_to 6896
  145.0493  140.8206  143.4219 H   0  0  0  0  0  0  0  0  0  0  0  0  # atno 7974 bound_to 7965
  156.2809  140.2734  156.1825 H   0  0  0  0  0  0  0  0  0  0  0  0  # atno 8008 bound_to 7997
  155.0541  140.0386  157.2572 H   0  0  0  0  0  0  0  0  0  0  0  0  # atno 8009 bound_to 7997
  154.7171  140.2680  155.6581 H   0  0  0  0  0  0  0  0  0  0  0  0  # atno 8010 bound_to 7997
  140.7103  143.5793  150.9009 H   0  0  0  0  0  0  0  0  0  0  0  0  # atno 10167 bound_to 10162
  156.7657  130.5284  149.5776 H   0  0  0  0  0  0  0  0  0  0  0  0  # atno 10718 bound_to 10713
  153.9459  135.6756  153.4744 H   0  0  0  0  0  0  0  0  0  0  0  0  # atno 10763 bound_to 10752
  153.0908  135.4875  154.8683 H   0  0  0  0  0  0  0  0  0  0  0  0  # atno 10764 bound_to 10752
  154.7352  135.3147  154.8783 H   0  0  0  0  0  0  0  0  0  0  0  0  # atno 10765 bound_to 10752
  140.2327  134.3508  155.7957 H   0  0  0  0  0  0  0  0  0  0  0  0  # atno 11005 bound_to 11000
  145.1547  139.2493  143.5422 LP  0  0  0  0  0  0  0  0  0  0  0  0  # atno 17320 bound_to 7965
  146.3516  140.1259  142.8598 LP  0  0  0  0  0  0  0  0  0  0  0  0  # atno 17321 bound_to 7965
  139.9519  143.6263  152.3027 LP  0  0  0  0  0  0  0  0  0  0  0  0  # atno 17342 bound_to 10162
  139.6784  144.7657  151.1653 LP  0  0  0  0  0  0  0  0  0  0  0  0  # atno 17343 bound_to 10162
  156.1310  130.6178  151.0333 LP  0  0  0  0  0  0  0  0  0  0  0  0  # atno 17370 bound_to 10713
  157.6714  131.0860  150.7602 LP  0  0  0  0  0  0  0  0  0  0  0  0  # atno 17371 bound_to 10713
  141.2216  133.7254  156.8758 LP  0  0  0  0  0  0  0  0  0  0  0  0  # atno 17394 bound_to 11000
  140.1734  134.9084  157.2861 LP  0  0  0  0  0  0  0  0  0  0  0  0  # atno 17395 bound_to 11000

$$$$
