AV-unprocessed.smi:1603|AV-procd|sdf|6446|dock3
  -GOLD-   22720 7 93D 1   1.00000     0.00000
 Structure written by MMmdl.
 44 46  0  0  0  0  0  0  0  0  1 V2000
  152.7973  138.6808  159.2789 O   0  0  0  0  0  0  0  0  0  0  0  0
  152.7054  139.9079  159.3298 C   0  0  0  0  0  0  0  0  0  0  0  0
  153.5258  140.7479  160.2158 C   0  0  0  0  0  0  0  0  0  0  0  0
  154.5537  140.0568  161.1078 C   0  0  0  0  0  0  0  0  0  0  0  0
  154.7134  140.6987  162.2662 F   0  0  0  0  0  0  0  0  0  0  0  0
  154.1715  138.8089  161.3817 F   0  0  0  0  0  0  0  0  0  0  0  0
  155.7412  140.0061  160.5030 F   0  0  0  0  0  0  0  0  0  0  0  0
  153.3597  142.0930  160.2217 C   0  0  0  0  0  0  0  0  0  0  0  0
  152.3759  142.7128  159.3570 C   0  0  0  0  0  0  0  0  0  0  0  0
  152.1342  144.1946  159.3214 C   0  0  0  0  0  0  0  0  0  0  0  0
  151.0498  144.8106  158.4668 C   0  0  0  0  0  0  0  0  0  0  0  0
  152.5037  145.0315  158.1189 C   0  0  0  0  0  0  0  0  0  0  0  0
  151.6633  141.9746  158.5744 N   0  0  0  0  0  0  0  0  0  0  0  0
  151.8170  140.6026  158.5589 N   0  0  0  0  0  0  0  0  0  0  0  0
  150.9118  139.9150  157.6291 C   0  0  0  0  0  0  0  0  0  0  0  0
  150.6516  140.7441  156.3505 C   0  0  1  0  0  0  0  0  0  0  0  0
  151.7121  140.4813  155.4509 O   0  0  0  0  0  0  0  0  0  0  0  0
  149.3306  140.3390  155.6584 C   0  0  0  0  0  0  0  0  0  0  0  0
  148.3845  141.4320  155.4294 N   0  0  0  0  0  0  0  0  0  0  0  0
  147.8317  141.4276  154.0766 C   0  0  0  0  0  0  0  0  0  0  0  0
  146.8180  142.5660  153.8650 C   0  0  0  0  0  0  0  0  0  0  0  0
  145.7835  142.4759  154.8396 O   0  0  0  0  0  0  0  0  0  0  0  0
  146.2809  142.5275  156.1726 C   0  0  0  0  0  0  0  0  0  0  0  0
  147.2869  141.3842  156.3899 C   0  0  0  0  0  0  0  0  0  0  0  0
  153.9531  142.7267  160.8639 H   0  0  0  0  0  0  0  0  0  0  0  0
  152.2988  144.6358  160.3026 H   0  0  0  0  0  0  0  0  0  0  0  0
  150.4761  144.1587  157.8104 H   0  0  0  0  0  0  0  0  0  0  0  0
  150.4993  145.6512  158.8842 H   0  0  0  0  0  0  0  0  0  0  0  0
  152.9209  146.0192  158.3045 H   0  0  0  0  0  0  0  0  0  0  0  0
  152.8909  144.5195  157.2398 H   0  0  0  0  0  0  0  0  0  0  0  0
  151.2944  138.9250  157.3717 H   0  0  0  0  0  0  0  0  0  0  0  0
  149.9710  139.7221  158.1476 H   0  0  0  0  0  0  0  0  0  0  0  0
  150.6277  141.8081  156.5906 H   0  0  0  0  0  0  0  0  0  0  0  0
  152.4628  140.1926  155.9470 H   0  0  0  0  0  0  0  0  0  0  0  0
  149.5315  139.8042  154.7285 H   0  0  0  0  0  0  0  0  0  0  0  0
  148.8321  139.6134  156.3022 H   0  0  0  0  0  0  0  0  0  0  0  0
  148.6301  141.5337  153.3426 H   0  0  0  0  0  0  0  0  0  0  0  0
  147.3473  140.4702  153.8778 H   0  0  0  0  0  0  0  0  0  0  0  0
  147.3091  143.5378  153.9351 H   0  0  0  0  0  0  0  0  0  0  0  0
  146.3770  142.5008  152.8702 H   0  0  0  0  0  0  0  0  0  0  0  0
  146.7494  143.4956  156.3570 H   0  0  0  0  0  0  0  0  0  0  0  0
  145.4466  142.4367  156.8684 H   0  0  0  0  0  0  0  0  0  0  0  0
  146.7674  140.4278  156.3105 H   0  0  0  0  0  0  0  0  0  0  0  0
  147.6802  141.4418  157.4057 H   0  0  0  0  0  0  0  0  0  0  0  0
  1  2  2  0  0  0  0
  2 14  1  0  0  0  0
  2  3  1  0  0  0  0
  3  4  1  0  0  0  0
  3  8  2  0  0  0  0
  4  5  1  0  0  0  0
  4  6  1  0  0  0  0
  4  7  1  0  0  0  0
  8  9  1  0  0  0  0
  8 25  1  0  0  0  0
  9 10  1  0  0  0  0
  9 13  2  0  0  0  0
 10 12  1  0  0  0  0
 10 11  1  0  0  0  0
 10 26  1  0  0  0  0
 11 12  1  0  0  0  0
 11 27  1  0  0  0  0
 11 28  1  0  0  0  0
 12 29  1  0  0  0  0
 12 30  1  0  0  0  0
 13 14  1  0  0  0  0
 14 15  1  0  0  0  0
 15 16  1  0  0  0  0
 15 31  1  0  0  0  0
 15 32  1  0  0  0  0
 16 17  1  0  0  0  0
 16 18  1  0  0  0  0
 16 33  1  0  0  0  0
 17 34  1  0  0  0  0
 18 19  1  0  0  0  0
 18 35  1  0  0  0  0
 18 36  1  0  0  0  0
 19 24  1  0  0  0  0
 19 20  1  0  0  0  0
 20 21  1  0  0  0  0
 20 37  1  0  0  0  0
 20 38  1  0  0  0  0
 21 22  1  0  0  0  0
 21 39  1  0  0  0  0
 21 40  1  0  0  0  0
 22 23  1  0  0  0  0
 23 24  1  0  0  0  0
 23 41  1  0  0  0  0
 23 42  1  0  0  0  0
 24 43  1  0  0  0  0
 24 44  1  0  0  0  0
M  END
> <s_m_source_file>
AV-unprocessed.smi

> <i_m_source_file_index>
1603

> <i_lp_mmshare_version>
43012

> <i_f3d_flags>
0

> <s_epik_input>
Tz1jMWMoQyhGKShGKUYpW2NIXWMoW0NIXTJbQ0gyXVtDSDJdMilubjFbQ0gyXVtDQEhdKFtPSF0pW0NIMl1OM1tDSDJdW0NIMl1PW0NIMl1bQ0gyXTM=

> <s_epik_cmdline>
J2VwaWtfcHl0aG9uJywgJy1waCcsICc3LjAnLCAnLXRuJywgJzgnLCAnLW1hJywgJzIwMCcsICctbWV0YWxfYmluZGluZycsICctaW1hZScsICc8aW5maWxlLm1hZT4nLCAnLW9tYWUnLCAnPG91dGZpbGUubWFlPic=

> <r_lp_tautomer_probability>
1

> <r_epik_Ionization_Penalty>
0.450313

> <r_epik_Ionization_Penalty_Charging>
7.22079e-10

> <r_epik_Ionization_Penalty_Neutral>
0.450313

> <r_epik_State_Penalty>
0.45306

> <r_epik_Charging_Adjusted_Penalty>
0.45306

> <i_epik_Tot_Q>
0

> <i_epik_Tot_abs_Q>
0

> <r_epik_Metal_State_Penalty>
0.45306

> <b_epik_Metal_Only>
0

> <s_lp_Force_Field>
OPLS_2005

> <r_lp_Energy>
51.835

> <b_lp_Chiralities_Consistent>
1

> <s_lp_Variant>
AV-unprocessed.smi:1603-4

> <Gold.Version>
5.8.1

> <Gold.Id.Protein>
6NUR|6NUR_protein|mol2

> <Gold.PLP.Fitness>
45.6471

> <Gold.PLP.PLP>
-49.0251

> <Gold.PLP.part.hbond>
-1.0000

> <Gold.PLP.part.metal>
0.0000

> <Gold.PLP.part.buried>
-6.5298

> <Gold.PLP.part.nonpolar>
-41.7519

> <Gold.PLP.part.repulsive>
0.2830

> <Gold.PLP.ligand.clash>
0.0000

> <Gold.PLP.ligand.torsion>
3.1784

> <Gold.PLP.Chemscore.Hbond>
0.7840

> <Gold.PLP.Chemscore.CHOScore>
0.0000

> <Gold.PLP.Chemscore.Metal>
0.0000

> <Gold.Chemscore.Hbonds>
donor molecule, donor type, donor heavy atom, donor atom, acceptor molecule, acceptor atom, score
      P1  H  7989  7998       L1    17  0.77

> <Gold.PLP.Chemscore.Internal.Correction>
0.6268

> <Gold.Rescore>
     Score         DG    S(hbond)    S(metal)    S(lipo)     H(rot)  DE(clash)    DE(int)     intcor
     10.22     -15.17       0.77        0.00     114.03       2.43       0.02       4.94       ----

> <Gold.Chemscore.Fitness>
10.2165

> <Gold.Chemscore.DG>
-15.1731

> <Gold.Chemscore.ZeroCoef>
-5.4800

> <Gold.Chemscore.Hbond>
0.7680

> <Gold.Chemscore.Metal>
0.0000

> <Gold.Chemscore.Lipo>
114.0303

> <Gold.Chemscore.Internal_Hbond>
0.0000

> <Gold.Chemscore.DEClash>
0.0201

> <Gold.Chemscore.DEInternal>
4.9365

> <Gold.Chemscore.Rot>
2.4272

> <Gold.Chemscore.Internal.Correction>
   9.000000E+99

> <Gold.Chemscore.Hbonds>
donor molecule, donor type, donor heavy atom, donor atom, acceptor molecule, acceptor atom, score
      P1  H  7989  7998       L1    17  0.74

> <Gold.Chemscore.Hbond.Weighted>
-2.5650

> <Gold.Chemscore.Metal.Weighted>
-0.0000

> <Gold.Chemscore.Lipo.Weighted>
-13.3415

> <Gold.Chemscore.Internal_Hbond.Weighted>
0.0000

> <Gold.Chemscore.DEClash.Weighted>
0.0201

> <Gold.Chemscore.DEInternal.Weighted>
4.9365

> <Gold.Chemscore.Rot.Weighted>
6.2135

> <Gold.Chemscore.Internal.Correction.Weighted>
   9.000000E+99

> <Gold.Protein.RotatedTorsions>
[ 6907 6896 6895 6894 ] final   55.18 input  -60.11 | X-H torsion
[ 7974 7965 7964 7962 ] final  145.11 input  175.53 | X-H torsion
[ 8008 7997 7996 7995 ] final -123.25 input   59.86 | X-H torsion
[ 10167 10162 10161 10158 ] final   47.84 input  -65.29 | X-H torsion
[ 10718 10713 10712 10709 ] final   47.93 input   66.30 | X-H torsion
[ 10763 10752 10751 10750 ] final  -18.56 input  -60.55 | X-H torsion
[ 11005 11000 10999 10996 ] final  103.73 input  -57.11 | X-H torsion

> <Gold.Protein.ActiveResidues>
 VAL166  LYS551  ARG553  GLY616  TRP617  ASP618  TYR619  PRO620  LYS621  CYS622 
 ASP623  PHE694  ASN695  SER759  ASP760  ASP761  ALA762  ILE779  LEU786  VAL792 
 PHE793  MET794  SER795  GLU796  ALA797  LYS798  CYS799  TRP800  GLU811  SER814 

> <Gold.Protein.RotatedAtoms>
  152.3513  134.7002  160.0235 H   0  0  0  0  0  0  0  0  0  0  0  0  # atno 6907 bound_to 6896
  151.7355  133.3314  159.3359 H   0  0  0  0  0  0  0  0  0  0  0  0  # atno 6908 bound_to 6896
  150.7542  134.6259  159.6205 H   0  0  0  0  0  0  0  0  0  0  0  0  # atno 6909 bound_to 6896
  144.8779  139.5744  143.5856 H   0  0  0  0  0  0  0  0  0  0  0  0  # atno 7974 bound_to 7965
  155.1775  140.0409  157.2875 H   0  0  0  0  0  0  0  0  0  0  0  0  # atno 8008 bound_to 7997
  154.6227  140.2504  155.7502 H   0  0  0  0  0  0  0  0  0  0  0  0  # atno 8009 bound_to 7997
  156.2442  140.2891  156.0542 H   0  0  0  0  0  0  0  0  0  0  0  0  # atno 8010 bound_to 7997
  140.2994  144.2951  150.6222 H   0  0  0  0  0  0  0  0  0  0  0  0  # atno 10167 bound_to 10162
  157.4635  130.8211  149.7912 H   0  0  0  0  0  0  0  0  0  0  0  0  # atno 10718 bound_to 10713
  153.5911  135.7002  153.5423 H   0  0  0  0  0  0  0  0  0  0  0  0  # atno 10763 bound_to 10752
  153.3177  135.4083  155.1390 H   0  0  0  0  0  0  0  0  0  0  0  0  # atno 10764 bound_to 10752
  154.8600  135.3688  154.5443 H   0  0  0  0  0  0  0  0  0  0  0  0  # atno 10765 bound_to 10752
  139.8786  134.9274  156.5254 H   0  0  0  0  0  0  0  0  0  0  0  0  # atno 11005 bound_to 11000
  146.2975  139.7323  142.9116 LP  0  0  0  0  0  0  0  0  0  0  0  0  # atno 17320 bound_to 7965
  145.4008  141.0385  143.3072 LP  0  0  0  0  0  0  0  0  0  0  0  0  # atno 17321 bound_to 7965
  140.5664  143.2186  151.7677 LP  0  0  0  0  0  0  0  0  0  0  0  0  # atno 17342 bound_to 10162
  139.4918  144.4278  151.9906 LP  0  0  0  0  0  0  0  0  0  0  0  0  # atno 17343 bound_to 10162
  156.0040  130.3865  150.2500 LP  0  0  0  0  0  0  0  0  0  0  0  0  # atno 17370 bound_to 10713
  157.0679  131.0108  151.3200 LP  0  0  0  0  0  0  0  0  0  0  0  0  # atno 17371 bound_to 10713
  140.8419  133.8198  155.9084 LP  0  0  0  0  0  0  0  0  0  0  0  0  # atno 17394 bound_to 11000
  140.9229  134.2119  157.4915 LP  0  0  0  0  0  0  0  0  0  0  0  0  # atno 17395 bound_to 11000

$$$$
