AV-unprocessed.smi:2790|AV-procd|sdf|10769|dock9
  -GOLD-   2272015203D 1   1.00000     0.00000
 Structure written by MMmdl.
 45 46  0  0  0  0  0  0  0  0  3 V2000
  149.3845  133.8223  154.2157 C   0  0  0  0  0  0  0  0  0  0  0  0
  149.1295  135.2498  154.5016 N   0  3  0  0  0  0  0  0  0  0  0  0
  150.3400  135.9384  155.0074 C   0  0  0  0  0  0  0  0  0  0  0  0
  147.9350  135.4513  155.3610 C   0  0  0  0  0  0  0  0  0  0  0  0
  147.4533  136.9032  155.2729 C   0  0  0  0  0  0  0  0  0  0  0  0
  146.6334  137.1977  154.3981 O   0  0  0  0  0  0  0  0  0  0  0  0
  148.0309  137.6647  156.2424 N   0  5  0  0  0  0  0  0  0  0  0  0
  147.8911  139.1203  156.3310 C   0  0  0  0  0  0  0  0  0  0  0  0
  148.7640  139.8563  155.2386 C   0  0  0  0  0  0  0  0  0  0  0  0
  150.2729  139.6109  155.5366 C   0  0  0  0  0  0  0  0  0  0  0  0
  150.8629  140.0238  156.7609 C   0  0  0  0  0  0  0  0  0  0  0  0
  152.2280  139.7707  156.9962 C   0  0  0  0  0  0  0  0  0  0  0  0
  153.0315  139.1489  156.1101 N   0  0  0  0  0  0  0  0  0  0  0  0
  152.4845  138.7565  154.9429 C   0  0  0  0  0  0  0  0  0  0  0  0
  151.1297  138.9544  154.6132 C   0  0  0  0  0  0  0  0  0  0  0  0
  148.4055  139.3786  153.7822 C   0  0  0  0  0  0  0  0  0  0  0  0
  147.0528  139.8636  153.2165 C   0  0  0  0  0  0  0  0  0  0  0  0
  146.9470  141.3897  153.2632 C   0  0  0  0  0  0  0  0  0  0  0  0
  147.1652  141.8960  154.6910 C   0  0  0  0  0  0  0  0  0  0  0  0
  148.5132  141.4072  155.2678 C   0  0  0  0  0  0  0  0  0  0  0  0
  149.6075  133.2734  155.1316 H   0  0  0  0  0  0  0  0  0  0  0  0
  150.2281  133.7111  153.5338 H   0  0  0  0  0  0  0  0  0  0  0  0
  148.5157  133.3642  153.7417 H   0  0  0  0  0  0  0  0  0  0  0  0
  150.6316  135.5510  155.9842 H   0  0  0  0  0  0  0  0  0  0  0  0
  150.1741  137.0122  155.0994 H   0  0  0  0  0  0  0  0  0  0  0  0
  151.1756  135.7967  154.3218 H   0  0  0  0  0  0  0  0  0  0  0  0
  147.1194  134.8021  155.0372 H   0  0  0  0  0  0  0  0  0  0  0  0
  148.1580  135.1787  156.3939 H   0  0  0  0  0  0  0  0  0  0  0  0
  146.8478  139.4130  156.2162 H   0  0  0  0  0  0  0  0  0  0  0  0
  148.1801  139.5005  157.3121 H   0  0  0  0  0  0  0  0  0  0  0  0
  150.2836  140.5129  157.5289 H   0  0  0  0  0  0  0  0  0  0  0  0
  152.6858  140.0728  157.9265 H   0  0  0  0  0  0  0  0  0  0  0  0
  153.1448  138.2548  154.2513 H   0  0  0  0  0  0  0  0  0  0  0  0
  150.7758  138.5883  153.6626 H   0  0  0  0  0  0  0  0  0  0  0  0
  149.1679  139.7606  153.1015 H   0  0  0  0  0  0  0  0  0  0  0  0
  148.4518  138.2924  153.6829 H   0  0  0  0  0  0  0  0  0  0  0  0
  146.9467  139.5234  152.1860 H   0  0  0  0  0  0  0  0  0  0  0  0
  146.2234  139.4162  153.7649 H   0  0  0  0  0  0  0  0  0  0  0  0
  147.6905  141.8311  152.5984 H   0  0  0  0  0  0  0  0  0  0  0  0
  145.9714  141.7098  152.8966 H   0  0  0  0  0  0  0  0  0  0  0  0
  147.1410  142.9861  154.6974 H   0  0  0  0  0  0  0  0  0  0  0  0
  146.3388  141.5758  155.3263 H   0  0  0  0  0  0  0  0  0  0  0  0
  148.6242  141.8240  156.2703 H   0  0  0  0  0  0  0  0  0  0  0  0
  149.2956  141.8857  154.6762 H   0  0  0  0  0  0  0  0  0  0  0  0
  148.8961  135.6799  153.6171 H   0  0  0  0  0  0  0  0  0  0  0  0
  1  2  1  0  0  0  0
  1 21  1  0  0  0  0
  1 22  1  0  0  0  0
  1 23  1  0  0  0  0
  2  3  1  0  0  0  0
  2  4  1  0  0  0  0
  2 45  1  0  0  0  0
  3 24  1  0  0  0  0
  3 25  1  0  0  0  0
  3 26  1  0  0  0  0
  4  5  1  0  0  0  0
  4 27  1  0  0  0  0
  4 28  1  0  0  0  0
  5  6  2  0  0  0  0
  5  7  1  0  0  0  0
  7  8  1  0  0  0  0
  8  9  1  0  0  0  0
  8 29  1  0  0  0  0
  8 30  1  0  0  0  0
  9 20  1  0  0  0  0
  9 10  1  0  0  0  0
  9 16  1  0  0  0  0
 10 15  1  0  0  0  0
 10 11  2  0  0  0  0
 11 12  1  0  0  0  0
 11 31  1  0  0  0  0
 12 13  2  0  0  0  0
 12 32  1  0  0  0  0
 13 14  1  0  0  0  0
 14 15  2  0  0  0  0
 14 33  1  0  0  0  0
 15 34  1  0  0  0  0
 16 17  1  0  0  0  0
 16 35  1  0  0  0  0
 16 36  1  0  0  0  0
 17 18  1  0  0  0  0
 17 37  1  0  0  0  0
 17 38  1  0  0  0  0
 18 19  1  0  0  0  0
 18 39  1  0  0  0  0
 18 40  1  0  0  0  0
 19 20  1  0  0  0  0
 19 41  1  0  0  0  0
 19 42  1  0  0  0  0
 20 43  1  0  0  0  0
 20 44  1  0  0  0  0
M  CHG  1   2   1
M  CHG  1   7  -1
M  END
> <s_m_source_file>
AV-unprocessed.smi

> <i_m_source_file_index>
2790

> <i_lp_mmshare_version>
43012

> <i_f3d_flags>
0

> <s_epik_input>
W0NIM11OKFtDSDNdKVtDSDJdQyg9TylbTkhdW0NIMl1DMShbQ0gyXVtDSDJdW0NIMl1bQ0gyXVtDSDJdMSljMltjSF1bY0hdbltjSF1bY0hdMg==

> <s_epik_cmdline>
J2VwaWtfcHl0aG9uJywgJy1waCcsICc3LjAnLCAnLXRuJywgJzgnLCAnLW1hJywgJzIwMCcsICctbWV0YWxfYmluZGluZycsICctaW1hZScsICc8aW5maWxlLm1hZT4nLCAnLW9tYWUnLCAnPG91dGZpbGUubWFlPic=

> <r_epik_Ionization_Penalty>
6.38592

> <r_epik_Ionization_Penalty_Charging>
6.21784

> <r_epik_Ionization_Penalty_Neutral>
0.168075

> <r_epik_State_Penalty>
6.29446

> <r_epik_Charging_Adjusted_Penalty>
12.5123

> <i_epik_Tot_Q>
0

> <i_epik_Tot_abs_Q>
2

> <r_epik_Metal_State_Penalty>
2.27801

> <b_epik_Metal_Only>
1

> <s_lp_Force_Field>
OPLS_2005

> <r_lp_Energy>
25.1562

> <b_lp_Chiralities_Consistent>
1

> <s_lp_Variant>
AV-unprocessed.smi:2790-4

> <Gold.Version>
5.8.1

> <Gold.Id.Protein>
6NUR|6NUR_protein|mol2

> <Gold.PLP.Fitness>
37.0228

> <Gold.PLP.PLP>
-29.1666

> <Gold.PLP.part.hbond>
-2.0000

> <Gold.PLP.part.metal>
0.0000

> <Gold.PLP.part.buried>
-1.9723

> <Gold.PLP.part.nonpolar>
-25.2237

> <Gold.PLP.part.repulsive>
0.1153

> <Gold.PLP.ligand.clash>
0.0000

> <Gold.PLP.ligand.torsion>
0.6077

> <Gold.PLP.Chemscore.Hbond>
3.0000

> <Gold.PLP.Chemscore.CHOScore>
0.0000

> <Gold.PLP.Chemscore.Metal>
0.0000

> <Gold.Chemscore.Hbonds>
donor molecule, donor type, donor heavy atom, donor atom, acceptor molecule, acceptor atom, score
      L1  H     2    45       P1  7948  2.00
      P1  H  7997  8010       L1    13  0.75

> <Gold.PLP.Chemscore.Internal.Correction>
0.0716

> <Gold.Rescore>
     Score         DG    S(hbond)    S(metal)    S(lipo)     H(rot)  DE(clash)    DE(int)     intcor
     15.81     -16.72       1.76        0.00      80.78       1.59       0.14       0.77       ----

> <Gold.Chemscore.Fitness>
15.8122

> <Gold.Chemscore.DG>
-16.7238

> <Gold.Chemscore.ZeroCoef>
-5.4800

> <Gold.Chemscore.Hbond>
1.7584

> <Gold.Chemscore.Metal>
0.0000

> <Gold.Chemscore.Lipo>
80.7758

> <Gold.Chemscore.Internal_Hbond>
0.0000

> <Gold.Chemscore.DEClash>
0.1424

> <Gold.Chemscore.DEInternal>
0.7691

> <Gold.Chemscore.Rot>
1.5938

> <Gold.Chemscore.Internal.Correction>
   9.000000E+99

> <Gold.Chemscore.Hbonds>
donor molecule, donor type, donor heavy atom, donor atom, acceptor molecule, acceptor atom, score
      L1  H     2    45       P1  7948  0.92
      P1  H  7997  8010       L1    13  0.09

> <Gold.Chemscore.Hbond.Weighted>
-5.8732

> <Gold.Chemscore.Metal.Weighted>
-0.0000

> <Gold.Chemscore.Lipo.Weighted>
-9.4508

> <Gold.Chemscore.Internal_Hbond.Weighted>
0.0000

> <Gold.Chemscore.DEClash.Weighted>
0.1424

> <Gold.Chemscore.DEInternal.Weighted>
0.7691

> <Gold.Chemscore.Rot.Weighted>
4.0802

> <Gold.Chemscore.Internal.Correction.Weighted>
   9.000000E+99

> <Gold.Protein.RotatedTorsions>
[ 6907 6896 6895 6894 ] final  126.76 input  -60.11 | X-H torsion
[ 7974 7965 7964 7962 ] final  -16.01 input  175.53 | X-H torsion
[ 8008 7997 7996 7995 ] final   71.48 input   59.86 | X-H torsion
[ 10167 10162 10161 10158 ] final -110.41 input  -65.29 | X-H torsion
[ 10718 10713 10712 10709 ] final   98.80 input   66.30 | X-H torsion
[ 10763 10752 10751 10750 ] final   21.08 input  -60.55 | X-H torsion
[ 11005 11000 10999 10996 ] final  147.16 input  -57.11 | X-H torsion

> <Gold.Protein.ActiveResidues>
 VAL166  LYS551  ARG553  GLY616  TRP617  ASP618  TYR619  PRO620  LYS621  CYS622 
 ASP623  PHE694  ASN695  SER759  ASP760  ASP761  ALA762  ILE779  LEU786  VAL792 
 PHE793  MET794  SER795  GLU796  ALA797  LYS798  CYS799  TRP800  GLU811  SER814 

> <Gold.Protein.RotatedAtoms>
  152.3874  133.6631  159.6209 H   0  0  0  0  0  0  0  0  0  0  0  0  # atno 6907 bound_to 6896
  150.7790  133.9011  159.3350 H   0  0  0  0  0  0  0  0  0  0  0  0  # atno 6908 bound_to 6896
  151.6805  135.0964  160.0266 H   0  0  0  0  0  0  0  0  0  0  0  0  # atno 6909 bound_to 6896
  146.2007  140.3575  142.8424 H   0  0  0  0  0  0  0  0  0  0  0  0  # atno 7974 bound_to 7965
  155.7546  140.3488  155.5167 H   0  0  0  0  0  0  0  0  0  0  0  0  # atno 8008 bound_to 7997
  155.8972  140.1028  157.1397 H   0  0  0  0  0  0  0  0  0  0  0  0  # atno 8009 bound_to 7997
  154.4040  140.1293  156.4378 H   0  0  0  0  0  0  0  0  0  0  0  0  # atno 8010 bound_to 7997
  140.1448  143.4248  152.1537 H   0  0  0  0  0  0  0  0  0  0  0  0  # atno 10167 bound_to 10162
  157.6889  131.0651  150.4851 H   0  0  0  0  0  0  0  0  0  0  0  0  # atno 10718 bound_to 10713
  153.1024  135.6676  153.9648 H   0  0  0  0  0  0  0  0  0  0  0  0  # atno 10763 bound_to 10752
  153.9215  135.3014  155.3449 H   0  0  0  0  0  0  0  0  0  0  0  0  # atno 10764 bound_to 10752
  154.7445  135.5064  153.9255 H   0  0  0  0  0  0  0  0  0  0  0  0  # atno 10765 bound_to 10752
  140.0853  134.9073  157.1565 H   0  0  0  0  0  0  0  0  0  0  0  0  # atno 11005 bound_to 11000
  144.8676  140.7228  143.6067 LP  0  0  0  0  0  0  0  0  0  0  0  0  # atno 17320 bound_to 7965
  145.3495  139.1710  143.4442 LP  0  0  0  0  0  0  0  0  0  0  0  0  # atno 17321 bound_to 7965
  139.5454  144.7294  151.4599 LP  0  0  0  0  0  0  0  0  0  0  0  0  # atno 17342 bound_to 10162
  140.6738  143.8234  150.7033 LP  0  0  0  0  0  0  0  0  0  0  0  0  # atno 17343 bound_to 10162
  156.5180  130.4155  149.6265 LP  0  0  0  0  0  0  0  0  0  0  0  0  # atno 17370 bound_to 10713
  156.3180  130.7265  151.2171 LP  0  0  0  0  0  0  0  0  0  0  0  0  # atno 17371 bound_to 10713
  140.3430  134.2683  155.7209 LP  0  0  0  0  0  0  0  0  0  0  0  0  # atno 17394 bound_to 11000
  141.2060  133.7844  157.0200 LP  0  0  0  0  0  0  0  0  0  0  0  0  # atno 17395 bound_to 11000

$$$$
