AV-unprocessed.smi:20|AV-procd|sdf|117|dock10
  -GOLD-   2262015283D 1   1.00000     0.00000
 Structure written by MMmdl.
 57 61  0  0  0  0  0  0  0  0  1 V2000
  147.5466  132.0035  152.6741 O   0  0  0  0  0  0  0  0  0  0  0  0
  148.4158  132.3432  153.4734 C   0  0  0  0  0  0  0  0  0  0  0  0
  148.5818  133.7631  153.9873 C   0  0  0  0  0  0  0  0  0  0  0  0
  149.5219  133.5966  155.2058 C   0  0  2  0  0  0  0  0  0  0  0  0
  148.7245  133.4676  156.5315 C   0  0  0  0  0  0  0  0  0  0  0  0
  148.1098  134.8079  156.9716 C   0  0  0  0  0  0  0  0  0  0  0  0
  149.1739  135.9130  157.0257 C   0  0  0  0  0  0  0  0  0  0  0  0
  149.8979  135.9965  155.7592 N   0  0  0  0  0  0  0  0  0  0  0  0
  150.5828  137.1539  155.5769 C   0  0  0  0  0  0  0  0  0  0  0  0
  151.5356  137.2345  154.6094 N   0  0  0  0  0  0  0  0  0  0  0  0
  152.2197  138.3679  154.4279 C   0  0  0  0  0  0  0  0  0  0  0  0
  152.1127  139.5223  155.0881 N   0  0  0  0  0  0  0  0  0  0  0  0
  151.1557  139.4492  156.0564 C   0  0  0  0  0  0  0  0  0  0  0  0
  150.3515  138.3162  156.3656 C   0  0  0  0  0  0  0  0  0  0  0  0
  149.4788  138.6256  157.4028 N   0  0  0  0  0  0  0  0  0  0  0  0
  149.7573  139.8669  157.6952 C   0  0  0  0  0  0  0  0  0  0  0  0
  150.7563  140.4368  156.9385 N   0  0  0  0  0  0  0  0  0  0  0  0
  151.2648  141.7932  157.0390 C   0  0  0  0  0  0  0  0  0  0  0  0
  151.2424  142.3695  158.4799 C   0  0  2  0  0  0  0  0  0  0  0  0
  150.8515  143.8695  158.5062 C   0  0  0  0  0  0  0  0  0  0  0  0
  149.4507  144.0519  158.4914 O   0  0  0  0  0  0  0  0  0  0  0  0
  152.6083  142.1399  159.1784 C   0  0  1  0  0  0  0  0  0  0  0  0
  152.7336  142.7691  160.5650 C   0  0  0  0  0  0  0  0  0  0  0  0
  153.6331  141.8109  161.3523 C   0  0  0  0  0  0  0  0  0  0  0  0
  153.9783  140.7747  160.4453 O   0  0  0  0  0  0  0  0  0  0  0  0
  152.9418  140.6779  159.4849 C   0  0  0  0  0  0  0  0  0  0  0  0
  150.5408  134.7520  155.3327 C   0  0  0  0  0  0  0  0  0  0  0  0
  150.2376  132.2597  154.8983 C   0  0  0  0  0  0  0  0  0  0  0  0
  149.3369  131.5484  154.0123 N   0  0  0  0  0  0  0  0  0  0  0  0
  149.0412  134.3634  153.2011 H   0  0  0  0  0  0  0  0  0  0  0  0
  147.6187  134.2094  154.2331 H   0  0  0  0  0  0  0  0  0  0  0  0
  147.9430  132.7118  156.4420 H   0  0  0  0  0  0  0  0  0  0  0  0
  149.3911  133.1217  157.3229 H   0  0  0  0  0  0  0  0  0  0  0  0
  147.3137  135.1028  156.2882 H   0  0  0  0  0  0  0  0  0  0  0  0
  147.6423  134.6975  157.9502 H   0  0  0  0  0  0  0  0  0  0  0  0
  148.6988  136.8597  157.2804 H   0  0  0  0  0  0  0  0  0  0  0  0
  149.8886  135.6992  157.8216 H   0  0  0  0  0  0  0  0  0  0  0  0
  152.9594  138.3465  153.6412 H   0  0  0  0  0  0  0  0  0  0  0  0
  149.2419  140.4030  158.4788 H   0  0  0  0  0  0  0  0  0  0  0  0
  152.2807  141.7783  156.6452 H   0  0  0  0  0  0  0  0  0  0  0  0
  150.6860  142.4317  156.3704 H   0  0  0  0  0  0  0  0  0  0  0  0
  150.4958  141.8179  159.0534 H   0  0  0  0  0  0  0  0  0  0  0  0
  151.2119  144.3575  159.4107 H   0  0  0  0  0  0  0  0  0  0  0  0
  151.2988  144.4010  157.6659 H   0  0  0  0  0  0  0  0  0  0  0  0
  149.2613  144.8987  158.1168 H   0  0  0  0  0  0  0  0  0  0  0  0
  153.4058  142.5398  158.5495 H   0  0  0  0  0  0  0  0  0  0  0  0
  153.1590  143.7718  160.5137 H   0  0  0  0  0  0  0  0  0  0  0  0
  151.7622  142.8451  161.0555 H   0  0  0  0  0  0  0  0  0  0  0  0
  154.5310  142.3007  161.7299 H   0  0  0  0  0  0  0  0  0  0  0  0
  153.0945  141.3878  162.2010 H   0  0  0  0  0  0  0  0  0  0  0  0
  152.0866  140.1561  159.9184 H   0  0  0  0  0  0  0  0  0  0  0  0
  153.2792  140.1241  158.6086 H   0  0  0  0  0  0  0  0  0  0  0  0
  151.3085  134.4879  156.0615 H   0  0  0  0  0  0  0  0  0  0  0  0
  151.0488  134.8998  154.3782 H   0  0  0  0  0  0  0  0  0  0  0  0
  151.1782  132.4213  154.3695 H   0  0  0  0  0  0  0  0  0  0  0  0
  150.4563  131.6746  155.7920 H   0  0  0  0  0  0  0  0  0  0  0  0
  149.4231  130.5610  153.8191 H   0  0  0  0  0  0  0  0  0  0  0  0
  1  2  2  0  0  0  0
  2 29  1  0  0  0  0
  2  3  1  0  0  0  0
  3  4  1  0  0  0  0
  3 30  1  0  0  0  0
  3 31  1  0  0  0  0
  4 27  1  0  0  0  0
  4  5  1  0  0  0  0
  4 28  1  0  0  0  0
  5  6  1  0  0  0  0
  5 32  1  0  0  0  0
  5 33  1  0  0  0  0
  6  7  1  0  0  0  0
  6 34  1  0  0  0  0
  6 35  1  0  0  0  0
  7  8  1  0  0  0  0
  7 36  1  0  0  0  0
  7 37  1  0  0  0  0
  8  9  1  0  0  0  0
  8 27  1  0  0  0  0
  9 14  1  0  0  0  0
  9 10  2  0  0  0  0
 10 11  1  0  0  0  0
 11 12  2  0  0  0  0
 11 38  1  0  0  0  0
 12 13  1  0  0  0  0
 13 17  1  0  0  0  0
 13 14  2  0  0  0  0
 14 15  1  0  0  0  0
 15 16  2  0  0  0  0
 16 17  1  0  0  0  0
 16 39  1  0  0  0  0
 17 18  1  0  0  0  0
 18 19  1  0  0  0  0
 18 40  1  0  0  0  0
 18 41  1  0  0  0  0
 19 20  1  0  0  0  0
 19 22  1  0  0  0  0
 19 42  1  0  0  0  0
 20 21  1  0  0  0  0
 20 43  1  0  0  0  0
 20 44  1  0  0  0  0
 21 45  1  0  0  0  0
 22 26  1  0  0  0  0
 22 23  1  0  0  0  0
 22 46  1  0  0  0  0
 23 24  1  0  0  0  0
 23 47  1  0  0  0  0
 23 48  1  0  0  0  0
 24 25  1  0  0  0  0
 24 49  1  0  0  0  0
 24 50  1  0  0  0  0
 25 26  1  0  0  0  0
 26 51  1  0  0  0  0
 26 52  1  0  0  0  0
 27 53  1  0  0  0  0
 27 54  1  0  0  0  0
 28 29  1  0  0  0  0
 28 55  1  0  0  0  0
 28 56  1  0  0  0  0
 29 57  1  0  0  0  0
M  END
> <s_m_source_file>
AV-unprocessed.smi

> <i_m_source_file_index>
20

> <i_lp_mmshare_version>
43012

> <i_f3d_flags>
0

> <s_epik_input>
W0NIMl0xW05IXUMoPU8pW0NIMl1bQ0BAXTEyW0NIMl1bQ0gyXVtDSDJdTihbQ0gyXTIpYyhuW2NIXW4zKWMoYzM0KW5bY0hdbjRbQ0gyXVtDQEhdKFtDSDJdW09IXSlbQ0BASF01W0NIMl1bQ0gyXU9bQ0gyXTU=

> <s_epik_cmdline>
J2VwaWtfcHl0aG9uJywgJy1waCcsICc3LjAnLCAnLXRuJywgJzgnLCAnLW1hJywgJzIwMCcsICctbWV0YWxfYmluZGluZycsICctaW1hZScsICc8aW5maWxlLm1hZT4nLCAnLW9tYWUnLCAnPG91dGZpbGUubWFlPic=

> <r_lp_tautomer_probability>
1

> <r_epik_Ionization_Penalty>
0.0019697

> <r_epik_Ionization_Penalty_Charging>
0

> <r_epik_Ionization_Penalty_Neutral>
0.0019697

> <r_epik_State_Penalty>
0.00113613

> <r_epik_Charging_Adjusted_Penalty>
0.00113613

> <i_epik_Tot_Q>
0

> <i_epik_Tot_abs_Q>
0

> <r_epik_Metal_State_Penalty>
-0

> <b_epik_Metal_Only>
0

> <s_lp_Force_Field>
OPLS_2005

> <r_lp_Energy>
58.6133

> <b_lp_Chiralities_Consistent>
1

> <s_lp_Variant>
AV-unprocessed.smi:20-5

> <Gold.Version>
5.8.1

> <Gold.Id.Protein>
6NUR|6NUR_protein|mol2

> <Gold.PLP.Fitness>
50.2440

> <Gold.PLP.PLP>
-45.5447

> <Gold.PLP.part.hbond>
-3.9491

> <Gold.PLP.part.metal>
0.0000

> <Gold.PLP.part.buried>
-8.7719

> <Gold.PLP.part.nonpolar>
-32.4138

> <Gold.PLP.part.repulsive>
0.6141

> <Gold.PLP.ligand.clash>
0.0000

> <Gold.PLP.ligand.torsion>
1.7928

> <Gold.PLP.Chemscore.Hbond>
2.6235

> <Gold.PLP.Chemscore.CHOScore>
0.0000

> <Gold.PLP.Chemscore.Metal>
0.0000

> <Gold.Chemscore.Hbonds>
donor molecule, donor type, donor heavy atom, donor atom, acceptor molecule, acceptor atom, score
      L1  H    21    45       P1  8029  0.90
      P1  H  7989  7998       L1    12  0.67
      P1  H 10752 10764       L1    10  0.76

> <Gold.PLP.Chemscore.Internal.Correction>
0.4143

> <Gold.Rescore>
     Score         DG    S(hbond)    S(metal)    S(lipo)     H(rot)  DE(clash)    DE(int)     intcor
      8.30     -11.84       0.79        0.00      91.77       2.74       0.73       2.82       ----

> <Gold.Chemscore.Fitness>
8.2980

> <Gold.Chemscore.DG>
-11.8437

> <Gold.Chemscore.ZeroCoef>
-5.4800

> <Gold.Chemscore.Hbond>
0.7920

> <Gold.Chemscore.Metal>
0.0000

> <Gold.Chemscore.Lipo>
91.7668

> <Gold.Chemscore.Internal_Hbond>
0.0000

> <Gold.Chemscore.DEClash>
0.7273

> <Gold.Chemscore.DEInternal>
2.8185

> <Gold.Chemscore.Rot>
2.7415

> <Gold.Chemscore.Internal.Correction>
   9.000000E+99

> <Gold.Chemscore.Hbonds>
donor molecule, donor type, donor heavy atom, donor atom, acceptor molecule, acceptor atom, score
      L1  H    21    45       P1  8029  0.26
      P1  H  7989  7998       L1    12  0.18
      P1  H 10752 10764       L1    10  0.40

> <Gold.Chemscore.Hbond.Weighted>
-2.6451

> <Gold.Chemscore.Metal.Weighted>
-0.0000

> <Gold.Chemscore.Lipo.Weighted>
-10.7367

> <Gold.Chemscore.Internal_Hbond.Weighted>
0.0000

> <Gold.Chemscore.DEClash.Weighted>
0.7273

> <Gold.Chemscore.DEInternal.Weighted>
2.8185

> <Gold.Chemscore.Rot.Weighted>
7.0182

> <Gold.Chemscore.Internal.Correction.Weighted>
   9.000000E+99

> <Gold.Protein.RotatedTorsions>
[ 6907 6896 6895 6894 ] final   25.71 input  -60.11 | X-H torsion
[ 7974 7965 7964 7962 ] final   69.86 input  175.53 | X-H torsion
[ 8008 7997 7996 7995 ] final   17.49 input   59.86 | X-H torsion
[ 10167 10162 10161 10158 ] final  162.39 input  -65.29 | X-H torsion
[ 10718 10713 10712 10709 ] final  -45.03 input   66.30 | X-H torsion
[ 10763 10752 10751 10750 ] final  -73.34 input  -60.55 | X-H torsion
[ 11005 11000 10999 10996 ] final    8.71 input  -57.11 | X-H torsion

> <Gold.Protein.ActiveResidues>
 VAL166  LYS551  ARG553  GLY616  TRP617  ASP618  TYR619  PRO620  LYS621  CYS622 
 ASP623  PHE694  ASN695  SER759  ASP760  ASP761  ALA762  ILE779  LEU786  VAL792 
 PHE793  MET794  SER795  GLU796  ALA797  LYS798  CYS799  TRP800  GLU811  SER814 

> <Gold.Protein.RotatedAtoms>
  151.9767  135.0049  160.0555 H   0  0  0  0  0  0  0  0  0  0  0  0  # atno 6907 bound_to 6896
  152.1734  133.4654  159.4929 H   0  0  0  0  0  0  0  0  0  0  0  0  # atno 6908 bound_to 6896
  150.6905  134.1842  159.4303 H   0  0  0  0  0  0  0  0  0  0  0  0  # atno 6909 bound_to 6896
  145.7853  139.2907  143.1242 H   0  0  0  0  0  0  0  0  0  0  0  0  # atno 7974 bound_to 7965
  154.8921  140.2988  155.5365 H   0  0  0  0  0  0  0  0  0  0  0  0  # atno 8008 bound_to 7997
  156.3020  140.2422  156.3873 H   0  0  0  0  0  0  0  0  0  0  0  0  # atno 8009 bound_to 7997
  154.8607  140.0405  157.1652 H   0  0  0  0  0  0  0  0  0  0  0  0  # atno 8010 bound_to 7997
  139.4860  144.4442  151.8913 H   0  0  0  0  0  0  0  0  0  0  0  0  # atno 10167 bound_to 10162
  156.2325  130.4173  149.8857 H   0  0  0  0  0  0  0  0  0  0  0  0  # atno 10718 bound_to 10713
  154.4582  135.5900  153.6237 H   0  0  0  0  0  0  0  0  0  0  0  0  # atno 10763 bound_to 10752
  152.9820  135.6037  154.3519 H   0  0  0  0  0  0  0  0  0  0  0  0  # atno 10764 bound_to 10752
  154.3388  135.2842  155.2412 H   0  0  0  0  0  0  0  0  0  0  0  0  # atno 10765 bound_to 10752
  140.5339  134.0440  155.7882 H   0  0  0  0  0  0  0  0  0  0  0  0  # atno 11005 bound_to 11000
  146.0032  140.8501  143.0008 LP  0  0  0  0  0  0  0  0  0  0  0  0  # atno 17320 bound_to 7965
  144.6790  140.2383  143.7347 LP  0  0  0  0  0  0  0  0  0  0  0  0  # atno 17321 bound_to 7965
  140.3895  144.2633  150.5901 LP  0  0  0  0  0  0  0  0  0  0  0  0  # atno 17342 bound_to 10162
  140.5159  143.2278  151.8464 LP  0  0  0  0  0  0  0  0  0  0  0  0  # atno 17343 bound_to 10162
  156.6466  130.8726  151.3524 LP  0  0  0  0  0  0  0  0  0  0  0  0  # atno 17370 bound_to 10713
  157.7140  130.9474  150.1187 LP  0  0  0  0  0  0  0  0  0  0  0  0  # atno 17371 bound_to 10713
  141.1266  133.9373  157.2623 LP  0  0  0  0  0  0  0  0  0  0  0  0  # atno 17394 bound_to 11000
  139.9539  135.0169  156.9074 LP  0  0  0  0  0  0  0  0  0  0  0  0  # atno 17395 bound_to 11000

$$$$
