AV-unprocessed.smi:3298|AV-procd|sdf|12644|dock5
  -GOLD-   2272018573D 1   1.00000     0.00000
 Structure written by MMmdl.
 36 37  0  0  0  0  0  0  0  0  2 V2000
  146.2176  142.9913  153.9881 C   0  0  0  0  0  0  0  0  0  0  0  0
  147.1928  141.8385  154.1015 C   0  0  0  0  0  0  0  0  0  0  0  0
  146.8932  140.5476  153.6161 C   0  0  0  0  0  0  0  0  0  0  0  0
  147.8396  139.5098  153.7649 C   0  0  0  0  0  0  0  0  0  0  0  0
  147.5057  138.2270  153.2551 N   0  0  0  0  0  0  0  0  0  0  0  0
  146.3045  137.6243  153.2660 C   0  0  0  0  0  0  0  0  0  0  0  0
  145.2733  138.1099  153.7312 O   0  0  0  0  0  0  0  0  0  0  0  0
  146.3549  136.4219  152.6759 N   0  0  0  0  0  0  0  0  0  0  0  0
  145.2055  135.5461  152.4762 C   0  0  2  0  0  0  0  0  0  0  0  0
  145.3552  134.2867  153.2845 C   0  0  0  0  0  0  0  0  0  0  0  0
  145.2965  133.1864  152.5380 C   0  0  0  0  0  0  0  0  0  0  0  0
  145.1056  133.4823  151.0722 C   0  0  2  0  0  0  0  0  0  0  0  0
  146.1989  132.8540  150.1904 C   0  0  0  0  0  0  0  0  0  0  0  0
  146.2667  131.4591  150.3991 O   0  0  0  0  0  0  0  0  0  0  0  0
  145.0954  135.0315  151.0163 C   0  0  0  0  0  0  0  0  0  0  0  0
  149.0847  139.8073  154.3735 C   0  0  0  0  0  0  0  0  0  0  0  0
  149.3306  141.1159  154.8351 C   0  0  0  0  0  0  0  0  0  0  0  0
  148.3879  142.0713  154.6875 N   0  3  0  0  0  0  0  0  0  0  0  0
  144.2858  136.0460  152.7851 H   0  0  0  0  0  0  0  0  0  0  0  0
  144.1281  133.1006  150.7743 H   0  0  0  0  0  0  0  0  0  0  0  0
  145.2165  142.6344  153.7441 H   0  0  0  0  0  0  0  0  0  0  0  0
  146.5362  143.6800  153.2053 H   0  0  0  0  0  0  0  0  0  0  0  0
  146.1608  143.5405  154.9284 H   0  0  0  0  0  0  0  0  0  0  0  0
  145.9411  140.3537  153.1433 H   0  0  0  0  0  0  0  0  0  0  0  0
  148.2396  137.7504  152.7517 H   0  0  0  0  0  0  0  0  0  0  0  0
  147.2417  136.0971  152.3193 H   0  0  0  0  0  0  0  0  0  0  0  0
  145.4784  134.3024  154.3575 H   0  0  0  0  0  0  0  0  0  0  0  0
  145.3674  132.1769  152.9158 H   0  0  0  0  0  0  0  0  0  0  0  0
  145.9846  133.0350  149.1369 H   0  0  0  0  0  0  0  0  0  0  0  0
  147.1726  133.2968  150.4033 H   0  0  0  0  0  0  0  0  0  0  0  0
  147.1502  131.1715  150.2265 H   0  0  0  0  0  0  0  0  0  0  0  0
  144.1784  135.3938  150.5502 H   0  0  0  0  0  0  0  0  0  0  0  0
  145.9198  135.4013  150.4043 H   0  0  0  0  0  0  0  0  0  0  0  0
  149.8557  139.0594  154.4825 H   0  0  0  0  0  0  0  0  0  0  0  0
  150.2495  141.4255  155.3108 H   0  0  0  0  0  0  0  0  0  0  0  0
  148.5885  143.0112  155.0302 H   0  0  0  0  0  0  0  0  0  0  0  0
  1  2  1  0  0  0  0
  1 21  1  0  0  0  0
  1 22  1  0  0  0  0
  1 23  1  0  0  0  0
  2 18  1  0  0  0  0
  2  3  2  0  0  0  0
  3  4  1  0  0  0  0
  3 24  1  0  0  0  0
  4  5  1  0  0  0  0
  4 16  2  0  0  0  0
  5  6  1  0  0  0  0
  5 25  1  0  0  0  0
  6  7  2  0  0  0  0
  6  8  1  0  0  0  0
  8  9  1  0  0  0  0
  8 26  1  0  0  0  0
  9 19  1  0  0  0  0
  9 15  1  0  0  0  0
  9 10  1  0  0  0  0
 10 11  2  0  0  0  0
 10 27  1  0  0  0  0
 11 12  1  0  0  0  0
 11 28  1  0  0  0  0
 12 20  1  0  0  0  0
 12 13  1  0  0  0  0
 12 15  1  0  0  0  0
 13 14  1  0  0  0  0
 13 29  1  0  0  0  0
 13 30  1  0  0  0  0
 14 31  1  0  0  0  0
 15 32  1  0  0  0  0
 15 33  1  0  0  0  0
 16 17  1  0  0  0  0
 16 34  1  0  0  0  0
 17 18  2  0  0  0  0
 17 35  1  0  0  0  0
 18 36  1  0  0  0  0
M  CHG  1  18   1
M  END
> <s_m_source_file>
AV-unprocessed.smi

> <i_m_source_file_index>
3298

> <i_lp_mmshare_version>
43012

> <i_f3d_flags>
0

> <s_epik_input>
W0NIM11jMVtjSF1jKFtjSF1bY0hdbjEpW05IXUMoPU8pW05IXVtDQEBIXTJbQ0hdPVtDSF1bQ0BASF0oW0NIMl0yKVtDSDJdW09IXQ==

> <s_epik_cmdline>
J2VwaWtfcHl0aG9uJywgJy1waCcsICc3LjAnLCAnLXRuJywgJzgnLCAnLW1hJywgJzIwMCcsICctbWV0YWxfYmluZGluZycsICctaW1hZScsICc8aW5maWxlLm1hZT4nLCAnLW9tYWUnLCAnPG91dGZpbGUubWFlPic=

> <r_epik_Ionization_Penalty>
0.443901

> <r_epik_Ionization_Penalty_Charging>
0.443881

> <r_epik_Ionization_Penalty_Neutral>
1.94967e-05

> <r_epik_State_Penalty>
0.446172

> <r_epik_Charging_Adjusted_Penalty>
0.890053

> <i_epik_Tot_Q>
1

> <i_epik_Tot_abs_Q>
1

> <r_epik_Metal_State_Penalty>
0.675842

> <b_epik_Metal_Only>
0

> <s_lp_Force_Field>
OPLS_2005

> <r_lp_Energy>
26.7826

> <b_lp_Chiralities_Consistent>
1

> <s_lp_Variant>
AV-unprocessed.smi:3298-5

> <Gold.Version>
5.8.1

> <Gold.Id.Protein>
6NUR|6NUR_protein|mol2

> <Gold.PLP.Fitness>
46.8672

> <Gold.PLP.PLP>
-32.5377

> <Gold.PLP.part.hbond>
-4.0000

> <Gold.PLP.part.metal>
0.0000

> <Gold.PLP.part.buried>
-5.8112

> <Gold.PLP.part.nonpolar>
-24.3373

> <Gold.PLP.part.repulsive>
0.5192

> <Gold.PLP.ligand.clash>
0.0000

> <Gold.PLP.ligand.torsion>
0.3430

> <Gold.PLP.Chemscore.Hbond>
5.0000

> <Gold.PLP.Chemscore.CHOScore>
0.0000

> <Gold.PLP.Chemscore.Metal>
0.0000

> <Gold.Chemscore.Hbonds>
donor molecule, donor type, donor heavy atom, donor atom, acceptor molecule, acceptor atom, score
      L1  H     5    25       P1  7948  1.00
      L1  H     8    26       P1  7948  1.00
      L1  H    14    31       P1 10747  1.00
      L1  H    18    36       P1  8028  2.00

> <Gold.PLP.Chemscore.Internal.Correction>
0.0154

> <Gold.Rescore>
     Score         DG    S(hbond)    S(metal)    S(lipo)     H(rot)  DE(clash)    DE(int)     intcor
     20.86     -22.40       3.96        0.00      71.13       1.81       0.01       1.53       ----

> <Gold.Chemscore.Fitness>
20.8559

> <Gold.Chemscore.DG>
-22.4006

> <Gold.Chemscore.ZeroCoef>
-5.4800

> <Gold.Chemscore.Hbond>
3.9587

> <Gold.Chemscore.Metal>
0.0000

> <Gold.Chemscore.Lipo>
71.1288

> <Gold.Chemscore.Internal_Hbond>
0.0000

> <Gold.Chemscore.DEClash>
0.0130

> <Gold.Chemscore.DEInternal>
1.5316

> <Gold.Chemscore.Rot>
1.8061

> <Gold.Chemscore.Internal.Correction>
   9.000000E+99

> <Gold.Chemscore.Hbonds>
donor molecule, donor type, donor heavy atom, donor atom, acceptor molecule, acceptor atom, score
      L1  H     5    25       P1  7948  0.97
      L1  H     8    26       P1  7948  0.99
      L1  H    14    31       P1 10747  1.00
      L1  H    18    36       P1  8028  1.00

> <Gold.Chemscore.Hbond.Weighted>
-13.2222

> <Gold.Chemscore.Metal.Weighted>
-0.0000

> <Gold.Chemscore.Lipo.Weighted>
-8.3221

> <Gold.Chemscore.Internal_Hbond.Weighted>
0.0000

> <Gold.Chemscore.DEClash.Weighted>
0.0130

> <Gold.Chemscore.DEInternal.Weighted>
1.5316

> <Gold.Chemscore.Rot.Weighted>
4.6237

> <Gold.Chemscore.Internal.Correction.Weighted>
   9.000000E+99

> <Gold.Protein.RotatedTorsions>
[ 6907 6896 6895 6894 ] final  109.79 input  -60.11 | X-H torsion
[ 7974 7965 7964 7962 ] final -163.84 input  175.53 | X-H torsion
[ 8008 7997 7996 7995 ] final -109.44 input   59.86 | X-H torsion
[ 10167 10162 10161 10158 ] final  -88.13 input  -65.29 | X-H torsion
[ 10718 10713 10712 10709 ] final  -13.36 input   66.30 | X-H torsion
[ 10763 10752 10751 10750 ] final -163.30 input  -60.55 | X-H torsion
[ 11005 11000 10999 10996 ] final  -28.05 input  -57.11 | X-H torsion

> <Gold.Protein.ActiveResidues>
 VAL166  LYS551  ARG553  GLY616  TRP617  ASP618  TYR619  PRO620  LYS621  CYS622 
 ASP623  PHE694  ASN695  SER759  ASP760  ASP761  ALA762  ILE779  LEU786  VAL792 
 PHE793  MET794  SER795  GLU796  ALA797  LYS798  CYS799  TRP800  GLU811  SER814 

> <Gold.Protein.RotatedAtoms>
  152.5051  133.8894  159.7385 H   0  0  0  0  0  0  0  0  0  0  0  0  # atno 6907 bound_to 6896
  150.9336  133.6729  159.2812 H   0  0  0  0  0  0  0  0  0  0  0  0  # atno 6908 bound_to 6896
  151.4064  135.0983  159.9624 H   0  0  0  0  0  0  0  0  0  0  0  0  # atno 6909 bound_to 6896
  144.7314  140.3049  143.6198 H   0  0  0  0  0  0  0  0  0  0  0  0  # atno 7974 bound_to 7965
  154.9593  140.0399  157.2182 H   0  0  0  0  0  0  0  0  0  0  0  0  # atno 8008 bound_to 7997
  154.7904  140.2834  155.5974 H   0  0  0  0  0  0  0  0  0  0  0  0  # atno 8009 bound_to 7997
  156.2949  140.2574  156.2750 H   0  0  0  0  0  0  0  0  0  0  0  0  # atno 8010 bound_to 7997
  140.3776  143.2764  151.9423 H   0  0  0  0  0  0  0  0  0  0  0  0  # atno 10167 bound_to 10162
  156.6314  130.4902  149.6128 H   0  0  0  0  0  0  0  0  0  0  0  0  # atno 10718 bound_to 10713
  154.7135  135.3011  154.9160 H   0  0  0  0  0  0  0  0  0  0  0  0  # atno 10763 bound_to 10752
  154.0054  135.6701  153.4766 H   0  0  0  0  0  0  0  0  0  0  0  0  # atno 10764 bound_to 10752
  153.0774  135.5027  154.8348 H   0  0  0  0  0  0  0  0  0  0  0  0  # atno 10765 bound_to 10752
  140.9174  133.7421  156.0754 H   0  0  0  0  0  0  0  0  0  0  0  0  # atno 11005 bound_to 11000
  145.7723  139.1862  143.2205 LP  0  0  0  0  0  0  0  0  0  0  0  0  # atno 17320 bound_to 7965
  146.0900  140.7666  142.9600 LP  0  0  0  0  0  0  0  0  0  0  0  0  # atno 17321 bound_to 7965
  139.4798  144.5848  151.7871 LP  0  0  0  0  0  0  0  0  0  0  0  0  # atno 17342 bound_to 10162
  140.4970  144.1226  150.5962 LP  0  0  0  0  0  0  0  0  0  0  0  0  # atno 17343 bound_to 10162
  156.2232  130.6750  151.1389 LP  0  0  0  0  0  0  0  0  0  0  0  0  # atno 17370 bound_to 10713
  157.7199  131.0688  150.6179 LP  0  0  0  0  0  0  0  0  0  0  0  0  # atno 17371 bound_to 10713
  140.8032  134.3485  157.5433 LP  0  0  0  0  0  0  0  0  0  0  0  0  # atno 17394 bound_to 11000
  139.8769  134.9210  156.3265 LP  0  0  0  0  0  0  0  0  0  0  0  0  # atno 17395 bound_to 11000

$$$$
