AV-unprocessed.smi:69|AV-procd|sdf|657|dock7
  -GOLD-   2262016563D 1   1.00000     0.00000
 Structure written by MMmdl.
 32 34  0  0  0  0  0  0  0  0  1 V2000
  142.4385  136.6931  155.8401 N   0  0  0  0  0  0  0  0  0  0  0  0
  142.5425  135.9491  154.7303 C   0  0  0  0  0  0  0  0  0  0  0  0
  141.4503  135.2726  154.3048 N   0  0  0  0  0  0  0  0  0  0  0  0
  141.5305  134.5213  153.2018 C   0  0  0  0  0  0  0  0  0  0  0  0
  142.5818  134.3195  152.4037 N   0  0  0  0  0  0  0  0  0  0  0  0
  143.6831  135.0028  152.8328 C   0  0  0  0  0  0  0  0  0  0  0  0
  143.7430  135.8359  153.9845 C   0  0  0  0  0  0  0  0  0  0  0  0
  145.0183  136.3668  154.1197 N   0  0  0  0  0  0  0  0  0  0  0  0
  145.6729  135.8708  153.1045 C   0  0  0  0  0  0  0  0  0  0  0  0
  144.9497  135.0356  152.2808 N   0  0  0  0  0  0  0  0  0  0  0  0
  145.4430  134.3226  151.0562 C   0  0  2  0  0  0  0  0  0  0  0  0
  144.4020  134.2063  150.1304 O   0  0  0  0  0  0  0  0  0  0  0  0
  144.1389  132.8338  149.8369 C   0  0  1  0  0  0  0  0  0  0  0  0
  143.6734  132.6944  148.3792 C   0  0  0  0  0  0  0  0  0  0  0  0
  143.4117  133.9670  147.8273 O   0  0  0  0  0  0  0  0  0  0  0  0
  145.4840  132.1597  150.1151 C   0  0  2  0  0  0  0  0  0  0  0  0
  145.3783  130.7625  150.3140 O   0  0  0  0  0  0  0  0  0  0  0  0
  145.9756  132.9059  151.3471 C   0  0  2  0  0  0  0  0  0  0  0  0
  145.4886  132.3483  152.5582 O   0  0  0  0  0  0  0  0  0  0  0  0
  146.2053  134.9822  150.6393 H   0  0  0  0  0  0  0  0  0  0  0  0
  143.3891  132.4457  150.5281 H   0  0  0  0  0  0  0  0  0  0  0  0
  146.1685  132.3505  149.2869 H   0  0  0  0  0  0  0  0  0  0  0  0
  147.0646  132.9289  151.3975 H   0  0  0  0  0  0  0  0  0  0  0  0
  143.2407  137.2049  156.1782 H   0  0  0  0  0  0  0  0  0  0  0  0
  141.5595  136.7403  156.3346 H   0  0  0  0  0  0  0  0  0  0  0  0
  140.6237  134.0077  152.9178 H   0  0  0  0  0  0  0  0  0  0  0  0
  146.7142  136.0993  152.9297 H   0  0  0  0  0  0  0  0  0  0  0  0
  144.4092  132.1618  147.7761 H   0  0  0  0  0  0  0  0  0  0  0  0
  142.7452  132.1238  148.3355 H   0  0  0  0  0  0  0  0  0  0  0  0
  144.2363  134.3889  147.6402 H   0  0  0  0  0  0  0  0  0  0  0  0
  146.1968  130.4464  150.6646 H   0  0  0  0  0  0  0  0  0  0  0  0
  144.6154  132.0197  152.4074 H   0  0  0  0  0  0  0  0  0  0  0  0
  1  2  1  0  0  0  0
  1 24  1  0  0  0  0
  1 25  1  0  0  0  0
  2  7  1  0  0  0  0
  2  3  2  0  0  0  0
  3  4  1  0  0  0  0
  4  5  2  0  0  0  0
  4 26  1  0  0  0  0
  5  6  1  0  0  0  0
  6 10  1  0  0  0  0
  6  7  2  0  0  0  0
  7  8  1  0  0  0  0
  8  9  2  0  0  0  0
  9 10  1  0  0  0  0
  9 27  1  0  0  0  0
 10 11  1  0  0  0  0
 11 20  1  0  0  0  0
 11 18  1  0  0  0  0
 11 12  1  0  0  0  0
 12 13  1  0  0  0  0
 13 21  1  0  0  0  0
 13 14  1  0  0  0  0
 13 16  1  0  0  0  0
 14 15  1  0  0  0  0
 14 28  1  0  0  0  0
 14 29  1  0  0  0  0
 15 30  1  0  0  0  0
 16 22  1  0  0  0  0
 16 17  1  0  0  0  0
 16 18  1  0  0  0  0
 17 31  1  0  0  0  0
 18 23  1  0  0  0  0
 18 19  1  0  0  0  0
 19 32  1  0  0  0  0
M  END
> <s_m_source_file>
AV-unprocessed.smi

> <i_m_source_file_index>
69

> <i_lp_mmshare_version>
43012

> <i_f3d_flags>
0

> <s_epik_input>
bjFbY0hdbmMoW05IMl0pYyhjMTIpbltjSF1uMltDQEBIXTNPW0NASF0oW0NIMl1bT0hdKVtDQEBIXShbT0hdKVtDQEhdM1tPSF0=

> <s_epik_cmdline>
J2VwaWtfcHl0aG9uJywgJy1waCcsICc3LjAnLCAnLXRuJywgJzgnLCAnLW1hJywgJzIwMCcsICctbWV0YWxfYmluZGluZycsICctaW1hZScsICc8aW5maWxlLm1hZT4nLCAnLW9tYWUnLCAnPG91dGZpbGUubWFlPic=

> <r_lp_tautomer_probability>
1

> <r_epik_Ionization_Penalty>
0.000428445

> <r_epik_Ionization_Penalty_Charging>
0

> <r_epik_Ionization_Penalty_Neutral>
0.000428445

> <r_epik_State_Penalty>
-0

> <r_epik_Charging_Adjusted_Penalty>
0

> <i_epik_Tot_Q>
0

> <i_epik_Tot_abs_Q>
0

> <r_epik_Metal_State_Penalty>
-0

> <b_epik_Metal_Only>
0

> <s_epik_Chemistry_Notes>
This compound contains an acetal/aminal-like group ( X-CH(R)-Y where X, Y are N, S, or O) that may be acid/base labile, releasing an aldehyde.

> <s_lp_Force_Field>
OPLS_2005

> <r_lp_Energy>
44.883

> <b_lp_Chiralities_Consistent>
1

> <s_lp_Variant>
AV-unprocessed.smi:69-15

> <Gold.Version>
5.8.1

> <Gold.Id.Protein>
6NUR|6NUR_protein|mol2

> <Gold.PLP.Fitness>
38.4037

> <Gold.PLP.PLP>
-29.3298

> <Gold.PLP.part.hbond>
-5.8873

> <Gold.PLP.part.metal>
0.0000

> <Gold.PLP.part.buried>
-4.6398

> <Gold.PLP.part.nonpolar>
-20.6840

> <Gold.PLP.part.repulsive>
0.9586

> <Gold.PLP.ligand.clash>
0.0000

> <Gold.PLP.ligand.torsion>
1.4567

> <Gold.PLP.Chemscore.Hbond>
2.8564

> <Gold.PLP.Chemscore.CHOScore>
1.1367

> <Gold.PLP.Chemscore.Metal>
0.0000

> <Gold.Chemscore.Hbonds>
donor molecule, donor type, donor heavy atom, donor atom, acceptor molecule, acceptor atom, score
      L1  H    15    30       P1  7921  1.00
      P1  H 10192 10197       L1    15  1.00
      P1  H 11000 11005       L1     3  0.78
      L1  C     4    26       P1 10187  0.08
      L1  C     9    27       P1  7948  1.00

> <Gold.PLP.Chemscore.Internal.Correction>
0.0080

> <Gold.Rescore>
     Score         DG    S(hbond)    S(metal)    S(lipo)     H(rot)  DE(clash)    DE(int)     intcor
      4.63      -8.13       2.46        0.00      40.66       4.03       0.90       2.60       ----

> <Gold.Chemscore.Fitness>
4.6277

> <Gold.Chemscore.DG>
-8.1299

> <Gold.Chemscore.ZeroCoef>
-5.4800

> <Gold.Chemscore.Hbond>
2.4563

> <Gold.Chemscore.Metal>
0.0000

> <Gold.Chemscore.Lipo>
40.6559

> <Gold.Chemscore.Internal_Hbond>
0.0000

> <Gold.Chemscore.DEClash>
0.9029

> <Gold.Chemscore.DEInternal>
2.5992

> <Gold.Chemscore.Rot>
4.0277

> <Gold.Chemscore.Internal.Correction>
   9.000000E+99

> <Gold.Chemscore.Hbonds>
donor molecule, donor type, donor heavy atom, donor atom, acceptor molecule, acceptor atom, score
      L1  H    15    30       P1  7921  1.00
      P1  H 10192 10197       L1    15  0.54
      P1  H 11000 11005       L1     3  0.48

> <Gold.Chemscore.Hbond.Weighted>
-8.2042

> <Gold.Chemscore.Metal.Weighted>
-0.0000

> <Gold.Chemscore.Lipo.Weighted>
-4.7567

> <Gold.Chemscore.Internal_Hbond.Weighted>
0.0000

> <Gold.Chemscore.DEClash.Weighted>
0.9029

> <Gold.Chemscore.DEInternal.Weighted>
2.5992

> <Gold.Chemscore.Rot.Weighted>
10.3110

> <Gold.Chemscore.Internal.Correction.Weighted>
   9.000000E+99

> <Gold.Protein.RotatedTorsions>
[ 6907 6896 6895 6894 ] final  172.50 input  -60.11 | X-H torsion
[ 7974 7965 7964 7962 ] final  155.46 input  175.53 | X-H torsion
[ 8008 7997 7996 7995 ] final  136.56 input   59.86 | X-H torsion
[ 10167 10162 10161 10158 ] final   97.49 input  -65.29 | X-H torsion
[ 10718 10713 10712 10709 ] final  132.27 input   66.30 | X-H torsion
[ 10763 10752 10751 10750 ] final -174.85 input  -60.55 | X-H torsion
[ 11005 11000 10999 10996 ] final   26.63 input  -57.11 | X-H torsion

> <Gold.Protein.ActiveResidues>
 VAL166  LYS551  ARG553  GLY616  TRP617  ASP618  TYR619  PRO620  LYS621  CYS622 
 ASP623  PHE694  ASN695  SER759  ASP760  ASP761  ALA762  ILE779  LEU786  VAL792 
 PHE793  MET794  SER795  GLU796  ALA797  LYS798  CYS799  TRP800  GLU811  SER814 

> <Gold.Protein.RotatedAtoms>
  151.7832  133.3352  159.3477 H   0  0  0  0  0  0  0  0  0  0  0  0  # atno 6907 bound_to 6896
  150.7418  134.5911  159.5997 H   0  0  0  0  0  0  0  0  0  0  0  0  # atno 6908 bound_to 6896
  152.3261  134.7320  160.0353 H   0  0  0  0  0  0  0  0  0  0  0  0  # atno 6909 bound_to 6896
  144.8024  139.7071  143.6176 H   0  0  0  0  0  0  0  0  0  0  0  0  # atno 7974 bound_to 7965
  156.3004  140.2442  156.3766 H   0  0  0  0  0  0  0  0  0  0  0  0  # atno 8008 bound_to 7997
  154.8739  140.0415  157.1761 H   0  0  0  0  0  0  0  0  0  0  0  0  # atno 8009 bound_to 7997
  154.8766  140.2943  155.5454 H   0  0  0  0  0  0  0  0  0  0  0  0  # atno 8010 bound_to 7997
  139.7796  144.6893  151.0041 H   0  0  0  0  0  0  0  0  0  0  0  0  # atno 10167 bound_to 10162
  157.4887  131.1089  150.9585 H   0  0  0  0  0  0  0  0  0  0  0  0  # atno 10718 bound_to 10713
  154.5913  135.2845  155.0632 H   0  0  0  0  0  0  0  0  0  0  0  0  # atno 10763 bound_to 10752
  154.1932  135.6437  153.5069 H   0  0  0  0  0  0  0  0  0  0  0  0  # atno 10764 bound_to 10752
  153.0122  135.5451  154.6600 H   0  0  0  0  0  0  0  0  0  0  0  0  # atno 10765 bound_to 10752
  140.3349  134.2396  155.7697 H   0  0  0  0  0  0  0  0  0  0  0  0  # atno 11005 bound_to 11000
  146.2308  139.5810  142.9556 LP  0  0  0  0  0  0  0  0  0  0  0  0  # atno 17320 bound_to 7965
  145.5521  141.0412  143.2272 LP  0  0  0  0  0  0  0  0  0  0  0  0  # atno 17321 bound_to 7965
  140.7818  143.4498  151.0430 LP  0  0  0  0  0  0  0  0  0  0  0  0  # atno 17342 bound_to 10162
  139.8179  143.7861  152.3175 LP  0  0  0  0  0  0  0  0  0  0  0  0  # atno 17343 bound_to 10162
  157.0294  130.5705  149.5341 LP  0  0  0  0  0  0  0  0  0  0  0  0  # atno 17370 bound_to 10713
  156.0161  130.5255  150.8139 LP  0  0  0  0  0  0  0  0  0  0  0  0  # atno 17371 bound_to 10713
  141.2054  133.7862  157.0236 LP  0  0  0  0  0  0  0  0  0  0  0  0  # atno 17394 bound_to 11000
  140.0829  134.9637  157.1653 LP  0  0  0  0  0  0  0  0  0  0  0  0  # atno 17395 bound_to 11000

$$$$
