AV-unprocessed.smi:2787|AV-procd|sdf|10758|dock4
  -GOLD-   2272015193D 1   1.00000     0.00000
 Structure written by MMmdl.
 36 37  0  0  0  0  0  0  0  0  2 V2000
  147.7009  140.0002  153.2244 O   0  0  0  0  0  0  0  0  0  0  0  0
  147.3070  141.1944  153.8662 C   0  0  0  0  0  0  0  0  0  0  0  0
  148.0481  141.3558  155.2015 C   0  0  0  0  0  0  0  0  0  0  0  0
  149.5674  141.1392  155.0769 C   0  0  0  0  0  0  0  0  0  0  0  0
  150.3360  141.5981  156.2784 C   0  0  0  0  0  0  0  0  0  0  0  0
  150.4993  142.8832  156.7078 N   0  3  0  0  0  0  0  0  0  0  0  0
  151.2867  142.9031  157.8591 C   0  0  0  0  0  0  0  0  0  0  0  0
  151.7179  143.9643  158.6493 C   0  0  0  0  0  0  0  0  0  0  0  0
  152.5146  143.6384  159.7663 C   0  0  0  0  0  0  0  0  0  0  0  0
  152.8528  142.3018  160.0618 C   0  0  0  0  0  0  0  0  0  0  0  0
  152.4106  141.2347  159.2521 C   0  0  0  0  0  0  0  0  0  0  0  0
  151.6244  141.5652  158.1482 C   0  0  0  0  0  0  0  0  0  0  0  0
  151.0190  140.7968  157.1459 N   0  0  0  0  0  0  0  0  0  0  0  0
  151.1864  139.3338  157.1451 C   0  0  0  0  0  0  0  0  0  0  0  0
  152.1969  138.8442  156.0875 C   0  0  2  0  0  0  0  0  0  0  0  0
  152.6752  139.9443  155.3375 O   0  0  0  0  0  0  0  0  0  0  0  0
  151.5997  137.7951  155.1296 C   0  0  0  0  0  0  0  0  0  0  0  0
  151.1904  136.7277  155.8156 F   0  0  0  0  0  0  0  0  0  0  0  0
  150.5415  138.3145  154.5072 F   0  0  0  0  0  0  0  0  0  0  0  0
  152.4933  137.4225  154.2124 F   0  0  0  0  0  0  0  0  0  0  0  0
  148.3931  140.2006  152.6125 H   0  0  0  0  0  0  0  0  0  0  0  0
  147.4997  142.0426  153.2087 H   0  0  0  0  0  0  0  0  0  0  0  0
  146.2308  141.1560  154.0369 H   0  0  0  0  0  0  0  0  0  0  0  0
  147.8611  142.3617  155.5794 H   0  0  0  0  0  0  0  0  0  0  0  0
  147.6288  140.6667  155.9361 H   0  0  0  0  0  0  0  0  0  0  0  0
  149.7794  140.0815  154.9178 H   0  0  0  0  0  0  0  0  0  0  0  0
  149.9456  141.6692  154.2022 H   0  0  0  0  0  0  0  0  0  0  0  0
  151.4601  144.9892  158.4253 H   0  0  0  0  0  0  0  0  0  0  0  0
  152.8733  144.4291  160.4095 H   0  0  0  0  0  0  0  0  0  0  0  0
  153.4638  142.0898  160.9273 H   0  0  0  0  0  0  0  0  0  0  0  0
  152.6732  140.2149  159.4921 H   0  0  0  0  0  0  0  0  0  0  0  0
  151.5238  139.0485  158.1418 H   0  0  0  0  0  0  0  0  0  0  0  0
  150.2136  138.8605  157.0125 H   0  0  0  0  0  0  0  0  0  0  0  0
  153.0552  138.4021  156.5952 H   0  0  0  0  0  0  0  0  0  0  0  0
  152.3420  139.8722  154.4565 H   0  0  0  0  0  0  0  0  0  0  0  0
  150.0981  143.6875  156.2432 H   0  0  0  0  0  0  0  0  0  0  0  0
  1  2  1  0  0  0  0
  1 21  1  0  0  0  0
  2  3  1  0  0  0  0
  2 22  1  0  0  0  0
  2 23  1  0  0  0  0
  3  4  1  0  0  0  0
  3 24  1  0  0  0  0
  3 25  1  0  0  0  0
  4  5  1  0  0  0  0
  4 26  1  0  0  0  0
  4 27  1  0  0  0  0
  5 13  1  0  0  0  0
  5  6  2  0  0  0  0
  6  7  1  0  0  0  0
  6 36  1  0  0  0  0
  7 12  2  0  0  0  0
  7  8  1  0  0  0  0
  8  9  2  0  0  0  0
  8 28  1  0  0  0  0
  9 10  1  0  0  0  0
  9 29  1  0  0  0  0
 10 11  2  0  0  0  0
 10 30  1  0  0  0  0
 11 12  1  0  0  0  0
 11 31  1  0  0  0  0
 12 13  1  0  0  0  0
 13 14  1  0  0  0  0
 14 15  1  0  0  0  0
 14 32  1  0  0  0  0
 14 33  1  0  0  0  0
 15 16  1  0  0  0  0
 15 17  1  0  0  0  0
 15 34  1  0  0  0  0
 16 35  1  0  0  0  0
 17 18  1  0  0  0  0
 17 19  1  0  0  0  0
 17 20  1  0  0  0  0
M  CHG  1   6   1
M  END
> <s_m_source_file>
AV-unprocessed.smi

> <i_m_source_file_index>
2787

> <i_lp_mmshare_version>
43012

> <i_f3d_flags>
0

> <s_epik_input>
W09IXVtDSDJdW0NIMl1bQ0gyXWMobjEpbihbQ0gyXVtDQEhdKFtPSF0pQyhGKShGKUYpYyhjMTIpW2NIXVtjSF1bY0hdW2NIXTI=

> <s_epik_cmdline>
J2VwaWtfcHl0aG9uJywgJy1waCcsICc3LjAnLCAnLXRuJywgJzgnLCAnLW1hJywgJzIwMCcsICctbWV0YWxfYmluZGluZycsICctaW1hZScsICc8aW5maWxlLm1hZT4nLCAnLW9tYWUnLCAnPG91dGZpbGUubWFlPic=

> <r_epik_Ionization_Penalty>
0.964009

> <r_epik_Ionization_Penalty_Charging>
0.952215

> <r_epik_Ionization_Penalty_Neutral>
0.0117938

> <r_epik_State_Penalty>
1.09527

> <r_epik_Charging_Adjusted_Penalty>
2.04749

> <i_epik_Tot_Q>
1

> <i_epik_Tot_abs_Q>
1

> <r_epik_Metal_State_Penalty>
5.08046

> <b_epik_Metal_Only>
0

> <s_lp_Force_Field>
OPLS_2005

> <r_lp_Energy>
17.2873

> <b_lp_Chiralities_Consistent>
1

> <s_lp_Variant>
AV-unprocessed.smi:2787-3

> <Gold.Version>
5.8.1

> <Gold.Id.Protein>
6NUR|6NUR_protein|mol2

> <Gold.PLP.Fitness>
54.9458

> <Gold.PLP.PLP>
-45.1576

> <Gold.PLP.part.hbond>
-4.0000

> <Gold.PLP.part.metal>
0.0000

> <Gold.PLP.part.buried>
-1.7335

> <Gold.PLP.part.nonpolar>
-40.5908

> <Gold.PLP.part.repulsive>
0.0487

> <Gold.PLP.ligand.clash>
0.0000

> <Gold.PLP.ligand.torsion>
1.0877

> <Gold.PLP.Chemscore.Hbond>
3.9520

> <Gold.PLP.Chemscore.CHOScore>
0.0000

> <Gold.PLP.Chemscore.Metal>
0.0000

> <Gold.Chemscore.Hbonds>
donor molecule, donor type, donor heavy atom, donor atom, acceptor molecule, acceptor atom, score
      L1  H     1    21       P1  7957  1.00
      L1  H     6    36       P1  8028  2.00
      P1  H  7997  8008       L1    16  1.00

> <Gold.PLP.Chemscore.Internal.Correction>
0.1075

> <Gold.Rescore>
     Score         DG    S(hbond)    S(metal)    S(lipo)     H(rot)  DE(clash)    DE(int)     intcor
     15.05     -17.27       2.72        0.00     100.02       3.51       0.87       1.36       ----

> <Gold.Chemscore.Fitness>
15.0459

> <Gold.Chemscore.DG>
-17.2748

> <Gold.Chemscore.ZeroCoef>
-5.4800

> <Gold.Chemscore.Hbond>
2.7212

> <Gold.Chemscore.Metal>
0.0000

> <Gold.Chemscore.Lipo>
100.0223

> <Gold.Chemscore.Internal_Hbond>
0.0000

> <Gold.Chemscore.DEClash>
0.8735

> <Gold.Chemscore.DEInternal>
1.3554

> <Gold.Chemscore.Rot>
3.5143

> <Gold.Chemscore.Internal.Correction>
   9.000000E+99

> <Gold.Chemscore.Hbonds>
donor molecule, donor type, donor heavy atom, donor atom, acceptor molecule, acceptor atom, score
      L1  H     1    21       P1  7957  1.00
      L1  H     6    36       P1  8028  0.99
      P1  H  7997  8008       L1    16  0.66

> <Gold.Chemscore.Hbond.Weighted>
-9.0889

> <Gold.Chemscore.Metal.Weighted>
-0.0000

> <Gold.Chemscore.Lipo.Weighted>
-11.7026

> <Gold.Chemscore.Internal_Hbond.Weighted>
0.0000

> <Gold.Chemscore.DEClash.Weighted>
0.8735

> <Gold.Chemscore.DEInternal.Weighted>
1.3554

> <Gold.Chemscore.Rot.Weighted>
8.9967

> <Gold.Chemscore.Internal.Correction.Weighted>
   9.000000E+99

> <Gold.Protein.RotatedTorsions>
[ 6907 6896 6895 6894 ] final -158.22 input  -60.11 | X-H torsion
[ 7974 7965 7964 7962 ] final   45.83 input  175.53 | X-H torsion
[ 8008 7997 7996 7995 ] final   -5.46 input   59.86 | X-H torsion
[ 10167 10162 10161 10158 ] final  164.13 input  -65.29 | X-H torsion
[ 10718 10713 10712 10709 ] final  -35.94 input   66.30 | X-H torsion
[ 10763 10752 10751 10750 ] final -107.97 input  -60.55 | X-H torsion
[ 11005 11000 10999 10996 ] final   10.52 input  -57.11 | X-H torsion

> <Gold.Protein.ActiveResidues>
 VAL166  LYS551  ARG553  GLY616  TRP617  ASP618  TYR619  PRO620  LYS621  CYS622 
 ASP623  PHE694  ASN695  SER759  ASP760  ASP761  ALA762  ILE779  LEU786  VAL792 
 PHE793  MET794  SER795  GLU796  ALA797  LYS798  CYS799  TRP800  GLU811  SER814 

> <Gold.Protein.RotatedAtoms>
  151.3149  133.4065  159.2649 H   0  0  0  0  0  0  0  0  0  0  0  0  # atno 6907 bound_to 6896
  151.0083  134.9377  159.8003 H   0  0  0  0  0  0  0  0  0  0  0  0  # atno 6908 bound_to 6896
  152.5294  134.3113  159.9167 H   0  0  0  0  0  0  0  0  0  0  0  0  # atno 6909 bound_to 6896
  146.0444  139.4921  142.9757 H   0  0  0  0  0  0  0  0  0  0  0  0  # atno 7974 bound_to 7965
  154.6037  140.2458  155.7759 H   0  0  0  0  0  0  0  0  0  0  0  0  # atno 8008 bound_to 7997
  156.2327  140.2961  156.0182 H   0  0  0  0  0  0  0  0  0  0  0  0  # atno 8009 bound_to 7997
  155.2168  140.0399  157.2932 H   0  0  0  0  0  0  0  0  0  0  0  0  # atno 8010 bound_to 7997
  139.4884  144.4267  151.9121 H   0  0  0  0  0  0  0  0  0  0  0  0  # atno 10167 bound_to 10162
  156.3327  130.4282  149.7858 H   0  0  0  0  0  0  0  0  0  0  0  0  # atno 10718 bound_to 10713
  154.8107  135.4655  154.0510 H   0  0  0  0  0  0  0  0  0  0  0  0  # atno 10763 bound_to 10752
  153.1943  135.6859  153.8319 H   0  0  0  0  0  0  0  0  0  0  0  0  # atno 10764 bound_to 10752
  153.7826  135.3254  155.3345 H   0  0  0  0  0  0  0  0  0  0  0  0  # atno 10765 bound_to 10752
  140.5136  134.0628  155.7825 H   0  0  0  0  0  0  0  0  0  0  0  0  # atno 11005 bound_to 11000
  145.6830  141.0186  143.1596 LP  0  0  0  0  0  0  0  0  0  0  0  0  # atno 17320 bound_to 7965
  144.7091  139.8443  143.7420 LP  0  0  0  0  0  0  0  0  0  0  0  0  # atno 17321 bound_to 7965
  140.3713  144.2852  150.5919 LP  0  0  0  0  0  0  0  0  0  0  0  0  # atno 17342 bound_to 10162
  140.5316  143.2242  151.8229 LP  0  0  0  0  0  0  0  0  0  0  0  0  # atno 17343 bound_to 10162
  156.5124  130.8178  151.3173 LP  0  0  0  0  0  0  0  0  0  0  0  0  # atno 17370 bound_to 10713
  157.7433  130.9909  150.2584 LP  0  0  0  0  0  0  0  0  0  0  0  0  # atno 17371 bound_to 10713
  141.1372  133.9200  157.2406 LP  0  0  0  0  0  0  0  0  0  0  0  0  # atno 17394 bound_to 11000
  139.9645  135.0145  156.9350 LP  0  0  0  0  0  0  0  0  0  0  0  0  # atno 17395 bound_to 11000

$$$$
