AV-unprocessed.smi:206|AV-procd|sdf|1601|dock6
  -GOLD-   2262019513D 1   1.00000     0.00000
 Structure written by MMmdl.
 47 50  0  0  0  0  0  0  0  0  1 V2000
  155.2294  141.5351  164.1347 O   0  0  0  0  0  0  0  0  0  0  0  0
  154.7910  141.4180  162.9915 C   0  0  0  0  0  0  0  0  0  0  0  0
  153.7371  142.3421  162.4096 C   0  0  0  0  0  0  0  0  0  0  0  0
  153.6044  141.8122  161.0579 N   0  0  0  0  0  0  0  0  0  0  0  0
  152.6920  142.2761  160.1652 C   0  0  0  0  0  0  0  0  0  0  0  0
  152.2878  143.5688  160.2760 N   0  0  0  0  0  0  0  0  0  0  0  0
  151.3930  144.0769  159.4247 C   0  0  0  0  0  0  0  0  0  0  0  0
  150.7818  143.4774  158.4026 N   0  0  0  0  0  0  0  0  0  0  0  0
  151.1800  142.1791  158.2799 C   0  0  0  0  0  0  0  0  0  0  0  0
  152.1248  141.5041  159.1072 C   0  0  0  0  0  0  0  0  0  0  0  0
  152.2796  140.1964  158.6606 N   0  0  0  0  0  0  0  0  0  0  0  0
  151.4802  140.1056  157.6339 C   0  0  0  0  0  0  0  0  0  0  0  0
  150.7659  141.2461  157.3436 N   0  0  0  0  0  0  0  0  0  0  0  0
  149.8379  141.4379  156.2640 C   0  0  0  0  0  0  0  0  0  0  0  0
  148.4295  140.8341  156.2853 C   0  0  0  0  0  0  0  0  0  0  0  0
  148.5206  140.5437  154.7696 C   0  0  0  0  0  0  0  0  0  0  0  0
  148.0919  139.1296  154.3476 C   0  0  0  0  0  0  0  0  0  0  0  0
  148.3977  138.8794  152.9907 O   0  0  0  0  0  0  0  0  0  0  0  0
  147.8151  141.5353  153.8177 C   0  0  0  0  0  0  0  0  0  0  0  0
  148.1323  142.8864  154.0851 O   0  0  0  0  0  0  0  0  0  0  0  0
  150.0478  140.7223  154.9288 C   0  0  0  0  0  0  0  0  0  0  0  0
  154.4632  140.6597  160.8232 C   0  0  0  0  0  0  0  0  0  0  0  0
  155.1546  140.4976  162.0916 N   0  0  0  0  0  0  0  0  0  0  0  0
  156.1493  139.4426  162.2725 C   0  0  0  0  0  0  0  0  0  0  0  0
  155.6925  138.3730  163.2806 C   0  0  0  0  0  0  0  0  0  0  0  0
  156.6116  137.4102  163.3369 F   0  0  0  0  0  0  0  0  0  0  0  0
  155.5475  138.8901  164.5003 F   0  0  0  0  0  0  0  0  0  0  0  0
  154.5365  137.8340  162.8928 F   0  0  0  0  0  0  0  0  0  0  0  0
  152.8044  142.2643  162.9698 H   0  0  0  0  0  0  0  0  0  0  0  0
  154.0829  143.3763  162.4035 H   0  0  0  0  0  0  0  0  0  0  0  0
  151.1271  145.1111  159.5873 H   0  0  0  0  0  0  0  0  0  0  0  0
  151.3958  139.1955  157.0589 H   0  0  0  0  0  0  0  0  0  0  0  0
  149.7677  142.5151  156.1078 H   0  0  0  0  0  0  0  0  0  0  0  0
  148.3581  139.9243  156.8821 H   0  0  0  0  0  0  0  0  0  0  0  0
  147.6465  141.5396  156.5654 H   0  0  0  0  0  0  0  0  0  0  0  0
  148.5734  138.3704  154.9648 H   0  0  0  0  0  0  0  0  0  0  0  0
  147.0175  138.9934  154.4759 H   0  0  0  0  0  0  0  0  0  0  0  0
  148.9545  139.5744  152.6744 H   0  0  0  0  0  0  0  0  0  0  0  0
  148.0844  141.3316  152.7808 H   0  0  0  0  0  0  0  0  0  0  0  0
  146.7311  141.4378  153.8827 H   0  0  0  0  0  0  0  0  0  0  0  0
  148.3410  142.9702  155.0031 H   0  0  0  0  0  0  0  0  0  0  0  0
  150.5211  141.3374  154.1627 H   0  0  0  0  0  0  0  0  0  0  0  0
  150.5790  139.7765  155.0473 H   0  0  0  0  0  0  0  0  0  0  0  0
  153.8782  139.7690  160.5900 H   0  0  0  0  0  0  0  0  0  0  0  0
  155.1736  140.8539  160.0185 H   0  0  0  0  0  0  0  0  0  0  0  0
  156.3489  138.9750  161.3074 H   0  0  0  0  0  0  0  0  0  0  0  0
  157.0932  139.8833  162.5975 H   0  0  0  0  0  0  0  0  0  0  0  0
  1  2  2  0  0  0  0
  2 23  1  0  0  0  0
  2  3  1  0  0  0  0
  3  4  1  0  0  0  0
  3 29  1  0  0  0  0
  3 30  1  0  0  0  0
  4  5  1  0  0  0  0
  4 22  1  0  0  0  0
  5 10  1  0  0  0  0
  5  6  2  0  0  0  0
  6  7  1  0  0  0  0
  7  8  2  0  0  0  0
  7 31  1  0  0  0  0
  8  9  1  0  0  0  0
  9 13  1  0  0  0  0
  9 10  2  0  0  0  0
 10 11  1  0  0  0  0
 11 12  2  0  0  0  0
 12 13  1  0  0  0  0
 12 32  1  0  0  0  0
 13 14  1  0  0  0  0
 14 21  1  0  0  0  0
 14 15  1  0  0  0  0
 14 33  1  0  0  0  0
 15 16  1  0  0  0  0
 15 34  1  0  0  0  0
 15 35  1  0  0  0  0
 16 17  1  0  0  0  0
 16 19  1  0  0  0  0
 16 21  1  0  0  0  0
 17 18  1  0  0  0  0
 17 36  1  0  0  0  0
 17 37  1  0  0  0  0
 18 38  1  0  0  0  0
 19 20  1  0  0  0  0
 19 39  1  0  0  0  0
 19 40  1  0  0  0  0
 20 41  1  0  0  0  0
 21 42  1  0  0  0  0
 21 43  1  0  0  0  0
 22 23  1  0  0  0  0
 22 44  1  0  0  0  0
 22 45  1  0  0  0  0
 23 24  1  0  0  0  0
 24 25  1  0  0  0  0
 24 46  1  0  0  0  0
 24 47  1  0  0  0  0
 25 26  1  0  0  0  0
 25 27  1  0  0  0  0
 25 28  1  0  0  0  0
M  END
> <s_m_source_file>
AV-unprocessed.smi

> <i_m_source_file_index>
206

> <i_lp_mmshare_version>
43012

> <i_f3d_flags>
0

> <s_epik_input>
RkMoRikoRilbQ0gyXU4xW0NIMl1OKFtDSDJdQzE9TyljKG5bY0hdbjIpYyhjMjMpbltjSF1uM1tDSF0oW0NIMl00KVtDSDJdQzQoW0NIMl1bT0hdKVtDSDJdW09IXQ==

> <s_epik_cmdline>
J2VwaWtfcHl0aG9uJywgJy1waCcsICc3LjAnLCAnLXRuJywgJzgnLCAnLW1hJywgJzIwMCcsICctbWV0YWxfYmluZGluZycsICctaW1hZScsICc8aW5maWxlLm1hZT4nLCAnLW9tYWUnLCAnPG91dGZpbGUubWFlPic=

> <r_lp_tautomer_probability>
1

> <r_epik_Ionization_Penalty>
0.000251167

> <r_epik_Ionization_Penalty_Charging>
0

> <r_epik_Ionization_Penalty_Neutral>
0.000251167

> <r_epik_State_Penalty>
-0

> <r_epik_Charging_Adjusted_Penalty>
0

> <i_epik_Tot_Q>
0

> <i_epik_Tot_abs_Q>
0

> <r_epik_Metal_State_Penalty>
-0

> <b_epik_Metal_Only>
0

> <s_epik_Chemistry_Notes>
This compound contains an acetal/aminal-like group ( X-CH(R)-Y where X, Y are N, S, or O) that may be acid/base labile, releasing an aldehyde.

> <s_lp_Force_Field>
OPLS_2005

> <r_lp_Energy>
40.1188

> <b_lp_Chiralities_Consistent>
1

> <s_lp_Variant>
AV-unprocessed.smi:206-1

> <Gold.Version>
5.8.1

> <Gold.Id.Protein>
6NUR|6NUR_protein|mol2

> <Gold.PLP.Fitness>
55.0347

> <Gold.PLP.PLP>
-50.9571

> <Gold.PLP.part.hbond>
-5.6264

> <Gold.PLP.part.metal>
0.0000

> <Gold.PLP.part.buried>
-0.5766

> <Gold.PLP.part.nonpolar>
-42.6098

> <Gold.PLP.part.repulsive>
0.1719

> <Gold.PLP.ligand.clash>
0.0000

> <Gold.PLP.ligand.torsion>
0.9688

> <Gold.PLP.Chemscore.Hbond>
1.8400

> <Gold.PLP.Chemscore.CHOScore>
0.0000

> <Gold.PLP.Chemscore.Metal>
0.0000

> <Gold.Chemscore.Hbonds>
donor molecule, donor type, donor heavy atom, donor atom, acceptor molecule, acceptor atom, score
      L1  H    18    38       P1  7957  0.70
      L1  H    20    41       P1  8028  0.34
      P1  H  8022  8030       L1    20  0.77

> <Gold.PLP.Chemscore.Internal.Correction>
0.4953

> <Gold.Rescore>
     Score         DG    S(hbond)    S(metal)    S(lipo)     H(rot)  DE(clash)    DE(int)     intcor
      4.19      -7.29       1.31        0.00      60.93       3.79       0.54       2.55       ----

> <Gold.Chemscore.Fitness>
4.1942

> <Gold.Chemscore.DG>
-7.2866

> <Gold.Chemscore.ZeroCoef>
-5.4800

> <Gold.Chemscore.Hbond>
1.3141

> <Gold.Chemscore.Metal>
0.0000

> <Gold.Chemscore.Lipo>
60.9250

> <Gold.Chemscore.Internal_Hbond>
0.0000

> <Gold.Chemscore.DEClash>
0.5416

> <Gold.Chemscore.DEInternal>
2.5508

> <Gold.Chemscore.Rot>
3.7932

> <Gold.Chemscore.Internal.Correction>
   9.000000E+99

> <Gold.Chemscore.Hbonds>
donor molecule, donor type, donor heavy atom, donor atom, acceptor molecule, acceptor atom, score
      L1  H    18    38       P1  7957  0.70
      L1  H    20    41       P1  8028  0.34
      P1  H  8022  8030       L1    20  0.11

> <Gold.Chemscore.Hbond.Weighted>
-4.3890

> <Gold.Chemscore.Metal.Weighted>
-0.0000

> <Gold.Chemscore.Lipo.Weighted>
-7.1282

> <Gold.Chemscore.Internal_Hbond.Weighted>
0.0000

> <Gold.Chemscore.DEClash.Weighted>
0.5416

> <Gold.Chemscore.DEInternal.Weighted>
2.5508

> <Gold.Chemscore.Rot.Weighted>
9.7107

> <Gold.Chemscore.Internal.Correction.Weighted>
   9.000000E+99

> <Gold.Protein.RotatedTorsions>
[ 6907 6896 6895 6894 ] final   30.28 input  -60.11 | X-H torsion
[ 7974 7965 7964 7962 ] final  -16.49 input  175.53 | X-H torsion
[ 8008 7997 7996 7995 ] final   46.19 input   59.86 | X-H torsion
[ 10167 10162 10161 10158 ] final  -17.81 input  -65.29 | X-H torsion
[ 10718 10713 10712 10709 ] final -127.28 input   66.30 | X-H torsion
[ 10763 10752 10751 10750 ] final -108.41 input  -60.55 | X-H torsion
[ 11005 11000 10999 10996 ] final -160.51 input  -57.11 | X-H torsion

> <Gold.Protein.ActiveResidues>
 VAL166  LYS551  ARG553  GLY616  TRP617  ASP618  TYR619  PRO620  LYS621  CYS622 
 ASP623  PHE694  ASN695  SER759  ASP760  ASP761  ALA762  ILE779  LEU786  VAL792 
 PHE793  MET794  SER795  GLU796  ALA797  LYS798  CYS799  TRP800  GLU811  SER814 

> <Gold.Protein.RotatedAtoms>
  152.0436  134.9696  160.0573 H   0  0  0  0  0  0  0  0  0  0  0  0  # atno 6907 bound_to 6896
  152.1125  133.4303  159.4646 H   0  0  0  0  0  0  0  0  0  0  0  0  # atno 6908 bound_to 6896
  150.6844  134.2550  159.4569 H   0  0  0  0  0  0  0  0  0  0  0  0  # atno 6909 bound_to 6896
  146.1985  140.3644  142.8432 H   0  0  0  0  0  0  0  0  0  0  0  0  # atno 7974 bound_to 7965
  155.3484  140.3412  155.4239 H   0  0  0  0  0  0  0  0  0  0  0  0  # atno 8008 bound_to 7997
  156.1777  140.1653  156.8368 H   0  0  0  0  0  0  0  0  0  0  0  0  # atno 8009 bound_to 7997
  154.5299  140.0747  156.8309 H   0  0  0  0  0  0  0  0  0  0  0  0  # atno 8010 bound_to 7997
  140.7251  143.4978  150.9908 H   0  0  0  0  0  0  0  0  0  0  0  0  # atno 10167 bound_to 10162
  156.1842  130.6752  151.0344 H   0  0  0  0  0  0  0  0  0  0  0  0  # atno 10718 bound_to 10713
  154.8134  135.4639  154.0577 H   0  0  0  0  0  0  0  0  0  0  0  0  # atno 10763 bound_to 10752
  153.1989  135.6866  153.8263 H   0  0  0  0  0  0  0  0  0  0  0  0  # atno 10764 bound_to 10752
  153.7754  135.3264  155.3335 H   0  0  0  0  0  0  0  0  0  0  0  0  # atno 10765 bound_to 10752
  140.6307  134.4654  157.5229 H   0  0  0  0  0  0  0  0  0  0  0  0  # atno 11005 bound_to 11000
  144.8631  140.7168  143.6094 LP  0  0  0  0  0  0  0  0  0  0  0  0  # atno 17320 bound_to 7965
  145.3564  139.1693  143.4407 LP  0  0  0  0  0  0  0  0  0  0  0  0  # atno 17321 bound_to 7965
  139.8686  143.7221  152.3168 LP  0  0  0  0  0  0  0  0  0  0  0  0  # atno 17342 bound_to 10162
  139.7462  144.7546  151.0576 LP  0  0  0  0  0  0  0  0  0  0  0  0  # atno 17343 bound_to 10162
  157.6888  131.0816  150.7166 LP  0  0  0  0  0  0  0  0  0  0  0  0  # atno 17370 bound_to 10713
  156.7223  130.4684  149.5520 LP  0  0  0  0  0  0  0  0  0  0  0  0  # atno 17371 bound_to 10713
  139.9117  134.8331  156.1505 LP  0  0  0  0  0  0  0  0  0  0  0  0  # atno 17394 bound_to 11000
  141.0677  133.6811  156.2078 LP  0  0  0  0  0  0  0  0  0  0  0  0  # atno 17395 bound_to 11000

$$$$
