AV-unprocessed.smi:1762|AV-procd|sdf|7105|dock9
  -GOLD-   22720 8323D 1   1.00000     0.00000
 Structure written by MMmdl.
 53 54  0  0  0  0  0  0  0  0  2 V2000
  152.2028  138.5537  154.5817 C   0  0  0  0  0  0  0  0  0  0  0  0
  151.0186  137.5805  154.5931 C   0  0  2  0  0  0  0  0  0  0  0  0
  149.6826  138.2910  154.8789 C   0  0  0  0  0  0  0  0  0  0  0  0
  148.5536  137.3591  154.9752 N   0  0  0  0  0  0  0  0  0  0  0  0
  147.2465  138.0450  155.1794 C   0  0  2  0  0  0  0  0  0  0  0  0
  146.1181  137.0826  155.6202 C   0  0  0  0  0  0  0  0  0  0  0  0
  145.6064  137.1900  156.7354 O   0  0  0  0  0  0  0  0  0  0  0  0
  145.7224  136.1655  154.7228 N   0  0  0  0  0  0  0  0  0  0  0  0
  144.6605  135.1911  154.9407 C   0  0  0  0  0  0  0  0  0  0  0  0
  143.5612  135.3066  153.8711 C   0  0  0  0  0  0  0  0  0  0  0  0
  143.9567  134.6422  152.5671 C   0  0  0  0  0  0  0  0  0  0  0  0
  144.2819  135.3897  151.4145 C   0  0  0  0  0  0  0  0  0  0  0  0
  144.6372  134.7104  150.2304 C   0  0  0  0  0  0  0  0  0  0  0  0
  144.6587  133.3001  150.2240 C   0  0  0  0  0  0  0  0  0  0  0  0
  144.3228  132.6037  151.4030 C   0  0  0  0  0  0  0  0  0  0  0  0
  143.9876  133.2905  152.5175 N   0  3  0  0  0  0  0  0  0  0  0  0
  146.7732  138.9406  153.9849 C   0  0  0  0  0  0  0  0  0  0  0  0
  146.6019  138.1646  152.6630 C   0  0  0  0  0  0  0  0  0  0  0  0
  147.6430  140.1933  153.7611 C   0  0  0  0  0  0  0  0  0  0  0  0
  148.8731  136.3445  155.9960 C   0  0  0  0  0  0  0  0  0  0  0  0
  150.2248  135.6408  155.7614 C   0  0  1  0  0  0  0  0  0  0  0  0
  150.1914  134.6279  154.6035 C   0  0  0  0  0  0  0  0  0  0  0  0
  151.2640  136.6028  155.5977 O   0  0  0  0  0  0  0  0  0  0  0  0
  152.0782  139.3149  153.8112 H   0  0  0  0  0  0  0  0  0  0  0  0
  153.1364  138.0279  154.3802 H   0  0  0  0  0  0  0  0  0  0  0  0
  152.3068  139.0612  155.5411 H   0  0  0  0  0  0  0  0  0  0  0  0
  150.9702  137.0950  153.6179 H   0  0  0  0  0  0  0  0  0  0  0  0
  149.7629  138.8729  155.7989 H   0  0  0  0  0  0  0  0  0  0  0  0
  149.5297  139.0027  154.0705 H   0  0  0  0  0  0  0  0  0  0  0  0
  147.3865  138.7307  156.0180 H   0  0  0  0  0  0  0  0  0  0  0  0
  146.1902  136.1448  153.8280 H   0  0  0  0  0  0  0  0  0  0  0  0
  145.1036  134.1952  154.9162 H   0  0  0  0  0  0  0  0  0  0  0  0
  144.2387  135.3194  155.9394 H   0  0  0  0  0  0  0  0  0  0  0  0
  142.6356  134.8529  154.2285 H   0  0  0  0  0  0  0  0  0  0  0  0
  143.3327  136.3561  153.6803 H   0  0  0  0  0  0  0  0  0  0  0  0
  144.2593  136.4700  151.4355 H   0  0  0  0  0  0  0  0  0  0  0  0
  144.8904  135.2643  149.3380 H   0  0  0  0  0  0  0  0  0  0  0  0
  144.9292  132.7610  149.3276 H   0  0  0  0  0  0  0  0  0  0  0  0
  144.3132  131.5267  151.4878 H   0  0  0  0  0  0  0  0  0  0  0  0
  145.7676  139.2907  154.2119 H   0  0  0  0  0  0  0  0  0  0  0  0
  147.5577  137.8455  152.2467 H   0  0  0  0  0  0  0  0  0  0  0  0
  146.1149  138.7847  151.9098 H   0  0  0  0  0  0  0  0  0  0  0  0
  145.9837  137.2775  152.8038 H   0  0  0  0  0  0  0  0  0  0  0  0
  148.6511  139.9373  153.4361 H   0  0  0  0  0  0  0  0  0  0  0  0
  147.7273  140.7910  154.6688 H   0  0  0  0  0  0  0  0  0  0  0  0
  147.2087  140.8340  152.9934 H   0  0  0  0  0  0  0  0  0  0  0  0
  148.8890  136.8172  156.9797 H   0  0  0  0  0  0  0  0  0  0  0  0
  148.1138  135.5648  156.0453 H   0  0  0  0  0  0  0  0  0  0  0  0
  150.4713  135.0805  156.6639 H   0  0  0  0  0  0  0  0  0  0  0  0
  149.4882  133.8218  154.8141 H   0  0  0  0  0  0  0  0  0  0  0  0
  151.1729  134.1786  154.4519 H   0  0  0  0  0  0  0  0  0  0  0  0
  149.8845  135.0877  153.6643 H   0  0  0  0  0  0  0  0  0  0  0  0
  143.7483  132.7660  153.3593 H   0  0  0  0  0  0  0  0  0  0  0  0
  1  2  1  0  0  0  0
  1 24  1  0  0  0  0
  1 25  1  0  0  0  0
  1 26  1  0  0  0  0
  2 23  1  0  0  0  0
  2  3  1  0  0  0  0
  2 27  1  0  0  0  0
  3  4  1  0  0  0  0
  3 28  1  0  0  0  0
  3 29  1  0  0  0  0
  4  5  1  0  0  0  0
  4 20  1  0  0  0  0
  5  6  1  0  0  0  0
  5 17  1  0  0  0  0
  5 30  1  0  0  0  0
  6  7  2  0  0  0  0
  6  8  1  0  0  0  0
  8  9  1  0  0  0  0
  8 31  1  0  0  0  0
  9 10  1  0  0  0  0
  9 32  1  0  0  0  0
  9 33  1  0  0  0  0
 10 11  1  0  0  0  0
 10 34  1  0  0  0  0
 10 35  1  0  0  0  0
 11 16  1  0  0  0  0
 11 12  2  0  0  0  0
 12 13  1  0  0  0  0
 12 36  1  0  0  0  0
 13 14  2  0  0  0  0
 13 37  1  0  0  0  0
 14 15  1  0  0  0  0
 14 38  1  0  0  0  0
 15 16  2  0  0  0  0
 15 39  1  0  0  0  0
 16 53  1  0  0  0  0
 17 18  1  0  0  0  0
 17 19  1  0  0  0  0
 17 40  1  0  0  0  0
 18 41  1  0  0  0  0
 18 42  1  0  0  0  0
 18 43  1  0  0  0  0
 19 44  1  0  0  0  0
 19 45  1  0  0  0  0
 19 46  1  0  0  0  0
 20 21  1  0  0  0  0
 20 47  1  0  0  0  0
 20 48  1  0  0  0  0
 21 22  1  0  0  0  0
 21 23  1  0  0  0  0
 21 49  1  0  0  0  0
 22 50  1  0  0  0  0
 22 51  1  0  0  0  0
 22 52  1  0  0  0  0
M  CHG  1  16   1
M  END
> <s_m_source_file>
AV-unprocessed.smi

> <i_m_source_file_index>
1762

> <i_lp_mmshare_version>
43012

> <i_f3d_flags>
0

> <s_epik_input>
W0NIM11bQ0BASF0xW0NIMl1OKFtDSDJdW0NASF0oTzEpW0NIM10pW0NAQEhdKFtDSF0oW0NIM10pW0NIM10pQyg9TylbTkhdW0NIMl1bQ0gyXWMyW2NIXVtjSF1bY0hdW2NIXW4y

> <s_epik_cmdline>
J2VwaWtfcHl0aG9uJywgJy1waCcsICc3LjAnLCAnLXRuJywgJzgnLCAnLW1hJywgJzIwMCcsICctbWV0YWxfYmluZGluZycsICctaW1hZScsICc8aW5maWxlLm1hZT4nLCAnLW9tYWUnLCAnPG91dGZpbGUubWFlPic=

> <r_epik_Ionization_Penalty>
1.86475

> <r_epik_Ionization_Penalty_Charging>
1.85347

> <r_epik_Ionization_Penalty_Neutral>
0.0112771

> <r_epik_State_Penalty>
1.99714

> <r_epik_Charging_Adjusted_Penalty>
3.85061

> <i_epik_Tot_Q>
1

> <i_epik_Tot_abs_Q>
1

> <r_epik_Metal_State_Penalty>
2.02271

> <b_epik_Metal_Only>
0

> <s_lp_Force_Field>
OPLS_2005

> <r_lp_Energy>
35.8241

> <b_lp_Chiralities_Consistent>
1

> <s_lp_Variant>
AV-unprocessed.smi:1762-7

> <Gold.Version>
5.8.1

> <Gold.Id.Protein>
6NUR|6NUR_protein|mol2

> <Gold.PLP.Fitness>
39.5054

> <Gold.PLP.PLP>
-31.3369

> <Gold.PLP.part.hbond>
-1.9743

> <Gold.PLP.part.metal>
0.0000

> <Gold.PLP.part.buried>
-3.5631

> <Gold.PLP.part.nonpolar>
-25.0307

> <Gold.PLP.part.repulsive>
0.2285

> <Gold.PLP.ligand.clash>
0.0000

> <Gold.PLP.ligand.torsion>
0.5633

> <Gold.PLP.Chemscore.Hbond>
3.0000

> <Gold.PLP.Chemscore.CHOScore>
0.0000

> <Gold.PLP.Chemscore.Metal>
0.0000

> <Gold.Chemscore.Hbonds>
donor molecule, donor type, donor heavy atom, donor atom, acceptor molecule, acceptor atom, score
      L1  H    16    53       P1 10957  1.95
      P1  H 10752 10764       L1    23  0.63

> <Gold.PLP.Chemscore.Internal.Correction>
0.2952

> <Gold.Rescore>
     Score         DG    S(hbond)    S(metal)    S(lipo)     H(rot)  DE(clash)    DE(int)     intcor
     15.38     -16.14       1.52        0.00      85.33       1.72       0.08       0.69       ----

> <Gold.Chemscore.Fitness>
15.3751

> <Gold.Chemscore.DG>
-16.1359

> <Gold.Chemscore.ZeroCoef>
-5.4800

> <Gold.Chemscore.Hbond>
1.5178

> <Gold.Chemscore.Metal>
0.0000

> <Gold.Chemscore.Lipo>
85.3260

> <Gold.Chemscore.Internal_Hbond>
0.0000

> <Gold.Chemscore.DEClash>
0.0755

> <Gold.Chemscore.DEInternal>
0.6854

> <Gold.Chemscore.Rot>
1.7174

> <Gold.Chemscore.Internal.Correction>
   9.000000E+99

> <Gold.Chemscore.Hbonds>
donor molecule, donor type, donor heavy atom, donor atom, acceptor molecule, acceptor atom, score
      L1  H    16    53       P1 10957  0.46
      P1  H 10752 10764       L1    23  0.10

> <Gold.Chemscore.Hbond.Weighted>
-5.0693

> <Gold.Chemscore.Metal.Weighted>
-0.0000

> <Gold.Chemscore.Lipo.Weighted>
-9.9831

> <Gold.Chemscore.Internal_Hbond.Weighted>
0.0000

> <Gold.Chemscore.DEClash.Weighted>
0.0755

> <Gold.Chemscore.DEInternal.Weighted>
0.6854

> <Gold.Chemscore.Rot.Weighted>
4.3966

> <Gold.Chemscore.Internal.Correction.Weighted>
   9.000000E+99

> <Gold.Protein.RotatedTorsions>
[ 6907 6896 6895 6894 ] final -142.38 input  -60.11 | X-H torsion
[ 7974 7965 7964 7962 ] final   88.65 input  175.53 | X-H torsion
[ 8008 7997 7996 7995 ] final  -31.15 input   59.86 | X-H torsion
[ 10167 10162 10161 10158 ] final   40.34 input  -65.29 | X-H torsion
[ 10718 10713 10712 10709 ] final  -48.35 input   66.30 | X-H torsion
[ 10763 10752 10751 10750 ] final  -52.29 input  -60.55 | X-H torsion
[ 11005 11000 10999 10996 ] final -125.20 input  -57.11 | X-H torsion

> <Gold.Protein.ActiveResidues>
 VAL166  LYS551  ARG553  GLY616  TRP617  ASP618  TYR619  PRO620  LYS621  CYS622 
 ASP623  PHE694  ASN695  SER759  ASP760  ASP761  ALA762  ILE779  LEU786  VAL792 
 PHE793  MET794  SER795  GLU796  ALA797  LYS798  CYS799  TRP800  GLU811  SER814 

> <Gold.Protein.RotatedAtoms>
  151.0863  133.5351  159.2617 H   0  0  0  0  0  0  0  0  0  0  0  0  # atno 6907 bound_to 6896
  151.2235  135.0527  159.8969 H   0  0  0  0  0  0  0  0  0  0  0  0  # atno 6908 bound_to 6896
  152.5429  134.0662  159.8227 H   0  0  0  0  0  0  0  0  0  0  0  0  # atno 6909 bound_to 6896
  145.5428  139.2290  143.2556 H   0  0  0  0  0  0  0  0  0  0  0  0  # atno 7974 bound_to 7965
  154.4224  140.1772  156.1521 H   0  0  0  0  0  0  0  0  0  0  0  0  # atno 8008 bound_to 7997
  155.9906  140.3369  155.6725 H   0  0  0  0  0  0  0  0  0  0  0  0  # atno 8009 bound_to 7997
  155.6377  140.0676  157.2619 H   0  0  0  0  0  0  0  0  0  0  0  0  # atno 8010 bound_to 7997
  140.3751  144.2054  150.6132 H   0  0  0  0  0  0  0  0  0  0  0  0  # atno 10167 bound_to 10162
  156.1996  130.4155  149.9259 H   0  0  0  0  0  0  0  0  0  0  0  0  # atno 10718 bound_to 10713
  154.1403  135.6506  153.4941 H   0  0  0  0  0  0  0  0  0  0  0  0  # atno 10763 bound_to 10752
  153.0168  135.5314  154.6911 H   0  0  0  0  0  0  0  0  0  0  0  0  # atno 10764 bound_to 10752
  154.6171  135.2960  155.0339 H   0  0  0  0  0  0  0  0  0  0  0  0  # atno 10765 bound_to 10752
  140.9781  134.0711  157.3796 H   0  0  0  0  0  0  0  0  0  0  0  0  # atno 11005 bound_to 11000
  146.1969  140.6249  142.9120 LP  0  0  0  0  0  0  0  0  0  0  0  0  # atno 17320 bound_to 7965
  144.7568  140.5327  143.6763 LP  0  0  0  0  0  0  0  0  0  0  0  0  # atno 17321 bound_to 7965
  140.4994  143.2322  151.8701 LP  0  0  0  0  0  0  0  0  0  0  0  0  # atno 17342 bound_to 10162
  139.4800  144.5076  151.8976 LP  0  0  0  0  0  0  0  0  0  0  0  0  # atno 17343 bound_to 10162
  156.6973  130.8919  151.3595 LP  0  0  0  0  0  0  0  0  0  0  0  0  # atno 17370 bound_to 10713
  157.6978  130.9300  150.0695 LP  0  0  0  0  0  0  0  0  0  0  0  0  # atno 17371 bound_to 10713
  139.8939  135.0133  156.6922 LP  0  0  0  0  0  0  0  0  0  0  0  0  # atno 17394 bound_to 11000
  140.7228  133.9126  155.8158 LP  0  0  0  0  0  0  0  0  0  0  0  0  # atno 17395 bound_to 11000

$$$$
