AV-unprocessed.smi:567|AV-procd|sdf|2956|dock10
  -GOLD-   2262023463D 1   1.00000     0.00000
 Structure written by MMmdl.
 53 54  0  0  0  0  0  0  0  0  2 V2000
  147.2873  135.9409  161.4875 C   0  0  0  0  0  0  0  0  0  0  0  0
  148.3634  136.6082  160.8530 O   0  0  0  0  0  0  0  0  0  0  0  0
  149.0771  135.7661  159.9606 C   0  0  0  0  0  0  0  0  0  0  0  0
  148.2958  135.6365  158.6433 C   0  0  0  0  0  0  0  0  0  0  0  0
  149.1934  135.5788  157.4840 N   0  0  0  0  0  0  0  0  0  0  0  0
  149.3095  136.7820  156.8127 N   0  0  0  0  0  0  0  0  0  0  0  0
  150.0691  136.8776  155.7704 C   0  0  0  0  0  0  0  0  0  0  0  0
  150.1952  138.1553  155.0195 C   0  0  0  0  0  0  0  0  0  0  0  0
  151.0365  138.3166  154.1347 O   0  0  0  0  0  0  0  0  0  0  0  0
  149.3300  139.1127  155.3962 N   0  0  0  0  0  0  0  0  0  0  0  0
  149.2802  140.4833  154.9031 C   0  0  0  0  0  0  0  0  0  0  0  0
  150.4318  141.3472  155.4458 C   0  0  0  0  0  0  0  0  0  0  0  0
  150.2881  141.7757  156.9295 C   0  0  0  0  0  0  0  0  0  0  0  0
  150.6850  140.6512  157.9130 C   0  0  0  0  0  0  0  0  0  0  0  0
  151.2655  142.9405  157.1813 C   0  0  0  0  0  0  0  0  0  0  0  0
  148.9194  142.2942  157.2130 N   0  3  0  0  0  0  0  0  0  0  0  0
  147.7239  141.5758  156.6860 C   0  0  0  0  0  0  0  0  0  0  0  0
  147.3215  140.3931  157.5973 C   0  0  0  0  0  0  0  0  0  0  0  0
  146.5529  142.5768  156.7283 C   0  0  0  0  0  0  0  0  0  0  0  0
  147.9286  141.1473  155.2092 C   0  0  0  0  0  0  0  0  0  0  0  0
  150.8295  135.7353  155.2958 C   0  0  0  0  0  0  0  0  0  0  0  0
  150.6897  134.5599  155.9484 C   0  0  0  0  0  0  0  0  0  0  0  0
  149.8109  134.4171  157.1116 C   0  0  0  0  0  0  0  0  0  0  0  0
  149.6414  133.3493  157.6992 O   0  0  0  0  0  0  0  0  0  0  0  0
  146.7787  136.6279  162.1638 H   0  0  0  0  0  0  0  0  0  0  0  0
  147.6398  135.0907  162.0729 H   0  0  0  0  0  0  0  0  0  0  0  0
  146.5592  135.5863  160.7570 H   0  0  0  0  0  0  0  0  0  0  0  0
  150.0564  136.2030  159.7603 H   0  0  0  0  0  0  0  0  0  0  0  0
  149.2439  134.7835  160.4047 H   0  0  0  0  0  0  0  0  0  0  0  0
  147.6675  134.7445  158.6723 H   0  0  0  0  0  0  0  0  0  0  0  0
  147.5994  136.4713  158.5503 H   0  0  0  0  0  0  0  0  0  0  0  0
  148.6672  138.8712  156.1191 H   0  0  0  0  0  0  0  0  0  0  0  0
  149.3760  140.4375  153.8167 H   0  0  0  0  0  0  0  0  0  0  0  0
  151.3886  140.8473  155.2862 H   0  0  0  0  0  0  0  0  0  0  0  0
  150.4716  142.2454  154.8272 H   0  0  0  0  0  0  0  0  0  0  0  0
  151.7346  140.3818  157.7895 H   0  0  0  0  0  0  0  0  0  0  0  0
  150.1233  139.7324  157.7846 H   0  0  0  0  0  0  0  0  0  0  0  0
  150.5533  140.9675  158.9483 H   0  0  0  0  0  0  0  0  0  0  0  0
  152.2959  142.6477  156.9747 H   0  0  0  0  0  0  0  0  0  0  0  0
  151.2241  143.2816  158.2166 H   0  0  0  0  0  0  0  0  0  0  0  0
  151.0386  143.7993  156.5482 H   0  0  0  0  0  0  0  0  0  0  0  0
  148.8147  142.4210  158.2095 H   0  0  0  0  0  0  0  0  0  0  0  0
  146.3632  139.9741  157.2882 H   0  0  0  0  0  0  0  0  0  0  0  0
  147.2118  140.7137  158.6338 H   0  0  0  0  0  0  0  0  0  0  0  0
  148.0248  139.5673  157.5899 H   0  0  0  0  0  0  0  0  0  0  0  0
  145.6364  142.1357  156.3339 H   0  0  0  0  0  0  0  0  0  0  0  0
  146.7652  143.4687  156.1370 H   0  0  0  0  0  0  0  0  0  0  0  0
  146.3446  142.9064  157.7471 H   0  0  0  0  0  0  0  0  0  0  0  0
  147.8624  142.0348  154.5774 H   0  0  0  0  0  0  0  0  0  0  0  0
  147.1106  140.5025  154.8840 H   0  0  0  0  0  0  0  0  0  0  0  0
  151.4844  135.8144  154.4403 H   0  0  0  0  0  0  0  0  0  0  0  0
  151.2448  133.6989  155.6056 H   0  0  0  0  0  0  0  0  0  0  0  0
  148.8891  143.2086  156.7850 H   0  0  0  0  0  0  0  0  0  0  0  0
  1  2  1  0  0  0  0
  1 25  1  0  0  0  0
  1 26  1  0  0  0  0
  1 27  1  0  0  0  0
  2  3  1  0  0  0  0
  3  4  1  0  0  0  0
  3 28  1  0  0  0  0
  3 29  1  0  0  0  0
  4  5  1  0  0  0  0
  4 30  1  0  0  0  0
  4 31  1  0  0  0  0
  5 23  1  0  0  0  0
  5  6  1  0  0  0  0
  6  7  2  0  0  0  0
  7  8  1  0  0  0  0
  7 21  1  0  0  0  0
  8  9  2  0  0  0  0
  8 10  1  0  0  0  0
 10 11  1  0  0  0  0
 10 32  1  0  0  0  0
 11 20  1  0  0  0  0
 11 12  1  0  0  0  0
 11 33  1  0  0  0  0
 12 13  1  0  0  0  0
 12 34  1  0  0  0  0
 12 35  1  0  0  0  0
 13 14  1  0  0  0  0
 13 15  1  0  0  0  0
 13 16  1  0  0  0  0
 14 36  1  0  0  0  0
 14 37  1  0  0  0  0
 14 38  1  0  0  0  0
 15 39  1  0  0  0  0
 15 40  1  0  0  0  0
 15 41  1  0  0  0  0
 16 17  1  0  0  0  0
 16 42  1  0  0  0  0
 16 53  1  0  0  0  0
 17 18  1  0  0  0  0
 17 19  1  0  0  0  0
 17 20  1  0  0  0  0
 18 43  1  0  0  0  0
 18 44  1  0  0  0  0
 18 45  1  0  0  0  0
 19 46  1  0  0  0  0
 19 47  1  0  0  0  0
 19 48  1  0  0  0  0
 20 49  1  0  0  0  0
 20 50  1  0  0  0  0
 21 22  2  0  0  0  0
 21 51  1  0  0  0  0
 22 23  1  0  0  0  0
 22 52  1  0  0  0  0
 23 24  2  0  0  0  0
M  CHG  1  16   1
M  END
> <s_m_source_file>
AV-unprocessed.smi

> <i_m_source_file_index>
567

> <i_lp_mmshare_version>
43012

> <i_f3d_flags>
0

> <s_epik_input>
W0NIM11PW0NIMl1bQ0gyXW4xbmMoW2NIXVtjSF1jMT1PKUMoPU8pW05IXVtDSF0oW0NIMl1DMihbQ0gzXSlbQ0gzXSlbQ0gyXUMoW05IXTIpKFtDSDNdKVtDSDNd

> <s_epik_cmdline>
J2VwaWtfcHl0aG9uJywgJy1waCcsICc3LjAnLCAnLXRuJywgJzgnLCAnLW1hJywgJzIwMCcsICctbWV0YWxfYmluZGluZycsICctaW1hZScsICc8aW5maWxlLm1hZT4nLCAnLW9tYWUnLCAnPG91dGZpbGUubWFlPic=

> <r_lp_tautomer_probability>
1

> <r_epik_Ionization_Penalty>
0.000138804

> <r_epik_Ionization_Penalty_Charging>
0.000136152

> <r_epik_Ionization_Penalty_Neutral>
2.65225e-06

> <r_epik_State_Penalty>
-0

> <r_epik_Charging_Adjusted_Penalty>
0.000136152

> <i_epik_Tot_Q>
1

> <i_epik_Tot_abs_Q>
1

> <r_epik_Metal_State_Penalty>
-0

> <b_epik_Metal_Only>
0

> <s_lp_Force_Field>
OPLS_2005

> <r_lp_Energy>
46.3617

> <b_lp_Chiralities_Consistent>
1

> <s_lp_Variant>
AV-unprocessed.smi:567-1

> <Gold.Version>
5.8.1

> <Gold.Id.Protein>
6NUR|6NUR_protein|mol2

> <Gold.PLP.Fitness>
40.2964

> <Gold.PLP.PLP>
-28.4530

> <Gold.PLP.part.hbond>
-4.0000

> <Gold.PLP.part.metal>
0.0000

> <Gold.PLP.part.buried>
-2.6202

> <Gold.PLP.part.nonpolar>
-20.9875

> <Gold.PLP.part.repulsive>
0.2326

> <Gold.PLP.ligand.clash>
0.0000

> <Gold.PLP.ligand.torsion>
0.8616

> <Gold.PLP.Chemscore.Hbond>
4.5172

> <Gold.PLP.Chemscore.CHOScore>
0.0000

> <Gold.PLP.Chemscore.Metal>
0.0000

> <Gold.Chemscore.Hbonds>
donor molecule, donor type, donor heavy atom, donor atom, acceptor molecule, acceptor atom, score
      L1  H    16    53       P1  8028  2.00
      P1  H  6896  6908       L1    24  0.85
      P1  H  6931  6943       L1     2  0.93

> <Gold.PLP.Chemscore.Internal.Correction>
0.0150

> <Gold.Rescore>
     Score         DG    S(hbond)    S(metal)    S(lipo)     H(rot)  DE(clash)    DE(int)     intcor
     15.53     -16.58       1.94        0.00      74.71       1.61       0.40       0.65       ----

> <Gold.Chemscore.Fitness>
15.5286

> <Gold.Chemscore.DG>
-16.5799

> <Gold.Chemscore.ZeroCoef>
-5.4800

> <Gold.Chemscore.Hbond>
1.9413

> <Gold.Chemscore.Metal>
0.0000

> <Gold.Chemscore.Lipo>
74.7054

> <Gold.Chemscore.Internal_Hbond>
0.0000

> <Gold.Chemscore.DEClash>
0.3963

> <Gold.Chemscore.DEInternal>
0.6549

> <Gold.Chemscore.Rot>
1.6112

> <Gold.Chemscore.Internal.Correction>
   9.000000E+99

> <Gold.Chemscore.Hbonds>
donor molecule, donor type, donor heavy atom, donor atom, acceptor molecule, acceptor atom, score
      L1  H    16    53       P1  8028  0.85
      P1  H  6896  6908       L1    24  0.14
      P1  H  6931  6943       L1     2  0.77

> <Gold.Chemscore.Hbond.Weighted>
-6.4840

> <Gold.Chemscore.Metal.Weighted>
-0.0000

> <Gold.Chemscore.Lipo.Weighted>
-8.7405

> <Gold.Chemscore.Internal_Hbond.Weighted>
0.0000

> <Gold.Chemscore.DEClash.Weighted>
0.3963

> <Gold.Chemscore.DEInternal.Weighted>
0.6549

> <Gold.Chemscore.Rot.Weighted>
4.1247

> <Gold.Chemscore.Internal.Correction.Weighted>
   9.000000E+99

> <Gold.Protein.RotatedTorsions>
[ 6907 6896 6895 6894 ] final  113.73 input  -60.11 | X-H torsion
[ 7974 7965 7964 7962 ] final  -50.81 input  175.53 | X-H torsion
[ 8008 7997 7996 7995 ] final   30.46 input   59.86 | X-H torsion
[ 10167 10162 10161 10158 ] final -141.38 input  -65.29 | X-H torsion
[ 10718 10713 10712 10709 ] final -127.65 input   66.30 | X-H torsion
[ 10763 10752 10751 10750 ] final -112.62 input  -60.55 | X-H torsion
[ 11005 11000 10999 10996 ] final  116.22 input  -57.11 | X-H torsion

> <Gold.Protein.ActiveResidues>
 VAL166  LYS551  ARG553  GLY616  TRP617  ASP618  TYR619  PRO620  LYS621  CYS622 
 ASP623  PHE694  ASN695  SER759  ASP760  ASP761  ALA762  ILE779  LEU786  VAL792 
 PHE793  MET794  SER795  GLU796  ALA797  LYS798  CYS799  TRP800  GLU811  SER814 

> <Gold.Protein.RotatedAtoms>
  152.4844  133.8334  159.7115 H   0  0  0  0  0  0  0  0  0  0  0  0  # atno 6907 bound_to 6896
  150.8918  133.7224  159.2909 H   0  0  0  0  0  0  0  0  0  0  0  0  # atno 6908 bound_to 6896
  151.4694  135.1048  159.9799 H   0  0  0  0  0  0  0  0  0  0  0  0  # atno 6909 bound_to 6896
  145.9258  140.7793  142.9624 H   0  0  0  0  0  0  0  0  0  0  0  0  # atno 7974 bound_to 7965
  155.0908  140.3220  155.4574 H   0  0  0  0  0  0  0  0  0  0  0  0  # atno 8008 bound_to 7997
  156.2743  140.2078  156.5981 H   0  0  0  0  0  0  0  0  0  0  0  0  # atno 8009 bound_to 7997
  154.6905  140.0517  157.0346 H   0  0  0  0  0  0  0  0  0  0  0  0  # atno 8010 bound_to 7997
  139.8190  143.7599  152.2665 H   0  0  0  0  0  0  0  0  0  0  0  0  # atno 10167 bound_to 10162
  156.1877  130.6774  151.0385 H   0  0  0  0  0  0  0  0  0  0  0  0  # atno 10718 bound_to 10713
  154.8358  135.4484  154.1221 H   0  0  0  0  0  0  0  0  0  0  0  0  # atno 10763 bound_to 10752
  153.2454  135.6921  153.7743 H   0  0  0  0  0  0  0  0  0  0  0  0  # atno 10764 bound_to 10752
  153.7075  135.3362  155.3214 H   0  0  0  0  0  0  0  0  0  0  0  0  # atno 10765 bound_to 10752
  139.9034  134.9595  156.7165 H   0  0  0  0  0  0  0  0  0  0  0  0  # atno 11005 bound_to 11000
  144.6758  140.2048  143.7383 LP  0  0  0  0  0  0  0  0  0  0  0  0  # atno 17320 bound_to 7965
  145.8490  139.2166  143.1783 LP  0  0  0  0  0  0  0  0  0  0  0  0  # atno 17321 bound_to 7965
  139.7771  144.7457  151.0141 LP  0  0  0  0  0  0  0  0  0  0  0  0  # atno 17342 bound_to 10162
  140.7814  143.4581  151.0316 LP  0  0  0  0  0  0  0  0  0  0  0  0  # atno 17343 bound_to 10162
  157.6909  131.0810  150.7109 LP  0  0  0  0  0  0  0  0  0  0  0  0  # atno 17370 bound_to 10713
  156.7166  130.4668  149.5533 LP  0  0  0  0  0  0  0  0  0  0  0  0  # atno 17371 bound_to 10713
  140.7034  133.9286  155.8039 LP  0  0  0  0  0  0  0  0  0  0  0  0  # atno 17394 bound_to 11000
  141.0354  134.0697  157.3965 LP  0  0  0  0  0  0  0  0  0  0  0  0  # atno 17395 bound_to 11000

$$$$
