AV-unprocessed.smi:148|AV-procd|sdf|1225|dock9
  -GOLD-   2262018423D 1   1.00000     0.00000
 Structure written by MMmdl.
 63 67  0  0  0  0  0  0  0  0  1 V2000
  150.5422  132.4846  157.4921 O   0  0  0  0  0  0  0  0  0  0  0  0
  151.0034  133.2863  156.4230 C   0  0  0  0  0  0  0  0  0  0  0  0
  149.8953  133.5309  155.3725 C   0  0  1  0  0  0  0  0  0  0  0  0
  150.2550  134.7882  154.5371 C   0  0  0  0  0  0  0  0  0  0  0  0
  150.1802  136.0418  155.2654 N   0  0  0  0  0  0  0  0  0  0  0  0
  149.2893  136.3593  156.2669 C   0  0  0  0  0  0  0  0  0  0  0  0
  149.4221  137.5554  156.7725 N   0  0  0  0  0  0  0  0  0  0  0  0
  150.4696  138.1093  156.0486 C   0  0  0  0  0  0  0  0  0  0  0  0
  151.1254  139.3673  156.0698 C   0  0  0  0  0  0  0  0  0  0  0  0
  150.7766  140.3386  156.9413 N   0  0  0  0  0  0  0  0  0  0  0  0
  151.9319  140.7114  157.7609 C   0  0  0  0  0  0  0  0  0  0  0  0
  151.5156  141.5807  158.9507 C   0  0  0  0  0  0  0  0  0  0  0  0
  150.7602  142.8128  158.4512 C   0  0  0  0  0  0  0  0  0  0  0  0
  149.5626  142.3786  157.5964 C   0  0  0  0  0  0  0  0  0  0  0  0
  149.9689  141.4578  156.4132 C   0  0  2  0  0  0  0  0  0  0  0  0
  148.6962  141.0002  155.6172 C   0  0  1  0  0  0  0  0  0  0  0  0
  147.7292  142.1316  155.2185 C   0  0  0  0  0  0  0  0  0  0  0  0
  146.8296  141.5657  154.1139 C   0  0  0  0  0  0  0  0  0  0  0  0
  147.5425  140.3189  153.5793 C   0  0  0  0  0  0  0  0  0  0  0  0
  148.9136  140.2869  154.2626 C   0  0  1  0  0  0  0  0  0  0  0  0
  149.8404  140.9887  153.4552 O   0  0  0  0  0  0  0  0  0  0  0  0
  152.1386  139.5752  155.1876 N   0  0  0  0  0  0  0  0  0  0  0  0
  152.4795  138.6106  154.3274 C   0  0  0  0  0  0  0  0  0  0  0  0
  151.9567  137.3894  154.1913 N   0  0  0  0  0  0  0  0  0  0  0  0
  150.9473  137.1791  155.0847 C   0  0  0  0  0  0  0  0  0  0  0  0
  149.5790  132.2604  154.5283 C   0  0  1  0  0  0  0  0  0  0  0  0
  148.8600  131.1561  155.2880 C   0  0  0  0  0  0  0  0  0  0  0  0
  148.3000  130.2995  154.1623 C   0  0  0  0  0  0  0  0  0  0  0  0
  147.9132  131.2299  153.1626 O   0  0  0  0  0  0  0  0  0  0  0  0
  148.6064  132.4597  153.3537 C   0  0  0  0  0  0  0  0  0  0  0  0
  150.2023  131.6770  157.1379 H   0  0  0  0  0  0  0  0  0  0  0  0
  151.3800  134.2268  156.8249 H   0  0  0  0  0  0  0  0  0  0  0  0
  151.8590  132.7913  155.9626 H   0  0  0  0  0  0  0  0  0  0  0  0
  148.9971  133.7661  155.9444 H   0  0  0  0  0  0  0  0  0  0  0  0
  151.2710  134.6996  154.1506 H   0  0  0  0  0  0  0  0  0  0  0  0
  149.6028  134.8587  153.6658 H   0  0  0  0  0  0  0  0  0  0  0  0
  148.5421  135.6656  156.6241 H   0  0  0  0  0  0  0  0  0  0  0  0
  152.4355  139.8148  158.1268 H   0  0  0  0  0  0  0  0  0  0  0  0
  152.6540  141.2539  157.1483 H   0  0  0  0  0  0  0  0  0  0  0  0
  150.8831  141.0042  159.6270 H   0  0  0  0  0  0  0  0  0  0  0  0
  152.3939  141.8819  159.5219 H   0  0  0  0  0  0  0  0  0  0  0  0
  150.4226  143.4156  159.2946 H   0  0  0  0  0  0  0  0  0  0  0  0
  151.4266  143.4427  157.8604 H   0  0  0  0  0  0  0  0  0  0  0  0
  148.8401  141.8613  158.2296 H   0  0  0  0  0  0  0  0  0  0  0  0
  149.0687  143.2805  157.2362 H   0  0  0  0  0  0  0  0  0  0  0  0
  150.6089  142.0449  155.7533 H   0  0  0  0  0  0  0  0  0  0  0  0
  148.1304  140.3226  156.2595 H   0  0  0  0  0  0  0  0  0  0  0  0
  147.1424  142.4967  156.0620 H   0  0  0  0  0  0  0  0  0  0  0  0
  148.2918  142.9773  154.8201 H   0  0  0  0  0  0  0  0  0  0  0  0
  145.8505  141.2964  154.5119 H   0  0  0  0  0  0  0  0  0  0  0  0
  146.6707  142.3043  153.3275 H   0  0  0  0  0  0  0  0  0  0  0  0
  146.9757  139.4337  153.8711 H   0  0  0  0  0  0  0  0  0  0  0  0
  147.6112  140.3088  152.4906 H   0  0  0  0  0  0  0  0  0  0  0  0
  149.2490  139.2571  154.3653 H   0  0  0  0  0  0  0  0  0  0  0  0
  150.0385  140.4585  152.6984 H   0  0  0  0  0  0  0  0  0  0  0  0
  153.2863  138.8521  153.6516 H   0  0  0  0  0  0  0  0  0  0  0  0
  150.5108  131.8471  154.1388 H   0  0  0  0  0  0  0  0  0  0  0  0
  149.5160  130.5898  155.9496 H   0  0  0  0  0  0  0  0  0  0  0  0
  148.0441  131.5690  155.8832 H   0  0  0  0  0  0  0  0  0  0  0  0
  149.0746  129.6467  153.7576 H   0  0  0  0  0  0  0  0  0  0  0  0
  147.4613  129.6800  154.4802 H   0  0  0  0  0  0  0  0  0  0  0  0
  147.8675  133.2295  153.5788 H   0  0  0  0  0  0  0  0  0  0  0  0
  149.1190  132.7413  152.4350 H   0  0  0  0  0  0  0  0  0  0  0  0
  1  2  1  0  0  0  0
  1 31  1  0  0  0  0
  2  3  1  0  0  0  0
  2 32  1  0  0  0  0
  2 33  1  0  0  0  0
  3  4  1  0  0  0  0
  3 26  1  0  0  0  0
  3 34  1  0  0  0  0
  4  5  1  0  0  0  0
  4 35  1  0  0  0  0
  4 36  1  0  0  0  0
  5 25  1  0  0  0  0
  5  6  1  0  0  0  0
  6  7  2  0  0  0  0
  6 37  1  0  0  0  0
  7  8  1  0  0  0  0
  8 25  2  0  0  0  0
  8  9  1  0  0  0  0
  9 10  1  0  0  0  0
  9 22  2  0  0  0  0
 10 15  1  0  0  0  0
 10 11  1  0  0  0  0
 11 12  1  0  0  0  0
 11 38  1  0  0  0  0
 11 39  1  0  0  0  0
 12 13  1  0  0  0  0
 12 40  1  0  0  0  0
 12 41  1  0  0  0  0
 13 14  1  0  0  0  0
 13 42  1  0  0  0  0
 13 43  1  0  0  0  0
 14 15  1  0  0  0  0
 14 44  1  0  0  0  0
 14 45  1  0  0  0  0
 15 16  1  0  0  0  0
 15 46  1  0  0  0  0
 16 20  1  0  0  0  0
 16 17  1  0  0  0  0
 16 47  1  0  0  0  0
 17 18  1  0  0  0  0
 17 48  1  0  0  0  0
 17 49  1  0  0  0  0
 18 19  1  0  0  0  0
 18 50  1  0  0  0  0
 18 51  1  0  0  0  0
 19 20  1  0  0  0  0
 19 52  1  0  0  0  0
 19 53  1  0  0  0  0
 20 21  1  0  0  0  0
 20 54  1  0  0  0  0
 21 55  1  0  0  0  0
 22 23  1  0  0  0  0
 23 24  2  0  0  0  0
 23 56  1  0  0  0  0
 24 25  1  0  0  0  0
 26 30  1  0  0  0  0
 26 27  1  0  0  0  0
 26 57  1  0  0  0  0
 27 28  1  0  0  0  0
 27 58  1  0  0  0  0
 27 59  1  0  0  0  0
 28 29  1  0  0  0  0
 28 60  1  0  0  0  0
 28 61  1  0  0  0  0
 29 30  1  0  0  0  0
 30 62  1  0  0  0  0
 30 63  1  0  0  0  0
M  END
> <s_m_source_file>
AV-unprocessed.smi

> <i_m_source_file_index>
148

> <i_lp_mmshare_version>
43012

> <i_f3d_flags>
0

> <s_epik_input>
W0NIMl0xT1tDSDJdW0NIMl1bQ0BIXTFbQ0BIXShbQ0gyXVtPSF0pW0NIMl1uKFtjSF1uMiljKGMyMyluW2NIXW5jM040W0NIMl1bQ0gyXVtDSDJdW0NIMl1bQ0BIXTRbQ0BASF01W0NIMl1bQ0gyXVtDSDJdW0NASF01W09IXQ==

> <s_epik_cmdline>
J2VwaWtfcHl0aG9uJywgJy1waCcsICc3LjAnLCAnLXRuJywgJzgnLCAnLW1hJywgJzIwMCcsICctbWV0YWxfYmluZGluZycsICctaW1hZScsICc8aW5maWxlLm1hZT4nLCAnLW9tYWUnLCAnPG91dGZpbGUubWFlPic=

> <r_lp_tautomer_probability>
1

> <r_epik_Ionization_Penalty>
0.00556303

> <r_epik_Ionization_Penalty_Charging>
0

> <r_epik_Ionization_Penalty_Neutral>
0.00556303

> <r_epik_State_Penalty>
0.00401767

> <r_epik_Charging_Adjusted_Penalty>
0.00401767

> <i_epik_Tot_Q>
0

> <i_epik_Tot_abs_Q>
0

> <r_epik_Metal_State_Penalty>
-0

> <b_epik_Metal_Only>
0

> <s_lp_Force_Field>
OPLS_2005

> <r_lp_Energy>
70.5137

> <b_lp_Chiralities_Consistent>
1

> <s_lp_Variant>
AV-unprocessed.smi:148-24

> <Gold.Version>
5.8.1

> <Gold.Id.Protein>
6NUR|6NUR_protein|mol2

> <Gold.PLP.Fitness>
53.8835

> <Gold.PLP.PLP>
-44.4608

> <Gold.PLP.part.hbond>
-5.8255

> <Gold.PLP.part.metal>
0.0000

> <Gold.PLP.part.buried>
-5.9126

> <Gold.PLP.part.nonpolar>
-33.0461

> <Gold.PLP.part.repulsive>
0.2947

> <Gold.PLP.ligand.clash>
0.0000

> <Gold.PLP.ligand.torsion>
1.0506

> <Gold.PLP.Chemscore.Hbond>
3.6526

> <Gold.PLP.Chemscore.CHOScore>
0.0000

> <Gold.PLP.Chemscore.Metal>
0.0000

> <Gold.Chemscore.Hbonds>
donor molecule, donor type, donor heavy atom, donor atom, acceptor molecule, acceptor atom, score
      L1  H    21    55       P1  7957  0.94
      P1  H  6896  6909       L1     1  0.89
      P1  H  7989  7998       L1    22  0.25
      P1  H  8011  8017       L1    21  0.35
      P1  H 10752 10765       L1    24  0.98

> <Gold.PLP.Chemscore.Internal.Correction>
0.5659

> <Gold.Rescore>
     Score         DG    S(hbond)    S(metal)    S(lipo)     H(rot)  DE(clash)    DE(int)     intcor
     14.36     -17.06       2.69        0.00      94.91       3.32       0.32       2.38       ----

> <Gold.Chemscore.Fitness>
14.3553

> <Gold.Chemscore.DG>
-17.0622

> <Gold.Chemscore.ZeroCoef>
-5.4800

> <Gold.Chemscore.Hbond>
2.6881

> <Gold.Chemscore.Metal>
0.0000

> <Gold.Chemscore.Lipo>
94.9069

> <Gold.Chemscore.Internal_Hbond>
0.0000

> <Gold.Chemscore.DEClash>
0.3225

> <Gold.Chemscore.DEInternal>
2.3844

> <Gold.Chemscore.Rot>
3.3203

> <Gold.Chemscore.Internal.Correction>
   9.000000E+99

> <Gold.Chemscore.Hbonds>
donor molecule, donor type, donor heavy atom, donor atom, acceptor molecule, acceptor atom, score
      L1  H    21    55       P1  7957  0.91
      P1  H  6896  6909       L1     1  0.43
      P1  H  7989  7998       L1    22  0.01
      P1  H  7997  8008       L1    22  0.01
      P1  H  8011  8017       L1    21  0.01
      P1  H 10752 10765       L1    24  0.46

> <Gold.Chemscore.Hbond.Weighted>
-8.9781

> <Gold.Chemscore.Metal.Weighted>
-0.0000

> <Gold.Chemscore.Lipo.Weighted>
-11.1041

> <Gold.Chemscore.Internal_Hbond.Weighted>
0.0000

> <Gold.Chemscore.DEClash.Weighted>
0.3225

> <Gold.Chemscore.DEInternal.Weighted>
2.3844

> <Gold.Chemscore.Rot.Weighted>
8.5000

> <Gold.Chemscore.Internal.Correction.Weighted>
   9.000000E+99

> <Gold.Protein.RotatedTorsions>
[ 6907 6896 6895 6894 ] final  -38.47 input  -60.11 | X-H torsion
[ 7974 7965 7964 7962 ] final  -14.37 input  175.53 | X-H torsion
[ 8008 7997 7996 7995 ] final  -30.44 input   59.86 | X-H torsion
[ 10167 10162 10161 10158 ] final   13.82 input  -65.29 | X-H torsion
[ 10718 10713 10712 10709 ] final -141.86 input   66.30 | X-H torsion
[ 10763 10752 10751 10750 ] final  154.61 input  -60.55 | X-H torsion
[ 11005 11000 10999 10996 ] final  144.60 input  -57.11 | X-H torsion

> <Gold.Protein.ActiveResidues>
 VAL166  LYS551  ARG553  GLY616  TRP617  ASP618  TYR619  PRO620  LYS621  CYS622 
 ASP623  PHE694  ASN695  SER759  ASP760  ASP761  ALA762  ILE779  LEU786  VAL792 
 PHE793  MET794  SER795  GLU796  ALA797  LYS798  CYS799  TRP800  GLU811  SER814 

> <Gold.Protein.RotatedAtoms>
  151.0020  134.9330  159.7959 H   0  0  0  0  0  0  0  0  0  0  0  0  # atno 6907 bound_to 6896
  152.5280  134.3141  159.9134 H   0  0  0  0  0  0  0  0  0  0  0  0  # atno 6908 bound_to 6896
  151.3147  133.4024  159.2684 H   0  0  0  0  0  0  0  0  0  0  0  0  # atno 6909 bound_to 6896
  146.2077  140.3338  142.8401 H   0  0  0  0  0  0  0  0  0  0  0  0  # atno 7974 bound_to 7965
  154.4250  140.1791  156.1408 H   0  0  0  0  0  0  0  0  0  0  0  0  # atno 8008 bound_to 7997
  155.9993  140.3361  155.6805 H   0  0  0  0  0  0  0  0  0  0  0  0  # atno 8009 bound_to 7997
  155.6265  140.0665  157.2653 H   0  0  0  0  0  0  0  0  0  0  0  0  # atno 8010 bound_to 7997
  140.5977  143.8669  150.6934 H   0  0  0  0  0  0  0  0  0  0  0  0  # atno 10167 bound_to 10162
  156.3391  130.7627  151.1760 H   0  0  0  0  0  0  0  0  0  0  0  0  # atno 10718 bound_to 10713
  154.1551  135.2813  155.3124 H   0  0  0  0  0  0  0  0  0  0  0  0  # atno 10763 bound_to 10752
  154.6188  135.5474  153.7556 H   0  0  0  0  0  0  0  0  0  0  0  0  # atno 10764 bound_to 10752
  153.0209  135.6434  154.1694 H   0  0  0  0  0  0  0  0  0  0  0  0  # atno 10765 bound_to 10752
  140.0645  134.9186  157.1241 H   0  0  0  0  0  0  0  0  0  0  0  0  # atno 11005 bound_to 11000
  144.8833  140.7429  143.5972 LP  0  0  0  0  0  0  0  0  0  0  0  0  # atno 17320 bound_to 7965
  145.3259  139.1774  143.4563 LP  0  0  0  0  0  0  0  0  0  0  0  0  # atno 17321 bound_to 7965
  140.2207  143.3811  152.1645 LP  0  0  0  0  0  0  0  0  0  0  0  0  # atno 17342 bound_to 10162
  139.5269  144.7113  151.5196 LP  0  0  0  0  0  0  0  0  0  0  0  0  # atno 17343 bound_to 10162
  157.7444  131.0460  150.4870 LP  0  0  0  0  0  0  0  0  0  0  0  0  # atno 17370 bound_to 10713
  156.5047  130.4125  149.6334 LP  0  0  0  0  0  0  0  0  0  0  0  0  # atno 17371 bound_to 10713
  140.3719  134.2380  155.7177 LP  0  0  0  0  0  0  0  0  0  0  0  0  # atno 17394 bound_to 11000
  141.1987  133.8029  157.0570 LP  0  0  0  0  0  0  0  0  0  0  0  0  # atno 17395 bound_to 11000

$$$$
