AV-unprocessed.smi:790|AV-procd|sdf|3747|dock2
  -GOLD-   22720 1183D 1   1.00000     0.00000
 Structure written by MMmdl.
 38 40  0  0  0  0  0  0  0  0  1 V2000
  150.1949  140.7887  157.9573 O   0  0  0  0  0  0  0  0  0  0  0  0
  149.6662  141.8049  157.5078 C   0  0  0  0  0  0  0  0  0  0  0  0
  149.9290  143.0636  157.9012 N   0  0  0  0  0  0  0  0  0  0  0  0
  150.8301  143.5222  158.9019 C   0  0  0  0  0  0  0  0  0  0  0  0
  150.8890  144.8520  159.3863 C   0  0  0  0  0  0  0  0  0  0  0  0
  151.8399  145.1752  160.3738 C   0  0  0  0  0  0  0  0  0  0  0  0
  152.7009  144.1617  160.8367 C   0  0  0  0  0  0  0  0  0  0  0  0
  152.6648  142.8937  160.3766 N   0  0  0  0  0  0  0  0  0  0  0  0
  151.7503  142.5916  159.4303 C   0  0  0  0  0  0  0  0  0  0  0  0
  148.7448  141.7865  156.5349 N   0  0  0  0  0  0  0  0  0  0  0  0
  148.2410  140.5785  155.8839 C   0  0  1  0  0  0  0  0  0  0  0  0
  146.7041  140.4115  155.9969 C   0  0  1  0  0  0  0  0  0  0  0  0
  145.9607  141.6876  155.5460 C   0  0  0  0  0  0  0  0  0  0  0  0
  146.2081  141.7015  154.0263 C   0  0  0  0  0  0  0  0  0  0  0  0
  147.0325  140.4187  153.8034 C   0  0  2  0  0  0  0  0  0  0  0  0
  146.4123  139.4772  154.8297 C   0  0  0  0  0  0  0  0  0  0  0  0
  148.4647  140.6252  154.3488 C   0  0  2  0  0  0  0  0  0  0  0  0
  149.4531  139.5588  153.8377 C   0  0  0  0  0  0  0  0  0  0  0  0
  150.7476  139.8082  154.3428 O   0  0  0  0  0  0  0  0  0  0  0  0
  149.4509  143.7912  157.3903 H   0  0  0  0  0  0  0  0  0  0  0  0
  150.2404  145.6314  159.0197 H   0  0  0  0  0  0  0  0  0  0  0  0
  151.9086  146.1792  160.7658 H   0  0  0  0  0  0  0  0  0  0  0  0
  153.4405  144.3761  161.5939 H   0  0  0  0  0  0  0  0  0  0  0  0
  151.7532  141.5679  159.0848 H   0  0  0  0  0  0  0  0  0  0  0  0
  148.3658  142.6664  156.2173 H   0  0  0  0  0  0  0  0  0  0  0  0
  148.7343  139.7024  156.3099 H   0  0  0  0  0  0  0  0  0  0  0  0
  146.3771  140.0398  156.9685 H   0  0  0  0  0  0  0  0  0  0  0  0
  144.8936  141.5995  155.7537 H   0  0  0  0  0  0  0  0  0  0  0  0
  146.3115  142.5947  156.0380 H   0  0  0  0  0  0  0  0  0  0  0  0
  145.2622  141.6542  153.4851 H   0  0  0  0  0  0  0  0  0  0  0  0
  146.7351  142.5978  153.6974 H   0  0  0  0  0  0  0  0  0  0  0  0
  146.9996  140.0619  152.7734 H   0  0  0  0  0  0  0  0  0  0  0  0
  146.9197  138.5145  154.9078 H   0  0  0  0  0  0  0  0  0  0  0  0
  145.3468  139.3030  154.6690 H   0  0  0  0  0  0  0  0  0  0  0  0
  148.8289  141.6037  154.0295 H   0  0  0  0  0  0  0  0  0  0  0  0
  149.1428  138.5541  154.1250 H   0  0  0  0  0  0  0  0  0  0  0  0
  149.5022  139.5814  152.7486 H   0  0  0  0  0  0  0  0  0  0  0  0
  150.9422  139.1602  155.0028 H   0  0  0  0  0  0  0  0  0  0  0  0
  1  2  2  0  0  0  0
  2  3  1  0  0  0  0
  2 10  1  0  0  0  0
  3  4  1  0  0  0  0
  3 20  1  0  0  0  0
  4  9  1  0  0  0  0
  4  5  2  0  0  0  0
  5  6  1  0  0  0  0
  5 21  1  0  0  0  0
  6  7  2  0  0  0  0
  6 22  1  0  0  0  0
  7  8  1  0  0  0  0
  7 23  1  0  0  0  0
  8  9  2  0  0  0  0
  9 24  1  0  0  0  0
 10 11  1  0  0  0  0
 10 25  1  0  0  0  0
 11 17  1  0  0  0  0
 11 12  1  0  0  0  0
 11 26  1  0  0  0  0
 12 16  1  0  0  0  0
 12 13  1  0  0  0  0
 12 27  1  0  0  0  0
 13 14  1  0  0  0  0
 13 28  1  0  0  0  0
 13 29  1  0  0  0  0
 14 15  1  0  0  0  0
 14 30  1  0  0  0  0
 14 31  1  0  0  0  0
 15 16  1  0  0  0  0
 15 17  1  0  0  0  0
 15 32  1  0  0  0  0
 16 33  1  0  0  0  0
 16 34  1  0  0  0  0
 17 18  1  0  0  0  0
 17 35  1  0  0  0  0
 18 19  1  0  0  0  0
 18 36  1  0  0  0  0
 18 37  1  0  0  0  0
 19 38  1  0  0  0  0
M  END
> <s_m_source_file>
AV-unprocessed.smi

> <i_m_source_file_index>
790

> <i_lp_mmshare_version>
43012

> <i_f3d_flags>
0

> <s_epik_input>
W0NIMl0xW0NIMl1bQ0BASF0oW0NIMl0yKVtDQEBIXShbQ0gyXVtPSF0pW0NAQEhdKFtDQEhdMTIpW05IXUMoPU8pW05IXWMzW2NIXVtjSF1bY0hdbltjSF0z

> <s_epik_cmdline>
J2VwaWtfcHl0aG9uJywgJy1waCcsICc3LjAnLCAnLXRuJywgJzgnLCAnLW1hJywgJzIwMCcsICctbWV0YWxfYmluZGluZycsICctaW1hZScsICc8aW5maWxlLm1hZT4nLCAnLW9tYWUnLCAnPG91dGZpbGUubWFlPic=

> <r_epik_Ionization_Penalty>
0.00497582

> <r_epik_Ionization_Penalty_Charging>
0

> <r_epik_Ionization_Penalty_Neutral>
0.00497582

> <r_epik_State_Penalty>
0.00358602

> <r_epik_Charging_Adjusted_Penalty>
0.00358602

> <i_epik_Tot_Q>
0

> <i_epik_Tot_abs_Q>
0

> <r_epik_Metal_State_Penalty>
-0

> <b_epik_Metal_Only>
0

> <s_lp_Force_Field>
OPLS_2005

> <r_lp_Energy>
55.2793

> <b_lp_Chiralities_Consistent>
1

> <s_lp_Variant>
AV-unprocessed.smi:790-8

> <Gold.Version>
5.8.1

> <Gold.Id.Protein>
6NUR|6NUR_protein|mol2

> <Gold.PLP.Fitness>
42.2422

> <Gold.PLP.PLP>
-33.3024

> <Gold.PLP.part.hbond>
-3.0000

> <Gold.PLP.part.metal>
0.0000

> <Gold.PLP.part.buried>
-3.4458

> <Gold.PLP.part.nonpolar>
-26.3664

> <Gold.PLP.part.repulsive>
0.1145

> <Gold.PLP.ligand.clash>
0.0000

> <Gold.PLP.ligand.torsion>
0.0410

> <Gold.PLP.Chemscore.Hbond>
3.0000

> <Gold.PLP.Chemscore.CHOScore>
0.0000

> <Gold.PLP.Chemscore.Metal>
0.0000

> <Gold.Chemscore.Hbonds>
donor molecule, donor type, donor heavy atom, donor atom, acceptor molecule, acceptor atom, score
      L1  H     3    20       P1  8028  1.00
      L1  H    10    25       P1  8028  0.57
      P1  H  7989  7998       L1    19  1.00

> <Gold.PLP.Chemscore.Internal.Correction>
0.0219

> <Gold.Rescore>
     Score         DG    S(hbond)    S(metal)    S(lipo)     H(rot)  DE(clash)    DE(int)     intcor
     18.56     -21.95       2.78        0.00     100.27       1.78       1.95       1.44       ----

> <Gold.Chemscore.Fitness>
18.5552

> <Gold.Chemscore.DG>
-21.9520

> <Gold.Chemscore.ZeroCoef>
-5.4800

> <Gold.Chemscore.Hbond>
2.7823

> <Gold.Chemscore.Metal>
0.0000

> <Gold.Chemscore.Lipo>
100.2708

> <Gold.Chemscore.Internal_Hbond>
0.0000

> <Gold.Chemscore.DEClash>
1.9535

> <Gold.Chemscore.DEInternal>
1.4433

> <Gold.Chemscore.Rot>
1.7783

> <Gold.Chemscore.Internal.Correction>
   9.000000E+99

> <Gold.Chemscore.Hbonds>
donor molecule, donor type, donor heavy atom, donor atom, acceptor molecule, acceptor atom, score
      L1  H     3    20       P1  8028  0.46
      L1  H    10    25       P1  8028  0.51
      P1  H  7989  7998       L1    19  0.90

> <Gold.Chemscore.Hbond.Weighted>
-9.2928

> <Gold.Chemscore.Metal.Weighted>
-0.0000

> <Gold.Chemscore.Lipo.Weighted>
-11.7317

> <Gold.Chemscore.Internal_Hbond.Weighted>
0.0000

> <Gold.Chemscore.DEClash.Weighted>
1.9535

> <Gold.Chemscore.DEInternal.Weighted>
1.4433

> <Gold.Chemscore.Rot.Weighted>
4.5525

> <Gold.Chemscore.Internal.Correction.Weighted>
   9.000000E+99

> <Gold.Protein.RotatedTorsions>
[ 6907 6896 6895 6894 ] final  136.39 input  -60.11 | X-H torsion
[ 7974 7965 7964 7962 ] final  147.16 input  175.53 | X-H torsion
[ 8008 7997 7996 7995 ] final  129.01 input   59.86 | X-H torsion
[ 10167 10162 10161 10158 ] final  161.82 input  -65.29 | X-H torsion
[ 10718 10713 10712 10709 ] final  114.40 input   66.30 | X-H torsion
[ 10763 10752 10751 10750 ] final   28.38 input  -60.55 | X-H torsion
[ 11005 11000 10999 10996 ] final  -21.09 input  -57.11 | X-H torsion

> <Gold.Protein.ActiveResidues>
 VAL166  LYS551  ARG553  GLY616  TRP617  ASP618  TYR619  PRO620  LYS621  CYS622 
 ASP623  PHE694  ASN695  SER759  ASP760  ASP761  ALA762  ILE779  LEU786  VAL792 
 PHE793  MET794  SER795  GLU796  ALA797  LYS798  CYS799  TRP800  GLU811  SER814 

> <Gold.Protein.RotatedAtoms>
  152.2899  133.5551  159.5550 H   0  0  0  0  0  0  0  0  0  0  0  0  # atno 6907 bound_to 6896
  150.7231  134.0443  159.3785 H   0  0  0  0  0  0  0  0  0  0  0  0  # atno 6908 bound_to 6896
  151.8350  135.0609  160.0492 H   0  0  0  0  0  0  0  0  0  0  0  0  # atno 6909 bound_to 6896
  144.8613  139.5994  143.5929 H   0  0  0  0  0  0  0  0  0  0  0  0  # atno 7974 bound_to 7965
  156.2927  140.2631  156.2529 H   0  0  0  0  0  0  0  0  0  0  0  0  # atno 8008 bound_to 7997
  154.9865  140.0389  157.2319 H   0  0  0  0  0  0  0  0  0  0  0  0  # atno 8009 bound_to 7997
  154.7724  140.2780  155.6132 H   0  0  0  0  0  0  0  0  0  0  0  0  # atno 8010 bound_to 7997
  139.4853  144.4498  151.8844 H   0  0  0  0  0  0  0  0  0  0  0  0  # atno 10167 bound_to 10162
  157.6283  131.0998  150.7180 H   0  0  0  0  0  0  0  0  0  0  0  0  # atno 10718 bound_to 10713
  153.0496  135.6514  154.0729 H   0  0  0  0  0  0  0  0  0  0  0  0  # atno 10763 bound_to 10752
  154.0419  135.2903  155.3355 H   0  0  0  0  0  0  0  0  0  0  0  0  # atno 10764 bound_to 10752
  154.6775  135.5332  153.8286 H   0  0  0  0  0  0  0  0  0  0  0  0  # atno 10765 bound_to 10752
  140.8527  133.7845  155.9985 H   0  0  0  0  0  0  0  0  0  0  0  0  # atno 11005 bound_to 11000
  146.2863  139.7013  142.9193 LP  0  0  0  0  0  0  0  0  0  0  0  0  # atno 17320 bound_to 7965
  145.4306  141.0415  143.2913 LP  0  0  0  0  0  0  0  0  0  0  0  0  # atno 17321 bound_to 7965
  140.3955  144.2561  150.5896 LP  0  0  0  0  0  0  0  0  0  0  0  0  # atno 17342 bound_to 10162
  140.5106  143.2291  151.8540 LP  0  0  0  0  0  0  0  0  0  0  0  0  # atno 17343 bound_to 10162
  156.7525  130.4773  149.5454 LP  0  0  0  0  0  0  0  0  0  0  0  0  # atno 17370 bound_to 10713
  156.1469  130.6283  151.0544 LP  0  0  0  0  0  0  0  0  0  0  0  0  # atno 17371 bound_to 10713
  140.8772  134.2656  157.5162 LP  0  0  0  0  0  0  0  0  0  0  0  0  # atno 17394 bound_to 11000
  139.8704  134.9597  156.4339 LP  0  0  0  0  0  0  0  0  0  0  0  0  # atno 17395 bound_to 11000

$$$$
