AV-unprocessed.smi:906|AV-procd|sdf|4103|dock10
  -GOLD-   22720 1593D 1   1.00000     0.00000
 Structure written by MMmdl.
 48 49  0  0  0  0  0  0  0  0  2 V2000
  152.3543  144.7033  158.0977 C   0  0  0  0  0  0  0  0  0  0  0  0
  151.8876  143.2643  158.1585 C   0  0  0  0  0  0  0  0  0  0  0  0
  152.5340  142.2970  158.9576 C   0  0  0  0  0  0  0  0  0  0  0  0
  152.0443  140.9743  158.9692 C   0  0  0  0  0  0  0  0  0  0  0  0
  150.9186  140.6460  158.1827 C   0  0  0  0  0  0  0  0  0  0  0  0
  150.3638  139.2353  158.1756 C   0  0  0  0  0  0  0  0  0  0  0  0
  150.8018  138.4473  156.9301 C   0  0  0  0  0  0  0  0  0  0  0  0
  150.1788  137.1299  156.8823 N   0  0  0  0  0  0  0  0  0  0  0  0
  150.7839  136.0030  156.4690 C   0  0  0  0  0  0  0  0  0  0  0  0
  151.9590  135.9914  156.0994 O   0  0  0  0  0  0  0  0  0  0  0  0
  150.0123  134.8892  156.5283 N   0  0  0  0  0  0  0  0  0  0  0  0
  148.5781  134.8252  156.8441 C   0  0  0  0  0  0  0  0  0  0  0  0
  147.8049  134.4673  155.5604 C   0  0  0  0  0  0  0  0  0  0  0  0
  148.2730  133.1816  155.0278 N   0  0  0  0  0  0  0  0  0  0  0  0
  147.4453  132.7252  153.8980 C   0  0  1  0  0  0  0  0  0  0  0  0
  147.7645  133.4338  152.5632 C   0  0  0  0  0  0  0  0  0  0  0  0
  147.4524  131.1839  153.7618 C   0  0  0  0  0  0  0  0  0  0  0  0
  147.0156  130.6181  154.8876 F   0  0  0  0  0  0  0  0  0  0  0  0
  146.6271  130.8309  152.7765 F   0  0  0  0  0  0  0  0  0  0  0  0
  148.6646  130.7072  153.4786 F   0  0  0  0  0  0  0  0  0  0  0  0
  149.7190  133.2161  154.7678 C   0  0  0  0  0  0  0  0  0  0  0  0
  150.4778  133.5818  156.0579 C   0  0  0  0  0  0  0  0  0  0  0  0
  150.3119  141.6552  157.4045 C   0  0  0  0  0  0  0  0  0  0  0  0
  150.8112  142.9103  157.4207 N   0  3  0  0  0  0  0  0  0  0  0  0
  153.3996  144.7854  158.3967 H   0  0  0  0  0  0  0  0  0  0  0  0
  151.7562  145.3226  158.7667 H   0  0  0  0  0  0  0  0  0  0  0  0
  152.2604  145.0984  157.0857 H   0  0  0  0  0  0  0  0  0  0  0  0
  153.3941  142.5627  159.5550 H   0  0  0  0  0  0  0  0  0  0  0  0
  152.5275  140.2230  159.5770 H   0  0  0  0  0  0  0  0  0  0  0  0
  150.6936  138.7264  159.0824 H   0  0  0  0  0  0  0  0  0  0  0  0
  149.2750  139.2787  158.2277 H   0  0  0  0  0  0  0  0  0  0  0  0
  150.5194  138.9895  156.0272 H   0  0  0  0  0  0  0  0  0  0  0  0
  151.8882  138.3451  156.9034 H   0  0  0  0  0  0  0  0  0  0  0  0
  149.2167  137.0666  157.1821 H   0  0  0  0  0  0  0  0  0  0  0  0
  148.4117  134.0626  157.6069 H   0  0  0  0  0  0  0  0  0  0  0  0
  148.1763  135.7470  157.2636 H   0  0  0  0  0  0  0  0  0  0  0  0
  146.7401  134.4065  155.7874 H   0  0  0  0  0  0  0  0  0  0  0  0
  147.9323  135.2581  154.8207 H   0  0  0  0  0  0  0  0  0  0  0  0
  146.4183  132.9850  154.1584 H   0  0  0  0  0  0  0  0  0  0  0  0
  147.0480  133.1416  151.7955 H   0  0  0  0  0  0  0  0  0  0  0  0
  148.7550  133.1744  152.1896 H   0  0  0  0  0  0  0  0  0  0  0  0
  147.7107  134.5183  152.6495 H   0  0  0  0  0  0  0  0  0  0  0  0
  150.0696  132.2462  154.4210 H   0  0  0  0  0  0  0  0  0  0  0  0
  149.9508  133.9429  153.9885 H   0  0  0  0  0  0  0  0  0  0  0  0
  151.5522  133.5605  155.8709 H   0  0  0  0  0  0  0  0  0  0  0  0
  150.2976  132.8312  156.8292 H   0  0  0  0  0  0  0  0  0  0  0  0
  149.4473  141.4981  156.7757 H   0  0  0  0  0  0  0  0  0  0  0  0
  150.3553  143.6230  156.8505 H   0  0  0  0  0  0  0  0  0  0  0  0
  1  2  1  0  0  0  0
  1 25  1  0  0  0  0
  1 26  1  0  0  0  0
  1 27  1  0  0  0  0
  2 24  1  0  0  0  0
  2  3  2  0  0  0  0
  3  4  1  0  0  0  0
  3 28  1  0  0  0  0
  4  5  2  0  0  0  0
  4 29  1  0  0  0  0
  5  6  1  0  0  0  0
  5 23  1  0  0  0  0
  6  7  1  0  0  0  0
  6 30  1  0  0  0  0
  6 31  1  0  0  0  0
  7  8  1  0  0  0  0
  7 32  1  0  0  0  0
  7 33  1  0  0  0  0
  8  9  1  0  0  0  0
  8 34  1  0  0  0  0
  9 10  2  0  0  0  0
  9 11  1  0  0  0  0
 11 22  1  0  0  0  0
 11 12  1  0  0  0  0
 12 13  1  0  0  0  0
 12 35  1  0  0  0  0
 12 36  1  0  0  0  0
 13 14  1  0  0  0  0
 13 37  1  0  0  0  0
 13 38  1  0  0  0  0
 14 15  1  0  0  0  0
 14 21  1  0  0  0  0
 15 16  1  0  0  0  0
 15 17  1  0  0  0  0
 15 39  1  0  0  0  0
 16 40  1  0  0  0  0
 16 41  1  0  0  0  0
 16 42  1  0  0  0  0
 17 18  1  0  0  0  0
 17 19  1  0  0  0  0
 17 20  1  0  0  0  0
 21 22  1  0  0  0  0
 21 43  1  0  0  0  0
 21 44  1  0  0  0  0
 22 45  1  0  0  0  0
 22 46  1  0  0  0  0
 23 24  2  0  0  0  0
 23 47  1  0  0  0  0
 24 48  1  0  0  0  0
M  CHG  1  24   1
M  END
> <s_m_source_file>
AV-unprocessed.smi

> <i_m_source_file_index>
906

> <i_lp_mmshare_version>
43012

> <i_f3d_flags>
0

> <s_epik_input>
W0NIM11jMVtjSF1bY0hdYyhbY0hdbjEpW0NIMl1bQ0gyXVtOSF1DKD1PKU4yW0NIMl1bQ0gyXU4oW0NASF0oW0NIM10pQyhGKShGKUYpW0NIMl1bQ0gyXTI=

> <s_epik_cmdline>
J2VwaWtfcHl0aG9uJywgJy1waCcsICc3LjAnLCAnLXRuJywgJzgnLCAnLW1hJywgJzIwMCcsICctbWV0YWxfYmluZGluZycsICctaW1hZScsICc8aW5maWxlLm1hZT4nLCAnLW9tYWUnLCAnPG91dGZpbGUubWFlPic=

> <r_epik_Ionization_Penalty>
1.4413

> <r_epik_Ionization_Penalty_Charging>
1.42075

> <r_epik_Ionization_Penalty_Neutral>
0.0205507

> <r_epik_State_Penalty>
1.52216

> <r_epik_Charging_Adjusted_Penalty>
2.94291

> <i_epik_Tot_Q>
1

> <i_epik_Tot_abs_Q>
1

> <r_epik_Metal_State_Penalty>
1.57308

> <b_epik_Metal_Only>
0

> <s_lp_Force_Field>
OPLS_2005

> <r_lp_Energy>
53.1846

> <b_lp_Chiralities_Consistent>
1

> <s_lp_Variant>
AV-unprocessed.smi:906-4

> <Gold.Version>
5.8.1

> <Gold.Id.Protein>
6NUR|6NUR_protein|mol2

> <Gold.PLP.Fitness>
43.3912

> <Gold.PLP.PLP>
-35.4070

> <Gold.PLP.part.hbond>
-2.0000

> <Gold.PLP.part.metal>
0.0000

> <Gold.PLP.part.buried>
-4.7959

> <Gold.PLP.part.nonpolar>
-28.5632

> <Gold.PLP.part.repulsive>
0.0729

> <Gold.PLP.ligand.clash>
0.0000

> <Gold.PLP.ligand.torsion>
0.8309

> <Gold.PLP.Chemscore.Hbond>
3.0000

> <Gold.PLP.Chemscore.CHOScore>
0.0000

> <Gold.PLP.Chemscore.Metal>
0.0000

> <Gold.Chemscore.Hbonds>
donor molecule, donor type, donor heavy atom, donor atom, acceptor molecule, acceptor atom, score
      L1  H    24    48       P1  8028  1.27
      P1  H 10752 10765       L1    10  1.00

> <Gold.PLP.Chemscore.Internal.Correction>
0.6460

> <Gold.Rescore>
     Score         DG    S(hbond)    S(metal)    S(lipo)     H(rot)  DE(clash)    DE(int)     intcor
     17.10     -18.34       1.98        0.00      89.56       1.66       0.16       1.08       ----

> <Gold.Chemscore.Fitness>
17.1049

> <Gold.Chemscore.DG>
-18.3423

> <Gold.Chemscore.ZeroCoef>
-5.4800

> <Gold.Chemscore.Hbond>
1.9824

> <Gold.Chemscore.Metal>
0.0000

> <Gold.Chemscore.Lipo>
89.5622

> <Gold.Chemscore.Internal_Hbond>
0.0000

> <Gold.Chemscore.DEClash>
0.1604

> <Gold.Chemscore.DEInternal>
1.0769

> <Gold.Chemscore.Rot>
1.6553

> <Gold.Chemscore.Internal.Correction>
   9.000000E+99

> <Gold.Chemscore.Hbonds>
donor molecule, donor type, donor heavy atom, donor atom, acceptor molecule, acceptor atom, score
      L1  H    24    48       P1  8028  0.65
      P1  H 10752 10765       L1    10  1.00

> <Gold.Chemscore.Hbond.Weighted>
-6.6211

> <Gold.Chemscore.Metal.Weighted>
-0.0000

> <Gold.Chemscore.Lipo.Weighted>
-10.4788

> <Gold.Chemscore.Internal_Hbond.Weighted>
0.0000

> <Gold.Chemscore.DEClash.Weighted>
0.1604

> <Gold.Chemscore.DEInternal.Weighted>
1.0769

> <Gold.Chemscore.Rot.Weighted>
4.2376

> <Gold.Chemscore.Internal.Correction.Weighted>
   9.000000E+99

> <Gold.Protein.RotatedTorsions>
[ 6907 6896 6895 6894 ] final -119.71 input  -60.11 | X-H torsion
[ 7974 7965 7964 7962 ] final  124.09 input  175.53 | X-H torsion
[ 8008 7997 7996 7995 ] final   17.43 input   59.86 | X-H torsion
[ 10167 10162 10161 10158 ] final  174.23 input  -65.29 | X-H torsion
[ 10718 10713 10712 10709 ] final -176.25 input   66.30 | X-H torsion
[ 10763 10752 10751 10750 ] final -160.69 input  -60.55 | X-H torsion
[ 11005 11000 10999 10996 ] final   59.04 input  -57.11 | X-H torsion

> <Gold.Protein.ActiveResidues>
 VAL166  LYS551  ARG553  GLY616  TRP617  ASP618  TYR619  PRO620  LYS621  CYS622 
 ASP623  PHE694  ASN695  SER759  ASP760  ASP761  ALA762  ILE779  LEU786  VAL792 
 PHE793  MET794  SER795  GLU796  ALA797  LYS798  CYS799  TRP800  GLU811  SER814 

> <Gold.Protein.RotatedAtoms>
  150.8329  133.8062  159.3091 H   0  0  0  0  0  0  0  0  0  0  0  0  # atno 6907 bound_to 6896
  151.5786  135.1058  160.0021 H   0  0  0  0  0  0  0  0  0  0  0  0  # atno 6908 bound_to 6896
  152.4405  133.7398  159.6691 H   0  0  0  0  0  0  0  0  0  0  0  0  # atno 6909 bound_to 6896
  145.0884  139.3605  143.4873 H   0  0  0  0  0  0  0  0  0  0  0  0  # atno 7974 bound_to 7965
  154.8913  140.2987  155.5369 H   0  0  0  0  0  0  0  0  0  0  0  0  # atno 8008 bound_to 7997
  156.3021  140.2424  156.3863 H   0  0  0  0  0  0  0  0  0  0  0  0  # atno 8009 bound_to 7997
  154.8616  140.0405  157.1657 H   0  0  0  0  0  0  0  0  0  0  0  0  # atno 8010 bound_to 7997
  139.5135  144.3170  152.0238 H   0  0  0  0  0  0  0  0  0  0  0  0  # atno 10167 bound_to 10162
  156.8119  130.9589  151.3115 H   0  0  0  0  0  0  0  0  0  0  0  0  # atno 10718 bound_to 10713
  154.7368  135.3059  154.8797 H   0  0  0  0  0  0  0  0  0  0  0  0  # atno 10763 bound_to 10752
  153.9624  135.6751  153.4749 H   0  0  0  0  0  0  0  0  0  0  0  0  # atno 10764 bound_to 10752
  153.0970  135.4930  154.8720 H   0  0  0  0  0  0  0  0  0  0  0  0  # atno 10765 bound_to 10752
  140.0333  134.5980  155.9477 H   0  0  0  0  0  0  0  0  0  0  0  0  # atno 11005 bound_to 11000
  146.3531  140.0707  142.8623 LP  0  0  0  0  0  0  0  0  0  0  0  0  # atno 17320 bound_to 7965
  145.1095  140.9396  143.4665 LP  0  0  0  0  0  0  0  0  0  0  0  0  # atno 17321 bound_to 7965
  140.2613  144.4064  150.6184 LP  0  0  0  0  0  0  0  0  0  0  0  0  # atno 17342 bound_to 10162
  140.6155  143.2172  151.6800 LP  0  0  0  0  0  0  0  0  0  0  0  0  # atno 17343 bound_to 10162
  157.6502  130.8877  149.9617 LP  0  0  0  0  0  0  0  0  0  0  0  0  # atno 17370 bound_to 10713
  156.1040  130.3654  150.0167 LP  0  0  0  0  0  0  0  0  0  0  0  0  # atno 17371 bound_to 10713
  141.1843  133.6552  156.5153 LP  0  0  0  0  0  0  0  0  0  0  0  0  # atno 17394 bound_to 11000
  140.4189  134.7205  157.4878 LP  0  0  0  0  0  0  0  0  0  0  0  0  # atno 17395 bound_to 11000

$$$$
