AV-unprocessed.smi:67|AV-procd|sdf|637|dock6
  -GOLD-   2262016533D 1   1.00000     0.00000
 Structure written by MMmdl.
 48 50  0  0  0  0  0  0  0  0  2 V2000
  145.5953  139.1367  153.8346 O   0  0  0  0  0  0  0  0  0  0  0  0
  146.4644  138.3278  153.0620 C   0  0  1  0  0  0  0  0  0  0  0  0
  147.7251  138.0045  153.9096 C   0  0  0  0  0  0  0  0  0  0  0  0
  148.6690  139.1430  154.1028 N   0  3  2  0  0  0  0  0  0  0  0  0
  150.0004  138.6676  154.5654 C   0  0  0  0  0  0  0  0  0  0  0  0
  151.0212  139.8142  154.6462 C   0  0  0  0  0  0  0  0  0  0  0  0
  150.5224  140.9452  155.5644 C   0  0  2  0  0  0  0  0  0  0  0  0
  150.3772  140.4972  156.9106 O   0  0  0  0  0  0  0  0  0  0  0  0
  151.1680  141.0310  157.9071 C   0  0  0  0  0  0  0  0  0  0  0  0
  152.2092  140.3362  158.5723 C   0  0  0  0  0  0  0  0  0  0  0  0
  152.9640  140.9756  159.5740 C   0  0  0  0  0  0  0  0  0  0  0  0
  152.6905  142.3104  159.9242 C   0  0  0  0  0  0  0  0  0  0  0  0
  151.6559  143.0153  159.2750 C   0  0  0  0  0  0  0  0  0  0  0  0
  151.3633  144.4625  159.6424 C   0  0  0  0  0  0  0  0  0  0  0  0
  151.8434  144.7542  160.8520 F   0  0  0  0  0  0  0  0  0  0  0  0
  151.9177  145.2967  158.7620 F   0  0  0  0  0  0  0  0  0  0  0  0
  150.0450  144.6552  159.6457 F   0  0  0  0  0  0  0  0  0  0  0  0
  150.9082  142.3695  158.2668 C   0  0  0  0  0  0  0  0  0  0  0  0
  149.1412  141.4040  155.0776 C   0  0  0  0  0  0  0  0  0  0  0  0
  148.1475  140.2333  154.9707 C   0  0  0  0  0  0  0  0  0  0  0  0
  145.7360  137.0861  152.4992 C   0  0  0  0  0  0  0  0  0  0  0  0
  145.6575  137.3082  150.9895 C   0  0  0  0  0  0  0  0  0  0  0  0
  146.7710  138.1880  150.6905 N   0  0  0  0  0  0  0  0  0  0  0  0
  146.8325  139.1297  151.7946 C   0  0  0  0  0  0  0  0  0  0  0  0
  145.0902  139.6817  153.2506 H   0  0  0  0  0  0  0  0  0  0  0  0
  147.4486  137.5761  154.8742 H   0  0  0  0  0  0  0  0  0  0  0  0
  148.2723  137.2190  153.3863 H   0  0  0  0  0  0  0  0  0  0  0  0
  149.8968  138.1877  155.5399 H   0  0  0  0  0  0  0  0  0  0  0  0
  150.3808  137.9089  153.8803 H   0  0  0  0  0  0  0  0  0  0  0  0
  151.9807  139.4266  154.9873 H   0  0  0  0  0  0  0  0  0  0  0  0
  151.1960  140.2119  153.6457 H   0  0  0  0  0  0  0  0  0  0  0  0
  151.1890  141.8066  155.5183 H   0  0  0  0  0  0  0  0  0  0  0  0
  152.4527  139.3127  158.3349 H   0  0  0  0  0  0  0  0  0  0  0  0
  153.7574  140.4403  160.0748 H   0  0  0  0  0  0  0  0  0  0  0  0
  153.2801  142.7911  160.6911 H   0  0  0  0  0  0  0  0  0  0  0  0
  150.1208  142.9053  157.7573 H   0  0  0  0  0  0  0  0  0  0  0  0
  148.7452  142.1674  155.7481 H   0  0  0  0  0  0  0  0  0  0  0  0
  149.2423  141.8790  154.1007 H   0  0  0  0  0  0  0  0  0  0  0  0
  147.2228  140.6315  154.5604 H   0  0  0  0  0  0  0  0  0  0  0  0
  147.9174  139.8372  155.9609 H   0  0  0  0  0  0  0  0  0  0  0  0
  146.3206  136.1831  152.6769 H   0  0  0  0  0  0  0  0  0  0  0  0
  144.7491  136.9293  152.9369 H   0  0  0  0  0  0  0  0  0  0  0  0
  145.7081  136.3775  150.4237 H   0  0  0  0  0  0  0  0  0  0  0  0
  144.7181  137.8026  150.7385 H   0  0  0  0  0  0  0  0  0  0  0  0
  146.6207  138.6727  149.8109 H   0  0  0  0  0  0  0  0  0  0  0  0
  146.0999  139.9202  151.6219 H   0  0  0  0  0  0  0  0  0  0  0  0
  147.8087  139.6119  151.8545 H   0  0  0  0  0  0  0  0  0  0  0  0
  148.8141  139.5458  153.1877 H   0  0  0  0  0  0  0  0  0  0  0  0
  1  2  1  0  0  0  0
  1 25  1  0  0  0  0
  2 24  1  0  0  0  0
  2  3  1  0  0  0  0
  2 21  1  0  0  0  0
  3  4  1  0  0  0  0
  3 26  1  0  0  0  0
  3 27  1  0  0  0  0
  4 20  1  0  0  0  0
  4  5  1  0  0  0  0
  4 48  1  0  0  0  0
  5  6  1  0  0  0  0
  5 28  1  0  0  0  0
  5 29  1  0  0  0  0
  6  7  1  0  0  0  0
  6 30  1  0  0  0  0
  6 31  1  0  0  0  0
  7  8  1  0  0  0  0
  7 19  1  0  0  0  0
  7 32  1  0  0  0  0
  8  9  1  0  0  0  0
  9 18  1  0  0  0  0
  9 10  2  0  0  0  0
 10 11  1  0  0  0  0
 10 33  1  0  0  0  0
 11 12  2  0  0  0  0
 11 34  1  0  0  0  0
 12 13  1  0  0  0  0
 12 35  1  0  0  0  0
 13 14  1  0  0  0  0
 13 18  2  0  0  0  0
 14 15  1  0  0  0  0
 14 16  1  0  0  0  0
 14 17  1  0  0  0  0
 18 36  1  0  0  0  0
 19 20  1  0  0  0  0
 19 37  1  0  0  0  0
 19 38  1  0  0  0  0
 20 39  1  0  0  0  0
 20 40  1  0  0  0  0
 21 22  1  0  0  0  0
 21 41  1  0  0  0  0
 21 42  1  0  0  0  0
 22 23  1  0  0  0  0
 22 43  1  0  0  0  0
 22 44  1  0  0  0  0
 23 24  1  0  0  0  0
 23 45  1  0  0  0  0
 24 46  1  0  0  0  0
 24 47  1  0  0  0  0
M  CHG  1   4   1
M  END
> <s_m_source_file>
AV-unprocessed.smi

> <i_m_source_file_index>
67

> <i_lp_mmshare_version>
43012

> <i_f3d_flags>
0

> <s_epik_input>
W0NIMl0xW05IXVtDSDJdW0NIMl1bQ0BAXTEoW09IXSlbQ0gyXU4yW0NIMl1bQ0gyXVtDSF0oW0NIMl1bQ0gyXTIpT2MzW2NIXVtjSF1bY0hdYyhDKEYpKEYpRilbY0hdMw==

> <s_epik_cmdline>
J2VwaWtfcHl0aG9uJywgJy1waCcsICc3LjAnLCAnLXRuJywgJzgnLCAnLW1hJywgJzIwMCcsICctbWV0YWxfYmluZGluZycsICctaW1hZScsICc8aW5maWxlLm1hZT4nLCAnLW9tYWUnLCAnPG91dGZpbGUubWFlPic=

> <r_epik_Ionization_Penalty>
2.37709

> <r_epik_Ionization_Penalty_Charging>
0.0305656

> <r_epik_Ionization_Penalty_Neutral>
2.34653

> <r_epik_State_Penalty>
2.56959

> <r_epik_Charging_Adjusted_Penalty>
2.60016

> <i_epik_Tot_Q>
1

> <i_epik_Tot_abs_Q>
1

> <r_epik_Metal_State_Penalty>
2.56925

> <b_epik_Metal_Only>
0

> <s_lp_Force_Field>
OPLS_2005

> <r_lp_Energy>
51.6978

> <b_lp_Chiralities_Consistent>
1

> <s_lp_Variant>
AV-unprocessed.smi:67-9

> <Gold.Version>
5.8.1

> <Gold.Id.Protein>
6NUR|6NUR_protein|mol2

> <Gold.PLP.Fitness>
53.4606

> <Gold.PLP.PLP>
-51.2382

> <Gold.PLP.part.hbond>
-4.0982

> <Gold.PLP.part.metal>
0.0000

> <Gold.PLP.part.buried>
2.8943

> <Gold.PLP.part.nonpolar>
-50.0759

> <Gold.PLP.part.repulsive>
0.0445

> <Gold.PLP.ligand.clash>
0.0794

> <Gold.PLP.ligand.torsion>
1.9545

> <Gold.PLP.Chemscore.Hbond>
1.4875

> <Gold.PLP.Chemscore.CHOScore>
0.0000

> <Gold.PLP.Chemscore.Metal>
0.0000

> <Gold.Chemscore.Hbonds>
donor molecule, donor type, donor heavy atom, donor atom, acceptor molecule, acceptor atom, score
      L1  H     1    25       P1 10175  1.00
      L1  H     4    48       P1  7957  0.50

> <Gold.PLP.Chemscore.Internal.Correction>
1.7482

> <Gold.Rescore>
     Score         DG    S(hbond)    S(metal)    S(lipo)     H(rot)  DE(clash)    DE(int)     intcor
     14.56     -17.01       0.98        0.00     118.01       2.17       0.34       2.11       ----

> <Gold.Chemscore.Fitness>
14.5598

> <Gold.Chemscore.DG>
-17.0071

> <Gold.Chemscore.ZeroCoef>
-5.4800

> <Gold.Chemscore.Hbond>
0.9831

> <Gold.Chemscore.Metal>
0.0000

> <Gold.Chemscore.Lipo>
118.0129

> <Gold.Chemscore.Internal_Hbond>
0.0000

> <Gold.Chemscore.DEClash>
0.3378

> <Gold.Chemscore.DEInternal>
2.1096

> <Gold.Chemscore.Rot>
2.1734

> <Gold.Chemscore.Internal.Correction>
   9.000000E+99

> <Gold.Chemscore.Hbonds>
donor molecule, donor type, donor heavy atom, donor atom, acceptor molecule, acceptor atom, score
      L1  H     1    25       P1 10175  1.00
      L1  H     4    48       P1  7957  0.50

> <Gold.Chemscore.Hbond.Weighted>
-3.2836

> <Gold.Chemscore.Metal.Weighted>
-0.0000

> <Gold.Chemscore.Lipo.Weighted>
-13.8075

> <Gold.Chemscore.Internal_Hbond.Weighted>
0.0000

> <Gold.Chemscore.DEClash.Weighted>
0.3378

> <Gold.Chemscore.DEInternal.Weighted>
2.1096

> <Gold.Chemscore.Rot.Weighted>
5.5640

> <Gold.Chemscore.Internal.Correction.Weighted>
   9.000000E+99

> <Gold.Protein.RotatedTorsions>
[ 6907 6896 6895 6894 ] final -102.42 input  -60.11 | X-H torsion
[ 7974 7965 7964 7962 ] final  172.69 input  175.53 | X-H torsion
[ 8008 7997 7996 7995 ] final  -26.94 input   59.86 | X-H torsion
[ 10167 10162 10161 10158 ] final  151.04 input  -65.29 | X-H torsion
[ 10718 10713 10712 10709 ] final -149.01 input   66.30 | X-H torsion
[ 10763 10752 10751 10750 ] final  146.13 input  -60.55 | X-H torsion
[ 11005 11000 10999 10996 ] final   85.97 input  -57.11 | X-H torsion

> <Gold.Protein.ActiveResidues>
 VAL166  LYS551  ARG553  GLY616  TRP617  ASP618  TYR619  PRO620  LYS621  CYS622 
 ASP623  PHE694  ASN695  SER759  ASP760  ASP761  ALA762  ILE779  LEU786  VAL792 
 PHE793  MET794  SER795  GLU796  ALA797  LYS798  CYS799  TRP800  GLU811  SER814 

> <Gold.Protein.RotatedAtoms>
  150.7195  134.0584  159.3822 H   0  0  0  0  0  0  0  0  0  0  0  0  # atno 6907 bound_to 6896
  151.8563  135.0538  160.0474 H   0  0  0  0  0  0  0  0  0  0  0  0  # atno 6908 bound_to 6896
  152.2751  133.5383  159.5500 H   0  0  0  0  0  0  0  0  0  0  0  0  # atno 6909 bound_to 6896
  144.7262  139.9537  143.6433 H   0  0  0  0  0  0  0  0  0  0  0  0  # atno 7974 bound_to 7965
  154.4401  140.1886  156.0853 H   0  0  0  0  0  0  0  0  0  0  0  0  # atno 8008 bound_to 7997
  156.0407  140.3320  155.7214 H   0  0  0  0  0  0  0  0  0  0  0  0  # atno 8009 bound_to 7997
  155.5703  140.0612  157.2799 H   0  0  0  0  0  0  0  0  0  0  0  0  # atno 8010 bound_to 7997
  139.4844  144.5473  151.7462 H   0  0  0  0  0  0  0  0  0  0  0  0  # atno 10167 bound_to 10162
  156.4276  130.8059  151.2285 H   0  0  0  0  0  0  0  0  0  0  0  0  # atno 10718 bound_to 10713
  154.0167  135.2909  155.3386 H   0  0  0  0  0  0  0  0  0  0  0  0  # atno 10763 bound_to 10752
  154.7070  135.5165  153.8613 H   0  0  0  0  0  0  0  0  0  0  0  0  # atno 10764 bound_to 10752
  153.0699  135.6644  154.0393 H   0  0  0  0  0  0  0  0  0  0  0  0  # atno 10765 bound_to 10752
  139.8957  134.8323  156.2656 H   0  0  0  0  0  0  0  0  0  0  0  0  # atno 11005 bound_to 11000
  146.0692  139.3681  143.0534 LP  0  0  0  0  0  0  0  0  0  0  0  0  # atno 17320 bound_to 7965
  145.7991  140.9779  143.1008 LP  0  0  0  0  0  0  0  0  0  0  0  0  # atno 17321 bound_to 7965
  140.5021  144.1152  150.5973 LP  0  0  0  0  0  0  0  0  0  0  0  0  # atno 17342 bound_to 10162
  140.4049  143.2685  151.9903 LP  0  0  0  0  0  0  0  0  0  0  0  0  # atno 17343 bound_to 10162
  157.7508  131.0208  150.3726 LP  0  0  0  0  0  0  0  0  0  0  0  0  # atno 17370 bound_to 10713
  156.4056  130.3924  149.6928 LP  0  0  0  0  0  0  0  0  0  0  0  0  # atno 17371 bound_to 10713
  141.0134  133.7082  156.1149 LP  0  0  0  0  0  0  0  0  0  0  0  0  # atno 17394 bound_to 11000
  140.7335  134.4228  157.5563 LP  0  0  0  0  0  0  0  0  0  0  0  0  # atno 17395 bound_to 11000

$$$$
