AV-unprocessed.smi:1656|AV-procd|sdf|6646|dock3
  -GOLD-   22720 7353D 1   1.00000     0.00000
 Structure written by MMmdl.
 49 52  0  0  0  0  0  0  0  0  1 V2000
  147.0803  140.2389  155.7754 C   0  0  0  0  0  0  0  0  0  0  0  0
  148.3024  139.3609  155.7526 C   0  0  0  0  0  0  0  0  0  0  0  0
  148.1430  138.1334  156.1246 N   0  0  0  0  0  0  0  0  0  0  0  0
  149.1984  137.2418  156.1338 N   0  0  0  0  0  0  0  0  0  0  0  0
  148.8309  135.8790  156.5462 C   0  0  0  0  0  0  0  0  0  0  0  0
  148.6901  135.7315  158.0681 C   0  0  0  0  0  0  0  0  0  0  0  0
  149.6908  135.6227  158.7776 O   0  0  0  0  0  0  0  0  0  0  0  0
  147.4318  135.7156  158.5408 N   0  0  0  0  0  0  0  0  0  0  0  0
  146.9870  135.6109  159.9346 C   0  0  0  0  0  0  0  0  0  0  0  0
  147.1602  134.1684  160.4846 C   0  0  0  0  0  0  0  0  0  0  0  0
  146.6238  134.0907  161.9306 C   0  0  1  0  0  0  0  0  0  0  0  0
  147.4034  135.0795  162.8247 C   0  0  0  0  0  0  0  0  0  0  0  0
  147.2094  136.5163  162.2927 C   0  0  2  0  0  0  0  0  0  0  0  0
  145.7095  136.8767  162.3098 C   0  0  0  0  0  0  0  0  0  0  0  0
  144.9394  135.8854  161.4130 C   0  0  2  0  0  0  0  0  0  0  0  0
  145.1234  134.4501  161.9475 C   0  0  0  0  0  0  0  0  0  0  0  0
  145.4793  135.9700  159.9696 C   0  0  0  0  0  0  0  0  0  0  0  0
  147.7496  136.6088  160.8492 C   0  0  0  0  0  0  0  0  0  0  0  0
  150.4802  137.5518  155.7836 C   0  0  0  0  0  0  0  0  0  0  0  0
  151.3945  136.7266  155.8188 O   0  0  0  0  0  0  0  0  0  0  0  0
  150.6532  138.9439  155.3632 C   0  0  0  0  0  0  0  0  0  0  0  0
  151.9781  139.3070  154.9756 C   0  0  0  0  0  0  0  0  0  0  0  0
  153.0560  139.6086  154.6800 N   0  0  0  0  0  0  0  0  0  0  0  0
  149.6227  139.8260  155.3399 C   0  0  0  0  0  0  0  0  0  0  0  0
  149.7493  141.2805  154.9083 C   0  0  0  0  0  0  0  0  0  0  0  0
  147.2027  141.0531  156.4898 H   0  0  0  0  0  0  0  0  0  0  0  0
  146.1851  139.6832  156.0587 H   0  0  0  0  0  0  0  0  0  0  0  0
  146.8976  140.6742  154.7928 H   0  0  0  0  0  0  0  0  0  0  0  0
  147.9016  135.5814  156.0565 H   0  0  0  0  0  0  0  0  0  0  0  0
  149.5824  135.1641  156.2068 H   0  0  0  0  0  0  0  0  0  0  0  0
  146.6938  135.8071  157.8579 H   0  0  0  0  0  0  0  0  0  0  0  0
  146.6322  133.4542  159.8513 H   0  0  0  0  0  0  0  0  0  0  0  0
  148.2077  133.8668  160.4769 H   0  0  0  0  0  0  0  0  0  0  0  0
  146.7569  133.0775  162.3107 H   0  0  0  0  0  0  0  0  0  0  0  0
  147.0572  135.0095  163.8567 H   0  0  0  0  0  0  0  0  0  0  0  0
  148.4632  134.8219  162.8373 H   0  0  0  0  0  0  0  0  0  0  0  0
  147.7559  137.2145  162.9274 H   0  0  0  0  0  0  0  0  0  0  0  0
  145.3236  136.8429  163.3295 H   0  0  0  0  0  0  0  0  0  0  0  0
  145.5620  137.8986  161.9580 H   0  0  0  0  0  0  0  0  0  0  0  0
  143.8793  136.1407  161.4188 H   0  0  0  0  0  0  0  0  0  0  0  0
  144.5582  133.7442  161.3378 H   0  0  0  0  0  0  0  0  0  0  0  0
  144.7265  134.3700  162.9603 H   0  0  0  0  0  0  0  0  0  0  0  0
  145.3197  136.9747  159.5750 H   0  0  0  0  0  0  0  0  0  0  0  0
  144.9139  135.2956  159.3247 H   0  0  0  0  0  0  0  0  0  0  0  0
  148.8193  136.3993  160.8543 H   0  0  0  0  0  0  0  0  0  0  0  0
  147.6403  137.6274  160.4739 H   0  0  0  0  0  0  0  0  0  0  0  0
  150.7773  141.5535  154.6724 H   0  0  0  0  0  0  0  0  0  0  0  0
  149.4088  141.9486  155.6999 H   0  0  0  0  0  0  0  0  0  0  0  0
  149.1473  141.4666  154.0183 H   0  0  0  0  0  0  0  0  0  0  0  0
  1  2  1  0  0  0  0
  1 26  1  0  0  0  0
  1 27  1  0  0  0  0
  1 28  1  0  0  0  0
  2 24  1  0  0  0  0
  2  3  2  0  0  0  0
  3  4  1  0  0  0  0
  4  5  1  0  0  0  0
  4 19  1  0  0  0  0
  5  6  1  0  0  0  0
  5 29  1  0  0  0  0
  5 30  1  0  0  0  0
  6  7  2  0  0  0  0
  6  8  1  0  0  0  0
  8  9  1  0  0  0  0
  8 31  1  0  0  0  0
  9 17  1  0  0  0  0
  9 18  1  0  0  0  0
  9 10  1  0  0  0  0
 10 11  1  0  0  0  0
 10 32  1  0  0  0  0
 10 33  1  0  0  0  0
 11 16  1  0  0  0  0
 11 12  1  0  0  0  0
 11 34  1  0  0  0  0
 12 13  1  0  0  0  0
 12 35  1  0  0  0  0
 12 36  1  0  0  0  0
 13 14  1  0  0  0  0
 13 18  1  0  0  0  0
 13 37  1  0  0  0  0
 14 15  1  0  0  0  0
 14 38  1  0  0  0  0
 14 39  1  0  0  0  0
 15 16  1  0  0  0  0
 15 17  1  0  0  0  0
 15 40  1  0  0  0  0
 16 41  1  0  0  0  0
 16 42  1  0  0  0  0
 17 43  1  0  0  0  0
 17 44  1  0  0  0  0
 18 45  1  0  0  0  0
 18 46  1  0  0  0  0
 19 20  2  0  0  0  0
 19 21  1  0  0  0  0
 21 22  1  0  0  0  0
 21 24  2  0  0  0  0
 22 23  3  0  0  0  0
 24 25  1  0  0  0  0
 25 47  1  0  0  0  0
 25 48  1  0  0  0  0
 25 49  1  0  0  0  0
M  END
> <s_m_source_file>
AV-unprocessed.smi

> <i_m_source_file_index>
1656

> <i_lp_mmshare_version>
43012

> <i_f3d_flags>
0

> <s_epik_input>
TiNDYyhjMVtDSDNdKWMoPU8pbihuYzFbQ0gzXSlbQ0gyXUMoPU8pW05IXUMyM1tDSDJdW0NASF00W0NIMl1bQ0BASF0oW0NIMl0zKVtDSDJdW0NASF0oW0NIMl00KVtDSDJdMg==

> <s_epik_cmdline>
J2VwaWtfcHl0aG9uJywgJy1waCcsICc3LjAnLCAnLXRuJywgJzgnLCAnLW1hJywgJzIwMCcsICctbWV0YWxfYmluZGluZycsICctaW1hZScsICc8aW5maWxlLm1hZT4nLCAnLW9tYWUnLCAnPG91dGZpbGUubWFlPic=

> <r_lp_tautomer_probability>
1

> <r_epik_Ionization_Penalty>
2.33831e-08

> <r_epik_Ionization_Penalty_Charging>
2.51001e-11

> <r_epik_Ionization_Penalty_Neutral>
2.3358e-08

> <r_epik_State_Penalty>
-0

> <r_epik_Charging_Adjusted_Penalty>
2.51001e-11

> <i_epik_Tot_Q>
0

> <i_epik_Tot_abs_Q>
0

> <r_epik_Metal_State_Penalty>
-0

> <b_epik_Metal_Only>
0

> <s_lp_Force_Field>
OPLS_2005

> <r_lp_Energy>
45.1543

> <b_lp_Chiralities_Consistent>
1

> <s_lp_Variant>
AV-unprocessed.smi:1656-1

> <Gold.Version>
5.8.1

> <Gold.Id.Protein>
6NUR|6NUR_protein|mol2

> <Gold.PLP.Fitness>
42.9428

> <Gold.PLP.PLP>
-36.1976

> <Gold.PLP.part.hbond>
-3.4836

> <Gold.PLP.part.metal>
0.0000

> <Gold.PLP.part.buried>
-2.7975

> <Gold.PLP.part.nonpolar>
-29.5774

> <Gold.PLP.part.repulsive>
0.1052

> <Gold.PLP.ligand.clash>
0.0000

> <Gold.PLP.ligand.torsion>
0.7285

> <Gold.PLP.Chemscore.Hbond>
2.7313

> <Gold.PLP.Chemscore.CHOScore>
0.0000

> <Gold.PLP.Chemscore.Metal>
0.0000

> <Gold.Chemscore.Hbonds>
donor molecule, donor type, donor heavy atom, donor atom, acceptor molecule, acceptor atom, score
      P1  H  6896  6908       L1     7  1.00
      P1  H  7997  8010       L1    23  1.00
      P1  H 10752 10765       L1    20  0.50

> <Gold.PLP.Chemscore.Internal.Correction>
0.0084

> <Gold.Rescore>
     Score         DG    S(hbond)    S(metal)    S(lipo)     H(rot)  DE(clash)    DE(int)     intcor
     19.85     -21.05       2.75        0.00      86.22       1.44       0.67       0.54       ----

> <Gold.Chemscore.Fitness>
19.8484

> <Gold.Chemscore.DG>
-21.0532

> <Gold.Chemscore.ZeroCoef>
-5.4800

> <Gold.Chemscore.Hbond>
2.7494

> <Gold.Chemscore.Metal>
0.0000

> <Gold.Chemscore.Lipo>
86.2160

> <Gold.Chemscore.Internal_Hbond>
0.0000

> <Gold.Chemscore.DEClash>
0.6673

> <Gold.Chemscore.DEInternal>
0.5375

> <Gold.Chemscore.Rot>
1.4442

> <Gold.Chemscore.Internal.Correction>
   9.000000E+99

> <Gold.Chemscore.Hbonds>
donor molecule, donor type, donor heavy atom, donor atom, acceptor molecule, acceptor atom, score
      P1  H  6896  6908       L1     7  0.99
      P1  H  7997  8010       L1    23  1.00
      P1  H 10752 10765       L1    20  0.50

> <Gold.Chemscore.Hbond.Weighted>
-9.1830

> <Gold.Chemscore.Metal.Weighted>
-0.0000

> <Gold.Chemscore.Lipo.Weighted>
-10.0873

> <Gold.Chemscore.Internal_Hbond.Weighted>
0.0000

> <Gold.Chemscore.DEClash.Weighted>
0.6673

> <Gold.Chemscore.DEInternal.Weighted>
0.5375

> <Gold.Chemscore.Rot.Weighted>
3.6971

> <Gold.Chemscore.Internal.Correction.Weighted>
   9.000000E+99

> <Gold.Protein.RotatedTorsions>
[ 6907 6896 6895 6894 ] final  163.93 input  -60.11 | X-H torsion
[ 7974 7965 7964 7962 ] final  -44.78 input  175.53 | X-H torsion
[ 8008 7997 7996 7995 ] final  110.50 input   59.86 | X-H torsion
[ 10167 10162 10161 10158 ] final  -28.71 input  -65.29 | X-H torsion
[ 10718 10713 10712 10709 ] final  103.03 input   66.30 | X-H torsion
[ 10763 10752 10751 10750 ] final -163.43 input  -60.55 | X-H torsion
[ 11005 11000 10999 10996 ] final   24.26 input  -57.11 | X-H torsion

> <Gold.Protein.ActiveResidues>
 VAL166  LYS551  ARG553  GLY616  TRP617  ASP618  TYR619  PRO620  LYS621  CYS622 
 ASP623  PHE694  ASN695  SER759  ASP760  ASP761  ALA762  ILE779  LEU786  VAL792 
 PHE793  MET794  SER795  GLU796  ALA797  LYS798  CYS799  TRP800  GLU811  SER814 

> <Gold.Protein.RotatedAtoms>
  151.9176  133.3577  159.3885 H   0  0  0  0  0  0  0  0  0  0  0  0  # atno 6907 bound_to 6896
  150.7044  134.4668  159.5416 H   0  0  0  0  0  0  0  0  0  0  0  0  # atno 6908 bound_to 6896
  152.2286  134.8344  160.0527 H   0  0  0  0  0  0  0  0  0  0  0  0  # atno 6909 bound_to 6896
  145.9886  140.7206  142.9328 H   0  0  0  0  0  0  0  0  0  0  0  0  # atno 7974 bound_to 7965
  156.2057  140.3037  155.9622 H   0  0  0  0  0  0  0  0  0  0  0  0  # atno 8008 bound_to 7997
  155.2847  140.0439  157.3035 H   0  0  0  0  0  0  0  0  0  0  0  0  # atno 8009 bound_to 7997
  154.5630  140.2326  155.8315 H   0  0  0  0  0  0  0  0  0  0  0  0  # atno 8010 bound_to 7997
  140.7267  143.3988  151.1301 H   0  0  0  0  0  0  0  0  0  0  0  0  # atno 10167 bound_to 10162
  157.6785  131.0768  150.5493 H   0  0  0  0  0  0  0  0  0  0  0  0  # atno 10718 bound_to 10713
  154.7123  135.3009  154.9178 H   0  0  0  0  0  0  0  0  0  0  0  0  # atno 10763 bound_to 10752
  154.0075  135.6699  153.4767 H   0  0  0  0  0  0  0  0  0  0  0  0  # atno 10764 bound_to 10752
  153.0765  135.5032  154.8329 H   0  0  0  0  0  0  0  0  0  0  0  0  # atno 10765 bound_to 10752
  140.3606  134.2130  155.7672 H   0  0  0  0  0  0  0  0  0  0  0  0  # atno 11005 bound_to 11000
  144.6882  140.3031  143.7260 LP  0  0  0  0  0  0  0  0  0  0  0  0  # atno 17320 bound_to 7965
  145.7664  139.1842  143.2238 LP  0  0  0  0  0  0  0  0  0  0  0  0  # atno 17321 bound_to 7965
  139.7605  143.8643  152.3099 LP  0  0  0  0  0  0  0  0  0  0  0  0  # atno 17342 bound_to 10162
  139.8527  144.7156  150.9194 LP  0  0  0  0  0  0  0  0  0  0  0  0  # atno 17343 bound_to 10162
  156.5798  130.4301  149.5982 LP  0  0  0  0  0  0  0  0  0  0  0  0  # atno 17370 bound_to 10713
  156.2671  130.6995  151.1782 LP  0  0  0  0  0  0  0  0  0  0  0  0  # atno 17371 bound_to 10713
  141.1985  133.8033  157.0579 LP  0  0  0  0  0  0  0  0  0  0  0  0  # atno 17394 bound_to 11000
  140.0630  134.9744  157.1337 LP  0  0  0  0  0  0  0  0  0  0  0  0  # atno 17395 bound_to 11000

$$$$
