AV-unprocessed.smi:241|AV-procd|sdf|1841|dock10
  -GOLD-   2262020453D 1   1.00000     0.00000
 Structure written by MMmdl.
 54 57  0  0  0  0  0  0  0  0  1 V2000
  152.7925  138.5716  154.7723 C   0  0  0  0  0  0  0  0  0  0  0  0
  152.5568  139.4387  155.8672 O   0  0  0  0  0  0  0  0  0  0  0  0
  151.3337  139.1630  156.5287 C   0  0  0  0  0  0  0  0  0  0  0  0
  150.8856  140.3764  157.3653 C   0  0  1  0  0  0  0  0  0  0  0  0
  151.9577  140.8215  158.3631 C   0  0  0  0  0  0  0  0  0  0  0  0
  151.5778  142.2766  158.6354 C   0  0  1  0  0  0  0  0  0  0  0  0
  152.6640  143.0718  159.0873 O   0  0  0  0  0  0  0  0  0  0  0  0
  152.3726  144.4595  159.1254 C   0  0  0  0  0  0  0  0  0  0  0  0
  151.0846  142.7588  157.2687 C   0  0  0  0  0  0  0  0  0  0  0  0
  150.6351  141.5687  156.5540 N   0  0  0  0  0  0  0  0  0  0  0  0
  149.4939  141.7121  155.8332 C   0  0  0  0  0  0  0  0  0  0  0  0
  149.4769  141.4104  154.5081 N   0  0  0  0  0  0  0  0  0  0  0  0
  148.3519  141.5393  153.7992 C   0  0  0  0  0  0  0  0  0  0  0  0
  147.1477  141.9387  154.2117 N   0  0  0  0  0  0  0  0  0  0  0  0
  147.1552  142.2370  155.5424 C   0  0  0  0  0  0  0  0  0  0  0  0
  148.2750  142.1574  156.4176 C   0  0  0  0  0  0  0  0  0  0  0  0
  147.9066  142.5623  157.6952 N   0  0  0  0  0  0  0  0  0  0  0  0
  146.6417  142.8628  157.5815 C   0  0  0  0  0  0  0  0  0  0  0  0
  146.1022  142.6669  156.3301 N   0  0  0  0  0  0  0  0  0  0  0  0
  144.7573  142.9436  155.9200 C   0  0  0  0  0  0  0  0  0  0  0  0
  144.4560  143.9780  154.8339 C   0  0  0  0  0  0  0  0  0  0  0  0
  143.1346  144.3372  155.5506 C   0  0  0  0  0  0  0  0  0  0  0  0
  142.7942  145.8348  155.6408 C   0  0  0  0  0  0  0  0  0  0  0  0
  143.9476  146.6194  155.8610 O   0  0  0  0  0  0  0  0  0  0  0  0
  141.8797  143.5554  155.1098 C   0  0  0  0  0  0  0  0  0  0  0  0
  141.3774  144.0063  153.8684 O   0  0  0  0  0  0  0  0  0  0  0  0
  143.8177  143.7601  156.8101 C   0  0  0  0  0  0  0  0  0  0  0  0
  149.9898  140.1218  157.9339 H   0  0  0  0  0  0  0  0  0  0  0  0
  150.7466  142.3163  159.3422 H   0  0  0  0  0  0  0  0  0  0  0  0
  153.7417  138.8266  154.3014 H   0  0  0  0  0  0  0  0  0  0  0  0
  152.0080  138.6629  154.0200 H   0  0  0  0  0  0  0  0  0  0  0  0
  152.8473  137.5319  155.0980 H   0  0  0  0  0  0  0  0  0  0  0  0
  150.5770  138.9451  155.7732 H   0  0  0  0  0  0  0  0  0  0  0  0
  151.4238  138.2770  157.1599 H   0  0  0  0  0  0  0  0  0  0  0  0
  151.9761  140.2074  159.2639 H   0  0  0  0  0  0  0  0  0  0  0  0
  152.9460  140.7779  157.9022 H   0  0  0  0  0  0  0  0  0  0  0  0
  153.2568  145.0082  159.4499 H   0  0  0  0  0  0  0  0  0  0  0  0
  151.5676  144.6812  159.8265 H   0  0  0  0  0  0  0  0  0  0  0  0
  152.0911  144.8312  158.1393 H   0  0  0  0  0  0  0  0  0  0  0  0
  150.3022  143.5117  157.3763 H   0  0  0  0  0  0  0  0  0  0  0  0
  151.9026  143.2046  156.7016 H   0  0  0  0  0  0  0  0  0  0  0  0
  148.4268  141.2818  152.7531 H   0  0  0  0  0  0  0  0  0  0  0  0
  146.0633  143.2306  158.4166 H   0  0  0  0  0  0  0  0  0  0  0  0
  144.3132  141.9789  155.6688 H   0  0  0  0  0  0  0  0  0  0  0  0
  145.1709  144.8031  154.8310 H   0  0  0  0  0  0  0  0  0  0  0  0
  144.3405  143.5600  153.8333 H   0  0  0  0  0  0  0  0  0  0  0  0
  142.2949  146.1840  154.7368 H   0  0  0  0  0  0  0  0  0  0  0  0
  142.1070  146.0293  156.4646 H   0  0  0  0  0  0  0  0  0  0  0  0
  143.9925  146.8293  156.7819 H   0  0  0  0  0  0  0  0  0  0  0  0
  142.0954  142.4918  155.0077 H   0  0  0  0  0  0  0  0  0  0  0  0
  141.0879  143.6317  155.8557 H   0  0  0  0  0  0  0  0  0  0  0  0
  141.7263  143.4543  153.1851 H   0  0  0  0  0  0  0  0  0  0  0  0
  143.1711  143.1599  157.4510 H   0  0  0  0  0  0  0  0  0  0  0  0
  144.3533  144.5106  157.3945 H   0  0  0  0  0  0  0  0  0  0  0  0
  1  2  1  0  0  0  0
  1 30  1  0  0  0  0
  1 31  1  0  0  0  0
  1 32  1  0  0  0  0
  2  3  1  0  0  0  0
  3  4  1  0  0  0  0
  3 33  1  0  0  0  0
  3 34  1  0  0  0  0
  4 28  1  0  0  0  0
  4 10  1  0  0  0  0
  4  5  1  0  0  0  0
  5  6  1  0  0  0  0
  5 35  1  0  0  0  0
  5 36  1  0  0  0  0
  6 29  1  0  0  0  0
  6  7  1  0  0  0  0
  6  9  1  0  0  0  0
  7  8  1  0  0  0  0
  8 37  1  0  0  0  0
  8 38  1  0  0  0  0
  8 39  1  0  0  0  0
  9 10  1  0  0  0  0
  9 40  1  0  0  0  0
  9 41  1  0  0  0  0
 10 11  1  0  0  0  0
 11 16  1  0  0  0  0
 11 12  2  0  0  0  0
 12 13  1  0  0  0  0
 13 14  2  0  0  0  0
 13 42  1  0  0  0  0
 14 15  1  0  0  0  0
 15 19  1  0  0  0  0
 15 16  2  0  0  0  0
 16 17  1  0  0  0  0
 17 18  2  0  0  0  0
 18 19  1  0  0  0  0
 18 43  1  0  0  0  0
 19 20  1  0  0  0  0
 20 27  1  0  0  0  0
 20 21  1  0  0  0  0
 20 44  1  0  0  0  0
 21 22  1  0  0  0  0
 21 45  1  0  0  0  0
 21 46  1  0  0  0  0
 22 23  1  0  0  0  0
 22 25  1  0  0  0  0
 22 27  1  0  0  0  0
 23 24  1  0  0  0  0
 23 47  1  0  0  0  0
 23 48  1  0  0  0  0
 24 49  1  0  0  0  0
 25 26  1  0  0  0  0
 25 50  1  0  0  0  0
 25 51  1  0  0  0  0
 26 52  1  0  0  0  0
 27 53  1  0  0  0  0
 27 54  1  0  0  0  0
M  END
> <s_m_source_file>
AV-unprocessed.smi

> <i_m_source_file_index>
241

> <i_lp_mmshare_version>
43012

> <i_f3d_flags>
0

> <s_epik_input>
W0NIM11PW0NIMl1bQ0BASF0xW0NIMl1bQ0BASF0oT1tDSDNdKVtDSDJdTjFjKG5bY0hdbjIpYyhjMjMpbltjSF1uM1tDSF0oW0NIMl00KVtDSDJdQzQoW0NIMl1bT0hdKVtDSDJdW09IXQ==

> <s_epik_cmdline>
J2VwaWtfcHl0aG9uJywgJy1waCcsICc3LjAnLCAnLXRuJywgJzgnLCAnLW1hJywgJzIwMCcsICctbWV0YWxfYmluZGluZycsICctaW1hZScsICc8aW5maWxlLm1hZT4nLCAnLW9tYWUnLCAnPG91dGZpbGUubWFlPic=

> <r_lp_tautomer_probability>
1

> <r_epik_Ionization_Penalty>
0.00568677

> <r_epik_Ionization_Penalty_Charging>
0

> <r_epik_Ionization_Penalty_Neutral>
0.00568677

> <r_epik_State_Penalty>
0.00400877

> <r_epik_Charging_Adjusted_Penalty>
0.00400877

> <i_epik_Tot_Q>
0

> <i_epik_Tot_abs_Q>
0

> <r_epik_Metal_State_Penalty>
-0

> <b_epik_Metal_Only>
0

> <s_lp_Force_Field>
OPLS_2005

> <r_lp_Energy>
53.235

> <b_lp_Chiralities_Consistent>
1

> <s_lp_Variant>
AV-unprocessed.smi:241-2

> <Gold.Version>
5.8.1

> <Gold.Id.Protein>
6NUR|6NUR_protein|mol2

> <Gold.PLP.Fitness>
46.4647

> <Gold.PLP.PLP>
-38.1814

> <Gold.PLP.part.hbond>
-4.2812

> <Gold.PLP.part.metal>
0.0000

> <Gold.PLP.part.buried>
-4.2411

> <Gold.PLP.part.nonpolar>
-30.9329

> <Gold.PLP.part.repulsive>
0.5453

> <Gold.PLP.ligand.clash>
0.0000

> <Gold.PLP.ligand.torsion>
0.8470

> <Gold.PLP.Chemscore.Hbond>
2.0364

> <Gold.PLP.Chemscore.CHOScore>
1.0000

> <Gold.PLP.Chemscore.Metal>
0.0000

> <Gold.Chemscore.Hbonds>
donor molecule, donor type, donor heavy atom, donor atom, acceptor molecule, acceptor atom, score
      L1  H    26    52       P1 10174  1.00
      P1  H  7989  7998       L1    12  0.02
      P1  H  7997  8010       L1     2  1.00
      L1  C    13    42       P1  7957  1.00

> <Gold.PLP.Chemscore.Internal.Correction>
0.8682

> <Gold.Rescore>
     Score         DG    S(hbond)    S(metal)    S(lipo)     H(rot)  DE(clash)    DE(int)     intcor
     10.23     -11.23       2.10        0.00      76.07       3.97       0.16       0.84       ----

> <Gold.Chemscore.Fitness>
10.2294

> <Gold.Chemscore.DG>
-11.2280

> <Gold.Chemscore.ZeroCoef>
-5.4800

> <Gold.Chemscore.Hbond>
2.1014

> <Gold.Chemscore.Metal>
0.0000

> <Gold.Chemscore.Lipo>
76.0655

> <Gold.Chemscore.Internal_Hbond>
0.0000

> <Gold.Chemscore.DEClash>
0.1617

> <Gold.Chemscore.DEInternal>
0.8369

> <Gold.Chemscore.Rot>
3.9727

> <Gold.Chemscore.Internal.Correction>
   9.000000E+99

> <Gold.Chemscore.Hbonds>
donor molecule, donor type, donor heavy atom, donor atom, acceptor molecule, acceptor atom, score
      L1  H    26    52       P1 10174  1.00
      P1  H  7989  7998       L1    12  0.04
      P1  H  7997  8010       L1     2  0.39

> <Gold.Chemscore.Hbond.Weighted>
-7.0186

> <Gold.Chemscore.Metal.Weighted>
-0.0000

> <Gold.Chemscore.Lipo.Weighted>
-8.8997

> <Gold.Chemscore.Internal_Hbond.Weighted>
0.0000

> <Gold.Chemscore.DEClash.Weighted>
0.1617

> <Gold.Chemscore.DEInternal.Weighted>
0.8369

> <Gold.Chemscore.Rot.Weighted>
10.1702

> <Gold.Chemscore.Internal.Correction.Weighted>
   9.000000E+99

> <Gold.Protein.RotatedTorsions>
[ 6907 6896 6895 6894 ] final  142.17 input  -60.11 | X-H torsion
[ 7974 7965 7964 7962 ] final  111.43 input  175.53 | X-H torsion
[ 8008 7997 7996 7995 ] final   81.34 input   59.86 | X-H torsion
[ 10167 10162 10161 10158 ] final  175.15 input  -65.29 | X-H torsion
[ 10718 10713 10712 10709 ] final   18.12 input   66.30 | X-H torsion
[ 10763 10752 10751 10750 ] final  -83.28 input  -60.55 | X-H torsion
[ 11005 11000 10999 10996 ] final   14.79 input  -57.11 | X-H torsion

> <Gold.Protein.ActiveResidues>
 VAL166  LYS551  ARG553  GLY616  TRP617  ASP618  TYR619  PRO620  LYS621  CYS622 
 ASP623  PHE694  ASN695  SER759  ASP760  ASP761  ALA762  ILE779  LEU786  VAL792 
 PHE793  MET794  SER795  GLU796  ALA797  LYS798  CYS799  TRP800  GLU811  SER814 

> <Gold.Protein.RotatedAtoms>
  152.2220  133.4991  159.5167 H   0  0  0  0  0  0  0  0  0  0  0  0  # atno 6907 bound_to 6896
  150.7015  134.1329  159.4085 H   0  0  0  0  0  0  0  0  0  0  0  0  # atno 6908 bound_to 6896
  151.9250  135.0281  160.0575 H   0  0  0  0  0  0  0  0  0  0  0  0  # atno 6909 bound_to 6896
  145.2423  139.2774  143.4111 H   0  0  0  0  0  0  0  0  0  0  0  0  # atno 7974 bound_to 7965
  155.8958  140.3436  155.5990 H   0  0  0  0  0  0  0  0  0  0  0  0  # atno 8008 bound_to 7997
  155.7557  140.0826  157.2198 H   0  0  0  0  0  0  0  0  0  0  0  0  # atno 8009 bound_to 7997
  154.4038  140.1545  156.2762 H   0  0  0  0  0  0  0  0  0  0  0  0  # atno 8010 bound_to 7997
  139.5167  144.3064  152.0331 H   0  0  0  0  0  0  0  0  0  0  0  0  # atno 10167 bound_to 10162
  157.0919  130.6431  149.5851 H   0  0  0  0  0  0  0  0  0  0  0  0  # atno 10718 bound_to 10713
  154.5859  135.5561  153.7230 H   0  0  0  0  0  0  0  0  0  0  0  0  # atno 10763 bound_to 10752
  153.0098  135.6331  154.1917 H   0  0  0  0  0  0  0  0  0  0  0  0  # atno 10764 bound_to 10752
  154.1858  135.2885  155.3017 H   0  0  0  0  0  0  0  0  0  0  0  0  # atno 10765 bound_to 10752
  140.4656  134.1083  155.7723 H   0  0  0  0  0  0  0  0  0  0  0  0  # atno 11005 bound_to 11000
  146.3325  140.2790  142.8609 LP  0  0  0  0  0  0  0  0  0  0  0  0  # atno 17320 bound_to 7965
  144.9578  140.8244  143.5532 LP  0  0  0  0  0  0  0  0  0  0  0  0  # atno 17321 bound_to 7965
  140.2510  144.4168  150.6222 LP  0  0  0  0  0  0  0  0  0  0  0  0  # atno 17342 bound_to 10162
  140.6224  143.2177  151.6666 LP  0  0  0  0  0  0  0  0  0  0  0  0  # atno 17343 bound_to 10162
  155.9896  130.4944  150.7220 LP  0  0  0  0  0  0  0  0  0  0  0  0  # atno 17370 bound_to 10713
  157.4714  131.0893  151.0638 LP  0  0  0  0  0  0  0  0  0  0  0  0  # atno 17371 bound_to 10713
  141.1601  133.8809  157.1871 LP  0  0  0  0  0  0  0  0  0  0  0  0  # atno 17394 bound_to 11000
  139.9918  135.0062  156.9991 LP  0  0  0  0  0  0  0  0  0  0  0  0  # atno 17395 bound_to 11000

$$$$
