AV-unprocessed.smi:1914|AV-procd|sdf|7756|dock6
  -GOLD-   22720 9493D 1   1.00000     0.00000
 Structure written by MMmdl.
 44 45  0  0  0  0  0  0  0  0  2 V2000
  153.4639  141.5260  161.0372 C   0  0  0  0  0  0  0  0  0  0  0  0
  152.9981  142.7139  160.1836 C   0  0  2  0  0  0  0  0  0  0  0  0
  152.4302  143.8445  161.0577 C   0  0  0  0  0  0  0  0  0  0  0  0
  151.9486  145.0050  160.1780 C   0  0  0  0  0  0  0  0  0  0  0  0
  150.9386  144.5162  159.1278 C   0  0  0  0  0  0  0  0  0  0  0  0
  151.5153  143.4288  158.2952 N   0  3  2  0  0  0  0  0  0  0  0  0
  150.6101  143.0345  157.1863 C   0  0  0  0  0  0  0  0  0  0  0  0
  150.8810  141.6029  156.6835 C   0  0  0  0  0  0  0  0  0  0  0  0
  149.7836  141.1112  155.8590 N   0  0  0  0  0  0  0  0  0  0  0  0
  149.9202  140.2767  154.8173 C   0  0  0  0  0  0  0  0  0  0  0  0
  151.0068  139.8187  154.4614 O   0  0  0  0  0  0  0  0  0  0  0  0
  148.6282  139.8969  154.0801 C   0  0  0  0  0  0  0  0  0  0  0  0
  147.5053  140.8022  154.3763 N   0  0  0  0  0  0  0  0  0  0  0  0
  147.5627  142.0994  153.8288 C   0  0  0  0  0  0  0  0  0  0  0  0
  146.5906  143.0015  154.0372 C   0  0  0  0  0  0  0  0  0  0  0  0
  145.4611  142.6132  154.8481 C   0  0  0  0  0  0  0  0  0  0  0  0
  145.3980  141.3763  155.3800 C   0  0  0  0  0  0  0  0  0  0  0  0
  146.4597  140.3880  155.1575 C   0  0  0  0  0  0  0  0  0  0  0  0
  146.4138  139.2576  155.6442 O   0  0  0  0  0  0  0  0  0  0  0  0
  151.9590  142.2796  159.1300 C   0  0  0  0  0  0  0  0  0  0  0  0
  152.6343  141.0867  161.5921 H   0  0  0  0  0  0  0  0  0  0  0  0
  154.2208  141.8344  161.7590 H   0  0  0  0  0  0  0  0  0  0  0  0
  153.9013  140.7431  160.4168 H   0  0  0  0  0  0  0  0  0  0  0  0
  153.8715  143.1007  159.6562 H   0  0  0  0  0  0  0  0  0  0  0  0
  151.5997  143.4711  161.6589 H   0  0  0  0  0  0  0  0  0  0  0  0
  153.1873  144.1993  161.7581 H   0  0  0  0  0  0  0  0  0  0  0  0
  151.4958  145.7792  160.7982 H   0  0  0  0  0  0  0  0  0  0  0  0
  152.8018  145.4673  159.6800 H   0  0  0  0  0  0  0  0  0  0  0  0
  150.0292  144.1599  159.6152 H   0  0  0  0  0  0  0  0  0  0  0  0
  150.6510  145.3561  158.4939 H   0  0  0  0  0  0  0  0  0  0  0  0
  149.5706  143.1473  157.4976 H   0  0  0  0  0  0  0  0  0  0  0  0
  150.7556  143.7226  156.3524 H   0  0  0  0  0  0  0  0  0  0  0  0
  151.8157  141.5644  156.1214 H   0  0  0  0  0  0  0  0  0  0  0  0
  150.9914  140.9109  157.5171 H   0  0  0  0  0  0  0  0  0  0  0  0
  148.8547  141.4331  156.0908 H   0  0  0  0  0  0  0  0  0  0  0  0
  148.8407  139.8826  153.0105 H   0  0  0  0  0  0  0  0  0  0  0  0
  148.3512  138.8708  154.3303 H   0  0  0  0  0  0  0  0  0  0  0  0
  148.4427  142.3136  153.2399 H   0  0  0  0  0  0  0  0  0  0  0  0
  146.6533  143.9926  153.6121 H   0  0  0  0  0  0  0  0  0  0  0  0
  144.6633  143.3180  155.0301 H   0  0  0  0  0  0  0  0  0  0  0  0
  144.5456  141.1040  155.9849 H   0  0  0  0  0  0  0  0  0  0  0  0
  152.3993  141.5074  158.5003 H   0  0  0  0  0  0  0  0  0  0  0  0
  151.0925  141.8298  159.6180 H   0  0  0  0  0  0  0  0  0  0  0  0
  152.3416  143.8170  157.8628 H   0  0  0  0  0  0  0  0  0  0  0  0
  1  2  1  0  0  0  0
  1 21  1  0  0  0  0
  1 22  1  0  0  0  0
  1 23  1  0  0  0  0
  2 20  1  0  0  0  0
  2  3  1  0  0  0  0
  2 24  1  0  0  0  0
  3  4  1  0  0  0  0
  3 25  1  0  0  0  0
  3 26  1  0  0  0  0
  4  5  1  0  0  0  0
  4 27  1  0  0  0  0
  4 28  1  0  0  0  0
  5  6  1  0  0  0  0
  5 29  1  0  0  0  0
  5 30  1  0  0  0  0
  6  7  1  0  0  0  0
  6 20  1  0  0  0  0
  6 44  1  0  0  0  0
  7  8  1  0  0  0  0
  7 31  1  0  0  0  0
  7 32  1  0  0  0  0
  8  9  1  0  0  0  0
  8 33  1  0  0  0  0
  8 34  1  0  0  0  0
  9 10  1  0  0  0  0
  9 35  1  0  0  0  0
 10 11  2  0  0  0  0
 10 12  1  0  0  0  0
 12 13  1  0  0  0  0
 12 36  1  0  0  0  0
 12 37  1  0  0  0  0
 13 18  1  0  0  0  0
 13 14  1  0  0  0  0
 14 15  2  0  0  0  0
 14 38  1  0  0  0  0
 15 16  1  0  0  0  0
 15 39  1  0  0  0  0
 16 17  2  0  0  0  0
 16 40  1  0  0  0  0
 17 18  1  0  0  0  0
 17 41  1  0  0  0  0
 18 19  2  0  0  0  0
 20 42  1  0  0  0  0
 20 43  1  0  0  0  0
M  CHG  1   6   1
M  END
> <s_m_source_file>
AV-unprocessed.smi

> <i_m_source_file_index>
1914

> <i_lp_mmshare_version>
43012

> <i_f3d_flags>
0

> <s_epik_input>
W0NIM11bQ0BASF0xW0NIMl1bQ0gyXVtDSDJdTihbQ0gyXTEpW0NIMl1bQ0gyXVtOSF1DKD1PKVtDSDJdbjJbY0hdW2NIXVtjSF1bY0hdYzI9Tw==

> <s_epik_cmdline>
J2VwaWtfcHl0aG9uJywgJy1waCcsICc3LjAnLCAnLXRuJywgJzgnLCAnLW1hJywgJzIwMCcsICctbWV0YWxfYmluZGluZycsICctaW1hZScsICc8aW5maWxlLm1hZT4nLCAnLW9tYWUnLCAnPG91dGZpbGUubWFlPic=

> <r_lp_tautomer_probability>
1

> <r_epik_Ionization_Penalty>
0.00192477

> <r_epik_Ionization_Penalty_Charging>
0.00192469

> <r_epik_Ionization_Penalty_Neutral>
8.16761e-08

> <r_epik_State_Penalty>
0.00131115

> <r_epik_Charging_Adjusted_Penalty>
0.00323584

> <i_epik_Tot_Q>
1

> <i_epik_Tot_abs_Q>
1

> <r_epik_Metal_State_Penalty>
-0

> <b_epik_Metal_Only>
0

> <s_lp_Force_Field>
OPLS_2005

> <r_lp_Energy>
24.8324

> <b_lp_Chiralities_Consistent>
1

> <s_lp_Variant>
AV-unprocessed.smi:1914-1

> <Gold.Version>
5.8.1

> <Gold.Id.Protein>
6NUR|6NUR_protein|mol2

> <Gold.PLP.Fitness>
43.1851

> <Gold.PLP.PLP>
-41.9302

> <Gold.PLP.part.hbond>
-1.0000

> <Gold.PLP.part.metal>
0.0000

> <Gold.PLP.part.buried>
-3.1604

> <Gold.PLP.part.nonpolar>
-37.7485

> <Gold.PLP.part.repulsive>
0.2422

> <Gold.PLP.ligand.clash>
0.0000

> <Gold.PLP.ligand.torsion>
0.8979

> <Gold.PLP.Chemscore.Hbond>
1.0000

> <Gold.PLP.Chemscore.CHOScore>
0.0000

> <Gold.PLP.Chemscore.Metal>
0.0000

> <Gold.Chemscore.Hbonds>
donor molecule, donor type, donor heavy atom, donor atom, acceptor molecule, acceptor atom, score
      P1  H  7989  7998       L1    11  1.00

> <Gold.PLP.Chemscore.Internal.Correction>
0.0507

> <Gold.Rescore>
     Score         DG    S(hbond)    S(metal)    S(lipo)     H(rot)  DE(clash)    DE(int)     intcor
     14.76     -16.85       0.95        0.00     110.80       1.86       1.40       0.69       ----

> <Gold.Chemscore.Fitness>
14.7560

> <Gold.Chemscore.DG>
-16.8469

> <Gold.Chemscore.ZeroCoef>
-5.4800

> <Gold.Chemscore.Hbond>
0.9466

> <Gold.Chemscore.Metal>
0.0000

> <Gold.Chemscore.Lipo>
110.7993

> <Gold.Chemscore.Internal_Hbond>
0.0000

> <Gold.Chemscore.DEClash>
1.4027

> <Gold.Chemscore.DEInternal>
0.6882

> <Gold.Chemscore.Rot>
1.8586

> <Gold.Chemscore.Internal.Correction>
   9.000000E+99

> <Gold.Chemscore.Hbonds>
donor molecule, donor type, donor heavy atom, donor atom, acceptor molecule, acceptor atom, score
      P1  H  7989  7998       L1    11  0.58

> <Gold.Chemscore.Hbond.Weighted>
-3.1615

> <Gold.Chemscore.Metal.Weighted>
-0.0000

> <Gold.Chemscore.Lipo.Weighted>
-12.9635

> <Gold.Chemscore.Internal_Hbond.Weighted>
0.0000

> <Gold.Chemscore.DEClash.Weighted>
1.4027

> <Gold.Chemscore.DEInternal.Weighted>
0.6882

> <Gold.Chemscore.Rot.Weighted>
4.7581

> <Gold.Chemscore.Internal.Correction.Weighted>
   9.000000E+99

> <Gold.Protein.RotatedTorsions>
[ 6907 6896 6895 6894 ] final  151.35 input  -60.11 | X-H torsion
[ 7974 7965 7964 7962 ] final  126.61 input  175.53 | X-H torsion
[ 8008 7997 7996 7995 ] final -154.24 input   59.86 | X-H torsion
[ 10167 10162 10161 10158 ] final   23.79 input  -65.29 | X-H torsion
[ 10718 10713 10712 10709 ] final  159.37 input   66.30 | X-H torsion
[ 10763 10752 10751 10750 ] final  -84.37 input  -60.55 | X-H torsion
[ 11005 11000 10999 10996 ] final   80.45 input  -57.11 | X-H torsion

> <Gold.Protein.ActiveResidues>
 VAL166  LYS551  ARG553  GLY616  TRP617  ASP618  TYR619  PRO620  LYS621  CYS622 
 ASP623  PHE694  ASN695  SER759  ASP760  ASP761  ALA762  ILE779  LEU786  VAL792 
 PHE793  MET794  SER795  GLU796  ALA797  LYS798  CYS799  TRP800  GLU811  SER814 

> <Gold.Protein.RotatedAtoms>
  152.1018  133.4254  159.4590 H   0  0  0  0  0  0  0  0  0  0  0  0  # atno 6907 bound_to 6896
  150.6864  134.2751  159.4613 H   0  0  0  0  0  0  0  0  0  0  0  0  # atno 6908 bound_to 6896
  152.0612  134.9593  160.0625 H   0  0  0  0  0  0  0  0  0  0  0  0  # atno 6909 bound_to 6896
  145.0598  139.3814  143.5011 H   0  0  0  0  0  0  0  0  0  0  0  0  # atno 7974 bound_to 7965
  155.6833  140.0747  157.2476 H   0  0  0  0  0  0  0  0  0  0  0  0  # atno 8008 bound_to 7997
  154.4101  140.1678  156.2058 H   0  0  0  0  0  0  0  0  0  0  0  0  # atno 8009 bound_to 7997
  155.9516  140.3377  155.6416 H   0  0  0  0  0  0  0  0  0  0  0  0  # atno 8010 bound_to 7997
  140.5241  143.9953  150.6431 H   0  0  0  0  0  0  0  0  0  0  0  0  # atno 10167 bound_to 10162
  157.1651  131.0596  151.2212 H   0  0  0  0  0  0  0  0  0  0  0  0  # atno 10718 bound_to 10713
  154.5987  135.5523  153.7352 H   0  0  0  0  0  0  0  0  0  0  0  0  # atno 10763 bound_to 10752
  153.0146  135.6361  154.1745 H   0  0  0  0  0  0  0  0  0  0  0  0  # atno 10764 bound_to 10752
  154.1685  135.2893  155.3068 H   0  0  0  0  0  0  0  0  0  0  0  0  # atno 10765 bound_to 10752
  139.9134  134.7921  156.1911 H   0  0  0  0  0  0  0  0  0  0  0  0  # atno 11005 bound_to 11000
  146.3523  140.0291  142.8652 LP  0  0  0  0  0  0  0  0  0  0  0  0  # atno 17320 bound_to 7965
  145.1423  140.9578  143.4481 LP  0  0  0  0  0  0  0  0  0  0  0  0  # atno 17321 bound_to 7965
  140.3310  143.3077  152.0687 LP  0  0  0  0  0  0  0  0  0  0  0  0  # atno 17342 bound_to 10162
  139.4932  144.6509  151.6678 LP  0  0  0  0  0  0  0  0  0  0  0  0  # atno 17343 bound_to 10162
  157.4096  130.7377  149.6828 LP  0  0  0  0  0  0  0  0  0  0  0  0  # atno 17370 bound_to 10713
  155.9747  130.4099  150.3902 LP  0  0  0  0  0  0  0  0  0  0  0  0  # atno 17371 bound_to 10713
  141.0583  133.6854  156.1903 LP  0  0  0  0  0  0  0  0  0  0  0  0  # atno 17394 bound_to 11000
  140.6702  134.4876  157.5587 LP  0  0  0  0  0  0  0  0  0  0  0  0  # atno 17395 bound_to 11000

$$$$
