AV-unprocessed.smi:12|AV-procd|sdf|68|dock2
  -GOLD-   2262015193D 1   1.00000     0.00000
 Structure written by MMmdl.
 41 44  0  0  0  0  0  0  0  0  1 V2000
  151.6424  143.4155  159.0404 C   0  0  0  0  0  0  0  0  0  0  0  0
  151.6009  142.2796  158.0343 C   0  0  0  0  0  0  0  0  0  0  0  0
  150.7743  142.3082  156.9624 C   0  0  0  0  0  0  0  0  0  0  0  0
  150.7680  141.2547  156.0915 N   0  0  0  0  0  0  0  0  0  0  0  0
  151.6353  140.1623  156.3087 C   0  0  0  0  0  0  0  0  0  0  0  0
  152.4559  140.0612  157.3076 N   0  0  0  0  0  0  0  0  0  0  0  0
  152.4925  141.1114  158.2449 C   0  0  0  0  0  0  0  0  0  0  0  0
  153.2493  141.0574  159.2132 O   0  0  0  0  0  0  0  0  0  0  0  0
  151.4637  139.2582  155.3057 O   0  0  0  0  0  0  0  0  0  0  0  0
  150.4508  139.7204  154.4003 C   0  0  1  0  0  0  0  0  0  0  0  0
  149.2040  138.8478  154.5202 C   0  0  2  0  0  0  0  0  0  0  0  0
  148.5811  138.6954  153.2585 O   0  0  0  0  0  0  0  0  0  0  0  0
  148.3246  139.6120  155.5198 C   0  0  2  0  0  0  0  0  0  0  0  0
  146.8173  139.3389  155.4296 C   0  0  0  0  0  0  0  0  0  0  0  0
  146.1707  140.5014  154.9389 O   0  0  0  0  0  0  0  0  0  0  0  0
  145.8445  141.5005  155.7806 C   0  0  0  0  0  0  0  0  0  0  0  0
  145.9496  141.4220  157.0064 O   0  0  0  0  0  0  0  0  0  0  0  0
  145.3467  142.7148  155.0720 C   0  0  0  0  0  0  0  0  0  0  0  0
  144.3601  143.5209  155.6865 C   0  0  0  0  0  0  0  0  0  0  0  0
  143.8717  144.6735  155.0411 C   0  0  0  0  0  0  0  0  0  0  0  0
  144.3624  145.0332  153.7724 C   0  0  0  0  0  0  0  0  0  0  0  0
  145.3429  144.2389  153.1500 C   0  0  0  0  0  0  0  0  0  0  0  0
  145.8336  143.0864  153.7944 C   0  0  0  0  0  0  0  0  0  0  0  0
  148.6193  140.9736  155.2346 O   0  0  0  0  0  0  0  0  0  0  0  0
  149.9619  141.1044  154.8757 C   0  0  1  0  0  0  0  0  0  0  0  0
  150.9489  144.2115  158.7677 H   0  0  0  0  0  0  0  0  0  0  0  0
  152.6437  143.8441  159.0929 H   0  0  0  0  0  0  0  0  0  0  0  0
  151.3690  143.0553  160.0325 H   0  0  0  0  0  0  0  0  0  0  0  0
  150.1150  143.1461  156.7892 H   0  0  0  0  0  0  0  0  0  0  0  0
  150.8434  139.7763  153.3837 H   0  0  0  0  0  0  0  0  0  0  0  0
  149.4451  137.8498  154.8882 H   0  0  0  0  0  0  0  0  0  0  0  0
  148.8241  139.4273  152.7120 H   0  0  0  0  0  0  0  0  0  0  0  0
  148.6750  139.3874  156.5291 H   0  0  0  0  0  0  0  0  0  0  0  0
  146.6143  138.4859  154.7806 H   0  0  0  0  0  0  0  0  0  0  0  0
  146.4253  139.1042  156.4204 H   0  0  0  0  0  0  0  0  0  0  0  0
  143.9682  143.2648  156.6602 H   0  0  0  0  0  0  0  0  0  0  0  0
  143.1199  145.2823  155.5213 H   0  0  0  0  0  0  0  0  0  0  0  0
  143.9872  145.9168  153.2773 H   0  0  0  0  0  0  0  0  0  0  0  0
  145.7203  144.5131  152.1758 H   0  0  0  0  0  0  0  0  0  0  0  0
  146.5846  142.4981  153.2876 H   0  0  0  0  0  0  0  0  0  0  0  0
  150.2059  141.9572  154.2416 H   0  0  0  0  0  0  0  0  0  0  0  0
  1  2  1  0  0  0  0
  1 26  1  0  0  0  0
  1 27  1  0  0  0  0
  1 28  1  0  0  0  0
  2  7  1  0  0  0  0
  2  3  2  0  0  0  0
  3  4  1  0  0  0  0
  3 29  1  0  0  0  0
  4 25  1  0  0  0  0
  4  5  1  0  0  0  0
  5  6  2  0  0  0  0
  5  9  1  0  0  0  0
  6  7  1  0  0  0  0
  7  8  2  0  0  0  0
  9 10  1  0  0  0  0
 10 25  1  0  0  0  0
 10 11  1  0  0  0  0
 10 30  1  0  0  0  0
 11 12  1  0  0  0  0
 11 13  1  0  0  0  0
 11 31  1  0  0  0  0
 12 32  1  0  0  0  0
 13 14  1  0  0  0  0
 13 24  1  0  0  0  0
 13 33  1  0  0  0  0
 14 15  1  0  0  0  0
 14 34  1  0  0  0  0
 14 35  1  0  0  0  0
 15 16  1  0  0  0  0
 16 17  2  0  0  0  0
 16 18  1  0  0  0  0
 18 23  1  0  0  0  0
 18 19  2  0  0  0  0
 19 20  1  0  0  0  0
 19 36  1  0  0  0  0
 20 21  2  0  0  0  0
 20 37  1  0  0  0  0
 21 22  1  0  0  0  0
 21 38  1  0  0  0  0
 22 23  2  0  0  0  0
 22 39  1  0  0  0  0
 23 40  1  0  0  0  0
 24 25  1  0  0  0  0
 25 41  1  0  0  0  0
M  END
> <s_m_source_file>
AV-unprocessed.smi

> <i_m_source_file_index>
12

> <i_lp_mmshare_version>
43012

> <i_f3d_flags>
0

> <s_epik_input>
W0NIM11jKFtjSF0xKWMoPU8pbmMobjEyKU9bQ0BIXTNbQ0BASF0yT1tDQEBIXShbQ0BASF0zW09IXSlbQ0gyXU9DKD1PKWM0W2NIXVtjSF1bY0hdW2NIXVtjSF00

> <s_epik_cmdline>
J2VwaWtfcHl0aG9uJywgJy1waCcsICc3LjAnLCAnLXRuJywgJzgnLCAnLW1hJywgJzIwMCcsICctbWV0YWxfYmluZGluZycsICctaW1hZScsICc8aW5maWxlLm1hZT4nLCAnLW9tYWUnLCAnPG91dGZpbGUubWFlPic=

> <r_lp_tautomer_probability>
0.933681

> <r_epik_Ionization_Penalty>
0.00399549

> <r_epik_Ionization_Penalty_Charging>
3.09373e-09

> <r_epik_Ionization_Penalty_Neutral>
0.00399549

> <r_epik_State_Penalty>
0.00284953

> <r_epik_Charging_Adjusted_Penalty>
0.00284953

> <i_epik_Tot_Q>
0

> <i_epik_Tot_abs_Q>
0

> <r_epik_Metal_State_Penalty>
-0

> <b_epik_Metal_Only>
0

> <s_epik_Chemistry_Notes>
This compound has an ester and may undergo hydrolysis at high or low pH. This compound contains an acetal/aminal-like group ( X-CH(R)-Y where X, Y are N, S, or O) that may be acid/base labile, releasing an aldehyde.

> <s_lp_Force_Field>
OPLS_2005

> <r_lp_Energy>
39.7302

> <b_lp_Chiralities_Consistent>
1

> <s_lp_Variant>
AV-unprocessed.smi:12-8

> <Gold.Version>
5.8.1

> <Gold.Id.Protein>
6NUR|6NUR_protein|mol2

> <Gold.PLP.Fitness>
47.0408

> <Gold.PLP.PLP>
-40.7630

> <Gold.PLP.part.hbond>
-3.0000

> <Gold.PLP.part.metal>
0.0000

> <Gold.PLP.part.buried>
-3.9144

> <Gold.PLP.part.nonpolar>
-34.2060

> <Gold.PLP.part.repulsive>
0.2108

> <Gold.PLP.ligand.clash>
0.0000

> <Gold.PLP.ligand.torsion>
1.3553

> <Gold.PLP.Chemscore.Hbond>
1.9920

> <Gold.PLP.Chemscore.CHOScore>
1.0000

> <Gold.PLP.Chemscore.Metal>
0.0000

> <Gold.Chemscore.Hbonds>
donor molecule, donor type, donor heavy atom, donor atom, acceptor molecule, acceptor atom, score
      L1  H    12    32       P1  7957  0.96
      P1  H  7997  8008       L1     6  0.89
      L1  C     3    29       P1  8028  1.00

> <Gold.PLP.Chemscore.Internal.Correction>
0.0124

> <Gold.Rescore>
     Score         DG    S(hbond)    S(metal)    S(lipo)     H(rot)  DE(clash)    DE(int)     intcor
     11.11     -12.88       1.10        0.00      79.61       2.18       0.54       1.23       ----

> <Gold.Chemscore.Fitness>
11.1131

> <Gold.Chemscore.DG>
-12.8814

> <Gold.Chemscore.ZeroCoef>
-5.4800

> <Gold.Chemscore.Hbond>
1.0983

> <Gold.Chemscore.Metal>
0.0000

> <Gold.Chemscore.Lipo>
79.6059

> <Gold.Chemscore.Internal_Hbond>
0.0000

> <Gold.Chemscore.DEClash>
0.5355

> <Gold.Chemscore.DEInternal>
1.2327

> <Gold.Chemscore.Rot>
2.1800

> <Gold.Chemscore.Internal.Correction>
   9.000000E+99

> <Gold.Chemscore.Hbonds>
donor molecule, donor type, donor heavy atom, donor atom, acceptor molecule, acceptor atom, score
      L1  H    12    32       P1  7957  0.92
      P1  H  7997  8008       L1     6  0.14

> <Gold.Chemscore.Hbond.Weighted>
-3.6682

> <Gold.Chemscore.Metal.Weighted>
-0.0000

> <Gold.Chemscore.Lipo.Weighted>
-9.3139

> <Gold.Chemscore.Internal_Hbond.Weighted>
0.0000

> <Gold.Chemscore.DEClash.Weighted>
0.5355

> <Gold.Chemscore.DEInternal.Weighted>
1.2327

> <Gold.Chemscore.Rot.Weighted>
5.5807

> <Gold.Chemscore.Internal.Correction.Weighted>
   9.000000E+99

> <Gold.Protein.RotatedTorsions>
[ 6907 6896 6895 6894 ] final  178.88 input  -60.11 | X-H torsion
[ 7974 7965 7964 7962 ] final  -38.10 input  175.53 | X-H torsion
[ 8008 7997 7996 7995 ] final  -67.98 input   59.86 | X-H torsion
[ 10167 10162 10161 10158 ] final   53.26 input  -65.29 | X-H torsion
[ 10718 10713 10712 10709 ] final   71.18 input   66.30 | X-H torsion
[ 10763 10752 10751 10750 ] final  138.46 input  -60.55 | X-H torsion
[ 11005 11000 10999 10996 ] final -115.37 input  -57.11 | X-H torsion

> <Gold.Protein.ActiveResidues>
 VAL166  LYS551  ARG553  GLY616  TRP617  ASP618  TYR619  PRO620  LYS621  CYS622 
 ASP623  PHE694  ASN695  SER759  ASP760  ASP761  ALA762  ILE779  LEU786  VAL792 
 PHE793  MET794  SER795  GLU796  ALA797  LYS798  CYS799  TRP800  GLU811  SER814 

> <Gold.Protein.RotatedAtoms>
  151.6807  133.3312  159.3218 H   0  0  0  0  0  0  0  0  0  0  0  0  # atno 6907 bound_to 6896
  150.7824  134.6784  159.6439 H   0  0  0  0  0  0  0  0  0  0  0  0  # atno 6908 bound_to 6896
  152.3885  134.6482  160.0168 H   0  0  0  0  0  0  0  0  0  0  0  0  # atno 6909 bound_to 6896
  146.0516  140.6473  142.9039 H   0  0  0  0  0  0  0  0  0  0  0  0  # atno 7974 bound_to 7965
  154.4836  140.0882  156.7436 H   0  0  0  0  0  0  0  0  0  0  0  0  # atno 8008 bound_to 7997
  155.4406  140.3453  155.4271 H   0  0  0  0  0  0  0  0  0  0  0  0  # atno 8009 bound_to 7997
  156.1229  140.1479  156.9167 H   0  0  0  0  0  0  0  0  0  0  0  0  # atno 8010 bound_to 7997
  140.2427  144.3566  150.6375 H   0  0  0  0  0  0  0  0  0  0  0  0  # atno 10167 bound_to 10162
  157.6438  130.9515  150.0754 H   0  0  0  0  0  0  0  0  0  0  0  0  # atno 10718 bound_to 10713
  153.8900  135.3034  155.3447 H   0  0  0  0  0  0  0  0  0  0  0  0  # atno 10763 bound_to 10752
  154.7721  135.4880  153.9672 H   0  0  0  0  0  0  0  0  0  0  0  0  # atno 10764 bound_to 10752
  153.1303  135.6802  153.9288 H   0  0  0  0  0  0  0  0  0  0  0  0  # atno 10765 bound_to 10752
  141.0492  133.9714  157.2865 H   0  0  0  0  0  0  0  0  0  0  0  0  # atno 11005 bound_to 11000
  144.7126  140.4094  143.7069 LP  0  0  0  0  0  0  0  0  0  0  0  0  # atno 17320 bound_to 7965
  145.6714  139.1600  143.2752 LP  0  0  0  0  0  0  0  0  0  0  0  0  # atno 17321 bound_to 7965
  140.6101  143.2169  151.6903 LP  0  0  0  0  0  0  0  0  0  0  0  0  # atno 17342 bound_to 10162
  139.5072  144.3655  152.0521 LP  0  0  0  0  0  0  0  0  0  0  0  0  # atno 17343 bound_to 10162
  156.1745  130.3647  149.9119 LP  0  0  0  0  0  0  0  0  0  0  0  0  # atno 17370 bound_to 10713
  156.7086  130.8961  151.3607 LP  0  0  0  0  0  0  0  0  0  0  0  0  # atno 17371 bound_to 10713
  139.9336  135.0198  156.8484 LP  0  0  0  0  0  0  0  0  0  0  0  0  # atno 17394 bound_to 11000
  140.6088  134.0102  155.7568 LP  0  0  0  0  0  0  0  0  0  0  0  0  # atno 17395 bound_to 11000

$$$$
