AV-unprocessed.smi:2481|AV-procd|sdf|9773|dock3
  -GOLD-   2272013413D 1   1.00000     0.00000
 Structure written by MMmdl.
 37 38  0  0  0  0  0  0  0  0  1 V2000
  149.0810  137.1387  159.6243 C   0  0  0  0  0  0  0  0  0  0  0  0
  150.0654  136.8948  158.5877 N   0  0  0  0  0  0  0  0  0  0  0  0
  150.1169  135.7059  157.9423 N   0  0  0  0  0  0  0  0  0  0  0  0
  151.1300  135.8768  157.0928 C   0  0  0  0  0  0  0  0  0  0  0  0
  151.7483  137.0940  157.1352 N   0  0  0  0  0  0  0  0  0  0  0  0
  151.0300  137.6747  158.0912 C   0  0  0  0  0  0  0  0  0  0  0  0
  151.2092  138.9927  158.5899 N   0  0  0  0  0  0  0  0  0  0  0  0
  152.3148  139.7538  158.5265 C   0  0  0  0  0  0  0  0  0  0  0  0
  153.3841  139.4124  158.0206 O   0  0  0  0  0  0  0  0  0  0  0  0
  152.1108  140.9507  159.0950 N   0  0  0  0  0  0  0  0  0  0  0  0
  153.1017  142.0229  159.2006 C   0  0  2  0  0  0  0  0  0  0  0  0
  153.9298  141.8775  160.4958 C   0  0  0  0  0  0  0  0  0  0  0  0
  153.0938  142.1680  161.7535 C   0  0  0  0  0  0  0  0  0  0  0  0
  152.4319  143.5512  161.6724 C   0  0  0  0  0  0  0  0  0  0  0  0
  151.5947  143.6992  160.3917 C   0  0  0  0  0  0  0  0  0  0  0  0
  152.4306  143.4206  159.1237 C   0  0  2  0  0  0  0  0  0  0  0  0
  151.5878  143.6344  157.8482 C   0  0  0  0  0  0  0  0  0  0  0  0
  150.7173  144.7362  157.9976 O   0  0  0  0  0  0  0  0  0  0  0  0
  148.5597  138.0755  159.4244 H   0  0  0  0  0  0  0  0  0  0  0  0
  149.5791  137.2058  160.5918 H   0  0  0  0  0  0  0  0  0  0  0  0
  148.3500  136.3294  159.6568 H   0  0  0  0  0  0  0  0  0  0  0  0
  151.4359  135.0930  156.4156 H   0  0  0  0  0  0  0  0  0  0  0  0
  150.4042  139.4012  159.0411 H   0  0  0  0  0  0  0  0  0  0  0  0
  151.2007  141.1395  159.4883 H   0  0  0  0  0  0  0  0  0  0  0  0
  153.7881  141.9349  158.3562 H   0  0  0  0  0  0  0  0  0  0  0  0
  154.3663  140.8803  160.5604 H   0  0  0  0  0  0  0  0  0  0  0  0
  154.7710  142.5709  160.4603 H   0  0  0  0  0  0  0  0  0  0  0  0
  152.3281  141.4009  161.8740 H   0  0  0  0  0  0  0  0  0  0  0  0
  153.7267  142.1115  162.6397 H   0  0  0  0  0  0  0  0  0  0  0  0
  151.8028  143.7130  162.5481 H   0  0  0  0  0  0  0  0  0  0  0  0
  153.2003  144.3249  161.6971 H   0  0  0  0  0  0  0  0  0  0  0  0
  150.7421  143.0202  160.4331 H   0  0  0  0  0  0  0  0  0  0  0  0
  151.1800  144.7068  160.3490 H   0  0  0  0  0  0  0  0  0  0  0  0
  153.2307  144.1628  159.1048 H   0  0  0  0  0  0  0  0  0  0  0  0
  152.2187  143.7874  156.9725 H   0  0  0  0  0  0  0  0  0  0  0  0
  150.9791  142.7522  157.6474 H   0  0  0  0  0  0  0  0  0  0  0  0
  150.1679  144.7926  157.2307 H   0  0  0  0  0  0  0  0  0  0  0  0
  1  2  1  0  0  0  0
  1 19  1  0  0  0  0
  1 20  1  0  0  0  0
  1 21  1  0  0  0  0
  2  6  1  0  0  0  0
  2  3  1  0  0  0  0
  3  4  2  0  0  0  0
  4  5  1  0  0  0  0
  4 22  1  0  0  0  0
  5  6  2  0  0  0  0
  6  7  1  0  0  0  0
  7  8  1  0  0  0  0
  7 23  1  0  0  0  0
  8  9  2  0  0  0  0
  8 10  1  0  0  0  0
 10 11  1  0  0  0  0
 10 24  1  0  0  0  0
 11 16  1  0  0  0  0
 11 12  1  0  0  0  0
 11 25  1  0  0  0  0
 12 13  1  0  0  0  0
 12 26  1  0  0  0  0
 12 27  1  0  0  0  0
 13 14  1  0  0  0  0
 13 28  1  0  0  0  0
 13 29  1  0  0  0  0
 14 15  1  0  0  0  0
 14 30  1  0  0  0  0
 14 31  1  0  0  0  0
 15 16  1  0  0  0  0
 15 32  1  0  0  0  0
 15 33  1  0  0  0  0
 16 17  1  0  0  0  0
 16 34  1  0  0  0  0
 17 18  1  0  0  0  0
 17 35  1  0  0  0  0
 17 36  1  0  0  0  0
 18 37  1  0  0  0  0
M  END
> <s_m_source_file>
AV-unprocessed.smi

> <i_m_source_file_index>
2481

> <i_lp_mmshare_version>
43012

> <i_f3d_flags>
0

> <s_epik_input>
W0NIM11uMW5bY0hdbmMxW05IXUMoPU8pW05IXVtDQEBIXTJbQ0gyXVtDSDJdW0NIMl1bQ0gyXVtDQEhdMltDSDJdW09IXQ==

> <s_epik_cmdline>
J2VwaWtfcHl0aG9uJywgJy1waCcsICc3LjAnLCAnLXRuJywgJzgnLCAnLW1hJywgJzIwMCcsICctbWV0YWxfYmluZGluZycsICctaW1hZScsICc8aW5maWxlLm1hZT4nLCAnLW9tYWUnLCAnPG91dGZpbGUubWFlPic=

> <r_lp_tautomer_probability>
1

> <r_epik_Ionization_Penalty>
2.32704e-05

> <r_epik_Ionization_Penalty_Charging>
0

> <r_epik_Ionization_Penalty_Neutral>
2.32704e-05

> <r_epik_State_Penalty>
-0

> <r_epik_Charging_Adjusted_Penalty>
0

> <i_epik_Tot_Q>
0

> <i_epik_Tot_abs_Q>
0

> <r_epik_Metal_State_Penalty>
-0

> <b_epik_Metal_Only>
0

> <s_lp_Force_Field>
OPLS_2005

> <r_lp_Energy>
12.0515

> <b_lp_Chiralities_Consistent>
1

> <s_lp_Variant>
AV-unprocessed.smi:2481-3

> <Gold.Version>
5.8.1

> <Gold.Id.Protein>
6NUR|6NUR_protein|mol2

> <Gold.PLP.Fitness>
42.5396

> <Gold.PLP.PLP>
-35.4450

> <Gold.PLP.part.hbond>
-3.6571

> <Gold.PLP.part.metal>
0.0000

> <Gold.PLP.part.buried>
-3.8203

> <Gold.PLP.part.nonpolar>
-29.0680

> <Gold.PLP.part.repulsive>
0.2482

> <Gold.PLP.ligand.clash>
0.0000

> <Gold.PLP.ligand.torsion>
0.6521

> <Gold.PLP.Chemscore.Hbond>
2.7930

> <Gold.PLP.Chemscore.CHOScore>
0.0000

> <Gold.PLP.Chemscore.Metal>
0.0000

> <Gold.Chemscore.Hbonds>
donor molecule, donor type, donor heavy atom, donor atom, acceptor molecule, acceptor atom, score
      L1  H    18    37       P1  8028  1.00
      P1  H  6896  6909       L1     3  0.76
      P1  H  7997  8010       L1     9  1.00

> <Gold.PLP.Chemscore.Internal.Correction>
0.0198

> <Gold.Rescore>
     Score         DG    S(hbond)    S(metal)    S(lipo)     H(rot)  DE(clash)    DE(int)     intcor
     15.82     -17.72       2.20        0.00      85.41       1.99       0.23       1.67       ----

> <Gold.Chemscore.Fitness>
15.8232

> <Gold.Chemscore.DG>
-17.7177

> <Gold.Chemscore.ZeroCoef>
-5.4800

> <Gold.Chemscore.Hbond>
2.1957

> <Gold.Chemscore.Metal>
0.0000

> <Gold.Chemscore.Lipo>
85.4058

> <Gold.Chemscore.Internal_Hbond>
0.0000

> <Gold.Chemscore.DEClash>
0.2272

> <Gold.Chemscore.DEInternal>
1.6673

> <Gold.Chemscore.Rot>
1.9877

> <Gold.Chemscore.Internal.Correction>
   9.000000E+99

> <Gold.Chemscore.Hbonds>
donor molecule, donor type, donor heavy atom, donor atom, acceptor molecule, acceptor atom, score
      L1  H    18    37       P1  8028  0.25
      P1  H  6896  6909       L1     3  0.13
      P1  H  7997  8010       L1     9  1.00

> <Gold.Chemscore.Hbond.Weighted>
-7.3338

> <Gold.Chemscore.Metal.Weighted>
-0.0000

> <Gold.Chemscore.Lipo.Weighted>
-9.9925

> <Gold.Chemscore.Internal_Hbond.Weighted>
0.0000

> <Gold.Chemscore.DEClash.Weighted>
0.2272

> <Gold.Chemscore.DEInternal.Weighted>
1.6673

> <Gold.Chemscore.Rot.Weighted>
5.0885

> <Gold.Chemscore.Internal.Correction.Weighted>
   9.000000E+99

> <Gold.Protein.RotatedTorsions>
[ 6907 6896 6895 6894 ] final   43.36 input  -60.11 | X-H torsion
[ 7974 7965 7964 7962 ] final  -28.92 input  175.53 | X-H torsion
[ 8008 7997 7996 7995 ] final   24.48 input   59.86 | X-H torsion
[ 10167 10162 10161 10158 ] final  149.14 input  -65.29 | X-H torsion
[ 10718 10713 10712 10709 ] final   84.30 input   66.30 | X-H torsion
[ 10763 10752 10751 10750 ] final -121.42 input  -60.55 | X-H torsion
[ 11005 11000 10999 10996 ] final  -53.68 input  -57.11 | X-H torsion

> <Gold.Protein.ActiveResidues>
 VAL166  LYS551  ARG553  GLY616  TRP617  ASP618  TYR619  PRO620  LYS621  CYS622 
 ASP623  PHE694  ASN695  SER759  ASP760  ASP761  ALA762  ILE779  LEU786  VAL792 
 PHE793  MET794  SER795  GLU796  ALA797  LYS798  CYS799  TRP800  GLU811  SER814 

> <Gold.Protein.RotatedAtoms>
  152.2193  134.8428  160.0487 H   0  0  0  0  0  0  0  0  0  0  0  0  # atno 6907 bound_to 6896
  151.9217  133.3582  159.3907 H   0  0  0  0  0  0  0  0  0  0  0  0  # atno 6908 bound_to 6896
  150.6996  134.4553  159.5399 H   0  0  0  0  0  0  0  0  0  0  0  0  # atno 6909 bound_to 6896
  146.1254  140.5345  142.8717 H   0  0  0  0  0  0  0  0  0  0  0  0  # atno 7974 bound_to 7965
  154.9969  140.3120  155.4883 H   0  0  0  0  0  0  0  0  0  0  0  0  # atno 8008 bound_to 7997
  156.2931  140.2239  156.5017 H   0  0  0  0  0  0  0  0  0  0  0  0  # atno 8009 bound_to 7997
  154.7653  140.0456  157.0995 H   0  0  0  0  0  0  0  0  0  0  0  0  # atno 8010 bound_to 7997
  139.4865  144.5625  151.7205 H   0  0  0  0  0  0  0  0  0  0  0  0  # atno 10167 bound_to 10162
  157.6895  131.0127  150.2652 H   0  0  0  0  0  0  0  0  0  0  0  0  # atno 10718 bound_to 10713
  154.8668  135.4168  154.2618 H   0  0  0  0  0  0  0  0  0  0  0  0  # atno 10763 bound_to 10752
  153.3545  135.7000  153.6768 H   0  0  0  0  0  0  0  0  0  0  0  0  # atno 10764 bound_to 10752
  153.5694  135.3594  155.2804 H   0  0  0  0  0  0  0  0  0  0  0  0  # atno 10765 bound_to 10752
  141.0988  133.6621  156.4208 H   0  0  0  0  0  0  0  0  0  0  0  0  # atno 11005 bound_to 11000
  144.7637  140.5481  143.6718 LP  0  0  0  0  0  0  0  0  0  0  0  0  # atno 17320 bound_to 7965
  145.5377  139.1475  143.3464 LP  0  0  0  0  0  0  0  0  0  0  0  0  # atno 17321 bound_to 7965
  140.5197  144.0898  150.6019 LP  0  0  0  0  0  0  0  0  0  0  0  0  # atno 17342 bound_to 10162
  140.3852  143.2781  152.0125 LP  0  0  0  0  0  0  0  0  0  0  0  0  # atno 17343 bound_to 10162
  156.3224  130.3788  149.7563 LP  0  0  0  0  0  0  0  0  0  0  0  0  # atno 17370 bound_to 10713
  156.5129  130.8180  151.3175 LP  0  0  0  0  0  0  0  0  0  0  0  0  # atno 17371 bound_to 10713
  140.5074  134.6428  157.5271 LP  0  0  0  0  0  0  0  0  0  0  0  0  # atno 17394 bound_to 11000
  139.9833  134.7102  155.9820 LP  0  0  0  0  0  0  0  0  0  0  0  0  # atno 17395 bound_to 11000

$$$$
