AV-unprocessed.smi:244|AV-procd|sdf|1867|dock9
  -GOLD-   2262020503D 1   1.00000     0.00000
 Structure written by MMmdl.
 57 61  0  0  0  0  0  0  0  0  2 V2000
  145.7282  137.8809  151.9235 C   0  0  0  0  0  0  0  0  0  0  0  0
  146.4970  137.0547  152.8784 N   0  3  2  0  0  0  0  0  0  0  0  0
  146.0879  135.6287  152.8526 C   0  0  0  0  0  0  0  0  0  0  0  0
  147.0172  134.7805  153.7340 C   0  0  0  0  0  0  0  0  0  0  0  0
  147.0692  135.3297  155.1766 C   0  0  1  0  0  0  0  0  0  0  0  0
  147.9538  134.5863  156.0177 O   0  0  0  0  0  0  0  0  0  0  0  0
  149.3391  134.7479  155.7188 C   0  0  0  0  0  0  0  0  0  0  0  0
  149.7181  136.2351  155.7615 C   0  0  0  0  0  0  0  0  0  0  0  0
  148.8494  137.0038  154.8778 N   0  0  0  0  0  0  0  0  0  0  0  0
  149.2668  138.2791  154.7260 C   0  0  0  0  0  0  0  0  0  0  0  0
  148.8401  138.9357  153.6199 N   0  0  0  0  0  0  0  0  0  0  0  0
  149.2024  140.2063  153.4191 C   0  0  0  0  0  0  0  0  0  0  0  0
  149.9646  140.9883  154.1866 N   0  0  0  0  0  0  0  0  0  0  0  0
  150.3885  140.3297  155.3035 C   0  0  0  0  0  0  0  0  0  0  0  0
  150.0898  138.9826  155.6496 C   0  0  0  0  0  0  0  0  0  0  0  0
  150.6912  138.6576  156.8591 N   0  0  0  0  0  0  0  0  0  0  0  0
  151.3199  139.7483  157.2036 C   0  0  0  0  0  0  0  0  0  0  0  0
  151.1810  140.8060  156.3329 N   0  0  0  0  0  0  0  0  0  0  0  0
  151.7609  142.1332  156.4722 C   0  0  0  0  0  0  0  0  0  0  0  0
  151.3985  142.8441  157.8001 C   0  0  0  0  0  0  0  0  0  0  0  0
  149.9873  142.8311  157.9306 O   0  0  0  0  0  0  0  0  0  0  0  0
  152.0072  142.1431  159.0346 C   0  0  0  0  0  0  0  0  0  0  0  0
  151.8268  142.9711  160.3195 C   0  0  0  0  0  0  0  0  0  0  0  0
  152.3637  144.2759  160.1417 O   0  0  0  0  0  0  0  0  0  0  0  0
  151.6934  145.0116  159.1256 C   0  0  0  0  0  0  0  0  0  0  0  0
  151.8711  144.3116  157.7666 C   0  0  0  0  0  0  0  0  0  0  0  0
  147.4288  136.8338  155.1974 C   0  0  1  0  0  0  0  0  0  0  0  0
  146.4722  137.6086  154.2553 C   0  0  0  0  0  0  0  0  0  0  0  0
  144.6701  137.9025  152.1876 H   0  0  0  0  0  0  0  0  0  0  0  0
  145.8213  137.4863  150.9112 H   0  0  0  0  0  0  0  0  0  0  0  0
  146.1014  138.9056  151.9146 H   0  0  0  0  0  0  0  0  0  0  0  0
  145.0548  135.5359  153.1914 H   0  0  0  0  0  0  0  0  0  0  0  0
  146.1203  135.2561  151.8279 H   0  0  0  0  0  0  0  0  0  0  0  0
  146.6799  133.7438  153.7424 H   0  0  0  0  0  0  0  0  0  0  0  0
  148.0073  134.7789  153.2796 H   0  0  0  0  0  0  0  0  0  0  0  0
  146.0734  135.2145  155.6065 H   0  0  0  0  0  0  0  0  0  0  0  0
  149.9212  134.1959  156.4569 H   0  0  0  0  0  0  0  0  0  0  0  0
  149.5816  134.3113  154.7503 H   0  0  0  0  0  0  0  0  0  0  0  0
  149.6268  136.6032  156.7840 H   0  0  0  0  0  0  0  0  0  0  0  0
  150.7607  136.3617  155.4665 H   0  0  0  0  0  0  0  0  0  0  0  0
  148.8262  140.6642  152.5159 H   0  0  0  0  0  0  0  0  0  0  0  0
  151.8982  139.8156  158.1139 H   0  0  0  0  0  0  0  0  0  0  0  0
  152.8439  142.0356  156.3848 H   0  0  0  0  0  0  0  0  0  0  0  0
  151.4431  142.7368  155.6206 H   0  0  0  0  0  0  0  0  0  0  0  0
  149.6455  142.1069  157.4286 H   0  0  0  0  0  0  0  0  0  0  0  0
  151.5712  141.1536  159.1756 H   0  0  0  0  0  0  0  0  0  0  0  0
  153.0741  141.9873  158.8688 H   0  0  0  0  0  0  0  0  0  0  0  0
  150.7750  143.0338  160.6024 H   0  0  0  0  0  0  0  0  0  0  0  0
  152.3462  142.4890  161.1477 H   0  0  0  0  0  0  0  0  0  0  0  0
  150.6378  145.1247  159.3769 H   0  0  0  0  0  0  0  0  0  0  0  0
  152.1162  146.0156  159.0846 H   0  0  0  0  0  0  0  0  0  0  0  0
  152.9286  144.3427  157.5013 H   0  0  0  0  0  0  0  0  0  0  0  0
  151.3454  144.8659  156.9880 H   0  0  0  0  0  0  0  0  0  0  0  0
  147.2775  137.2043  156.2125 H   0  0  0  0  0  0  0  0  0  0  0  0
  146.7162  138.6714  154.2366 H   0  0  0  0  0  0  0  0  0  0  0  0
  145.4532  137.5460  154.6408 H   0  0  0  0  0  0  0  0  0  0  0  0
  147.4595  137.0878  152.5725 H   0  0  0  0  0  0  0  0  0  0  0  0
  1  2  1  0  0  0  0
  1 29  1  0  0  0  0
  1 30  1  0  0  0  0
  1 31  1  0  0  0  0
  2 28  1  0  0  0  0
  2  3  1  0  0  0  0
  2 57  1  0  0  0  0
  3  4  1  0  0  0  0
  3 32  1  0  0  0  0
  3 33  1  0  0  0  0
  4  5  1  0  0  0  0
  4 34  1  0  0  0  0
  4 35  1  0  0  0  0
  5 27  1  0  0  0  0
  5  6  1  0  0  0  0
  5 36  1  0  0  0  0
  6  7  1  0  0  0  0
  7  8  1  0  0  0  0
  7 37  1  0  0  0  0
  7 38  1  0  0  0  0
  8  9  1  0  0  0  0
  8 39  1  0  0  0  0
  8 40  1  0  0  0  0
  9 10  1  0  0  0  0
  9 27  1  0  0  0  0
 10 15  1  0  0  0  0
 10 11  2  0  0  0  0
 11 12  1  0  0  0  0
 12 13  2  0  0  0  0
 12 41  1  0  0  0  0
 13 14  1  0  0  0  0
 14 18  1  0  0  0  0
 14 15  2  0  0  0  0
 15 16  1  0  0  0  0
 16 17  2  0  0  0  0
 17 18  1  0  0  0  0
 17 42  1  0  0  0  0
 18 19  1  0  0  0  0
 19 20  1  0  0  0  0
 19 43  1  0  0  0  0
 19 44  1  0  0  0  0
 20 26  1  0  0  0  0
 20 21  1  0  0  0  0
 20 22  1  0  0  0  0
 21 45  1  0  0  0  0
 22 23  1  0  0  0  0
 22 46  1  0  0  0  0
 22 47  1  0  0  0  0
 23 24  1  0  0  0  0
 23 48  1  0  0  0  0
 23 49  1  0  0  0  0
 24 25  1  0  0  0  0
 25 26  1  0  0  0  0
 25 50  1  0  0  0  0
 25 51  1  0  0  0  0
 26 52  1  0  0  0  0
 26 53  1  0  0  0  0
 27 28  1  0  0  0  0
 27 54  1  0  0  0  0
 28 55  1  0  0  0  0
 28 56  1  0  0  0  0
M  CHG  1   2   1
M  END
> <s_m_source_file>
AV-unprocessed.smi

> <i_m_source_file_index>
244

> <i_lp_mmshare_version>
43012

> <i_f3d_flags>
0

> <s_epik_input>
W0NIMl0xW0NIMl1OKFtDSDNdKVtDSDJdW0NAQEhdKFtDQEhdMTIpTihbQ0gyXVtDSDJdTzIpYyhuW2NIXW4zKWMoYzM0KW5bY0hdbjRbQ0gyXUM1KFtPSF0pW0NIMl1bQ0gyXU9bQ0gyXVtDSDJdNQ==

> <s_epik_cmdline>
J2VwaWtfcHl0aG9uJywgJy1waCcsICc3LjAnLCAnLXRuJywgJzgnLCAnLW1hJywgJzIwMCcsICctbWV0YWxfYmluZGluZycsICctaW1hZScsICc8aW5maWxlLm1hZT4nLCAnLW9tYWUnLCAnPG91dGZpbGUubWFlPic=

> <r_lp_tautomer_probability>
1

> <r_epik_Ionization_Penalty>
0.0136215

> <r_epik_Ionization_Penalty_Charging>
0.0131385

> <r_epik_Ionization_Penalty_Neutral>
0.000483022

> <r_epik_State_Penalty>
0.0104001

> <r_epik_Charging_Adjusted_Penalty>
0.0235387

> <i_epik_Tot_Q>
1

> <i_epik_Tot_abs_Q>
1

> <r_epik_Metal_State_Penalty>
0.0104469

> <b_epik_Metal_Only>
0

> <s_lp_Force_Field>
OPLS_2005

> <r_lp_Energy>
48.7962

> <b_lp_Chiralities_Consistent>
1

> <s_lp_Variant>
AV-unprocessed.smi:244-4

> <Gold.Version>
5.8.1

> <Gold.Id.Protein>
6NUR|6NUR_protein|mol2

> <Gold.PLP.Fitness>
42.0693

> <Gold.PLP.PLP>
-34.6743

> <Gold.PLP.part.hbond>
-2.0000

> <Gold.PLP.part.metal>
0.0000

> <Gold.PLP.part.buried>
-2.1827

> <Gold.PLP.part.nonpolar>
-30.6685

> <Gold.PLP.part.repulsive>
0.5295

> <Gold.PLP.ligand.clash>
0.0000

> <Gold.PLP.ligand.torsion>
0.4962

> <Gold.PLP.Chemscore.Hbond>
2.1785

> <Gold.PLP.Chemscore.CHOScore>
0.5719

> <Gold.PLP.Chemscore.Metal>
0.0000

> <Gold.Chemscore.Hbonds>
donor molecule, donor type, donor heavy atom, donor atom, acceptor molecule, acceptor atom, score
      L1  H     2    57       P1  7948  1.98
      P1  H  7989  7998       L1    13  0.29
      P1  H  8011  8017       L1    13  0.02
      L1  C    12    41       P1  7957  0.07

> <Gold.PLP.Chemscore.Internal.Correction>
0.1363

> <Gold.Rescore>
     Score         DG    S(hbond)    S(metal)    S(lipo)     H(rot)  DE(clash)    DE(int)     intcor
     10.12     -13.56       0.91        0.00      88.71       2.09       0.21       3.24       ----

> <Gold.Chemscore.Fitness>
10.1157

> <Gold.Chemscore.DG>
-13.5598

> <Gold.Chemscore.ZeroCoef>
-5.4800

> <Gold.Chemscore.Hbond>
0.9145

> <Gold.Chemscore.Metal>
0.0000

> <Gold.Chemscore.Lipo>
88.7055

> <Gold.Chemscore.Internal_Hbond>
0.0000

> <Gold.Chemscore.DEClash>
0.2083

> <Gold.Chemscore.DEInternal>
3.2358

> <Gold.Chemscore.Rot>
2.0911

> <Gold.Chemscore.Internal.Correction>
   9.000000E+99

> <Gold.Chemscore.Hbonds>
donor molecule, donor type, donor heavy atom, donor atom, acceptor molecule, acceptor atom, score
      L1  H     2    57       P1  7948  0.94
      P1  H  7989  7998       L1    13  0.01

> <Gold.Chemscore.Hbond.Weighted>
-3.0543

> <Gold.Chemscore.Metal.Weighted>
-0.0000

> <Gold.Chemscore.Lipo.Weighted>
-10.3785

> <Gold.Chemscore.Internal_Hbond.Weighted>
0.0000

> <Gold.Chemscore.DEClash.Weighted>
0.2083

> <Gold.Chemscore.DEInternal.Weighted>
3.2358

> <Gold.Chemscore.Rot.Weighted>
5.3531

> <Gold.Chemscore.Internal.Correction.Weighted>
   9.000000E+99

> <Gold.Protein.RotatedTorsions>
[ 6907 6896 6895 6894 ] final  -20.15 input  -60.11 | X-H torsion
[ 7974 7965 7964 7962 ] final   33.50 input  175.53 | X-H torsion
[ 8008 7997 7996 7995 ] final  144.33 input   59.86 | X-H torsion
[ 10167 10162 10161 10158 ] final -153.84 input  -65.29 | X-H torsion
[ 10718 10713 10712 10709 ] final  104.07 input   66.30 | X-H torsion
[ 10763 10752 10751 10750 ] final   52.18 input  -60.55 | X-H torsion
[ 11005 11000 10999 10996 ] final  -80.51 input  -57.11 | X-H torsion

> <Gold.Protein.ActiveResidues>
 VAL166  LYS551  ARG553  GLY616  TRP617  ASP618  TYR619  PRO620  LYS621  CYS622 
 ASP623  PHE694  ASN695  SER759  ASP760  ASP761  ALA762  ILE779  LEU786  VAL792 
 PHE793  MET794  SER795  GLU796  ALA797  LYS798  CYS799  TRP800  GLU811  SER814 

> <Gold.Protein.RotatedAtoms>
  151.2524  135.0626  159.9066 H   0  0  0  0  0  0  0  0  0  0  0  0  # atno 6907 bound_to 6896
  152.5378  134.0318  159.8038 H   0  0  0  0  0  0  0  0  0  0  0  0  # atno 6908 bound_to 6896
  151.0528  133.5560  159.2672 H   0  0  0  0  0  0  0  0  0  0  0  0  # atno 6909 bound_to 6896
  146.1416  139.6389  142.9159 H   0  0  0  0  0  0  0  0  0  0  0  0  # atno 7974 bound_to 7965
  156.2910  140.2238  156.5036 H   0  0  0  0  0  0  0  0  0  0  0  0  # atno 8008 bound_to 7997
  154.7669  140.0469  157.1041 H   0  0  0  0  0  0  0  0  0  0  0  0  # atno 8009 bound_to 7997
  154.9922  140.3091  155.4905 H   0  0  0  0  0  0  0  0  0  0  0  0  # atno 8010 bound_to 7997
  139.7063  143.9181  152.2450 H   0  0  0  0  0  0  0  0  0  0  0  0  # atno 10167 bound_to 10162
  157.6752  131.0794  150.5650 H   0  0  0  0  0  0  0  0  0  0  0  0  # atno 10718 bound_to 10713
  152.9788  135.5821  154.4537 H   0  0  0  0  0  0  0  0  0  0  0  0  # atno 10763 bound_to 10752
  154.4122  135.2770  155.2031 H   0  0  0  0  0  0  0  0  0  0  0  0  # atno 10764 bound_to 10752
  154.3816  135.6145  153.5848 H   0  0  0  0  0  0  0  0  0  0  0  0  # atno 10765 bound_to 10752
  141.1668  133.7153  156.8283 H   0  0  0  0  0  0  0  0  0  0  0  0  # atno 11005 bound_to 11000
  145.5033  141.0437  143.2528 LP  0  0  0  0  0  0  0  0  0  0  0  0  # atno 17320 bound_to 7965
  144.7799  139.6548  143.7159 LP  0  0  0  0  0  0  0  0  0  0  0  0  # atno 17321 bound_to 7965
  139.9038  144.6896  150.8636 LP  0  0  0  0  0  0  0  0  0  0  0  0  # atno 17342 bound_to 10162
  140.7722  143.3494  151.2045 LP  0  0  0  0  0  0  0  0  0  0  0  0  # atno 17343 bound_to 10162
  156.5952  130.4340  149.5920 LP  0  0  0  0  0  0  0  0  0  0  0  0  # atno 17370 bound_to 10713
  156.2551  130.6929  151.1680 LP  0  0  0  0  0  0  0  0  0  0  0  0  # atno 17371 bound_to 10713
  140.2069  134.8856  157.3232 LP  0  0  0  0  0  0  0  0  0  0  0  0  # atno 17394 bound_to 11000
  140.2128  134.4118  155.7604 LP  0  0  0  0  0  0  0  0  0  0  0  0  # atno 17395 bound_to 11000

$$$$
