AV-unprocessed.smi:1032|AV-procd|sdf|4485|dock3
  -GOLD-   22720 2463D 1   1.00000     0.00000
 Structure written by MMmdl.
 46 47  0  0  0  0  0  0  0  0  2 V2000
  144.8179  143.6955  157.0591 C   0  0  0  0  0  0  0  0  0  0  0  0
  144.1439  143.1449  155.7902 C   0  0  2  0  0  0  0  0  0  0  0  0
  143.9714  141.6152  155.8215 C   0  0  0  0  0  0  0  0  0  0  0  0
  145.3008  140.8727  155.5956 C   0  0  0  0  0  0  0  0  0  0  0  0
  145.9478  141.3021  154.3276 N   0  3  2  0  0  0  0  0  0  0  0  0
  147.1681  140.5217  153.9969 C   0  0  0  0  0  0  0  0  0  0  0  0
  146.9403  139.5303  152.8374 C   0  0  1  0  0  0  0  0  0  0  0  0
  148.2094  139.0213  152.4761 O   0  0  0  0  0  0  0  0  0  0  0  0
  146.0461  138.3502  153.2702 C   0  0  0  0  0  0  0  0  0  0  0  0
  146.3874  137.1183  152.5662 N   0  0  0  0  0  0  0  0  0  0  0  0
  145.5065  136.1891  152.1688 C   0  0  0  0  0  0  0  0  0  0  0  0
  144.2971  136.2701  152.3819 O   0  0  0  0  0  0  0  0  0  0  0  0
  146.1220  135.1708  151.5431 N   0  0  0  0  0  0  0  0  0  0  0  0
  145.5458  134.0185  150.9422 C   0  0  0  0  0  0  0  0  0  0  0  0
  146.4202  133.0245  150.4559 C   0  0  0  0  0  0  0  0  0  0  0  0
  145.8737  131.8827  149.8368 C   0  0  0  0  0  0  0  0  0  0  0  0
  144.5478  131.6903  149.6738 N   0  0  0  0  0  0  0  0  0  0  0  0
  143.7128  132.6489  150.1275 C   0  0  0  0  0  0  0  0  0  0  0  0
  144.1546  133.8273  150.7617 C   0  0  0  0  0  0  0  0  0  0  0  0
  146.1908  142.7673  154.3064 C   0  0  0  0  0  0  0  0  0  0  0  0
  144.8807  143.5514  154.5011 C   0  0  0  0  0  0  0  0  0  0  0  0
  145.8294  143.3118  157.1892 H   0  0  0  0  0  0  0  0  0  0  0  0
  144.2478  143.4298  157.9496 H   0  0  0  0  0  0  0  0  0  0  0  0
  144.8803  144.7836  157.0258 H   0  0  0  0  0  0  0  0  0  0  0  0
  143.1477  143.5883  155.7543 H   0  0  0  0  0  0  0  0  0  0  0  0
  143.5243  141.3046  156.7666 H   0  0  0  0  0  0  0  0  0  0  0  0
  143.2668  141.3196  155.0430 H   0  0  0  0  0  0  0  0  0  0  0  0
  145.9800  141.0464  156.4312 H   0  0  0  0  0  0  0  0  0  0  0  0
  145.1040  139.8013  155.5746 H   0  0  0  0  0  0  0  0  0  0  0  0
  147.9776  141.1981  153.7162 H   0  0  0  0  0  0  0  0  0  0  0  0
  147.5104  139.9988  154.8912 H   0  0  0  0  0  0  0  0  0  0  0  0
  146.4928  140.0360  151.9815 H   0  0  0  0  0  0  0  0  0  0  0  0
  148.1283  138.0910  152.3244 H   0  0  0  0  0  0  0  0  0  0  0  0
  146.0561  138.2105  154.3530 H   0  0  0  0  0  0  0  0  0  0  0  0
  145.0101  138.5646  153.0065 H   0  0  0  0  0  0  0  0  0  0  0  0
  147.3634  136.9695  152.3548 H   0  0  0  0  0  0  0  0  0  0  0  0
  147.1306  135.2056  151.5256 H   0  0  0  0  0  0  0  0  0  0  0  0
  147.4909  133.1278  150.5565 H   0  0  0  0  0  0  0  0  0  0  0  0
  146.5200  131.1035  149.4603 H   0  0  0  0  0  0  0  0  0  0  0  0
  142.6578  132.4753  149.9744 H   0  0  0  0  0  0  0  0  0  0  0  0
  143.4254  134.5564  151.0795 H   0  0  0  0  0  0  0  0  0  0  0  0
  146.9167  143.0308  155.0768 H   0  0  0  0  0  0  0  0  0  0  0  0
  146.6314  143.0517  153.3501 H   0  0  0  0  0  0  0  0  0  0  0  0
  144.2297  143.3673  153.6451 H   0  0  0  0  0  0  0  0  0  0  0  0
  145.0812  144.6233  154.5018 H   0  0  0  0  0  0  0  0  0  0  0  0
  145.2904  141.1187  153.5823 H   0  0  0  0  0  0  0  0  0  0  0  0
  1  2  1  0  0  0  0
  1 22  1  0  0  0  0
  1 23  1  0  0  0  0
  1 24  1  0  0  0  0
  2 21  1  0  0  0  0
  2  3  1  0  0  0  0
  2 25  1  0  0  0  0
  3  4  1  0  0  0  0
  3 26  1  0  0  0  0
  3 27  1  0  0  0  0
  4  5  1  0  0  0  0
  4 28  1  0  0  0  0
  4 29  1  0  0  0  0
  5  6  1  0  0  0  0
  5 20  1  0  0  0  0
  5 46  1  0  0  0  0
  6  7  1  0  0  0  0
  6 30  1  0  0  0  0
  6 31  1  0  0  0  0
  7  8  1  0  0  0  0
  7  9  1  0  0  0  0
  7 32  1  0  0  0  0
  8 33  1  0  0  0  0
  9 10  1  0  0  0  0
  9 34  1  0  0  0  0
  9 35  1  0  0  0  0
 10 11  1  0  0  0  0
 10 36  1  0  0  0  0
 11 12  2  0  0  0  0
 11 13  1  0  0  0  0
 13 14  1  0  0  0  0
 13 37  1  0  0  0  0
 14 19  1  0  0  0  0
 14 15  2  0  0  0  0
 15 16  1  0  0  0  0
 15 38  1  0  0  0  0
 16 17  2  0  0  0  0
 16 39  1  0  0  0  0
 17 18  1  0  0  0  0
 18 19  2  0  0  0  0
 18 40  1  0  0  0  0
 19 41  1  0  0  0  0
 20 21  1  0  0  0  0
 20 42  1  0  0  0  0
 20 43  1  0  0  0  0
 21 44  1  0  0  0  0
 21 45  1  0  0  0  0
M  CHG  1   5   1
M  END
> <s_m_source_file>
AV-unprocessed.smi

> <i_m_source_file_index>
1032

> <i_lp_mmshare_version>
43012

> <i_f3d_flags>
0

> <s_epik_input>
W0NIM11bQ0hdMVtDSDJdW0NIMl1OKFtDSDJdW0NIMl0xKVtDSDJdW0NASF0oW09IXSlbQ0gyXVtOSF1DKD1PKVtOSF1jMltjSF1bY0hdbltjSF1bY0hdMg==

> <s_epik_cmdline>
J2VwaWtfcHl0aG9uJywgJy1waCcsICc3LjAnLCAnLXRuJywgJzgnLCAnLW1hJywgJzIwMCcsICctbWV0YWxfYmluZGluZycsICctaW1hZScsICc8aW5maWxlLm1hZT4nLCAnLW9tYWUnLCAnPG91dGZpbGUubWFlPic=

> <r_epik_Ionization_Penalty>
0.11743

> <r_epik_Ionization_Penalty_Charging>
0.00147689

> <r_epik_Ionization_Penalty_Neutral>
0.115954

> <r_epik_State_Penalty>
0.105552

> <r_epik_Charging_Adjusted_Penalty>
0.107029

> <i_epik_Tot_Q>
1

> <i_epik_Tot_abs_Q>
1

> <r_epik_Metal_State_Penalty>
0.0881315

> <b_epik_Metal_Only>
0

> <s_lp_Force_Field>
OPLS_2005

> <r_lp_Energy>
26.5428

> <b_lp_Chiralities_Consistent>
1

> <s_lp_Variant>
AV-unprocessed.smi:1032-4

> <Gold.Version>
5.8.1

> <Gold.Id.Protein>
6NUR|6NUR_protein|mol2

> <Gold.PLP.Fitness>
54.3220

> <Gold.PLP.PLP>
-35.9416

> <Gold.PLP.part.hbond>
-4.3206

> <Gold.PLP.part.metal>
0.0000

> <Gold.PLP.part.buried>
-4.0629

> <Gold.PLP.part.nonpolar>
-29.0871

> <Gold.PLP.part.repulsive>
0.4130

> <Gold.PLP.ligand.clash>
0.0000

> <Gold.PLP.ligand.torsion>
1.3139

> <Gold.PLP.Chemscore.Hbond>
5.1286

> <Gold.PLP.Chemscore.CHOScore>
1.8563

> <Gold.PLP.Chemscore.Metal>
0.0000

> <Gold.Chemscore.Hbonds>
donor molecule, donor type, donor heavy atom, donor atom, acceptor molecule, acceptor atom, score
      L1  H     5    46       P1 10175  1.95
      L1  H     8    33       P1  7948  0.93
      L1  H    10    36       P1  7948  1.00
      L1  H    13    37       P1  7948  0.89
      P1  H 10785 10796       L1    17  0.23
      L1  C    16    39       P1 10747  0.76
      L1  C    18    40       P1 10186  0.74
      L1  C    18    40       P1 10952  0.25

> <Gold.PLP.Chemscore.Internal.Correction>
0.0536

> <Gold.Rescore>
     Score         DG    S(hbond)    S(metal)    S(lipo)     H(rot)  DE(clash)    DE(int)     intcor
     18.38     -21.07       3.62        0.00      79.97       2.29       0.22       2.47       ----

> <Gold.Chemscore.Fitness>
18.3831

> <Gold.Chemscore.DG>
-21.0686

> <Gold.Chemscore.ZeroCoef>
-5.4800

> <Gold.Chemscore.Hbond>
3.6186

> <Gold.Chemscore.Metal>
0.0000

> <Gold.Chemscore.Lipo>
79.9653

> <Gold.Chemscore.Internal_Hbond>
0.0000

> <Gold.Chemscore.DEClash>
0.2190

> <Gold.Chemscore.DEInternal>
2.4665

> <Gold.Chemscore.Rot>
2.2865

> <Gold.Chemscore.Internal.Correction>
   9.000000E+99

> <Gold.Chemscore.Hbonds>
donor molecule, donor type, donor heavy atom, donor atom, acceptor molecule, acceptor atom, score
      L1  H     5    46       P1 10175  0.50
      L1  H     8    33       P1  7948  0.84
      L1  H    10    36       P1  7948  1.00
      L1  H    13    37       P1  7948  0.78
      P1  H 10785 10796       L1    17  0.13

> <Gold.Chemscore.Hbond.Weighted>
-12.0862

> <Gold.Chemscore.Metal.Weighted>
-0.0000

> <Gold.Chemscore.Lipo.Weighted>
-9.3559

> <Gold.Chemscore.Internal_Hbond.Weighted>
0.0000

> <Gold.Chemscore.DEClash.Weighted>
0.2190

> <Gold.Chemscore.DEInternal.Weighted>
2.4665

> <Gold.Chemscore.Rot.Weighted>
5.8536

> <Gold.Chemscore.Internal.Correction.Weighted>
   9.000000E+99

> <Gold.Protein.RotatedTorsions>
[ 6907 6896 6895 6894 ] final  -99.54 input  -60.11 | X-H torsion
[ 7974 7965 7964 7962 ] final  152.60 input  175.53 | X-H torsion
[ 8008 7997 7996 7995 ] final -138.72 input   59.86 | X-H torsion
[ 10167 10162 10161 10158 ] final  141.98 input  -65.29 | X-H torsion
[ 10718 10713 10712 10709 ] final   51.13 input   66.30 | X-H torsion
[ 10763 10752 10751 10750 ] final  -16.60 input  -60.55 | X-H torsion
[ 11005 11000 10999 10996 ] final    4.40 input  -57.11 | X-H torsion

> <Gold.Protein.ActiveResidues>
 VAL166  LYS551  ARG553  GLY616  TRP617  ASP618  TYR619  PRO620  LYS621  CYS622 
 ASP623  PHE694  ASN695  SER759  ASP760  ASP761  ALA762  ILE779  LEU786  VAL792 
 PHE793  MET794  SER795  GLU796  ALA797  LYS798  CYS799  TRP800  GLU811  SER814 

> <Gold.Protein.RotatedAtoms>
  150.7084  134.1024  159.3970 H   0  0  0  0  0  0  0  0  0  0  0  0  # atno 6907 bound_to 6896
  151.9011  135.0376  160.0515 H   0  0  0  0  0  0  0  0  0  0  0  0  # atno 6908 bound_to 6896
  152.2413  133.5103  159.5308 H   0  0  0  0  0  0  0  0  0  0  0  0  # atno 6909 bound_to 6896
  144.8211  139.6690  143.6100 H   0  0  0  0  0  0  0  0  0  0  0  0  # atno 7974 bound_to 7965
  155.4330  140.0526  157.3017 H   0  0  0  0  0  0  0  0  0  0  0  0  # atno 8008 bound_to 7997
  154.4851  140.2097  155.9631 H   0  0  0  0  0  0  0  0  0  0  0  0  # atno 8009 bound_to 7997
  156.1263  140.3179  155.8287 H   0  0  0  0  0  0  0  0  0  0  0  0  # atno 8010 bound_to 7997
  139.5006  144.6136  151.6214 H   0  0  0  0  0  0  0  0  0  0  0  0  # atno 10167 bound_to 10162
  157.4951  130.8401  149.8249 H   0  0  0  0  0  0  0  0  0  0  0  0  # atno 10718 bound_to 10713
  153.5610  135.7009  153.5547 H   0  0  0  0  0  0  0  0  0  0  0  0  # atno 10763 bound_to 10752
  153.3429  135.4016  155.1586 H   0  0  0  0  0  0  0  0  0  0  0  0  # atno 10764 bound_to 10752
  154.8648  135.3746  154.5127 H   0  0  0  0  0  0  0  0  0  0  0  0  # atno 10765 bound_to 10752
  140.5823  134.0001  155.8053 H   0  0  0  0  0  0  0  0  0  0  0  0  # atno 11005 bound_to 11000
  146.2516  139.6212  142.9423 LP  0  0  0  0  0  0  0  0  0  0  0  0  # atno 17320 bound_to 7965
  145.5103  141.0435  143.2491 LP  0  0  0  0  0  0  0  0  0  0  0  0  # atno 17321 bound_to 7965
  140.5818  143.9933  150.6273 LP  0  0  0  0  0  0  0  0  0  0  0  0  # atno 17342 bound_to 10162
  140.3084  143.3214  152.0903 LP  0  0  0  0  0  0  0  0  0  0  0  0  # atno 17343 bound_to 10162
  156.0196  130.3800  150.2003 LP  0  0  0  0  0  0  0  0  0  0  0  0  # atno 17370 bound_to 10713
  157.0192  130.9974  151.3344 LP  0  0  0  0  0  0  0  0  0  0  0  0  # atno 17371 bound_to 10713
  141.0988  133.9801  157.3114 LP  0  0  0  0  0  0  0  0  0  0  0  0  # atno 17394 bound_to 11000
  139.9311  135.0200  156.8404 LP  0  0  0  0  0  0  0  0  0  0  0  0  # atno 17395 bound_to 11000

$$$$
