AV-unprocessed.smi:2282|AV-procd|sdf|9198|dock2
  -GOLD-   2272012413D 1   1.00000     0.00000
 Structure written by MMmdl.
 32 33  0  0  0  0  0  0  0  0  1 V2000
  151.7699  145.4474  159.9788 C   0  0  0  0  0  0  0  0  0  0  0  0
  152.0490  143.9596  159.8747 C   0  0  0  0  0  0  0  0  0  0  0  0
  152.5591  143.3808  160.9838 N   0  0  0  0  0  0  0  0  0  0  0  0
  152.8331  142.0607  160.9426 C   0  0  0  0  0  0  0  0  0  0  0  0
  152.6095  141.2582  159.8076 C   0  0  0  0  0  0  0  0  0  0  0  0
  152.0601  141.8586  158.6499 C   0  0  0  0  0  0  0  0  0  0  0  0
  151.8138  141.1477  157.4442 N   0  0  0  0  0  0  0  0  0  0  0  0
  152.3137  139.9641  157.0425 C   0  0  0  0  0  0  0  0  0  0  0  0
  153.1364  139.3062  157.6792 O   0  0  0  0  0  0  0  0  0  0  0  0
  151.8053  139.4325  155.6893 C   0  0  1  0  0  0  0  0  0  0  0  0
  150.9172  138.1771  155.8159 C   0  0  0  0  0  0  0  0  0  0  0  0
  149.5840  138.5957  155.2174 C   0  0  0  0  0  0  0  0  0  0  0  0
  149.6173  140.1147  155.3391 C   0  0  2  0  0  0  0  0  0  0  0  0
  148.6874  140.8479  154.3672 C   0  0  0  0  0  0  0  0  0  0  0  0
  150.9763  140.4071  155.0511 O   0  0  0  0  0  0  0  0  0  0  0  0
  151.7857  143.2458  158.6821 C   0  0  0  0  0  0  0  0  0  0  0  0
  151.1323  144.0509  157.2941 Cl  0  0  0  0  0  0  0  0  0  0  0  0
  150.7110  145.6472  159.8139 H   0  0  0  0  0  0  0  0  0  0  0  0
  152.3445  145.9940  159.2306 H   0  0  0  0  0  0  0  0  0  0  0  0
  152.0382  145.8385  160.9610 H   0  0  0  0  0  0  0  0  0  0  0  0
  153.2507  141.6306  161.8409 H   0  0  0  0  0  0  0  0  0  0  0  0
  152.8734  140.2125  159.8422 H   0  0  0  0  0  0  0  0  0  0  0  0
  151.0919  141.5363  156.8539 H   0  0  0  0  0  0  0  0  0  0  0  0
  152.6671  139.2364  155.0506 H   0  0  0  0  0  0  0  0  0  0  0  0
  151.3404  137.3238  155.2848 H   0  0  0  0  0  0  0  0  0  0  0  0
  150.7755  137.8742  156.8546 H   0  0  0  0  0  0  0  0  0  0  0  0
  149.5455  138.3021  154.1675 H   0  0  0  0  0  0  0  0  0  0  0  0
  148.7295  138.1481  155.7254 H   0  0  0  0  0  0  0  0  0  0  0  0
  149.3973  140.4136  156.3656 H   0  0  0  0  0  0  0  0  0  0  0  0
  147.6442  140.5963  154.5596 H   0  0  0  0  0  0  0  0  0  0  0  0
  148.9106  140.5872  153.3322 H   0  0  0  0  0  0  0  0  0  0  0  0
  148.7942  141.9282  154.4694 H   0  0  0  0  0  0  0  0  0  0  0  0
  1  2  1  0  0  0  0
  1 18  1  0  0  0  0
  1 19  1  0  0  0  0
  1 20  1  0  0  0  0
  2 16  1  0  0  0  0
  2  3  2  0  0  0  0
  3  4  1  0  0  0  0
  4  5  2  0  0  0  0
  4 21  1  0  0  0  0
  5  6  1  0  0  0  0
  5 22  1  0  0  0  0
  6  7  1  0  0  0  0
  6 16  2  0  0  0  0
  7  8  1  0  0  0  0
  7 23  1  0  0  0  0
  8  9  2  0  0  0  0
  8 10  1  0  0  0  0
 10 15  1  0  0  0  0
 10 11  1  0  0  0  0
 10 24  1  0  0  0  0
 11 12  1  0  0  0  0
 11 25  1  0  0  0  0
 11 26  1  0  0  0  0
 12 13  1  0  0  0  0
 12 27  1  0  0  0  0
 12 28  1  0  0  0  0
 13 14  1  0  0  0  0
 13 15  1  0  0  0  0
 13 29  1  0  0  0  0
 14 30  1  0  0  0  0
 14 31  1  0  0  0  0
 14 32  1  0  0  0  0
 16 17  1  0  0  0  0
M  END
> <s_m_source_file>
AV-unprocessed.smi

> <i_m_source_file_index>
2282

> <i_lp_mmshare_version>
43012

> <i_f3d_flags>
0

> <s_epik_input>
W0NIM11jMW5bY0hdW2NIXWMoYzFDbClbTkhdQyg9TylbQ0BASF0yW0NIMl1bQ0gyXVtDQEhdKE8yKVtDSDNd

> <s_epik_cmdline>
J2VwaWtfcHl0aG9uJywgJy1waCcsICc3LjAnLCAnLXRuJywgJzgnLCAnLW1hJywgJzIwMCcsICctbWV0YWxfYmluZGluZycsICctaW1hZScsICc8aW5maWxlLm1hZT4nLCAnLW9tYWUnLCAnPG91dGZpbGUubWFlPic=

> <r_epik_Ionization_Penalty>
0.00037231

> <r_epik_Ionization_Penalty_Charging>
0

> <r_epik_Ionization_Penalty_Neutral>
0.00037231

> <r_epik_State_Penalty>
0.000225113

> <r_epik_Charging_Adjusted_Penalty>
0.000225113

> <i_epik_Tot_Q>
0

> <i_epik_Tot_abs_Q>
0

> <r_epik_Metal_State_Penalty>
-0

> <b_epik_Metal_Only>
0

> <s_lp_Force_Field>
OPLS_2005

> <r_lp_Energy>
23.9576

> <b_lp_Chiralities_Consistent>
1

> <s_lp_Variant>
AV-unprocessed.smi:2282-4

> <Gold.Version>
5.8.1

> <Gold.Id.Protein>
6NUR|6NUR_protein|mol2

> <Gold.PLP.Fitness>
40.8555

> <Gold.PLP.PLP>
-35.2245

> <Gold.PLP.part.hbond>
-2.0000

> <Gold.PLP.part.metal>
0.0000

> <Gold.PLP.part.buried>
-0.0802

> <Gold.PLP.part.nonpolar>
-33.1892

> <Gold.PLP.part.repulsive>
0.2307

> <Gold.PLP.ligand.clash>
0.0000

> <Gold.PLP.ligand.torsion>
0.1882

> <Gold.PLP.Chemscore.Hbond>
2.0000

> <Gold.PLP.Chemscore.CHOScore>
0.0000

> <Gold.PLP.Chemscore.Metal>
0.0000

> <Gold.Chemscore.Hbonds>
donor molecule, donor type, donor heavy atom, donor atom, acceptor molecule, acceptor atom, score
      P1  H  7989  7998       L1    15  1.00
      P1  H  7997  8008       L1     9  1.00

> <Gold.PLP.Chemscore.Internal.Correction>
0.0074

> <Gold.Rescore>
     Score         DG    S(hbond)    S(metal)    S(lipo)     H(rot)  DE(clash)    DE(int)     intcor
     17.42     -19.08       1.15        0.00     105.40       1.00       0.14       1.52       ----

> <Gold.Chemscore.Fitness>
17.4238

> <Gold.Chemscore.DG>
-19.0803

> <Gold.Chemscore.ZeroCoef>
-5.4800

> <Gold.Chemscore.Hbond>
1.1464

> <Gold.Chemscore.Metal>
0.0000

> <Gold.Chemscore.Lipo>
105.3976

> <Gold.Chemscore.Internal_Hbond>
0.0000

> <Gold.Chemscore.DEClash>
0.1377

> <Gold.Chemscore.DEInternal>
1.5188

> <Gold.Chemscore.Rot>
1.0000

> <Gold.Chemscore.Internal.Correction>
   9.000000E+99

> <Gold.Chemscore.Hbonds>
donor molecule, donor type, donor heavy atom, donor atom, acceptor molecule, acceptor atom, score
      P1  H  7989  7998       L1    15  0.76
      P1  H  7997  8008       L1     9  0.33

> <Gold.Chemscore.Hbond.Weighted>
-3.8288

> <Gold.Chemscore.Metal.Weighted>
-0.0000

> <Gold.Chemscore.Lipo.Weighted>
-12.3315

> <Gold.Chemscore.Internal_Hbond.Weighted>
0.0000

> <Gold.Chemscore.DEClash.Weighted>
0.1377

> <Gold.Chemscore.DEInternal.Weighted>
1.5188

> <Gold.Chemscore.Rot.Weighted>
2.5600

> <Gold.Chemscore.Internal.Correction.Weighted>
   9.000000E+99

> <Gold.Protein.RotatedTorsions>
[ 6907 6896 6895 6894 ] final  126.79 input  -60.11 | X-H torsion
[ 7974 7965 7964 7962 ] final   47.32 input  175.53 | X-H torsion
[ 8008 7997 7996 7995 ] final  -96.19 input   59.86 | X-H torsion
[ 10167 10162 10161 10158 ] final   96.39 input  -65.29 | X-H torsion
[ 10718 10713 10712 10709 ] final  -54.03 input   66.30 | X-H torsion
[ 10763 10752 10751 10750 ] final   62.30 input  -60.55 | X-H torsion
[ 11005 11000 10999 10996 ] final   16.79 input  -57.11 | X-H torsion

> <Gold.Protein.ActiveResidues>
 VAL166  LYS551  ARG553  GLY616  TRP617  ASP618  TYR619  PRO620  LYS621  CYS622 
 ASP623  PHE694  ASN695  SER759  ASP760  ASP761  ALA762  ILE779  LEU786  VAL792 
 PHE793  MET794  SER795  GLU796  ALA797  LYS798  CYS799  TRP800  GLU811  SER814 

> <Gold.Protein.RotatedAtoms>
  152.3871  133.6627  159.6207 H   0  0  0  0  0  0  0  0  0  0  0  0  # atno 6907 bound_to 6896
  150.7788  133.9016  159.3352 H   0  0  0  0  0  0  0  0  0  0  0  0  # atno 6908 bound_to 6896
  151.6810  135.0963  160.0267 H   0  0  0  0  0  0  0  0  0  0  0  0  # atno 6909 bound_to 6896
  146.0309  139.4762  142.9838 H   0  0  0  0  0  0  0  0  0  0  0  0  # atno 7974 bound_to 7965
  154.7713  140.0473  157.1053 H   0  0  0  0  0  0  0  0  0  0  0  0  # atno 8008 bound_to 7997
  154.9817  140.3102  155.4924 H   0  0  0  0  0  0  0  0  0  0  0  0  # atno 8009 bound_to 7997
  156.2921  140.2234  156.4917 H   0  0  0  0  0  0  0  0  0  0  0  0  # atno 8010 bound_to 7997
  139.7899  144.6856  150.9906 H   0  0  0  0  0  0  0  0  0  0  0  0  # atno 10167 bound_to 10162
  156.1485  130.4152  149.9984 H   0  0  0  0  0  0  0  0  0  0  0  0  # atno 10718 bound_to 10713
  152.9978  135.5470  154.6171 H   0  0  0  0  0  0  0  0  0  0  0  0  # atno 10763 bound_to 10752
  154.5479  135.2824  155.1038 H   0  0  0  0  0  0  0  0  0  0  0  0  # atno 10764 bound_to 10752
  154.2289  135.6437  153.5221 H   0  0  0  0  0  0  0  0  0  0  0  0  # atno 10765 bound_to 10752
  140.4431  134.1301  155.7693 H   0  0  0  0  0  0  0  0  0  0  0  0  # atno 11005 bound_to 11000
  145.7042  141.0126  143.1488 LP  0  0  0  0  0  0  0  0  0  0  0  0  # atno 17320 bound_to 7965
  144.7030  139.8681  143.7438 LP  0  0  0  0  0  0  0  0  0  0  0  0  # atno 17321 bound_to 7965
  140.7820  143.4392  151.0577 LP  0  0  0  0  0  0  0  0  0  0  0  0  # atno 17342 bound_to 10162
  139.8069  143.8005  152.3168 LP  0  0  0  0  0  0  0  0  0  0  0  0  # atno 17343 bound_to 10162
  156.7849  130.9235  151.3646 LP  0  0  0  0  0  0  0  0  0  0  0  0  # atno 17370 bound_to 10713
  157.6637  130.8988  149.9885 LP  0  0  0  0  0  0  0  0  0  0  0  0  # atno 17371 bound_to 10713
  141.1697  133.8634  157.1609 LP  0  0  0  0  0  0  0  0  0  0  0  0  # atno 17394 bound_to 11000
  140.0056  135.0010  157.0286 LP  0  0  0  0  0  0  0  0  0  0  0  0  # atno 17395 bound_to 11000

$$$$
