AV-unprocessed.smi:113|AV-procd|sdf|1102|dock10
  -GOLD-   2262018213D 1   1.00000     0.00000
 Structure written by MMmdl.
 53 56  0  0  0  0  0  0  0  0  2 V2000
  154.7812  140.3149  162.3464 C   0  0  0  0  0  0  0  0  0  0  0  0
  153.9691  140.7121  161.1319 C   0  0  0  0  0  0  0  0  0  0  0  0
  153.8200  139.8635  160.0177 C   0  0  0  0  0  0  0  0  0  0  0  0
  153.0457  140.2834  158.9074 C   0  0  0  0  0  0  0  0  0  0  0  0
  152.8634  139.3815  157.6817 C   0  0  0  0  0  0  0  0  0  0  0  0
  151.5021  138.9834  157.3528 N   0  0  0  0  0  0  0  0  0  0  0  0
  150.7956  138.1969  158.2959 C   0  0  0  0  0  0  0  0  0  0  0  0
  151.3079  137.8594  159.3652 O   0  0  0  0  0  0  0  0  0  0  0  0
  149.4431  137.8041  157.8911 C   0  0  0  0  0  0  0  0  0  0  0  0
  148.6251  136.9553  158.8514 C   0  0  0  0  0  0  0  0  0  0  0  0
  148.9628  138.1930  156.6857 C   0  0  0  0  0  0  0  0  0  0  0  0
  149.6780  138.9627  155.7843 N   0  0  0  0  0  0  0  0  0  0  0  0
  149.0825  139.3417  154.4509 C   0  0  1  0  0  0  0  0  0  0  0  0
  147.7626  138.6184  154.2188 C   0  0  0  0  0  0  0  0  0  0  0  0
  147.0512  139.5853  153.2932 C   0  0  2  0  0  0  0  0  0  0  0  0
  147.3507  139.2854  151.9435 O   0  0  0  0  0  0  0  0  0  0  0  0
  147.6309  140.9618  153.6752 C   0  0  1  0  0  0  0  0  0  0  0  0
  146.6821  141.8066  154.5404 C   0  0  0  0  0  0  0  0  0  0  0  0
  145.4777  142.0581  153.8482 O   0  0  0  0  0  0  0  0  0  0  0  0
  148.8003  140.7045  154.4528 O   0  0  0  0  0  0  0  0  0  0  0  0
  150.9929  139.3642  156.0912 C   0  0  0  0  0  0  0  0  0  0  0  0
  151.6714  139.9992  155.2802 O   0  0  0  0  0  0  0  0  0  0  0  0
  152.4376  141.5681  158.9571 C   0  0  0  0  0  0  0  0  0  0  0  0
  151.6501  142.0716  157.8939 C   0  0  0  0  0  0  0  0  0  0  0  0
  151.0645  143.3499  157.9802 C   0  0  0  0  0  0  0  0  0  0  0  0
  151.2552  144.1422  159.1276 C   0  0  0  0  0  0  0  0  0  0  0  0
  152.0346  143.6571  160.1941 C   0  0  0  0  0  0  0  0  0  0  0  0
  152.6223  142.3791  160.1093 C   0  0  0  0  0  0  0  0  0  0  0  0
  153.3704  141.9204  161.1348 N   0  3  0  0  0  0  0  0  0  0  0  0
  155.4520  139.4873  162.1138 H   0  0  0  0  0  0  0  0  0  0  0  0
  154.1210  140.0037  163.1562 H   0  0  0  0  0  0  0  0  0  0  0  0
  155.3860  141.1521  162.6963 H   0  0  0  0  0  0  0  0  0  0  0  0
  154.3032  138.8980  160.0297 H   0  0  0  0  0  0  0  0  0  0  0  0
  153.2854  139.8597  156.7963 H   0  0  0  0  0  0  0  0  0  0  0  0
  153.4481  138.4675  157.7975 H   0  0  0  0  0  0  0  0  0  0  0  0
  147.6352  136.7314  158.4526 H   0  0  0  0  0  0  0  0  0  0  0  0
  148.4911  137.4749  159.8009 H   0  0  0  0  0  0  0  0  0  0  0  0
  149.1283  136.0076  159.0470 H   0  0  0  0  0  0  0  0  0  0  0  0
  147.9674  137.8751  156.4097 H   0  0  0  0  0  0  0  0  0  0  0  0
  149.8272  139.1486  153.6775 H   0  0  0  0  0  0  0  0  0  0  0  0
  147.9170  137.6191  153.8098 H   0  0  0  0  0  0  0  0  0  0  0  0
  147.2212  138.5380  155.1625 H   0  0  0  0  0  0  0  0  0  0  0  0
  145.9690  139.5340  153.4189 H   0  0  0  0  0  0  0  0  0  0  0  0
  148.1120  139.7819  151.6845 H   0  0  0  0  0  0  0  0  0  0  0  0
  147.9212  141.5305  152.7900 H   0  0  0  0  0  0  0  0  0  0  0  0
  146.4672  141.3091  155.4865 H   0  0  0  0  0  0  0  0  0  0  0  0
  147.1442  142.7652  154.7772 H   0  0  0  0  0  0  0  0  0  0  0  0
  145.0781  141.2306  153.6277 H   0  0  0  0  0  0  0  0  0  0  0  0
  151.4815  141.4933  156.9981 H   0  0  0  0  0  0  0  0  0  0  0  0
  150.4660  143.7238  157.1622 H   0  0  0  0  0  0  0  0  0  0  0  0
  150.8036  145.1217  159.1889 H   0  0  0  0  0  0  0  0  0  0  0  0
  152.1776  144.2699  161.0725 H   0  0  0  0  0  0  0  0  0  0  0  0
  153.4895  142.5179  161.9527 H   0  0  0  0  0  0  0  0  0  0  0  0
  1  2  1  0  0  0  0
  1 30  1  0  0  0  0
  1 31  1  0  0  0  0
  1 32  1  0  0  0  0
  2 29  1  0  0  0  0
  2  3  2  0  0  0  0
  3  4  1  0  0  0  0
  3 33  1  0  0  0  0
  4  5  1  0  0  0  0
  4 23  2  0  0  0  0
  5  6  1  0  0  0  0
  5 34  1  0  0  0  0
  5 35  1  0  0  0  0
  6 21  1  0  0  0  0
  6  7  1  0  0  0  0
  7  8  2  0  0  0  0
  7  9  1  0  0  0  0
  9 10  1  0  0  0  0
  9 11  2  0  0  0  0
 10 36  1  0  0  0  0
 10 37  1  0  0  0  0
 10 38  1  0  0  0  0
 11 12  1  0  0  0  0
 11 39  1  0  0  0  0
 12 13  1  0  0  0  0
 12 21  1  0  0  0  0
 13 20  1  0  0  0  0
 13 14  1  0  0  0  0
 13 40  1  0  0  0  0
 14 15  1  0  0  0  0
 14 41  1  0  0  0  0
 14 42  1  0  0  0  0
 15 16  1  0  0  0  0
 15 17  1  0  0  0  0
 15 43  1  0  0  0  0
 16 44  1  0  0  0  0
 17 18  1  0  0  0  0
 17 20  1  0  0  0  0
 17 45  1  0  0  0  0
 18 19  1  0  0  0  0
 18 46  1  0  0  0  0
 18 47  1  0  0  0  0
 19 48  1  0  0  0  0
 21 22  2  0  0  0  0
 23 28  1  0  0  0  0
 23 24  1  0  0  0  0
 24 25  2  0  0  0  0
 24 49  1  0  0  0  0
 25 26  1  0  0  0  0
 25 50  1  0  0  0  0
 26 27  2  0  0  0  0
 26 51  1  0  0  0  0
 27 28  1  0  0  0  0
 27 52  1  0  0  0  0
 28 29  2  0  0  0  0
 29 53  1  0  0  0  0
M  CHG  1  29   1
M  END
> <s_m_source_file>
AV-unprocessed.smi

> <i_m_source_file_index>
113

> <i_lp_mmshare_version>
43012

> <i_f3d_flags>
0

> <s_epik_input>
W2NIXTFbY0hdW2NIXVtjSF1jKGMxMiluYyhbQ0gzXSlbY0hdYzJbQ0gyXW4zYyg9TyljKFtDSDNdKVtjSF1uKGMzPU8pW0NAQEhdNFtDSDJdW0NAQEhdKFtPSF0pW0NASF0oTzQpW0NIMl1bT0hd

> <s_epik_cmdline>
J2VwaWtfcHl0aG9uJywgJy1waCcsICc3LjAnLCAnLXRuJywgJzgnLCAnLW1hJywgJzIwMCcsICctbWV0YWxfYmluZGluZycsICctaW1hZScsICc8aW5maWxlLm1hZT4nLCAnLW9tYWUnLCAnPG91dGZpbGUubWFlPic=

> <r_lp_tautomer_probability>
1

> <r_epik_Ionization_Penalty>
0.705471

> <r_epik_Ionization_Penalty_Charging>
0.70547

> <r_epik_Ionization_Penalty_Neutral>
1.19947e-07

> <r_epik_State_Penalty>
0.728574

> <r_epik_Charging_Adjusted_Penalty>
1.43404

> <i_epik_Tot_Q>
1

> <i_epik_Tot_abs_Q>
1

> <r_epik_Metal_State_Penalty>
4.61665

> <b_epik_Metal_Only>
0

> <s_epik_Chemistry_Notes>
This compound contains an acetal/aminal-like group ( X-CH(R)-Y where X, Y are N, S, or O) that may be acid/base labile, releasing an aldehyde.

> <s_lp_Force_Field>
OPLS_2005

> <r_lp_Energy>
43.7755

> <b_lp_Chiralities_Consistent>
1

> <s_lp_Variant>
AV-unprocessed.smi:113-12

> <Gold.Version>
5.8.1

> <Gold.Id.Protein>
6NUR|6NUR_protein|mol2

> <Gold.PLP.Fitness>
56.7293

> <Gold.PLP.PLP>
-48.9685

> <Gold.PLP.part.hbond>
-3.4014

> <Gold.PLP.part.metal>
0.0000

> <Gold.PLP.part.buried>
-5.3651

> <Gold.PLP.part.nonpolar>
-40.7500

> <Gold.PLP.part.repulsive>
0.1810

> <Gold.PLP.ligand.clash>
0.0000

> <Gold.PLP.ligand.torsion>
0.2023

> <Gold.PLP.Chemscore.Hbond>
2.7137

> <Gold.PLP.Chemscore.CHOScore>
0.0000

> <Gold.PLP.Chemscore.Metal>
0.0000

> <Gold.Chemscore.Hbonds>
donor molecule, donor type, donor heavy atom, donor atom, acceptor molecule, acceptor atom, score
      L1  H    16    44       P1  7957  1.00
      L1  H    19    48       P1 10175  0.78
      P1  H  7989  7998       L1    22  0.98

> <Gold.PLP.Chemscore.Internal.Correction>
0.0242

> <Gold.Rescore>
     Score         DG    S(hbond)    S(metal)    S(lipo)     H(rot)  DE(clash)    DE(int)     intcor
     18.14     -19.45       1.98        0.00     128.66       3.01       0.06       1.25       ----

> <Gold.Chemscore.Fitness>
18.1393

> <Gold.Chemscore.DG>
-19.4478

> <Gold.Chemscore.ZeroCoef>
-5.4800

> <Gold.Chemscore.Hbond>
1.9835

> <Gold.Chemscore.Metal>
0.0000

> <Gold.Chemscore.Lipo>
128.6642

> <Gold.Chemscore.Internal_Hbond>
0.0000

> <Gold.Chemscore.DEClash>
0.0566

> <Gold.Chemscore.DEInternal>
1.2519

> <Gold.Chemscore.Rot>
3.0120

> <Gold.Chemscore.Internal.Correction>
   9.000000E+99

> <Gold.Chemscore.Hbonds>
donor molecule, donor type, donor heavy atom, donor atom, acceptor molecule, acceptor atom, score
      L1  H    16    44       P1  7957  0.96
      L1  H    19    48       P1 10175  0.31
      P1  H  7989  7998       L1    22  0.91

> <Gold.Chemscore.Hbond.Weighted>
-6.6248

> <Gold.Chemscore.Metal.Weighted>
-0.0000

> <Gold.Chemscore.Lipo.Weighted>
-15.0537

> <Gold.Chemscore.Internal_Hbond.Weighted>
0.0000

> <Gold.Chemscore.DEClash.Weighted>
0.0566

> <Gold.Chemscore.DEInternal.Weighted>
1.2519

> <Gold.Chemscore.Rot.Weighted>
7.7108

> <Gold.Chemscore.Internal.Correction.Weighted>
   9.000000E+99

> <Gold.Protein.RotatedTorsions>
[ 6907 6896 6895 6894 ] final   63.86 input  -60.11 | X-H torsion
[ 7974 7965 7964 7962 ] final   81.11 input  175.53 | X-H torsion
[ 8008 7997 7996 7995 ] final    5.13 input   59.86 | X-H torsion
[ 10167 10162 10161 10158 ] final  152.30 input  -65.29 | X-H torsion
[ 10718 10713 10712 10709 ] final  -38.01 input   66.30 | X-H torsion
[ 10763 10752 10751 10750 ] final  -96.71 input  -60.55 | X-H torsion
[ 11005 11000 10999 10996 ] final   80.54 input  -57.11 | X-H torsion

> <Gold.Protein.ActiveResidues>
 VAL166  LYS551  ARG553  GLY616  TRP617  ASP618  TYR619  PRO620  LYS621  CYS622 
 ASP623  PHE694  ASN695  SER759  ASP760  ASP761  ALA762  ILE779  LEU786  VAL792 
 PHE793  MET794  SER795  GLU796  ALA797  LYS798  CYS799  TRP800  GLU811  SER814 

> <Gold.Protein.RotatedAtoms>
  152.4286  134.5820  159.9950 H   0  0  0  0  0  0  0  0  0  0  0  0  # atno 6907 bound_to 6896
  151.5949  133.3357  159.3043 H   0  0  0  0  0  0  0  0  0  0  0  0  # atno 6908 bound_to 6896
  150.8178  134.7405  159.6810 H   0  0  0  0  0  0  0  0  0  0  0  0  # atno 6909 bound_to 6896
  145.6425  139.2429  143.2022 H   0  0  0  0  0  0  0  0  0  0  0  0  # atno 7974 bound_to 7965
  154.7245  140.2718  155.6512 H   0  0  0  0  0  0  0  0  0  0  0  0  # atno 8008 bound_to 7997
  156.2833  140.2728  156.1851 H   0  0  0  0  0  0  0  0  0  0  0  0  # atno 8009 bound_to 7997
  155.0463  140.0371  157.2518 H   0  0  0  0  0  0  0  0  0  0  0  0  # atno 8010 bound_to 7997
  139.4834  144.5369  151.7630 H   0  0  0  0  0  0  0  0  0  0  0  0  # atno 10167 bound_to 10162
  156.3086  130.4249  149.8072 H   0  0  0  0  0  0  0  0  0  0  0  0  # atno 10718 bound_to 10713
  154.7264  135.5073  153.8893 H   0  0  0  0  0  0  0  0  0  0  0  0  # atno 10763 bound_to 10752
  153.0908  135.6659  153.9865 H   0  0  0  0  0  0  0  0  0  0  0  0  # atno 10764 bound_to 10752
  153.9677  135.3041  155.3409 H   0  0  0  0  0  0  0  0  0  0  0  0  # atno 10765 bound_to 10752
  139.9130  134.7928  156.1923 H   0  0  0  0  0  0  0  0  0  0  0  0  # atno 11005 bound_to 11000
  146.1269  140.7236  142.9431 LP  0  0  0  0  0  0  0  0  0  0  0  0  # atno 17320 bound_to 7965
  144.7152  140.4184  143.7050 LP  0  0  0  0  0  0  0  0  0  0  0  0  # atno 17321 bound_to 7965
  140.4903  144.1320  150.5949 LP  0  0  0  0  0  0  0  0  0  0  0  0  # atno 17342 bound_to 10162
  140.4178  143.2626  151.9753 LP  0  0  0  0  0  0  0  0  0  0  0  0  # atno 17343 bound_to 10162
  156.5424  130.8306  151.3273 LP  0  0  0  0  0  0  0  0  0  0  0  0  # atno 17370 bound_to 10713
  157.7385  130.9815  150.2259 LP  0  0  0  0  0  0  0  0  0  0  0  0  # atno 17371 bound_to 10713
  141.0576  133.6857  156.1890 LP  0  0  0  0  0  0  0  0  0  0  0  0  # atno 17394 bound_to 11000
  140.6712  134.4865  157.5587 LP  0  0  0  0  0  0  0  0  0  0  0  0  # atno 17395 bound_to 11000

$$$$
