AV-unprocessed.smi:1575|AV-procd|sdf|6342|dock4
  -GOLD-   22720 6563D 1   1.00000     0.00000
 Structure written by MMmdl.
 40 40  0  0  0  0  0  0  0  0  2 V2000
  148.6510  140.7391  154.7879 C   0  0  0  0  0  0  0  0  0  0  0  0
  149.5481  141.0564  155.8881 N   0  0  0  0  0  0  0  0  0  0  0  0
  150.8733  140.8548  155.8622 C   0  0  0  0  0  0  0  0  0  0  0  0
  151.4587  140.3599  154.8975 O   0  0  0  0  0  0  0  0  0  0  0  0
  151.6483  141.2539  157.1293 C   0  0  1  0  0  0  0  0  0  0  0  0
  151.0169  142.5544  157.6812 C   0  0  0  0  0  0  0  0  0  0  0  0
  152.0173  143.5709  158.2785 C   0  0  0  0  0  0  0  0  0  0  0  0
  152.8578  142.9138  159.3838 C   0  0  0  0  0  0  0  0  0  0  0  0
  151.3241  144.8350  158.8137 C   0  0  0  0  0  0  0  0  0  0  0  0
  151.5190  140.2019  158.1372 N   0  0  0  0  0  0  0  0  0  0  0  0
  152.4168  139.2306  158.3632 C   0  0  0  0  0  0  0  0  0  0  0  0
  153.4860  139.1462  157.7573 O   0  0  0  0  0  0  0  0  0  0  0  0
  152.0553  138.2213  159.4609 C   0  0  0  0  0  0  0  0  0  0  0  0
  153.0608  138.1555  160.5335 N   0  0  0  0  0  0  0  0  0  0  0  0
  153.4422  139.3607  161.1491 C   0  0  0  0  0  0  0  0  0  0  0  0
  154.3568  139.3956  162.1368 C   0  0  0  0  0  0  0  0  0  0  0  0
  154.9571  138.1388  162.5665 C   0  0  0  0  0  0  0  0  0  0  0  0
  155.7900  138.1510  163.4710 O   0  0  0  0  0  0  0  0  0  0  0  0
  154.5582  136.9964  161.9347 N   0  5  0  0  0  0  0  0  0  0  0  0
  153.6282  136.9762  160.9299 C   0  0  0  0  0  0  0  0  0  0  0  0
  153.2836  135.9337  160.3721 O   0  0  0  0  0  0  0  0  0  0  0  0
  147.6277  141.0024  155.0546 H   0  0  0  0  0  0  0  0  0  0  0  0
  148.6804  139.6738  154.5573 H   0  0  0  0  0  0  0  0  0  0  0  0
  148.9242  141.2974  153.8917 H   0  0  0  0  0  0  0  0  0  0  0  0
  149.1398  141.4637  156.7168 H   0  0  0  0  0  0  0  0  0  0  0  0
  152.6976  141.4169  156.8785 H   0  0  0  0  0  0  0  0  0  0  0  0
  150.4522  143.0483  156.8884 H   0  0  0  0  0  0  0  0  0  0  0  0
  150.2836  142.2970  158.4480 H   0  0  0  0  0  0  0  0  0  0  0  0
  152.7115  143.8788  157.4960 H   0  0  0  0  0  0  0  0  0  0  0  0
  152.2317  142.5816  160.2126 H   0  0  0  0  0  0  0  0  0  0  0  0
  153.5971  143.6090  159.7829 H   0  0  0  0  0  0  0  0  0  0  0  0
  153.3977  142.0454  159.0053 H   0  0  0  0  0  0  0  0  0  0  0  0
  150.5796  144.5890  159.5711 H   0  0  0  0  0  0  0  0  0  0  0  0
  150.8243  145.3872  158.0183 H   0  0  0  0  0  0  0  0  0  0  0  0
  152.0462  145.5146  159.2672 H   0  0  0  0  0  0  0  0  0  0  0  0
  150.6664  140.1922  158.6777 H   0  0  0  0  0  0  0  0  0  0  0  0
  151.0807  138.4967  159.8659 H   0  0  0  0  0  0  0  0  0  0  0  0
  151.9142  137.2317  159.0223 H   0  0  0  0  0  0  0  0  0  0  0  0
  152.9553  140.2465  160.7683 H   0  0  0  0  0  0  0  0  0  0  0  0
  154.6413  140.3301  162.5973 H   0  0  0  0  0  0  0  0  0  0  0  0
  1  2  1  0  0  0  0
  1 22  1  0  0  0  0
  1 23  1  0  0  0  0
  1 24  1  0  0  0  0
  2  3  1  0  0  0  0
  2 25  1  0  0  0  0
  3  4  2  0  0  0  0
  3  5  1  0  0  0  0
  5  6  1  0  0  0  0
  5 10  1  0  0  0  0
  5 26  1  0  0  0  0
  6  7  1  0  0  0  0
  6 27  1  0  0  0  0
  6 28  1  0  0  0  0
  7  8  1  0  0  0  0
  7  9  1  0  0  0  0
  7 29  1  0  0  0  0
  8 30  1  0  0  0  0
  8 31  1  0  0  0  0
  8 32  1  0  0  0  0
  9 33  1  0  0  0  0
  9 34  1  0  0  0  0
  9 35  1  0  0  0  0
 10 11  1  0  0  0  0
 10 36  1  0  0  0  0
 11 12  2  0  0  0  0
 11 13  1  0  0  0  0
 13 14  1  0  0  0  0
 13 37  1  0  0  0  0
 13 38  1  0  0  0  0
 14 20  1  0  0  0  0
 14 15  1  0  0  0  0
 15 16  2  0  0  0  0
 15 39  1  0  0  0  0
 16 17  1  0  0  0  0
 16 40  1  0  0  0  0
 17 18  2  0  0  0  0
 17 19  1  0  0  0  0
 19 20  1  0  0  0  0
 20 21  2  0  0  0  0
M  CHG  1  19  -1
M  END
> <s_m_source_file>
AV-unprocessed.smi

> <i_m_source_file_index>
1575

> <i_lp_mmshare_version>
43012

> <i_f3d_flags>
0

> <s_epik_input>
W0NIM11bTkhdQyg9TylbQ0BIXShbQ0gyXVtDSF0oW0NIM10pW0NIM10pW05IXUMoPU8pW0NIMl1uMVtjSF1bY0hdYyg9TylbbkhdYzE9Tw==

> <s_epik_cmdline>
J2VwaWtfcHl0aG9uJywgJy1waCcsICc3LjAnLCAnLXRuJywgJzgnLCAnLW1hJywgJzIwMCcsICctbWV0YWxfYmluZGluZycsICctaW1hZScsICc8aW5maWxlLm1hZT4nLCAnLW9tYWUnLCAnPG91dGZpbGUubWFlPic=

> <r_lp_tautomer_probability>
0.999537

> <r_epik_Ionization_Penalty>
3.03017

> <r_epik_Ionization_Penalty_Charging>
2.35557e-08

> <r_epik_Ionization_Penalty_Neutral>
3.03017

> <r_epik_State_Penalty>
3.02913

> <r_epik_Charging_Adjusted_Penalty>
3.02913

> <i_epik_Tot_Q>
-1

> <i_epik_Tot_abs_Q>
1

> <r_epik_Metal_State_Penalty>
0.455824

> <b_epik_Metal_Only>
1

> <s_lp_Force_Field>
OPLS_2005

> <r_lp_Energy>
14.624

> <b_lp_Chiralities_Consistent>
1

> <s_lp_Variant>
AV-unprocessed.smi:1575-4

> <Gold.Version>
5.8.1

> <Gold.Id.Protein>
6NUR|6NUR_protein|mol2

> <Gold.PLP.Fitness>
39.3076

> <Gold.PLP.PLP>
-33.5037

> <Gold.PLP.part.hbond>
-2.8232

> <Gold.PLP.part.metal>
0.0000

> <Gold.PLP.part.buried>
-5.7947

> <Gold.PLP.part.nonpolar>
-26.2865

> <Gold.PLP.part.repulsive>
0.2087

> <Gold.PLP.ligand.clash>
0.0000

> <Gold.PLP.ligand.torsion>
1.5470

> <Gold.PLP.Chemscore.Hbond>
2.9263

> <Gold.PLP.Chemscore.CHOScore>
0.0000

> <Gold.PLP.Chemscore.Metal>
0.0000

> <Gold.Chemscore.Hbonds>
donor molecule, donor type, donor heavy atom, donor atom, acceptor molecule, acceptor atom, score
      P1  H  6896  6909       L1    21  0.93
      P1  H  7989  7998       L1     4  0.91
      P1  H  7997  8010       L1    12  1.00

> <Gold.PLP.Chemscore.Internal.Correction>
0.1190

> <Gold.Rescore>
     Score         DG    S(hbond)    S(metal)    S(lipo)     H(rot)  DE(clash)    DE(int)     intcor
     15.92     -16.97       2.90        0.00      75.41       2.74       0.01       1.03       ----

> <Gold.Chemscore.Fitness>
15.9242

> <Gold.Chemscore.DG>
-16.9704

> <Gold.Chemscore.ZeroCoef>
-5.4800

> <Gold.Chemscore.Hbond>
2.9014

> <Gold.Chemscore.Metal>
0.0000

> <Gold.Chemscore.Lipo>
75.4092

> <Gold.Chemscore.Internal_Hbond>
0.0000

> <Gold.Chemscore.DEClash>
0.0126

> <Gold.Chemscore.DEInternal>
1.0336

> <Gold.Chemscore.Rot>
2.7435

> <Gold.Chemscore.Internal.Correction>
   9.000000E+99

> <Gold.Chemscore.Hbonds>
donor molecule, donor type, donor heavy atom, donor atom, acceptor molecule, acceptor atom, score
      P1  H  6896  6909       L1    21  0.89
      P1  H  7989  7998       L1     4  0.82
      P1  H  7997  8010       L1    12  0.99

> <Gold.Chemscore.Hbond.Weighted>
-9.6908

> <Gold.Chemscore.Metal.Weighted>
-0.0000

> <Gold.Chemscore.Lipo.Weighted>
-8.8229

> <Gold.Chemscore.Internal_Hbond.Weighted>
0.0000

> <Gold.Chemscore.DEClash.Weighted>
0.0126

> <Gold.Chemscore.DEInternal.Weighted>
1.0336

> <Gold.Chemscore.Rot.Weighted>
7.0233

> <Gold.Chemscore.Internal.Correction.Weighted>
   9.000000E+99

> <Gold.Protein.RotatedTorsions>
[ 6907 6896 6895 6894 ] final  171.53 input  -60.11 | X-H torsion
[ 7974 7965 7964 7962 ] final  151.10 input  175.53 | X-H torsion
[ 8008 7997 7996 7995 ] final   48.07 input   59.86 | X-H torsion
[ 10167 10162 10161 10158 ] final   -9.74 input  -65.29 | X-H torsion
[ 10718 10713 10712 10709 ] final -123.27 input   66.30 | X-H torsion
[ 10763 10752 10751 10750 ] final   98.33 input  -60.55 | X-H torsion
[ 11005 11000 10999 10996 ] final   83.93 input  -57.11 | X-H torsion

> <Gold.Protein.ActiveResidues>
 VAL166  LYS551  ARG553  GLY616  TRP617  ASP618  TYR619  PRO620  LYS621  CYS622 
 ASP623  PHE694  ASN695  SER759  ASP760  ASP761  ALA762  ILE779  LEU786  VAL792 
 PHE793  MET794  SER795  GLU796  ALA797  LYS798  CYS799  TRP800  GLU811  SER814 

> <Gold.Protein.RotatedAtoms>
  151.7987  133.3367  159.3520 H   0  0  0  0  0  0  0  0  0  0  0  0  # atno 6907 bound_to 6896
  150.7366  134.5774  159.5930 H   0  0  0  0  0  0  0  0  0  0  0  0  # atno 6908 bound_to 6896
  152.3158  134.7443  160.0377 H   0  0  0  0  0  0  0  0  0  0  0  0  # atno 6909 bound_to 6896
  144.8316  139.6494  143.6056 H   0  0  0  0  0  0  0  0  0  0  0  0  # atno 7974 bound_to 7965
  155.3795  140.3428  155.4246 H   0  0  0  0  0  0  0  0  0  0  0  0  # atno 8008 bound_to 7997
  156.1618  140.1603  156.8633 H   0  0  0  0  0  0  0  0  0  0  0  0  # atno 8009 bound_to 7997
  154.5147  140.0781  156.8040 H   0  0  0  0  0  0  0  0  0  0  0  0  # atno 8010 bound_to 7997
  140.7095  143.5825  150.8977 H   0  0  0  0  0  0  0  0  0  0  0  0  # atno 10167 bound_to 10162
  156.1488  130.6520  150.9883 H   0  0  0  0  0  0  0  0  0  0  0  0  # atno 10718 bound_to 10713
  153.2878  135.4152  155.1138 H   0  0  0  0  0  0  0  0  0  0  0  0  # atno 10763 bound_to 10752
  154.8510  135.3511  154.6024 H   0  0  0  0  0  0  0  0  0  0  0  0  # atno 10764 bound_to 10752
  153.6445  135.7055  153.5288 H   0  0  0  0  0  0  0  0  0  0  0  0  # atno 10765 bound_to 10752
  139.9016  134.8180  156.2376 H   0  0  0  0  0  0  0  0  0  0  0  0  # atno 11005 bound_to 11000
  146.2619  139.6429  142.9356 LP  0  0  0  0  0  0  0  0  0  0  0  0  # atno 17320 bound_to 7965
  145.4883  141.0438  143.2607 LP  0  0  0  0  0  0  0  0  0  0  0  0  # atno 17321 bound_to 7965
  139.9551  143.6228  152.3018 LP  0  0  0  0  0  0  0  0  0  0  0  0  # atno 17342 bound_to 10162
  139.6760  144.7658  151.1695 LP  0  0  0  0  0  0  0  0  0  0  0  0  # atno 17343 bound_to 10162
  157.6639  131.0875  150.7773 LP  0  0  0  0  0  0  0  0  0  0  0  0  # atno 17370 bound_to 10713
  156.7843  130.4869  149.5395 LP  0  0  0  0  0  0  0  0  0  0  0  0  # atno 17371 bound_to 10713
  141.0306  133.6991  156.1423 LP  0  0  0  0  0  0  0  0  0  0  0  0  # atno 17394 bound_to 11000
  140.7102  134.4469  157.5582 LP  0  0  0  0  0  0  0  0  0  0  0  0  # atno 17395 bound_to 11000

$$$$
