AV-unprocessed.smi:1605|AV-procd|sdf|6459|dock10
  -GOLD-   22720 7113D 1   1.00000     0.00000
 Structure written by MMmdl.
 50 52  0  0  0  0  0  0  0  0  1 V2000
  155.2287  133.4598  165.0272 C   0  0  0  0  0  0  0  0  0  0  0  0
  155.3942  134.8403  164.7425 O   0  0  0  0  0  0  0  0  0  0  0  0
  154.7795  135.2666  163.5332 C   0  0  0  0  0  0  0  0  0  0  0  0
  155.6318  134.9030  162.3016 C   0  0  0  0  0  0  0  0  0  0  0  0
  155.0545  135.5511  161.0310 C   0  0  0  0  0  0  0  0  0  0  0  0
  154.9505  137.0080  161.1357 N   0  0  0  0  0  0  0  0  0  0  0  0
  154.4784  137.5921  159.8750 C   0  0  0  0  0  0  0  0  0  0  0  0
  153.9578  139.0455  159.9455 C   0  0  2  0  0  0  0  0  0  0  0  0
  153.4791  139.4217  158.6694 O   0  0  0  0  0  0  0  0  0  0  0  0
  154.9409  140.1019  160.4859 C   0  0  0  0  0  0  0  0  0  0  0  0
  154.2649  141.1537  161.2238 N   0  0  0  0  0  0  0  0  0  0  0  0
  154.3692  141.4199  162.5402 C   0  0  0  0  0  0  0  0  0  0  0  0
  153.6558  142.4375  163.0140 N   0  0  0  0  0  0  0  0  0  0  0  0
  153.0151  142.8844  161.8710 C   0  0  0  0  0  0  0  0  0  0  0  0
  152.1057  143.9488  161.6867 C   0  0  0  0  0  0  0  0  0  0  0  0
  151.5681  144.2300  160.4104 C   0  0  0  0  0  0  0  0  0  0  0  0
  150.5932  145.3842  160.2581 C   0  0  0  0  0  0  0  0  0  0  0  0
  151.9400  143.4400  159.2929 C   0  0  0  0  0  0  0  0  0  0  0  0
  151.3770  143.7252  157.9117 C   0  0  0  0  0  0  0  0  0  0  0  0
  152.8463  142.3720  159.4595 C   0  0  0  0  0  0  0  0  0  0  0  0
  153.3743  142.1025  160.7346 C   0  0  0  0  0  0  0  0  0  0  0  0
  154.0754  137.3382  162.2664 C   0  0  0  0  0  0  0  0  0  0  0  0
  154.6108  136.7930  163.6005 C   0  0  0  0  0  0  0  0  0  0  0  0
  155.6846  133.2325  165.9907 H   0  0  0  0  0  0  0  0  0  0  0  0
  155.7097  132.8303  164.2787 H   0  0  0  0  0  0  0  0  0  0  0  0
  154.1732  133.1915  165.0869 H   0  0  0  0  0  0  0  0  0  0  0  0
  153.7891  134.8163  163.4420 H   0  0  0  0  0  0  0  0  0  0  0  0
  156.6577  135.2430  162.4494 H   0  0  0  0  0  0  0  0  0  0  0  0
  155.6773  133.8226  162.1672 H   0  0  0  0  0  0  0  0  0  0  0  0
  155.6979  135.2894  160.1901 H   0  0  0  0  0  0  0  0  0  0  0  0
  154.0743  135.1231  160.8142 H   0  0  0  0  0  0  0  0  0  0  0  0
  155.2950  137.5953  159.1511 H   0  0  0  0  0  0  0  0  0  0  0  0
  153.7164  136.9482  159.4335 H   0  0  0  0  0  0  0  0  0  0  0  0
  153.0888  139.0349  160.6048 H   0  0  0  0  0  0  0  0  0  0  0  0
  152.5377  139.3366  158.6690 H   0  0  0  0  0  0  0  0  0  0  0  0
  155.6701  139.6369  161.1504 H   0  0  0  0  0  0  0  0  0  0  0  0
  155.4951  140.5660  159.6697 H   0  0  0  0  0  0  0  0  0  0  0  0
  155.0065  140.8346  163.1867 H   0  0  0  0  0  0  0  0  0  0  0  0
  151.8239  144.5508  162.5381 H   0  0  0  0  0  0  0  0  0  0  0  0
  149.6366  145.0284  159.8746 H   0  0  0  0  0  0  0  0  0  0  0  0
  150.9888  146.1297  159.5676 H   0  0  0  0  0  0  0  0  0  0  0  0
  150.4076  145.8775  161.2127 H   0  0  0  0  0  0  0  0  0  0  0  0
  151.7637  143.0242  157.1716 H   0  0  0  0  0  0  0  0  0  0  0  0
  151.6444  144.7322  157.5906 H   0  0  0  0  0  0  0  0  0  0  0  0
  150.2900  143.6395  157.9168 H   0  0  0  0  0  0  0  0  0  0  0  0
  153.1385  141.7622  158.6176 H   0  0  0  0  0  0  0  0  0  0  0  0
  153.9510  138.4132  162.3630 H   0  0  0  0  0  0  0  0  0  0  0  0
  153.0762  136.9371  162.0890 H   0  0  0  0  0  0  0  0  0  0  0  0
  153.9330  137.0590  164.4121 H   0  0  0  0  0  0  0  0  0  0  0  0
  155.5683  137.2642  163.8271 H   0  0  0  0  0  0  0  0  0  0  0  0
  1  2  1  0  0  0  0
  1 24  1  0  0  0  0
  1 25  1  0  0  0  0
  1 26  1  0  0  0  0
  2  3  1  0  0  0  0
  3 23  1  0  0  0  0
  3  4  1  0  0  0  0
  3 27  1  0  0  0  0
  4  5  1  0  0  0  0
  4 28  1  0  0  0  0
  4 29  1  0  0  0  0
  5  6  1  0  0  0  0
  5 30  1  0  0  0  0
  5 31  1  0  0  0  0
  6  7  1  0  0  0  0
  6 22  1  0  0  0  0
  7  8  1  0  0  0  0
  7 32  1  0  0  0  0
  7 33  1  0  0  0  0
  8  9  1  0  0  0  0
  8 10  1  0  0  0  0
  8 34  1  0  0  0  0
  9 35  1  0  0  0  0
 10 11  1  0  0  0  0
 10 36  1  0  0  0  0
 10 37  1  0  0  0  0
 11 21  1  0  0  0  0
 11 12  1  0  0  0  0
 12 13  2  0  0  0  0
 12 38  1  0  0  0  0
 13 14  1  0  0  0  0
 14 21  2  0  0  0  0
 14 15  1  0  0  0  0
 15 16  2  0  0  0  0
 15 39  1  0  0  0  0
 16 17  1  0  0  0  0
 16 18  1  0  0  0  0
 17 40  1  0  0  0  0
 17 41  1  0  0  0  0
 17 42  1  0  0  0  0
 18 19  1  0  0  0  0
 18 20  2  0  0  0  0
 19 43  1  0  0  0  0
 19 44  1  0  0  0  0
 19 45  1  0  0  0  0
 20 21  1  0  0  0  0
 20 46  1  0  0  0  0
 22 23  1  0  0  0  0
 22 47  1  0  0  0  0
 22 48  1  0  0  0  0
 23 49  1  0  0  0  0
 23 50  1  0  0  0  0
M  END
> <s_m_source_file>
AV-unprocessed.smi

> <i_m_source_file_index>
1605

> <i_lp_mmshare_version>
43012

> <i_f3d_flags>
0

> <s_epik_input>
W0NIM11PW0NIXTFbQ0gyXVtDSDJdTihbQ0gyXVtDSDJdMSlbQ0gyXVtDQEhdKFtPSF0pW0NIMl1uKFtjSF1uMiljKGMyMylbY0hdYyhbQ0gzXSljKFtjSF0zKVtDSDNd

> <s_epik_cmdline>
J2VwaWtfcHl0aG9uJywgJy1waCcsICc3LjAnLCAnLXRuJywgJzgnLCAnLW1hJywgJzIwMCcsICctbWV0YWxfYmluZGluZycsICctaW1hZScsICc8aW5maWxlLm1hZT4nLCAnLW9tYWUnLCAnPG91dGZpbGUubWFlPic=

> <r_epik_Ionization_Penalty>
2.02119

> <r_epik_Ionization_Penalty_Charging>
0

> <r_epik_Ionization_Penalty_Neutral>
2.02119

> <r_epik_State_Penalty>
2.11303

> <r_epik_Charging_Adjusted_Penalty>
2.11303

> <i_epik_Tot_Q>
0

> <i_epik_Tot_abs_Q>
0

> <r_epik_Metal_State_Penalty>
2.04251

> <b_epik_Metal_Only>
0

> <s_lp_Force_Field>
OPLS_2005

> <r_lp_Energy>
37.9414

> <b_lp_Chiralities_Consistent>
1

> <s_lp_Variant>
AV-unprocessed.smi:1605-9

> <Gold.Version>
5.8.1

> <Gold.Id.Protein>
6NUR|6NUR_protein|mol2

> <Gold.PLP.Fitness>
55.7303

> <Gold.PLP.PLP>
-54.1711

> <Gold.PLP.part.hbond>
-1.0000

> <Gold.PLP.part.metal>
0.0000

> <Gold.PLP.part.buried>
-3.9516

> <Gold.PLP.part.nonpolar>
-49.0621

> <Gold.PLP.part.repulsive>
0.1553

> <Gold.PLP.ligand.clash>
0.0000

> <Gold.PLP.ligand.torsion>
0.7475

> <Gold.PLP.Chemscore.Hbond>
1.0000

> <Gold.PLP.Chemscore.CHOScore>
0.0000

> <Gold.PLP.Chemscore.Metal>
0.0000

> <Gold.Chemscore.Hbonds>
donor molecule, donor type, donor heavy atom, donor atom, acceptor molecule, acceptor atom, score
      P1  H  7997  8008       L1     9  0.89

> <Gold.PLP.Chemscore.Internal.Correction>
0.0543

> <Gold.Rescore>
     Score         DG    S(hbond)    S(metal)    S(lipo)     H(rot)  DE(clash)    DE(int)     intcor
     16.56     -17.78       0.00        0.00     152.04       2.14       0.36       0.86       ----

> <Gold.Chemscore.Fitness>
16.5610

> <Gold.Chemscore.DG>
-17.7800

> <Gold.Chemscore.ZeroCoef>
-5.4800

> <Gold.Chemscore.Hbond>
0.0000

> <Gold.Chemscore.Metal>
0.0000

> <Gold.Chemscore.Lipo>
152.0350

> <Gold.Chemscore.Internal_Hbond>
0.0000

> <Gold.Chemscore.DEClash>
0.3595

> <Gold.Chemscore.DEInternal>
0.8594

> <Gold.Chemscore.Rot>
2.1438

> <Gold.Chemscore.Internal.Correction>
   9.000000E+99

> <Gold.Chemscore.Hbonds>
donor molecule, donor type, donor heavy atom, donor atom, acceptor molecule, acceptor atom, score
      P1  H  7997  8008       L1     9  0.82

> <Gold.Chemscore.Hbond.Weighted>
-0.0000

> <Gold.Chemscore.Metal.Weighted>
-0.0000

> <Gold.Chemscore.Lipo.Weighted>
-17.7881

> <Gold.Chemscore.Internal_Hbond.Weighted>
0.0000

> <Gold.Chemscore.DEClash.Weighted>
0.3595

> <Gold.Chemscore.DEInternal.Weighted>
0.8594

> <Gold.Chemscore.Rot.Weighted>
5.4881

> <Gold.Chemscore.Internal.Correction.Weighted>
   9.000000E+99

> <Gold.Protein.RotatedTorsions>
[ 6907 6896 6895 6894 ] final -152.07 input  -60.11 | X-H torsion
[ 7974 7965 7964 7962 ] final   79.60 input  175.53 | X-H torsion
[ 8008 7997 7996 7995 ] final -105.88 input   59.86 | X-H torsion
[ 10167 10162 10161 10158 ] final   27.34 input  -65.29 | X-H torsion
[ 10718 10713 10712 10709 ] final   38.60 input   66.30 | X-H torsion
[ 10763 10752 10751 10750 ] final -136.89 input  -60.55 | X-H torsion
[ 11005 11000 10999 10996 ] final  178.49 input  -57.11 | X-H torsion

> <Gold.Protein.ActiveResidues>
 VAL166  LYS551  ARG553  GLY616  TRP617  ASP618  TYR619  PRO620  LYS621  CYS622 
 ASP623  PHE694  ASN695  SER759  ASP760  ASP761  ALA762  ILE779  LEU786  VAL792 
 PHE793  MET794  SER795  GLU796  ALA797  LYS798  CYS799  TRP800  GLU811  SER814 

> <Gold.Protein.RotatedAtoms>
  151.2224  133.4495  159.2600 H   0  0  0  0  0  0  0  0  0  0  0  0  # atno 6907 bound_to 6896
  151.0872  134.9894  159.8395 H   0  0  0  0  0  0  0  0  0  0  0  0  # atno 6908 bound_to 6896
  152.5431  134.2160  159.8821 H   0  0  0  0  0  0  0  0  0  0  0  0  # atno 6909 bound_to 6896
  145.6621  139.2474  143.1917 H   0  0  0  0  0  0  0  0  0  0  0  0  # atno 7974 bound_to 7965
  154.9064  140.0411  157.1922 H   0  0  0  0  0  0  0  0  0  0  0  0  # atno 8008 bound_to 7997
  154.8392  140.2911  155.5649 H   0  0  0  0  0  0  0  0  0  0  0  0  # atno 8009 bound_to 7997
  156.2991  140.2486  156.3331 H   0  0  0  0  0  0  0  0  0  0  0  0  # atno 8010 bound_to 7997
  140.4947  144.0411  150.6310 H   0  0  0  0  0  0  0  0  0  0  0  0  # atno 10167 bound_to 10162
  157.3607  130.7648  149.7045 H   0  0  0  0  0  0  0  0  0  0  0  0  # atno 10718 bound_to 10713
  154.8674  135.3659  154.5134 H   0  0  0  0  0  0  0  0  0  0  0  0  # atno 10763 bound_to 10752
  153.5768  135.7019  153.5485 H   0  0  0  0  0  0  0  0  0  0  0  0  # atno 10764 bound_to 10752
  153.3492  135.4076  155.1596 H   0  0  0  0  0  0  0  0  0  0  0  0  # atno 10765 bound_to 10752
  140.3957  134.6822  157.4533 H   0  0  0  0  0  0  0  0  0  0  0  0  # atno 11005 bound_to 11000
  146.1117  140.7420  142.9500 LP  0  0  0  0  0  0  0  0  0  0  0  0  # atno 17320 bound_to 7965
  144.7085  140.3949  143.7099 LP  0  0  0  0  0  0  0  0  0  0  0  0  # atno 17321 bound_to 7965
  140.3690  143.2865  152.0299 LP  0  0  0  0  0  0  0  0  0  0  0  0  # atno 17342 bound_to 10162
  139.4858  144.6244  151.7192 LP  0  0  0  0  0  0  0  0  0  0  0  0  # atno 17343 bound_to 10162
  155.9737  130.4114  150.3982 LP  0  0  0  0  0  0  0  0  0  0  0  0  # atno 17370 bound_to 10713
  157.2059  131.0449  151.2625 LP  0  0  0  0  0  0  0  0  0  0  0  0  # atno 17371 bound_to 10713
  140.0373  134.6318  155.9026 LP  0  0  0  0  0  0  0  0  0  0  0  0  # atno 17394 bound_to 11000
  141.1875  133.6560  156.5283 LP  0  0  0  0  0  0  0  0  0  0  0  0  # atno 17395 bound_to 11000

$$$$
