AV-unprocessed.smi:2568|AV-procd|sdf|10088|dock10
  -GOLD-   2272014113D 1   1.00000     0.00000
 Structure written by MMmdl.
 25 26  0  0  0  0  0  0  0  0  2 V2000
  152.0952  137.8261  154.1983 C   0  0  0  0  0  0  0  0  0  0  0  0
  150.8157  138.5914  154.1665 C   0  0  0  0  0  0  0  0  0  0  0  0
  149.7068  138.0964  153.6138 N   0  0  0  0  0  0  0  0  0  0  0  0
  148.7111  139.0012  153.7236 N   0  0  0  0  0  0  0  0  0  0  0  0
  149.3112  139.9989  154.3716 C   0  0  0  0  0  0  0  0  0  0  0  0
  148.5733  141.2654  154.6759 C   0  0  2  0  0  0  0  0  0  0  0  0
  148.2111  141.3837  156.1683 C   0  0  0  0  0  0  0  0  0  0  0  0
  147.4056  142.5995  156.3933 N   0  3  0  0  0  0  0  0  0  0  0  0
  146.2123  142.6257  155.5241 C   0  0  0  0  0  0  0  0  0  0  0  0
  146.6229  142.4503  154.0509 C   0  0  0  0  0  0  0  0  0  0  0  0
  147.3776  141.2523  153.8987 O   0  0  0  0  0  0  0  0  0  0  0  0
  150.6359  139.8113  154.6611 N   0  0  0  0  0  0  0  0  0  0  0  0
  149.5905  137.1975  153.1674 H   0  0  0  0  0  0  0  0  0  0  0  0
  152.8699  138.3981  154.7100 H   0  0  0  0  0  0  0  0  0  0  0  0
  152.4306  137.6154  153.1826 H   0  0  0  0  0  0  0  0  0  0  0  0
  151.9541  136.8820  154.7251 H   0  0  0  0  0  0  0  0  0  0  0  0
  149.1910  142.1123  154.3693 H   0  0  0  0  0  0  0  0  0  0  0  0
  147.6399  140.5127  156.4932 H   0  0  0  0  0  0  0  0  0  0  0  0
  149.1110  141.4269  156.7826 H   0  0  0  0  0  0  0  0  0  0  0  0
  147.1183  142.6386  157.3610 H   0  0  0  0  0  0  0  0  0  0  0  0
  145.5337  141.8260  155.8237 H   0  0  0  0  0  0  0  0  0  0  0  0
  145.6821  143.5676  155.6655 H   0  0  0  0  0  0  0  0  0  0  0  0
  145.7370  142.3931  153.4184 H   0  0  0  0  0  0  0  0  0  0  0  0
  147.2056  143.3053  153.7044 H   0  0  0  0  0  0  0  0  0  0  0  0
  147.9754  143.4077  156.1860 H   0  0  0  0  0  0  0  0  0  0  0  0
  1 14  1  0  0  0  0
  1 15  1  0  0  0  0
  1 16  1  0  0  0  0
  1  2  1  0  0  0  0
  2 12  2  0  0  0  0
  2  3  1  0  0  0  0
  3  4  1  0  0  0  0
  3 13  1  0  0  0  0
  4  5  2  0  0  0  0
  5 12  1  0  0  0  0
  5  6  1  0  0  0  0
  6 11  1  0  0  0  0
  6  7  1  0  0  0  0
  6 17  1  0  0  0  0
  7  8  1  0  0  0  0
  7 18  1  0  0  0  0
  7 19  1  0  0  0  0
  8  9  1  0  0  0  0
  8 20  1  0  0  0  0
  8 25  1  0  0  0  0
  9 10  1  0  0  0  0
  9 21  1  0  0  0  0
  9 22  1  0  0  0  0
 10 11  1  0  0  0  0
 10 23  1  0  0  0  0
 10 24  1  0  0  0  0
M  CHG  1   8   1
M  END
> <s_m_source_file>
AV-unprocessed.smi

> <i_m_source_file_index>
2568

> <i_lp_mmshare_version>
43012

> <i_f3d_flags>
0

> <s_epik_input>
W0NIM11jMW5bbkhdYyhuMSlbQ0BASF0yW0NIMl1bTkhdW0NIMl1bQ0gyXU8y

> <s_epik_cmdline>
J2VwaWtfcHl0aG9uJywgJy1waCcsICc3LjAnLCAnLXRuJywgJzgnLCAnLW1hJywgJzIwMCcsICctbWV0YWxfYmluZGluZycsICctaW1hZScsICc8aW5maWxlLm1hZT4nLCAnLW9tYWUnLCAnPG91dGZpbGUubWFlPic=

> <r_lp_tautomer_probability>
0.948284

> <r_epik_Ionization_Penalty>
0.107151

> <r_epik_Ionization_Penalty_Charging>
0.100865

> <r_epik_Ionization_Penalty_Neutral>
0.00628602

> <r_epik_State_Penalty>
0.200426

> <r_epik_Charging_Adjusted_Penalty>
0.30129

> <i_epik_Tot_Q>
1

> <i_epik_Tot_abs_Q>
1

> <r_epik_Metal_State_Penalty>
0.501686

> <b_epik_Metal_Only>
0

> <s_lp_Force_Field>
OPLS_2005

> <r_lp_Energy>
11.0041

> <b_lp_Chiralities_Consistent>
1

> <s_lp_Variant>
AV-unprocessed.smi:2568-1

> <Gold.Version>
5.8.1

> <Gold.Id.Protein>
6NUR|6NUR_protein|mol2

> <Gold.PLP.Fitness>
31.3018

> <Gold.PLP.PLP>
-20.6377

> <Gold.PLP.part.hbond>
-3.7464

> <Gold.PLP.part.metal>
0.0000

> <Gold.PLP.part.buried>
-2.7818

> <Gold.PLP.part.nonpolar>
-15.2718

> <Gold.PLP.part.repulsive>
1.9447

> <Gold.PLP.ligand.clash>
0.0000

> <Gold.PLP.ligand.torsion>
0.3751

> <Gold.PLP.Chemscore.Hbond>
3.8000

> <Gold.PLP.Chemscore.CHOScore>
0.0000

> <Gold.PLP.Chemscore.Metal>
0.0000

> <Gold.Chemscore.Hbonds>
donor molecule, donor type, donor heavy atom, donor atom, acceptor molecule, acceptor atom, score
      L1  H     3    13       P1  7948  1.00
      L1  H     8    25       P1  8028  1.80
      P1  H  7989  7998       L1    12  1.00

> <Gold.PLP.Chemscore.Internal.Correction>
0.0143

> <Gold.Rescore>
     Score         DG    S(hbond)    S(metal)    S(lipo)     H(rot)  DE(clash)    DE(int)     intcor
     12.30     -13.52       2.14        0.00      29.52       1.00       0.86       0.37       ----

> <Gold.Chemscore.Fitness>
12.2991

> <Gold.Chemscore.DG>
-13.5242

> <Gold.Chemscore.ZeroCoef>
-5.4800

> <Gold.Chemscore.Hbond>
2.1407

> <Gold.Chemscore.Metal>
0.0000

> <Gold.Chemscore.Lipo>
29.5242

> <Gold.Chemscore.Internal_Hbond>
0.0000

> <Gold.Chemscore.DEClash>
0.8576

> <Gold.Chemscore.DEInternal>
0.3674

> <Gold.Chemscore.Rot>
1.0000

> <Gold.Chemscore.Internal.Correction>
   9.000000E+99

> <Gold.Chemscore.Hbonds>
donor molecule, donor type, donor heavy atom, donor atom, acceptor molecule, acceptor atom, score
      L1  H     3    13       P1  7948  0.70
      L1  H     8    25       P1  8028  0.18
      P1  H  7989  7998       L1    12  0.23

> <Gold.Chemscore.Hbond.Weighted>
-7.1498

> <Gold.Chemscore.Metal.Weighted>
-0.0000

> <Gold.Chemscore.Lipo.Weighted>
-3.4543

> <Gold.Chemscore.Internal_Hbond.Weighted>
0.0000

> <Gold.Chemscore.DEClash.Weighted>
0.8576

> <Gold.Chemscore.DEInternal.Weighted>
0.3674

> <Gold.Chemscore.Rot.Weighted>
2.5600

> <Gold.Chemscore.Internal.Correction.Weighted>
   9.000000E+99

> <Gold.Protein.RotatedTorsions>
[ 6907 6896 6895 6894 ] final  152.26 input  -60.11 | X-H torsion
[ 7974 7965 7964 7962 ] final  -70.61 input  175.53 | X-H torsion
[ 8008 7997 7996 7995 ] final   42.65 input   59.86 | X-H torsion
[ 10167 10162 10161 10158 ] final   53.50 input  -65.29 | X-H torsion
[ 10718 10713 10712 10709 ] final -121.69 input   66.30 | X-H torsion
[ 10763 10752 10751 10750 ] final  132.15 input  -60.55 | X-H torsion
[ 11005 11000 10999 10996 ] final  -16.49 input  -57.11 | X-H torsion

> <Gold.Protein.ActiveResidues>
 VAL166  LYS551  ARG553  GLY616  TRP617  ASP618  TYR619  PRO620  LYS621  CYS622 
 ASP623  PHE694  ASN695  SER759  ASP760  ASP761  ALA762  ILE779  LEU786  VAL792 
 PHE793  MET794  SER795  GLU796  ALA797  LYS798  CYS799  TRP800  GLU811  SER814 

> <Gold.Protein.RotatedAtoms>
  152.0893  133.4192  159.4536 H   0  0  0  0  0  0  0  0  0  0  0  0  # atno 6907 bound_to 6896
  150.6862  134.2891  159.4668 H   0  0  0  0  0  0  0  0  0  0  0  0  # atno 6908 bound_to 6896
  152.0741  134.9514  160.0625 H   0  0  0  0  0  0  0  0  0  0  0  0  # atno 6909 bound_to 6896
  145.6888  140.9161  143.0793 H   0  0  0  0  0  0  0  0  0  0  0  0  # atno 7974 bound_to 7965
  155.2898  140.3378  155.4253 H   0  0  0  0  0  0  0  0  0  0  0  0  # atno 8008 bound_to 7997
  156.2051  140.1748  156.7856 H   0  0  0  0  0  0  0  0  0  0  0  0  # atno 8009 bound_to 7997
  154.5610  140.0687  156.8804 H   0  0  0  0  0  0  0  0  0  0  0  0  # atno 8010 bound_to 7997
  140.2401  144.3592  150.6383 H   0  0  0  0  0  0  0  0  0  0  0  0  # atno 10167 bound_to 10162
  156.1357  130.6429  150.9693 H   0  0  0  0  0  0  0  0  0  0  0  0  # atno 10718 bound_to 10713
  153.7860  135.3161  155.3372 H   0  0  0  0  0  0  0  0  0  0  0  0  # atno 10763 bound_to 10752
  154.8143  135.4646  154.0605 H   0  0  0  0  0  0  0  0  0  0  0  0  # atno 10764 bound_to 10752
  153.1908  135.6908  153.8441 H   0  0  0  0  0  0  0  0  0  0  0  0  # atno 10765 bound_to 10752
  140.8073  133.8168  155.9528 H   0  0  0  0  0  0  0  0  0  0  0  0  # atno 11005 bound_to 11000
  144.7003  139.8794  143.7446 LP  0  0  0  0  0  0  0  0  0  0  0  0  # atno 17320 bound_to 7965
  146.0900  139.3890  143.0411 LP  0  0  0  0  0  0  0  0  0  0  0  0  # atno 17321 bound_to 7965
  140.6120  143.2170  151.6868 LP  0  0  0  0  0  0  0  0  0  0  0  0  # atno 17342 bound_to 10162
  139.5080  144.3626  152.0547 LP  0  0  0  0  0  0  0  0  0  0  0  0  # atno 17343 bound_to 10162
  157.6530  131.0894  150.8009 LP  0  0  0  0  0  0  0  0  0  0  0  0  # atno 17370 bound_to 10713
  156.8089  130.4946  149.5359 LP  0  0  0  0  0  0  0  0  0  0  0  0  # atno 17371 bound_to 10713
  140.9234  134.2113  157.4912 LP  0  0  0  0  0  0  0  0  0  0  0  0  # atno 17394 bound_to 11000
  139.8717  134.9802  156.5066 LP  0  0  0  0  0  0  0  0  0  0  0  0  # atno 17395 bound_to 11000

$$$$
