AV-unprocessed.smi:573|AV-procd|sdf|2969|dock1
  -GOLD-   2262023473D 1   1.00000     0.00000
 Structure written by MMmdl.
 45 47  0  0  0  0  0  0  0  0  2 V2000
  148.8874  139.3307  155.1140 C   0  0  0  0  0  0  0  0  0  0  0  0
  149.5024  140.4689  154.2862 C   0  0  2  0  0  0  0  0  0  0  0  0
  150.6183  139.9600  153.5879 O   0  0  0  0  0  0  0  0  0  0  0  0
  149.9807  141.6542  155.1457 C   0  0  0  0  0  0  0  0  0  0  0  0
  150.8316  141.2407  156.2524 N   0  0  0  0  0  0  0  0  0  0  0  0
  151.1046  142.1438  157.2863 C   0  0  0  0  0  0  0  0  0  0  0  0
  150.9067  143.4887  157.2504 N   0  3  0  0  0  0  0  0  0  0  0  0
  151.2886  144.0223  158.4844 C   0  0  0  0  0  0  0  0  0  0  0  0
  151.2754  145.3343  158.9474 C   0  0  0  0  0  0  0  0  0  0  0  0
  151.7239  145.5448  160.2676 C   0  0  0  0  0  0  0  0  0  0  0  0
  152.1614  144.4748  161.0749 C   0  0  0  0  0  0  0  0  0  0  0  0
  152.1739  143.1480  160.5966 C   0  0  0  0  0  0  0  0  0  0  0  0
  151.7338  142.9452  159.2886 C   0  0  0  0  0  0  0  0  0  0  0  0
  151.6110  141.7955  158.4966 N   0  0  0  0  0  0  0  0  0  0  0  0
  151.9907  140.4805  159.0324 C   0  0  0  0  0  0  0  0  0  0  0  0
  153.4685  140.4338  159.4532 C   0  0  1  0  0  0  0  0  0  0  0  0
  153.6375  140.5556  160.9792 C   0  0  0  0  0  0  0  0  0  0  0  0
  155.1168  140.4469  161.3663 C   0  0  0  0  0  0  0  0  0  0  0  0
  155.7169  139.1721  160.7636 C   0  0  0  0  0  0  0  0  0  0  0  0
  155.4405  139.1122  159.2526 C   0  0  0  0  0  0  0  0  0  0  0  0
  154.0400  139.2038  159.0107 O   0  0  0  0  0  0  0  0  0  0  0  0
  147.9955  139.6653  155.6443 H   0  0  0  0  0  0  0  0  0  0  0  0
  149.5919  138.9515  155.8550 H   0  0  0  0  0  0  0  0  0  0  0  0
  148.5928  138.4960  154.4768 H   0  0  0  0  0  0  0  0  0  0  0  0
  148.7793  140.8087  153.5440 H   0  0  0  0  0  0  0  0  0  0  0  0
  150.3749  139.8270  152.6843 H   0  0  0  0  0  0  0  0  0  0  0  0
  150.5399  142.3588  154.5291 H   0  0  0  0  0  0  0  0  0  0  0  0
  149.1260  142.2062  155.5391 H   0  0  0  0  0  0  0  0  0  0  0  0
  150.9670  140.2527  156.4128 H   0  0  0  0  0  0  0  0  0  0  0  0
  150.9380  146.1560  158.3328 H   0  0  0  0  0  0  0  0  0  0  0  0
  151.7303  146.5474  160.6703 H   0  0  0  0  0  0  0  0  0  0  0  0
  152.4940  144.6751  162.0833 H   0  0  0  0  0  0  0  0  0  0  0  0
  152.5060  142.3370  161.2274 H   0  0  0  0  0  0  0  0  0  0  0  0
  151.3491  140.2786  159.8910 H   0  0  0  0  0  0  0  0  0  0  0  0
  151.7645  139.7110  158.2944 H   0  0  0  0  0  0  0  0  0  0  0  0
  153.9920  141.2587  158.9659 H   0  0  0  0  0  0  0  0  0  0  0  0
  153.2289  141.5029  161.3320 H   0  0  0  0  0  0  0  0  0  0  0  0
  153.0719  139.7663  161.4764 H   0  0  0  0  0  0  0  0  0  0  0  0
  155.6583  141.3188  160.9968 H   0  0  0  0  0  0  0  0  0  0  0  0
  155.2282  140.4442  162.4509 H   0  0  0  0  0  0  0  0  0  0  0  0
  156.7898  139.1337  160.9534 H   0  0  0  0  0  0  0  0  0  0  0  0
  155.2814  138.2975  161.2481 H   0  0  0  0  0  0  0  0  0  0  0  0
  155.9635  139.9138  158.7286 H   0  0  0  0  0  0  0  0  0  0  0  0
  155.8075  138.1716  158.8418 H   0  0  0  0  0  0  0  0  0  0  0  0
  150.5408  143.9945  156.4541 H   0  0  0  0  0  0  0  0  0  0  0  0
  1  2  1  0  0  0  0
  1 22  1  0  0  0  0
  1 23  1  0  0  0  0
  1 24  1  0  0  0  0
  2  3  1  0  0  0  0
  2  4  1  0  0  0  0
  2 25  1  0  0  0  0
  3 26  1  0  0  0  0
  4  5  1  0  0  0  0
  4 27  1  0  0  0  0
  4 28  1  0  0  0  0
  5  6  1  0  0  0  0
  5 29  1  0  0  0  0
  6 14  1  0  0  0  0
  6  7  2  0  0  0  0
  7  8  1  0  0  0  0
  7 45  1  0  0  0  0
  8 13  2  0  0  0  0
  8  9  1  0  0  0  0
  9 10  2  0  0  0  0
  9 30  1  0  0  0  0
 10 11  1  0  0  0  0
 10 31  1  0  0  0  0
 11 12  2  0  0  0  0
 11 32  1  0  0  0  0
 12 13  1  0  0  0  0
 12 33  1  0  0  0  0
 13 14  1  0  0  0  0
 14 15  1  0  0  0  0
 15 16  1  0  0  0  0
 15 34  1  0  0  0  0
 15 35  1  0  0  0  0
 16 21  1  0  0  0  0
 16 17  1  0  0  0  0
 16 36  1  0  0  0  0
 17 18  1  0  0  0  0
 17 37  1  0  0  0  0
 17 38  1  0  0  0  0
 18 19  1  0  0  0  0
 18 39  1  0  0  0  0
 18 40  1  0  0  0  0
 19 20  1  0  0  0  0
 19 41  1  0  0  0  0
 19 42  1  0  0  0  0
 20 21  1  0  0  0  0
 20 43  1  0  0  0  0
 20 44  1  0  0  0  0
M  CHG  1   7   1
M  END
> <s_m_source_file>
AV-unprocessed.smi

> <i_m_source_file_index>
573

> <i_lp_mmshare_version>
43012

> <i_f3d_flags>
0

> <s_epik_input>
W0NIM11bQ0BIXShbT0hdKVtDSDJdW05IXWMobjEpbihjKGMxMilbY0hdW2NIXVtjSF1bY0hdMilbQ0gyXVtDQEBIXTNbQ0gyXVtDSDJdW0NIMl1bQ0gyXU8z

> <s_epik_cmdline>
J2VwaWtfcHl0aG9uJywgJy1waCcsICc3LjAnLCAnLXRuJywgJzgnLCAnLW1hJywgJzIwMCcsICctbWV0YWxfYmluZGluZycsICctaW1hZScsICc8aW5maWxlLm1hZT4nLCAnLW9tYWUnLCAnPG91dGZpbGUubWFlPic=

> <r_epik_Ionization_Penalty>
0.0692245

> <r_epik_Ionization_Penalty_Charging>
0.0692223

> <r_epik_Ionization_Penalty_Neutral>
2.1869e-06

> <r_epik_State_Penalty>
0.0606215

> <r_epik_Charging_Adjusted_Penalty>
0.129844

> <i_epik_Tot_Q>
1

> <i_epik_Tot_abs_Q>
1

> <r_epik_Metal_State_Penalty>
2.77811

> <b_epik_Metal_Only>
0

> <s_lp_Force_Field>
OPLS_2005

> <r_lp_Energy>
19.2261

> <b_lp_Chiralities_Consistent>
1

> <s_lp_Variant>
AV-unprocessed.smi:573-3

> <Gold.Version>
5.8.1

> <Gold.Id.Protein>
6NUR|6NUR_protein|mol2

> <Gold.PLP.Fitness>
54.3630

> <Gold.PLP.PLP>
-43.9228

> <Gold.PLP.part.hbond>
-3.4623

> <Gold.PLP.part.metal>
0.0000

> <Gold.PLP.part.buried>
-3.6672

> <Gold.PLP.part.nonpolar>
-36.4329

> <Gold.PLP.part.repulsive>
0.0806

> <Gold.PLP.ligand.clash>
0.0000

> <Gold.PLP.ligand.torsion>
0.7343

> <Gold.PLP.Chemscore.Hbond>
3.9600

> <Gold.PLP.Chemscore.CHOScore>
0.0000

> <Gold.PLP.Chemscore.Metal>
0.0000

> <Gold.Chemscore.Hbonds>
donor molecule, donor type, donor heavy atom, donor atom, acceptor molecule, acceptor atom, score
      L1  H     3    26       P1  7957  1.00
      L1  H     7    45       P1  8028  1.76
      P1  H  7989  7998       L1     3  0.46
      P1  H  7997  8008       L1    21  0.07

> <Gold.PLP.Chemscore.Internal.Correction>
0.0289

> <Gold.Rescore>
     Score         DG    S(hbond)    S(metal)    S(lipo)     H(rot)  DE(clash)    DE(int)     intcor
     20.74     -22.48       2.41        0.00     121.62       2.07       0.09       1.65       ----

> <Gold.Chemscore.Fitness>
20.7370

> <Gold.Chemscore.DG>
-22.4756

> <Gold.Chemscore.ZeroCoef>
-5.4800

> <Gold.Chemscore.Hbond>
2.4148

> <Gold.Chemscore.Metal>
0.0000

> <Gold.Chemscore.Lipo>
121.6191

> <Gold.Chemscore.Internal_Hbond>
0.0000

> <Gold.Chemscore.DEClash>
0.0870

> <Gold.Chemscore.DEInternal>
1.6517

> <Gold.Chemscore.Rot>
2.0699

> <Gold.Chemscore.Internal.Correction>
   9.000000E+99

> <Gold.Chemscore.Hbonds>
donor molecule, donor type, donor heavy atom, donor atom, acceptor molecule, acceptor atom, score
      L1  H     3    26       P1  7957  0.92
      L1  H     7    45       P1  8028  0.86
      P1  H  7989  7998       L1     3  0.12

> <Gold.Chemscore.Hbond.Weighted>
-8.0653

> <Gold.Chemscore.Metal.Weighted>
-0.0000

> <Gold.Chemscore.Lipo.Weighted>
-14.2294

> <Gold.Chemscore.Internal_Hbond.Weighted>
0.0000

> <Gold.Chemscore.DEClash.Weighted>
0.0870

> <Gold.Chemscore.DEInternal.Weighted>
1.6517

> <Gold.Chemscore.Rot.Weighted>
5.2991

> <Gold.Chemscore.Internal.Correction.Weighted>
   9.000000E+99

> <Gold.Protein.RotatedTorsions>
[ 6907 6896 6895 6894 ] final  -58.93 input  -60.11 | X-H torsion
[ 7974 7965 7964 7962 ] final  -28.30 input  175.53 | X-H torsion
[ 8008 7997 7996 7995 ] final  -91.11 input   59.86 | X-H torsion
[ 10167 10162 10161 10158 ] final   25.06 input  -65.29 | X-H torsion
[ 10718 10713 10712 10709 ] final -147.00 input   66.30 | X-H torsion
[ 10763 10752 10751 10750 ] final  172.98 input  -60.55 | X-H torsion
[ 11005 11000 10999 10996 ] final   -4.70 input  -57.11 | X-H torsion

> <Gold.Protein.ActiveResidues>
 VAL166  LYS551  ARG553  GLY616  TRP617  ASP618  TYR619  PRO620  LYS621  CYS622 
 ASP623  PHE694  ASN695  SER759  ASP760  ASP761  ALA762  ILE779  LEU786  VAL792 
 PHE793  MET794  SER795  GLU796  ALA797  LYS798  CYS799  TRP800  GLU811  SER814 

> <Gold.Protein.RotatedAtoms>
  150.7969  134.7034  159.6562 H   0  0  0  0  0  0  0  0  0  0  0  0  # atno 6907 bound_to 6896
  152.4082  134.6167  160.0050 H   0  0  0  0  0  0  0  0  0  0  0  0  # atno 6908 bound_to 6896
  151.6418  133.3288  159.3168 H   0  0  0  0  0  0  0  0  0  0  0  0  # atno 6909 bound_to 6896
  146.1297  140.5265  142.8699 H   0  0  0  0  0  0  0  0  0  0  0  0  # atno 7974 bound_to 7965
  154.7068  140.0523  157.0511 H   0  0  0  0  0  0  0  0  0  0  0  0  # atno 8008 bound_to 7997
  155.0609  140.3189  155.4642 H   0  0  0  0  0  0  0  0  0  0  0  0  # atno 8009 bound_to 7997
  156.2777  140.2099  156.5736 H   0  0  0  0  0  0  0  0  0  0  0  0  # atno 8010 bound_to 7997
  140.5137  144.0118  150.6384 H   0  0  0  0  0  0  0  0  0  0  0  0  # atno 10167 bound_to 10162
  156.4020  130.7938  151.2150 H   0  0  0  0  0  0  0  0  0  0  0  0  # atno 10718 bound_to 10713
  154.4337  135.2760  155.1895 H   0  0  0  0  0  0  0  0  0  0  0  0  # atno 10763 bound_to 10752
  154.3791  135.6091  153.5784 H   0  0  0  0  0  0  0  0  0  0  0  0  # atno 10764 bound_to 10752
  152.9837  135.5876  154.4652 H   0  0  0  0  0  0  0  0  0  0  0  0  # atno 10765 bound_to 10752
  140.6832  133.9136  155.8568 H   0  0  0  0  0  0  0  0  0  0  0  0  # atno 11005 bound_to 11000
  144.7678  140.5570  143.6691 LP  0  0  0  0  0  0  0  0  0  0  0  0  # atno 17320 bound_to 7965
  145.5287  139.1475  143.3512 LP  0  0  0  0  0  0  0  0  0  0  0  0  # atno 17321 bound_to 7965
  140.3447  143.2998  152.0551 LP  0  0  0  0  0  0  0  0  0  0  0  0  # atno 17342 bound_to 10162
  139.4903  144.6417  151.6863 LP  0  0  0  0  0  0  0  0  0  0  0  0  # atno 17343 bound_to 10162
  157.7504  131.0284  150.4046 LP  0  0  0  0  0  0  0  0  0  0  0  0  # atno 17370 bound_to 10713
  156.4328  130.3975  149.6749 LP  0  0  0  0  0  0  0  0  0  0  0  0  # atno 17371 bound_to 10713
  141.0301  134.0768  157.4024 LP  0  0  0  0  0  0  0  0  0  0  0  0  # atno 17394 bound_to 11000
  139.8945  135.0136  156.6956 LP  0  0  0  0  0  0  0  0  0  0  0  0  # atno 17395 bound_to 11000

$$$$
