AV-unprocessed.smi:2952|AV-procd|sdf|11292|dock9
  -GOLD-   2272016183D 1   1.00000     0.00000
 Structure written by MMmdl.
 39 41  0  0  0  0  0  0  0  0  2 V2000
  151.8526  137.2762  154.7236 O   0  0  0  0  0  0  0  0  0  0  0  0
  151.9287  138.6748  154.9058 C   0  0  0  0  0  0  0  0  0  0  0  0
  151.3883  139.0858  156.2849 C   0  0  0  0  0  0  0  0  0  0  0  0
  151.0063  140.5064  156.3478 N   0  0  0  0  0  0  0  0  0  0  0  0
  150.1493  141.2213  155.5623 C   0  0  0  0  0  0  0  0  0  0  0  0
  149.3523  140.7118  154.4024 C   0  0  0  0  0  0  0  0  0  0  0  0
  147.9167  140.9513  154.5267 N   0  0  0  0  0  0  0  0  0  0  0  0
  147.5307  142.2958  154.1048 C   0  0  0  0  0  0  0  0  0  0  0  0
  146.0171  142.5276  154.2539 C   0  0  0  0  0  0  0  0  0  0  0  0
  145.6268  142.2824  155.6013 O   0  0  0  0  0  0  0  0  0  0  0  0
  145.9462  140.9643  156.0360 C   0  0  0  0  0  0  0  0  0  0  0  0
  147.4597  140.7282  155.8934 C   0  0  0  0  0  0  0  0  0  0  0  0
  150.1454  142.5015  156.0294 N   0  3  0  0  0  0  0  0  0  0  0  0
  151.0022  142.6072  157.1254 C   0  0  0  0  0  0  0  0  0  0  0  0
  151.3233  143.6978  157.9273 C   0  0  0  0  0  0  0  0  0  0  0  0
  152.2355  143.4644  158.9770 C   0  0  0  0  0  0  0  0  0  0  0  0
  152.7914  142.1873  159.1987 C   0  0  0  0  0  0  0  0  0  0  0  0
  153.8992  141.9606  160.5013 Cl  0  0  0  0  0  0  0  0  0  0  0  0
  152.4582  141.0904  158.3766 C   0  0  0  0  0  0  0  0  0  0  0  0
  151.5571  141.3286  157.3389 C   0  0  0  0  0  0  0  0  0  0  0  0
  150.9456  137.0156  154.7784 H   0  0  0  0  0  0  0  0  0  0  0  0
  152.9681  138.9869  154.8031 H   0  0  0  0  0  0  0  0  0  0  0  0
  151.3667  139.1672  154.1118 H   0  0  0  0  0  0  0  0  0  0  0  0
  150.5393  138.4669  156.5745 H   0  0  0  0  0  0  0  0  0  0  0  0
  152.1519  138.9161  157.0437 H   0  0  0  0  0  0  0  0  0  0  0  0
  149.7281  141.2023  153.5039 H   0  0  0  0  0  0  0  0  0  0  0  0
  149.5461  139.6458  154.2743 H   0  0  0  0  0  0  0  0  0  0  0  0
  148.0690  143.0380  154.6963 H   0  0  0  0  0  0  0  0  0  0  0  0
  147.8119  142.4607  153.0646 H   0  0  0  0  0  0  0  0  0  0  0  0
  145.7625  143.5540  153.9897 H   0  0  0  0  0  0  0  0  0  0  0  0
  145.4580  141.8750  153.5815 H   0  0  0  0  0  0  0  0  0  0  0  0
  145.6398  140.8465  157.0755 H   0  0  0  0  0  0  0  0  0  0  0  0
  145.3845  140.2344  155.4510 H   0  0  0  0  0  0  0  0  0  0  0  0
  147.6954  139.7089  156.2013 H   0  0  0  0  0  0  0  0  0  0  0  0
  147.9939  141.3915  156.5756 H   0  0  0  0  0  0  0  0  0  0  0  0
  150.8981  144.6770  157.7626 H   0  0  0  0  0  0  0  0  0  0  0  0
  152.5124  144.2820  159.6268 H   0  0  0  0  0  0  0  0  0  0  0  0
  152.8842  140.1152  158.5595 H   0  0  0  0  0  0  0  0  0  0  0  0
  149.5933  143.2471  155.6256 H   0  0  0  0  0  0  0  0  0  0  0  0
  1  2  1  0  0  0  0
  1 21  1  0  0  0  0
  2  3  1  0  0  0  0
  2 22  1  0  0  0  0
  2 23  1  0  0  0  0
  3  4  1  0  0  0  0
  3 24  1  0  0  0  0
  3 25  1  0  0  0  0
  4 20  1  0  0  0  0
  4  5  1  0  0  0  0
  5  6  1  0  0  0  0
  5 13  2  0  0  0  0
  6  7  1  0  0  0  0
  6 26  1  0  0  0  0
  6 27  1  0  0  0  0
  7 12  1  0  0  0  0
  7  8  1  0  0  0  0
  8  9  1  0  0  0  0
  8 28  1  0  0  0  0
  8 29  1  0  0  0  0
  9 10  1  0  0  0  0
  9 30  1  0  0  0  0
  9 31  1  0  0  0  0
 10 11  1  0  0  0  0
 11 12  1  0  0  0  0
 11 32  1  0  0  0  0
 11 33  1  0  0  0  0
 12 34  1  0  0  0  0
 12 35  1  0  0  0  0
 13 14  1  0  0  0  0
 13 39  1  0  0  0  0
 14 20  2  0  0  0  0
 14 15  1  0  0  0  0
 15 16  2  0  0  0  0
 15 36  1  0  0  0  0
 16 17  1  0  0  0  0
 16 37  1  0  0  0  0
 17 18  1  0  0  0  0
 17 19  2  0  0  0  0
 19 20  1  0  0  0  0
 19 38  1  0  0  0  0
M  CHG  1  13   1
M  END
> <s_m_source_file>
AV-unprocessed.smi

> <i_m_source_file_index>
2952

> <i_lp_mmshare_version>
43012

> <i_f3d_flags>
0

> <s_epik_input>
W2NIXTFbY0hdYyhDbClbY0hdYyhjMTIpbihbQ0gyXVtDSDJdW09IXSljKG4yKVtDSDJdTjNbQ0gyXVtDSDJdT1tDSDJdW0NIMl0z

> <s_epik_cmdline>
J2VwaWtfcHl0aG9uJywgJy1waCcsICc3LjAnLCAnLXRuJywgJzgnLCAnLW1hJywgJzIwMCcsICctbWV0YWxfYmluZGluZycsICctaW1hZScsICc8aW5maWxlLm1hZT4nLCAnLW9tYWUnLCAnPG91dGZpbGUubWFlPic=

> <r_epik_Ionization_Penalty>
1.17151

> <r_epik_Ionization_Penalty_Charging>
1.1712

> <r_epik_Ionization_Penalty_Neutral>
0.000312352

> <r_epik_State_Penalty>
1.2343

> <r_epik_Charging_Adjusted_Penalty>
2.4055

> <i_epik_Tot_Q>
1

> <i_epik_Tot_abs_Q>
1

> <r_epik_Metal_State_Penalty>
5.24833

> <b_epik_Metal_Only>
0

> <s_lp_Force_Field>
OPLS_2005

> <r_lp_Energy>
24.7886

> <b_lp_Chiralities_Consistent>
1

> <s_lp_Variant>
AV-unprocessed.smi:2952-2

> <Gold.Version>
5.8.1

> <Gold.Id.Protein>
6NUR|6NUR_protein|mol2

> <Gold.PLP.Fitness>
51.1001

> <Gold.PLP.PLP>
-42.8111

> <Gold.PLP.part.hbond>
-2.0000

> <Gold.PLP.part.metal>
0.0000

> <Gold.PLP.part.buried>
-4.9318

> <Gold.PLP.part.nonpolar>
-36.3762

> <Gold.PLP.part.repulsive>
0.3926

> <Gold.PLP.ligand.clash>
0.0000

> <Gold.PLP.ligand.torsion>
0.3524

> <Gold.PLP.Chemscore.Hbond>
2.9920

> <Gold.PLP.Chemscore.CHOScore>
0.0000

> <Gold.PLP.Chemscore.Metal>
0.0000

> <Gold.Chemscore.Hbonds>
donor molecule, donor type, donor heavy atom, donor atom, acceptor molecule, acceptor atom, score
      L1  H    13    39       P1  8028  2.00
      P1  H 10752 10765       L1     1  0.99

> <Gold.PLP.Chemscore.Internal.Correction>
0.0177

> <Gold.Rescore>
     Score         DG    S(hbond)    S(metal)    S(lipo)     H(rot)  DE(clash)    DE(int)     intcor
     18.33     -18.84       1.92        0.00     107.05       2.18       0.06       0.45       ----

> <Gold.Chemscore.Fitness>
18.3285

> <Gold.Chemscore.DG>
-18.8391

> <Gold.Chemscore.ZeroCoef>
-5.4800

> <Gold.Chemscore.Hbond>
1.9222

> <Gold.Chemscore.Metal>
0.0000

> <Gold.Chemscore.Lipo>
107.0541

> <Gold.Chemscore.Internal_Hbond>
0.0000

> <Gold.Chemscore.DEClash>
0.0582

> <Gold.Chemscore.DEInternal>
0.4523

> <Gold.Chemscore.Rot>
2.1822

> <Gold.Chemscore.Internal.Correction>
   9.000000E+99

> <Gold.Chemscore.Hbonds>
donor molecule, donor type, donor heavy atom, donor atom, acceptor molecule, acceptor atom, score
      L1  H    13    39       P1  8028  0.97
      P1  H 10752 10765       L1     1  0.60

> <Gold.Chemscore.Hbond.Weighted>
-6.4201

> <Gold.Chemscore.Metal.Weighted>
-0.0000

> <Gold.Chemscore.Lipo.Weighted>
-12.5253

> <Gold.Chemscore.Internal_Hbond.Weighted>
0.0000

> <Gold.Chemscore.DEClash.Weighted>
0.0582

> <Gold.Chemscore.DEInternal.Weighted>
0.4523

> <Gold.Chemscore.Rot.Weighted>
5.5863

> <Gold.Chemscore.Internal.Correction.Weighted>
   9.000000E+99

> <Gold.Protein.RotatedTorsions>
[ 6907 6896 6895 6894 ] final  102.18 input  -60.11 | X-H torsion
[ 7974 7965 7964 7962 ] final  114.38 input  175.53 | X-H torsion
[ 8008 7997 7996 7995 ] final   17.92 input   59.86 | X-H torsion
[ 10167 10162 10161 10158 ] final  -34.62 input  -65.29 | X-H torsion
[ 10718 10713 10712 10709 ] final  -61.49 input   66.30 | X-H torsion
[ 10763 10752 10751 10750 ] final  171.66 input  -60.55 | X-H torsion
[ 11005 11000 10999 10996 ] final  -19.96 input  -57.11 | X-H torsion

> <Gold.Protein.ActiveResidues>
 VAL166  LYS551  ARG553  GLY616  TRP617  ASP618  TYR619  PRO620  LYS621  CYS622 
 ASP623  PHE694  ASN695  SER759  ASP760  ASP761  ALA762  ILE779  LEU786  VAL792 
 PHE793  MET794  SER795  GLU796  ALA797  LYS798  CYS799  TRP800  GLU811  SER814 

> <Gold.Protein.RotatedAtoms>
  152.5330  134.0014  159.7896 H   0  0  0  0  0  0  0  0  0  0  0  0  # atno 6907 bound_to 6896
  151.0232  133.5849  159.2676 H   0  0  0  0  0  0  0  0  0  0  0  0  # atno 6908 bound_to 6896
  151.2881  135.0741  159.9247 H   0  0  0  0  0  0  0  0  0  0  0  0  # atno 6909 bound_to 6896
  145.2051  139.2933  143.4298 H   0  0  0  0  0  0  0  0  0  0  0  0  # atno 7974 bound_to 7965
  154.8984  140.2997  155.5331 H   0  0  0  0  0  0  0  0  0  0  0  0  # atno 8008 bound_to 7997
  156.3019  140.2411  156.3944 H   0  0  0  0  0  0  0  0  0  0  0  0  # atno 8009 bound_to 7997
  154.8546  140.0408  157.1615 H   0  0  0  0  0  0  0  0  0  0  0  0  # atno 8010 bound_to 7997
  140.7182  143.3535  151.2108 H   0  0  0  0  0  0  0  0  0  0  0  0  # atno 10167 bound_to 10162
  156.0918  130.4199  150.1001 H   0  0  0  0  0  0  0  0  0  0  0  0  # atno 10718 bound_to 10713
  154.4150  135.2757  155.2012 H   0  0  0  0  0  0  0  0  0  0  0  0  # atno 10763 bound_to 10752
  154.3982  135.6050  153.5885 H   0  0  0  0  0  0  0  0  0  0  0  0  # atno 10764 bound_to 10752
  152.9832  135.5920  154.4438 H   0  0  0  0  0  0  0  0  0  0  0  0  # atno 10765 bound_to 10752
  140.8418  133.7921  155.9869 H   0  0  0  0  0  0  0  0  0  0  0  0  # atno 11005 bound_to 11000
  146.3409  140.2309  142.8593 LP  0  0  0  0  0  0  0  0  0  0  0  0  # atno 17320 bound_to 7965
  144.9910  140.8546  143.5339 LP  0  0  0  0  0  0  0  0  0  0  0  0  # atno 17321 bound_to 7965
  139.7071  143.9438  152.2931 LP  0  0  0  0  0  0  0  0  0  0  0  0  # atno 17342 bound_to 10162
  139.9150  144.6834  150.8522 LP  0  0  0  0  0  0  0  0  0  0  0  0  # atno 17343 bound_to 10162
  156.9009  130.9620  151.3576 LP  0  0  0  0  0  0  0  0  0  0  0  0  # atno 17370 bound_to 10713
  157.6070  130.8554  149.8890 LP  0  0  0  0  0  0  0  0  0  0  0  0  # atno 17371 bound_to 10713
  140.8887  134.2522  157.5106 LP  0  0  0  0  0  0  0  0  0  0  0  0  # atno 17394 bound_to 11000
  139.8703  134.9651  156.4516 LP  0  0  0  0  0  0  0  0  0  0  0  0  # atno 17395 bound_to 11000

$$$$
