AV-unprocessed.smi:890|AV-procd|sdf|4062|dock2
  -GOLD-   22720 1553D 1   1.00000     0.00000
 Structure written by MMmdl.
 52 55  0  0  0  0  0  0  0  0  2 V2000
  150.3087  134.3797  155.7555 O   0  0  0  0  0  0  0  0  0  0  0  0
  149.8540  134.9128  154.7436 C   0  0  0  0  0  0  0  0  0  0  0  0
  149.1257  134.2887  153.8027 N   0  0  0  0  0  0  0  0  0  0  0  0
  148.7176  132.9244  153.7717 C   0  0  0  0  0  0  0  0  0  0  0  0
  149.4725  131.8978  154.3951 C   0  0  0  0  0  0  0  0  0  0  0  0
  149.0271  130.5633  154.3302 C   0  0  0  0  0  0  0  0  0  0  0  0
  147.8397  130.2729  153.6353 C   0  0  0  0  0  0  0  0  0  0  0  0
  147.1539  131.2694  153.0378 N   0  3  0  0  0  0  0  0  0  0  0  0
  147.5332  132.5711  153.0693 C   0  0  0  0  0  0  0  0  0  0  0  0
  146.7521  133.5262  152.3854 N   0  0  0  0  0  0  0  0  0  0  0  0
  146.6821  133.3090  150.9427 C   0  0  0  0  0  0  0  0  0  0  0  0
  145.2553  133.6637  150.5168 C   0  0  0  0  0  0  0  0  0  0  0  0
  144.4439  133.4270  151.7845 C   0  0  0  0  0  0  0  0  0  0  0  0
  145.4164  133.8516  152.8826 C   0  0  0  0  0  0  0  0  0  0  0  0
  150.0128  136.2125  154.4550 N   0  0  0  0  0  0  0  0  0  0  0  0
  150.7293  137.1751  155.2870 C   0  0  0  0  0  0  0  0  0  0  0  0
  149.8924  137.5208  156.5290 C   0  0  0  0  0  0  0  0  0  0  0  0
  150.5624  138.6331  157.3554 C   0  0  0  0  0  0  0  0  0  0  0  0
  150.7474  139.8301  156.5347 N   0  0  0  0  0  0  0  0  0  0  0  0
  151.3387  140.8758  157.3535 C   0  0  0  0  0  0  0  0  0  0  0  0
  150.4417  141.5776  158.3478 C   0  0  0  0  0  0  0  0  0  0  0  0
  150.8920  142.2975  157.0995 C   0  0  0  0  0  0  0  0  0  0  0  0
  151.6504  139.5346  155.4222 C   0  0  0  0  0  0  0  0  0  0  0  0
  151.0303  138.4663  154.5049 C   0  0  0  0  0  0  0  0  0  0  0  0
  148.7381  134.8768  153.0796 H   0  0  0  0  0  0  0  0  0  0  0  0
  150.3953  132.1099  154.9133 H   0  0  0  0  0  0  0  0  0  0  0  0
  149.5923  129.7735  154.8032 H   0  0  0  0  0  0  0  0  0  0  0  0
  147.4257  129.2805  153.5315 H   0  0  0  0  0  0  0  0  0  0  0  0
  147.4146  133.9220  150.4172 H   0  0  0  0  0  0  0  0  0  0  0  0
  146.8916  132.2639  150.7077 H   0  0  0  0  0  0  0  0  0  0  0  0
  145.2025  134.7171  150.2376 H   0  0  0  0  0  0  0  0  0  0  0  0
  144.9065  133.0726  149.6693 H   0  0  0  0  0  0  0  0  0  0  0  0
  143.5088  133.9873  151.8053 H   0  0  0  0  0  0  0  0  0  0  0  0
  144.2076  132.3665  151.8836 H   0  0  0  0  0  0  0  0  0  0  0  0
  145.1665  133.3997  153.8425 H   0  0  0  0  0  0  0  0  0  0  0  0
  145.3700  134.9321  153.0223 H   0  0  0  0  0  0  0  0  0  0  0  0
  149.6045  136.5672  153.6026 H   0  0  0  0  0  0  0  0  0  0  0  0
  151.6700  136.7326  155.6206 H   0  0  0  0  0  0  0  0  0  0  0  0
  148.8941  137.8450  156.2304 H   0  0  0  0  0  0  0  0  0  0  0  0
  149.7573  136.6333  157.1481 H   0  0  0  0  0  0  0  0  0  0  0  0
  149.9357  138.8746  158.2150 H   0  0  0  0  0  0  0  0  0  0  0  0
  151.5223  138.2903  157.7450 H   0  0  0  0  0  0  0  0  0  0  0  0
  152.3766  140.7665  157.6639 H   0  0  0  0  0  0  0  0  0  0  0  0
  149.3986  141.2707  158.4006 H   0  0  0  0  0  0  0  0  0  0  0  0
  150.8846  141.8857  159.2926 H   0  0  0  0  0  0  0  0  0  0  0  0
  151.6359  143.0834  157.2122 H   0  0  0  0  0  0  0  0  0  0  0  0
  150.1489  142.4674  156.3225 H   0  0  0  0  0  0  0  0  0  0  0  0
  151.8319  140.4443  154.8485 H   0  0  0  0  0  0  0  0  0  0  0  0
  152.6167  139.1960  155.7999 H   0  0  0  0  0  0  0  0  0  0  0  0
  151.7097  138.2571  153.6780 H   0  0  0  0  0  0  0  0  0  0  0  0
  150.1137  138.8582  154.0610 H   0  0  0  0  0  0  0  0  0  0  0  0
  146.3028  131.0280  152.5296 H   0  0  0  0  0  0  0  0  0  0  0  0
  1  2  2  0  0  0  0
  2  3  1  0  0  0  0
  2 15  1  0  0  0  0
  3  4  1  0  0  0  0
  3 25  1  0  0  0  0
  4  9  1  0  0  0  0
  4  5  2  0  0  0  0
  5  6  1  0  0  0  0
  5 26  1  0  0  0  0
  6  7  2  0  0  0  0
  6 27  1  0  0  0  0
  7  8  1  0  0  0  0
  7 28  1  0  0  0  0
  8  9  2  0  0  0  0
  8 52  1  0  0  0  0
  9 10  1  0  0  0  0
 10 14  1  0  0  0  0
 10 11  1  0  0  0  0
 11 12  1  0  0  0  0
 11 29  1  0  0  0  0
 11 30  1  0  0  0  0
 12 13  1  0  0  0  0
 12 31  1  0  0  0  0
 12 32  1  0  0  0  0
 13 14  1  0  0  0  0
 13 33  1  0  0  0  0
 13 34  1  0  0  0  0
 14 35  1  0  0  0  0
 14 36  1  0  0  0  0
 15 16  1  0  0  0  0
 15 37  1  0  0  0  0
 16 24  1  0  0  0  0
 16 17  1  0  0  0  0
 16 38  1  0  0  0  0
 17 18  1  0  0  0  0
 17 39  1  0  0  0  0
 17 40  1  0  0  0  0
 18 19  1  0  0  0  0
 18 41  1  0  0  0  0
 18 42  1  0  0  0  0
 19 20  1  0  0  0  0
 19 23  1  0  0  0  0
 20 22  1  0  0  0  0
 20 21  1  0  0  0  0
 20 43  1  0  0  0  0
 21 22  1  0  0  0  0
 21 44  1  0  0  0  0
 21 45  1  0  0  0  0
 22 46  1  0  0  0  0
 22 47  1  0  0  0  0
 23 24  1  0  0  0  0
 23 48  1  0  0  0  0
 23 49  1  0  0  0  0
 24 50  1  0  0  0  0
 24 51  1  0  0  0  0
M  CHG  1   8   1
M  END
> <s_m_source_file>
AV-unprocessed.smi

> <i_m_source_file_index>
890

> <i_lp_mmshare_version>
43012

> <i_f3d_flags>
0

> <s_epik_input>
W0NIMl0xW0NIMl1bQ0hdMU4oW0NIMl1bQ0gyXTIpW0NIMl1bQ0gyXVtDSF0yW05IXUMoPU8pW05IXWMzW2NIXVtjSF1bY0hdbmMzTjRbQ0gyXVtDSDJdW0NIMl1bQ0gyXTQ=

> <s_epik_cmdline>
J2VwaWtfcHl0aG9uJywgJy1waCcsICc3LjAnLCAnLXRuJywgJzgnLCAnLW1hJywgJzIwMCcsICctbWV0YWxfYmluZGluZycsICctaW1hZScsICc8aW5maWxlLm1hZT4nLCAnLW9tYWUnLCAnPG91dGZpbGUubWFlPic=

> <r_epik_Ionization_Penalty>
2.06048

> <r_epik_Ionization_Penalty_Charging>
1.08388

> <r_epik_Ionization_Penalty_Neutral>
0.976602

> <r_epik_State_Penalty>
2.25814

> <r_epik_Charging_Adjusted_Penalty>
3.34202

> <i_epik_Tot_Q>
1

> <i_epik_Tot_abs_Q>
1

> <r_epik_Metal_State_Penalty>
2.33083

> <b_epik_Metal_Only>
0

> <s_lp_Force_Field>
OPLS_2005

> <r_lp_Energy>
56.489

> <b_lp_Chiralities_Consistent>
1

> <s_lp_Variant>
AV-unprocessed.smi:890-6

> <Gold.Version>
5.8.1

> <Gold.Id.Protein>
6NUR|6NUR_protein|mol2

> <Gold.PLP.Fitness>
43.6410

> <Gold.PLP.PLP>
-38.4021

> <Gold.PLP.part.hbond>
-2.6838

> <Gold.PLP.part.metal>
0.0000

> <Gold.PLP.part.buried>
-3.3184

> <Gold.PLP.part.nonpolar>
-31.9537

> <Gold.PLP.part.repulsive>
0.2365

> <Gold.PLP.ligand.clash>
0.0000

> <Gold.PLP.ligand.torsion>
1.0216

> <Gold.PLP.Chemscore.Hbond>
1.9840

> <Gold.PLP.Chemscore.CHOScore>
0.0000

> <Gold.PLP.Chemscore.Metal>
0.0000

> <Gold.Chemscore.Hbonds>
donor molecule, donor type, donor heavy atom, donor atom, acceptor molecule, acceptor atom, score
      L1  H     3    25       P1  7948  0.98
      L1  H    15    37       P1  7948  0.96

> <Gold.PLP.Chemscore.Internal.Correction>
1.3302

> <Gold.Rescore>
     Score         DG    S(hbond)    S(metal)    S(lipo)     H(rot)  DE(clash)    DE(int)     intcor
     14.41     -16.76       1.36        0.00      86.40       1.32       0.11       2.24       ----

> <Gold.Chemscore.Fitness>
14.4060

> <Gold.Chemscore.DG>
-16.7566

> <Gold.Chemscore.ZeroCoef>
-5.4800

> <Gold.Chemscore.Hbond>
1.3644

> <Gold.Chemscore.Metal>
0.0000

> <Gold.Chemscore.Lipo>
86.3974

> <Gold.Chemscore.Internal_Hbond>
0.0000

> <Gold.Chemscore.DEClash>
0.1067

> <Gold.Chemscore.DEInternal>
2.2438

> <Gold.Chemscore.Rot>
1.3239

> <Gold.Chemscore.Internal.Correction>
   9.000000E+99

> <Gold.Chemscore.Hbonds>
donor molecule, donor type, donor heavy atom, donor atom, acceptor molecule, acceptor atom, score
      L1  H     3    25       P1  7948  0.28
      L1  H    15    37       P1  7948  0.60

> <Gold.Chemscore.Hbond.Weighted>
-4.5572

> <Gold.Chemscore.Metal.Weighted>
-0.0000

> <Gold.Chemscore.Lipo.Weighted>
-10.1085

> <Gold.Chemscore.Internal_Hbond.Weighted>
0.0000

> <Gold.Chemscore.DEClash.Weighted>
0.1067

> <Gold.Chemscore.DEInternal.Weighted>
2.2438

> <Gold.Chemscore.Rot.Weighted>
3.3891

> <Gold.Chemscore.Internal.Correction.Weighted>
   9.000000E+99

> <Gold.Protein.RotatedTorsions>
[ 6907 6896 6895 6894 ] final   81.39 input  -60.11 | X-H torsion
[ 7974 7965 7964 7962 ] final -171.53 input  175.53 | X-H torsion
[ 8008 7997 7996 7995 ] final  160.67 input   59.86 | X-H torsion
[ 10167 10162 10161 10158 ] final   74.99 input  -65.29 | X-H torsion
[ 10718 10713 10712 10709 ] final -149.30 input   66.30 | X-H torsion
[ 10763 10752 10751 10750 ] final -157.95 input  -60.55 | X-H torsion
[ 11005 11000 10999 10996 ] final -171.44 input  -57.11 | X-H torsion

> <Gold.Protein.ActiveResidues>
 VAL166  LYS551  ARG553  GLY616  TRP617  ASP618  TYR619  PRO620  LYS621  CYS622 
 ASP623  PHE694  ASN695  SER759  ASP760  ASP761  ALA762  ILE779  LEU786  VAL792 
 PHE793  MET794  SER795  GLU796  ALA797  LYS798  CYS799  TRP800  GLU811  SER814 

> <Gold.Protein.RotatedAtoms>
  152.5267  134.3211  159.9148 H   0  0  0  0  0  0  0  0  0  0  0  0  # atno 6907 bound_to 6896
  151.3161  133.4053  159.2658 H   0  0  0  0  0  0  0  0  0  0  0  0  # atno 6908 bound_to 6896
  150.9998  134.9330  159.8005 H   0  0  0  0  0  0  0  0  0  0  0  0  # atno 6909 bound_to 6896
  144.7156  140.1909  143.6348 H   0  0  0  0  0  0  0  0  0  0  0  0  # atno 7974 bound_to 7965
  156.2156  140.1798  156.7596 H   0  0  0  0  0  0  0  0  0  0  0  0  # atno 8008 bound_to 7997
  154.5786  140.0670  156.9100 H   0  0  0  0  0  0  0  0  0  0  0  0  # atno 8009 bound_to 7997
  155.2542  140.3331  155.4281 H   0  0  0  0  0  0  0  0  0  0  0  0  # atno 8010 bound_to 7997
  140.0077  144.5638  150.7684 H   0  0  0  0  0  0  0  0  0  0  0  0  # atno 10167 bound_to 10162
  156.4314  130.8077  151.2304 H   0  0  0  0  0  0  0  0  0  0  0  0  # atno 10718 bound_to 10713
  154.7596  135.3114  154.8404 H   0  0  0  0  0  0  0  0  0  0  0  0  # atno 10763 bound_to 10752
  153.9169  135.6800  153.4753 H   0  0  0  0  0  0  0  0  0  0  0  0  # atno 10764 bound_to 10752
  153.1195  135.4829  154.9103 H   0  0  0  0  0  0  0  0  0  0  0  0  # atno 10765 bound_to 10752
  140.5082  134.5827  157.5010 H   0  0  0  0  0  0  0  0  0  0  0  0  # atno 11005 bound_to 11000
  145.8769  139.2302  143.1628 LP  0  0  0  0  0  0  0  0  0  0  0  0  # atno 17320 bound_to 7965
  146.0032  140.8502  143.0008 LP  0  0  0  0  0  0  0  0  0  0  0  0  # atno 17321 bound_to 7965
  140.7394  143.2790  151.3654 LP  0  0  0  0  0  0  0  0  0  0  0  0  # atno 17342 bound_to 10162
  139.6227  144.0876  152.2406 LP  0  0  0  0  0  0  0  0  0  0  0  0  # atno 17343 bound_to 10162
  157.7508  131.0197  150.3678 LP  0  0  0  0  0  0  0  0  0  0  0  0  # atno 17370 bound_to 10713
  156.4016  130.3917  149.6955 LP  0  0  0  0  0  0  0  0  0  0  0  0  # atno 17371 bound_to 10713
  139.9674  134.7350  156.0111 LP  0  0  0  0  0  0  0  0  0  0  0  0  # atno 17394 bound_to 11000
  141.1399  133.6567  156.3701 LP  0  0  0  0  0  0  0  0  0  0  0  0  # atno 17395 bound_to 11000

$$$$
