AV-unprocessed.smi:44|AV-procd|sdf|401|dock1
  -GOLD-   2262016253D 1   1.00000     0.00000
 Structure written by MMmdl.
 29 31  0  0  0  0  0  0  0  0  3 V2000
  149.5688  141.1513  153.7455 O   0  0  0  0  0  0  0  0  0  0  0  0
  150.2478  140.5843  154.5990 C   0  0  0  0  0  0  0  0  0  0  0  0
  150.8893  139.3757  154.5007 N   0  5  0  0  0  0  0  0  0  0  0  0
  151.6289  138.8528  155.5555 C   0  0  0  0  0  0  0  0  0  0  0  0
  151.8179  139.3784  156.7134 N   0  0  0  0  0  0  0  0  0  0  0  0
  151.1985  140.6215  156.9133 C   0  0  0  0  0  0  0  0  0  0  0  0
  150.4446  141.2324  155.9381 C   0  0  0  0  0  0  0  0  0  0  0  0
  149.9738  142.4304  156.4038 N   0  3  0  0  0  0  0  0  0  0  0  0
  150.4643  142.4930  157.6417 C   0  0  0  0  0  0  0  0  0  0  0  0
  151.2180  141.4224  158.0296 N   0  0  0  0  0  0  0  0  0  0  0  0
  151.8949  141.2537  159.3487 C   0  0  1  0  0  0  0  0  0  0  0  0
  153.4200  141.2718  159.1899 C   0  0  0  0  0  0  0  0  0  0  0  0
  153.8405  141.9720  160.4629 C   0  0  0  0  0  0  0  0  0  0  0  0
  152.7174  143.0013  160.6019 C   0  0  2  0  0  0  0  0  0  0  0  0
  152.5179  143.6340  161.9897 C   0  0  0  0  0  0  0  0  0  0  0  0
  151.1771  144.0239  162.2027 O   0  0  0  0  0  0  0  0  0  0  0  0
  151.5394  142.3308  160.1648 O   0  0  0  0  0  0  0  0  0  0  0  0
  149.3972  143.1084  155.9222 H   0  0  0  0  0  0  0  0  0  0  0  0
  151.5105  140.3218  159.7653 H   0  0  0  0  0  0  0  0  0  0  0  0
  152.8976  143.8051  159.8867 H   0  0  0  0  0  0  0  0  0  0  0  0
  152.0710  137.8855  155.3036 H   0  0  0  0  0  0  0  0  0  0  0  0
  150.2829  143.3287  158.2934 H   0  0  0  0  0  0  0  0  0  0  0  0
  153.8197  140.2629  159.0865 H   0  0  0  0  0  0  0  0  0  0  0  0
  153.7080  141.8623  158.3189 H   0  0  0  0  0  0  0  0  0  0  0  0
  153.8427  141.2613  161.2898 H   0  0  0  0  0  0  0  0  0  0  0  0
  154.8294  142.4264  160.3955 H   0  0  0  0  0  0  0  0  0  0  0  0
  152.7831  142.9133  162.7638 H   0  0  0  0  0  0  0  0  0  0  0  0
  153.1748  144.4950  162.1163 H   0  0  0  0  0  0  0  0  0  0  0  0
  150.6190  143.2795  162.0375 H   0  0  0  0  0  0  0  0  0  0  0  0
  1  2  2  0  0  0  0
  2  7  1  0  0  0  0
  2  3  1  0  0  0  0
  3  4  1  0  0  0  0
  4 21  1  0  0  0  0
  4  5  2  0  0  0  0
  5  6  1  0  0  0  0
  6 10  1  0  0  0  0
  6  7  2  0  0  0  0
  7  8  1  0  0  0  0
  8  9  2  0  0  0  0
  8 18  1  0  0  0  0
  9 10  1  0  0  0  0
  9 22  1  0  0  0  0
 10 11  1  0  0  0  0
 11 19  1  0  0  0  0
 11 17  1  0  0  0  0
 11 12  1  0  0  0  0
 12 13  1  0  0  0  0
 12 23  1  0  0  0  0
 12 24  1  0  0  0  0
 13 14  1  0  0  0  0
 13 25  1  0  0  0  0
 13 26  1  0  0  0  0
 14 20  1  0  0  0  0
 14 15  1  0  0  0  0
 14 17  1  0  0  0  0
 15 16  1  0  0  0  0
 15 27  1  0  0  0  0
 15 28  1  0  0  0  0
 16 29  1  0  0  0  0
M  CHG  1   3  -1
M  CHG  1   8   1
M  END
> <s_m_source_file>
AV-unprocessed.smi

> <i_m_source_file_index>
44

> <i_lp_mmshare_version>
43012

> <i_f3d_flags>
0

> <s_epik_input>
bjFbY0hdW25IXWMoPU8pYyhjMTIpbltjSF1uMltDQEhdM1tDSDJdW0NIMl1bQ0BIXShPMylbQ0gyXVtPSF0=

> <s_epik_cmdline>
J2VwaWtfcHl0aG9uJywgJy1waCcsICc3LjAnLCAnLXRuJywgJzgnLCAnLW1hJywgJzIwMCcsICctbWV0YWxfYmluZGluZycsICctaW1hZScsICc8aW5maWxlLm1hZT4nLCAnLW9tYWUnLCAnPG91dGZpbGUubWFlPic=

> <r_lp_tautomer_probability>
0.144281

> <r_epik_Ionization_Penalty>
5.63685

> <r_epik_Ionization_Penalty_Charging>
5.58669

> <r_epik_Ionization_Penalty_Neutral>
0.0501585

> <r_epik_State_Penalty>
1.20809

> <r_epik_Charging_Adjusted_Penalty>
6.79478

> <i_epik_Tot_Q>
0

> <i_epik_Tot_abs_Q>
2

> <r_epik_Metal_State_Penalty>
1.52487

> <b_epik_Metal_Only>
0

> <s_epik_Chemistry_Notes>
This compound contains an acetal/aminal-like group ( X-CH(R)-Y where X, Y are N, S, or O) that may be acid/base labile, releasing an aldehyde.

> <s_lp_Force_Field>
OPLS_2005

> <r_lp_Energy>
46.8975

> <b_lp_Chiralities_Consistent>
1

> <s_lp_Variant>
AV-unprocessed.smi:44-7

> <Gold.Version>
5.8.1

> <Gold.Id.Protein>
6NUR|6NUR_protein|mol2

> <Gold.PLP.Fitness>
44.0139

> <Gold.PLP.PLP>
-36.0741

> <Gold.PLP.part.hbond>
-7.3285

> <Gold.PLP.part.metal>
0.0000

> <Gold.PLP.part.buried>
-3.5422

> <Gold.PLP.part.nonpolar>
-26.2477

> <Gold.PLP.part.repulsive>
2.2782

> <Gold.PLP.ligand.clash>
0.0000

> <Gold.PLP.ligand.torsion>
0.4022

> <Gold.PLP.Chemscore.Hbond>
2.9120

> <Gold.PLP.Chemscore.CHOScore>
0.0000

> <Gold.PLP.Chemscore.Metal>
0.0000

> <Gold.Chemscore.Hbonds>
donor molecule, donor type, donor heavy atom, donor atom, acceptor molecule, acceptor atom, score
      L1  H     8    18       P1  8028  2.00
      P1  H  8011  8017       L1     1  0.91

> <Gold.PLP.Chemscore.Internal.Correction>
0.0081

> <Gold.Rescore>
     Score         DG    S(hbond)    S(metal)    S(lipo)     H(rot)  DE(clash)    DE(int)     intcor
      6.16     -11.53       1.69        0.00      53.10       2.27       4.81       0.56       ----

> <Gold.Chemscore.Fitness>
6.1577

> <Gold.Chemscore.DG>
-11.5257

> <Gold.Chemscore.ZeroCoef>
-5.4800

> <Gold.Chemscore.Hbond>
1.6913

> <Gold.Chemscore.Metal>
0.0000

> <Gold.Chemscore.Lipo>
53.1036

> <Gold.Chemscore.Internal_Hbond>
0.0000

> <Gold.Chemscore.DEClash>
4.8098

> <Gold.Chemscore.DEInternal>
0.5582

> <Gold.Chemscore.Rot>
2.2720

> <Gold.Chemscore.Internal.Correction>
   9.000000E+99

> <Gold.Chemscore.Hbonds>
donor molecule, donor type, donor heavy atom, donor atom, acceptor molecule, acceptor atom, score
      L1  H     8    18       P1  8028  0.95
      P1  H  8011  8017       L1     1  0.89

> <Gold.Chemscore.Hbond.Weighted>
-5.6490

> <Gold.Chemscore.Metal.Weighted>
-0.0000

> <Gold.Chemscore.Lipo.Weighted>
-6.2131

> <Gold.Chemscore.Internal_Hbond.Weighted>
0.0000

> <Gold.Chemscore.DEClash.Weighted>
4.8098

> <Gold.Chemscore.DEInternal.Weighted>
0.5582

> <Gold.Chemscore.Rot.Weighted>
5.8164

> <Gold.Chemscore.Internal.Correction.Weighted>
   9.000000E+99

> <Gold.Protein.RotatedTorsions>
[ 6907 6896 6895 6894 ] final   66.87 input  -60.11 | X-H torsion
[ 7974 7965 7964 7962 ] final  147.02 input  175.53 | X-H torsion
[ 8008 7997 7996 7995 ] final  172.08 input   59.86 | X-H torsion
[ 10167 10162 10161 10158 ] final  -86.10 input  -65.29 | X-H torsion
[ 10718 10713 10712 10709 ] final    0.64 input   66.30 | X-H torsion
[ 10763 10752 10751 10750 ] final -123.90 input  -60.55 | X-H torsion
[ 11005 11000 10999 10996 ] final   63.47 input  -57.11 | X-H torsion

> <Gold.Protein.ActiveResidues>
 VAL166  LYS551  ARG553  GLY616  TRP617  ASP618  TYR619  PRO620  LYS621  CYS622 
 ASP623  PHE694  ASN695  SER759  ASP760  ASP761  ALA762  ILE779  LEU786  VAL792 
 PHE793  MET794  SER795  GLU796  ALA797  LYS798  CYS799  TRP800  GLU811  SER814 

> <Gold.Protein.RotatedAtoms>
  152.4511  134.5390  159.9833 H   0  0  0  0  0  0  0  0  0  0  0  0  # atno 6907 bound_to 6896
  151.5463  133.3419  159.2952 H   0  0  0  0  0  0  0  0  0  0  0  0  # atno 6908 bound_to 6896
  150.8441  134.7775  159.7019 H   0  0  0  0  0  0  0  0  0  0  0  0  # atno 6909 bound_to 6896
  144.8625  139.5976  143.5924 H   0  0  0  0  0  0  0  0  0  0  0  0  # atno 7974 bound_to 7965
  156.1209  140.1495  156.9205 H   0  0  0  0  0  0  0  0  0  0  0  0  # atno 8008 bound_to 7997
  154.4835  140.0872  156.7475 H   0  0  0  0  0  0  0  0  0  0  0  0  # atno 8009 bound_to 7997
  155.4429  140.3431  155.4294 H   0  0  0  0  0  0  0  0  0  0  0  0  # atno 8010 bound_to 7997
  140.3974  143.2678  151.9187 H   0  0  0  0  0  0  0  0  0  0  0  0  # atno 10167 bound_to 10162
  156.8364  130.5506  149.5682 H   0  0  0  0  0  0  0  0  0  0  0  0  # atno 10718 bound_to 10713
  154.8715  135.4082  154.3019 H   0  0  0  0  0  0  0  0  0  0  0  0  # atno 10763 bound_to 10752
  153.3877  135.7014  153.6523 H   0  0  0  0  0  0  0  0  0  0  0  0  # atno 10764 bound_to 10752
  153.5319  135.3666  155.2651 H   0  0  0  0  0  0  0  0  0  0  0  0  # atno 10765 bound_to 10752
  140.0022  134.6424  155.9912 H   0  0  0  0  0  0  0  0  0  0  0  0  # atno 11005 bound_to 11000
  146.2871  139.7034  142.9188 LP  0  0  0  0  0  0  0  0  0  0  0  0  # atno 17320 bound_to 7965
  145.4285  141.0413  143.2924 LP  0  0  0  0  0  0  0  0  0  0  0  0  # atno 17321 bound_to 7965
  139.4786  144.5668  151.8152 LP  0  0  0  0  0  0  0  0  0  0  0  0  # atno 17342 bound_to 10162
  140.4776  144.1496  150.5927 LP  0  0  0  0  0  0  0  0  0  0  0  0  # atno 17343 bound_to 10162
  156.0905  130.5892  150.9724 LP  0  0  0  0  0  0  0  0  0  0  0  0  # atno 17370 bound_to 10713
  157.6379  131.0914  150.8311 LP  0  0  0  0  0  0  0  0  0  0  0  0  # atno 17371 bound_to 10713
  141.1651  133.6537  156.4450 LP  0  0  0  0  0  0  0  0  0  0  0  0  # atno 17394 bound_to 11000
  140.4706  134.6757  157.5127 LP  0  0  0  0  0  0  0  0  0  0  0  0  # atno 17395 bound_to 11000

$$$$
