AV-unprocessed.smi:229|AV-procd|sdf|1750|dock8
  -GOLD-   2262020273D 1   1.00000     0.00000
 Structure written by MMmdl.
 58 62  0  0  0  0  0  0  0  0  1 V2000
  154.8110  140.3545  160.8385 C   0  0  0  0  0  0  0  0  0  0  0  0
  153.6345  141.3058  161.0940 C   0  0  0  0  0  0  0  0  0  0  0  0
  153.0648  141.9423  159.8155 C   0  0  1  0  0  0  0  0  0  0  0  0
  152.4815  140.9036  158.8396 C   0  0  0  0  0  0  0  0  0  0  0  0
  151.8262  141.5753  157.7248 N   0  0  0  0  0  0  0  0  0  0  0  0
  151.5672  140.7814  156.6556 C   0  0  0  0  0  0  0  0  0  0  0  0
  152.5066  139.9013  156.2161 N   0  0  0  0  0  0  0  0  0  0  0  0
  152.2593  139.1217  155.1593 C   0  0  0  0  0  0  0  0  0  0  0  0
  151.1579  139.0572  154.4093 N   0  0  0  0  0  0  0  0  0  0  0  0
  150.2083  139.9304  154.8512 C   0  0  0  0  0  0  0  0  0  0  0  0
  150.3289  140.8207  155.9550 C   0  0  0  0  0  0  0  0  0  0  0  0
  149.1511  141.5430  156.1106 N   0  0  0  0  0  0  0  0  0  0  0  0
  148.3775  141.1017  155.1564 C   0  0  0  0  0  0  0  0  0  0  0  0
  148.9312  140.1285  154.3566 N   0  0  0  0  0  0  0  0  0  0  0  0
  148.2896  139.4534  153.2432 C   0  0  0  0  0  0  0  0  0  0  0  0
  146.7508  139.4220  153.3625 C   0  0  1  0  0  0  0  0  0  0  0  0
  146.2383  139.0717  152.0922 O   0  0  0  0  0  0  0  0  0  0  0  0
  146.2157  138.4278  154.4173 C   0  0  2  0  0  0  0  0  0  0  0  0
  146.5320  136.9580  154.1357 C   0  0  0  0  0  0  0  0  0  0  0  0
  145.4748  136.2124  154.9338 C   0  0  0  0  0  0  0  0  0  0  0  0
  144.3832  137.2601  155.1662 C   0  0  0  0  0  0  0  0  0  0  0  0
  144.7958  138.3959  154.4198 O   0  0  0  0  0  0  0  0  0  0  0  0
  150.7889  142.5060  158.1563 C   0  0  0  0  0  0  0  0  0  0  0  0
  151.3608  143.5341  159.1541 C   0  0  1  0  0  0  0  0  0  0  0  0
  152.2303  144.6133  158.5158 C   0  0  0  0  0  0  0  0  0  0  0  0
  152.1372  145.7386  159.5345 C   0  0  0  0  0  0  0  0  0  0  0  0
  150.7805  145.7087  159.9513 O   0  0  0  0  0  0  0  0  0  0  0  0
  150.2627  144.3874  159.8089 C   0  0  0  0  0  0  0  0  0  0  0  0
  152.0332  142.8460  160.2163 O   0  0  0  0  0  0  0  0  0  0  0  0
  155.2133  139.9779  161.7790 H   0  0  0  0  0  0  0  0  0  0  0  0
  155.6197  140.8613  160.3116 H   0  0  0  0  0  0  0  0  0  0  0  0
  154.5091  139.4930  160.2431 H   0  0  0  0  0  0  0  0  0  0  0  0
  152.8441  140.7784  161.6292 H   0  0  0  0  0  0  0  0  0  0  0  0
  153.9738  142.0993  161.7608 H   0  0  0  0  0  0  0  0  0  0  0  0
  153.8656  142.4944  159.3249 H   0  0  0  0  0  0  0  0  0  0  0  0
  153.2717  140.2417  158.4883 H   0  0  0  0  0  0  0  0  0  0  0  0
  151.7494  140.2772  159.3512 H   0  0  0  0  0  0  0  0  0  0  0  0
  153.0582  138.4529  154.8747 H   0  0  0  0  0  0  0  0  0  0  0  0
  147.3718  141.4693  155.0142 H   0  0  0  0  0  0  0  0  0  0  0  0
  148.5863  139.9608  152.3241 H   0  0  0  0  0  0  0  0  0  0  0  0
  148.6860  138.4392  153.1782 H   0  0  0  0  0  0  0  0  0  0  0  0
  146.3847  140.4225  153.5968 H   0  0  0  0  0  0  0  0  0  0  0  0
  145.3933  139.4803  151.9852 H   0  0  0  0  0  0  0  0  0  0  0  0
  146.5739  138.6982  155.4127 H   0  0  0  0  0  0  0  0  0  0  0  0
  146.4073  136.7447  153.0731 H   0  0  0  0  0  0  0  0  0  0  0  0
  147.5479  136.6812  154.4187 H   0  0  0  0  0  0  0  0  0  0  0  0
  145.1032  135.3448  154.3878 H   0  0  0  0  0  0  0  0  0  0  0  0
  145.8751  135.8649  155.8869 H   0  0  0  0  0  0  0  0  0  0  0  0
  143.3995  136.9204  154.8414 H   0  0  0  0  0  0  0  0  0  0  0  0
  144.3209  137.5258  156.2223 H   0  0  0  0  0  0  0  0  0  0  0  0
  150.3556  143.0191  157.2965 H   0  0  0  0  0  0  0  0  0  0  0  0
  149.9855  141.9407  158.6314 H   0  0  0  0  0  0  0  0  0  0  0  0
  153.2555  144.3152  158.3030 H   0  0  0  0  0  0  0  0  0  0  0  0
  151.7871  144.9436  157.5753 H   0  0  0  0  0  0  0  0  0  0  0  0
  152.7824  145.5372  160.3907 H   0  0  0  0  0  0  0  0  0  0  0  0
  152.4091  146.7091  159.1193 H   0  0  0  0  0  0  0  0  0  0  0  0
  149.3794  144.4474  159.1721 H   0  0  0  0  0  0  0  0  0  0  0  0
  149.9447  143.9848  160.7713 H   0  0  0  0  0  0  0  0  0  0  0  0
  1  2  1  0  0  0  0
  1 30  1  0  0  0  0
  1 31  1  0  0  0  0
  1 32  1  0  0  0  0
  2  3  1  0  0  0  0
  2 33  1  0  0  0  0
  2 34  1  0  0  0  0
  3 29  1  0  0  0  0
  3  4  1  0  0  0  0
  3 35  1  0  0  0  0
  4  5  1  0  0  0  0
  4 36  1  0  0  0  0
  4 37  1  0  0  0  0
  5  6  1  0  0  0  0
  5 23  1  0  0  0  0
  6 11  1  0  0  0  0
  6  7  2  0  0  0  0
  7  8  1  0  0  0  0
  8  9  2  0  0  0  0
  8 38  1  0  0  0  0
  9 10  1  0  0  0  0
 10 14  1  0  0  0  0
 10 11  2  0  0  0  0
 11 12  1  0  0  0  0
 12 13  2  0  0  0  0
 13 14  1  0  0  0  0
 13 39  1  0  0  0  0
 14 15  1  0  0  0  0
 15 16  1  0  0  0  0
 15 40  1  0  0  0  0
 15 41  1  0  0  0  0
 16 17  1  0  0  0  0
 16 18  1  0  0  0  0
 16 42  1  0  0  0  0
 17 43  1  0  0  0  0
 18 22  1  0  0  0  0
 18 19  1  0  0  0  0
 18 44  1  0  0  0  0
 19 20  1  0  0  0  0
 19 45  1  0  0  0  0
 19 46  1  0  0  0  0
 20 21  1  0  0  0  0
 20 47  1  0  0  0  0
 20 48  1  0  0  0  0
 21 22  1  0  0  0  0
 21 49  1  0  0  0  0
 21 50  1  0  0  0  0
 23 24  1  0  0  0  0
 23 51  1  0  0  0  0
 23 52  1  0  0  0  0
 24 28  1  0  0  0  0
 24 25  1  0  0  0  0
 24 29  1  0  0  0  0
 25 26  1  0  0  0  0
 25 53  1  0  0  0  0
 25 54  1  0  0  0  0
 26 27  1  0  0  0  0
 26 55  1  0  0  0  0
 26 56  1  0  0  0  0
 27 28  1  0  0  0  0
 28 57  1  0  0  0  0
 28 58  1  0  0  0  0
M  END
> <s_m_source_file>
AV-unprocessed.smi

> <i_m_source_file_index>
229

> <i_lp_mmshare_version>
43012

> <i_f3d_flags>
0

> <s_epik_input>
W0NIMl0xT1tDSDJdW0NIMl1bQ0BdMTJbQ0gyXU4oW0NIMl1bQ0BIXShPMilbQ0gyXVtDSDNdKWMobltjSF1uMyljKGMzNCluW2NIXW40W0NIMl1bQ0BIXShbT0hdKVtDQEBIXTVbQ0gyXVtDSDJdW0NIMl1PNQ==

> <s_epik_cmdline>
J2VwaWtfcHl0aG9uJywgJy1waCcsICc3LjAnLCAnLXRuJywgJzgnLCAnLW1hJywgJzIwMCcsICctbWV0YWxfYmluZGluZycsICctaW1hZScsICc8aW5maWxlLm1hZT4nLCAnLW9tYWUnLCAnPG91dGZpbGUubWFlPic=

> <r_lp_tautomer_probability>
1

> <r_epik_Ionization_Penalty>
0.00318402

> <r_epik_Ionization_Penalty_Charging>
0

> <r_epik_Ionization_Penalty_Neutral>
0.00318402

> <r_epik_State_Penalty>
0.00215642

> <r_epik_Charging_Adjusted_Penalty>
0.00215642

> <i_epik_Tot_Q>
0

> <i_epik_Tot_abs_Q>
0

> <r_epik_Metal_State_Penalty>
-0

> <b_epik_Metal_Only>
0

> <s_lp_Force_Field>
OPLS_2005

> <r_lp_Energy>
55.6403

> <b_lp_Chiralities_Consistent>
1

> <s_lp_Variant>
AV-unprocessed.smi:229-4

> <Gold.Version>
5.8.1

> <Gold.Id.Protein>
6NUR|6NUR_protein|mol2

> <Gold.PLP.Fitness>
53.7397

> <Gold.PLP.PLP>
-48.8093

> <Gold.PLP.part.hbond>
-4.3980

> <Gold.PLP.part.metal>
0.0000

> <Gold.PLP.part.buried>
-1.4345

> <Gold.PLP.part.nonpolar>
-42.7254

> <Gold.PLP.part.repulsive>
1.1315

> <Gold.PLP.ligand.clash>
0.0000

> <Gold.PLP.ligand.torsion>
0.6997

> <Gold.PLP.Chemscore.Hbond>
2.0000

> <Gold.PLP.Chemscore.CHOScore>
0.0000

> <Gold.PLP.Chemscore.Metal>
0.0000

> <Gold.Chemscore.Hbonds>
donor molecule, donor type, donor heavy atom, donor atom, acceptor molecule, acceptor atom, score
      L1  H    17    43       P1 10175  1.00
      P1  H  7997  8009       L1     7  1.00

> <Gold.PLP.Chemscore.Internal.Correction>
0.3298

> <Gold.Rescore>
     Score         DG    S(hbond)    S(metal)    S(lipo)     H(rot)  DE(clash)    DE(int)     intcor
     15.57     -18.14       1.92        0.00     107.31       2.46       0.52       2.05       ----

> <Gold.Chemscore.Fitness>
15.5722

> <Gold.Chemscore.DG>
-18.1442

> <Gold.Chemscore.ZeroCoef>
-5.4800

> <Gold.Chemscore.Hbond>
1.9173

> <Gold.Chemscore.Metal>
0.0000

> <Gold.Chemscore.Lipo>
107.3137

> <Gold.Chemscore.Internal_Hbond>
0.0000

> <Gold.Chemscore.DEClash>
0.5212

> <Gold.Chemscore.DEInternal>
2.0507

> <Gold.Chemscore.Rot>
2.4591

> <Gold.Chemscore.Internal.Correction>
   9.000000E+99

> <Gold.Chemscore.Hbonds>
donor molecule, donor type, donor heavy atom, donor atom, acceptor molecule, acceptor atom, score
      L1  H    17    43       P1 10175  0.89
      P1  H  7997  8009       L1     7  0.60

> <Gold.Chemscore.Hbond.Weighted>
-6.4038

> <Gold.Chemscore.Metal.Weighted>
-0.0000

> <Gold.Chemscore.Lipo.Weighted>
-12.5557

> <Gold.Chemscore.Internal_Hbond.Weighted>
0.0000

> <Gold.Chemscore.DEClash.Weighted>
0.5212

> <Gold.Chemscore.DEInternal.Weighted>
2.0507

> <Gold.Chemscore.Rot.Weighted>
6.2953

> <Gold.Chemscore.Internal.Correction.Weighted>
   9.000000E+99

> <Gold.Protein.RotatedTorsions>
[ 6907 6896 6895 6894 ] final   13.72 input  -60.11 | X-H torsion
[ 7974 7965 7964 7962 ] final -175.20 input  175.53 | X-H torsion
[ 8008 7997 7996 7995 ] final -159.50 input   59.86 | X-H torsion
[ 10167 10162 10161 10158 ] final   18.08 input  -65.29 | X-H torsion
[ 10718 10713 10712 10709 ] final -101.21 input   66.30 | X-H torsion
[ 10763 10752 10751 10750 ] final  139.65 input  -60.55 | X-H torsion
[ 11005 11000 10999 10996 ] final  -84.48 input  -57.11 | X-H torsion

> <Gold.Protein.ActiveResidues>
 VAL166  LYS551  ARG553  GLY616  TRP617  ASP618  TYR619  PRO620  LYS621  CYS622 
 ASP623  PHE694  ASN695  SER759  ASP760  ASP761  ALA762  ILE779  LEU786  VAL792 
 PHE793  MET794  SER795  GLU796  ALA797  LYS798  CYS799  TRP800  GLU811  SER814 

> <Gold.Protein.RotatedAtoms>
  151.7908  135.0736  160.0386 H   0  0  0  0  0  0  0  0  0  0  0  0  # atno 6907 bound_to 6896
  152.3158  133.5796  159.5719 H   0  0  0  0  0  0  0  0  0  0  0  0  # atno 6908 bound_to 6896
  150.7343  134.0001  159.3677 H   0  0  0  0  0  0  0  0  0  0  0  0  # atno 6909 bound_to 6896
  144.7129  140.1357  143.6395 H   0  0  0  0  0  0  0  0  0  0  0  0  # atno 7974 bound_to 7965
  155.7635  140.0842  157.2143 H   0  0  0  0  0  0  0  0  0  0  0  0  # atno 8008 bound_to 7997
  154.4001  140.1538  156.2916 H   0  0  0  0  0  0  0  0  0  0  0  0  # atno 8009 bound_to 7997
  155.8816  140.3420  155.5895 H   0  0  0  0  0  0  0  0  0  0  0  0  # atno 8010 bound_to 7997
  140.5679  143.9215  150.6691 H   0  0  0  0  0  0  0  0  0  0  0  0  # atno 10167 bound_to 10162
  156.0187  130.5363  150.6930 H   0  0  0  0  0  0  0  0  0  0  0  0  # atno 10718 bound_to 10713
  153.9097  135.3012  155.3448 H   0  0  0  0  0  0  0  0  0  0  0  0  # atno 10763 bound_to 10752
  154.7629  135.4925  153.9502 H   0  0  0  0  0  0  0  0  0  0  0  0  # atno 10764 bound_to 10752
  153.1199  135.6780  153.9454 H   0  0  0  0  0  0  0  0  0  0  0  0  # atno 10765 bound_to 10752
  141.1650  133.7348  156.8874 H   0  0  0  0  0  0  0  0  0  0  0  0  # atno 11005 bound_to 11000
  145.9247  139.2567  143.1361 LP  0  0  0  0  0  0  0  0  0  0  0  0  # atno 17320 bound_to 7965
  145.9585  140.8854  143.0223 LP  0  0  0  0  0  0  0  0  0  0  0  0  # atno 17321 bound_to 7965
  140.2683  143.3474  152.1261 LP  0  0  0  0  0  0  0  0  0  0  0  0  # atno 17342 bound_to 10162
  139.5102  144.6881  151.5834 LP  0  0  0  0  0  0  0  0  0  0  0  0  # atno 17343 bound_to 10162
  157.4608  131.0883  151.0748 LP  0  0  0  0  0  0  0  0  0  0  0  0  # atno 17370 bound_to 10713
  157.1236  130.6072  149.5511 LP  0  0  0  0  0  0  0  0  0  0  0  0  # atno 17371 bound_to 10713
  140.1672  134.9125  157.2788 LP  0  0  0  0  0  0  0  0  0  0  0  0  # atno 17394 bound_to 11000
  140.2543  134.3646  155.7430 LP  0  0  0  0  0  0  0  0  0  0  0  0  # atno 17395 bound_to 11000

$$$$
