AV-unprocessed.smi:103|AV-procd|sdf|988|dock3
  -GOLD-   2262017563D 1   1.00000     0.00000
 Structure written by MMmdl.
 53 55  0  0  0  0  0  0  0  0  1 V2000
  146.8412  134.5806  161.6114 C   0  0  0  0  0  0  0  0  0  0  0  0
  147.5388  135.8681  161.1935 C   0  0  0  0  0  0  0  0  0  0  0  0
  147.8306  136.7389  162.0133 O   0  0  0  0  0  0  0  0  0  0  0  0
  147.7801  135.9119  159.8758 O   0  0  0  0  0  0  0  0  0  0  0  0
  148.4451  137.0332  159.3182 C   0  0  0  0  0  0  0  0  0  0  0  0
  148.5085  136.8853  157.7937 C   0  0  1  0  0  0  0  0  0  0  0  0
  147.2365  137.1747  157.2356 O   0  0  0  0  0  0  0  0  0  0  0  0
  147.3838  137.5781  155.9120 C   0  0  2  0  0  0  0  0  0  0  0  0
  147.0899  136.4027  155.0166 N   0  0  0  0  0  0  0  0  0  0  0  0
  145.9010  136.0922  154.3824 C   0  0  0  0  0  0  0  0  0  0  0  0
  144.3941  137.0593  154.4040 S   0  0  0  0  0  0  0  0  0  0  0  0
  144.0588  137.2855  152.6099 C   0  0  0  0  0  0  0  0  0  0  0  0
  143.3459  136.2083  154.9891 O   0  0  0  0  0  0  0  0  0  0  0  0
  144.7200  138.3606  155.0073 O   0  0  0  0  0  0  0  0  0  0  0  0
  145.8982  135.0375  153.6150 N   0  0  0  0  0  0  0  0  0  0  0  0
  147.1678  134.5141  153.7972 C   0  0  0  0  0  0  0  0  0  0  0  0
  147.8339  133.3663  153.2985 C   0  0  0  0  0  0  0  0  0  0  0  0
  147.2597  132.4969  152.4557 N   0  0  0  0  0  0  0  0  0  0  0  0
  149.1067  133.1330  153.6926 N   0  0  0  0  0  0  0  0  0  0  0  0
  149.6993  133.9839  154.5345 C   0  0  0  0  0  0  0  0  0  0  0  0
  149.2047  135.0982  155.0781 N   0  0  0  0  0  0  0  0  0  0  0  0
  147.9193  135.3413  154.6826 C   0  0  0  0  0  0  0  0  0  0  0  0
  148.8144  138.1202  155.7394 C   0  0  1  0  0  0  0  0  0  0  0  0
  148.7958  139.5119  155.4490 O   0  0  0  0  0  0  0  0  0  0  0  0
  149.9101  140.1223  155.0082 C   0  0  0  0  0  0  0  0  0  0  0  0
  149.7050  141.6138  154.7817 C   0  0  0  0  0  0  0  0  0  0  0  0
  150.9929  139.5800  154.7863 O   0  0  0  0  0  0  0  0  0  0  0  0
  149.4500  137.8815  157.1042 C   0  0  2  0  0  0  0  0  0  0  0  0
  150.7467  137.3281  156.9162 O   0  0  0  0  0  0  0  0  0  0  0  0
  151.5551  137.1008  157.9650 C   0  0  0  0  0  0  0  0  0  0  0  0
  153.0219  137.0397  157.5612 C   0  0  0  0  0  0  0  0  0  0  0  0
  151.2040  136.9449  159.1344 O   0  0  0  0  0  0  0  0  0  0  0  0
  145.9027  134.4650  161.0690 H   0  0  0  0  0  0  0  0  0  0  0  0
  146.6241  134.5915  162.6797 H   0  0  0  0  0  0  0  0  0  0  0  0
  147.4753  133.7205  161.3954 H   0  0  0  0  0  0  0  0  0  0  0  0
  147.8917  137.9350  159.5823 H   0  0  0  0  0  0  0  0  0  0  0  0
  149.4512  137.1348  159.7284 H   0  0  0  0  0  0  0  0  0  0  0  0
  148.7620  135.8582  157.5328 H   0  0  0  0  0  0  0  0  0  0  0  0
  146.6289  138.3183  155.6574 H   0  0  0  0  0  0  0  0  0  0  0  0
  143.1383  137.8546  152.4823 H   0  0  0  0  0  0  0  0  0  0  0  0
  143.9508  136.3103  152.1354 H   0  0  0  0  0  0  0  0  0  0  0  0
  144.8837  137.8236  152.1456 H   0  0  0  0  0  0  0  0  0  0  0  0
  146.3094  132.6470  152.1488 H   0  0  0  0  0  0  0  0  0  0  0  0
  147.7770  131.6929  152.1307 H   0  0  0  0  0  0  0  0  0  0  0  0
  150.7143  133.7392  154.8108 H   0  0  0  0  0  0  0  0  0  0  0  0
  149.3393  137.5816  154.9515 H   0  0  0  0  0  0  0  0  0  0  0  0
  149.4753  142.1113  155.7242 H   0  0  0  0  0  0  0  0  0  0  0  0
  148.8800  141.7825  154.0897 H   0  0  0  0  0  0  0  0  0  0  0  0
  150.6046  142.0648  154.3627 H   0  0  0  0  0  0  0  0  0  0  0  0
  149.4664  138.8205  157.6604 H   0  0  0  0  0  0  0  0  0  0  0  0
  153.3540  138.0110  157.1944 H   0  0  0  0  0  0  0  0  0  0  0  0
  153.1668  136.3023  156.7716 H   0  0  0  0  0  0  0  0  0  0  0  0
  153.6425  136.7601  158.4129 H   0  0  0  0  0  0  0  0  0  0  0  0
  1  2  1  0  0  0  0
  1 33  1  0  0  0  0
  1 34  1  0  0  0  0
  1 35  1  0  0  0  0
  2  3  2  0  0  0  0
  2  4  1  0  0  0  0
  4  5  1  0  0  0  0
  5  6  1  0  0  0  0
  5 36  1  0  0  0  0
  5 37  1  0  0  0  0
  6 28  1  0  0  0  0
  6  7  1  0  0  0  0
  6 38  1  0  0  0  0
  7  8  1  0  0  0  0
  8  9  1  0  0  0  0
  8 23  1  0  0  0  0
  8 39  1  0  0  0  0
  9 22  1  0  0  0  0
  9 10  1  0  0  0  0
 10 11  1  0  0  0  0
 10 15  2  0  0  0  0
 11 12  1  0  0  0  0
 11 13  2  0  0  0  0
 11 14  2  0  0  0  0
 12 40  1  0  0  0  0
 12 41  1  0  0  0  0
 12 42  1  0  0  0  0
 15 16  1  0  0  0  0
 16 22  2  0  0  0  0
 16 17  1  0  0  0  0
 17 18  1  0  0  0  0
 17 19  2  0  0  0  0
 18 43  1  0  0  0  0
 18 44  1  0  0  0  0
 19 20  1  0  0  0  0
 20 21  2  0  0  0  0
 20 45  1  0  0  0  0
 21 22  1  0  0  0  0
 23 24  1  0  0  0  0
 23 28  1  0  0  0  0
 23 46  1  0  0  0  0
 24 25  1  0  0  0  0
 25 26  1  0  0  0  0
 25 27  2  0  0  0  0
 26 47  1  0  0  0  0
 26 48  1  0  0  0  0
 26 49  1  0  0  0  0
 28 29  1  0  0  0  0
 28 50  1  0  0  0  0
 29 30  1  0  0  0  0
 30 31  1  0  0  0  0
 30 32  2  0  0  0  0
 31 51  1  0  0  0  0
 31 52  1  0  0  0  0
 31 53  1  0  0  0  0
M  END
> <s_m_source_file>
AV-unprocessed.smi

> <i_m_source_file_index>
103

> <i_lp_mmshare_version>
43012

> <i_f3d_flags>
0

> <s_epik_input>
W0NIM11DKD1PKU9bQ0gyXVtDQEBIXTFPW0NASF0oW0NAQEhdKE9DKD1PKVtDSDNdKVtDQEhdMU9DKD1PKVtDSDNdKW4oYyhuMilTKD1PKSg9TylbQ0gzXSljKGMyMyluW2NIXW5jM1tOSDJd

> <s_epik_cmdline>
J2VwaWtfcHl0aG9uJywgJy1waCcsICc3LjAnLCAnLXRuJywgJzgnLCAnLW1hJywgJzIwMCcsICctbWV0YWxfYmluZGluZycsICctaW1hZScsICc8aW5maWxlLm1hZT4nLCAnLW9tYWUnLCAnPG91dGZpbGUubWFlPic=

> <r_lp_tautomer_probability>
1

> <r_epik_Ionization_Penalty>
1.51338e-05

> <r_epik_Ionization_Penalty_Charging>
0

> <r_epik_Ionization_Penalty_Neutral>
1.51338e-05

> <r_epik_State_Penalty>
-0

> <r_epik_Charging_Adjusted_Penalty>
0

> <i_epik_Tot_Q>
0

> <i_epik_Tot_abs_Q>
0

> <r_epik_Metal_State_Penalty>
-0

> <b_epik_Metal_Only>
0

> <s_epik_Chemistry_Notes>
This compound has an ester and may undergo hydrolysis at high or low pH. This compound contains an acetal/aminal-like group ( X-CH(R)-Y where X, Y are N, S, or O) that may be acid/base labile, releasing an aldehyde.

> <s_lp_Force_Field>
OPLS_2005

> <r_lp_Energy>
13.207

> <b_lp_Chiralities_Consistent>
1

> <s_lp_Variant>
AV-unprocessed.smi:103-12

> <Gold.Version>
5.8.1

> <Gold.Id.Protein>
6NUR|6NUR_protein|mol2

> <Gold.PLP.Fitness>
39.0472

> <Gold.PLP.PLP>
-31.0670

> <Gold.PLP.part.hbond>
-4.0000

> <Gold.PLP.part.metal>
0.0000

> <Gold.PLP.part.buried>
-5.5221

> <Gold.PLP.part.nonpolar>
-20.5196

> <Gold.PLP.part.repulsive>
0.5989

> <Gold.PLP.ligand.clash>
0.0000

> <Gold.PLP.ligand.torsion>
2.3009

> <Gold.PLP.Chemscore.Hbond>
3.4056

> <Gold.PLP.Chemscore.CHOScore>
0.0000

> <Gold.PLP.Chemscore.Metal>
0.0000

> <Gold.Chemscore.Hbonds>
donor molecule, donor type, donor heavy atom, donor atom, acceptor molecule, acceptor atom, score
      L1  H    18    44       P1 10747  0.15
      P1  H  6896  6908       L1    32  1.00
      P1  H  6931  6943       L1     3  1.00
      P1  H  7989  7998       L1    27  0.85

> <Gold.PLP.Chemscore.Internal.Correction>
2.3651

> <Gold.Rescore>
     Score         DG    S(hbond)    S(metal)    S(lipo)     H(rot)  DE(clash)    DE(int)     intcor
      4.56     -10.81       3.60        0.00      35.64       4.25       0.09       6.16       ----

> <Gold.Chemscore.Fitness>
4.5600

> <Gold.Chemscore.DG>
-10.8106

> <Gold.Chemscore.ZeroCoef>
-5.4800

> <Gold.Chemscore.Hbond>
3.6015

> <Gold.Chemscore.Metal>
0.0000

> <Gold.Chemscore.Lipo>
35.6447

> <Gold.Chemscore.Internal_Hbond>
0.0000

> <Gold.Chemscore.DEClash>
0.0883

> <Gold.Chemscore.DEInternal>
6.1624

> <Gold.Chemscore.Rot>
4.2456

> <Gold.Chemscore.Internal.Correction>
   9.000000E+99

> <Gold.Chemscore.Hbonds>
donor molecule, donor type, donor heavy atom, donor atom, acceptor molecule, acceptor atom, score
      L1  H    18    44       P1 10747  0.16
      P1  H  6896  6908       L1    32  0.93
      P1  H  6931  6943       L1     3  0.99
      P1  H  7989  7998       L1    27  0.15

> <Gold.Chemscore.Hbond.Weighted>
-12.0289

> <Gold.Chemscore.Metal.Weighted>
-0.0000

> <Gold.Chemscore.Lipo.Weighted>
-4.1704

> <Gold.Chemscore.Internal_Hbond.Weighted>
0.0000

> <Gold.Chemscore.DEClash.Weighted>
0.0883

> <Gold.Chemscore.DEInternal.Weighted>
6.1624

> <Gold.Chemscore.Rot.Weighted>
10.8687

> <Gold.Chemscore.Internal.Correction.Weighted>
   9.000000E+99

> <Gold.Protein.RotatedTorsions>
[ 6907 6896 6895 6894 ] final -134.89 input  -60.11 | X-H torsion
[ 7974 7965 7964 7962 ] final  -19.35 input  175.53 | X-H torsion
[ 8008 7997 7996 7995 ] final  -57.85 input   59.86 | X-H torsion
[ 10167 10162 10161 10158 ] final  -58.42 input  -65.29 | X-H torsion
[ 10718 10713 10712 10709 ] final  -63.25 input   66.30 | X-H torsion
[ 10763 10752 10751 10750 ] final   37.80 input  -60.55 | X-H torsion
[ 11005 11000 10999 10996 ] final -116.83 input  -57.11 | X-H torsion

> <Gold.Protein.ActiveResidues>
 VAL166  LYS551  ARG553  GLY616  TRP617  ASP618  TYR619  PRO620  LYS621  CYS622 
 ASP623  PHE694  ASN695  SER759  ASP760  ASP761  ALA762  ILE779  LEU786  VAL792 
 PHE793  MET794  SER795  GLU796  ALA797  LYS798  CYS799  TRP800  GLU811  SER814 

> <Gold.Protein.RotatedAtoms>
  150.9913  133.6147  159.2707 H   0  0  0  0  0  0  0  0  0  0  0  0  # atno 6907 bound_to 6896
  151.3366  135.0853  159.9366 H   0  0  0  0  0  0  0  0  0  0  0  0  # atno 6908 bound_to 6896
  152.5246  133.9532  159.7736 H   0  0  0  0  0  0  0  0  0  0  0  0  # atno 6909 bound_to 6896
  146.1846  140.4049  142.8481 H   0  0  0  0  0  0  0  0  0  0  0  0  # atno 7974 bound_to 7965
  154.4284  140.1097  156.5863 H   0  0  0  0  0  0  0  0  0  0  0  0  # atno 8008 bound_to 7997
  155.6059  140.3494  155.4589 H   0  0  0  0  0  0  0  0  0  0  0  0  # atno 8009 bound_to 7997
  156.0137  140.1224  157.0418 H   0  0  0  0  0  0  0  0  0  0  0  0  # atno 8010 bound_to 7997
  140.6199  143.2415  151.5507 H   0  0  0  0  0  0  0  0  0  0  0  0  # atno 10167 bound_to 10162
  156.0803  130.4218  150.1250 H   0  0  0  0  0  0  0  0  0  0  0  0  # atno 10718 bound_to 10713
  153.0024  135.6267  154.2202 H   0  0  0  0  0  0  0  0  0  0  0  0  # atno 10763 bound_to 10752
  154.1945  135.2807  155.3013 H   0  0  0  0  0  0  0  0  0  0  0  0  # atno 10764 bound_to 10752
  154.5733  135.5670  153.7175 H   0  0  0  0  0  0  0  0  0  0  0  0  # atno 10765 bound_to 10752
  141.0396  133.9857  157.3016 H   0  0  0  0  0  0  0  0  0  0  0  0  # atno 11005 bound_to 11000
  144.8374  140.6803  143.6251 LP  0  0  0  0  0  0  0  0  0  0  0  0  # atno 17320 bound_to 7965
  145.3977  139.1604  143.4194 LP  0  0  0  0  0  0  0  0  0  0  0  0  # atno 17321 bound_to 7965
  139.5429  144.2598  152.1387 LP  0  0  0  0  0  0  0  0  0  0  0  0  # atno 17342 bound_to 10162
  140.1816  144.4839  150.6525 LP  0  0  0  0  0  0  0  0  0  0  0  0  # atno 17343 bound_to 10162
  156.9283  130.9705  151.3537 LP  0  0  0  0  0  0  0  0  0  0  0  0  # atno 17370 bound_to 10713
  157.5917  130.8448  149.8668 LP  0  0  0  0  0  0  0  0  0  0  0  0  # atno 17371 bound_to 10713
  139.9265  135.0201  156.8254 LP  0  0  0  0  0  0  0  0  0  0  0  0  # atno 17394 bound_to 11000
  140.6260  133.9950  155.7640 LP  0  0  0  0  0  0  0  0  0  0  0  0  # atno 17395 bound_to 11000

$$$$
