AV-unprocessed.smi:221|AV-procd|sdf|1695|dock2
  -GOLD-   2262020143D 1   1.00000     0.00000
 Structure written by MMmdl.
 50 53  0  0  0  0  0  0  0  0  1 V2000
  145.7773  136.8599  162.8793 N   0  0  0  0  0  0  0  0  0  0  0  0
  147.1079  136.7598  162.8363 C   0  0  0  0  0  0  0  0  0  0  0  0
  147.8379  137.5123  163.4797 O   0  0  0  0  0  0  0  0  0  0  0  0
  147.6882  135.6523  161.9368 C   0  0  1  0  0  0  0  0  0  0  0  0
  147.4039  134.2462  162.4961 C   0  0  0  0  0  0  0  0  0  0  0  0
  146.0938  133.8160  161.8353 C   0  0  1  0  0  0  0  0  0  0  0  0
  145.0564  134.2936  162.5246 F   0  0  0  0  0  0  0  0  0  0  0  0
  146.1550  134.4848  160.4610 C   0  0  0  0  0  0  0  0  0  0  0  0
  147.0615  135.6195  160.6149 N   0  0  0  0  0  0  0  0  0  0  0  0
  147.3415  136.4716  159.5893 C   0  0  0  0  0  0  0  0  0  0  0  0
  146.3030  136.9025  158.8243 N   0  0  0  0  0  0  0  0  0  0  0  0
  146.5036  137.7397  157.8038 C   0  0  0  0  0  0  0  0  0  0  0  0
  147.6492  138.2655  157.3718 N   0  0  0  0  0  0  0  0  0  0  0  0
  148.7007  137.8397  158.1265 C   0  0  0  0  0  0  0  0  0  0  0  0
  148.6419  136.9536  159.2425 C   0  0  0  0  0  0  0  0  0  0  0  0
  149.9268  136.7648  159.7434 N   0  0  0  0  0  0  0  0  0  0  0  0
  150.6912  137.4934  158.9784 C   0  0  0  0  0  0  0  0  0  0  0  0
  150.0365  138.1652  157.9735 N   0  0  0  0  0  0  0  0  0  0  0  0
  150.6289  139.0395  156.9762 C   0  0  0  0  0  0  0  0  0  0  0  0
  150.2698  140.5317  157.1959 C   0  0  2  0  0  0  0  0  0  0  0  0
  150.6426  141.3869  155.9622 C   0  0  0  0  0  0  0  0  0  0  0  0
  149.9805  140.9277  154.8022 O   0  0  0  0  0  0  0  0  0  0  0  0
  150.8610  141.1251  158.5049 C   0  0  1  0  0  0  0  0  0  0  0  0
  152.3721  141.0351  158.6573 C   0  0  0  0  0  0  0  0  0  0  0  0
  152.6924  142.1380  159.6721 C   0  0  0  0  0  0  0  0  0  0  0  0
  151.4981  142.8991  159.8350 O   0  0  0  0  0  0  0  0  0  0  0  0
  150.6138  142.6104  158.7634 C   0  0  0  0  0  0  0  0  0  0  0  0
  148.7674  135.7796  161.8485 H   0  0  0  0  0  0  0  0  0  0  0  0
  145.9745  132.7337  161.7795 H   0  0  0  0  0  0  0  0  0  0  0  0
  145.3484  137.5685  163.4565 H   0  0  0  0  0  0  0  0  0  0  0  0
  145.2054  136.2276  162.3386 H   0  0  0  0  0  0  0  0  0  0  0  0
  148.2010  133.5697  162.1848 H   0  0  0  0  0  0  0  0  0  0  0  0
  147.3578  134.2067  163.5855 H   0  0  0  0  0  0  0  0  0  0  0  0
  146.5709  133.7966  159.7239 H   0  0  0  0  0  0  0  0  0  0  0  0
  145.1649  134.7920  160.1212 H   0  0  0  0  0  0  0  0  0  0  0  0
  145.6195  138.0283  157.2546 H   0  0  0  0  0  0  0  0  0  0  0  0
  151.7603  137.5537  159.1223 H   0  0  0  0  0  0  0  0  0  0  0  0
  151.7053  138.8797  157.0074 H   0  0  0  0  0  0  0  0  0  0  0  0
  150.2958  138.7074  155.9925 H   0  0  0  0  0  0  0  0  0  0  0  0
  149.1849  140.5853  157.2983 H   0  0  0  0  0  0  0  0  0  0  0  0
  150.3982  142.4363  156.1276 H   0  0  0  0  0  0  0  0  0  0  0  0
  151.7114  141.3394  155.7566 H   0  0  0  0  0  0  0  0  0  0  0  0
  149.7720  140.0129  154.9158 H   0  0  0  0  0  0  0  0  0  0  0  0
  150.4422  140.5791  159.3514 H   0  0  0  0  0  0  0  0  0  0  0  0
  152.6948  140.0504  158.9968 H   0  0  0  0  0  0  0  0  0  0  0  0
  152.8884  141.2450  157.7218 H   0  0  0  0  0  0  0  0  0  0  0  0
  152.9913  141.7243  160.6356 H   0  0  0  0  0  0  0  0  0  0  0  0
  153.5001  142.7768  159.3136 H   0  0  0  0  0  0  0  0  0  0  0  0
  150.8902  143.2277  157.9083 H   0  0  0  0  0  0  0  0  0  0  0  0
  149.5802  142.8302  159.0308 H   0  0  0  0  0  0  0  0  0  0  0  0
  1  2  1  0  0  0  0
  1 30  1  0  0  0  0
  1 31  1  0  0  0  0
  2  3  2  0  0  0  0
  2  4  1  0  0  0  0
  4 28  1  0  0  0  0
  4  9  1  0  0  0  0
  4  5  1  0  0  0  0
  5  6  1  0  0  0  0
  5 32  1  0  0  0  0
  5 33  1  0  0  0  0
  6 29  1  0  0  0  0
  6  7  1  0  0  0  0
  6  8  1  0  0  0  0
  8  9  1  0  0  0  0
  8 34  1  0  0  0  0
  8 35  1  0  0  0  0
  9 10  1  0  0  0  0
 10 15  1  0  0  0  0
 10 11  2  0  0  0  0
 11 12  1  0  0  0  0
 12 13  2  0  0  0  0
 12 36  1  0  0  0  0
 13 14  1  0  0  0  0
 14 18  1  0  0  0  0
 14 15  2  0  0  0  0
 15 16  1  0  0  0  0
 16 17  2  0  0  0  0
 17 18  1  0  0  0  0
 17 37  1  0  0  0  0
 18 19  1  0  0  0  0
 19 20  1  0  0  0  0
 19 38  1  0  0  0  0
 19 39  1  0  0  0  0
 20 21  1  0  0  0  0
 20 23  1  0  0  0  0
 20 40  1  0  0  0  0
 21 22  1  0  0  0  0
 21 41  1  0  0  0  0
 21 42  1  0  0  0  0
 22 43  1  0  0  0  0
 23 27  1  0  0  0  0
 23 24  1  0  0  0  0
 23 44  1  0  0  0  0
 24 25  1  0  0  0  0
 24 45  1  0  0  0  0
 24 46  1  0  0  0  0
 25 26  1  0  0  0  0
 25 47  1  0  0  0  0
 25 48  1  0  0  0  0
 26 27  1  0  0  0  0
 27 49  1  0  0  0  0
 27 50  1  0  0  0  0
M  END
> <s_m_source_file>
AV-unprocessed.smi

> <i_m_source_file_index>
221

> <i_lp_mmshare_version>
43012

> <i_f3d_flags>
0

> <s_epik_input>
W05IMl1DKD1PKVtDQEBIXTFbQ0gyXVtDQEBIXShGKVtDSDJdTjFjKG5bY0hdbjIpYyhjMjMpbltjSF1uM1tDSDJdW0NASF0oW0NIMl1bT0hdKVtDQEBIXTRbQ0gyXVtDSDJdT1tDSDJdNA==

> <s_epik_cmdline>
J2VwaWtfcHl0aG9uJywgJy1waCcsICc3LjAnLCAnLXRuJywgJzgnLCAnLW1hJywgJzIwMCcsICctbWV0YWxfYmluZGluZycsICctaW1hZScsICc8aW5maWxlLm1hZT4nLCAnLW9tYWUnLCAnPG91dGZpbGUubWFlPic=

> <r_lp_tautomer_probability>
1

> <r_epik_Ionization_Penalty>
0.000818822

> <r_epik_Ionization_Penalty_Charging>
0

> <r_epik_Ionization_Penalty_Neutral>
0.000818822

> <r_epik_State_Penalty>
0.000440551

> <r_epik_Charging_Adjusted_Penalty>
0.000440551

> <i_epik_Tot_Q>
0

> <i_epik_Tot_abs_Q>
0

> <r_epik_Metal_State_Penalty>
-0

> <b_epik_Metal_Only>
0

> <s_lp_Force_Field>
OPLS_2005

> <r_lp_Energy>
49.0425

> <b_lp_Chiralities_Consistent>
1

> <s_lp_Variant>
AV-unprocessed.smi:221-10

> <Gold.Version>
5.8.1

> <Gold.Id.Protein>
6NUR|6NUR_protein|mol2

> <Gold.PLP.Fitness>
48.3808

> <Gold.PLP.PLP>
-43.6934

> <Gold.PLP.part.hbond>
-3.9526

> <Gold.PLP.part.metal>
0.0000

> <Gold.PLP.part.buried>
-5.3046

> <Gold.PLP.part.nonpolar>
-34.1942

> <Gold.PLP.part.repulsive>
0.2334

> <Gold.PLP.ligand.clash>
0.0000

> <Gold.PLP.ligand.torsion>
1.1136

> <Gold.PLP.Chemscore.Hbond>
2.2328

> <Gold.PLP.Chemscore.CHOScore>
0.0000

> <Gold.PLP.Chemscore.Metal>
0.0000

> <Gold.Chemscore.Hbonds>
donor molecule, donor type, donor heavy atom, donor atom, acceptor molecule, acceptor atom, score
      P1  H  6896  6908       L1    16  0.94
      P1  H  6931  6943       L1     3  0.35
      P1  H  7989  7998       L1    22  0.57

> <Gold.PLP.Chemscore.Internal.Correction>
0.2163

> <Gold.Rescore>
     Score         DG    S(hbond)    S(metal)    S(lipo)     H(rot)  DE(clash)    DE(int)     intcor
      8.45     -10.81       1.36        0.00      79.10       3.31       0.17       2.20       ----

> <Gold.Chemscore.Fitness>
8.4478

> <Gold.Chemscore.DG>
-10.8115

> <Gold.Chemscore.ZeroCoef>
-5.4800

> <Gold.Chemscore.Hbond>
1.3615

> <Gold.Chemscore.Metal>
0.0000

> <Gold.Chemscore.Lipo>
79.1024

> <Gold.Chemscore.Internal_Hbond>
0.0000

> <Gold.Chemscore.DEClash>
0.1663

> <Gold.Chemscore.DEInternal>
2.1973

> <Gold.Chemscore.Rot>
3.3089

> <Gold.Chemscore.Internal.Correction>
   9.000000E+99

> <Gold.Chemscore.Hbonds>
donor molecule, donor type, donor heavy atom, donor atom, acceptor molecule, acceptor atom, score
      P1  H  6896  6908       L1    16  0.27
      P1  H  6931  6943       L1     3  0.10
      P1  H  7989  7998       L1    22  0.06

> <Gold.Chemscore.Hbond.Weighted>
-4.5474

> <Gold.Chemscore.Metal.Weighted>
-0.0000

> <Gold.Chemscore.Lipo.Weighted>
-9.2550

> <Gold.Chemscore.Internal_Hbond.Weighted>
0.0000

> <Gold.Chemscore.DEClash.Weighted>
0.1663

> <Gold.Chemscore.DEInternal.Weighted>
2.1973

> <Gold.Chemscore.Rot.Weighted>
8.4709

> <Gold.Chemscore.Internal.Correction.Weighted>
   9.000000E+99

> <Gold.Protein.RotatedTorsions>
[ 6907 6896 6895 6894 ] final -157.30 input  -60.11 | X-H torsion
[ 7974 7965 7964 7962 ] final  145.66 input  175.53 | X-H torsion
[ 8008 7997 7996 7995 ] final   77.50 input   59.86 | X-H torsion
[ 10167 10162 10161 10158 ] final -171.80 input  -65.29 | X-H torsion
[ 10718 10713 10712 10709 ] final   94.50 input   66.30 | X-H torsion
[ 10763 10752 10751 10750 ] final   32.08 input  -60.55 | X-H torsion
[ 11005 11000 10999 10996 ] final  168.06 input  -57.11 | X-H torsion

> <Gold.Protein.ActiveResidues>
 VAL166  LYS551  ARG553  GLY616  TRP617  ASP618  TYR619  PRO620  LYS621  CYS622 
 ASP623  PHE694  ASN695  SER759  ASP760  ASP761  ALA762  ILE779  LEU786  VAL792 
 PHE793  MET794  SER795  GLU796  ALA797  LYS798  CYS799  TRP800  GLU811  SER814 

> <Gold.Protein.RotatedAtoms>
  151.3008  133.4123  159.2639 H   0  0  0  0  0  0  0  0  0  0  0  0  # atno 6907 bound_to 6896
  151.0197  134.9460  159.8063 H   0  0  0  0  0  0  0  0  0  0  0  0  # atno 6908 bound_to 6896
  152.5321  134.2971  159.9117 H   0  0  0  0  0  0  0  0  0  0  0  0  # atno 6909 bound_to 6896
  144.8735  139.5809  143.5876 H   0  0  0  0  0  0  0  0  0  0  0  0  # atno 7974 bound_to 7965
  155.8425  140.3461  155.5641 H   0  0  0  0  0  0  0  0  0  0  0  0  # atno 8008 bound_to 7997
  155.8125  140.0901  157.1915 H   0  0  0  0  0  0  0  0  0  0  0  0  # atno 8009 bound_to 7997
  154.4005  140.1445  156.3391 H   0  0  0  0  0  0  0  0  0  0  0  0  # atno 8010 bound_to 7997
  139.5781  144.1486  152.1478 H   0  0  0  0  0  0  0  0  0  0  0  0  # atno 10167 bound_to 10162
  157.6947  131.0514  150.4196 H   0  0  0  0  0  0  0  0  0  0  0  0  # atno 10718 bound_to 10713
  153.0281  135.6422  154.1300 H   0  0  0  0  0  0  0  0  0  0  0  0  # atno 10763 bound_to 10752
  154.1026  135.2858  155.3250 H   0  0  0  0  0  0  0  0  0  0  0  0  # atno 10764 bound_to 10752
  154.6388  135.5467  153.7828 H   0  0  0  0  0  0  0  0  0  0  0  0  # atno 10765 bound_to 10752
  140.2833  134.7733  157.3776 H   0  0  0  0  0  0  0  0  0  0  0  0  # atno 11005 bound_to 11000
  146.2946  139.7240  142.9136 LP  0  0  0  0  0  0  0  0  0  0  0  0  # atno 17320 bound_to 7965
  145.4087  141.0394  143.3029 LP  0  0  0  0  0  0  0  0  0  0  0  0  # atno 17321 bound_to 7965
  140.1033  144.5521  150.6974 LP  0  0  0  0  0  0  0  0  0  0  0  0  # atno 17342 bound_to 10162
  140.7062  143.2470  151.4719 LP  0  0  0  0  0  0  0  0  0  0  0  0  # atno 17343 bound_to 10162
  156.4572  130.4024  149.6598 LP  0  0  0  0  0  0  0  0  0  0  0  0  # atno 17370 bound_to 10713
  156.3726  130.7538  151.2523 LP  0  0  0  0  0  0  0  0  0  0  0  0  # atno 17371 bound_to 10713
  140.1263  134.5153  155.8142 LP  0  0  0  0  0  0  0  0  0  0  0  0  # atno 17394 bound_to 11000
  141.2159  133.6774  156.6958 LP  0  0  0  0  0  0  0  0  0  0  0  0  # atno 17395 bound_to 11000

$$$$
