AV-unprocessed.smi:290|AV-procd|sdf|2218|dock7
  -GOLD-   2262022 63D 1   1.00000     0.00000
 Structure written by MMmdl.
 59 62  0  0  0  0  0  0  0  0  2 V2000
  150.8301  142.6073  158.1300 C   0  0  0  0  0  0  0  0  0  0  0  0
  152.0932  141.7378  158.0318 C   0  0  1  0  0  0  0  0  0  0  0  0
  152.8695  141.9577  159.2055 O   0  0  0  0  0  0  0  0  0  0  0  0
  153.6380  140.7962  159.4593 C   0  0  0  0  0  0  0  0  0  0  0  0
  152.6429  139.6827  159.1715 C   0  0  0  0  0  0  0  0  0  0  0  0
  151.8856  140.1981  157.9489 C   0  0  2  0  0  0  0  0  0  0  0  0
  152.5622  139.7305  156.7938 O   0  0  0  0  0  0  0  0  0  0  0  0
  150.4156  139.7063  157.8850 C   0  0  0  0  0  0  0  0  0  0  0  0
  150.2927  138.2622  157.7566 N   0  0  0  0  0  0  0  0  0  0  0  0
  149.9347  137.3700  158.7425 C   0  0  0  0  0  0  0  0  0  0  0  0
  149.8989  136.1181  158.3746 N   0  0  0  0  0  0  0  0  0  0  0  0
  150.2466  136.1515  157.0293 C   0  0  0  0  0  0  0  0  0  0  0  0
  150.3982  135.1643  156.0148 C   0  0  0  0  0  0  0  0  0  0  0  0
  150.2196  133.8374  156.1927 N   0  0  0  0  0  0  0  0  0  0  0  0
  151.1510  133.1991  157.1157 C   0  0  0  0  0  0  0  0  0  0  0  0
  151.3327  131.7485  156.6430 C   0  0  0  0  0  0  0  0  0  0  0  0
  150.4099  131.5870  155.4221 C   0  0  1  0  0  0  0  0  0  0  0  0
  149.1787  130.7717  155.6710 N   0  3  1  0  0  0  0  0  0  0  0  0
  149.4984  129.3279  155.7952 C   0  0  0  0  0  0  0  0  0  0  0  0
  148.2875  131.2646  156.7612 C   0  0  0  0  0  0  0  0  0  0  0  0
  147.0140  130.4172  156.9343 C   0  0  0  0  0  0  0  0  0  0  0  0
  146.1695  130.5621  155.8126 O   0  0  0  0  0  0  0  0  0  0  0  0
  150.1541  133.0376  154.9769 C   0  0  1  0  0  0  0  0  0  0  0  0
  148.8926  133.2862  154.1297 C   0  0  0  0  0  0  0  0  0  0  0  0
  150.7613  135.5740  154.7753 N   0  0  0  0  0  0  0  0  0  0  0  0
  150.9638  136.8733  154.5349 C   0  0  0  0  0  0  0  0  0  0  0  0
  150.8597  137.9046  155.3762 N   0  0  0  0  0  0  0  0  0  0  0  0
  150.4962  137.4926  156.6249 C   0  0  0  0  0  0  0  0  0  0  0  0
  150.9591  131.0995  154.6152 H   0  0  0  0  0  0  0  0  0  0  0  0
  151.0078  133.3238  154.3607 H   0  0  0  0  0  0  0  0  0  0  0  0
  150.2000  142.4986  157.2472 H   0  0  0  0  0  0  0  0  0  0  0  0
  151.0975  143.6612  158.2103 H   0  0  0  0  0  0  0  0  0  0  0  0
  150.2364  142.3546  159.0088 H   0  0  0  0  0  0  0  0  0  0  0  0
  152.6844  142.0865  157.1827 H   0  0  0  0  0  0  0  0  0  0  0  0
  154.4871  140.7552  158.7753 H   0  0  0  0  0  0  0  0  0  0  0  0
  154.0121  140.7758  160.4830 H   0  0  0  0  0  0  0  0  0  0  0  0
  153.1163  138.7112  159.0228 H   0  0  0  0  0  0  0  0  0  0  0  0
  151.9667  139.5944  160.0227 H   0  0  0  0  0  0  0  0  0  0  0  0
  151.9803  139.1609  156.3142 H   0  0  0  0  0  0  0  0  0  0  0  0
  149.8733  140.0063  158.7821 H   0  0  0  0  0  0  0  0  0  0  0  0
  149.8967  140.1652  157.0426 H   0  0  0  0  0  0  0  0  0  0  0  0
  149.7030  137.6786  159.7516 H   0  0  0  0  0  0  0  0  0  0  0  0
  152.1114  133.7128  157.1665 H   0  0  0  0  0  0  0  0  0  0  0  0
  150.7192  133.2209  158.1167 H   0  0  0  0  0  0  0  0  0  0  0  0
  152.3689  131.6079  156.3330 H   0  0  0  0  0  0  0  0  0  0  0  0
  151.1447  131.0255  157.4364 H   0  0  0  0  0  0  0  0  0  0  0  0
  150.0512  129.1256  156.7132 H   0  0  0  0  0  0  0  0  0  0  0  0
  150.1039  128.9880  154.9545 H   0  0  0  0  0  0  0  0  0  0  0  0
  148.5994  128.7137  155.7968 H   0  0  0  0  0  0  0  0  0  0  0  0
  148.8366  131.2893  157.7028 H   0  0  0  0  0  0  0  0  0  0  0  0
  147.9731  132.2878  156.5652 H   0  0  0  0  0  0  0  0  0  0  0  0
  147.2332  129.3631  157.0989 H   0  0  0  0  0  0  0  0  0  0  0  0
  146.4681  130.7586  157.8141 H   0  0  0  0  0  0  0  0  0  0  0  0
  145.4362  129.9727  155.9089 H   0  0  0  0  0  0  0  0  0  0  0  0
  148.8651  132.6209  153.2667 H   0  0  0  0  0  0  0  0  0  0  0  0
  148.8693  134.3091  153.7530 H   0  0  0  0  0  0  0  0  0  0  0  0
  147.9799  133.1319  154.7040 H   0  0  0  0  0  0  0  0  0  0  0  0
  151.2507  137.1224  153.5238 H   0  0  0  0  0  0  0  0  0  0  0  0
  148.6359  130.8565  154.8230 H   0  0  0  0  0  0  0  0  0  0  0  0
  1  2  1  0  0  0  0
  1 31  1  0  0  0  0
  1 32  1  0  0  0  0
  1 33  1  0  0  0  0
  2  6  1  0  0  0  0
  2  3  1  0  0  0  0
  2 34  1  0  0  0  0
  3  4  1  0  0  0  0
  4  5  1  0  0  0  0
  4 35  1  0  0  0  0
  4 36  1  0  0  0  0
  5  6  1  0  0  0  0
  5 37  1  0  0  0  0
  5 38  1  0  0  0  0
  6  7  1  0  0  0  0
  6  8  1  0  0  0  0
  7 39  1  0  0  0  0
  8  9  1  0  0  0  0
  8 40  1  0  0  0  0
  8 41  1  0  0  0  0
  9 28  1  0  0  0  0
  9 10  1  0  0  0  0
 10 11  2  0  0  0  0
 10 42  1  0  0  0  0
 11 12  1  0  0  0  0
 12 28  2  0  0  0  0
 12 13  1  0  0  0  0
 13 14  1  0  0  0  0
 13 25  2  0  0  0  0
 14 23  1  0  0  0  0
 14 15  1  0  0  0  0
 15 16  1  0  0  0  0
 15 43  1  0  0  0  0
 15 44  1  0  0  0  0
 16 17  1  0  0  0  0
 16 45  1  0  0  0  0
 16 46  1  0  0  0  0
 17 29  1  0  0  0  0
 17 18  1  0  0  0  0
 17 23  1  0  0  0  0
 18 19  1  0  0  0  0
 18 20  1  0  0  0  0
 18 59  1  0  0  0  0
 19 47  1  0  0  0  0
 19 48  1  0  0  0  0
 19 49  1  0  0  0  0
 20 21  1  0  0  0  0
 20 50  1  0  0  0  0
 20 51  1  0  0  0  0
 21 22  1  0  0  0  0
 21 52  1  0  0  0  0
 21 53  1  0  0  0  0
 22 54  1  0  0  0  0
 23 30  1  0  0  0  0
 23 24  1  0  0  0  0
 24 55  1  0  0  0  0
 24 56  1  0  0  0  0
 24 57  1  0  0  0  0
 25 26  1  0  0  0  0
 26 27  2  0  0  0  0
 26 58  1  0  0  0  0
 27 28  1  0  0  0  0
M  CHG  1  18   1
M  END
> <s_m_source_file>
AV-unprocessed.smi

> <i_m_source_file_index>
290

> <i_lp_mmshare_version>
43012

> <i_f3d_flags>
0

> <s_epik_input>
W0NIMl0xW0NIMl1PW0NAQEhdKFtDSDNdKVtDQEBdMShbT0hdKVtDSDJdbihbY0hdbjIpYyhjMjMpbltjSF1uYzNONFtDSDJdW0NIMl1bQ0BIXShbQ0BIXTRbQ0gzXSlOKFtDSDNdKVtDSDJdW0NIMl1bT0hd

> <s_epik_cmdline>
J2VwaWtfcHl0aG9uJywgJy1waCcsICc3LjAnLCAnLXRuJywgJzgnLCAnLW1hJywgJzIwMCcsICctbWV0YWxfYmluZGluZycsICctaW1hZScsICc8aW5maWxlLm1hZT4nLCAnLW9tYWUnLCAnPG91dGZpbGUubWFlPic=

> <r_lp_tautomer_probability>
1

> <r_epik_Ionization_Penalty>
0.0036983

> <r_epik_Ionization_Penalty_Charging>
0.0032725

> <r_epik_Ionization_Penalty_Neutral>
0.000425798

> <r_epik_State_Penalty>
-0

> <r_epik_Charging_Adjusted_Penalty>
0.0032725

> <i_epik_Tot_Q>
1

> <i_epik_Tot_abs_Q>
1

> <r_epik_Metal_State_Penalty>
-0

> <b_epik_Metal_Only>
0

> <s_lp_Force_Field>
OPLS_2005

> <r_lp_Energy>
69.1694

> <b_lp_Chiralities_Consistent>
1

> <s_lp_Variant>
AV-unprocessed.smi:290-4

> <Gold.Version>
5.8.1

> <Gold.Id.Protein>
6NUR|6NUR_protein|mol2

> <Gold.PLP.Fitness>
45.2786

> <Gold.PLP.PLP>
-34.0372

> <Gold.PLP.part.hbond>
-3.6364

> <Gold.PLP.part.metal>
0.0000

> <Gold.PLP.part.buried>
-6.1901

> <Gold.PLP.part.nonpolar>
-25.0341

> <Gold.PLP.part.repulsive>
0.2395

> <Gold.PLP.ligand.clash>
0.0000

> <Gold.PLP.ligand.torsion>
0.4845

> <Gold.PLP.Chemscore.Hbond>
3.0585

> <Gold.PLP.Chemscore.CHOScore>
0.9010

> <Gold.PLP.Chemscore.Metal>
0.0000

> <Gold.Chemscore.Hbonds>
donor molecule, donor type, donor heavy atom, donor atom, acceptor molecule, acceptor atom, score
      P1  H  6896  6909       L1    11  0.94
      P1  H  7997  8008       L1     7  1.00
      L1  C    26    58       P1  7949  1.00

> <Gold.PLP.Chemscore.Internal.Correction>
0.3320

> <Gold.Rescore>
     Score         DG    S(hbond)    S(metal)    S(lipo)     H(rot)  DE(clash)    DE(int)     intcor
     11.32     -13.17       2.52        0.00      74.01       3.67       0.01       1.83       ----

> <Gold.Chemscore.Fitness>
11.3239

> <Gold.Chemscore.DG>
-13.1663

> <Gold.Chemscore.ZeroCoef>
-5.4800

> <Gold.Chemscore.Hbond>
2.5186

> <Gold.Chemscore.Metal>
0.0000

> <Gold.Chemscore.Lipo>
74.0055

> <Gold.Chemscore.Internal_Hbond>
0.0000

> <Gold.Chemscore.DEClash>
0.0149

> <Gold.Chemscore.DEInternal>
1.8275

> <Gold.Chemscore.Rot>
3.6658

> <Gold.Chemscore.Internal.Correction>
   9.000000E+99

> <Gold.Chemscore.Hbonds>
donor molecule, donor type, donor heavy atom, donor atom, acceptor molecule, acceptor atom, score
      L1  H    22    54       P1 10956  0.03
      P1  H  6896  6909       L1    11  0.82
      P1  H  7997  8008       L1     7  0.99

> <Gold.Chemscore.Hbond.Weighted>
-8.4120

> <Gold.Chemscore.Metal.Weighted>
-0.0000

> <Gold.Chemscore.Lipo.Weighted>
-8.6586

> <Gold.Chemscore.Internal_Hbond.Weighted>
0.0000

> <Gold.Chemscore.DEClash.Weighted>
0.0149

> <Gold.Chemscore.DEInternal.Weighted>
1.8275

> <Gold.Chemscore.Rot.Weighted>
9.3844

> <Gold.Chemscore.Internal.Correction.Weighted>
   9.000000E+99

> <Gold.Protein.RotatedTorsions>
[ 6907 6896 6895 6894 ] final   56.58 input  -60.11 | X-H torsion
[ 7974 7965 7964 7962 ] final -111.22 input  175.53 | X-H torsion
[ 8008 7997 7996 7995 ] final  -42.13 input   59.86 | X-H torsion
[ 10167 10162 10161 10158 ] final   39.30 input  -65.29 | X-H torsion
[ 10718 10713 10712 10709 ] final   13.26 input   66.30 | X-H torsion
[ 10763 10752 10751 10750 ] final  -63.59 input  -60.55 | X-H torsion
[ 11005 11000 10999 10996 ] final   91.07 input  -57.11 | X-H torsion

> <Gold.Protein.ActiveResidues>
 VAL166  LYS551  ARG553  GLY616  TRP617  ASP618  TYR619  PRO620  LYS621  CYS622 
 ASP623  PHE694  ASN695  SER759  ASP760  ASP761  ALA762  ILE779  LEU786  VAL792 
 PHE793  MET794  SER795  GLU796  ALA797  LYS798  CYS799  TRP800  GLU811  SER814 

> <Gold.Protein.RotatedAtoms>
  152.3649  134.6818  160.0194 H   0  0  0  0  0  0  0  0  0  0  0  0  # atno 6907 bound_to 6896
  151.7130  133.3307  159.3303 H   0  0  0  0  0  0  0  0  0  0  0  0  # atno 6908 bound_to 6896
  150.7631  134.6450  159.6302 H   0  0  0  0  0  0  0  0  0  0  0  0  # atno 6909 bound_to 6896
  145.1588  140.8867  143.3603 H   0  0  0  0  0  0  0  0  0  0  0  0  # atno 7974 bound_to 7965
  154.4000  140.1481  156.3305 H   0  0  0  0  0  0  0  0  0  0  0  0  # atno 8008 bound_to 7997
  155.8447  140.3460  155.5633 H   0  0  0  0  0  0  0  0  0  0  0  0  # atno 8009 bound_to 7997
  155.8048  140.0875  157.1927 H   0  0  0  0  0  0  0  0  0  0  0  0  # atno 8010 bound_to 7997
  140.3853  144.1925  150.6130 H   0  0  0  0  0  0  0  0  0  0  0  0  # atno 10167 bound_to 10162
  157.0220  130.6158  149.5722 H   0  0  0  0  0  0  0  0  0  0  0  0  # atno 10718 bound_to 10713
  154.3174  135.6203  153.5492 H   0  0  0  0  0  0  0  0  0  0  0  0  # atno 10763 bound_to 10752
  152.9823  135.5716  154.5109 H   0  0  0  0  0  0  0  0  0  0  0  0  # atno 10764 bound_to 10752
  154.4770  135.2861  155.1576 H   0  0  0  0  0  0  0  0  0  0  0  0  # atno 10765 bound_to 10752
  139.8845  134.8652  156.3375 H   0  0  0  0  0  0  0  0  0  0  0  0  # atno 11005 bound_to 11000
  145.0353  139.3306  143.6004 LP  0  0  0  0  0  0  0  0  0  0  0  0  # atno 17320 bound_to 7965
  146.3485  139.9706  142.8706 LP  0  0  0  0  0  0  0  0  0  0  0  0  # atno 17321 bound_to 7965
  140.4895  143.2352  151.8838 LP  0  0  0  0  0  0  0  0  0  0  0  0  # atno 17342 bound_to 10162
  139.4792  144.5181  151.8840 LP  0  0  0  0  0  0  0  0  0  0  0  0  # atno 17343 bound_to 10162
  156.0099  130.5189  150.7954 LP  0  0  0  0  0  0  0  0  0  0  0  0  # atno 17370 bound_to 10713
  157.5242  131.0933  151.0039 LP  0  0  0  0  0  0  0  0  0  0  0  0  # atno 17371 bound_to 10713
  140.9681  133.7345  156.0496 LP  0  0  0  0  0  0  0  0  0  0  0  0  # atno 17394 bound_to 11000
  140.7905  134.3623  157.5465 LP  0  0  0  0  0  0  0  0  0  0  0  0  # atno 17395 bound_to 11000

$$$$
