AV-unprocessed.smi:107|AV-procd|sdf|1014|dock5
  -GOLD-   2262018 13D 1   1.00000     0.00000
 Structure written by MMmdl.
 31 32  0  0  0  0  0  0  0  0  1 V2000
  149.1273  141.3648  155.0829 C   0  0  0  0  0  0  0  0  0  0  0  0
  150.2782  140.9057  155.9626 C   0  0  0  0  0  0  0  0  0  0  0  0
  150.5316  141.4593  157.1758 C   0  0  0  0  0  0  0  0  0  0  0  0
  151.5705  141.0606  158.0041 N   0  0  0  0  0  0  0  0  0  0  0  0
  151.7701  141.7236  159.3464 C   0  0  1  0  0  0  0  0  0  0  0  0
  153.1446  142.4010  159.4347 C   0  0  0  0  0  0  0  0  0  0  0  0
  152.7978  143.8586  159.7026 C   0  0  1  0  0  0  0  0  0  0  0  0
  152.9138  144.6235  158.5169 O   0  0  0  0  0  0  0  0  0  0  0  0
  151.3509  143.7964  160.2164 C   0  0  1  0  0  0  0  0  0  0  0  0
  150.5190  145.0760  160.0185 C   0  0  0  0  0  0  0  0  0  0  0  0
  151.2708  146.2074  160.4022 O   0  0  0  0  0  0  0  0  0  0  0  0
  150.7946  142.7067  159.4936 O   0  0  0  0  0  0  0  0  0  0  0  0
  152.4257  140.0185  157.5887 C   0  0  0  0  0  0  0  0  0  0  0  0
  153.3717  139.6124  158.2624 O   0  0  0  0  0  0  0  0  0  0  0  0
  152.1664  139.4495  156.3428 N   0  0  0  0  0  0  0  0  0  0  0  0
  151.1355  139.8213  155.4760 C   0  0  0  0  0  0  0  0  0  0  0  0
  151.0106  139.2429  154.3977 O   0  0  0  0  0  0  0  0  0  0  0  0
  152.7778  138.7056  156.0393 H   0  0  0  0  0  0  0  0  0  0  0  0
  148.5760  142.1888  155.5367 H   0  0  0  0  0  0  0  0  0  0  0  0
  148.4270  140.5460  154.9146 H   0  0  0  0  0  0  0  0  0  0  0  0
  149.4974  141.7038  154.1147 H   0  0  0  0  0  0  0  0  0  0  0  0
  149.8863  142.2549  157.5186 H   0  0  0  0  0  0  0  0  0  0  0  0
  151.6216  140.9770  160.1275 H   0  0  0  0  0  0  0  0  0  0  0  0
  153.6880  141.9670  160.2747 H   0  0  0  0  0  0  0  0  0  0  0  0
  153.7360  142.2523  158.5296 H   0  0  0  0  0  0  0  0  0  0  0  0
  153.4628  144.2955  160.4481 H   0  0  0  0  0  0  0  0  0  0  0  0
  152.1813  144.4216  157.9551 H   0  0  0  0  0  0  0  0  0  0  0  0
  151.3789  143.5262  161.2740 H   0  0  0  0  0  0  0  0  0  0  0  0
  150.2635  145.1986  158.9655 H   0  0  0  0  0  0  0  0  0  0  0  0
  149.5846  145.0340  160.5792 H   0  0  0  0  0  0  0  0  0  0  0  0
  150.6933  146.8226  160.8277 H   0  0  0  0  0  0  0  0  0  0  0  0
  1  2  1  0  0  0  0
  1 19  1  0  0  0  0
  1 20  1  0  0  0  0
  1 21  1  0  0  0  0
  2 16  1  0  0  0  0
  2  3  2  0  0  0  0
  3  4  1  0  0  0  0
  3 22  1  0  0  0  0
  4  5  1  0  0  0  0
  4 13  1  0  0  0  0
  5 12  1  0  0  0  0
  5  6  1  0  0  0  0
  5 23  1  0  0  0  0
  6  7  1  0  0  0  0
  6 24  1  0  0  0  0
  6 25  1  0  0  0  0
  7  8  1  0  0  0  0
  7  9  1  0  0  0  0
  7 26  1  0  0  0  0
  8 27  1  0  0  0  0
  9 10  1  0  0  0  0
  9 12  1  0  0  0  0
  9 28  1  0  0  0  0
 10 11  1  0  0  0  0
 10 29  1  0  0  0  0
 10 30  1  0  0  0  0
 11 31  1  0  0  0  0
 13 14  2  0  0  0  0
 13 15  1  0  0  0  0
 15 18  1  0  0  0  0
 15 16  1  0  0  0  0
 16 17  2  0  0  0  0
M  END
> <s_m_source_file>
AV-unprocessed.smi

> <i_m_source_file_index>
107

> <i_lp_mmshare_version>
43012

> <i_f3d_flags>
0

> <s_epik_input>
Tz1jMVtuSF1jKD1PKW4oW2NIXWMxW0NIM10pW0NAQEhdMltDSDJdW0NAQEhdKFtPSF0pW0NASF0oTzIpW0NIMl1bT0hd

> <s_epik_cmdline>
J2VwaWtfcHl0aG9uJywgJy1waCcsICc3LjAnLCAnLXRuJywgJzgnLCAnLW1hJywgJzIwMCcsICctbWV0YWxfYmluZGluZycsICctaW1hZScsICc8aW5maWxlLm1hZT4nLCAnLW9tYWUnLCAnPG91dGZpbGUubWFlPic=

> <r_lp_tautomer_probability>
0.999537

> <r_epik_Ionization_Penalty>
0.00121888

> <r_epik_Ionization_Penalty_Charging>
0.00121876

> <r_epik_Ionization_Penalty_Neutral>
1.19946e-07

> <r_epik_State_Penalty>
0.000805124

> <r_epik_Charging_Adjusted_Penalty>
0.00202389

> <i_epik_Tot_Q>
0

> <i_epik_Tot_abs_Q>
0

> <r_epik_Metal_State_Penalty>
0.662472

> <b_epik_Metal_Only>
0

> <s_epik_Chemistry_Notes>
This compound contains an acetal/aminal-like group ( X-CH(R)-Y where X, Y are N, S, or O) that may be acid/base labile, releasing an aldehyde.

> <s_lp_Force_Field>
OPLS_2005

> <r_lp_Energy>
28.3693

> <b_lp_Chiralities_Consistent>
1

> <s_lp_Variant>
AV-unprocessed.smi:107-2

> <Gold.Version>
5.8.1

> <Gold.Id.Protein>
6NUR|6NUR_protein|mol2

> <Gold.PLP.Fitness>
38.1339

> <Gold.PLP.PLP>
-33.8711

> <Gold.PLP.part.hbond>
-6.0000

> <Gold.PLP.part.metal>
0.0000

> <Gold.PLP.part.buried>
-3.2874

> <Gold.PLP.part.nonpolar>
-25.6998

> <Gold.PLP.part.repulsive>
0.2994

> <Gold.PLP.ligand.clash>
0.0000

> <Gold.PLP.ligand.torsion>
0.1213

> <Gold.PLP.Chemscore.Hbond>
1.5000

> <Gold.PLP.Chemscore.CHOScore>
0.0000

> <Gold.PLP.Chemscore.Metal>
0.0000

> <Gold.Chemscore.Hbonds>
donor molecule, donor type, donor heavy atom, donor atom, acceptor molecule, acceptor atom, score
      P1  H  7989  7998       L1    17  0.50
      P1  H  7997  8010       L1    14  1.00

> <Gold.PLP.Chemscore.Internal.Correction>
0.0054

> <Gold.Rescore>
     Score         DG    S(hbond)    S(metal)    S(lipo)     H(rot)  DE(clash)    DE(int)     intcor
      7.35      -8.45       0.80        0.00      62.15       2.73       0.04       1.06       ----

> <Gold.Chemscore.Fitness>
7.3491

> <Gold.Chemscore.DG>
-8.4506

> <Gold.Chemscore.ZeroCoef>
-5.4800

> <Gold.Chemscore.Hbond>
0.8012

> <Gold.Chemscore.Metal>
0.0000

> <Gold.Chemscore.Lipo>
62.1495

> <Gold.Chemscore.Internal_Hbond>
0.0000

> <Gold.Chemscore.DEClash>
0.0400

> <Gold.Chemscore.DEInternal>
1.0615

> <Gold.Chemscore.Rot>
2.7253

> <Gold.Chemscore.Internal.Correction>
   9.000000E+99

> <Gold.Chemscore.Hbonds>
donor molecule, donor type, donor heavy atom, donor atom, acceptor molecule, acceptor atom, score
      P1  H  7989  7998       L1    17  0.02
      P1  H  7997  8010       L1    14  0.42

> <Gold.Chemscore.Hbond.Weighted>
-2.6760

> <Gold.Chemscore.Metal.Weighted>
-0.0000

> <Gold.Chemscore.Lipo.Weighted>
-7.2715

> <Gold.Chemscore.Internal_Hbond.Weighted>
0.0000

> <Gold.Chemscore.DEClash.Weighted>
0.0400

> <Gold.Chemscore.DEInternal.Weighted>
1.0615

> <Gold.Chemscore.Rot.Weighted>
6.9769

> <Gold.Chemscore.Internal.Correction.Weighted>
   9.000000E+99

> <Gold.Protein.RotatedTorsions>
[ 6907 6896 6895 6894 ] final   53.26 input  -60.11 | X-H torsion
[ 7974 7965 7964 7962 ] final  -50.09 input  175.53 | X-H torsion
[ 8008 7997 7996 7995 ] final   13.73 input   59.86 | X-H torsion
[ 10167 10162 10161 10158 ] final    4.60 input  -65.29 | X-H torsion
[ 10718 10713 10712 10709 ] final  -59.63 input   66.30 | X-H torsion
[ 10763 10752 10751 10750 ] final -150.39 input  -60.55 | X-H torsion
[ 11005 11000 10999 10996 ] final -144.78 input  -57.11 | X-H torsion

> <Gold.Protein.ActiveResidues>
 VAL166  LYS551  ARG553  GLY616  TRP617  ASP618  TYR619  PRO620  LYS621  CYS622 
 ASP623  PHE694  ASN695  SER759  ASP760  ASP761  ALA762  ILE779  LEU786  VAL792 
 PHE793  MET794  SER795  GLU796  ALA797  LYS798  CYS799  TRP800  GLU811  SER814 

> <Gold.Protein.RotatedAtoms>
  152.3318  134.7249  160.0287 H   0  0  0  0  0  0  0  0  0  0  0  0  # atno 6907 bound_to 6896
  151.7663  133.3332  159.3440 H   0  0  0  0  0  0  0  0  0  0  0  0  # atno 6908 bound_to 6896
  150.7427  134.5991  159.6072 H   0  0  0  0  0  0  0  0  0  0  0  0  # atno 6909 bound_to 6896
  145.9335  140.7727  142.9587 H   0  0  0  0  0  0  0  0  0  0  0  0  # atno 7974 bound_to 7965
  154.8386  140.2911  155.5674 H   0  0  0  0  0  0  0  0  0  0  0  0  # atno 8008 bound_to 7997
  156.3010  140.2518  156.3256 H   0  0  0  0  0  0  0  0  0  0  0  0  # atno 8009 bound_to 7997
  154.9151  140.0387  157.1956 H   0  0  0  0  0  0  0  0  0  0  0  0  # atno 8010 bound_to 7997
  140.6526  143.7506  150.7600 H   0  0  0  0  0  0  0  0  0  0  0  0  # atno 10167 bound_to 10162
  156.1048  130.4182  150.0742 H   0  0  0  0  0  0  0  0  0  0  0  0  # atno 10718 bound_to 10713
  154.8121  135.3285  154.7275 H   0  0  0  0  0  0  0  0  0  0  0  0  # atno 10763 bound_to 10752
  153.7923  135.6910  153.4874 H   0  0  0  0  0  0  0  0  0  0  0  0  # atno 10764 bound_to 10752
  153.1909  135.4551  155.0094 H   0  0  0  0  0  0  0  0  0  0  0  0  # atno 10765 bound_to 10752
  140.7990  134.2880  157.4986 H   0  0  0  0  0  0  0  0  0  0  0  0  # atno 11005 bound_to 11000
  144.6768  140.2166  143.7371 LP  0  0  0  0  0  0  0  0  0  0  0  0  # atno 17320 bound_to 7965
  145.8394  139.2123  143.1836 LP  0  0  0  0  0  0  0  0  0  0  0  0  # atno 17321 bound_to 7965
  140.1160  143.4655  152.2342 LP  0  0  0  0  0  0  0  0  0  0  0  0  # atno 17342 bound_to 10162
  139.5744  144.7479  151.3805 LP  0  0  0  0  0  0  0  0  0  0  0  0  # atno 17343 bound_to 10162
  156.8720  130.9527  151.3608 LP  0  0  0  0  0  0  0  0  0  0  0  0  # atno 17370 bound_to 10713
  157.6223  130.8664  149.9130 LP  0  0  0  0  0  0  0  0  0  0  0  0  # atno 17371 bound_to 10713
  139.8723  134.9418  156.3808 LP  0  0  0  0  0  0  0  0  0  0  0  0  # atno 17394 bound_to 11000
  140.9314  133.7576  156.0030 LP  0  0  0  0  0  0  0  0  0  0  0  0  # atno 17395 bound_to 11000

$$$$
