AV-unprocessed.smi:290|AV-procd|sdf|2231|dock5
  -GOLD-   2262022 93D 1   1.00000     0.00000
 Structure written by MMmdl.
 59 62  0  0  0  0  0  0  0  0  2 V2000
  153.1682  142.9268  160.0291 C   0  0  0  0  0  0  0  0  0  0  0  0
  152.1117  143.8478  159.4073 C   0  0  2  0  0  0  0  0  0  0  0  0
  151.1181  144.1215  160.3871 O   0  0  0  0  0  0  0  0  0  0  0  0
  149.9675  144.5862  159.7092 C   0  0  0  0  0  0  0  0  0  0  0  0
  149.8720  143.6065  158.5501 C   0  0  0  0  0  0  0  0  0  0  0  0
  151.3288  143.3478  158.1545 C   0  0  1  0  0  0  0  0  0  0  0  0
  151.6330  144.2229  157.0830 O   0  0  0  0  0  0  0  0  0  0  0  0
  151.5050  141.8668  157.7022 C   0  0  0  0  0  0  0  0  0  0  0  0
  150.4944  141.3494  156.7865 N   0  0  0  0  0  0  0  0  0  0  0  0
  150.1489  141.8643  155.5586 C   0  0  0  0  0  0  0  0  0  0  0  0
  149.2246  141.2047  154.9177 N   0  0  0  0  0  0  0  0  0  0  0  0
  148.9359  140.1200  155.7388 C   0  0  0  0  0  0  0  0  0  0  0  0
  148.0499  139.0019  155.6576 C   0  0  0  0  0  0  0  0  0  0  0  0
  147.2031  138.7325  154.6276 N   0  0  0  0  0  0  0  0  0  0  0  0
  147.2232  139.5600  153.4325 C   0  0  0  0  0  0  0  0  0  0  0  0
  146.9345  138.6005  152.2860 C   0  0  0  0  0  0  0  0  0  0  0  0
  146.0512  137.5126  152.9175 C   0  0  1  0  0  0  0  0  0  0  0  0
  146.0999  136.2381  152.1372 N   0  3  1  0  0  0  0  0  0  0  0  0
  145.8618  135.0116  152.9371 C   0  0  0  0  0  0  0  0  0  0  0  0
  145.2394  136.2661  150.9229 C   0  0  0  0  0  0  0  0  0  0  0  0
  145.0778  134.8686  150.3029 C   0  0  0  0  0  0  0  0  0  0  0  0
  144.3101  134.9540  149.1207 O   0  0  0  0  0  0  0  0  0  0  0  0
  146.6073  137.4255  154.3635 C   0  0  2  0  0  0  0  0  0  0  0  0
  145.5223  137.1137  155.4177 C   0  0  0  0  0  0  0  0  0  0  0  0
  148.0603  138.1267  156.6971 N   0  0  0  0  0  0  0  0  0  0  0  0
  148.8764  138.3130  157.7370 C   0  0  0  0  0  0  0  0  0  0  0  0
  149.7494  139.2985  157.9431 N   0  0  0  0  0  0  0  0  0  0  0  0
  149.7385  140.1946  156.9153 C   0  0  0  0  0  0  0  0  0  0  0  0
  145.0219  137.8745  152.9524 H   0  0  0  0  0  0  0  0  0  0  0  0
  147.4013  136.6801  154.3887 H   0  0  0  0  0  0  0  0  0  0  0  0
  154.0148  142.7947  159.3578 H   0  0  0  0  0  0  0  0  0  0  0  0
  152.7601  141.9495  160.2848 H   0  0  0  0  0  0  0  0  0  0  0  0
  153.5598  143.3644  160.9476 H   0  0  0  0  0  0  0  0  0  0  0  0
  152.5923  144.8035  159.1878 H   0  0  0  0  0  0  0  0  0  0  0  0
  149.0856  144.5719  160.3497 H   0  0  0  0  0  0  0  0  0  0  0  0
  150.1263  145.6059  159.3545 H   0  0  0  0  0  0  0  0  0  0  0  0
  149.4126  142.6872  158.9164 H   0  0  0  0  0  0  0  0  0  0  0  0
  149.2497  143.9751  157.7333 H   0  0  0  0  0  0  0  0  0  0  0  0
  152.0459  144.9969  157.4350 H   0  0  0  0  0  0  0  0  0  0  0  0
  152.4911  141.7128  157.2633 H   0  0  0  0  0  0  0  0  0  0  0  0
  151.4804  141.2236  158.5831 H   0  0  0  0  0  0  0  0  0  0  0  0
  150.6035  142.7534  155.1469 H   0  0  0  0  0  0  0  0  0  0  0  0
  146.4404  140.3148  153.5143 H   0  0  0  0  0  0  0  0  0  0  0  0
  148.1767  140.0689  153.2847 H   0  0  0  0  0  0  0  0  0  0  0  0
  146.4691  139.1112  151.4433 H   0  0  0  0  0  0  0  0  0  0  0  0
  147.8726  138.1652  151.9375 H   0  0  0  0  0  0  0  0  0  0  0  0
  144.8891  135.0495  153.4288 H   0  0  0  0  0  0  0  0  0  0  0  0
  146.6340  134.8712  153.6926 H   0  0  0  0  0  0  0  0  0  0  0  0
  145.8815  134.1209  152.3100 H   0  0  0  0  0  0  0  0  0  0  0  0
  144.2632  136.6804  151.1791 H   0  0  0  0  0  0  0  0  0  0  0  0
  145.6417  136.9304  150.1591 H   0  0  0  0  0  0  0  0  0  0  0  0
  146.0384  134.4032  150.0839 H   0  0  0  0  0  0  0  0  0  0  0  0
  144.5585  134.2119  151.0014 H   0  0  0  0  0  0  0  0  0  0  0  0
  144.8901  135.1371  148.3963 H   0  0  0  0  0  0  0  0  0  0  0  0
  145.0691  136.1353  155.2751 H   0  0  0  0  0  0  0  0  0  0  0  0
  144.7211  137.8525  155.3839 H   0  0  0  0  0  0  0  0  0  0  0  0
  145.9260  137.1271  156.4295 H   0  0  0  0  0  0  0  0  0  0  0  0
  148.8227  137.5647  158.5141 H   0  0  0  0  0  0  0  0  0  0  0  0
  147.0491  136.1717  151.7972 H   0  0  0  0  0  0  0  0  0  0  0  0
  1  2  1  0  0  0  0
  1 31  1  0  0  0  0
  1 32  1  0  0  0  0
  1 33  1  0  0  0  0
  2  6  1  0  0  0  0
  2  3  1  0  0  0  0
  2 34  1  0  0  0  0
  3  4  1  0  0  0  0
  4  5  1  0  0  0  0
  4 35  1  0  0  0  0
  4 36  1  0  0  0  0
  5  6  1  0  0  0  0
  5 37  1  0  0  0  0
  5 38  1  0  0  0  0
  6  7  1  0  0  0  0
  6  8  1  0  0  0  0
  7 39  1  0  0  0  0
  8  9  1  0  0  0  0
  8 40  1  0  0  0  0
  8 41  1  0  0  0  0
  9 28  1  0  0  0  0
  9 10  1  0  0  0  0
 10 11  2  0  0  0  0
 10 42  1  0  0  0  0
 11 12  1  0  0  0  0
 12 28  2  0  0  0  0
 12 13  1  0  0  0  0
 13 14  1  0  0  0  0
 13 25  2  0  0  0  0
 14 23  1  0  0  0  0
 14 15  1  0  0  0  0
 15 16  1  0  0  0  0
 15 43  1  0  0  0  0
 15 44  1  0  0  0  0
 16 17  1  0  0  0  0
 16 45  1  0  0  0  0
 16 46  1  0  0  0  0
 17 29  1  0  0  0  0
 17 18  1  0  0  0  0
 17 23  1  0  0  0  0
 18 19  1  0  0  0  0
 18 20  1  0  0  0  0
 18 59  1  0  0  0  0
 19 47  1  0  0  0  0
 19 48  1  0  0  0  0
 19 49  1  0  0  0  0
 20 21  1  0  0  0  0
 20 50  1  0  0  0  0
 20 51  1  0  0  0  0
 21 22  1  0  0  0  0
 21 52  1  0  0  0  0
 21 53  1  0  0  0  0
 22 54  1  0  0  0  0
 23 30  1  0  0  0  0
 23 24  1  0  0  0  0
 24 55  1  0  0  0  0
 24 56  1  0  0  0  0
 24 57  1  0  0  0  0
 25 26  1  0  0  0  0
 26 27  2  0  0  0  0
 26 58  1  0  0  0  0
 27 28  1  0  0  0  0
M  CHG  1  18   1
M  END
> <s_m_source_file>
AV-unprocessed.smi

> <i_m_source_file_index>
290

> <i_lp_mmshare_version>
43012

> <i_f3d_flags>
0

> <s_epik_input>
W0NIMl0xW0NIMl1PW0NAQEhdKFtDSDNdKVtDQEBdMShbT0hdKVtDSDJdbihbY0hdbjIpYyhjMjMpbltjSF1uYzNONFtDSDJdW0NIMl1bQ0BIXShbQ0BIXTRbQ0gzXSlOKFtDSDNdKVtDSDJdW0NIMl1bT0hd

> <s_epik_cmdline>
J2VwaWtfcHl0aG9uJywgJy1waCcsICc3LjAnLCAnLXRuJywgJzgnLCAnLW1hJywgJzIwMCcsICctbWV0YWxfYmluZGluZycsICctaW1hZScsICc8aW5maWxlLm1hZT4nLCAnLW9tYWUnLCAnPG91dGZpbGUubWFlPic=

> <r_lp_tautomer_probability>
1

> <r_epik_Ionization_Penalty>
0.0036983

> <r_epik_Ionization_Penalty_Charging>
0.0032725

> <r_epik_Ionization_Penalty_Neutral>
0.000425798

> <r_epik_State_Penalty>
-0

> <r_epik_Charging_Adjusted_Penalty>
0.0032725

> <i_epik_Tot_Q>
1

> <i_epik_Tot_abs_Q>
1

> <r_epik_Metal_State_Penalty>
-0

> <b_epik_Metal_Only>
0

> <s_lp_Force_Field>
OPLS_2005

> <r_lp_Energy>
63.0436

> <b_lp_Chiralities_Consistent>
1

> <s_lp_Variant>
AV-unprocessed.smi:290-17

> <Gold.Version>
5.8.1

> <Gold.Id.Protein>
6NUR|6NUR_protein|mol2

> <Gold.PLP.Fitness>
48.4130

> <Gold.PLP.PLP>
-38.7282

> <Gold.PLP.part.hbond>
-3.7700

> <Gold.PLP.part.metal>
0.0000

> <Gold.PLP.part.buried>
-5.7096

> <Gold.PLP.part.nonpolar>
-29.7927

> <Gold.PLP.part.repulsive>
0.2331

> <Gold.PLP.ligand.clash>
0.0000

> <Gold.PLP.ligand.torsion>
0.8735

> <Gold.PLP.Chemscore.Hbond>
3.0000

> <Gold.PLP.Chemscore.CHOScore>
0.6921

> <Gold.PLP.Chemscore.Metal>
0.0000

> <Gold.Chemscore.Hbonds>
donor molecule, donor type, donor heavy atom, donor atom, acceptor molecule, acceptor atom, score
      L1  H    18    59       P1  7948  2.00
      L1  H    22    54       P1  7921  0.88
      L1  C    10    42       P1  8028  0.36

> <Gold.PLP.Chemscore.Internal.Correction>
0.3554

> <Gold.Rescore>
     Score         DG    S(hbond)    S(metal)    S(lipo)     H(rot)  DE(clash)    DE(int)     intcor
     11.30     -14.34       1.98        0.00      92.44       3.35       0.14       2.90       ----

> <Gold.Chemscore.Fitness>
11.2991

> <Gold.Chemscore.DG>
-14.3371

> <Gold.Chemscore.ZeroCoef>
-5.4800

> <Gold.Chemscore.Hbond>
1.9828

> <Gold.Chemscore.Metal>
0.0000

> <Gold.Chemscore.Lipo>
92.4382

> <Gold.Chemscore.Internal_Hbond>
0.0000

> <Gold.Chemscore.DEClash>
0.1356

> <Gold.Chemscore.DEInternal>
2.9024

> <Gold.Chemscore.Rot>
3.3518

> <Gold.Chemscore.Internal.Correction>
   9.000000E+99

> <Gold.Chemscore.Hbonds>
donor molecule, donor type, donor heavy atom, donor atom, acceptor molecule, acceptor atom, score
      L1  H    18    59       P1  7948  0.99
      L1  H    22    54       P1  7921  0.82

> <Gold.Chemscore.Hbond.Weighted>
-6.6224

> <Gold.Chemscore.Metal.Weighted>
-0.0000

> <Gold.Chemscore.Lipo.Weighted>
-10.8153

> <Gold.Chemscore.Internal_Hbond.Weighted>
0.0000

> <Gold.Chemscore.DEClash.Weighted>
0.1356

> <Gold.Chemscore.DEInternal.Weighted>
2.9024

> <Gold.Chemscore.Rot.Weighted>
8.5806

> <Gold.Chemscore.Internal.Correction.Weighted>
   9.000000E+99

> <Gold.Protein.RotatedTorsions>
[ 6907 6896 6895 6894 ] final   38.76 input  -60.11 | X-H torsion
[ 7974 7965 7964 7962 ] final  158.94 input  175.53 | X-H torsion
[ 8008 7997 7996 7995 ] final  -64.17 input   59.86 | X-H torsion
[ 10167 10162 10161 10158 ] final  -52.17 input  -65.29 | X-H torsion
[ 10718 10713 10712 10709 ] final  150.33 input   66.30 | X-H torsion
[ 10763 10752 10751 10750 ] final  152.60 input  -60.55 | X-H torsion
[ 11005 11000 10999 10996 ] final -130.40 input  -57.11 | X-H torsion

> <Gold.Protein.ActiveResidues>
 VAL166  LYS551  ARG553  GLY616  TRP617  ASP618  TYR619  PRO620  LYS621  CYS622 
 ASP623  PHE694  ASN695  SER759  ASP760  ASP761  ALA762  ILE779  LEU786  VAL792 
 PHE793  MET794  SER795  GLU796  ALA797  LYS798  CYS799  TRP800  GLU811  SER814 

> <Gold.Protein.RotatedAtoms>
  152.1607  134.8914  160.0541 H   0  0  0  0  0  0  0  0  0  0  0  0  # atno 6907 bound_to 6896
  151.9911  133.3786  159.4153 H   0  0  0  0  0  0  0  0  0  0  0  0  # atno 6908 bound_to 6896
  150.6887  134.3858  159.5098 H   0  0  0  0  0  0  0  0  0  0  0  0  # atno 6909 bound_to 6896
  144.7818  139.7547  143.6257 H   0  0  0  0  0  0  0  0  0  0  0  0  # atno 7974 bound_to 7965
  154.4596  140.0959  156.6855 H   0  0  0  0  0  0  0  0  0  0  0  0  # atno 8008 bound_to 7997
  155.5034  140.3474  155.4357 H   0  0  0  0  0  0  0  0  0  0  0  0  # atno 8009 bound_to 7997
  156.0845  140.1381  156.9660 H   0  0  0  0  0  0  0  0  0  0  0  0  # atno 8010 bound_to 7997
  140.6551  143.2593  151.4609 H   0  0  0  0  0  0  0  0  0  0  0  0  # atno 10167 bound_to 10162
  157.2848  131.0842  151.1505 H   0  0  0  0  0  0  0  0  0  0  0  0  # atno 10718 bound_to 10713
  154.1226  135.2832  155.3204 H   0  0  0  0  0  0  0  0  0  0  0  0  # atno 10763 bound_to 10752
  154.6412  135.5402  153.7795 H   0  0  0  0  0  0  0  0  0  0  0  0  # atno 10764 bound_to 10752
  153.0307  135.6487  154.1380 H   0  0  0  0  0  0  0  0  0  0  0  0  # atno 10765 bound_to 10752
  140.9349  134.1271  157.4202 H   0  0  0  0  0  0  0  0  0  0  0  0  # atno 11005 bound_to 11000
  146.2030  139.5336  142.9731 LP  0  0  0  0  0  0  0  0  0  0  0  0  # atno 17320 bound_to 7965
  145.6030  141.0352  143.2008 LP  0  0  0  0  0  0  0  0  0  0  0  0  # atno 17321 bound_to 7965
  139.5772  144.1791  152.1920 LP  0  0  0  0  0  0  0  0  0  0  0  0  # atno 17342 bound_to 10162
  140.1105  144.5461  150.6928 LP  0  0  0  0  0  0  0  0  0  0  0  0  # atno 17343 bound_to 10162
  157.2925  130.6803  149.6121 LP  0  0  0  0  0  0  0  0  0  0  0  0  # atno 17370 bound_to 10713
  155.9665  130.4416  150.5348 LP  0  0  0  0  0  0  0  0  0  0  0  0  # atno 17371 bound_to 10713
  139.8805  135.0017  156.6085 LP  0  0  0  0  0  0  0  0  0  0  0  0  # atno 17394 bound_to 11000
  140.7813  133.8658  155.8570 LP  0  0  0  0  0  0  0  0  0  0  0  0  # atno 17395 bound_to 11000

$$$$
