AV-unprocessed.smi:1868|AV-procd|sdf|7587|dock6
  -GOLD-   22720 9303D 1   1.00000     0.00000
 Structure written by MMmdl.
 47 49  0  0  0  0  0  0  0  0  2 V2000
  146.4612  142.6824  154.1149 C   0  0  0  0  0  0  0  0  0  0  0  0
  147.6882  141.9087  154.4794 C   0  0  0  0  0  0  0  0  0  0  0  0
  148.4761  142.2629  155.4944 N   0  0  0  0  0  0  0  0  0  0  0  0
  149.4539  141.2869  155.4743 C   0  0  0  0  0  0  0  0  0  0  0  0
  150.5824  141.0999  156.3041 C   0  0  0  0  0  0  0  0  0  0  0  0
  151.4550  140.0134  156.0879 C   0  0  0  0  0  0  0  0  0  0  0  0
  151.2127  139.1006  155.0410 C   0  0  0  0  0  0  0  0  0  0  0  0
  150.0938  139.2680  154.2027 C   0  0  0  0  0  0  0  0  0  0  0  0
  149.2253  140.3538  154.4231 C   0  0  0  0  0  0  0  0  0  0  0  0
  148.0646  140.7992  153.7971 N   0  0  0  0  0  0  0  0  0  0  0  0
  147.4050  140.1843  152.6527 C   0  0  0  0  0  0  0  0  0  0  0  0
  146.7360  138.8394  153.0005 C   0  0  1  0  0  0  0  0  0  0  0  0
  145.6459  139.0664  153.8732 O   0  0  0  0  0  0  0  0  0  0  0  0
  146.2137  138.1225  151.7397 C   0  0  0  0  0  0  0  0  0  0  0  0
  146.2631  136.6421  151.8571 N   0  3  2  0  0  0  0  0  0  0  0  0
  145.6871  135.9359  150.6819 C   0  0  0  0  0  0  0  0  0  0  0  0
  145.8842  134.4134  150.7965 C   0  0  0  0  0  0  0  0  0  0  0  0
  145.3049  133.8464  152.1055 C   0  0  2  0  0  0  0  0  0  0  0  0
  143.7673  133.7843  152.0988 C   0  0  0  0  0  0  0  0  0  0  0  0
  145.8643  134.6422  153.2983 C   0  0  0  0  0  0  0  0  0  0  0  0
  145.6683  136.1594  153.1298 C   0  0  0  0  0  0  0  0  0  0  0  0
  146.3634  143.5641  154.7493 H   0  0  0  0  0  0  0  0  0  0  0  0
  145.5730  142.0647  154.2486 H   0  0  0  0  0  0  0  0  0  0  0  0
  146.5117  143.0116  153.0772 H   0  0  0  0  0  0  0  0  0  0  0  0
  150.7767  141.7934  157.1088 H   0  0  0  0  0  0  0  0  0  0  0  0
  152.3144  139.8798  156.7286 H   0  0  0  0  0  0  0  0  0  0  0  0
  151.8866  138.2713  154.8824 H   0  0  0  0  0  0  0  0  0  0  0  0
  149.9073  138.5702  153.4000 H   0  0  0  0  0  0  0  0  0  0  0  0
  146.6660  140.8856  152.2624 H   0  0  0  0  0  0  0  0  0  0  0  0
  148.1376  140.0479  151.8568 H   0  0  0  0  0  0  0  0  0  0  0  0
  147.4605  138.2148  153.5210 H   0  0  0  0  0  0  0  0  0  0  0  0
  145.0774  139.7134  153.4824 H   0  0  0  0  0  0  0  0  0  0  0  0
  145.1848  138.4428  151.5671 H   0  0  0  0  0  0  0  0  0  0  0  0
  146.7788  138.4328  150.8594 H   0  0  0  0  0  0  0  0  0  0  0  0
  144.6273  136.1777  150.5923 H   0  0  0  0  0  0  0  0  0  0  0  0
  146.1612  136.2793  149.7633 H   0  0  0  0  0  0  0  0  0  0  0  0
  145.4374  133.9117  149.9374 H   0  0  0  0  0  0  0  0  0  0  0  0
  146.9516  134.1919  150.7528 H   0  0  0  0  0  0  0  0  0  0  0  0
  145.6543  132.8175  152.2032 H   0  0  0  0  0  0  0  0  0  0  0  0
  143.3151  134.7709  152.0026 H   0  0  0  0  0  0  0  0  0  0  0  0
  143.3906  133.3387  153.0199 H   0  0  0  0  0  0  0  0  0  0  0  0
  143.4055  133.1742  151.2706 H   0  0  0  0  0  0  0  0  0  0  0  0
  145.4033  134.3056  154.2276 H   0  0  0  0  0  0  0  0  0  0  0  0
  146.9305  134.4336  153.3988 H   0  0  0  0  0  0  0  0  0  0  0  0
  146.1381  136.6699  153.9716 H   0  0  0  0  0  0  0  0  0  0  0  0
  144.6085  136.4158  153.1598 H   0  0  0  0  0  0  0  0  0  0  0  0
  147.2431  136.3989  151.8971 H   0  0  0  0  0  0  0  0  0  0  0  0
  1  2  1  0  0  0  0
  1 22  1  0  0  0  0
  1 23  1  0  0  0  0
  1 24  1  0  0  0  0
  2 10  1  0  0  0  0
  2  3  2  0  0  0  0
  3  4  1  0  0  0  0
  4  9  2  0  0  0  0
  4  5  1  0  0  0  0
  5  6  2  0  0  0  0
  5 25  1  0  0  0  0
  6  7  1  0  0  0  0
  6 26  1  0  0  0  0
  7  8  2  0  0  0  0
  7 27  1  0  0  0  0
  8  9  1  0  0  0  0
  8 28  1  0  0  0  0
  9 10  1  0  0  0  0
 10 11  1  0  0  0  0
 11 12  1  0  0  0  0
 11 29  1  0  0  0  0
 11 30  1  0  0  0  0
 12 13  1  0  0  0  0
 12 14  1  0  0  0  0
 12 31  1  0  0  0  0
 13 32  1  0  0  0  0
 14 15  1  0  0  0  0
 14 33  1  0  0  0  0
 14 34  1  0  0  0  0
 15 21  1  0  0  0  0
 15 16  1  0  0  0  0
 15 47  1  0  0  0  0
 16 17  1  0  0  0  0
 16 35  1  0  0  0  0
 16 36  1  0  0  0  0
 17 18  1  0  0  0  0
 17 37  1  0  0  0  0
 17 38  1  0  0  0  0
 18 19  1  0  0  0  0
 18 20  1  0  0  0  0
 18 39  1  0  0  0  0
 19 40  1  0  0  0  0
 19 41  1  0  0  0  0
 19 42  1  0  0  0  0
 20 21  1  0  0  0  0
 20 43  1  0  0  0  0
 20 44  1  0  0  0  0
 21 45  1  0  0  0  0
 21 46  1  0  0  0  0
M  CHG  1  15   1
M  END
> <s_m_source_file>
AV-unprocessed.smi

> <i_m_source_file_index>
1868

> <i_lp_mmshare_version>
43012

> <i_f3d_flags>
0

> <s_epik_input>
W2NIXTFbY0hdW2NIXVtjSF1jKGMxMiluKGMobjIpW0NIM10pW0NIMl1bQ0BIXShbT0hdKVtDSDJdTjNbQ0gyXVtDSDJdW0NIXShbQ0gzXSlbQ0gyXVtDSDJdMw==

> <s_epik_cmdline>
J2VwaWtfcHl0aG9uJywgJy1waCcsICc3LjAnLCAnLXRuJywgJzgnLCAnLW1hJywgJzIwMCcsICctbWV0YWxfYmluZGluZycsICctaW1hZScsICc8aW5maWxlLm1hZT4nLCAnLW9tYWUnLCAnPG91dGZpbGUubWFlPic=

> <r_epik_Ionization_Penalty>
0.101157

> <r_epik_Ionization_Penalty_Charging>
0.00181365

> <r_epik_Ionization_Penalty_Neutral>
0.0993436

> <r_epik_State_Penalty>
0.0871902

> <r_epik_Charging_Adjusted_Penalty>
0.0890039

> <i_epik_Tot_Q>
1

> <i_epik_Tot_abs_Q>
1

> <r_epik_Metal_State_Penalty>
9.24346e-05

> <b_epik_Metal_Only>
0

> <s_lp_Force_Field>
OPLS_2005

> <r_lp_Energy>
23.8168

> <b_lp_Chiralities_Consistent>
1

> <s_lp_Variant>
AV-unprocessed.smi:1868-4

> <Gold.Version>
5.8.1

> <Gold.Id.Protein>
6NUR|6NUR_protein|mol2

> <Gold.PLP.Fitness>
47.2443

> <Gold.PLP.PLP>
-39.3429

> <Gold.PLP.part.hbond>
-2.0000

> <Gold.PLP.part.metal>
0.0000

> <Gold.PLP.part.buried>
2.5437

> <Gold.PLP.part.nonpolar>
-43.8399

> <Gold.PLP.part.repulsive>
4.2043

> <Gold.PLP.ligand.clash>
0.0000

> <Gold.PLP.ligand.torsion>
0.5659

> <Gold.PLP.Chemscore.Hbond>
3.0000

> <Gold.PLP.Chemscore.CHOScore>
0.0000

> <Gold.PLP.Chemscore.Metal>
0.0000

> <Gold.Chemscore.Hbonds>
donor molecule, donor type, donor heavy atom, donor atom, acceptor molecule, acceptor atom, score
      L1  H    13    32       P1 10175  1.00
      L1  H    15    47       P1  7948  2.00

> <Gold.PLP.Chemscore.Internal.Correction>
0.0331

> <Gold.Rescore>
     Score         DG    S(hbond)    S(metal)    S(lipo)     H(rot)  DE(clash)    DE(int)     intcor
     15.34     -19.49       2.00        0.00     104.64       1.92       3.54       0.61       ----

> <Gold.Chemscore.Fitness>
15.3361

> <Gold.Chemscore.DG>
-19.4860

> <Gold.Chemscore.ZeroCoef>
-5.4800

> <Gold.Chemscore.Hbond>
1.9992

> <Gold.Chemscore.Metal>
0.0000

> <Gold.Chemscore.Lipo>
104.6437

> <Gold.Chemscore.Internal_Hbond>
0.0000

> <Gold.Chemscore.DEClash>
3.5439

> <Gold.Chemscore.DEInternal>
0.6059

> <Gold.Chemscore.Rot>
1.9198

> <Gold.Chemscore.Internal.Correction>
   9.000000E+99

> <Gold.Chemscore.Hbonds>
donor molecule, donor type, donor heavy atom, donor atom, acceptor molecule, acceptor atom, score
      L1  H    13    32       P1 10175  1.00
      L1  H    15    47       P1  7948  1.00

> <Gold.Chemscore.Hbond.Weighted>
-6.6774

> <Gold.Chemscore.Metal.Weighted>
-0.0000

> <Gold.Chemscore.Lipo.Weighted>
-12.2433

> <Gold.Chemscore.Internal_Hbond.Weighted>
0.0000

> <Gold.Chemscore.DEClash.Weighted>
3.5439

> <Gold.Chemscore.DEInternal.Weighted>
0.6059

> <Gold.Chemscore.Rot.Weighted>
4.9147

> <Gold.Chemscore.Internal.Correction.Weighted>
   9.000000E+99

> <Gold.Protein.RotatedTorsions>
[ 6907 6896 6895 6894 ] final  -22.87 input  -60.11 | X-H torsion
[ 7974 7965 7964 7962 ] final  140.03 input  175.53 | X-H torsion
[ 8008 7997 7996 7995 ] final   27.78 input   59.86 | X-H torsion
[ 10167 10162 10161 10158 ] final  -96.52 input  -65.29 | X-H torsion
[ 10718 10713 10712 10709 ] final   69.68 input   66.30 | X-H torsion
[ 10763 10752 10751 10750 ] final   94.51 input  -60.55 | X-H torsion
[ 11005 11000 10999 10996 ] final    3.03 input  -57.11 | X-H torsion

> <Gold.Protein.ActiveResidues>
 VAL166  LYS551  ARG553  GLY616  TRP617  ASP618  TYR619  PRO620  LYS621  CYS622 
 ASP623  PHE694  ASN695  SER759  ASP760  ASP761  ALA762  ILE779  LEU786  VAL792 
 PHE793  MET794  SER795  GLU796  ALA797  LYS798  CYS799  TRP800  GLU811  SER814 

> <Gold.Protein.RotatedAtoms>
  151.2123  135.0486  159.8915 H   0  0  0  0  0  0  0  0  0  0  0  0  # atno 6907 bound_to 6896
  152.5423  134.0731  159.8213 H   0  0  0  0  0  0  0  0  0  0  0  0  # atno 6908 bound_to 6896
  151.0886  133.5285  159.2648 H   0  0  0  0  0  0  0  0  0  0  0  0  # atno 6909 bound_to 6896
  144.9224  139.5151  143.5657 H   0  0  0  0  0  0  0  0  0  0  0  0  # atno 7974 bound_to 7965
  155.0482  140.3177  155.4701 H   0  0  0  0  0  0  0  0  0  0  0  0  # atno 8008 bound_to 7997
  156.2840  140.2150  156.5551 H   0  0  0  0  0  0  0  0  0  0  0  0  # atno 8009 bound_to 7997
  154.7232  140.0487  157.0647 H   0  0  0  0  0  0  0  0  0  0  0  0  # atno 8010 bound_to 7997
  140.2929  143.3210  152.0327 H   0  0  0  0  0  0  0  0  0  0  0  0  # atno 10167 bound_to 10162
  157.6359  130.9438  150.0547 H   0  0  0  0  0  0  0  0  0  0  0  0  # atno 10718 bound_to 10713
  153.2425  135.4287  155.0712 H   0  0  0  0  0  0  0  0  0  0  0  0  # atno 10763 bound_to 10752
  154.8346  135.3406  154.6629 H   0  0  0  0  0  0  0  0  0  0  0  0  # atno 10764 bound_to 10752
  153.7053  135.7026  153.5108 H   0  0  0  0  0  0  0  0  0  0  0  0  # atno 10765 bound_to 10752
  140.5976  133.9866  155.8117 H   0  0  0  0  0  0  0  0  0  0  0  0  # atno 11005 bound_to 11000
  146.3210  139.8113  142.8945 LP  0  0  0  0  0  0  0  0  0  0  0  0  # atno 17320 bound_to 7965
  145.3275  141.0258  143.3465 LP  0  0  0  0  0  0  0  0  0  0  0  0  # atno 17321 bound_to 7965
  139.4933  144.6512  151.6672 LP  0  0  0  0  0  0  0  0  0  0  0  0  # atno 17342 bound_to 10162
  140.5717  144.0098  150.6220 LP  0  0  0  0  0  0  0  0  0  0  0  0  # atno 17343 bound_to 10162
  156.1598  130.3643  149.9316 LP  0  0  0  0  0  0  0  0  0  0  0  0  # atno 17370 bound_to 10713
  156.7317  130.9046  151.3626 LP  0  0  0  0  0  0  0  0  0  0  0  0  # atno 17371 bound_to 10713
  141.0893  133.9941  157.3262 LP  0  0  0  0  0  0  0  0  0  0  0  0  # atno 17394 bound_to 11000
  139.9246  135.0201  156.8189 LP  0  0  0  0  0  0  0  0  0  0  0  0  # atno 17395 bound_to 11000

$$$$
