AV-unprocessed.smi:1273|AV-procd|sdf|5338|dock8
  -GOLD-   22720 4473D 1   1.00000     0.00000
 Structure written by MMmdl.
 40 41  0  0  0  0  0  0  0  0  1 V2000
  156.7505  135.8550  162.1410 C   0  0  0  0  0  0  0  0  0  0  0  0
  155.2326  135.6529  162.2771 C   0  0  2  0  0  0  0  0  0  0  0  0
  154.4451  136.6558  161.4226 C   0  0  0  0  0  0  0  0  0  0  0  0
  153.7358  136.2520  160.5017 O   0  0  0  0  0  0  0  0  0  0  0  0
  154.6081  137.9524  161.7472 N   0  0  0  0  0  0  0  0  0  0  0  0
  154.0273  139.0995  161.1428 C   0  0  0  0  0  0  0  0  0  0  0  0
  154.2889  140.3553  161.7235 C   0  0  0  0  0  0  0  0  0  0  0  0
  153.7123  141.5092  161.1600 C   0  0  0  0  0  0  0  0  0  0  0  0
  152.8775  141.3795  160.0251 C   0  0  0  0  0  0  0  0  0  0  0  0
  152.2893  142.5221  159.4395 N   0  0  0  0  0  0  0  0  0  0  0  0
  151.1909  142.3206  158.4956 C   0  0  0  0  0  0  0  0  0  0  0  0
  150.4917  143.6564  158.1924 C   0  0  0  0  0  0  0  0  0  0  0  0
  151.4477  144.6036  157.7286 O   0  0  0  0  0  0  0  0  0  0  0  0
  152.4461  144.8692  158.7080 C   0  0  0  0  0  0  0  0  0  0  0  0
  153.2151  143.5770  159.0332 C   0  0  0  0  0  0  0  0  0  0  0  0
  152.6099  140.1677  159.4793 N   0  0  0  0  0  0  0  0  0  0  0  0
  153.1658  139.0636  160.0211 C   0  0  0  0  0  0  0  0  0  0  0  0
  154.7329  135.8025  164.0567 S   0  0  0  0  0  0  0  0  0  0  0  0
  154.0317  134.1414  164.4366 C   0  0  0  0  0  0  0  0  0  0  0  0
  155.9541  135.9788  164.8578 O   0  0  0  0  0  0  0  0  0  0  0  0
  153.6495  136.7912  164.1693 O   0  0  0  0  0  0  0  0  0  0  0  0
  157.0667  135.8009  161.0986 H   0  0  0  0  0  0  0  0  0  0  0  0
  157.2941  135.0849  162.6884 H   0  0  0  0  0  0  0  0  0  0  0  0
  157.0639  136.8217  162.5370 H   0  0  0  0  0  0  0  0  0  0  0  0
  154.9884  134.6382  161.9601 H   0  0  0  0  0  0  0  0  0  0  0  0
  155.2772  138.1436  162.4787 H   0  0  0  0  0  0  0  0  0  0  0  0
  154.9249  140.4385  162.5928 H   0  0  0  0  0  0  0  0  0  0  0  0
  153.9036  142.4707  161.6125 H   0  0  0  0  0  0  0  0  0  0  0  0
  151.5815  141.8861  157.5744 H   0  0  0  0  0  0  0  0  0  0  0  0
  150.4631  141.6189  158.9051 H   0  0  0  0  0  0  0  0  0  0  0  0
  149.7299  143.5156  157.4256 H   0  0  0  0  0  0  0  0  0  0  0  0
  149.9840  144.0396  159.0791 H   0  0  0  0  0  0  0  0  0  0  0  0
  153.1298  145.6250  158.3210 H   0  0  0  0  0  0  0  0  0  0  0  0
  151.9879  145.2852  159.6067 H   0  0  0  0  0  0  0  0  0  0  0  0
  153.9518  143.7904  159.8061 H   0  0  0  0  0  0  0  0  0  0  0  0
  153.7664  143.2408  158.1542 H   0  0  0  0  0  0  0  0  0  0  0  0
  152.8832  138.1388  159.5434 H   0  0  0  0  0  0  0  0  0  0  0  0
  153.7841  134.0910  165.4968 H   0  0  0  0  0  0  0  0  0  0  0  0
  154.7654  133.3708  164.2011 H   0  0  0  0  0  0  0  0  0  0  0  0
  153.1259  133.9773  163.8533 H   0  0  0  0  0  0  0  0  0  0  0  0
  1  2  1  0  0  0  0
  1 22  1  0  0  0  0
  1 23  1  0  0  0  0
  1 24  1  0  0  0  0
  2  3  1  0  0  0  0
  2 18  1  0  0  0  0
  2 25  1  0  0  0  0
  3  4  2  0  0  0  0
  3  5  1  0  0  0  0
  5  6  1  0  0  0  0
  5 26  1  0  0  0  0
  6 17  1  0  0  0  0
  6  7  2  0  0  0  0
  7  8  1  0  0  0  0
  7 27  1  0  0  0  0
  8  9  2  0  0  0  0
  8 28  1  0  0  0  0
  9 10  1  0  0  0  0
  9 16  1  0  0  0  0
 10 15  1  0  0  0  0
 10 11  1  0  0  0  0
 11 12  1  0  0  0  0
 11 29  1  0  0  0  0
 11 30  1  0  0  0  0
 12 13  1  0  0  0  0
 12 31  1  0  0  0  0
 12 32  1  0  0  0  0
 13 14  1  0  0  0  0
 14 15  1  0  0  0  0
 14 33  1  0  0  0  0
 14 34  1  0  0  0  0
 15 35  1  0  0  0  0
 15 36  1  0  0  0  0
 16 17  2  0  0  0  0
 17 37  1  0  0  0  0
 18 19  1  0  0  0  0
 18 20  2  0  0  0  0
 18 21  2  0  0  0  0
 19 38  1  0  0  0  0
 19 39  1  0  0  0  0
 19 40  1  0  0  0  0
M  END
> <s_m_source_file>
AV-unprocessed.smi

> <i_m_source_file_index>
1273

> <i_lp_mmshare_version>
43012

> <i_f3d_flags>
0

> <s_epik_input>
W0NIM11TKD1PKSg9TylbQ0BIXShbQ0gzXSlDKD1PKVtOSF1jMVtjSF1bY0hdYyhuW2NIXTEpTjJbQ0gyXVtDSDJdT1tDSDJdW0NIMl0y

> <s_epik_cmdline>
J2VwaWtfcHl0aG9uJywgJy1waCcsICc3LjAnLCAnLXRuJywgJzgnLCAnLW1hJywgJzIwMCcsICctbWV0YWxfYmluZGluZycsICctaW1hZScsICc8aW5maWxlLm1hZT4nLCAnLW9tYWUnLCAnPG91dGZpbGUubWFlPic=

> <r_lp_tautomer_probability>
1

> <r_epik_Ionization_Penalty>
0.000253983

> <r_epik_Ionization_Penalty_Charging>
0

> <r_epik_Ionization_Penalty_Neutral>
0.000253983

> <r_epik_State_Penalty>
-0

> <r_epik_Charging_Adjusted_Penalty>
0

> <i_epik_Tot_Q>
0

> <i_epik_Tot_abs_Q>
0

> <r_epik_Metal_State_Penalty>
-0

> <b_epik_Metal_Only>
0

> <s_lp_Force_Field>
OPLS_2005

> <r_lp_Energy>
19.002

> <b_lp_Chiralities_Consistent>
1

> <s_lp_Variant>
AV-unprocessed.smi:1273-1

> <Gold.Version>
5.8.1

> <Gold.Id.Protein>
6NUR|6NUR_protein|mol2

> <Gold.PLP.Fitness>
38.3731

> <Gold.PLP.PLP>
-35.4404

> <Gold.PLP.part.hbond>
-1.0000

> <Gold.PLP.part.metal>
0.0000

> <Gold.PLP.part.buried>
-5.8395

> <Gold.PLP.part.nonpolar>
-28.9603

> <Gold.PLP.part.repulsive>
0.3037

> <Gold.PLP.ligand.clash>
0.0000

> <Gold.PLP.ligand.torsion>
0.2797

> <Gold.PLP.Chemscore.Hbond>
1.0000

> <Gold.PLP.Chemscore.CHOScore>
0.0000

> <Gold.PLP.Chemscore.Metal>
0.0000

> <Gold.Chemscore.Hbonds>
donor molecule, donor type, donor heavy atom, donor atom, acceptor molecule, acceptor atom, score
      P1  H  6896  6908       L1     4  0.89

> <Gold.PLP.Chemscore.Internal.Correction>
0.4921

> <Gold.Rescore>
     Score         DG    S(hbond)    S(metal)    S(lipo)     H(rot)  DE(clash)    DE(int)     intcor
     13.46     -15.23       0.99        0.00      89.44       1.56       0.04       1.73       ----

> <Gold.Chemscore.Fitness>
13.4638

> <Gold.Chemscore.DG>
-15.2347

> <Gold.Chemscore.ZeroCoef>
-5.4800

> <Gold.Chemscore.Hbond>
0.9850

> <Gold.Chemscore.Metal>
0.0000

> <Gold.Chemscore.Lipo>
89.4383

> <Gold.Chemscore.Internal_Hbond>
0.0000

> <Gold.Chemscore.DEClash>
0.0376

> <Gold.Chemscore.DEInternal>
1.7333

> <Gold.Chemscore.Rot>
1.5624

> <Gold.Chemscore.Internal.Correction>
   9.000000E+99

> <Gold.Chemscore.Hbonds>
donor molecule, donor type, donor heavy atom, donor atom, acceptor molecule, acceptor atom, score
      P1  H  6896  6908       L1     4  0.87

> <Gold.Chemscore.Hbond.Weighted>
-3.2901

> <Gold.Chemscore.Metal.Weighted>
-0.0000

> <Gold.Chemscore.Lipo.Weighted>
-10.4643

> <Gold.Chemscore.Internal_Hbond.Weighted>
0.0000

> <Gold.Chemscore.DEClash.Weighted>
0.0376

> <Gold.Chemscore.DEInternal.Weighted>
1.7333

> <Gold.Chemscore.Rot.Weighted>
3.9996

> <Gold.Chemscore.Internal.Correction.Weighted>
   9.000000E+99

> <Gold.Protein.RotatedTorsions>
[ 6907 6896 6895 6894 ] final  -63.75 input  -60.11 | X-H torsion
[ 7974 7965 7964 7962 ] final   33.27 input  175.53 | X-H torsion
[ 8008 7997 7996 7995 ] final   32.50 input   59.86 | X-H torsion
[ 10167 10162 10161 10158 ] final  -40.35 input  -65.29 | X-H torsion
[ 10718 10713 10712 10709 ] final  138.96 input   66.30 | X-H torsion
[ 10763 10752 10751 10750 ] final -167.00 input  -60.55 | X-H torsion
[ 11005 11000 10999 10996 ] final  138.05 input  -57.11 | X-H torsion

> <Gold.Protein.ActiveResidues>
 VAL166  LYS551  ARG553  GLY616  TRP617  ASP618  TYR619  PRO620  LYS621  CYS622 
 ASP623  PHE694  ASN695  SER759  ASP760  ASP761  ALA762  ILE779  LEU786  VAL792 
 PHE793  MET794  SER795  GLU796  ALA797  LYS798  CYS799  TRP800  GLU811  SER814 

> <Gold.Protein.RotatedAtoms>
  150.7629  134.6392  159.6227 H   0  0  0  0  0  0  0  0  0  0  0  0  # atno 6907 bound_to 6896
  152.3646  134.6820  160.0205 H   0  0  0  0  0  0  0  0  0  0  0  0  # atno 6908 bound_to 6896
  151.7199  133.3278  159.3349 H   0  0  0  0  0  0  0  0  0  0  0  0  # atno 6909 bound_to 6896
  146.1432  139.6419  142.9149 H   0  0  0  0  0  0  0  0  0  0  0  0  # atno 7974 bound_to 7965
  155.1235  140.3250  155.4491 H   0  0  0  0  0  0  0  0  0  0  0  0  # atno 8008 bound_to 7997
  156.2656  140.2023  156.6305 H   0  0  0  0  0  0  0  0  0  0  0  0  # atno 8009 bound_to 7997
  154.6666  140.0541  157.0107 H   0  0  0  0  0  0  0  0  0  0  0  0  # atno 8010 bound_to 7997
  140.7037  143.3159  151.2911 H   0  0  0  0  0  0  0  0  0  0  0  0  # atno 10167 bound_to 10162
  157.4196  131.1037  151.0368 H   0  0  0  0  0  0  0  0  0  0  0  0  # atno 10718 bound_to 10713
  154.6777  135.2949  154.9656 H   0  0  0  0  0  0  0  0  0  0  0  0  # atno 10763 bound_to 10752
  154.0662  135.6624  153.4822 H   0  0  0  0  0  0  0  0  0  0  0  0  # atno 10764 bound_to 10752
  153.0526  135.5164  154.7804 H   0  0  0  0  0  0  0  0  0  0  0  0  # atno 10765 bound_to 10752
  140.0156  134.9419  157.0369 H   0  0  0  0  0  0  0  0  0  0  0  0  # atno 11005 bound_to 11000
  145.4999  141.0437  143.2546 LP  0  0  0  0  0  0  0  0  0  0  0  0  # atno 17320 bound_to 7965
  144.7816  139.6514  143.7152 LP  0  0  0  0  0  0  0  0  0  0  0  0  # atno 17321 bound_to 7965
  139.6597  144.0211  152.2684 LP  0  0  0  0  0  0  0  0  0  0  0  0  # atno 17342 bound_to 10162
  139.9775  144.6451  150.7932 LP  0  0  0  0  0  0  0  0  0  0  0  0  # atno 17343 bound_to 10162
  157.1303  130.6099  149.5528 LP  0  0  0  0  0  0  0  0  0  0  0  0  # atno 17370 bound_to 10713
  155.9876  130.4916  150.7133 LP  0  0  0  0  0  0  0  0  0  0  0  0  # atno 17371 bound_to 10713
  140.4476  134.1615  155.7179 LP  0  0  0  0  0  0  0  0  0  0  0  0  # atno 17394 bound_to 11000
  141.1741  133.8550  157.1479 LP  0  0  0  0  0  0  0  0  0  0  0  0  # atno 17395 bound_to 11000

$$$$
