AV-unprocessed.smi:1535|AV-procd|sdf|6182|dock1
  -GOLD-   22720 6343D 1   1.00000     0.00000
 Structure written by MMmdl.
 47 48  0  0  0  0  0  0  0  0  2 V2000
  152.4560  143.7752  161.9051 C   0  0  0  0  0  0  0  0  0  0  0  0
  151.9860  143.2760  160.5500 C   0  0  0  0  0  0  0  0  0  0  0  0
  152.1222  141.9046  160.2381 C   0  0  0  0  0  0  0  0  0  0  0  0
  151.6964  141.4001  158.9902 C   0  0  0  0  0  0  0  0  0  0  0  0
  151.7316  140.1128  158.4822 N   0  0  0  0  0  0  0  0  0  0  0  0
  151.1942  140.2845  157.2786 C   0  0  0  0  0  0  0  0  0  0  0  0
  150.8196  141.5339  156.9428 N   0  0  0  0  0  0  0  0  0  0  0  0
  150.2217  141.9567  155.6897 C   0  0  0  0  0  0  0  0  0  0  0  0
  149.3494  140.8550  155.0532 C   0  0  2  0  0  0  0  0  0  0  0  0
  150.1156  140.1376  154.1068 O   0  0  0  0  0  0  0  0  0  0  0  0
  148.1136  141.4200  154.3267 C   0  0  0  0  0  0  0  0  0  0  0  0
  147.1981  142.1392  155.2505 N   0  3  2  0  0  0  0  0  0  0  0  0
  147.1206  141.4985  156.5844 C   0  0  0  0  0  0  0  0  0  0  0  0
  145.8517  142.3817  154.6718 C   0  0  0  0  0  0  0  0  0  0  0  0
  145.1798  143.6467  155.2427 C   0  0  1  0  0  0  0  0  0  0  0  0
  143.9254  144.0247  154.4454 C   0  0  0  0  0  0  0  0  0  0  0  0
  144.8624  143.4878  156.6711 C   0  0  0  0  0  0  0  0  0  0  0  0
  144.6180  143.3630  157.7943 N   0  0  0  0  0  0  0  0  0  0  0  0
  151.1292  142.3128  158.0532 C   0  0  0  0  0  0  0  0  0  0  0  0
  150.9899  143.6800  158.3512 C   0  0  0  0  0  0  0  0  0  0  0  0
  151.4163  144.1663  159.6049 C   0  0  0  0  0  0  0  0  0  0  0  0
  151.2542  145.6426  159.9217 C   0  0  0  0  0  0  0  0  0  0  0  0
  152.8775  142.9668  162.5031 H   0  0  0  0  0  0  0  0  0  0  0  0
  151.6242  144.2054  162.4630 H   0  0  0  0  0  0  0  0  0  0  0  0
  153.2254  144.5382  161.7858 H   0  0  0  0  0  0  0  0  0  0  0  0
  152.5556  141.2259  160.9577 H   0  0  0  0  0  0  0  0  0  0  0  0
  151.0685  139.4541  156.5990 H   0  0  0  0  0  0  0  0  0  0  0  0
  149.6254  142.8477  155.8884 H   0  0  0  0  0  0  0  0  0  0  0  0
  151.0155  142.2616  155.0064 H   0  0  0  0  0  0  0  0  0  0  0  0
  149.0411  140.1442  155.8202 H   0  0  0  0  0  0  0  0  0  0  0  0
  149.6390  140.1107  153.2905 H   0  0  0  0  0  0  0  0  0  0  0  0
  148.4556  142.0806  153.5306 H   0  0  0  0  0  0  0  0  0  0  0  0
  147.5621  140.6209  153.8281 H   0  0  0  0  0  0  0  0  0  0  0  0
  146.6586  140.5126  156.5178 H   0  0  0  0  0  0  0  0  0  0  0  0
  146.5293  142.1057  157.2707 H   0  0  0  0  0  0  0  0  0  0  0  0
  148.1095  141.3814  157.0268 H   0  0  0  0  0  0  0  0  0  0  0  0
  145.9261  142.4381  153.5845 H   0  0  0  0  0  0  0  0  0  0  0  0
  145.2073  141.5289  154.8922 H   0  0  0  0  0  0  0  0  0  0  0  0
  145.8690  144.4883  155.1850 H   0  0  0  0  0  0  0  0  0  0  0  0
  143.4740  144.9366  154.8372 H   0  0  0  0  0  0  0  0  0  0  0  0
  143.1735  143.2361  154.4920 H   0  0  0  0  0  0  0  0  0  0  0  0
  144.1630  144.1990  153.3956 H   0  0  0  0  0  0  0  0  0  0  0  0
  150.5571  144.3487  157.6219 H   0  0  0  0  0  0  0  0  0  0  0  0
  150.8044  146.1819  159.0877 H   0  0  0  0  0  0  0  0  0  0  0  0
  152.2223  146.0981  160.1316 H   0  0  0  0  0  0  0  0  0  0  0  0
  150.6116  145.7768  160.7922 H   0  0  0  0  0  0  0  0  0  0  0  0
  147.6000  143.0539  155.4011 H   0  0  0  0  0  0  0  0  0  0  0  0
  1  2  1  0  0  0  0
  1 23  1  0  0  0  0
  1 24  1  0  0  0  0
  1 25  1  0  0  0  0
  2 21  1  0  0  0  0
  2  3  2  0  0  0  0
  3  4  1  0  0  0  0
  3 26  1  0  0  0  0
  4 19  2  0  0  0  0
  4  5  1  0  0  0  0
  5  6  2  0  0  0  0
  6  7  1  0  0  0  0
  6 27  1  0  0  0  0
  7  8  1  0  0  0  0
  7 19  1  0  0  0  0
  8  9  1  0  0  0  0
  8 28  1  0  0  0  0
  8 29  1  0  0  0  0
  9 10  1  0  0  0  0
  9 11  1  0  0  0  0
  9 30  1  0  0  0  0
 10 31  1  0  0  0  0
 11 12  1  0  0  0  0
 11 32  1  0  0  0  0
 11 33  1  0  0  0  0
 12 13  1  0  0  0  0
 12 14  1  0  0  0  0
 12 47  1  0  0  0  0
 13 34  1  0  0  0  0
 13 35  1  0  0  0  0
 13 36  1  0  0  0  0
 14 15  1  0  0  0  0
 14 37  1  0  0  0  0
 14 38  1  0  0  0  0
 15 16  1  0  0  0  0
 15 17  1  0  0  0  0
 15 39  1  0  0  0  0
 16 40  1  0  0  0  0
 16 41  1  0  0  0  0
 16 42  1  0  0  0  0
 17 18  3  0  0  0  0
 19 20  1  0  0  0  0
 20 21  2  0  0  0  0
 20 43  1  0  0  0  0
 21 22  1  0  0  0  0
 22 44  1  0  0  0  0
 22 45  1  0  0  0  0
 22 46  1  0  0  0  0
M  CHG  1  12   1
M  END
> <s_m_source_file>
AV-unprocessed.smi

> <i_m_source_file_index>
1535

> <i_lp_mmshare_version>
43012

> <i_f3d_flags>
0

> <s_epik_input>
W0NIM11jKFtjSF0xKWMoW0NIM10pW2NIXWMoYzEyKW4oW2NIXW4yKVtDSDJdW0NASF0oW09IXSlbQ0gyXU4oW0NIM10pW0NIMl1bQ0BIXShbQ0gzXSlDI04=

> <s_epik_cmdline>
J2VwaWtfcHl0aG9uJywgJy1waCcsICc3LjAnLCAnLXRuJywgJzgnLCAnLW1hJywgJzIwMCcsICctbWV0YWxfYmluZGluZycsICctaW1hZScsICc8aW5maWxlLm1hZT4nLCAnLW9tYWUnLCAnPG91dGZpbGUubWFlPic=

> <r_epik_Ionization_Penalty>
2.21058

> <r_epik_Ionization_Penalty_Charging>
2.12381

> <r_epik_Ionization_Penalty_Neutral>
0.0867699

> <r_epik_State_Penalty>
2.36208

> <r_epik_Charging_Adjusted_Penalty>
4.48589

> <i_epik_Tot_Q>
1

> <i_epik_Tot_abs_Q>
1

> <r_epik_Metal_State_Penalty>
2.2818

> <b_epik_Metal_Only>
0

> <s_lp_Force_Field>
OPLS_2005

> <r_lp_Energy>
14.5369

> <b_lp_Chiralities_Consistent>
1

> <s_lp_Variant>
AV-unprocessed.smi:1535-13

> <Gold.Version>
5.8.1

> <Gold.Id.Protein>
6NUR|6NUR_protein|mol2

> <Gold.PLP.Fitness>
57.3692

> <Gold.PLP.PLP>
-47.5586

> <Gold.PLP.part.hbond>
-2.9061

> <Gold.PLP.part.metal>
0.0000

> <Gold.PLP.part.buried>
-7.3229

> <Gold.PLP.part.nonpolar>
-37.6562

> <Gold.PLP.part.repulsive>
0.1297

> <Gold.PLP.ligand.clash>
0.0000

> <Gold.PLP.ligand.torsion>
1.3416

> <Gold.PLP.Chemscore.Hbond>
3.8960

> <Gold.PLP.Chemscore.CHOScore>
0.0000

> <Gold.PLP.Chemscore.Metal>
0.0000

> <Gold.Chemscore.Hbonds>
donor molecule, donor type, donor heavy atom, donor atom, acceptor molecule, acceptor atom, score
      L1  H    10    31       P1  7957  0.75
      L1  H    12    47       P1  8028  1.72
      P1  H  7989  7998       L1    10  0.80

> <Gold.PLP.Chemscore.Internal.Correction>
0.8059

> <Gold.Rescore>
     Score         DG    S(hbond)    S(metal)    S(lipo)     H(rot)  DE(clash)    DE(int)     intcor
     17.19     -19.36       1.85        0.00     122.90       2.60       0.51       1.66       ----

> <Gold.Chemscore.Fitness>
17.1898

> <Gold.Chemscore.DG>
-19.3603

> <Gold.Chemscore.ZeroCoef>
-5.4800

> <Gold.Chemscore.Hbond>
1.8459

> <Gold.Chemscore.Metal>
0.0000

> <Gold.Chemscore.Lipo>
122.8974

> <Gold.Chemscore.Internal_Hbond>
0.0000

> <Gold.Chemscore.DEClash>
0.5112

> <Gold.Chemscore.DEInternal>
1.6594

> <Gold.Chemscore.Rot>
2.6031

> <Gold.Chemscore.Internal.Correction>
   9.000000E+99

> <Gold.Chemscore.Hbonds>
donor molecule, donor type, donor heavy atom, donor atom, acceptor molecule, acceptor atom, score
      L1  H    10    31       P1  7957  0.71
      L1  H    12    47       P1  8028  0.33
      P1  H  7989  7998       L1    10  0.13

> <Gold.Chemscore.Hbond.Weighted>
-6.1653

> <Gold.Chemscore.Metal.Weighted>
-0.0000

> <Gold.Chemscore.Lipo.Weighted>
-14.3790

> <Gold.Chemscore.Internal_Hbond.Weighted>
0.0000

> <Gold.Chemscore.DEClash.Weighted>
0.5112

> <Gold.Chemscore.DEInternal.Weighted>
1.6594

> <Gold.Chemscore.Rot.Weighted>
6.6640

> <Gold.Chemscore.Internal.Correction.Weighted>
   9.000000E+99

> <Gold.Protein.RotatedTorsions>
[ 6907 6896 6895 6894 ] final   50.20 input  -60.11 | X-H torsion
[ 7974 7965 7964 7962 ] final   58.14 input  175.53 | X-H torsion
[ 8008 7997 7996 7995 ] final  -71.71 input   59.86 | X-H torsion
[ 10167 10162 10161 10158 ] final -137.96 input  -65.29 | X-H torsion
[ 10718 10713 10712 10709 ] final   88.98 input   66.30 | X-H torsion
[ 10763 10752 10751 10750 ] final  -95.05 input  -60.55 | X-H torsion
[ 11005 11000 10999 10996 ] final -132.08 input  -57.11 | X-H torsion

> <Gold.Protein.ActiveResidues>
 VAL166  LYS551  ARG553  GLY616  TRP617  ASP618  TYR619  PRO620  LYS621  CYS622 
 ASP623  PHE694  ASN695  SER759  ASP760  ASP761  ALA762  ILE779  LEU786  VAL792 
 PHE793  MET794  SER795  GLU796  ALA797  LYS798  CYS799  TRP800  GLU811  SER814 

> <Gold.Protein.RotatedAtoms>
  152.2992  134.7631  160.0361 H   0  0  0  0  0  0  0  0  0  0  0  0  # atno 6907 bound_to 6896
  151.8150  133.3381  159.3575 H   0  0  0  0  0  0  0  0  0  0  0  0  # atno 6908 bound_to 6896
  150.7266  134.5558  159.5861 H   0  0  0  0  0  0  0  0  0  0  0  0  # atno 6909 bound_to 6896
  145.9214  139.3732  143.0476 H   0  0  0  0  0  0  0  0  0  0  0  0  # atno 7974 bound_to 7965
  154.5109  140.0810  156.7988 H   0  0  0  0  0  0  0  0  0  0  0  0  # atno 8008 bound_to 7997
  155.3787  140.3426  155.4228 H   0  0  0  0  0  0  0  0  0  0  0  0  # atno 8009 bound_to 7997
  156.1572  140.1577  156.8660 H   0  0  0  0  0  0  0  0  0  0  0  0  # atno 8010 bound_to 7997
  139.8526  143.7179  152.2657 H   0  0  0  0  0  0  0  0  0  0  0  0  # atno 10167 bound_to 10162
  157.6952  131.0315  150.3356 H   0  0  0  0  0  0  0  0  0  0  0  0  # atno 10718 bound_to 10713
  154.7112  135.5135  153.8670 H   0  0  0  0  0  0  0  0  0  0  0  0  # atno 10763 bound_to 10752
  153.0782  135.6623  154.0109 H   0  0  0  0  0  0  0  0  0  0  0  0  # atno 10764 bound_to 10752
  153.9950  135.3016  155.3388 H   0  0  0  0  0  0  0  0  0  0  0  0  # atno 10765 bound_to 10752
  140.9202  134.1454  157.4320 H   0  0  0  0  0  0  0  0  0  0  0  0  # atno 11005 bound_to 11000
  145.8545  140.9510  143.0732 LP  0  0  0  0  0  0  0  0  0  0  0  0  # atno 17320 bound_to 7965
  144.6753  140.0450  143.7480 LP  0  0  0  0  0  0  0  0  0  0  0  0  # atno 17321 bound_to 7965
  139.7451  144.7549  151.0592 LP  0  0  0  0  0  0  0  0  0  0  0  0  # atno 17342 bound_to 10162
  140.7785  143.4926  150.9873 LP  0  0  0  0  0  0  0  0  0  0  0  0  # atno 17343 bound_to 10162
  156.3824  130.3883  149.7091 LP  0  0  0  0  0  0  0  0  0  0  0  0  # atno 17370 bound_to 10713
  156.4469  130.7888  151.2909 LP  0  0  0  0  0  0  0  0  0  0  0  0  # atno 17371 bound_to 10713
  139.8774  134.9968  156.5815 LP  0  0  0  0  0  0  0  0  0  0  0  0  # atno 17394 bound_to 11000
  140.7998  133.8515  155.8717 LP  0  0  0  0  0  0  0  0  0  0  0  0  # atno 17395 bound_to 11000

$$$$
