AV-unprocessed.smi:897|AV-procd|sdf|4082|dock5
  -GOLD-   22720 1573D 1   1.00000     0.00000
 Structure written by MMmdl.
 35 37  0  0  0  0  0  0  0  0  1 V2000
  152.6581  138.7162  154.5941 C   0  0  0  0  0  0  0  0  0  0  0  0
  151.3182  139.4102  154.7202 C   0  0  0  0  0  0  0  0  0  0  0  0
  150.1863  138.9312  154.0350 C   0  0  0  0  0  0  0  0  0  0  0  0
  148.9632  139.6145  154.1890 C   0  0  0  0  0  0  0  0  0  0  0  0
  147.7315  139.1022  153.4577 C   0  0  0  0  0  0  0  0  0  0  0  0
  148.9225  140.7608  155.0251 C   0  0  0  0  0  0  0  0  0  0  0  0
  147.6751  141.5012  155.2074 C   0  0  0  0  0  0  0  0  0  0  0  0
  146.6877  142.0868  155.3520 N   0  0  0  0  0  0  0  0  0  0  0  0
  150.1219  141.1668  155.6733 C   0  0  0  0  0  0  0  0  0  0  0  0
  150.1322  142.2948  156.5153 N   0  0  0  0  0  0  0  0  0  0  0  0
  151.2481  142.5714  157.4139 C   0  0  1  0  0  0  0  0  0  0  0  0
  151.6616  144.0489  157.4230 C   0  0  0  0  0  0  0  0  0  0  0  0
  151.5401  144.4036  158.9099 C   0  0  2  0  0  0  0  0  0  0  0  0
  152.6105  143.7099  159.7635 C   0  0  0  0  0  0  0  0  0  0  0  0
  152.1135  142.2646  159.7738 C   0  0  0  0  0  0  0  0  0  0  0  0
  150.8641  142.3537  158.8872 C   0  0  1  0  0  0  0  0  0  0  0  0
  150.3962  143.6422  159.2532 O   0  0  0  0  0  0  0  0  0  0  0  0
  151.2888  140.4962  155.5183 N   0  0  0  0  0  0  0  0  0  0  0  0
  152.5749  137.7976  154.0127 H   0  0  0  0  0  0  0  0  0  0  0  0
  153.0476  138.4589  155.5795 H   0  0  0  0  0  0  0  0  0  0  0  0
  153.3772  139.3697  154.0993 H   0  0  0  0  0  0  0  0  0  0  0  0
  150.2555  138.0566  153.4046 H   0  0  0  0  0  0  0  0  0  0  0  0
  147.3572  139.8557  152.7643 H   0  0  0  0  0  0  0  0  0  0  0  0
  146.9396  138.8584  154.1661 H   0  0  0  0  0  0  0  0  0  0  0  0
  147.9554  138.2015  152.8856 H   0  0  0  0  0  0  0  0  0  0  0  0
  149.4580  143.0301  156.3576 H   0  0  0  0  0  0  0  0  0  0  0  0
  152.0857  141.9226  157.1536 H   0  0  0  0  0  0  0  0  0  0  0  0
  152.6697  144.2042  157.0377 H   0  0  0  0  0  0  0  0  0  0  0  0
  150.9776  144.6626  156.8345 H   0  0  0  0  0  0  0  0  0  0  0  0
  151.4427  145.4724  159.1018 H   0  0  0  0  0  0  0  0  0  0  0  0
  153.6093  143.8128  159.3380 H   0  0  0  0  0  0  0  0  0  0  0  0
  152.6253  144.1157  160.7757 H   0  0  0  0  0  0  0  0  0  0  0  0
  152.8501  141.5589  159.3881 H   0  0  0  0  0  0  0  0  0  0  0  0
  151.8471  141.9593  160.7865 H   0  0  0  0  0  0  0  0  0  0  0  0
  150.1516  141.5452  159.0563 H   0  0  0  0  0  0  0  0  0  0  0  0
  1  2  1  0  0  0  0
  1 19  1  0  0  0  0
  1 20  1  0  0  0  0
  1 21  1  0  0  0  0
  2 18  1  0  0  0  0
  2  3  2  0  0  0  0
  3  4  1  0  0  0  0
  3 22  1  0  0  0  0
  4  5  1  0  0  0  0
  4  6  2  0  0  0  0
  5 23  1  0  0  0  0
  5 24  1  0  0  0  0
  5 25  1  0  0  0  0
  6  7  1  0  0  0  0
  6  9  1  0  0  0  0
  7  8  3  0  0  0  0
  9 10  1  0  0  0  0
  9 18  2  0  0  0  0
 10 11  1  0  0  0  0
 10 26  1  0  0  0  0
 11 16  1  0  0  0  0
 11 12  1  0  0  0  0
 11 27  1  0  0  0  0
 12 13  1  0  0  0  0
 12 28  1  0  0  0  0
 12 29  1  0  0  0  0
 13 17  1  0  0  0  0
 13 14  1  0  0  0  0
 13 30  1  0  0  0  0
 14 15  1  0  0  0  0
 14 31  1  0  0  0  0
 14 32  1  0  0  0  0
 15 16  1  0  0  0  0
 15 33  1  0  0  0  0
 15 34  1  0  0  0  0
 16 17  1  0  0  0  0
 16 35  1  0  0  0  0
M  END
> <s_m_source_file>
AV-unprocessed.smi

> <i_m_source_file_index>
897

> <i_lp_mmshare_version>
43012

> <i_f3d_flags>
0

> <s_epik_input>
W0NIM11jMVtjSF1jKFtDSDNdKWMoQyNOKWMobjEpW05IXVtDQEhdKFtDSDJdW0NAQEhdMjMpW0NAQEhdKE8zKVtDSDJdW0NIMl0y

> <s_epik_cmdline>
J2VwaWtfcHl0aG9uJywgJy1waCcsICc3LjAnLCAnLXRuJywgJzgnLCAnLW1hJywgJzIwMCcsICctbWV0YWxfYmluZGluZycsICctaW1hZScsICc8aW5maWxlLm1hZT4nLCAnLW9tYWUnLCAnPG91dGZpbGUubWFlPic=

> <r_lp_tautomer_probability>
1

> <r_epik_Ionization_Penalty>
0.000502654

> <r_epik_Ionization_Penalty_Charging>
0

> <r_epik_Ionization_Penalty_Neutral>
0.000502654

> <r_epik_State_Penalty>
-0

> <r_epik_Charging_Adjusted_Penalty>
0

> <i_epik_Tot_Q>
0

> <i_epik_Tot_abs_Q>
0

> <r_epik_Metal_State_Penalty>
-0

> <b_epik_Metal_Only>
0

> <s_lp_Force_Field>
OPLS_2005

> <r_lp_Energy>
43.6408

> <b_lp_Chiralities_Consistent>
1

> <s_lp_Variant>
AV-unprocessed.smi:897-4

> <Gold.Version>
5.8.1

> <Gold.Id.Protein>
6NUR|6NUR_protein|mol2

> <Gold.PLP.Fitness>
44.3206

> <Gold.PLP.PLP>
-41.7064

> <Gold.PLP.part.hbond>
-2.0000

> <Gold.PLP.part.metal>
0.0000

> <Gold.PLP.part.buried>
-3.2109

> <Gold.PLP.part.nonpolar>
-37.1541

> <Gold.PLP.part.repulsive>
0.4077

> <Gold.PLP.ligand.clash>
0.0000

> <Gold.PLP.ligand.torsion>
0.2030

> <Gold.PLP.Chemscore.Hbond>
1.0000

> <Gold.PLP.Chemscore.CHOScore>
0.0000

> <Gold.PLP.Chemscore.Metal>
0.0000

> <Gold.Chemscore.Hbonds>
donor molecule, donor type, donor heavy atom, donor atom, acceptor molecule, acceptor atom, score
      L1  H    10    26       P1  8028  1.00

> <Gold.PLP.Chemscore.Internal.Correction>
0.0202

> <Gold.Rescore>
     Score         DG    S(hbond)    S(metal)    S(lipo)     H(rot)  DE(clash)    DE(int)     intcor
     18.16     -18.54       1.00        0.00     105.14       1.00       0.03       0.35       ----

> <Gold.Chemscore.Fitness>
18.1640

> <Gold.Chemscore.DG>
-18.5450

> <Gold.Chemscore.ZeroCoef>
-5.4800

> <Gold.Chemscore.Hbond>
0.9951

> <Gold.Chemscore.Metal>
0.0000

> <Gold.Chemscore.Lipo>
105.1387

> <Gold.Chemscore.Internal_Hbond>
0.0000

> <Gold.Chemscore.DEClash>
0.0311

> <Gold.Chemscore.DEInternal>
0.3499

> <Gold.Chemscore.Rot>
1.0000

> <Gold.Chemscore.Internal.Correction>
   9.000000E+99

> <Gold.Chemscore.Hbonds>
donor molecule, donor type, donor heavy atom, donor atom, acceptor molecule, acceptor atom, score
      L1  H    10    26       P1  8028  0.97

> <Gold.Chemscore.Hbond.Weighted>
-3.3238

> <Gold.Chemscore.Metal.Weighted>
-0.0000

> <Gold.Chemscore.Lipo.Weighted>
-12.3012

> <Gold.Chemscore.Internal_Hbond.Weighted>
0.0000

> <Gold.Chemscore.DEClash.Weighted>
0.0311

> <Gold.Chemscore.DEInternal.Weighted>
0.3499

> <Gold.Chemscore.Rot.Weighted>
2.5600

> <Gold.Chemscore.Internal.Correction.Weighted>
   9.000000E+99

> <Gold.Protein.RotatedTorsions>
[ 6907 6896 6895 6894 ] final  -11.17 input  -60.11 | X-H torsion
[ 7974 7965 7964 7962 ] final  -87.82 input  175.53 | X-H torsion
[ 8008 7997 7996 7995 ] final  -45.05 input   59.86 | X-H torsion
[ 10167 10162 10161 10158 ] final  -64.33 input  -65.29 | X-H torsion
[ 10718 10713 10712 10709 ] final  -48.07 input   66.30 | X-H torsion
[ 10763 10752 10751 10750 ] final  -54.88 input  -60.55 | X-H torsion
[ 11005 11000 10999 10996 ] final   25.21 input  -57.11 | X-H torsion

> <Gold.Protein.ActiveResidues>
 VAL166  LYS551  ARG553  GLY616  TRP617  ASP618  TYR619  PRO620  LYS621  CYS622 
 ASP623  PHE694  ASN695  SER759  ASP760  ASP761  ALA762  ILE779  LEU786  VAL792 
 PHE793  MET794  SER795  GLU796  ALA797  LYS798  CYS799  TRP800  GLU811  SER814 

> <Gold.Protein.RotatedAtoms>
  151.3903  135.0955  159.9523 H   0  0  0  0  0  0  0  0  0  0  0  0  # atno 6907 bound_to 6896
  152.5081  133.8986  159.7440 H   0  0  0  0  0  0  0  0  0  0  0  0  # atno 6908 bound_to 6896
  150.9438  133.6570  159.2814 H   0  0  0  0  0  0  0  0  0  0  0  0  # atno 6909 bound_to 6896
  145.4614  140.9561  143.1967 H   0  0  0  0  0  0  0  0  0  0  0  0  # atno 7974 bound_to 7965
  154.3999  140.1407  156.3783 H   0  0  0  0  0  0  0  0  0  0  0  0  # atno 8008 bound_to 7997
  155.8028  140.3475  155.5392 H   0  0  0  0  0  0  0  0  0  0  0  0  # atno 8009 bound_to 7997
  155.8466  140.0935  157.1691 H   0  0  0  0  0  0  0  0  0  0  0  0  # atno 8010 bound_to 7997
  140.5808  143.2327  151.6346 H   0  0  0  0  0  0  0  0  0  0  0  0  # atno 10167 bound_to 10162
  156.2023  130.4157  149.9225 H   0  0  0  0  0  0  0  0  0  0  0  0  # atno 10718 bound_to 10713
  154.1819  135.6442  153.5036 H   0  0  0  0  0  0  0  0  0  0  0  0  # atno 10763 bound_to 10752
  153.0057  135.5408  154.6505 H   0  0  0  0  0  0  0  0  0  0  0  0  # atno 10764 bound_to 10752
  154.5872  135.2930  155.0646 H   0  0  0  0  0  0  0  0  0  0  0  0  # atno 10765 bound_to 10752
  140.3503  134.2236  155.7680 H   0  0  0  0  0  0  0  0  0  0  0  0  # atno 11005 bound_to 11000
  144.8000  139.6159  143.7076 LP  0  0  0  0  0  0  0  0  0  0  0  0  # atno 17320 bound_to 7965
  146.2449  139.6076  142.9467 LP  0  0  0  0  0  0  0  0  0  0  0  0  # atno 17321 bound_to 7965
  139.5169  144.3333  152.0806 LP  0  0  0  0  0  0  0  0  0  0  0  0  # atno 17342 bound_to 10162
  140.2483  144.4196  150.6232 LP  0  0  0  0  0  0  0  0  0  0  0  0  # atno 17343 bound_to 10162
  156.6930  130.8903  151.3590 LP  0  0  0  0  0  0  0  0  0  0  0  0  # atno 17370 bound_to 10713
  157.6992  130.9315  150.0736 LP  0  0  0  0  0  0  0  0  0  0  0  0  # atno 17371 bound_to 10713
  141.2014  133.7964  157.0443 LP  0  0  0  0  0  0  0  0  0  0  0  0  # atno 17394 bound_to 11000
  140.0709  134.9703  157.1465 LP  0  0  0  0  0  0  0  0  0  0  0  0  # atno 17395 bound_to 11000

$$$$
