AV-unprocessed.smi:2355|AV-procd|sdf|9390|dock4
  -GOLD-   2272013 23D 1   1.00000     0.00000
 Structure written by MMmdl.
 49 50  0  0  0  0  0  0  0  0  2 V2000
  153.6627  141.9372  162.0639 C   0  0  0  0  0  0  0  0  0  0  0  0
  153.0172  142.2759  160.7369 C   0  0  0  0  0  0  0  0  0  0  0  0
  152.7723  143.6163  160.3842 C   0  0  0  0  0  0  0  0  0  0  0  0
  152.1665  143.8770  159.1397 C   0  0  0  0  0  0  0  0  0  0  0  0
  151.8766  145.2958  158.6977 C   0  0  0  0  0  0  0  0  0  0  0  0
  151.8132  142.9027  158.2744 N   0  0  0  0  0  0  0  0  0  0  0  0
  152.0465  141.6078  158.6025 C   0  0  0  0  0  0  0  0  0  0  0  0
  151.7013  140.5123  157.7673 N   0  0  0  0  0  0  0  0  0  0  0  0
  150.9667  140.5316  156.6419 C   0  0  0  0  0  0  0  0  0  0  0  0
  150.5463  141.5454  156.0846 O   0  0  0  0  0  0  0  0  0  0  0  0
  150.7296  139.2896  156.1927 N   0  0  0  0  0  0  0  0  0  0  0  0
  149.9689  138.9329  154.9917 C   0  0  1  0  0  0  0  0  0  0  0  0
  150.9110  138.1665  154.0480 C   0  0  0  0  0  0  0  0  0  0  0  0
  148.6857  138.1309  155.3560 C   0  0  2  0  0  0  0  0  0  0  0  0
  148.9867  136.7633  156.0068 C   0  0  0  0  0  0  0  0  0  0  0  0
  147.7659  138.0128  154.1850 N   0  3  0  0  0  0  0  0  0  0  0  0
  146.5113  137.2548  154.4220 C   0  0  0  0  0  0  0  0  0  0  0  0
  145.7768  137.0397  153.0891 C   0  0  0  0  0  0  0  0  0  0  0  0
  145.5060  138.3029  152.4923 O   0  0  0  0  0  0  0  0  0  0  0  0
  146.6969  139.0254  152.1993 C   0  0  0  0  0  0  0  0  0  0  0  0
  147.4797  139.2936  153.4969 C   0  0  0  0  0  0  0  0  0  0  0  0
  152.6455  141.2591  159.8335 C   0  0  0  0  0  0  0  0  0  0  0  0
  154.4751  142.6310  162.2822 H   0  0  0  0  0  0  0  0  0  0  0  0
  154.0733  140.9271  162.0553 H   0  0  0  0  0  0  0  0  0  0  0  0
  152.9285  142.0033  162.8669 H   0  0  0  0  0  0  0  0  0  0  0  0
  153.0423  144.4223  161.0510 H   0  0  0  0  0  0  0  0  0  0  0  0
  151.9227  145.9867  159.5398 H   0  0  0  0  0  0  0  0  0  0  0  0
  150.8816  145.3655  158.2574 H   0  0  0  0  0  0  0  0  0  0  0  0
  152.6062  145.6141  157.9526 H   0  0  0  0  0  0  0  0  0  0  0  0
  152.0241  139.6093  158.0819 H   0  0  0  0  0  0  0  0  0  0  0  0
  151.1206  138.5207  156.7178 H   0  0  0  0  0  0  0  0  0  0  0  0
  149.6777  139.8476  154.4726 H   0  0  0  0  0  0  0  0  0  0  0  0
  150.4512  137.9868  153.0765 H   0  0  0  0  0  0  0  0  0  0  0  0
  151.1976  137.2015  154.4676 H   0  0  0  0  0  0  0  0  0  0  0  0
  151.8251  138.7323  153.8642 H   0  0  0  0  0  0  0  0  0  0  0  0
  148.1621  138.7276  156.1045 H   0  0  0  0  0  0  0  0  0  0  0  0
  149.4807  136.8819  156.9707 H   0  0  0  0  0  0  0  0  0  0  0  0
  149.6368  136.1517  155.3809 H   0  0  0  0  0  0  0  0  0  0  0  0
  148.0730  136.1991  156.1930 H   0  0  0  0  0  0  0  0  0  0  0  0
  146.7285  136.2916  154.8828 H   0  0  0  0  0  0  0  0  0  0  0  0
  145.8614  137.8001  155.1075 H   0  0  0  0  0  0  0  0  0  0  0  0
  146.3672  136.4200  152.4120 H   0  0  0  0  0  0  0  0  0  0  0  0
  144.8346  136.5186  153.2588 H   0  0  0  0  0  0  0  0  0  0  0  0
  147.3064  138.4667  151.4870 H   0  0  0  0  0  0  0  0  0  0  0  0
  146.4301  139.9672  151.7195 H   0  0  0  0  0  0  0  0  0  0  0  0
  146.9063  139.9498  154.1528 H   0  0  0  0  0  0  0  0  0  0  0  0
  148.4109  139.8086  153.2583 H   0  0  0  0  0  0  0  0  0  0  0  0
  152.8206  140.2224  160.0835 H   0  0  0  0  0  0  0  0  0  0  0  0
  148.2843  137.4680  153.5104 H   0  0  0  0  0  0  0  0  0  0  0  0
  1  2  1  0  0  0  0
  1 23  1  0  0  0  0
  1 24  1  0  0  0  0
  1 25  1  0  0  0  0
  2 22  1  0  0  0  0
  2  3  2  0  0  0  0
  3  4  1  0  0  0  0
  3 26  1  0  0  0  0
  4  5  1  0  0  0  0
  4  6  2  0  0  0  0
  5 27  1  0  0  0  0
  5 28  1  0  0  0  0
  5 29  1  0  0  0  0
  6  7  1  0  0  0  0
  7  8  1  0  0  0  0
  7 22  2  0  0  0  0
  8  9  1  0  0  0  0
  8 30  1  0  0  0  0
  9 10  2  0  0  0  0
  9 11  1  0  0  0  0
 11 12  1  0  0  0  0
 11 31  1  0  0  0  0
 12 13  1  0  0  0  0
 12 14  1  0  0  0  0
 12 32  1  0  0  0  0
 13 33  1  0  0  0  0
 13 34  1  0  0  0  0
 13 35  1  0  0  0  0
 14 15  1  0  0  0  0
 14 16  1  0  0  0  0
 14 36  1  0  0  0  0
 15 37  1  0  0  0  0
 15 38  1  0  0  0  0
 15 39  1  0  0  0  0
 16 21  1  0  0  0  0
 16 17  1  0  0  0  0
 16 49  1  0  0  0  0
 17 18  1  0  0  0  0
 17 40  1  0  0  0  0
 17 41  1  0  0  0  0
 18 19  1  0  0  0  0
 18 42  1  0  0  0  0
 18 43  1  0  0  0  0
 19 20  1  0  0  0  0
 20 21  1  0  0  0  0
 20 44  1  0  0  0  0
 20 45  1  0  0  0  0
 21 46  1  0  0  0  0
 21 47  1  0  0  0  0
 22 48  1  0  0  0  0
M  CHG  1  16   1
M  END
> <s_m_source_file>
AV-unprocessed.smi

> <i_m_source_file_index>
2355

> <i_lp_mmshare_version>
43012

> <i_f3d_flags>
0

> <s_epik_input>
W0NIM11jMVtjSF1jKFtDSDNdKW5jKFtjSF0xKVtOSF1DKD1PKVtOSF1bQ0BIXShbQ0gzXSlbQ0BIXShbQ0gzXSlOMltDSDJdW0NIMl1PW0NIMl1bQ0gyXTI=

> <s_epik_cmdline>
J2VwaWtfcHl0aG9uJywgJy1waCcsICc3LjAnLCAnLXRuJywgJzgnLCAnLW1hJywgJzIwMCcsICctbWV0YWxfYmluZGluZycsICctaW1hZScsICc8aW5maWxlLm1hZT4nLCAnLW9tYWUnLCAnPG91dGZpbGUubWFlPic=

> <r_epik_Ionization_Penalty>
0.602711

> <r_epik_Ionization_Penalty_Charging>
0.602531

> <r_epik_Ionization_Penalty_Neutral>
0.000180055

> <r_epik_State_Penalty>
0.617039

> <r_epik_Charging_Adjusted_Penalty>
1.21957

> <i_epik_Tot_Q>
1

> <i_epik_Tot_abs_Q>
1

> <r_epik_Metal_State_Penalty>
0.617075

> <b_epik_Metal_Only>
0

> <s_lp_Force_Field>
OPLS_2005

> <r_lp_Energy>
26.6532

> <b_lp_Chiralities_Consistent>
1

> <s_lp_Variant>
AV-unprocessed.smi:2355-6

> <Gold.Version>
5.8.1

> <Gold.Id.Protein>
6NUR|6NUR_protein|mol2

> <Gold.PLP.Fitness>
45.6861

> <Gold.PLP.PLP>
-39.8299

> <Gold.PLP.part.hbond>
-1.0000

> <Gold.PLP.part.metal>
0.0000

> <Gold.PLP.part.buried>
-5.5712

> <Gold.PLP.part.nonpolar>
-33.9388

> <Gold.PLP.part.repulsive>
0.5018

> <Gold.PLP.ligand.clash>
0.0000

> <Gold.PLP.ligand.torsion>
0.1436

> <Gold.PLP.Chemscore.Hbond>
2.0000

> <Gold.PLP.Chemscore.CHOScore>
0.0000

> <Gold.PLP.Chemscore.Metal>
0.0000

> <Gold.Chemscore.Hbonds>
donor molecule, donor type, donor heavy atom, donor atom, acceptor molecule, acceptor atom, score
      L1  H    16    49       P1  7948  1.37

> <Gold.PLP.Chemscore.Internal.Correction>
0.1433

> <Gold.Rescore>
     Score         DG    S(hbond)    S(metal)    S(lipo)     H(rot)  DE(clash)    DE(int)     intcor
     16.58     -18.13       1.00        0.00     111.32       1.45       0.10       1.44       ----

> <Gold.Chemscore.Fitness>
16.5847

> <Gold.Chemscore.DG>
-18.1261

> <Gold.Chemscore.ZeroCoef>
-5.4800

> <Gold.Chemscore.Hbond>
0.9953

> <Gold.Chemscore.Metal>
0.0000

> <Gold.Chemscore.Lipo>
111.3158

> <Gold.Chemscore.Internal_Hbond>
0.0000

> <Gold.Chemscore.DEClash>
0.0978

> <Gold.Chemscore.DEInternal>
1.4435

> <Gold.Chemscore.Rot>
1.4462

> <Gold.Chemscore.Internal.Correction>
   9.000000E+99

> <Gold.Chemscore.Hbonds>
donor molecule, donor type, donor heavy atom, donor atom, acceptor molecule, acceptor atom, score
      L1  H    16    49       P1  7948  0.67

> <Gold.Chemscore.Hbond.Weighted>
-3.3244

> <Gold.Chemscore.Metal.Weighted>
-0.0000

> <Gold.Chemscore.Lipo.Weighted>
-13.0239

> <Gold.Chemscore.Internal_Hbond.Weighted>
0.0000

> <Gold.Chemscore.DEClash.Weighted>
0.0978

> <Gold.Chemscore.DEInternal.Weighted>
1.4435

> <Gold.Chemscore.Rot.Weighted>
3.7023

> <Gold.Chemscore.Internal.Correction.Weighted>
   9.000000E+99

> <Gold.Protein.RotatedTorsions>
[ 6907 6896 6895 6894 ] final  164.00 input  -60.11 | X-H torsion
[ 7974 7965 7964 7962 ] final  -88.88 input  175.53 | X-H torsion
[ 8008 7997 7996 7995 ] final  104.93 input   59.86 | X-H torsion
[ 10167 10162 10161 10158 ] final  -96.44 input  -65.29 | X-H torsion
[ 10718 10713 10712 10709 ] final   44.90 input   66.30 | X-H torsion
[ 10763 10752 10751 10750 ] final   52.31 input  -60.55 | X-H torsion
[ 11005 11000 10999 10996 ] final -118.04 input  -57.11 | X-H torsion

> <Gold.Protein.ActiveResidues>
 VAL166  LYS551  ARG553  GLY616  TRP617  ASP618  TYR619  PRO620  LYS621  CYS622 
 ASP623  PHE694  ASN695  SER759  ASP760  ASP761  ALA762  ILE779  LEU786  VAL792 
 PHE793  MET794  SER795  GLU796  ALA797  LYS798  CYS799  TRP800  GLU811  SER814 

> <Gold.Protein.RotatedAtoms>
  151.9165  133.3574  159.3881 H   0  0  0  0  0  0  0  0  0  0  0  0  # atno 6907 bound_to 6896
  150.7046  134.4679  159.5420 H   0  0  0  0  0  0  0  0  0  0  0  0  # atno 6908 bound_to 6896
  152.2294  134.8336  160.0526 H   0  0  0  0  0  0  0  0  0  0  0  0  # atno 6909 bound_to 6896
  145.4473  140.9560  143.2042 H   0  0  0  0  0  0  0  0  0  0  0  0  # atno 7974 bound_to 7965
  156.1615  140.3139  155.8815 H   0  0  0  0  0  0  0  0  0  0  0  0  # atno 8008 bound_to 7997
  155.3772  140.0485  157.3061 H   0  0  0  0  0  0  0  0  0  0  0  0  # atno 8009 bound_to 7997
  154.5151  140.2178  155.9092 H   0  0  0  0  0  0  0  0  0  0  0  0  # atno 8010 bound_to 7997
  140.2938  143.3205  152.0319 H   0  0  0  0  0  0  0  0  0  0  0  0  # atno 10167 bound_to 10162
  157.4318  130.8029  149.7611 H   0  0  0  0  0  0  0  0  0  0  0  0  # atno 10718 bound_to 10713
  152.9788  135.5816  154.4558 H   0  0  0  0  0  0  0  0  0  0  0  0  # atno 10763 bound_to 10752
  154.4141  135.2770  155.2020 H   0  0  0  0  0  0  0  0  0  0  0  0  # atno 10764 bound_to 10752
  154.3797  135.6149  153.5838 H   0  0  0  0  0  0  0  0  0  0  0  0  # atno 10765 bound_to 10752
  141.0313  133.9976  157.3138 H   0  0  0  0  0  0  0  0  0  0  0  0  # atno 11005 bound_to 11000
  144.8084  139.6008  143.7040 LP  0  0  0  0  0  0  0  0  0  0  0  0  # atno 17320 bound_to 7965
  146.2524  139.6228  142.9418 LP  0  0  0  0  0  0  0  0  0  0  0  0  # atno 17321 bound_to 7965
  139.4931  144.6506  151.6684 LP  0  0  0  0  0  0  0  0  0  0  0  0  # atno 17342 bound_to 10162
  140.5710  144.0109  150.6216 LP  0  0  0  0  0  0  0  0  0  0  0  0  # atno 17343 bound_to 10162
  155.9916  130.3936  150.2977 LP  0  0  0  0  0  0  0  0  0  0  0  0  # atno 17370 bound_to 10713
  157.1135  131.0227  151.3038 LP  0  0  0  0  0  0  0  0  0  0  0  0  # atno 17371 bound_to 10713
  139.9210  135.0200  156.8063 LP  0  0  0  0  0  0  0  0  0  0  0  0  # atno 17394 bound_to 11000
  140.6401  133.9826  155.7703 LP  0  0  0  0  0  0  0  0  0  0  0  0  # atno 17395 bound_to 11000

$$$$
