AV-unprocessed.smi:3139|AV-procd|sdf|11956|dock3
  -GOLD-   2272017353D 1   1.00000     0.00000
 Structure written by MMmdl.
 33 33  0  0  0  0  0  0  0  0  2 V2000
  151.4615  145.3026  159.0226 C   0  0  0  0  0  0  0  0  0  0  0  0
  151.9584  143.8505  158.8645 C   0  0  2  0  0  0  0  0  0  0  0  0
  150.9100  142.9225  158.2285 C   0  0  0  0  0  0  0  0  0  0  0  0
  149.8663  142.6483  158.8228 O   0  0  0  0  0  0  0  0  0  0  0  0
  151.2018  142.4572  157.0036 N   0  0  0  0  0  0  0  0  0  0  0  0
  150.3503  141.5914  156.1874 C   0  0  0  0  0  0  0  0  0  0  0  0
  150.5692  140.0733  156.4481 C   0  0  0  0  0  0  0  0  0  0  0  0
  150.5836  139.8175  157.9690 C   0  0  0  0  0  0  0  0  0  0  0  0
  149.4149  139.2588  155.8143 C   0  0  0  0  0  0  0  0  0  0  0  0
  151.9349  139.6137  155.8731 C   0  0  0  0  0  0  0  0  0  0  0  0
  152.7995  139.1685  156.6611 O   0  0  0  0  0  0  0  0  0  0  0  0
  152.0988  139.7251  154.6373 O   0  5  0  0  0  0  0  0  0  0  0  0
  152.4399  143.2914  160.1232 N   0  0  0  0  0  0  0  0  0  0  0  0
  153.1107  142.1009  160.3190 C   0  0  0  0  0  0  0  0  0  0  0  0
  153.3259  141.9655  161.6604 C   0  0  0  0  0  0  0  0  0  0  0  0
  152.7314  143.1318  162.2166 C   0  0  0  0  0  0  0  0  0  0  0  0
  152.1956  143.9184  161.2979 N   0  0  0  0  0  0  0  0  0  0  0  0
  151.1711  145.7245  158.0598 H   0  0  0  0  0  0  0  0  0  0  0  0
  152.2457  145.9391  159.4335 H   0  0  0  0  0  0  0  0  0  0  0  0
  150.5987  145.3714  159.6866 H   0  0  0  0  0  0  0  0  0  0  0  0
  152.8096  143.8778  158.1821 H   0  0  0  0  0  0  0  0  0  0  0  0
  152.0755  142.7436  156.5859 H   0  0  0  0  0  0  0  0  0  0  0  0
  149.3179  141.8612  156.4135 H   0  0  0  0  0  0  0  0  0  0  0  0
  150.4761  141.8111  155.1259 H   0  0  0  0  0  0  0  0  0  0  0  0
  149.6343  140.1021  158.4240 H   0  0  0  0  0  0  0  0  0  0  0  0
  151.3667  140.3901  158.4682 H   0  0  0  0  0  0  0  0  0  0  0  0
  150.7515  138.7638  158.1962 H   0  0  0  0  0  0  0  0  0  0  0  0
  148.4469  139.6020  156.1808 H   0  0  0  0  0  0  0  0  0  0  0  0
  149.4902  138.1970  156.0529 H   0  0  0  0  0  0  0  0  0  0  0  0
  149.3995  139.3514  154.7278 H   0  0  0  0  0  0  0  0  0  0  0  0
  153.3751  141.4548  159.4947 H   0  0  0  0  0  0  0  0  0  0  0  0
  153.8261  141.1537  162.1673 H   0  0  0  0  0  0  0  0  0  0  0  0
  152.6697  143.4264  163.2538 H   0  0  0  0  0  0  0  0  0  0  0  0
  1  2  1  0  0  0  0
  1 18  1  0  0  0  0
  1 19  1  0  0  0  0
  1 20  1  0  0  0  0
  2  3  1  0  0  0  0
  2 13  1  0  0  0  0
  2 21  1  0  0  0  0
  3  4  2  0  0  0  0
  3  5  1  0  0  0  0
  5  6  1  0  0  0  0
  5 22  1  0  0  0  0
  6  7  1  0  0  0  0
  6 23  1  0  0  0  0
  6 24  1  0  0  0  0
  7  8  1  0  0  0  0
  7  9  1  0  0  0  0
  7 10  1  0  0  0  0
  8 25  1  0  0  0  0
  8 26  1  0  0  0  0
  8 27  1  0  0  0  0
  9 28  1  0  0  0  0
  9 29  1  0  0  0  0
  9 30  1  0  0  0  0
 10 11  2  0  0  0  0
 10 12  1  0  0  0  0
 13 17  1  0  0  0  0
 13 14  1  0  0  0  0
 14 15  2  0  0  0  0
 14 31  1  0  0  0  0
 15 16  1  0  0  0  0
 15 32  1  0  0  0  0
 16 17  2  0  0  0  0
 16 33  1  0  0  0  0
M  CHG  1  12  -1
M  END
> <s_m_source_file>
AV-unprocessed.smi

> <i_m_source_file_index>
3139

> <i_lp_mmshare_version>
43012

> <i_f3d_flags>
0

> <s_epik_input>
bjFbY0hdW2NIXVtjSF1uMVtDQEhdKFtDSDNdKUMoPU8pW05IXVtDSDJdQyhbQ0gzXSkoW0NIM10pQyg9TylbT0hd

> <s_epik_cmdline>
J2VwaWtfcHl0aG9uJywgJy1waCcsICc3LjAnLCAnLXRuJywgJzgnLCAnLW1hJywgJzIwMCcsICctbWV0YWxfYmluZGluZycsICctaW1hZScsICc8aW5maWxlLm1hZT4nLCAnLW9tYWUnLCAnPG91dGZpbGUubWFlPic=

> <r_lp_tautomer_probability>
1

> <r_epik_Ionization_Penalty>
0.00184643

> <r_epik_Ionization_Penalty_Charging>
0.00181045

> <r_epik_Ionization_Penalty_Neutral>
3.59763e-05

> <r_epik_State_Penalty>
0.00122842

> <r_epik_Charging_Adjusted_Penalty>
0.00303887

> <i_epik_Tot_Q>
-1

> <i_epik_Tot_abs_Q>
1

> <r_epik_Metal_State_Penalty>
-0

> <b_epik_Metal_Only>
0

> <s_lp_Force_Field>
OPLS_2005

> <r_lp_Energy>
5.55707

> <b_lp_Chiralities_Consistent>
1

> <s_lp_Variant>
AV-unprocessed.smi:3139-1

> <Gold.Version>
5.8.1

> <Gold.Id.Protein>
6NUR|6NUR_protein|mol2

> <Gold.PLP.Fitness>
47.5938

> <Gold.PLP.PLP>
-39.7960

> <Gold.PLP.part.hbond>
-2.7113

> <Gold.PLP.part.metal>
0.0000

> <Gold.PLP.part.buried>
-5.4571

> <Gold.PLP.part.nonpolar>
-31.4145

> <Gold.PLP.part.repulsive>
0.3440

> <Gold.PLP.ligand.clash>
0.0000

> <Gold.PLP.ligand.torsion>
0.4896

> <Gold.PLP.Chemscore.Hbond>
2.8640

> <Gold.PLP.Chemscore.CHOScore>
0.0000

> <Gold.PLP.Chemscore.Metal>
0.0000

> <Gold.Chemscore.Hbonds>
donor molecule, donor type, donor heavy atom, donor atom, acceptor molecule, acceptor atom, score
      P1  H  7989  7998       L1    12  0.83
      P1  H  7997  8010       L1    11  2.00

> <Gold.PLP.Chemscore.Internal.Correction>
0.1850

> <Gold.Rescore>
     Score         DG    S(hbond)    S(metal)    S(lipo)     H(rot)  DE(clash)    DE(int)     intcor
     14.43     -15.10       1.97        0.00      76.67       2.32       0.01       0.66       ----

> <Gold.Chemscore.Fitness>
14.4301

> <Gold.Chemscore.DG>
-15.0969

> <Gold.Chemscore.ZeroCoef>
-5.4800

> <Gold.Chemscore.Hbond>
1.9748

> <Gold.Chemscore.Metal>
0.0000

> <Gold.Chemscore.Lipo>
76.6735

> <Gold.Chemscore.Internal_Hbond>
0.0000

> <Gold.Chemscore.DEClash>
0.0067

> <Gold.Chemscore.DEInternal>
0.6601

> <Gold.Chemscore.Rot>
2.3241

> <Gold.Chemscore.Internal.Correction>
   9.000000E+99

> <Gold.Chemscore.Hbonds>
donor molecule, donor type, donor heavy atom, donor atom, acceptor molecule, acceptor atom, score
      P1  H  7989  7998       L1    12  0.81
      P1  H  7997  8010       L1    11  0.85

> <Gold.Chemscore.Hbond.Weighted>
-6.5959

> <Gold.Chemscore.Metal.Weighted>
-0.0000

> <Gold.Chemscore.Lipo.Weighted>
-8.9708

> <Gold.Chemscore.Internal_Hbond.Weighted>
0.0000

> <Gold.Chemscore.DEClash.Weighted>
0.0067

> <Gold.Chemscore.DEInternal.Weighted>
0.6601

> <Gold.Chemscore.Rot.Weighted>
5.9498

> <Gold.Chemscore.Internal.Correction.Weighted>
   9.000000E+99

> <Gold.Protein.RotatedTorsions>
[ 6907 6896 6895 6894 ] final   66.88 input  -60.11 | X-H torsion
[ 7974 7965 7964 7962 ] final   39.08 input  175.53 | X-H torsion
[ 8008 7997 7996 7995 ] final   63.78 input   59.86 | X-H torsion
[ 10167 10162 10161 10158 ] final  -25.11 input  -65.29 | X-H torsion
[ 10718 10713 10712 10709 ] final  170.68 input   66.30 | X-H torsion
[ 10763 10752 10751 10750 ] final -101.36 input  -60.55 | X-H torsion
[ 11005 11000 10999 10996 ] final  -74.74 input  -57.11 | X-H torsion

> <Gold.Protein.ActiveResidues>
 VAL166  LYS551  ARG553  GLY616  TRP617  ASP618  TYR619  PRO620  LYS621  CYS622 
 ASP623  PHE694  ASN695  SER759  ASP760  ASP761  ALA762  ILE779  LEU786  VAL792 
 PHE793  MET794  SER795  GLU796  ALA797  LYS798  CYS799  TRP800  GLU811  SER814 

> <Gold.Protein.RotatedAtoms>
  152.4513  134.5388  159.9832 H   0  0  0  0  0  0  0  0  0  0  0  0  # atno 6907 bound_to 6896
  151.5460  133.3419  159.2952 H   0  0  0  0  0  0  0  0  0  0  0  0  # atno 6908 bound_to 6896
  150.8442  134.7777  159.7020 H   0  0  0  0  0  0  0  0  0  0  0  0  # atno 6909 bound_to 6896
  146.1012  139.5695  142.9413 H   0  0  0  0  0  0  0  0  0  0  0  0  # atno 7974 bound_to 7965
  155.6356  140.3496  155.4697 H   0  0  0  0  0  0  0  0  0  0  0  0  # atno 8008 bound_to 7997
  155.9968  140.1205  157.0609 H   0  0  0  0  0  0  0  0  0  0  0  0  # atno 8009 bound_to 7997
  154.4236  140.1108  156.5627 H   0  0  0  0  0  0  0  0  0  0  0  0  # atno 8010 bound_to 7997
  140.7287  143.4294  151.0826 H   0  0  0  0  0  0  0  0  0  0  0  0  # atno 10167 bound_to 10162
  157.0046  131.0186  151.2821 H   0  0  0  0  0  0  0  0  0  0  0  0  # atno 10718 bound_to 10713
  154.7651  135.4901  153.9539 H   0  0  0  0  0  0  0  0  0  0  0  0  # atno 10763 bound_to 10752
  153.1298  135.6750  153.9204 H   0  0  0  0  0  0  0  0  0  0  0  0  # atno 10764 bound_to 10752
  153.8911  135.3121  155.3426 H   0  0  0  0  0  0  0  0  0  0  0  0  # atno 10765 bound_to 10752
  141.1638  133.6922  156.7410 H   0  0  0  0  0  0  0  0  0  0  0  0  # atno 11005 bound_to 11000
  145.5850  141.0377  143.2101 LP  0  0  0  0  0  0  0  0  0  0  0  0  # atno 17320 bound_to 7965
  144.7434  139.7385  143.7301 LP  0  0  0  0  0  0  0  0  0  0  0  0  # atno 17321 bound_to 7965
  139.7949  143.8166  152.3156 LP  0  0  0  0  0  0  0  0  0  0  0  0  # atno 17342 bound_to 10162
  139.8163  144.7315  150.9631 LP  0  0  0  0  0  0  0  0  0  0  0  0  # atno 17343 bound_to 10162
  157.5365  130.8092  149.7978 LP  0  0  0  0  0  0  0  0  0  0  0  0  # atno 17370 bound_to 10713
  156.0158  130.3814  150.2115 LP  0  0  0  0  0  0  0  0  0  0  0  0  # atno 17371 bound_to 10713
  140.2674  134.8419  157.3816 LP  0  0  0  0  0  0  0  0  0  0  0  0  # atno 17394 bound_to 11000
  140.1553  134.4797  155.7932 LP  0  0  0  0  0  0  0  0  0  0  0  0  # atno 17395 bound_to 11000

$$$$
