AV-unprocessed.smi:2557|AV-procd|sdf|10031|dock1
  -GOLD-   2272014 73D 1   1.00000     0.00000
 Structure written by MMmdl.
 39 41  0  0  0  0  0  0  0  0  3 V2000
  151.5763  135.9134  157.6105 O   0  5  0  0  0  0  0  0  0  0  0  0
  150.9689  136.0083  156.5182 C   0  0  0  0  0  0  0  0  0  0  0  0
  150.2785  135.0783  155.7380 C   0  0  0  0  0  0  0  0  0  0  0  0
  150.1511  133.6888  156.1940 C   0  0  0  0  0  0  0  0  0  0  0  0
  150.5801  133.2029  157.2392 O   0  0  0  0  0  0  0  0  0  0  0  0
  149.4470  132.8214  155.3028 N   0  0  0  0  0  0  0  0  0  0  0  0
  148.9342  133.2485  154.1322 C   0  0  0  0  0  0  0  0  0  0  0  0
  148.2216  132.2508  153.2648 C   0  0  0  0  0  0  0  0  0  0  0  0
  147.1187  132.9558  152.4526 C   0  0  0  0  0  0  0  0  0  0  0  0
  146.3418  131.9491  151.5883 C   0  0  0  0  0  0  0  0  0  0  0  0
  145.7602  130.8112  152.4444 C   0  0  0  0  0  0  0  0  0  0  0  0
  146.8562  130.1124  153.2664 C   0  0  0  0  0  0  0  0  0  0  0  0
  147.6311  131.1205  154.1304 C   0  0  0  0  0  0  0  0  0  0  0  0
  149.0454  134.5278  153.7243 N   0  3  0  0  0  0  0  0  0  0  0  0
  149.6871  135.4589  154.5344 N   0  0  0  0  0  0  0  0  0  0  0  0
  151.1021  137.3892  156.0192 C   0  0  0  0  0  0  0  0  0  0  0  0
  149.9608  138.1825  155.7719 C   0  0  0  0  0  0  0  0  0  0  0  0
  150.1397  139.4921  155.2848 C   0  0  0  0  0  0  0  0  0  0  0  0
  151.3520  140.0341  155.0411 N   0  0  0  0  0  0  0  0  0  0  0  0
  152.4409  139.2697  155.2720 C   0  0  0  0  0  0  0  0  0  0  0  0
  152.3713  137.9487  155.7561 C   0  0  0  0  0  0  0  0  0  0  0  0
  148.9398  131.8134  152.5684 H   0  0  0  0  0  0  0  0  0  0  0  0
  146.4252  133.4641  153.1229 H   0  0  0  0  0  0  0  0  0  0  0  0
  147.5606  133.7272  151.8216 H   0  0  0  0  0  0  0  0  0  0  0  0
  145.5404  132.4586  151.0526 H   0  0  0  0  0  0  0  0  0  0  0  0
  147.0043  131.5319  150.8288 H   0  0  0  0  0  0  0  0  0  0  0  0
  144.9996  131.2119  153.1159 H   0  0  0  0  0  0  0  0  0  0  0  0
  145.2558  130.0859  151.8053 H   0  0  0  0  0  0  0  0  0  0  0  0
  146.4133  129.3430  153.8996 H   0  0  0  0  0  0  0  0  0  0  0  0
  147.5462  129.6001  152.5947 H   0  0  0  0  0  0  0  0  0  0  0  0
  148.4304  130.6128  154.6708 H   0  0  0  0  0  0  0  0  0  0  0  0
  146.9603  131.5325  154.8848 H   0  0  0  0  0  0  0  0  0  0  0  0
  148.6536  134.8189  152.8395 H   0  0  0  0  0  0  0  0  0  0  0  0
  149.7999  136.3724  154.1172 H   0  0  0  0  0  0  0  0  0  0  0  0
  148.9696  137.7924  155.9496 H   0  0  0  0  0  0  0  0  0  0  0  0
  149.2855  140.1222  155.0870 H   0  0  0  0  0  0  0  0  0  0  0  0
  153.3981  139.7252  155.0659 H   0  0  0  0  0  0  0  0  0  0  0  0
  153.2719  137.3765  155.9241 H   0  0  0  0  0  0  0  0  0  0  0  0
  149.3009  131.8437  155.5073 H   0  0  0  0  0  0  0  0  0  0  0  0
  1  2  1  0  0  0  0
  2  3  2  0  0  0  0
  2 16  1  0  0  0  0
  3 15  1  0  0  0  0
  3  4  1  0  0  0  0
  4  5  2  0  0  0  0
  4  6  1  0  0  0  0
  6  7  1  0  0  0  0
  6 39  1  0  0  0  0
  7  8  1  0  0  0  0
  7 14  2  0  0  0  0
  8 13  1  0  0  0  0
  8  9  1  0  0  0  0
  8 22  1  0  0  0  0
  9 10  1  0  0  0  0
  9 23  1  0  0  0  0
  9 24  1  0  0  0  0
 10 11  1  0  0  0  0
 10 25  1  0  0  0  0
 10 26  1  0  0  0  0
 11 12  1  0  0  0  0
 11 27  1  0  0  0  0
 11 28  1  0  0  0  0
 12 13  1  0  0  0  0
 12 29  1  0  0  0  0
 12 30  1  0  0  0  0
 13 31  1  0  0  0  0
 13 32  1  0  0  0  0
 14 15  1  0  0  0  0
 14 33  1  0  0  0  0
 15 34  1  0  0  0  0
 16 21  1  0  0  0  0
 16 17  2  0  0  0  0
 17 18  1  0  0  0  0
 17 35  1  0  0  0  0
 18 19  2  0  0  0  0
 18 36  1  0  0  0  0
 19 20  1  0  0  0  0
 20 21  2  0  0  0  0
 20 37  1  0  0  0  0
 21 38  1  0  0  0  0
M  CHG  1   1  -1
M  CHG  1  14   1
M  END
> <s_m_source_file>
AV-unprocessed.smi

> <i_m_source_file_index>
2557

> <i_lp_mmshare_version>
43012

> <i_f3d_flags>
0

> <s_epik_input>
W2NIXTFbY0hdbltjSF1bY0hdYzFDKD1PKUMyPUMoW09IXSlOPUMoW05IXVtOSF0yKVtDSF0zW0NIMl1bQ0gyXVtDSDJdW0NIMl1bQ0gyXTM=

> <s_epik_cmdline>
J2VwaWtfcHl0aG9uJywgJy1waCcsICc3LjAnLCAnLXRuJywgJzgnLCAnLW1hJywgJzIwMCcsICctbWV0YWxfYmluZGluZycsICctaW1hZScsICc8aW5maWxlLm1hZT4nLCAnLW9tYWUnLCAnPG91dGZpbGUubWFlPic=

> <r_epik_Ionization_Penalty>
2.4889

> <r_epik_Ionization_Penalty_Charging>
1.64109

> <r_epik_Ionization_Penalty_Neutral>
0.84781

> <r_epik_State_Penalty>
2.44612

> <r_epik_Charging_Adjusted_Penalty>
4.08721

> <i_epik_Tot_Q>
0

> <i_epik_Tot_abs_Q>
2

> <r_epik_Metal_State_Penalty>
1.55557

> <b_epik_Metal_Only>
0

> <s_epik_Chemistry_Notes>
This compound has an imine and may undergo hydrolysis.

> <s_lp_Force_Field>
OPLS_2005

> <r_lp_Energy>
23.4412

> <b_lp_Chiralities_Consistent>
1

> <s_lp_Variant>
AV-unprocessed.smi:2557-5

> <Gold.Version>
5.8.1

> <Gold.Id.Protein>
6NUR|6NUR_protein|mol2

> <Gold.PLP.Fitness>
39.3830

> <Gold.PLP.PLP>
-30.7990

> <Gold.PLP.part.hbond>
-4.8347

> <Gold.PLP.part.metal>
0.0000

> <Gold.PLP.part.buried>
-3.2625

> <Gold.PLP.part.nonpolar>
-24.0254

> <Gold.PLP.part.repulsive>
0.0877

> <Gold.PLP.ligand.clash>
0.0000

> <Gold.PLP.ligand.torsion>
1.8673

> <Gold.PLP.Chemscore.Hbond>
3.3600

> <Gold.PLP.Chemscore.CHOScore>
0.0000

> <Gold.PLP.Chemscore.Metal>
0.0000

> <Gold.Chemscore.Hbonds>
donor molecule, donor type, donor heavy atom, donor atom, acceptor molecule, acceptor atom, score
      L1  H    14    33       P1  7948  1.19
      L1  H    15    34       P1  7948  0.02
      P1  H  6896  6907       L1     5  0.94
      P1  H  6896  6908       L1     1  0.03
      P1  H  7989  7998       L1    19  1.00

> <Gold.PLP.Chemscore.Internal.Correction>
2.2386

> <Gold.Rescore>
     Score         DG    S(hbond)    S(metal)    S(lipo)     H(rot)  DE(clash)    DE(int)     intcor
     14.70     -17.64       2.07        0.00      66.67       1.00       0.00       2.93       ----

> <Gold.Chemscore.Fitness>
14.7037

> <Gold.Chemscore.DG>
-17.6373

> <Gold.Chemscore.ZeroCoef>
-5.4800

> <Gold.Chemscore.Hbond>
2.0710

> <Gold.Chemscore.Metal>
0.0000

> <Gold.Chemscore.Lipo>
66.6695

> <Gold.Chemscore.Internal_Hbond>
0.0000

> <Gold.Chemscore.DEClash>
0.0009

> <Gold.Chemscore.DEInternal>
2.9327

> <Gold.Chemscore.Rot>
1.0000

> <Gold.Chemscore.Internal.Correction>
   9.000000E+99

> <Gold.Chemscore.Hbonds>
donor molecule, donor type, donor heavy atom, donor atom, acceptor molecule, acceptor atom, score
      L1  H    14    33       P1  7948  0.13
      L1  H    15    34       P1  7948  0.01
      P1  H  6896  6907       L1     5  0.85
      P1  H  6896  6908       L1     1  0.03
      P1  H  7989  7998       L1    19  0.54

> <Gold.Chemscore.Hbond.Weighted>
-6.9170

> <Gold.Chemscore.Metal.Weighted>
-0.0000

> <Gold.Chemscore.Lipo.Weighted>
-7.8003

> <Gold.Chemscore.Internal_Hbond.Weighted>
0.0000

> <Gold.Chemscore.DEClash.Weighted>
0.0009

> <Gold.Chemscore.DEInternal.Weighted>
2.9327

> <Gold.Chemscore.Rot.Weighted>
2.5600

> <Gold.Chemscore.Internal.Correction.Weighted>
   9.000000E+99

> <Gold.Protein.RotatedTorsions>
[ 6907 6896 6895 6894 ] final -145.68 input  -60.11 | X-H torsion
[ 7974 7965 7964 7962 ] final -110.19 input  175.53 | X-H torsion
[ 8008 7997 7996 7995 ] final  176.90 input   59.86 | X-H torsion
[ 10167 10162 10161 10158 ] final  -90.59 input  -65.29 | X-H torsion
[ 10718 10713 10712 10709 ] final   79.00 input   66.30 | X-H torsion
[ 10763 10752 10751 10750 ] final  144.88 input  -60.55 | X-H torsion
[ 11005 11000 10999 10996 ] final   19.31 input  -57.11 | X-H torsion

> <Gold.Protein.ActiveResidues>
 VAL166  LYS551  ARG553  GLY616  TRP617  ASP618  TYR619  PRO620  LYS621  CYS622 
 ASP623  PHE694  ASN695  SER759  ASP760  ASP761  ALA762  ILE779  LEU786  VAL792 
 PHE793  MET794  SER795  GLU796  ALA797  LYS798  CYS799  TRP800  GLU811  SER814 

> <Gold.Protein.RotatedAtoms>
  151.1311  133.5036  159.2598 H   0  0  0  0  0  0  0  0  0  0  0  0  # atno 6907 bound_to 6896
  151.1757  135.0337  159.8780 H   0  0  0  0  0  0  0  0  0  0  0  0  # atno 6908 bound_to 6896
  152.5460  134.1169  159.8435 H   0  0  0  0  0  0  0  0  0  0  0  0  # atno 6909 bound_to 6896
  145.1713  140.8927  143.3533 H   0  0  0  0  0  0  0  0  0  0  0  0  # atno 7974 bound_to 7965
  156.0715  140.1372  156.9822 H   0  0  0  0  0  0  0  0  0  0  0  0  # atno 8008 bound_to 7997
  154.4534  140.0971  156.6738 H   0  0  0  0  0  0  0  0  0  0  0  0  # atno 8009 bound_to 7997
  155.5220  140.3456  155.4411 H   0  0  0  0  0  0  0  0  0  0  0  0  # atno 8010 bound_to 7997
  140.3534  143.2879  151.9699 H   0  0  0  0  0  0  0  0  0  0  0  0  # atno 10167 bound_to 10162
  157.6763  130.9894  150.1869 H   0  0  0  0  0  0  0  0  0  0  0  0  # atno 10718 bound_to 10713
  153.9961  135.2927  155.3407 H   0  0  0  0  0  0  0  0  0  0  0  0  # atno 10763 bound_to 10752
  154.7186  135.5119  153.8780 H   0  0  0  0  0  0  0  0  0  0  0  0  # atno 10764 bound_to 10752
  153.0787  135.6672  154.0208 H   0  0  0  0  0  0  0  0  0  0  0  0  # atno 10765 bound_to 10752
  140.4151  134.1577  155.7669 H   0  0  0  0  0  0  0  0  0  0  0  0  # atno 11005 bound_to 11000
  145.0230  139.3407  143.6063 LP  0  0  0  0  0  0  0  0  0  0  0  0  # atno 17320 bound_to 7965
  146.3468  139.9538  142.8725 LP  0  0  0  0  0  0  0  0  0  0  0  0  # atno 17321 bound_to 7965
  139.4823  144.6056  151.7527 LP  0  0  0  0  0  0  0  0  0  0  0  0  # atno 17342 bound_to 10162
  140.5197  144.0898  150.6019 LP  0  0  0  0  0  0  0  0  0  0  0  0  # atno 17343 bound_to 10162
  156.2589  130.3708  149.8152 LP  0  0  0  0  0  0  0  0  0  0  0  0  # atno 17370 bound_to 10713
  156.5903  130.8503  151.3406 LP  0  0  0  0  0  0  0  0  0  0  0  0  # atno 17371 bound_to 10713
  141.1806  133.8422  157.1271 LP  0  0  0  0  0  0  0  0  0  0  0  0  # atno 17394 bound_to 11000
  140.0239  134.9933  157.0648 LP  0  0  0  0  0  0  0  0  0  0  0  0  # atno 17395 bound_to 11000

$$$$
