AV-unprocessed.smi:36|AV-procd|sdf|279|dock3
  -GOLD-   2262016 53D 1   1.00000     0.00000
 Structure written by MMmdl.
 64 67  0  0  0  0  0  0  0  0  1 V2000
  152.7809  130.9909  155.8366 C   0  0  0  0  0  0  0  0  0  0  0  0
  151.7419  129.8759  156.0410 C   0  0  0  0  0  0  0  0  0  0  0  0
  151.3640  129.2583  154.6837 C   0  0  0  0  0  0  0  0  0  0  0  0
  152.3166  128.7870  156.9626 C   0  0  0  0  0  0  0  0  0  0  0  0
  150.1719  130.6067  156.8477 Si  0  0  0  0  0  0  0  0  0  0  0  0
  148.6775  129.4536  156.6338 C   0  0  0  0  0  0  0  0  0  0  0  0
  150.4571  130.9622  158.6931 C   0  0  0  0  0  0  0  0  0  0  0  0
  149.8278  132.0640  156.0616 O   0  0  0  0  0  0  0  0  0  0  0  0
  150.1282  132.3294  154.7057 C   0  0  0  0  0  0  0  0  0  0  0  0
  149.6780  133.7540  154.3505 C   0  0  2  0  0  0  0  0  0  0  0  0
  150.2195  134.6749  155.2980 O   0  0  0  0  0  0  0  0  0  0  0  0
  149.1695  135.2052  156.0384 C   0  0  1  0  0  0  0  0  0  0  0  0
  149.5566  136.5550  156.5325 N   0  0  0  0  0  0  0  0  0  0  0  0
  149.5713  137.0395  157.8226 C   0  0  0  0  0  0  0  0  0  0  0  0
  149.9552  138.2825  157.9450 N   0  0  0  0  0  0  0  0  0  0  0  0
  150.2312  138.6803  156.6425 C   0  0  0  0  0  0  0  0  0  0  0  0
  150.6840  139.8908  156.0564 C   0  0  0  0  0  0  0  0  0  0  0  0
  150.9252  140.9738  156.8323 N   0  0  0  0  0  0  0  0  0  0  0  0
  151.5925  141.0232  158.1216 C   0  0  0  0  0  0  0  0  0  0  0  0
  152.0709  140.0198  158.6514 O   0  0  0  0  0  0  0  0  0  0  0  0
  151.7364  142.3843  158.7384 C   0  0  0  0  0  0  0  0  0  0  0  0
  152.4097  142.5321  159.9722 C   0  0  0  0  0  0  0  0  0  0  0  0
  152.5399  143.8024  160.5663 C   0  0  0  0  0  0  0  0  0  0  0  0
  151.9915  144.9350  159.9357 C   0  0  0  0  0  0  0  0  0  0  0  0
  151.3081  144.7956  158.7130 C   0  0  0  0  0  0  0  0  0  0  0  0
  151.1769  143.5254  158.1178 C   0  0  0  0  0  0  0  0  0  0  0  0
  150.8506  139.9077  154.7072 N   0  0  0  0  0  0  0  0  0  0  0  0
  150.5885  138.8162  153.9818 C   0  0  0  0  0  0  0  0  0  0  0  0
  150.1554  137.6233  154.3957 N   0  0  0  0  0  0  0  0  0  0  0  0
  149.9882  137.6009  155.7493 C   0  0  0  0  0  0  0  0  0  0  0  0
  147.9992  135.2924  155.0728 C   0  0  0  0  0  0  0  0  0  0  0  0
  148.1508  133.9649  154.3583 C   0  0  1  0  0  0  0  0  0  0  0  0
  147.6045  134.0219  153.0568 O   0  0  0  0  0  0  0  0  0  0  0  0
  153.6904  130.6046  155.3752 H   0  0  0  0  0  0  0  0  0  0  0  0
  153.0630  131.4499  156.7847 H   0  0  0  0  0  0  0  0  0  0  0  0
  152.3953  131.7801  155.1907 H   0  0  0  0  0  0  0  0  0  0  0  0
  150.9607  130.0085  154.0033 H   0  0  0  0  0  0  0  0  0  0  0  0
  150.6092  128.4799  154.7987 H   0  0  0  0  0  0  0  0  0  0  0  0
  152.2302  128.8078  154.1978 H   0  0  0  0  0  0  0  0  0  0  0  0
  153.2029  128.3252  156.5266 H   0  0  0  0  0  0  0  0  0  0  0  0
  151.5876  127.9958  157.1429 H   0  0  0  0  0  0  0  0  0  0  0  0
  152.6034  129.1972  157.9315 H   0  0  0  0  0  0  0  0  0  0  0  0
  148.8418  128.4906  157.1164 H   0  0  0  0  0  0  0  0  0  0  0  0
  148.4678  129.2596  155.5821 H   0  0  0  0  0  0  0  0  0  0  0  0
  147.7758  129.8846  157.0681 H   0  0  0  0  0  0  0  0  0  0  0  0
  150.6826  130.0501  159.2452 H   0  0  0  0  0  0  0  0  0  0  0  0
  149.5795  131.4119  159.1566 H   0  0  0  0  0  0  0  0  0  0  0  0
  151.2906  131.6469  158.8469 H   0  0  0  0  0  0  0  0  0  0  0  0
  151.2025  132.2206  154.5545 H   0  0  0  0  0  0  0  0  0  0  0  0
  149.6368  131.6049  154.0555 H   0  0  0  0  0  0  0  0  0  0  0  0
  150.0914  134.0283  153.3788 H   0  0  0  0  0  0  0  0  0  0  0  0
  148.9692  134.6032  156.9265 H   0  0  0  0  0  0  0  0  0  0  0  0
  149.2830  136.4416  158.6750 H   0  0  0  0  0  0  0  0  0  0  0  0
  150.5941  141.8574  156.4733 H   0  0  0  0  0  0  0  0  0  0  0  0
  152.8359  141.6722  160.4693 H   0  0  0  0  0  0  0  0  0  0  0  0
  153.0606  143.9069  161.5066 H   0  0  0  0  0  0  0  0  0  0  0  0
  152.0918  145.9091  160.3917 H   0  0  0  0  0  0  0  0  0  0  0  0
  150.8819  145.6635  158.2318 H   0  0  0  0  0  0  0  0  0  0  0  0
  150.6408  143.4403  157.1836 H   0  0  0  0  0  0  0  0  0  0  0  0
  150.7469  138.9136  152.9181 H   0  0  0  0  0  0  0  0  0  0  0  0
  147.0515  135.4112  155.5992 H   0  0  0  0  0  0  0  0  0  0  0  0
  148.1528  136.1342  154.3951 H   0  0  0  0  0  0  0  0  0  0  0  0
  147.6472  133.1860  154.9308 H   0  0  0  0  0  0  0  0  0  0  0  0
  148.0489  134.7013  152.5733 H   0  0  0  0  0  0  0  0  0  0  0  0
  1  2  1  0  0  0  0
  1 34  1  0  0  0  0
  1 35  1  0  0  0  0
  1 36  1  0  0  0  0
  2  3  1  0  0  0  0
  2  4  1  0  0  0  0
  2  5  1  0  0  0  0
  3 37  1  0  0  0  0
  3 38  1  0  0  0  0
  3 39  1  0  0  0  0
  4 40  1  0  0  0  0
  4 41  1  0  0  0  0
  4 42  1  0  0  0  0
  5  6  1  0  0  0  0
  5  7  1  0  0  0  0
  5  8  1  0  0  0  0
  6 43  1  0  0  0  0
  6 44  1  0  0  0  0
  6 45  1  0  0  0  0
  7 46  1  0  0  0  0
  7 47  1  0  0  0  0
  7 48  1  0  0  0  0
  8  9  1  0  0  0  0
  9 10  1  0  0  0  0
  9 49  1  0  0  0  0
  9 50  1  0  0  0  0
 10 32  1  0  0  0  0
 10 11  1  0  0  0  0
 10 51  1  0  0  0  0
 11 12  1  0  0  0  0
 12 13  1  0  0  0  0
 12 31  1  0  0  0  0
 12 52  1  0  0  0  0
 13 30  1  0  0  0  0
 13 14  1  0  0  0  0
 14 15  2  0  0  0  0
 14 53  1  0  0  0  0
 15 16  1  0  0  0  0
 16 30  2  0  0  0  0
 16 17  1  0  0  0  0
 17 18  1  0  0  0  0
 17 27  2  0  0  0  0
 18 19  1  0  0  0  0
 18 54  1  0  0  0  0
 19 20  2  0  0  0  0
 19 21  1  0  0  0  0
 21 26  1  0  0  0  0
 21 22  2  0  0  0  0
 22 23  1  0  0  0  0
 22 55  1  0  0  0  0
 23 24  2  0  0  0  0
 23 56  1  0  0  0  0
 24 25  1  0  0  0  0
 24 57  1  0  0  0  0
 25 26  2  0  0  0  0
 25 58  1  0  0  0  0
 26 59  1  0  0  0  0
 27 28  1  0  0  0  0
 28 29  2  0  0  0  0
 28 60  1  0  0  0  0
 29 30  1  0  0  0  0
 31 32  1  0  0  0  0
 31 61  1  0  0  0  0
 31 62  1  0  0  0  0
 32 33  1  0  0  0  0
 32 63  1  0  0  0  0
 33 64  1  0  0  0  0
M  END
> <s_m_source_file>
AV-unprocessed.smi

> <i_m_source_file_index>
36

> <i_lp_mmshare_version>
43012

> <i_f3d_flags>
0

> <s_epik_input>
W0NIM11DKFtDSDNdKShbQ0gzXSlbU2ldKFtDSDNdKShbQ0gzXSlPW0NIMl1bQ0BASF0xT1tDQEhdKFtDSDJdW0NASF0xW09IXSluKFtjSF1uMiljKGMyMyluW2NIXW5jM1tOSF1DKD1PKWM0W2NIXVtjSF1bY0hdW2NIXVtjSF00

> <s_epik_cmdline>
J2VwaWtfcHl0aG9uJywgJy1waCcsICc3LjAnLCAnLXRuJywgJzgnLCAnLW1hJywgJzIwMCcsICctbWV0YWxfYmluZGluZycsICctaW1hZScsICc8aW5maWxlLm1hZT4nLCAnLW9tYWUnLCAnPG91dGZpbGUubWFlPic=

> <r_lp_tautomer_probability>
1

> <r_epik_Ionization_Penalty>
0.00150433

> <r_epik_Ionization_Penalty_Charging>
0

> <r_epik_Ionization_Penalty_Neutral>
0.00150433

> <r_epik_State_Penalty>
0.00724046

> <r_epik_Charging_Adjusted_Penalty>
0.00724046

> <i_epik_Tot_Q>
0

> <i_epik_Tot_abs_Q>
0

> <r_epik_Metal_State_Penalty>
0.323355

> <b_epik_Metal_Only>
0

> <s_epik_Chemistry_Notes>
This compound contains an acetal/aminal-like group ( X-CH(R)-Y where X, Y are N, S, or O) that may be acid/base labile, releasing an aldehyde.

> <s_lp_Force_Field>
OPLS_2005

> <r_lp_Energy>
30.8875

> <b_lp_Chiralities_Consistent>
1

> <s_lp_Variant>
AV-unprocessed.smi:36-1

> <Gold.Version>
5.8.1

> <Gold.Id.Protein>
6NUR|6NUR_protein|mol2

> <Gold.PLP.Fitness>
50.3435

> <Gold.PLP.PLP>
-44.2777

> <Gold.PLP.part.hbond>
-2.0000

> <Gold.PLP.part.metal>
0.0000

> <Gold.PLP.part.buried>
-8.7679

> <Gold.PLP.part.nonpolar>
-34.6728

> <Gold.PLP.part.repulsive>
0.6908

> <Gold.PLP.ligand.clash>
0.0000

> <Gold.PLP.ligand.torsion>
1.5173

> <Gold.PLP.Chemscore.Hbond>
2.0000

> <Gold.PLP.Chemscore.CHOScore>
0.9391

> <Gold.PLP.Chemscore.Metal>
0.0000

> <Gold.Chemscore.Hbonds>
donor molecule, donor type, donor heavy atom, donor atom, acceptor molecule, acceptor atom, score
      L1  H    33    64       P1  7948  1.00
      P1  H  7989  7998       L1    27  0.95
      L1  C    28    60       P1  7957  0.99

> <Gold.PLP.Chemscore.Internal.Correction>
0.2833

> <Gold.Rescore>
     Score         DG    S(hbond)    S(metal)    S(lipo)     H(rot)  DE(clash)    DE(int)     intcor
     11.50     -15.94       1.33        0.00     110.60       2.70       0.84       3.61       ----

> <Gold.Chemscore.Fitness>
11.4981

> <Gold.Chemscore.DG>
-15.9438

> <Gold.Chemscore.ZeroCoef>
-5.4800

> <Gold.Chemscore.Hbond>
1.3311

> <Gold.Chemscore.Metal>
0.0000

> <Gold.Chemscore.Lipo>
110.6021

> <Gold.Chemscore.Internal_Hbond>
0.0000

> <Gold.Chemscore.DEClash>
0.8376

> <Gold.Chemscore.DEInternal>
3.6081

> <Gold.Chemscore.Rot>
2.7041

> <Gold.Chemscore.Internal.Correction>
   9.000000E+99

> <Gold.Chemscore.Hbonds>
donor molecule, donor type, donor heavy atom, donor atom, acceptor molecule, acceptor atom, score
      L1  H    33    64       P1  7948  0.60
      P1  H  7989  7998       L1    27  0.22

> <Gold.Chemscore.Hbond.Weighted>
-4.4458

> <Gold.Chemscore.Metal.Weighted>
-0.0000

> <Gold.Chemscore.Lipo.Weighted>
-12.9405

> <Gold.Chemscore.Internal_Hbond.Weighted>
0.0000

> <Gold.Chemscore.DEClash.Weighted>
0.8376

> <Gold.Chemscore.DEInternal.Weighted>
3.6081

> <Gold.Chemscore.Rot.Weighted>
6.9225

> <Gold.Chemscore.Internal.Correction.Weighted>
   9.000000E+99

> <Gold.Protein.RotatedTorsions>
[ 6907 6896 6895 6894 ] final -161.69 input  -60.11 | X-H torsion
[ 7974 7965 7964 7962 ] final   45.01 input  175.53 | X-H torsion
[ 8008 7997 7996 7995 ] final  -13.16 input   59.86 | X-H torsion
[ 10167 10162 10161 10158 ] final -175.18 input  -65.29 | X-H torsion
[ 10718 10713 10712 10709 ] final  176.35 input   66.30 | X-H torsion
[ 10763 10752 10751 10750 ] final   67.77 input  -60.55 | X-H torsion
[ 11005 11000 10999 10996 ] final   63.63 input  -57.11 | X-H torsion

> <Gold.Protein.ActiveResidues>
 VAL166  LYS551  ARG553  GLY616  TRP617  ASP618  TYR619  PRO620  LYS621  CYS622 
 ASP623  PHE694  ASN695  SER759  ASP760  ASP761  ALA762  ILE779  LEU786  VAL792 
 PHE793  MET794  SER795  GLU796  ALA797  LYS798  CYS799  TRP800  GLU811  SER814 

> <Gold.Protein.RotatedAtoms>
  151.3686  133.3863  159.2696 H   0  0  0  0  0  0  0  0  0  0  0  0  # atno 6907 bound_to 6896
  150.9669  134.9049  159.7775 H   0  0  0  0  0  0  0  0  0  0  0  0  # atno 6908 bound_to 6896
  152.5170  134.3646  159.9349 H   0  0  0  0  0  0  0  0  0  0  0  0  # atno 6909 bound_to 6896
  146.0518  139.5012  142.9713 H   0  0  0  0  0  0  0  0  0  0  0  0  # atno 7974 bound_to 7965
  154.5315  140.2257  155.8795 H   0  0  0  0  0  0  0  0  0  0  0  0  # atno 8008 bound_to 7997
  156.1769  140.3109  155.9039 H   0  0  0  0  0  0  0  0  0  0  0  0  # atno 8009 bound_to 7997
  155.3441  140.0452  157.3036 H   0  0  0  0  0  0  0  0  0  0  0  0  # atno 8010 bound_to 7997
  139.5594  144.1907  152.1214 H   0  0  0  0  0  0  0  0  0  0  0  0  # atno 10167 bound_to 10162
  156.9214  130.9941  151.3004 H   0  0  0  0  0  0  0  0  0  0  0  0  # atno 10718 bound_to 10713
  153.0202  135.5272  154.7030 H   0  0  0  0  0  0  0  0  0  0  0  0  # atno 10763 bound_to 10752
  154.6134  135.2881  155.0409 H   0  0  0  0  0  0  0  0  0  0  0  0  # atno 10764 bound_to 10752
  154.1423  135.6576  153.4997 H   0  0  0  0  0  0  0  0  0  0  0  0  # atno 10765 bound_to 10752
  140.0012  134.6439  155.9928 H   0  0  0  0  0  0  0  0  0  0  0  0  # atno 11005 bound_to 11000
  145.6711  141.0216  143.1657 LP  0  0  0  0  0  0  0  0  0  0  0  0  # atno 17320 bound_to 7965
  144.7127  139.8311  143.7409 LP  0  0  0  0  0  0  0  0  0  0  0  0  # atno 17321 bound_to 7965
  140.1418  144.5195  150.6740 LP  0  0  0  0  0  0  0  0  0  0  0  0  # atno 17342 bound_to 10162
  140.6872  143.2356  151.5229 LP  0  0  0  0  0  0  0  0  0  0  0  0  # atno 17343 bound_to 10162
  157.5905  130.8440  149.8653 LP  0  0  0  0  0  0  0  0  0  0  0  0  # atno 17370 bound_to 10713
  156.0489  130.3722  150.1248 LP  0  0  0  0  0  0  0  0  0  0  0  0  # atno 17371 bound_to 10713
  141.1643  133.6537  156.4425 LP  0  0  0  0  0  0  0  0  0  0  0  0  # atno 17394 bound_to 11000
  140.4725  134.6740  157.5135 LP  0  0  0  0  0  0  0  0  0  0  0  0  # atno 17395 bound_to 11000

$$$$
