AV-unprocessed.smi:2812|AV-procd|sdf|10833|dock8
  -GOLD-   2272015273D 1   1.00000     0.00000
 Structure written by MMmdl.
 55 56  0  0  0  0  0  0  0  0  2 V2000
  148.0168  132.6455  153.0498 C   0  0  0  0  0  0  0  0  0  0  0  0
  149.1599  132.6352  154.0525 C   0  0  0  0  0  0  0  0  0  0  0  0
  149.7680  131.3717  154.4152 C   0  0  0  0  0  0  0  0  0  0  0  0
  150.7667  131.3528  155.3077 C   0  0  0  0  0  0  0  0  0  0  0  0
  151.2531  132.5301  155.8939 N   0  0  0  0  0  0  0  0  0  0  0  0
  152.3560  132.4063  156.8508 C   0  0  0  0  0  0  0  0  0  0  0  0
  150.7542  133.7606  155.5811 C   0  0  0  0  0  0  0  0  0  0  0  0
  151.2515  134.7831  156.0586 O   0  0  0  0  0  0  0  0  0  0  0  0
  149.6125  133.7772  154.6340 C   0  0  0  0  0  0  0  0  0  0  0  0
  149.0333  135.0016  154.2645 N   0  0  0  0  0  0  0  0  0  0  0  0
  148.3384  135.8255  155.0683 C   0  0  0  0  0  0  0  0  0  0  0  0
  148.1211  135.6266  156.2644 O   0  0  0  0  0  0  0  0  0  0  0  0
  147.8762  136.8909  154.3989 N   0  0  0  0  0  0  0  0  0  0  0  0
  147.0736  137.9570  154.9890 C   0  0  0  0  0  0  0  0  0  0  0  0
  146.2380  138.7323  153.9330 C   0  0  2  0  0  0  0  0  0  0  0  0
  147.1018  139.4839  152.8922 C   0  0  0  0  0  0  0  0  0  0  0  0
  147.7780  140.7244  153.4889 C   0  0  0  0  0  0  0  0  0  0  0  0
  146.7189  141.6390  154.1126 C   0  0  0  0  0  0  0  0  0  0  0  0
  145.8641  140.8781  155.1386 C   0  0  0  0  0  0  0  0  0  0  0  0
  145.2385  139.6677  154.5402 N   0  3  2  0  0  0  0  0  0  0  0  0
  144.2388  139.0518  155.4585 C   0  0  0  0  0  0  0  0  0  0  0  0
  143.8469  137.5980  155.1082 C   0  0  0  0  0  0  0  0  0  0  0  0
  143.1534  137.4974  153.7392 C   0  0  0  0  0  0  0  0  0  0  0  0
  142.9504  137.0070  156.2061 C   0  0  0  0  0  0  0  0  0  0  0  0
  147.7795  131.6366  152.7112 H   0  0  0  0  0  0  0  0  0  0  0  0
  148.2801  133.2394  152.1740 H   0  0  0  0  0  0  0  0  0  0  0  0
  147.1173  133.0685  153.4987 H   0  0  0  0  0  0  0  0  0  0  0  0
  149.4187  130.4478  153.9781 H   0  0  0  0  0  0  0  0  0  0  0  0
  151.2568  130.4419  155.6187 H   0  0  0  0  0  0  0  0  0  0  0  0
  152.0861  132.8571  157.8072 H   0  0  0  0  0  0  0  0  0  0  0  0
  153.2469  132.9122  156.4759 H   0  0  0  0  0  0  0  0  0  0  0  0
  152.6275  131.3689  157.0491 H   0  0  0  0  0  0  0  0  0  0  0  0
  149.0410  135.2109  153.2770 H   0  0  0  0  0  0  0  0  0  0  0  0
  148.0981  136.9728  153.4173 H   0  0  0  0  0  0  0  0  0  0  0  0
  146.4322  137.5117  155.7497 H   0  0  0  0  0  0  0  0  0  0  0  0
  147.7520  138.6260  155.5171 H   0  0  0  0  0  0  0  0  0  0  0  0
  145.6766  137.9994  153.3558 H   0  0  0  0  0  0  0  0  0  0  0  0
  147.8504  138.8252  152.4516 H   0  0  0  0  0  0  0  0  0  0  0  0
  146.4642  139.7967  152.0639 H   0  0  0  0  0  0  0  0  0  0  0  0
  148.5105  140.4308  154.2415 H   0  0  0  0  0  0  0  0  0  0  0  0
  148.3271  141.2610  152.7146 H   0  0  0  0  0  0  0  0  0  0  0  0
  147.1986  142.4950  154.5880 H   0  0  0  0  0  0  0  0  0  0  0  0
  146.0765  142.0417  153.3282 H   0  0  0  0  0  0  0  0  0  0  0  0
  146.4676  140.5985  156.0029 H   0  0  0  0  0  0  0  0  0  0  0  0
  145.0854  141.5460  155.5091 H   0  0  0  0  0  0  0  0  0  0  0  0
  144.6015  139.1082  156.4851 H   0  0  0  0  0  0  0  0  0  0  0  0
  143.3344  139.6616  155.4348 H   0  0  0  0  0  0  0  0  0  0  0  0
  144.7430  136.9781  155.0847 H   0  0  0  0  0  0  0  0  0  0  0  0
  142.2437  138.0978  153.7106 H   0  0  0  0  0  0  0  0  0  0  0  0
  142.8766  136.4665  153.5164 H   0  0  0  0  0  0  0  0  0  0  0  0
  143.8039  137.8376  152.9334 H   0  0  0  0  0  0  0  0  0  0  0  0
  142.0146  137.5596  156.2967 H   0  0  0  0  0  0  0  0  0  0  0  0
  143.4475  137.0323  157.1763 H   0  0  0  0  0  0  0  0  0  0  0  0
  142.7024  135.9666  155.9934 H   0  0  0  0  0  0  0  0  0  0  0  0
  144.6971  140.0114  153.7599 H   0  0  0  0  0  0  0  0  0  0  0  0
  1  2  1  0  0  0  0
  1 25  1  0  0  0  0
  1 26  1  0  0  0  0
  1 27  1  0  0  0  0
  2  9  2  0  0  0  0
  2  3  1  0  0  0  0
  3  4  2  0  0  0  0
  3 28  1  0  0  0  0
  4  5  1  0  0  0  0
  4 29  1  0  0  0  0
  5  6  1  0  0  0  0
  5  7  1  0  0  0  0
  6 30  1  0  0  0  0
  6 31  1  0  0  0  0
  6 32  1  0  0  0  0
  7  8  2  0  0  0  0
  7  9  1  0  0  0  0
  9 10  1  0  0  0  0
 10 11  1  0  0  0  0
 10 33  1  0  0  0  0
 11 12  2  0  0  0  0
 11 13  1  0  0  0  0
 13 14  1  0  0  0  0
 13 34  1  0  0  0  0
 14 15  1  0  0  0  0
 14 35  1  0  0  0  0
 14 36  1  0  0  0  0
 15 20  1  0  0  0  0
 15 16  1  0  0  0  0
 15 37  1  0  0  0  0
 16 17  1  0  0  0  0
 16 38  1  0  0  0  0
 16 39  1  0  0  0  0
 17 18  1  0  0  0  0
 17 40  1  0  0  0  0
 17 41  1  0  0  0  0
 18 19  1  0  0  0  0
 18 42  1  0  0  0  0
 18 43  1  0  0  0  0
 19 20  1  0  0  0  0
 19 44  1  0  0  0  0
 19 45  1  0  0  0  0
 20 21  1  0  0  0  0
 20 55  1  0  0  0  0
 21 22  1  0  0  0  0
 21 46  1  0  0  0  0
 21 47  1  0  0  0  0
 22 23  1  0  0  0  0
 22 24  1  0  0  0  0
 22 48  1  0  0  0  0
 23 49  1  0  0  0  0
 23 50  1  0  0  0  0
 23 51  1  0  0  0  0
 24 52  1  0  0  0  0
 24 53  1  0  0  0  0
 24 54  1  0  0  0  0
M  CHG  1  20   1
M  END
> <s_m_source_file>
AV-unprocessed.smi

> <i_m_source_file_index>
2812

> <i_lp_mmshare_version>
43012

> <i_f3d_flags>
0

> <s_epik_input>
W0NIM11jMVtjSF1bY0hdbihbQ0gzXSljKD1PKWMxW05IXUMoPU8pW05IXVtDSDJdW0NAQEhdMltDSDJdW0NIMl1bQ0gyXVtDSDJdTjJbQ0gyXVtDSF0oW0NIM10pW0NIM10=

> <s_epik_cmdline>
J2VwaWtfcHl0aG9uJywgJy1waCcsICc3LjAnLCAnLXRuJywgJzgnLCAnLW1hJywgJzIwMCcsICctbWV0YWxfYmluZGluZycsICctaW1hZScsICc8aW5maWxlLm1hZT4nLCAnLW9tYWUnLCAnPG91dGZpbGUubWFlPic=

> <r_lp_tautomer_probability>
1

> <r_epik_Ionization_Penalty>
0.0010902

> <r_epik_Ionization_Penalty_Charging>
0.00107091

> <r_epik_Ionization_Penalty_Neutral>
1.92854e-05

> <r_epik_State_Penalty>
0.000697184

> <r_epik_Charging_Adjusted_Penalty>
0.0017681

> <i_epik_Tot_Q>
1

> <i_epik_Tot_abs_Q>
1

> <r_epik_Metal_State_Penalty>
-0

> <b_epik_Metal_Only>
0

> <s_lp_Force_Field>
OPLS_2005

> <r_lp_Energy>
39.0226

> <b_lp_Chiralities_Consistent>
1

> <s_lp_Variant>
AV-unprocessed.smi:2812-1

> <Gold.Version>
5.8.1

> <Gold.Id.Protein>
6NUR|6NUR_protein|mol2

> <Gold.PLP.Fitness>
44.5976

> <Gold.PLP.PLP>
-32.8608

> <Gold.PLP.part.hbond>
-3.7013

> <Gold.PLP.part.metal>
0.0000

> <Gold.PLP.part.buried>
-1.1668

> <Gold.PLP.part.nonpolar>
-26.3075

> <Gold.PLP.part.repulsive>
0.0419

> <Gold.PLP.ligand.clash>
0.0000

> <Gold.PLP.ligand.torsion>
1.0605

> <Gold.PLP.Chemscore.Hbond>
4.3982

> <Gold.PLP.Chemscore.CHOScore>
0.0000

> <Gold.PLP.Chemscore.Metal>
0.0000

> <Gold.Chemscore.Hbonds>
donor molecule, donor type, donor heavy atom, donor atom, acceptor molecule, acceptor atom, score
      L1  H    10    33       P1  7948  1.00
      L1  H    13    34       P1  7948  0.98
      L1  H    20    55       P1 10175  2.00
      P1  H 10752 10763       L1     8  0.47

> <Gold.PLP.Chemscore.Internal.Correction>
0.6631

> <Gold.Rescore>
     Score         DG    S(hbond)    S(metal)    S(lipo)     H(rot)  DE(clash)    DE(int)     intcor
     17.88     -19.70       3.09        0.00      66.36       1.52       0.76       1.06       ----

> <Gold.Chemscore.Fitness>
17.8778

> <Gold.Chemscore.DG>
-19.6993

> <Gold.Chemscore.ZeroCoef>
-5.4800

> <Gold.Chemscore.Hbond>
3.0944

> <Gold.Chemscore.Metal>
0.0000

> <Gold.Chemscore.Lipo>
66.3602

> <Gold.Chemscore.Internal_Hbond>
0.0000

> <Gold.Chemscore.DEClash>
0.7604

> <Gold.Chemscore.DEInternal>
1.0611

> <Gold.Chemscore.Rot>
1.5157

> <Gold.Chemscore.Internal.Correction>
   9.000000E+99

> <Gold.Chemscore.Hbonds>
donor molecule, donor type, donor heavy atom, donor atom, acceptor molecule, acceptor atom, score
      L1  H    10    33       P1  7948  0.34
      L1  H    13    34       P1  7948  0.93
      L1  H    20    55       P1 10175  1.00
      P1  H 10752 10763       L1     8  0.38

> <Gold.Chemscore.Hbond.Weighted>
-10.3354

> <Gold.Chemscore.Metal.Weighted>
-0.0000

> <Gold.Chemscore.Lipo.Weighted>
-7.7641

> <Gold.Chemscore.Internal_Hbond.Weighted>
0.0000

> <Gold.Chemscore.DEClash.Weighted>
0.7604

> <Gold.Chemscore.DEInternal.Weighted>
1.0611

> <Gold.Chemscore.Rot.Weighted>
3.8803

> <Gold.Chemscore.Internal.Correction.Weighted>
   9.000000E+99

> <Gold.Protein.RotatedTorsions>
[ 6907 6896 6895 6894 ] final  -55.55 input  -60.11 | X-H torsion
[ 7974 7965 7964 7962 ] final  -84.35 input  175.53 | X-H torsion
[ 8008 7997 7996 7995 ] final  147.29 input   59.86 | X-H torsion
[ 10167 10162 10161 10158 ] final  -17.11 input  -65.29 | X-H torsion
[ 10718 10713 10712 10709 ] final   58.78 input   66.30 | X-H torsion
[ 10763 10752 10751 10750 ] final   84.25 input  -60.55 | X-H torsion
[ 11005 11000 10999 10996 ] final   34.86 input  -57.11 | X-H torsion

> <Gold.Protein.ActiveResidues>
 VAL166  LYS551  ARG553  GLY616  TRP617  ASP618  TYR619  PRO620  LYS621  CYS622 
 ASP623  PHE694  ASN695  SER759  ASP760  ASP761  ALA762  ILE779  LEU786  VAL792 
 PHE793  MET794  SER795  GLU796  ALA797  LYS798  CYS799  TRP800  GLU811  SER814 

> <Gold.Protein.RotatedAtoms>
  150.8242  134.7465  159.6798 H   0  0  0  0  0  0  0  0  0  0  0  0  # atno 6907 bound_to 6896
  152.4355  134.5692  159.9926 H   0  0  0  0  0  0  0  0  0  0  0  0  # atno 6908 bound_to 6896
  151.5868  133.3333  159.3055 H   0  0  0  0  0  0  0  0  0  0  0  0  # atno 6909 bound_to 6896
  145.5078  140.9542  143.1724 H   0  0  0  0  0  0  0  0  0  0  0  0  # atno 7974 bound_to 7965
  156.2829  140.2159  156.5515 H   0  0  0  0  0  0  0  0  0  0  0  0  # atno 8008 bound_to 7997
  154.7287  140.0497  157.0729 H   0  0  0  0  0  0  0  0  0  0  0  0  # atno 8009 bound_to 7997
  155.0382  140.3142  155.4737 H   0  0  0  0  0  0  0  0  0  0  0  0  # atno 8010 bound_to 7997
  140.7243  143.5048  150.9823 H   0  0  0  0  0  0  0  0  0  0  0  0  # atno 10167 bound_to 10162
  157.5623  130.8845  149.9131 H   0  0  0  0  0  0  0  0  0  0  0  0  # atno 10718 bound_to 10713
  153.1365  135.4661  154.9429 H   0  0  0  0  0  0  0  0  0  0  0  0  # atno 10763 bound_to 10752
  154.7710  135.3159  154.8192 H   0  0  0  0  0  0  0  0  0  0  0  0  # atno 10764 bound_to 10752
  153.8724  135.6902  153.4827 H   0  0  0  0  0  0  0  0  0  0  0  0  # atno 10765 bound_to 10752
  140.2485  134.3330  155.7899 H   0  0  0  0  0  0  0  0  0  0  0  0  # atno 11005 bound_to 11000
  144.7744  139.6662  143.7181 LP  0  0  0  0  0  0  0  0  0  0  0  0  # atno 17320 bound_to 7965
  146.2186  139.5594  142.9633 LP  0  0  0  0  0  0  0  0  0  0  0  0  # atno 17321 bound_to 7965
  139.8759  143.7133  152.3162 LP  0  0  0  0  0  0  0  0  0  0  0  0  # atno 17342 bound_to 10162
  139.7398  144.7562  151.0670 LP  0  0  0  0  0  0  0  0  0  0  0  0  # atno 17343 bound_to 10162
  156.0674  130.3690  150.0848 LP  0  0  0  0  0  0  0  0  0  0  0  0  # atno 17370 bound_to 10713
  156.9010  130.9620  151.3576 LP  0  0  0  0  0  0  0  0  0  0  0  0  # atno 17371 bound_to 10713
  141.2204  133.7340  156.9000 LP  0  0  0  0  0  0  0  0  0  0  0  0  # atno 17394 bound_to 11000
  140.1581  134.9184  157.2680 LP  0  0  0  0  0  0  0  0  0  0  0  0  # atno 17395 bound_to 11000

$$$$
