AV-unprocessed.smi:219|AV-procd|sdf|1681|dock8
  -GOLD-   2262020113D 1   1.00000     0.00000
 Structure written by MMmdl.
 50 53  0  0  0  0  0  0  0  0  1 V2000
  149.0084  142.0057  154.7089 N   0  0  0  0  0  0  0  0  0  0  0  0
  149.7272  141.0946  155.3690 C   0  0  0  0  0  0  0  0  0  0  0  0
  150.3390  140.1987  154.7907 O   0  0  0  0  0  0  0  0  0  0  0  0
  149.7309  141.1835  156.9004 C   0  0  0  0  0  0  0  0  0  0  0  0
  151.1299  141.4082  157.5479 C   0  0  1  0  0  0  0  0  0  0  0  0
  150.9498  142.2144  158.8557 C   0  0  0  0  0  0  0  0  0  0  0  0
  152.2826  142.4597  159.5752 C   0  0  0  0  0  0  0  0  0  0  0  0
  152.9880  141.1243  159.8293 C   0  0  0  0  0  0  0  0  0  0  0  0
  153.1694  140.3654  158.5093 C   0  0  0  0  0  0  0  0  0  0  0  0
  151.8893  140.1726  157.8246 N   0  0  0  0  0  0  0  0  0  0  0  0
  152.0164  139.3062  156.7949 C   0  0  0  0  0  0  0  0  0  0  0  0
  152.7403  139.6540  155.6978 N   0  0  0  0  0  0  0  0  0  0  0  0
  152.8366  138.8065  154.6692 C   0  0  0  0  0  0  0  0  0  0  0  0
  152.2931  137.5949  154.5315 N   0  0  0  0  0  0  0  0  0  0  0  0
  151.5659  137.2482  155.6329 C   0  0  0  0  0  0  0  0  0  0  0  0
  151.3893  138.0338  156.8050 C   0  0  0  0  0  0  0  0  0  0  0  0
  150.5947  137.3584  157.7214 N   0  0  0  0  0  0  0  0  0  0  0  0
  150.3037  136.2386  157.1173 C   0  0  0  0  0  0  0  0  0  0  0  0
  150.8309  136.0966  155.8525 N   0  0  0  0  0  0  0  0  0  0  0  0
  150.6467  134.9683  154.9532 C   0  0  0  0  0  0  0  0  0  0  0  0
  149.1623  134.5801  154.7530 C   0  0  2  0  0  0  0  0  0  0  0  0
  148.4478  135.7168  154.2982 O   0  0  0  0  0  0  0  0  0  0  0  0
  148.5007  134.0808  156.0306 C   0  0  0  0  0  0  0  0  0  0  0  0
  147.4197  133.1464  155.5041 C   0  0  0  0  0  0  0  0  0  0  0  0
  148.0610  132.4945  154.4210 O   0  0  0  0  0  0  0  0  0  0  0  0
  148.9192  133.4219  153.7620 C   0  0  0  0  0  0  0  0  0  0  0  0
  148.9824  141.9861  153.6996 H   0  0  0  0  0  0  0  0  0  0  0  0
  148.4980  142.7125  155.2180 H   0  0  0  0  0  0  0  0  0  0  0  0
  149.0709  142.0141  157.1543 H   0  0  0  0  0  0  0  0  0  0  0  0
  149.2557  140.2977  157.3243 H   0  0  0  0  0  0  0  0  0  0  0  0
  151.7353  142.0141  156.8717 H   0  0  0  0  0  0  0  0  0  0  0  0
  150.4756  143.1735  158.6442 H   0  0  0  0  0  0  0  0  0  0  0  0
  150.2752  141.6781  159.5248 H   0  0  0  0  0  0  0  0  0  0  0  0
  152.9180  143.1054  158.9675 H   0  0  0  0  0  0  0  0  0  0  0  0
  152.1129  142.9816  160.5172 H   0  0  0  0  0  0  0  0  0  0  0  0
  153.9562  141.2926  160.3010 H   0  0  0  0  0  0  0  0  0  0  0  0
  152.4013  140.5212  160.5234 H   0  0  0  0  0  0  0  0  0  0  0  0
  153.8503  140.9209  157.8626 H   0  0  0  0  0  0  0  0  0  0  0  0
  153.6342  139.3981  158.7069 H   0  0  0  0  0  0  0  0  0  0  0  0
  153.4270  139.1519  153.8334 H   0  0  0  0  0  0  0  0  0  0  0  0
  149.6803  135.4851  157.5761 H   0  0  0  0  0  0  0  0  0  0  0  0
  151.1012  135.2193  153.9940 H   0  0  0  0  0  0  0  0  0  0  0  0
  151.2103  134.1211  155.3458 H   0  0  0  0  0  0  0  0  0  0  0  0
  148.5622  135.7868  153.3628 H   0  0  0  0  0  0  0  0  0  0  0  0
  149.2105  133.5030  156.6241 H   0  0  0  0  0  0  0  0  0  0  0  0
  148.1095  134.8779  156.6645 H   0  0  0  0  0  0  0  0  0  0  0  0
  147.0729  132.4352  156.2540 H   0  0  0  0  0  0  0  0  0  0  0  0
  146.5600  133.7084  155.1359 H   0  0  0  0  0  0  0  0  0  0  0  0
  148.4664  133.7613  152.8292 H   0  0  0  0  0  0  0  0  0  0  0  0
  149.8380  132.8973  153.5043 H   0  0  0  0  0  0  0  0  0  0  0  0
  1  2  1  0  0  0  0
  1 27  1  0  0  0  0
  1 28  1  0  0  0  0
  2  3  2  0  0  0  0
  2  4  1  0  0  0  0
  4  5  1  0  0  0  0
  4 29  1  0  0  0  0
  4 30  1  0  0  0  0
  5 10  1  0  0  0  0
  5  6  1  0  0  0  0
  5 31  1  0  0  0  0
  6  7  1  0  0  0  0
  6 32  1  0  0  0  0
  6 33  1  0  0  0  0
  7  8  1  0  0  0  0
  7 34  1  0  0  0  0
  7 35  1  0  0  0  0
  8  9  1  0  0  0  0
  8 36  1  0  0  0  0
  8 37  1  0  0  0  0
  9 10  1  0  0  0  0
  9 38  1  0  0  0  0
  9 39  1  0  0  0  0
 10 11  1  0  0  0  0
 11 16  1  0  0  0  0
 11 12  2  0  0  0  0
 12 13  1  0  0  0  0
 13 14  2  0  0  0  0
 13 40  1  0  0  0  0
 14 15  1  0  0  0  0
 15 19  1  0  0  0  0
 15 16  2  0  0  0  0
 16 17  1  0  0  0  0
 17 18  2  0  0  0  0
 18 19  1  0  0  0  0
 18 41  1  0  0  0  0
 19 20  1  0  0  0  0
 20 21  1  0  0  0  0
 20 42  1  0  0  0  0
 20 43  1  0  0  0  0
 21 26  1  0  0  0  0
 21 22  1  0  0  0  0
 21 23  1  0  0  0  0
 22 44  1  0  0  0  0
 23 24  1  0  0  0  0
 23 45  1  0  0  0  0
 23 46  1  0  0  0  0
 24 25  1  0  0  0  0
 24 47  1  0  0  0  0
 24 48  1  0  0  0  0
 25 26  1  0  0  0  0
 26 49  1  0  0  0  0
 26 50  1  0  0  0  0
M  END
> <s_m_source_file>
AV-unprocessed.smi

> <i_m_source_file_index>
219

> <i_lp_mmshare_version>
43012

> <i_f3d_flags>
0

> <s_epik_input>
W05IMl1DKD1PKVtDSDJdW0NAQEhdMVtDSDJdW0NIMl1bQ0gyXVtDSDJdTjFjKG5bY0hdbjIpYyhjMjMpbltjSF1uM1tDSDJdW0NAQF00KFtPSF0pW0NIMl1bQ0gyXU9bQ0gyXTQ=

> <s_epik_cmdline>
J2VwaWtfcHl0aG9uJywgJy1waCcsICc3LjAnLCAnLXRuJywgJzgnLCAnLW1hJywgJzIwMCcsICctbWV0YWxfYmluZGluZycsICctaW1hZScsICc8aW5maWxlLm1hZT4nLCAnLW9tYWUnLCAnPG91dGZpbGUubWFlPic=

> <r_lp_tautomer_probability>
1

> <r_epik_Ionization_Penalty>
0.00228532

> <r_epik_Ionization_Penalty_Charging>
0

> <r_epik_Ionization_Penalty_Neutral>
0.00228532

> <r_epik_State_Penalty>
0.00140978

> <r_epik_Charging_Adjusted_Penalty>
0.00140978

> <i_epik_Tot_Q>
0

> <i_epik_Tot_abs_Q>
0

> <r_epik_Metal_State_Penalty>
-0

> <b_epik_Metal_Only>
0

> <s_lp_Force_Field>
OPLS_2005

> <r_lp_Energy>
35.4504

> <b_lp_Chiralities_Consistent>
1

> <s_lp_Variant>
AV-unprocessed.smi:219-4

> <Gold.Version>
5.8.1

> <Gold.Id.Protein>
6NUR|6NUR_protein|mol2

> <Gold.PLP.Fitness>
49.9150

> <Gold.PLP.PLP>
-36.7584

> <Gold.PLP.part.hbond>
-5.0000

> <Gold.PLP.part.metal>
0.0000

> <Gold.PLP.part.buried>
-6.0356

> <Gold.PLP.part.nonpolar>
-26.5526

> <Gold.PLP.part.repulsive>
1.7144

> <Gold.PLP.ligand.clash>
0.0000

> <Gold.PLP.ligand.torsion>
0.5441

> <Gold.PLP.Chemscore.Hbond>
4.6480

> <Gold.PLP.Chemscore.CHOScore>
0.0000

> <Gold.PLP.Chemscore.Metal>
0.0000

> <Gold.Chemscore.Hbonds>
donor molecule, donor type, donor heavy atom, donor atom, acceptor molecule, acceptor atom, score
      L1  H     1    28       P1  8028  0.59
      L1  H    22    44       P1  7948  1.00
      P1  H  7989  7998       L1     3  1.00
      P1  H  7997  8008       L1    12  1.00
      P1  H 10752 10765       L1    14  0.41

> <Gold.PLP.Chemscore.Internal.Correction>
0.3008

> <Gold.Rescore>
     Score         DG    S(hbond)    S(metal)    S(lipo)     H(rot)  DE(clash)    DE(int)     intcor
     14.03     -18.53       4.31        0.00      62.35       3.37       0.14       4.37       ----

> <Gold.Chemscore.Fitness>
14.0269

> <Gold.Chemscore.DG>
-18.5343

> <Gold.Chemscore.ZeroCoef>
-5.4800

> <Gold.Chemscore.Hbond>
4.3070

> <Gold.Chemscore.Metal>
0.0000

> <Gold.Chemscore.Lipo>
62.3547

> <Gold.Chemscore.Internal_Hbond>
0.0000

> <Gold.Chemscore.DEClash>
0.1368

> <Gold.Chemscore.DEInternal>
4.3706

> <Gold.Chemscore.Rot>
3.3697

> <Gold.Chemscore.Internal.Correction>
   9.000000E+99

> <Gold.Chemscore.Hbonds>
donor molecule, donor type, donor heavy atom, donor atom, acceptor molecule, acceptor atom, score
      L1  H     1    28       P1  8028  0.58
      L1  H    22    44       P1  7948  0.98
      P1  H  7989  7998       L1     3  0.84
      P1  H  7997  8008       L1    12  0.54
      P1  H 10752 10765       L1    14  0.03

> <Gold.Chemscore.Hbond.Weighted>
-14.3852

> <Gold.Chemscore.Metal.Weighted>
-0.0000

> <Gold.Chemscore.Lipo.Weighted>
-7.2955

> <Gold.Chemscore.Internal_Hbond.Weighted>
0.0000

> <Gold.Chemscore.DEClash.Weighted>
0.1368

> <Gold.Chemscore.DEInternal.Weighted>
4.3706

> <Gold.Chemscore.Rot.Weighted>
8.6264

> <Gold.Chemscore.Internal.Correction.Weighted>
   9.000000E+99

> <Gold.Protein.RotatedTorsions>
[ 6907 6896 6895 6894 ] final -144.79 input  -60.11 | X-H torsion
[ 7974 7965 7964 7962 ] final -104.17 input  175.53 | X-H torsion
[ 8008 7997 7996 7995 ] final  -30.61 input   59.86 | X-H torsion
[ 10167 10162 10161 10158 ] final -170.33 input  -65.29 | X-H torsion
[ 10718 10713 10712 10709 ] final -126.71 input   66.30 | X-H torsion
[ 10763 10752 10751 10750 ] final  161.81 input  -60.55 | X-H torsion
[ 11005 11000 10999 10996 ] final   51.39 input  -57.11 | X-H torsion

> <Gold.Protein.ActiveResidues>
 VAL166  LYS551  ARG553  GLY616  TRP617  ASP618  TYR619  PRO620  LYS621  CYS622 
 ASP623  PHE694  ASN695  SER759  ASP760  ASP761  ALA762  ILE779  LEU786  VAL792 
 PHE793  MET794  SER795  GLU796  ALA797  LYS798  CYS799  TRP800  GLU811  SER814 

> <Gold.Protein.RotatedAtoms>
  151.1188  133.5119  159.2602 H   0  0  0  0  0  0  0  0  0  0  0  0  # atno 6907 bound_to 6896
  151.1884  135.0391  159.8832 H   0  0  0  0  0  0  0  0  0  0  0  0  # atno 6908 bound_to 6896
  152.5454  134.1032  159.8380 H   0  0  0  0  0  0  0  0  0  0  0  0  # atno 6909 bound_to 6896
  145.2466  140.9224  143.3119 H   0  0  0  0  0  0  0  0  0  0  0  0  # atno 7974 bound_to 7965
  154.4244  140.1786  156.1434 H   0  0  0  0  0  0  0  0  0  0  0  0  # atno 8008 bound_to 7997
  155.9973  140.3363  155.6786 H   0  0  0  0  0  0  0  0  0  0  0  0  # atno 8009 bound_to 7997
  155.6291  140.0668  157.2645 H   0  0  0  0  0  0  0  0  0  0  0  0  # atno 8010 bound_to 7997
  139.5868  144.1300  152.1586 H   0  0  0  0  0  0  0  0  0  0  0  0  # atno 10167 bound_to 10162
  156.1790  130.6719  151.0280 H   0  0  0  0  0  0  0  0  0  0  0  0  # atno 10718 bound_to 10713
  154.2687  135.2766  155.2747 H   0  0  0  0  0  0  0  0  0  0  0  0  # atno 10763 bound_to 10752
  154.5321  135.5727  153.6771 H   0  0  0  0  0  0  0  0  0  0  0  0  # atno 10764 bound_to 10752
  152.9949  135.6230  154.2840 H   0  0  0  0  0  0  0  0  0  0  0  0  # atno 10765 bound_to 10752
  140.0937  134.5174  155.8827 H   0  0  0  0  0  0  0  0  0  0  0  0  # atno 11005 bound_to 11000
  144.9541  139.4051  143.6388 LP  0  0  0  0  0  0  0  0  0  0  0  0  # atno 17320 bound_to 7965
  146.3314  139.8562  142.8864 LP  0  0  0  0  0  0  0  0  0  0  0  0  # atno 17321 bound_to 7965
  140.0865  144.5656  150.7084 LP  0  0  0  0  0  0  0  0  0  0  0  0  # atno 17342 bound_to 10162
  140.7138  143.2527  151.4497 LP  0  0  0  0  0  0  0  0  0  0  0  0  # atno 17343 bound_to 10162
  157.6855  131.0826  150.7253 LP  0  0  0  0  0  0  0  0  0  0  0  0  # atno 17370 bound_to 10713
  156.7311  130.4710  149.5499 LP  0  0  0  0  0  0  0  0  0  0  0  0  # atno 17371 bound_to 10713
  141.2085  133.6675  156.6379 LP  0  0  0  0  0  0  0  0  0  0  0  0  # atno 17394 bound_to 11000
  140.3316  134.7924  157.4330 LP  0  0  0  0  0  0  0  0  0  0  0  0  # atno 17395 bound_to 11000

$$$$
