AV-unprocessed.smi:963|AV-procd|sdf|4276|dock7
  -GOLD-   22720 2183D 1   1.00000     0.00000
 Structure written by MMmdl.
 36 37  0  0  0  0  0  0  0  0  1 V2000
  151.7333  145.5468  159.3328 C   0  0  0  0  0  0  0  0  0  0  0  0
  152.2110  144.6943  160.5135 C   0  0  0  0  0  0  0  0  0  0  0  0
  152.3824  143.2509  160.1412 C   0  0  0  0  0  0  0  0  0  0  0  0
  152.0075  142.8236  158.8636 N   0  0  0  0  0  0  0  0  0  0  0  0
  152.2058  141.5172  158.6775 C   0  0  0  0  0  0  0  0  0  0  0  0
  151.9296  140.8167  157.3896 C   0  0  0  0  0  0  0  0  0  0  0  0
  150.6335  139.9968  157.4379 C   0  0  0  0  0  0  0  0  0  0  0  0
  149.6092  140.6060  156.5974 N   0  0  0  0  0  0  0  0  0  0  0  0
  149.5911  140.5972  155.2552 C   0  0  0  0  0  0  0  0  0  0  0  0
  150.4677  140.0882  154.5574 O   0  0  0  0  0  0  0  0  0  0  0  0
  148.5535  141.2784  154.7429 N   0  0  0  0  0  0  0  0  0  0  0  0
  147.3204  141.7485  155.3676 C   0  0  0  0  0  0  0  0  0  0  0  0
  146.8423  142.0785  153.9556 C   0  0  0  0  0  0  0  0  0  0  0  0
  147.9642  141.1962  153.4123 C   0  0  0  0  0  0  0  0  0  0  0  0
  152.8973  140.7169  160.0814 S   0  0  0  0  0  0  0  0  0  0  0  0
  152.8761  142.2398  160.9330 C   0  0  0  0  0  0  0  0  0  0  0  0
  153.3586  142.3322  162.3426 C   0  0  0  0  0  0  0  0  0  0  0  0
  151.6183  146.5896  159.6285 H   0  0  0  0  0  0  0  0  0  0  0  0
  150.7696  145.1973  158.9613 H   0  0  0  0  0  0  0  0  0  0  0  0
  152.4447  145.5110  158.5071 H   0  0  0  0  0  0  0  0  0  0  0  0
  153.1534  145.0967  160.8866 H   0  0  0  0  0  0  0  0  0  0  0  0
  151.5028  144.7918  161.3365 H   0  0  0  0  0  0  0  0  0  0  0  0
  151.8735  141.5616  156.5951 H   0  0  0  0  0  0  0  0  0  0  0  0
  152.7767  140.1709  157.1538 H   0  0  0  0  0  0  0  0  0  0  0  0
  150.8163  138.9853  157.0742 H   0  0  0  0  0  0  0  0  0  0  0  0
  150.2990  139.9022  158.4724 H   0  0  0  0  0  0  0  0  0  0  0  0
  148.8553  141.0799  157.0731 H   0  0  0  0  0  0  0  0  0  0  0  0
  146.7438  140.9588  155.8522 H   0  0  0  0  0  0  0  0  0  0  0  0
  147.4351  142.6236  156.0080 H   0  0  0  0  0  0  0  0  0  0  0  0
  145.8371  141.7247  153.7241 H   0  0  0  0  0  0  0  0  0  0  0  0
  146.9702  143.1317  153.6999 H   0  0  0  0  0  0  0  0  0  0  0  0
  148.5516  141.6666  152.6230 H   0  0  0  0  0  0  0  0  0  0  0  0
  147.6385  140.1921  153.1365 H   0  0  0  0  0  0  0  0  0  0  0  0
  152.6481  142.8813  162.9609 H   0  0  0  0  0  0  0  0  0  0  0  0
  154.3179  142.8481  162.3889 H   0  0  0  0  0  0  0  0  0  0  0  0
  153.4876  141.3424  162.7810 H   0  0  0  0  0  0  0  0  0  0  0  0
  1  2  1  0  0  0  0
  1 18  1  0  0  0  0
  1 19  1  0  0  0  0
  1 20  1  0  0  0  0
  2  3  1  0  0  0  0
  2 21  1  0  0  0  0
  2 22  1  0  0  0  0
  3 16  2  0  0  0  0
  3  4  1  0  0  0  0
  4  5  2  0  0  0  0
  5  6  1  0  0  0  0
  5 15  1  0  0  0  0
  6  7  1  0  0  0  0
  6 23  1  0  0  0  0
  6 24  1  0  0  0  0
  7  8  1  0  0  0  0
  7 25  1  0  0  0  0
  7 26  1  0  0  0  0
  8  9  1  0  0  0  0
  8 27  1  0  0  0  0
  9 10  2  0  0  0  0
  9 11  1  0  0  0  0
 11 14  1  0  0  0  0
 11 12  1  0  0  0  0
 12 13  1  0  0  0  0
 12 28  1  0  0  0  0
 12 29  1  0  0  0  0
 13 14  1  0  0  0  0
 13 30  1  0  0  0  0
 13 31  1  0  0  0  0
 14 32  1  0  0  0  0
 14 33  1  0  0  0  0
 15 16  1  0  0  0  0
 16 17  1  0  0  0  0
 17 34  1  0  0  0  0
 17 35  1  0  0  0  0
 17 36  1  0  0  0  0
M  END
> <s_m_source_file>
AV-unprocessed.smi

> <i_m_source_file_index>
963

> <i_lp_mmshare_version>
43012

> <i_f3d_flags>
0

> <s_epik_input>
W0NIM11bQ0gyXWMxbmMoc2MxW0NIM10pW0NIMl1bQ0gyXVtOSF1DKD1PKU4yW0NIMl1bQ0gyXVtDSDJdMg==

> <s_epik_cmdline>
J2VwaWtfcHl0aG9uJywgJy1waCcsICc3LjAnLCAnLXRuJywgJzgnLCAnLW1hJywgJzIwMCcsICctbWV0YWxfYmluZGluZycsICctaW1hZScsICc8aW5maWxlLm1hZT4nLCAnLW9tYWUnLCAnPG91dGZpbGUubWFlPic=

> <r_epik_Ionization_Penalty>
0.00446738

> <r_epik_Ionization_Penalty_Charging>
0

> <r_epik_Ionization_Penalty_Neutral>
0.00446738

> <r_epik_State_Penalty>
0.00317617

> <r_epik_Charging_Adjusted_Penalty>
0.00317617

> <i_epik_Tot_Q>
0

> <i_epik_Tot_abs_Q>
0

> <r_epik_Metal_State_Penalty>
-0

> <b_epik_Metal_Only>
0

> <s_lp_Force_Field>
OPLS_2005

> <r_lp_Energy>
11.733

> <b_lp_Chiralities_Consistent>
1

> <s_lp_Variant>
AV-unprocessed.smi:963-1

> <Gold.Version>
5.8.1

> <Gold.Id.Protein>
6NUR|6NUR_protein|mol2

> <Gold.PLP.Fitness>
43.1397

> <Gold.PLP.PLP>
-41.5131

> <Gold.PLP.part.hbond>
-1.0000

> <Gold.PLP.part.metal>
0.0000

> <Gold.PLP.part.buried>
-5.3703

> <Gold.PLP.part.nonpolar>
-34.5995

> <Gold.PLP.part.repulsive>
0.1257

> <Gold.PLP.ligand.clash>
0.0000

> <Gold.PLP.ligand.torsion>
0.8312

> <Gold.PLP.Chemscore.Hbond>
1.0000

> <Gold.PLP.Chemscore.CHOScore>
0.0000

> <Gold.PLP.Chemscore.Metal>
0.0000

> <Gold.Chemscore.Hbonds>
donor molecule, donor type, donor heavy atom, donor atom, acceptor molecule, acceptor atom, score
      P1  H  7989  7998       L1    10  1.00

> <Gold.PLP.Chemscore.Internal.Correction>
0.2890

> <Gold.Rescore>
     Score         DG    S(hbond)    S(metal)    S(lipo)     H(rot)  DE(clash)    DE(int)     intcor
     16.35     -17.21       1.00        0.00     104.17       1.48       0.04       0.83       ----

> <Gold.Chemscore.Fitness>
16.3498

> <Gold.Chemscore.DG>
-17.2145

> <Gold.Chemscore.ZeroCoef>
-5.4800

> <Gold.Chemscore.Hbond>
0.9955

> <Gold.Chemscore.Metal>
0.0000

> <Gold.Chemscore.Lipo>
104.1669

> <Gold.Chemscore.Internal_Hbond>
0.0000

> <Gold.Chemscore.DEClash>
0.0358

> <Gold.Chemscore.DEInternal>
0.8289

> <Gold.Chemscore.Rot>
1.4758

> <Gold.Chemscore.Internal.Correction>
   9.000000E+99

> <Gold.Chemscore.Hbonds>
donor molecule, donor type, donor heavy atom, donor atom, acceptor molecule, acceptor atom, score
      P1  H  7989  7998       L1    10  1.00

> <Gold.Chemscore.Hbond.Weighted>
-3.3249

> <Gold.Chemscore.Metal.Weighted>
-0.0000

> <Gold.Chemscore.Lipo.Weighted>
-12.1875

> <Gold.Chemscore.Internal_Hbond.Weighted>
0.0000

> <Gold.Chemscore.DEClash.Weighted>
0.0358

> <Gold.Chemscore.DEInternal.Weighted>
0.8289

> <Gold.Chemscore.Rot.Weighted>
3.7780

> <Gold.Chemscore.Internal.Correction.Weighted>
   9.000000E+99

> <Gold.Protein.RotatedTorsions>
[ 6907 6896 6895 6894 ] final    7.36 input  -60.11 | X-H torsion
[ 7974 7965 7964 7962 ] final  168.99 input  175.53 | X-H torsion
[ 8008 7997 7996 7995 ] final  149.80 input   59.86 | X-H torsion
[ 10167 10162 10161 10158 ] final  154.26 input  -65.29 | X-H torsion
[ 10718 10713 10712 10709 ] final -172.46 input   66.30 | X-H torsion
[ 10763 10752 10751 10750 ] final  -51.54 input  -60.55 | X-H torsion
[ 11005 11000 10999 10996 ] final   -7.90 input  -57.11 | X-H torsion

> <Gold.Protein.ActiveResidues>
 VAL166  LYS551  ARG553  GLY616  TRP617  ASP618  TYR619  PRO620  LYS621  CYS622 
 ASP623  PHE694  ASN695  SER759  ASP760  ASP761  ALA762  ILE779  LEU786  VAL792 
 PHE793  MET794  SER795  GLU796  ALA797  LYS798  CYS799  TRP800  GLU811  SER814 

> <Gold.Protein.RotatedAtoms>
  151.6886  135.0950  160.0229 H   0  0  0  0  0  0  0  0  0  0  0  0  # atno 6907 bound_to 6896
  152.3792  133.6519  159.6156 H   0  0  0  0  0  0  0  0  0  0  0  0  # atno 6908 bound_to 6896
  150.7733  133.9058  159.3396 H   0  0  0  0  0  0  0  0  0  0  0  0  # atno 6909 bound_to 6896
  144.7370  139.8988  143.6408 H   0  0  0  0  0  0  0  0  0  0  0  0  # atno 7974 bound_to 7965
  156.2741  140.2092  156.5916 H   0  0  0  0  0  0  0  0  0  0  0  0  # atno 8008 bound_to 7997
  154.6978  140.0524  157.0451 H   0  0  0  0  0  0  0  0  0  0  0  0  # atno 8009 bound_to 7997
  155.0777  140.3183  155.4614 H   0  0  0  0  0  0  0  0  0  0  0  0  # atno 8010 bound_to 7997
  139.4824  144.5202  151.7887 H   0  0  0  0  0  0  0  0  0  0  0  0  # atno 10167 bound_to 10162
  156.7559  130.9395  151.3116 H   0  0  0  0  0  0  0  0  0  0  0  0  # atno 10718 bound_to 10713
  154.1282  135.6524  153.4916 H   0  0  0  0  0  0  0  0  0  0  0  0  # atno 10763 bound_to 10752
  153.0203  135.5286  154.7028 H   0  0  0  0  0  0  0  0  0  0  0  0  # atno 10764 bound_to 10752
  154.6255  135.2970  155.0248 H   0  0  0  0  0  0  0  0  0  0  0  0  # atno 10765 bound_to 10752
  140.7178  133.8854  155.8798 H   0  0  0  0  0  0  0  0  0  0  0  0  # atno 11005 bound_to 11000
  146.1087  139.4090  143.0301 LP  0  0  0  0  0  0  0  0  0  0  0  0  # atno 17320 bound_to 7965
  145.7474  140.9985  143.1268 LP  0  0  0  0  0  0  0  0  0  0  0  0  # atno 17321 bound_to 7965
  140.4716  144.1579  150.5919 LP  0  0  0  0  0  0  0  0  0  0  0  0  # atno 17342 bound_to 10162
  140.4376  143.2540  151.9514 LP  0  0  0  0  0  0  0  0  0  0  0  0  # atno 17343 bound_to 10162
  157.6756  130.9091  150.0143 LP  0  0  0  0  0  0  0  0  0  0  0  0  # atno 17370 bound_to 10713
  156.1370  130.3642  149.9641 LP  0  0  0  0  0  0  0  0  0  0  0  0  # atno 17371 bound_to 10713
  141.0030  134.1125  157.4298 LP  0  0  0  0  0  0  0  0  0  0  0  0  # atno 17394 bound_to 11000
  139.8855  135.0073  156.6442 LP  0  0  0  0  0  0  0  0  0  0  0  0  # atno 17395 bound_to 11000

$$$$
