AV-unprocessed.smi:2106|AV-procd|sdf|8598|dock9
  -GOLD-   2272011333D 1   1.00000     0.00000
 Structure written by MMmdl.
 48 49  0  0  0  0  0  0  0  0  2 V2000
  154.3640  141.8894  161.0888 C   0  0  0  0  0  0  0  0  0  0  0  0
  153.3859  142.3592  160.0530 C   0  0  0  0  0  0  0  0  0  0  0  0
  153.0946  143.6945  159.6580 C   0  0  0  0  0  0  0  0  0  0  0  0
  152.1412  143.5602  158.6886 C   0  0  0  0  0  0  0  0  0  0  0  0
  151.4323  144.6008  157.8856 C   0  0  0  0  0  0  0  0  0  0  0  0
  151.9053  142.2043  158.5434 N   0  0  0  0  0  0  0  0  0  0  0  0
  150.9918  141.5230  157.6402 C   0  0  0  0  0  0  0  0  0  0  0  0
  151.7403  140.5378  156.7411 C   0  0  0  0  0  0  0  0  0  0  0  0
  152.8454  140.1124  157.0773 O   0  0  0  0  0  0  0  0  0  0  0  0
  151.1273  140.1816  155.6014 N   0  0  0  0  0  0  0  0  0  0  0  0
  151.6545  139.2354  154.6252 C   0  0  0  0  0  0  0  0  0  0  0  0
  150.5445  138.6773  153.7123 C   0  0  0  0  0  0  0  0  0  0  0  0
  150.0393  137.3577  154.1670 N   0  3  1  0  0  0  0  0  0  0  0  0
  151.1331  136.3791  154.3700 C   0  0  0  0  0  0  0  0  0  0  0  0
  150.5644  134.9974  154.7410 C   0  0  1  0  0  0  0  0  0  0  0  0
  151.6723  133.9864  155.0568 C   0  0  0  0  0  0  0  0  0  0  0  0
  149.7415  135.1167  155.8983 O   0  0  0  0  0  0  0  0  0  0  0  0
  148.6580  136.0368  155.7715 C   0  0  2  0  0  0  0  0  0  0  0  0
  147.5530  135.5121  154.8369 C   0  0  0  0  0  0  0  0  0  0  0  0
  149.1858  137.4307  155.3787 C   0  0  0  0  0  0  0  0  0  0  0  0
  152.6710  141.4711  159.3816 N   0  0  0  0  0  0  0  0  0  0  0  0
  154.8526  142.7317  161.5788 H   0  0  0  0  0  0  0  0  0  0  0  0
  155.1413  141.2692  160.6422 H   0  0  0  0  0  0  0  0  0  0  0  0
  153.8673  141.3003  161.8604 H   0  0  0  0  0  0  0  0  0  0  0  0
  153.5224  144.6138  160.0300 H   0  0  0  0  0  0  0  0  0  0  0  0
  151.7922  145.5982  158.1374 H   0  0  0  0  0  0  0  0  0  0  0  0
  150.3592  144.5741  158.0756 H   0  0  0  0  0  0  0  0  0  0  0  0
  151.5932  144.4471  156.8185 H   0  0  0  0  0  0  0  0  0  0  0  0
  150.2289  141.0019  158.2215 H   0  0  0  0  0  0  0  0  0  0  0  0
  150.4718  142.2620  157.0299 H   0  0  0  0  0  0  0  0  0  0  0  0
  150.2169  140.5765  155.4123 H   0  0  0  0  0  0  0  0  0  0  0  0
  152.4379  139.7282  154.0491 H   0  0  0  0  0  0  0  0  0  0  0  0
  152.1332  138.4208  155.1694 H   0  0  0  0  0  0  0  0  0  0  0  0
  149.7193  139.3911  153.7081 H   0  0  0  0  0  0  0  0  0  0  0  0
  150.8875  138.5968  152.6797 H   0  0  0  0  0  0  0  0  0  0  0  0
  151.7264  136.2952  153.4585 H   0  0  0  0  0  0  0  0  0  0  0  0
  151.8012  136.7383  155.1549 H   0  0  0  0  0  0  0  0  0  0  0  0
  149.9779  134.6065  153.9093 H   0  0  0  0  0  0  0  0  0  0  0  0
  152.3329  133.8458  154.2008 H   0  0  0  0  0  0  0  0  0  0  0  0
  151.2510  133.0144  155.3144 H   0  0  0  0  0  0  0  0  0  0  0  0
  152.2809  134.3178  155.8987 H   0  0  0  0  0  0  0  0  0  0  0  0
  148.2159  136.1180  156.7651 H   0  0  0  0  0  0  0  0  0  0  0  0
  146.6817  136.1669  154.8637 H   0  0  0  0  0  0  0  0  0  0  0  0
  147.2258  134.5180  155.1425 H   0  0  0  0  0  0  0  0  0  0  0  0
  147.8795  135.4523  153.7989 H   0  0  0  0  0  0  0  0  0  0  0  0
  149.7714  137.8446  156.2013 H   0  0  0  0  0  0  0  0  0  0  0  0
  148.3435  138.1042  155.2244 H   0  0  0  0  0  0  0  0  0  0  0  0
  149.4650  136.9937  153.4201 H   0  0  0  0  0  0  0  0  0  0  0  0
  1  2  1  0  0  0  0
  1 22  1  0  0  0  0
  1 23  1  0  0  0  0
  1 24  1  0  0  0  0
  2 21  2  0  0  0  0
  2  3  1  0  0  0  0
  3  4  2  0  0  0  0
  3 25  1  0  0  0  0
  4  5  1  0  0  0  0
  4  6  1  0  0  0  0
  5 26  1  0  0  0  0
  5 27  1  0  0  0  0
  5 28  1  0  0  0  0
  6  7  1  0  0  0  0
  6 21  1  0  0  0  0
  7  8  1  0  0  0  0
  7 29  1  0  0  0  0
  7 30  1  0  0  0  0
  8  9  2  0  0  0  0
  8 10  1  0  0  0  0
 10 11  1  0  0  0  0
 10 31  1  0  0  0  0
 11 12  1  0  0  0  0
 11 32  1  0  0  0  0
 11 33  1  0  0  0  0
 12 13  1  0  0  0  0
 12 34  1  0  0  0  0
 12 35  1  0  0  0  0
 13 20  1  0  0  0  0
 13 14  1  0  0  0  0
 13 48  1  0  0  0  0
 14 15  1  0  0  0  0
 14 36  1  0  0  0  0
 14 37  1  0  0  0  0
 15 16  1  0  0  0  0
 15 17  1  0  0  0  0
 15 38  1  0  0  0  0
 16 39  1  0  0  0  0
 16 40  1  0  0  0  0
 16 41  1  0  0  0  0
 17 18  1  0  0  0  0
 18 19  1  0  0  0  0
 18 20  1  0  0  0  0
 18 42  1  0  0  0  0
 19 43  1  0  0  0  0
 19 44  1  0  0  0  0
 19 45  1  0  0  0  0
 20 46  1  0  0  0  0
 20 47  1  0  0  0  0
M  CHG  1  13   1
M  END
> <s_m_source_file>
AV-unprocessed.smi

> <i_m_source_file_index>
2106

> <i_lp_mmshare_version>
43012

> <i_f3d_flags>
0

> <s_epik_input>
W0NIM11jMVtjSF1jKFtDSDNdKW4objEpW0NIMl1DKD1PKVtOSF1bQ0gyXVtDSDJdTjJbQ0gyXVtDQEBIXShbQ0gzXSlPW0NAQEhdKFtDSDNdKVtDSDJdMg==

> <s_epik_cmdline>
J2VwaWtfcHl0aG9uJywgJy1waCcsICc3LjAnLCAnLXRuJywgJzgnLCAnLW1hJywgJzIwMCcsICctbWV0YWxfYmluZGluZycsICctaW1hZScsICc8aW5maWxlLm1hZT4nLCAnLW9tYWUnLCAnPG91dGZpbGUubWFlPic=

> <r_lp_tautomer_probability>
1

> <r_epik_Ionization_Penalty>
0.748586

> <r_epik_Ionization_Penalty_Charging>
0.748396

> <r_epik_Ionization_Penalty_Neutral>
0.000189656

> <r_epik_State_Penalty>
0.775162

> <r_epik_Charging_Adjusted_Penalty>
1.52356

> <i_epik_Tot_Q>
1

> <i_epik_Tot_abs_Q>
1

> <r_epik_Metal_State_Penalty>
0.775295

> <b_epik_Metal_Only>
0

> <s_lp_Force_Field>
OPLS_2005

> <r_lp_Energy>
15.4858

> <b_lp_Chiralities_Consistent>
1

> <s_lp_Variant>
AV-unprocessed.smi:2106-6

> <Gold.Version>
5.8.1

> <Gold.Id.Protein>
6NUR|6NUR_protein|mol2

> <Gold.PLP.Fitness>
48.7063

> <Gold.PLP.PLP>
-41.1850

> <Gold.PLP.part.hbond>
-2.0635

> <Gold.PLP.part.metal>
0.0000

> <Gold.PLP.part.buried>
-5.6023

> <Gold.PLP.part.nonpolar>
-33.7416

> <Gold.PLP.part.repulsive>
0.1939

> <Gold.PLP.ligand.clash>
0.0000

> <Gold.PLP.ligand.torsion>
0.7605

> <Gold.PLP.Chemscore.Hbond>
3.0000

> <Gold.PLP.Chemscore.CHOScore>
0.0000

> <Gold.PLP.Chemscore.Metal>
0.0000

> <Gold.Chemscore.Hbonds>
donor molecule, donor type, donor heavy atom, donor atom, acceptor molecule, acceptor atom, score
      L1  H    13    48       P1  7948  2.00
      P1  H  7997  8010       L1     9  1.00

> <Gold.PLP.Chemscore.Internal.Correction>
0.0423

> <Gold.Rescore>
     Score         DG    S(hbond)    S(metal)    S(lipo)     H(rot)  DE(clash)    DE(int)     intcor
     16.76     -19.22       1.89        0.00     101.25       1.73       0.02       2.44       ----

> <Gold.Chemscore.Fitness>
16.7615

> <Gold.Chemscore.DG>
-19.2185

> <Gold.Chemscore.ZeroCoef>
-5.4800

> <Gold.Chemscore.Hbond>
1.8936

> <Gold.Chemscore.Metal>
0.0000

> <Gold.Chemscore.Lipo>
101.2548

> <Gold.Chemscore.Internal_Hbond>
0.0000

> <Gold.Chemscore.DEClash>
0.0202

> <Gold.Chemscore.DEInternal>
2.4368

> <Gold.Chemscore.Rot>
1.7316

> <Gold.Chemscore.Internal.Correction>
   9.000000E+99

> <Gold.Chemscore.Hbonds>
donor molecule, donor type, donor heavy atom, donor atom, acceptor molecule, acceptor atom, score
      L1  H    13    48       P1  7948  0.88
      P1  H  7997  8010       L1     9  0.96

> <Gold.Chemscore.Hbond.Weighted>
-6.3246

> <Gold.Chemscore.Metal.Weighted>
-0.0000

> <Gold.Chemscore.Lipo.Weighted>
-11.8468

> <Gold.Chemscore.Internal_Hbond.Weighted>
0.0000

> <Gold.Chemscore.DEClash.Weighted>
0.0202

> <Gold.Chemscore.DEInternal.Weighted>
2.4368

> <Gold.Chemscore.Rot.Weighted>
4.4330

> <Gold.Chemscore.Internal.Correction.Weighted>
   9.000000E+99

> <Gold.Protein.RotatedTorsions>
[ 6907 6896 6895 6894 ] final   27.77 input  -60.11 | X-H torsion
[ 7974 7965 7964 7962 ] final  -75.79 input  175.53 | X-H torsion
[ 8008 7997 7996 7995 ] final   61.07 input   59.86 | X-H torsion
[ 10167 10162 10161 10158 ] final -172.86 input  -65.29 | X-H torsion
[ 10718 10713 10712 10709 ] final  -99.43 input   66.30 | X-H torsion
[ 10763 10752 10751 10750 ] final -119.48 input  -60.55 | X-H torsion
[ 11005 11000 10999 10996 ] final  -77.94 input  -57.11 | X-H torsion

> <Gold.Protein.ActiveResidues>
 VAL166  LYS551  ARG553  GLY616  TRP617  ASP618  TYR619  PRO620  LYS621  CYS622 
 ASP623  PHE694  ASN695  SER759  ASP760  ASP761  ALA762  ILE779  LEU786  VAL792 
 PHE793  MET794  SER795  GLU796  ALA797  LYS798  CYS799  TRP800  GLU811  SER814 

> <Gold.Protein.RotatedAtoms>
  152.0072  134.9896  160.0566 H   0  0  0  0  0  0  0  0  0  0  0  0  # atno 6907 bound_to 6896
  152.1463  133.4490  159.4800 H   0  0  0  0  0  0  0  0  0  0  0  0  # atno 6908 bound_to 6896
  150.6870  134.2161  159.4421 H   0  0  0  0  0  0  0  0  0  0  0  0  # atno 6909 bound_to 6896
  145.6213  140.9362  143.1136 H   0  0  0  0  0  0  0  0  0  0  0  0  # atno 7974 bound_to 7965
  155.5924  140.3493  155.4570 H   0  0  0  0  0  0  0  0  0  0  0  0  # atno 8008 bound_to 7997
  156.0291  140.1270  157.0302 H   0  0  0  0  0  0  0  0  0  0  0  0  # atno 8009 bound_to 7997
  154.4345  140.1047  156.6059 H   0  0  0  0  0  0  0  0  0  0  0  0  # atno 8010 bound_to 7997
  139.5720  144.1618  152.1398 H   0  0  0  0  0  0  0  0  0  0  0  0  # atno 10167 bound_to 10162
  156.0134  130.5282  150.6669 H   0  0  0  0  0  0  0  0  0  0  0  0  # atno 10718 bound_to 10713
  154.8618  135.4237  154.2306 H   0  0  0  0  0  0  0  0  0  0  0  0  # atno 10763 bound_to 10752
  153.3291  135.6987  153.6969 H   0  0  0  0  0  0  0  0  0  0  0  0  # atno 10764 bound_to 10752
  153.5992  135.3540  155.2913 H   0  0  0  0  0  0  0  0  0  0  0  0  # atno 10765 bound_to 10752
  141.1663  133.7043  156.7897 H   0  0  0  0  0  0  0  0  0  0  0  0  # atno 11005 bound_to 11000
  144.7230  139.7968  143.7375 LP  0  0  0  0  0  0  0  0  0  0  0  0  # atno 17320 bound_to 7965
  146.1429  139.4490  143.0098 LP  0  0  0  0  0  0  0  0  0  0  0  0  # atno 17321 bound_to 7965
  140.1153  144.5421  150.6898 LP  0  0  0  0  0  0  0  0  0  0  0  0  # atno 17342 bound_to 10162
  140.7005  143.2431  151.4879 LP  0  0  0  0  0  0  0  0  0  0  0  0  # atno 17343 bound_to 10162
  157.4400  131.0860  151.0953 LP  0  0  0  0  0  0  0  0  0  0  0  0  # atno 17370 bound_to 10713
  157.1500  130.6180  149.5579 LP  0  0  0  0  0  0  0  0  0  0  0  0  # atno 17371 bound_to 10713
  140.2334  134.8668  157.3500 LP  0  0  0  0  0  0  0  0  0  0  0  0  # atno 17394 bound_to 11000
  140.1868  134.4421  155.7739 LP  0  0  0  0  0  0  0  0  0  0  0  0  # atno 17395 bound_to 11000

$$$$
