AV-unprocessed.smi:1320|AV-procd|sdf|5461|dock10
  -GOLD-   22720 5 33D 1   1.00000     0.00000
 Structure written by MMmdl.
 37 38  0  0  0  0  0  0  0  0  2 V2000
  144.5156  136.7591  152.5891 O   0  0  0  0  0  0  0  0  0  0  0  0
  145.7165  136.6478  152.3502 C   0  0  0  0  0  0  0  0  0  0  0  0
  146.6529  137.4658  152.8621 N   0  0  0  0  0  0  0  0  0  0  0  0
  146.4016  138.5805  153.7722 C   0  0  0  0  0  0  0  0  0  0  0  0
  147.2932  139.8049  153.4844 C   0  0  0  0  0  0  0  0  0  0  0  0
  148.7208  139.6588  153.9819 C   0  0  0  0  0  0  0  0  0  0  0  0
  149.3011  140.5905  154.8693 C   0  0  0  0  0  0  0  0  0  0  0  0
  150.6417  140.4169  155.2716 C   0  0  0  0  0  0  0  0  0  0  0  0
  151.3739  139.3174  154.7778 C   0  0  0  0  0  0  0  0  0  0  0  0
  150.7457  138.4176  153.8932 C   0  0  0  0  0  0  0  0  0  0  0  0
  149.4592  138.6174  153.5325 N   0  3  0  0  0  0  0  0  0  0  0  0
  146.1922  135.6875  151.5380 N   0  0  0  0  0  0  0  0  0  0  0  0
  145.4406  134.6488  150.8294 C   0  0  0  0  0  0  0  0  0  0  0  0
  144.2988  134.1073  151.7109 C   0  0  0  0  0  0  0  0  0  0  0  0
  144.3745  132.5833  151.6122 C   0  0  0  0  0  0  0  0  0  0  0  0
  145.8558  132.2957  151.3930 C   0  0  0  0  0  0  0  0  0  0  0  0
  146.3289  133.4342  150.4884 C   0  0  0  0  0  0  0  0  0  0  0  0
  147.6162  137.2889  152.6161 H   0  0  0  0  0  0  0  0  0  0  0  0
  145.3494  138.8686  153.7445 H   0  0  0  0  0  0  0  0  0  0  0  0
  146.5901  138.2286  154.7865 H   0  0  0  0  0  0  0  0  0  0  0  0
  147.3178  139.9902  152.4099 H   0  0  0  0  0  0  0  0  0  0  0  0
  146.8499  140.6956  153.9323 H   0  0  0  0  0  0  0  0  0  0  0  0
  148.7302  141.4333  155.2307 H   0  0  0  0  0  0  0  0  0  0  0  0
  151.1037  141.1213  155.9475 H   0  0  0  0  0  0  0  0  0  0  0  0
  152.4029  139.1689  155.0715 H   0  0  0  0  0  0  0  0  0  0  0  0
  151.2301  137.5529  153.4637 H   0  0  0  0  0  0  0  0  0  0  0  0
  147.1936  135.6661  151.4080 H   0  0  0  0  0  0  0  0  0  0  0  0
  145.0123  135.0575  149.9124 H   0  0  0  0  0  0  0  0  0  0  0  0
  144.4445  134.3996  152.7522 H   0  0  0  0  0  0  0  0  0  0  0  0
  143.3241  134.4878  151.4042 H   0  0  0  0  0  0  0  0  0  0  0  0
  143.9749  132.0855  152.4960 H   0  0  0  0  0  0  0  0  0  0  0  0
  143.8021  132.2412  150.7488 H   0  0  0  0  0  0  0  0  0  0  0  0
  146.3831  132.3406  152.3467 H   0  0  0  0  0  0  0  0  0  0  0  0
  146.0342  131.3118  150.9586 H   0  0  0  0  0  0  0  0  0  0  0  0
  146.1690  133.1548  149.4462 H   0  0  0  0  0  0  0  0  0  0  0  0
  147.3962  133.6272  150.6059 H   0  0  0  0  0  0  0  0  0  0  0  0
  149.0270  137.9576  152.8854 H   0  0  0  0  0  0  0  0  0  0  0  0
  1  2  2  0  0  0  0
  2  3  1  0  0  0  0
  2 12  1  0  0  0  0
  3  4  1  0  0  0  0
  3 18  1  0  0  0  0
  4  5  1  0  0  0  0
  4 19  1  0  0  0  0
  4 20  1  0  0  0  0
  5  6  1  0  0  0  0
  5 21  1  0  0  0  0
  5 22  1  0  0  0  0
  6 11  1  0  0  0  0
  6  7  2  0  0  0  0
  7  8  1  0  0  0  0
  7 23  1  0  0  0  0
  8  9  2  0  0  0  0
  8 24  1  0  0  0  0
  9 10  1  0  0  0  0
  9 25  1  0  0  0  0
 10 11  2  0  0  0  0
 10 26  1  0  0  0  0
 11 37  1  0  0  0  0
 12 13  1  0  0  0  0
 12 27  1  0  0  0  0
 13 17  1  0  0  0  0
 13 14  1  0  0  0  0
 13 28  1  0  0  0  0
 14 15  1  0  0  0  0
 14 29  1  0  0  0  0
 14 30  1  0  0  0  0
 15 16  1  0  0  0  0
 15 31  1  0  0  0  0
 15 32  1  0  0  0  0
 16 17  1  0  0  0  0
 16 33  1  0  0  0  0
 16 34  1  0  0  0  0
 17 35  1  0  0  0  0
 17 36  1  0  0  0  0
M  CHG  1  11   1
M  END
> <s_m_source_file>
AV-unprocessed.smi

> <i_m_source_file_index>
1320

> <i_lp_mmshare_version>
43012

> <i_f3d_flags>
0

> <s_epik_input>
W0NIMl0xW0NIMl1bQ0gyXVtDSDJdW0NIXTFbTkhdQyg9TylbTkhdW0NIMl1bQ0gyXWMyW2NIXVtjSF1bY0hdW2NIXW4y

> <s_epik_cmdline>
J2VwaWtfcHl0aG9uJywgJy1waCcsICc3LjAnLCAnLXRuJywgJzgnLCAnLW1hJywgJzIwMCcsICctbWV0YWxfYmluZGluZycsICctaW1hZScsICc8aW5maWxlLm1hZT4nLCAnLW9tYWUnLCAnPG91dGZpbGUubWFlPic=

> <r_epik_Ionization_Penalty>
1.56194

> <r_epik_Ionization_Penalty_Charging>
1.56188

> <r_epik_Ionization_Penalty_Neutral>
5.76468e-05

> <r_epik_State_Penalty>
1.65696

> <r_epik_Charging_Adjusted_Penalty>
3.21884

> <i_epik_Tot_Q>
1

> <i_epik_Tot_abs_Q>
1

> <r_epik_Metal_State_Penalty>
1.69837

> <b_epik_Metal_Only>
0

> <s_lp_Force_Field>
OPLS_2005

> <r_lp_Energy>
32.6171

> <b_lp_Chiralities_Consistent>
1

> <s_lp_Variant>
AV-unprocessed.smi:1320-2

> <Gold.Version>
5.8.1

> <Gold.Id.Protein>
6NUR|6NUR_protein|mol2

> <Gold.PLP.Fitness>
44.3630

> <Gold.PLP.PLP>
-33.4508

> <Gold.PLP.part.hbond>
-4.0000

> <Gold.PLP.part.metal>
0.0000

> <Gold.PLP.part.buried>
-1.4127

> <Gold.PLP.part.nonpolar>
-27.7798

> <Gold.PLP.part.repulsive>
0.3716

> <Gold.PLP.ligand.clash>
0.0000

> <Gold.PLP.ligand.torsion>
0.5502

> <Gold.PLP.Chemscore.Hbond>
4.0000

> <Gold.PLP.Chemscore.CHOScore>
0.0000

> <Gold.PLP.Chemscore.Metal>
0.0000

> <Gold.Chemscore.Hbonds>
donor molecule, donor type, donor heavy atom, donor atom, acceptor molecule, acceptor atom, score
      L1  H     3    18       P1  7948  1.00
      L1  H    11    37       P1  7948  2.00
      L1  H    12    27       P1  7948  1.00

> <Gold.PLP.Chemscore.Internal.Correction>
0.0125

> <Gold.Rescore>
     Score         DG    S(hbond)    S(metal)    S(lipo)     H(rot)  DE(clash)    DE(int)     intcor
     18.38     -20.09       2.89        0.00      77.20       1.59       0.02       1.70       ----

> <Gold.Chemscore.Fitness>
18.3789

> <Gold.Chemscore.DG>
-20.0948

> <Gold.Chemscore.ZeroCoef>
-5.4800

> <Gold.Chemscore.Hbond>
2.8926

> <Gold.Chemscore.Metal>
0.0000

> <Gold.Chemscore.Lipo>
77.1970

> <Gold.Chemscore.Internal_Hbond>
0.0000

> <Gold.Chemscore.DEClash>
0.0174

> <Gold.Chemscore.DEInternal>
1.6985

> <Gold.Chemscore.Rot>
1.5932

> <Gold.Chemscore.Internal.Correction>
   9.000000E+99

> <Gold.Chemscore.Hbonds>
donor molecule, donor type, donor heavy atom, donor atom, acceptor molecule, acceptor atom, score
      L1  H     3    18       P1  7948  0.96
      L1  H    11    37       P1  7948  0.95
      L1  H    12    27       P1  7948  0.95

> <Gold.Chemscore.Hbond.Weighted>
-9.6613

> <Gold.Chemscore.Metal.Weighted>
-0.0000

> <Gold.Chemscore.Lipo.Weighted>
-9.0321

> <Gold.Chemscore.Internal_Hbond.Weighted>
0.0000

> <Gold.Chemscore.DEClash.Weighted>
0.0174

> <Gold.Chemscore.DEInternal.Weighted>
1.6985

> <Gold.Chemscore.Rot.Weighted>
4.0785

> <Gold.Chemscore.Internal.Correction.Weighted>
   9.000000E+99

> <Gold.Protein.RotatedTorsions>
[ 6907 6896 6895 6894 ] final  -93.66 input  -60.11 | X-H torsion
[ 7974 7965 7964 7962 ] final   28.91 input  175.53 | X-H torsion
[ 8008 7997 7996 7995 ] final  105.70 input   59.86 | X-H torsion
[ 10167 10162 10161 10158 ] final   73.17 input  -65.29 | X-H torsion
[ 10718 10713 10712 10709 ] final -123.41 input   66.30 | X-H torsion
[ 10763 10752 10751 10750 ] final  -43.51 input  -60.55 | X-H torsion
[ 11005 11000 10999 10996 ] final  -11.54 input  -57.11 | X-H torsion

> <Gold.Protein.ActiveResidues>
 VAL166  LYS551  ARG553  GLY616  TRP617  ASP618  TYR619  PRO620  LYS621  CYS622 
 ASP623  PHE694  ASN695  SER759  ASP760  ASP761  ALA762  ILE779  LEU786  VAL792 
 PHE793  MET794  SER795  GLU796  ALA797  LYS798  CYS799  TRP800  GLU811  SER814 

> <Gold.Protein.RotatedAtoms>
  150.6926  134.1933  159.4293 H   0  0  0  0  0  0  0  0  0  0  0  0  # atno 6907 bound_to 6896
  151.9903  134.9980  160.0570 H   0  0  0  0  0  0  0  0  0  0  0  0  # atno 6908 bound_to 6896
  152.1674  133.4586  159.4928 H   0  0  0  0  0  0  0  0  0  0  0  0  # atno 6909 bound_to 6896
  146.1702  139.6992  142.8973 H   0  0  0  0  0  0  0  0  0  0  0  0  # atno 7974 bound_to 7965
  156.1681  140.3126  155.8924 H   0  0  0  0  0  0  0  0  0  0  0  0  # atno 8008 bound_to 7997
  155.3644  140.0478  157.3063 H   0  0  0  0  0  0  0  0  0  0  0  0  # atno 8009 bound_to 7997
  154.5213  140.2199  155.8982 H   0  0  0  0  0  0  0  0  0  0  0  0  # atno 8010 bound_to 7997
  140.0274  144.5492  150.7534 H   0  0  0  0  0  0  0  0  0  0  0  0  # atno 10167 bound_to 10162
  156.1500  130.6527  150.9899 H   0  0  0  0  0  0  0  0  0  0  0  0  # atno 10718 bound_to 10713
  153.9968  135.6698  153.4757 H   0  0  0  0  0  0  0  0  0  0  0  0  # atno 10763 bound_to 10752
  153.0680  135.4990  154.8239 H   0  0  0  0  0  0  0  0  0  0  0  0  # atno 10764 bound_to 10752
  154.7076  135.3091  154.9209 H   0  0  0  0  0  0  0  0  0  0  0  0  # atno 10765 bound_to 10752
  140.7564  133.8551  155.9087 H   0  0  0  0  0  0  0  0  0  0  0  0  # atno 11005 bound_to 11000
  145.4361  141.0419  143.2883 LP  0  0  0  0  0  0  0  0  0  0  0  0  # atno 17320 bound_to 7965
  144.8151  139.5891  143.7012 LP  0  0  0  0  0  0  0  0  0  0  0  0  # atno 17321 bound_to 7965
  140.7317  143.2697  151.3929 LP  0  0  0  0  0  0  0  0  0  0  0  0  # atno 17342 bound_to 10162
  139.6099  144.1120  152.2287 LP  0  0  0  0  0  0  0  0  0  0  0  0  # atno 17343 bound_to 10162
  157.6649  131.0873  150.7753 LP  0  0  0  0  0  0  0  0  0  0  0  0  # atno 17370 bound_to 10713
  156.7822  130.4863  149.5399 LP  0  0  0  0  0  0  0  0  0  0  0  0  # atno 17371 bound_to 10713
  140.9704  134.1539  157.4581 LP  0  0  0  0  0  0  0  0  0  0  0  0  # atno 17394 bound_to 11000
  139.8778  134.9976  156.5857 LP  0  0  0  0  0  0  0  0  0  0  0  0  # atno 17395 bound_to 11000

$$$$
