AV-unprocessed.smi:965|AV-procd|sdf|4282|dock1
  -GOLD-   22720 2183D 1   1.00000     0.00000
 Structure written by MMmdl.
 29 30  0  0  0  0  0  0  0  0  2 V2000
  153.0984  142.3480  160.8522 C   0  0  0  0  0  0  0  0  0  0  0  0
  153.5576  141.1337  160.0385 C   0  0  0  0  0  0  0  0  0  0  0  0
  152.7740  140.9583  158.7810 C   0  0  0  0  0  0  0  0  0  0  0  0
  151.7700  141.7164  158.3472 N   0  0  0  0  0  0  0  0  0  0  0  0
  151.4126  141.0547  157.2110 C   0  0  0  0  0  0  0  0  0  0  0  0
  150.3009  141.5109  156.3168 C   0  0  1  0  0  0  0  0  0  0  0  0
  150.1207  140.5880  155.0964 C   0  0  0  0  0  0  0  0  0  0  0  0
  148.9652  141.0855  154.2143 C   0  0  0  0  0  0  0  0  0  0  0  0
  147.6766  141.2513  155.0373 C   0  0  0  0  0  0  0  0  0  0  0  0
  147.9004  142.1601  156.1830 N   0  3  0  0  0  0  0  0  0  0  0  0
  148.9779  141.6990  157.0865 C   0  0  0  0  0  0  0  0  0  0  0  0
  152.1133  139.9613  156.9347 N   0  0  0  0  0  0  0  0  0  0  0  0
  153.0251  139.8825  157.9970 O   0  0  0  0  0  0  0  0  0  0  0  0
  153.6856  142.4492  161.7649 H   0  0  0  0  0  0  0  0  0  0  0  0
  152.0503  142.2557  161.1386 H   0  0  0  0  0  0  0  0  0  0  0  0
  153.2101  143.2694  160.2799 H   0  0  0  0  0  0  0  0  0  0  0  0
  154.6131  141.2343  159.7836 H   0  0  0  0  0  0  0  0  0  0  0  0
  153.4648  140.2277  160.6383 H   0  0  0  0  0  0  0  0  0  0  0  0
  150.5828  142.4924  155.9297 H   0  0  0  0  0  0  0  0  0  0  0  0
  151.0423  140.5438  154.5148 H   0  0  0  0  0  0  0  0  0  0  0  0
  149.9105  139.5697  155.4268 H   0  0  0  0  0  0  0  0  0  0  0  0
  149.2354  142.0396  153.7595 H   0  0  0  0  0  0  0  0  0  0  0  0
  148.7966  140.3885  153.3929 H   0  0  0  0  0  0  0  0  0  0  0  0
  146.8785  141.6546  154.4135 H   0  0  0  0  0  0  0  0  0  0  0  0
  147.3345  140.2838  155.4072 H   0  0  0  0  0  0  0  0  0  0  0  0
  148.1484  143.0716  155.8252 H   0  0  0  0  0  0  0  0  0  0  0  0
  148.6691  140.7626  157.5536 H   0  0  0  0  0  0  0  0  0  0  0  0
  149.1031  142.4290  157.8868 H   0  0  0  0  0  0  0  0  0  0  0  0
  147.0428  142.2402  156.7109 H   0  0  0  0  0  0  0  0  0  0  0  0
  1  2  1  0  0  0  0
  1 14  1  0  0  0  0
  1 15  1  0  0  0  0
  1 16  1  0  0  0  0
  2  3  1  0  0  0  0
  2 17  1  0  0  0  0
  2 18  1  0  0  0  0
  3 13  1  0  0  0  0
  3  4  2  0  0  0  0
  4  5  1  0  0  0  0
  5  6  1  0  0  0  0
  5 12  2  0  0  0  0
  6 11  1  0  0  0  0
  6  7  1  0  0  0  0
  6 19  1  0  0  0  0
  7  8  1  0  0  0  0
  7 20  1  0  0  0  0
  7 21  1  0  0  0  0
  8  9  1  0  0  0  0
  8 22  1  0  0  0  0
  8 23  1  0  0  0  0
  9 10  1  0  0  0  0
  9 24  1  0  0  0  0
  9 25  1  0  0  0  0
 10 11  1  0  0  0  0
 10 26  1  0  0  0  0
 10 29  1  0  0  0  0
 11 27  1  0  0  0  0
 11 28  1  0  0  0  0
 12 13  1  0  0  0  0
M  CHG  1  10   1
M  END
> <s_m_source_file>
AV-unprocessed.smi

> <i_m_source_file_index>
965

> <i_lp_mmshare_version>
43012

> <i_f3d_flags>
0

> <s_epik_input>
W0NIM11bQ0gyXWMxbmMobm8xKVtDQEBIXTJbQ0gyXVtDSDJdW0NIMl1bTkhdW0NIMl0y

> <s_epik_cmdline>
J2VwaWtfcHl0aG9uJywgJy1waCcsICc3LjAnLCAnLXRuJywgJzgnLCAnLW1hJywgJzIwMCcsICctbWV0YWxfYmluZGluZycsICctaW1hZScsICc8aW5maWxlLm1hZT4nLCAnLW9tYWUnLCAnPG91dGZpbGUubWFlPic=

> <r_lp_tautomer_probability>
1

> <r_epik_Ionization_Penalty>
0.000532935

> <r_epik_Ionization_Penalty_Charging>
0.000532935

> <r_epik_Ionization_Penalty_Neutral>
3.47051e-13

> <r_epik_State_Penalty>
0.000332992

> <r_epik_Charging_Adjusted_Penalty>
0.000865928

> <i_epik_Tot_Q>
1

> <i_epik_Tot_abs_Q>
1

> <r_epik_Metal_State_Penalty>
-0

> <b_epik_Metal_Only>
0

> <s_lp_Force_Field>
OPLS_2005

> <r_lp_Energy>
5.49554

> <b_lp_Chiralities_Consistent>
1

> <s_lp_Variant>
AV-unprocessed.smi:965-2

> <Gold.Version>
5.8.1

> <Gold.Id.Protein>
6NUR|6NUR_protein|mol2

> <Gold.PLP.Fitness>
33.7173

> <Gold.PLP.PLP>
-24.7471

> <Gold.PLP.part.hbond>
-2.2943

> <Gold.PLP.part.metal>
0.0000

> <Gold.PLP.part.buried>
-2.0061

> <Gold.PLP.part.nonpolar>
-20.5493

> <Gold.PLP.part.repulsive>
0.0249

> <Gold.PLP.ligand.clash>
0.0000

> <Gold.PLP.ligand.torsion>
0.0403

> <Gold.PLP.Chemscore.Hbond>
3.0000

> <Gold.PLP.Chemscore.CHOScore>
0.0000

> <Gold.PLP.Chemscore.Metal>
0.0000

> <Gold.Chemscore.Hbonds>
donor molecule, donor type, donor heavy atom, donor atom, acceptor molecule, acceptor atom, score
      L1  H    10    26       P1  8028  2.00
      P1  H  7997  8010       L1    13  1.00

> <Gold.PLP.Chemscore.Internal.Correction>
0.0507

> <Gold.Rescore>
     Score         DG    S(hbond)    S(metal)    S(lipo)     H(rot)  DE(clash)    DE(int)     intcor
     12.59     -12.68       1.26        0.00      52.60       1.24       0.04       0.05       ----

> <Gold.Chemscore.Fitness>
12.5877

> <Gold.Chemscore.DG>
-12.6767

> <Gold.Chemscore.ZeroCoef>
-5.4800

> <Gold.Chemscore.Hbond>
1.2619

> <Gold.Chemscore.Metal>
0.0000

> <Gold.Chemscore.Lipo>
52.6005

> <Gold.Chemscore.Internal_Hbond>
0.0000

> <Gold.Chemscore.DEClash>
0.0376

> <Gold.Chemscore.DEInternal>
0.0514

> <Gold.Chemscore.Rot>
1.2392

> <Gold.Chemscore.Internal.Correction>
   9.000000E+99

> <Gold.Chemscore.Hbonds>
donor molecule, donor type, donor heavy atom, donor atom, acceptor molecule, acceptor atom, score
      L1  H    10    26       P1  8028  0.82
      P1  H  7997  8010       L1    13  0.24

> <Gold.Chemscore.Hbond.Weighted>
-4.2148

> <Gold.Chemscore.Metal.Weighted>
-0.0000

> <Gold.Chemscore.Lipo.Weighted>
-6.1543

> <Gold.Chemscore.Internal_Hbond.Weighted>
0.0000

> <Gold.Chemscore.DEClash.Weighted>
0.0376

> <Gold.Chemscore.DEInternal.Weighted>
0.0514

> <Gold.Chemscore.Rot.Weighted>
3.1723

> <Gold.Chemscore.Internal.Correction.Weighted>
   9.000000E+99

> <Gold.Protein.RotatedTorsions>
[ 6907 6896 6895 6894 ] final -139.27 input  -60.11 | X-H torsion
[ 7974 7965 7964 7962 ] final   95.40 input  175.53 | X-H torsion
[ 8008 7997 7996 7995 ] final   29.48 input   59.86 | X-H torsion
[ 10167 10162 10161 10158 ] final  -29.91 input  -65.29 | X-H torsion
[ 10718 10713 10712 10709 ] final -121.00 input   66.30 | X-H torsion
[ 10763 10752 10751 10750 ] final   37.63 input  -60.55 | X-H torsion
[ 11005 11000 10999 10996 ] final   86.11 input  -57.11 | X-H torsion

> <Gold.Protein.ActiveResidues>
 VAL166  LYS551  ARG553  GLY616  TRP617  ASP618  TYR619  PRO620  LYS621  CYS622 
 ASP623  PHE694  ASN695  SER759  ASP760  ASP761  ALA762  ILE779  LEU786  VAL792 
 PHE793  MET794  SER795  GLU796  ALA797  LYS798  CYS799  TRP800  GLU811  SER814 

> <Gold.Protein.RotatedAtoms>
  151.0457  133.5667  159.2646 H   0  0  0  0  0  0  0  0  0  0  0  0  # atno 6907 bound_to 6896
  151.2697  135.0680  159.9139 H   0  0  0  0  0  0  0  0  0  0  0  0  # atno 6908 bound_to 6896
  152.5372  134.0189  159.8026 H   0  0  0  0  0  0  0  0  0  0  0  0  # atno 6909 bound_to 6896
  145.4526  139.2292  143.3031 H   0  0  0  0  0  0  0  0  0  0  0  0  # atno 7974 bound_to 7965
  155.0752  140.3204  155.4618 H   0  0  0  0  0  0  0  0  0  0  0  0  # atno 8008 bound_to 7997
  156.2781  140.2104  156.5826 H   0  0  0  0  0  0  0  0  0  0  0  0  # atno 8009 bound_to 7997
  154.7022  140.0506  157.0457 H   0  0  0  0  0  0  0  0  0  0  0  0  # atno 8010 bound_to 7997
  140.7255  143.3891  151.1463 H   0  0  0  0  0  0  0  0  0  0  0  0  # atno 10167 bound_to 10162
  156.1302  130.6390  150.9609 H   0  0  0  0  0  0  0  0  0  0  0  0  # atno 10718 bound_to 10713
  153.0030  135.6272  154.2176 H   0  0  0  0  0  0  0  0  0  0  0  0  # atno 10763 bound_to 10752
  154.1919  135.2808  155.3021 H   0  0  0  0  0  0  0  0  0  0  0  0  # atno 10764 bound_to 10752
  154.5753  135.5664  153.7192 H   0  0  0  0  0  0  0  0  0  0  0  0  # atno 10765 bound_to 10752
  139.8953  134.8333  156.2676 H   0  0  0  0  0  0  0  0  0  0  0  0  # atno 11005 bound_to 11000
  146.2495  140.5287  142.8899 LP  0  0  0  0  0  0  0  0  0  0  0  0  # atno 17320 bound_to 7965
  144.8052  140.6286  143.6452 LP  0  0  0  0  0  0  0  0  0  0  0  0  # atno 17321 bound_to 7965
  139.7493  143.8804  152.3072 LP  0  0  0  0  0  0  0  0  0  0  0  0  # atno 17342 bound_to 10162
  139.8652  144.7097  150.9052 LP  0  0  0  0  0  0  0  0  0  0  0  0  # atno 17343 bound_to 10162
  157.6481  131.0901  150.8111 LP  0  0  0  0  0  0  0  0  0  0  0  0  # atno 17370 bound_to 10713
  156.8196  130.4979  149.5345 LP  0  0  0  0  0  0  0  0  0  0  0  0  # atno 17371 bound_to 10713
  141.0122  133.7089  156.1130 LP  0  0  0  0  0  0  0  0  0  0  0  0  # atno 17394 bound_to 11000
  140.7351  134.4211  157.5561 LP  0  0  0  0  0  0  0  0  0  0  0  0  # atno 17395 bound_to 11000

$$$$
