AV-unprocessed.smi:3250|AV-procd|sdf|12434|dock3
  -GOLD-   2272018323D 1   1.00000     0.00000
 Structure written by MMmdl.
 40 41  0  0  0  0  0  0  0  0  3 V2000
  146.4783  142.5756  154.3672 C   0  0  0  0  0  0  0  0  0  0  0  0
  146.9008  141.2616  153.6952 C   0  0  0  0  0  0  0  0  0  0  0  0
  148.3272  140.9293  153.9369 N   0  3  2  0  0  0  0  0  0  0  0  0
  148.5994  139.4820  153.7715 C   0  0  0  0  0  0  0  0  0  0  0  0
  150.0909  139.1855  153.9915 C   0  0  0  0  0  0  0  0  0  0  0  0
  150.4781  139.6430  155.2808 O   0  0  0  0  0  0  0  0  0  0  0  0
  150.3263  141.0520  155.4218 C   0  0  2  0  0  0  0  0  0  0  0  0
  150.8463  141.4527  156.8100 C   0  0  0  0  0  0  0  0  0  0  0  0
  150.2422  142.6923  157.2761 N   0  0  0  0  0  0  0  0  0  0  0  0
  150.6756  143.3820  158.3932 C   0  0  0  0  0  0  0  0  0  0  0  0
  150.0315  144.5146  158.7120 N   0  3  0  0  0  0  0  0  0  0  0  0
  150.4236  145.2307  159.7944 C   0  0  0  0  0  0  0  0  0  0  0  0
  151.4999  144.7904  160.5855 C   0  0  0  0  0  0  0  0  0  0  0  0
  152.1271  143.5946  160.1988 C   0  0  0  0  0  0  0  0  0  0  0  0
  153.1848  143.1115  160.9411 O   0  0  0  0  0  0  0  0  0  0  0  0
  153.8097  141.9038  160.5203 C   0  0  0  0  0  0  0  0  0  0  0  0
  151.7069  142.9097  159.1085 N   0  0  0  0  0  0  0  0  0  0  0  0
  148.8348  141.4050  155.2487 C   0  0  0  0  0  0  0  0  0  0  0  0
  145.4566  142.8357  154.0892 H   0  0  0  0  0  0  0  0  0  0  0  0
  147.1227  143.4004  154.0618 H   0  0  0  0  0  0  0  0  0  0  0  0
  146.5080  142.5070  155.4542 H   0  0  0  0  0  0  0  0  0  0  0  0
  146.2631  140.4394  154.0230 H   0  0  0  0  0  0  0  0  0  0  0  0
  146.7389  141.3688  152.6217 H   0  0  0  0  0  0  0  0  0  0  0  0
  147.9969  138.9123  154.4807 H   0  0  0  0  0  0  0  0  0  0  0  0
  148.3072  139.1608  152.7710 H   0  0  0  0  0  0  0  0  0  0  0  0
  150.2746  138.1129  153.9268 H   0  0  0  0  0  0  0  0  0  0  0  0
  150.7021  139.6605  153.2223 H   0  0  0  0  0  0  0  0  0  0  0  0
  150.9131  141.5644  154.6566 H   0  0  0  0  0  0  0  0  0  0  0  0
  150.6159  140.6667  157.5303 H   0  0  0  0  0  0  0  0  0  0  0  0
  151.9314  141.5615  156.7899 H   0  0  0  0  0  0  0  0  0  0  0  0
  149.5704  143.1508  156.6779 H   0  0  0  0  0  0  0  0  0  0  0  0
  149.8627  146.1325  159.9917 H   0  0  0  0  0  0  0  0  0  0  0  0
  151.8279  145.3453  161.4524 H   0  0  0  0  0  0  0  0  0  0  0  0
  154.6184  141.6578  161.2085 H   0  0  0  0  0  0  0  0  0  0  0  0
  154.2421  142.0031  159.5237 H   0  0  0  0  0  0  0  0  0  0  0  0
  153.1073  141.0692  160.5245 H   0  0  0  0  0  0  0  0  0  0  0  0
  148.7109  142.4845  155.3304 H   0  0  0  0  0  0  0  0  0  0  0  0
  148.2467  140.9544  156.0503 H   0  0  0  0  0  0  0  0  0  0  0  0
  148.8592  141.4022  153.2203 H   0  0  0  0  0  0  0  0  0  0  0  0
  149.2493  144.8495  158.1492 H   0  0  0  0  0  0  0  0  0  0  0  0
  1  2  1  0  0  0  0
  1 19  1  0  0  0  0
  1 20  1  0  0  0  0
  1 21  1  0  0  0  0
  2  3  1  0  0  0  0
  2 22  1  0  0  0  0
  2 23  1  0  0  0  0
  3 18  1  0  0  0  0
  3  4  1  0  0  0  0
  3 39  1  0  0  0  0
  4  5  1  0  0  0  0
  4 24  1  0  0  0  0
  4 25  1  0  0  0  0
  5  6  1  0  0  0  0
  5 26  1  0  0  0  0
  5 27  1  0  0  0  0
  6  7  1  0  0  0  0
  7  8  1  0  0  0  0
  7 18  1  0  0  0  0
  7 28  1  0  0  0  0
  8  9  1  0  0  0  0
  8 29  1  0  0  0  0
  8 30  1  0  0  0  0
  9 10  1  0  0  0  0
  9 31  1  0  0  0  0
 10 17  1  0  0  0  0
 10 11  2  0  0  0  0
 11 12  1  0  0  0  0
 11 40  1  0  0  0  0
 12 13  2  0  0  0  0
 12 32  1  0  0  0  0
 13 14  1  0  0  0  0
 13 33  1  0  0  0  0
 14 15  1  0  0  0  0
 14 17  2  0  0  0  0
 15 16  1  0  0  0  0
 16 34  1  0  0  0  0
 16 35  1  0  0  0  0
 16 36  1  0  0  0  0
 18 37  1  0  0  0  0
 18 38  1  0  0  0  0
M  CHG  1   3   1
M  CHG  1  11   1
M  END
> <s_m_source_file>
AV-unprocessed.smi

> <i_m_source_file_index>
3250

> <i_lp_mmshare_version>
43012

> <i_f3d_flags>
0

> <s_epik_input>
W0NIM11bQ0gyXU4xW0NIMl1bQ0gyXU9bQ0BIXShbQ0gyXTEpW0NIMl1bTkhdYzJuW2NIXVtjSF1jKG4yKU9bQ0gzXQ==

> <s_epik_cmdline>
J2VwaWtfcHl0aG9uJywgJy1waCcsICc3LjAnLCAnLXRuJywgJzgnLCAnLW1hJywgJzIwMCcsICctbWV0YWxfYmluZGluZycsICctaW1hZScsICc8aW5maWxlLm1hZT4nLCAnLW9tYWUnLCAnPG91dGZpbGUubWFlPic=

> <r_lp_tautomer_probability>
0.999985

> <r_epik_Ionization_Penalty>
2.24691

> <r_epik_Ionization_Penalty_Charging>
2.24686

> <r_epik_Ionization_Penalty_Neutral>
4.52111e-05

> <r_epik_State_Penalty>
2.24709

> <r_epik_Charging_Adjusted_Penalty>
4.49395

> <i_epik_Tot_Q>
2

> <i_epik_Tot_abs_Q>
2

> <r_epik_Metal_State_Penalty>
2.26327

> <b_epik_Metal_Only>
0

> <s_lp_Force_Field>
OPLS_2005

> <r_lp_Energy>
18.1158

> <b_lp_Chiralities_Consistent>
1

> <s_lp_Variant>
AV-unprocessed.smi:3250-10

> <Gold.Version>
5.8.1

> <Gold.Id.Protein>
6NUR|6NUR_protein|mol2

> <Gold.PLP.Fitness>
47.7319

> <Gold.PLP.PLP>
-37.2093

> <Gold.PLP.part.hbond>
-2.9018

> <Gold.PLP.part.metal>
0.0000

> <Gold.PLP.part.buried>
-3.3202

> <Gold.PLP.part.nonpolar>
-32.5515

> <Gold.PLP.part.repulsive>
0.3797

> <Gold.PLP.ligand.clash>
0.0000

> <Gold.PLP.ligand.torsion>
0.5965

> <Gold.PLP.Chemscore.Hbond>
3.9000

> <Gold.PLP.Chemscore.CHOScore>
0.0000

> <Gold.PLP.Chemscore.Metal>
0.0000

> <Gold.Chemscore.Hbonds>
donor molecule, donor type, donor heavy atom, donor atom, acceptor molecule, acceptor atom, score
      L1  H     9    31       P1  8028  2.00
      L1  H    11    40       P1  8029  2.00

> <Gold.PLP.Chemscore.Internal.Correction>
0.0156

> <Gold.Rescore>
     Score         DG    S(hbond)    S(metal)    S(lipo)     H(rot)  DE(clash)    DE(int)     intcor
     13.48     -14.11       1.22        0.00      77.39       1.75       0.04       0.59       ----

> <Gold.Chemscore.Fitness>
13.4795

> <Gold.Chemscore.DG>
-14.1082

> <Gold.Chemscore.ZeroCoef>
-5.4800

> <Gold.Chemscore.Hbond>
1.2159

> <Gold.Chemscore.Metal>
0.0000

> <Gold.Chemscore.Lipo>
77.3897

> <Gold.Chemscore.Internal_Hbond>
0.0000

> <Gold.Chemscore.DEClash>
0.0431

> <Gold.Chemscore.DEInternal>
0.5856

> <Gold.Chemscore.Rot>
1.7530

> <Gold.Chemscore.Internal.Correction>
   9.000000E+99

> <Gold.Chemscore.Hbonds>
donor molecule, donor type, donor heavy atom, donor atom, acceptor molecule, acceptor atom, score
      L1  H     9    31       P1  8028  0.93
      L1  H    11    40       P1  8029  0.30

> <Gold.Chemscore.Hbond.Weighted>
-4.0612

> <Gold.Chemscore.Metal.Weighted>
-0.0000

> <Gold.Chemscore.Lipo.Weighted>
-9.0546

> <Gold.Chemscore.Internal_Hbond.Weighted>
0.0000

> <Gold.Chemscore.DEClash.Weighted>
0.0431

> <Gold.Chemscore.DEInternal.Weighted>
0.5856

> <Gold.Chemscore.Rot.Weighted>
4.4876

> <Gold.Chemscore.Internal.Correction.Weighted>
   9.000000E+99

> <Gold.Protein.RotatedTorsions>
[ 6907 6896 6895 6894 ] final -115.71 input  -60.11 | X-H torsion
[ 7974 7965 7964 7962 ] final -146.01 input  175.53 | X-H torsion
[ 8008 7997 7996 7995 ] final    6.89 input   59.86 | X-H torsion
[ 10167 10162 10161 10158 ] final -161.09 input  -65.29 | X-H torsion
[ 10718 10713 10712 10709 ] final   48.66 input   66.30 | X-H torsion
[ 10763 10752 10751 10750 ] final   99.84 input  -60.55 | X-H torsion
[ 11005 11000 10999 10996 ] final  -61.45 input  -57.11 | X-H torsion

> <Gold.Protein.ActiveResidues>
 VAL166  LYS551  ARG553  GLY616  TRP617  ASP618  TYR619  PRO620  LYS621  CYS622 
 ASP623  PHE694  ASN695  SER759  ASP760  ASP761  ALA762  ILE779  LEU786  VAL792 
 PHE793  MET794  SER795  GLU796  ALA797  LYS798  CYS799  TRP800  GLU811  SER814 

> <Gold.Protein.RotatedAtoms>
  150.7999  133.8619  159.3234 H   0  0  0  0  0  0  0  0  0  0  0  0  # atno 6907 bound_to 6896
  151.6434  135.1008  160.0155 H   0  0  0  0  0  0  0  0  0  0  0  0  # atno 6908 bound_to 6896
  152.4085  133.6887  159.6412 H   0  0  0  0  0  0  0  0  0  0  0  0  # atno 6909 bound_to 6896
  144.8188  140.5511  143.5592 H   0  0  0  0  0  0  0  0  0  0  0  0  # atno 7974 bound_to 7965
  154.7468  140.2759  155.6326 H   0  0  0  0  0  0  0  0  0  0  0  0  # atno 8008 bound_to 7997
  156.2886  140.2686  156.2136 H   0  0  0  0  0  0  0  0  0  0  0  0  # atno 8009 bound_to 7997
  155.0188  140.0371  157.2419 H   0  0  0  0  0  0  0  0  0  0  0  0  # atno 8010 bound_to 7997
  139.6491  144.0117  152.2148 H   0  0  0  0  0  0  0  0  0  0  0  0  # atno 10167 bound_to 10162
  157.4709  130.8255  149.7987 H   0  0  0  0  0  0  0  0  0  0  0  0  # atno 10718 bound_to 10713
  153.3064  135.4099  155.1298 H   0  0  0  0  0  0  0  0  0  0  0  0  # atno 10763 bound_to 10752
  154.8564  135.3554  154.5782 H   0  0  0  0  0  0  0  0  0  0  0  0  # atno 10764 bound_to 10752
  153.6209  135.7064  153.5369 H   0  0  0  0  0  0  0  0  0  0  0  0  # atno 10765 bound_to 10752
  141.1324  133.6630  156.5377 H   0  0  0  0  0  0  0  0  0  0  0  0  # atno 11005 bound_to 11000
  145.5152  139.1478  143.3583 LP  0  0  0  0  0  0  0  0  0  0  0  0  # atno 17320 bound_to 7965
  146.2493  140.5293  142.8900 LP  0  0  0  0  0  0  0  0  0  0  0  0  # atno 17321 bound_to 7965
  139.9827  144.6417  150.7886 LP  0  0  0  0  0  0  0  0  0  0  0  0  # atno 17342 bound_to 10162
  140.7529  143.2998  151.3109 LP  0  0  0  0  0  0  0  0  0  0  0  0  # atno 17343 bound_to 10162
  156.0073  130.3849  150.2386 LP  0  0  0  0  0  0  0  0  0  0  0  0  # atno 17370 bound_to 10713
  157.0568  131.0078  151.3235 LP  0  0  0  0  0  0  0  0  0  0  0  0  # atno 17371 bound_to 10713
  140.4165  134.7226  157.4866 LP  0  0  0  0  0  0  0  0  0  0  0  0  # atno 17394 bound_to 11000
  140.0390  134.6295  155.9005 LP  0  0  0  0  0  0  0  0  0  0  0  0  # atno 17395 bound_to 11000

$$$$
