AV-unprocessed.smi:1648|AV-procd|sdf|6631|dock1
  -GOLD-   22720 7333D 1   1.00000     0.00000
 Structure written by MMmdl.
 41 41  0  0  0  0  0  0  0  0  1 V2000
  150.9849  137.9581  154.0149 C   0  0  0  0  0  0  0  0  0  0  0  0
  149.6109  138.5481  154.3389 C   0  0  0  0  0  0  0  0  0  0  0  0
  149.5382  139.5748  155.0101 O   0  0  0  0  0  0  0  0  0  0  0  0
  148.5053  137.9306  153.8870 N   0  0  0  0  0  0  0  0  0  0  0  0
  147.1108  138.3346  154.0888 C   0  0  2  0  0  0  0  0  0  0  0  0
  146.2011  137.1145  153.8488 C   0  0  0  0  0  0  0  0  0  0  0  0
  145.1139  137.0202  154.4207 O   0  0  0  0  0  0  0  0  0  0  0  0
  146.6751  136.1804  153.0095 N   0  0  0  0  0  0  0  0  0  0  0  0
  145.9936  134.9424  152.6446 C   0  0  2  0  0  0  0  0  0  0  0  0
  146.8979  133.7333  152.9478 C   0  0  0  0  0  0  0  0  0  0  0  0
  145.5634  135.0252  151.1665 C   0  0  0  0  0  0  0  0  0  0  0  0
  145.1414  133.7446  150.6304 N   0  0  0  0  0  0  0  0  0  0  0  0
  145.9526  132.6648  150.3073 C   0  0  0  0  0  0  0  0  0  0  0  0
  145.1198  131.6735  149.8394 C   0  0  0  0  0  0  0  0  0  0  0  0
  143.8000  132.1170  149.8699 N   0  0  0  0  0  0  0  0  0  0  0  0
  143.8912  133.3496  150.3521 C   0  0  0  0  0  0  0  0  0  0  0  0
  146.7640  139.4611  153.0706 C   0  0  0  0  0  0  0  0  0  0  0  0
  146.8892  138.9748  151.6128 C   0  0  0  0  0  0  0  0  0  0  0  0
  147.6244  140.7293  153.2529 C   0  0  0  0  0  0  0  0  0  0  0  0
  151.1376  137.8944  152.9377 H   0  0  0  0  0  0  0  0  0  0  0  0
  151.0893  136.9620  154.4449 H   0  0  0  0  0  0  0  0  0  0  0  0
  151.7770  138.5843  154.4269 H   0  0  0  0  0  0  0  0  0  0  0  0
  148.6437  137.0804  153.3601 H   0  0  0  0  0  0  0  0  0  0  0  0
  146.9701  138.7150  155.1020 H   0  0  0  0  0  0  0  0  0  0  0  0
  147.5807  136.3392  152.5922 H   0  0  0  0  0  0  0  0  0  0  0  0
  145.0885  134.8510  153.2485 H   0  0  0  0  0  0  0  0  0  0  0  0
  146.3883  132.7911  152.7452 H   0  0  0  0  0  0  0  0  0  0  0  0
  147.1962  133.7164  153.9964 H   0  0  0  0  0  0  0  0  0  0  0  0
  147.8062  133.7579  152.3447 H   0  0  0  0  0  0  0  0  0  0  0  0
  144.7363  135.7276  151.0530 H   0  0  0  0  0  0  0  0  0  0  0  0
  146.3823  135.4048  150.5532 H   0  0  0  0  0  0  0  0  0  0  0  0
  147.0251  132.6918  150.4314 H   0  0  0  0  0  0  0  0  0  0  0  0
  145.3670  130.6830  149.4873 H   0  0  0  0  0  0  0  0  0  0  0  0
  143.0281  133.9814  150.5027 H   0  0  0  0  0  0  0  0  0  0  0  0
  145.7230  139.7543  153.2191 H   0  0  0  0  0  0  0  0  0  0  0  0
  147.9005  138.6282  151.3979 H   0  0  0  0  0  0  0  0  0  0  0  0
  146.6580  139.7759  150.9102 H   0  0  0  0  0  0  0  0  0  0  0  0
  146.2034  138.1563  151.3942 H   0  0  0  0  0  0  0  0  0  0  0  0
  148.6877  140.4990  153.1776 H   0  0  0  0  0  0  0  0  0  0  0  0
  147.4537  141.2087  154.2170 H   0  0  0  0  0  0  0  0  0  0  0  0
  147.3934  141.4730  152.4897 H   0  0  0  0  0  0  0  0  0  0  0  0
  1  2  1  0  0  0  0
  1 20  1  0  0  0  0
  1 21  1  0  0  0  0
  1 22  1  0  0  0  0
  2  3  2  0  0  0  0
  2  4  1  0  0  0  0
  4  5  1  0  0  0  0
  4 23  1  0  0  0  0
  5  6  1  0  0  0  0
  5 17  1  0  0  0  0
  5 24  1  0  0  0  0
  6  7  2  0  0  0  0
  6  8  1  0  0  0  0
  8  9  1  0  0  0  0
  8 25  1  0  0  0  0
  9 10  1  0  0  0  0
  9 11  1  0  0  0  0
  9 26  1  0  0  0  0
 10 27  1  0  0  0  0
 10 28  1  0  0  0  0
 10 29  1  0  0  0  0
 11 12  1  0  0  0  0
 11 30  1  0  0  0  0
 11 31  1  0  0  0  0
 12 16  1  0  0  0  0
 12 13  1  0  0  0  0
 13 14  2  0  0  0  0
 13 32  1  0  0  0  0
 14 15  1  0  0  0  0
 14 33  1  0  0  0  0
 15 16  2  0  0  0  0
 16 34  1  0  0  0  0
 17 18  1  0  0  0  0
 17 19  1  0  0  0  0
 17 35  1  0  0  0  0
 18 36  1  0  0  0  0
 18 37  1  0  0  0  0
 18 38  1  0  0  0  0
 19 39  1  0  0  0  0
 19 40  1  0  0  0  0
 19 41  1  0  0  0  0
M  END
> <s_m_source_file>
AV-unprocessed.smi

> <i_m_source_file_index>
1648

> <i_lp_mmshare_version>
43012

> <i_f3d_flags>
0

> <s_epik_input>
W0NIM11DKD1PKVtOSF1bQ0BASF0oW0NIXShbQ0gzXSlbQ0gzXSlDKD1PKVtOSF1bQ0BIXShbQ0gzXSlbQ0gyXW4xW2NIXVtjSF1uW2NIXTE=

> <s_epik_cmdline>
J2VwaWtfcHl0aG9uJywgJy1waCcsICc3LjAnLCAnLXRuJywgJzgnLCAnLW1hJywgJzIwMCcsICctbWV0YWxfYmluZGluZycsICctaW1hZScsICc8aW5maWxlLm1hZT4nLCAnLW9tYWUnLCAnPG91dGZpbGUubWFlPic=

> <r_lp_tautomer_probability>
1

> <r_epik_Ionization_Penalty>
0.628885

> <r_epik_Ionization_Penalty_Charging>
0.628884

> <r_epik_Ionization_Penalty_Neutral>
4.35155e-07

> <r_epik_State_Penalty>
0.64556

> <r_epik_Charging_Adjusted_Penalty>
1.27444

> <i_epik_Tot_Q>
0

> <i_epik_Tot_abs_Q>
0

> <r_epik_Metal_State_Penalty>
0.30874

> <b_epik_Metal_Only>
0

> <s_lp_Force_Field>
OPLS_2005

> <r_lp_Energy>
10.0668

> <b_lp_Chiralities_Consistent>
1

> <s_lp_Variant>
AV-unprocessed.smi:1648-5

> <Gold.Version>
5.8.1

> <Gold.Id.Protein>
6NUR|6NUR_protein|mol2

> <Gold.PLP.Fitness>
43.0465

> <Gold.PLP.PLP>
-32.9787

> <Gold.PLP.part.hbond>
-2.6479

> <Gold.PLP.part.metal>
0.0000

> <Gold.PLP.part.buried>
-2.3642

> <Gold.PLP.part.nonpolar>
-28.7577

> <Gold.PLP.part.repulsive>
0.2924

> <Gold.PLP.ligand.clash>
0.0000

> <Gold.PLP.ligand.torsion>
1.3334

> <Gold.PLP.Chemscore.Hbond>
2.2332

> <Gold.PLP.Chemscore.CHOScore>
1.9480

> <Gold.PLP.Chemscore.Metal>
0.0000

> <Gold.Chemscore.Hbonds>
donor molecule, donor type, donor heavy atom, donor atom, acceptor molecule, acceptor atom, score
      L1  H     4    23       P1  7948  1.00
      L1  H     8    25       P1  7948  1.00
      P1  H 10785 10796       L1    15  0.07
      L1  C    13    32       P1 10747  0.64
      L1  C    16    34       P1 10186  1.00

> <Gold.PLP.Chemscore.Internal.Correction>
0.1911

> <Gold.Rescore>
     Score         DG    S(hbond)    S(metal)    S(lipo)     H(rot)  DE(clash)    DE(int)     intcor
     12.14     -13.65       1.97        0.00      68.70       2.52       0.25       1.26       ----

> <Gold.Chemscore.Fitness>
12.1425

> <Gold.Chemscore.DG>
-13.6488

> <Gold.Chemscore.ZeroCoef>
-5.4800

> <Gold.Chemscore.Hbond>
1.9721

> <Gold.Chemscore.Metal>
0.0000

> <Gold.Chemscore.Lipo>
68.6953

> <Gold.Chemscore.Internal_Hbond>
0.0000

> <Gold.Chemscore.DEClash>
0.2475

> <Gold.Chemscore.DEInternal>
1.2588

> <Gold.Chemscore.Rot>
2.5216

> <Gold.Chemscore.Internal.Correction>
   9.000000E+99

> <Gold.Chemscore.Hbonds>
donor molecule, donor type, donor heavy atom, donor atom, acceptor molecule, acceptor atom, score
      L1  H     4    23       P1  7948  0.95
      L1  H     8    25       P1  7948  0.95

> <Gold.Chemscore.Hbond.Weighted>
-6.5867

> <Gold.Chemscore.Metal.Weighted>
-0.0000

> <Gold.Chemscore.Lipo.Weighted>
-8.0374

> <Gold.Chemscore.Internal_Hbond.Weighted>
0.0000

> <Gold.Chemscore.DEClash.Weighted>
0.2475

> <Gold.Chemscore.DEInternal.Weighted>
1.2588

> <Gold.Chemscore.Rot.Weighted>
6.4553

> <Gold.Chemscore.Internal.Correction.Weighted>
   9.000000E+99

> <Gold.Protein.RotatedTorsions>
[ 6907 6896 6895 6894 ] final -176.74 input  -60.11 | X-H torsion
[ 7974 7965 7964 7962 ] final   58.20 input  175.53 | X-H torsion
[ 8008 7997 7996 7995 ] final  164.99 input   59.86 | X-H torsion
[ 10167 10162 10161 10158 ] final  -88.19 input  -65.29 | X-H torsion
[ 10718 10713 10712 10709 ] final -100.34 input   66.30 | X-H torsion
[ 10763 10752 10751 10750 ] final   96.92 input  -60.55 | X-H torsion
[ 11005 11000 10999 10996 ] final  -17.67 input  -57.11 | X-H torsion

> <Gold.Protein.ActiveResidues>
 VAL166  LYS551  ARG553  GLY616  TRP617  ASP618  TYR619  PRO620  LYS621  CYS622 
 ASP623  PHE694  ASN695  SER759  ASP760  ASP761  ALA762  ILE779  LEU786  VAL792 
 PHE793  MET794  SER795  GLU796  ALA797  LYS798  CYS799  TRP800  GLU811  SER814 

> <Gold.Protein.RotatedAtoms>
  151.6097  133.3348  159.3064 H   0  0  0  0  0  0  0  0  0  0  0  0  # atno 6907 bound_to 6896
  150.8163  134.7350  159.6744 H   0  0  0  0  0  0  0  0  0  0  0  0  # atno 6908 bound_to 6896
  152.4259  134.5875  160.0016 H   0  0  0  0  0  0  0  0  0  0  0  0  # atno 6909 bound_to 6896
  145.9207  139.3727  143.0480 H   0  0  0  0  0  0  0  0  0  0  0  0  # atno 7974 bound_to 7965
  156.1836  140.1682  156.8227 H   0  0  0  0  0  0  0  0  0  0  0  0  # atno 8008 bound_to 7997
  154.5388  140.0741  156.8507 H   0  0  0  0  0  0  0  0  0  0  0  0  # atno 8009 bound_to 7997
  155.3256  140.3376  155.4242 H   0  0  0  0  0  0  0  0  0  0  0  0  # atno 8010 bound_to 7997
  140.3771  143.2766  151.9429 H   0  0  0  0  0  0  0  0  0  0  0  0  # atno 10167 bound_to 10162
  156.0160  130.5323  150.6803 H   0  0  0  0  0  0  0  0  0  0  0  0  # atno 10718 bound_to 10713
  153.2707  135.4201  155.0985 H   0  0  0  0  0  0  0  0  0  0  0  0  # atno 10763 bound_to 10752
  154.8455  135.3471  154.6248 H   0  0  0  0  0  0  0  0  0  0  0  0  # atno 10764 bound_to 10752
  153.6668  135.7045  153.5217 H   0  0  0  0  0  0  0  0  0  0  0  0  # atno 10765 bound_to 10752
  140.8191  133.8082  155.9641 H   0  0  0  0  0  0  0  0  0  0  0  0  # atno 11005 bound_to 11000
  145.8553  140.9506  143.0728 LP  0  0  0  0  0  0  0  0  0  0  0  0  # atno 17320 bound_to 7965
  144.6752  140.0460  143.7480 LP  0  0  0  0  0  0  0  0  0  0  0  0  # atno 17321 bound_to 7965
  139.4798  144.5853  151.7864 LP  0  0  0  0  0  0  0  0  0  0  0  0  # atno 17342 bound_to 10162
  140.4975  144.1219  150.5963 LP  0  0  0  0  0  0  0  0  0  0  0  0  # atno 17343 bound_to 10162
  157.4507  131.0872  151.0849 LP  0  0  0  0  0  0  0  0  0  0  0  0  # atno 17370 bound_to 10713
  157.1365  130.6125  149.5543 LP  0  0  0  0  0  0  0  0  0  0  0  0  # atno 17371 bound_to 10713
  140.9117  134.2252  157.4981 LP  0  0  0  0  0  0  0  0  0  0  0  0  # atno 17394 bound_to 11000
  139.8709  134.9753  156.4879 LP  0  0  0  0  0  0  0  0  0  0  0  0  # atno 17395 bound_to 11000

$$$$
