AV-unprocessed.smi:1341|AV-procd|sdf|5505|dock5
  -GOLD-   22720 5 83D 1   1.00000     0.00000
 Structure written by MMmdl.
 34 35  0  0  0  0  0  0  0  0  1 V2000
  154.0256  137.2256  162.6177 C   0  0  0  0  0  0  0  0  0  0  0  0
  154.6770  138.3180  162.1915 C   0  0  0  0  0  0  0  0  0  0  0  0
  155.0158  138.6043  160.7416 C   0  0  0  0  0  0  0  0  0  0  0  0
  154.0534  139.5165  160.1366 N   0  0  0  0  0  0  0  0  0  0  0  0
  153.8742  140.8008  160.4879 C   0  0  0  0  0  0  0  0  0  0  0  0
  154.5213  141.3608  161.3732 O   0  0  0  0  0  0  0  0  0  0  0  0
  152.8366  141.5373  159.6883 C   0  0  0  0  0  0  0  0  0  0  0  0
  152.4873  141.0029  158.4935 N   0  0  0  0  0  0  0  0  0  0  0  0
  151.5400  141.6119  157.7693 C   0  0  0  0  0  0  0  0  0  0  0  0
  151.2020  141.0422  156.5349 N   0  0  0  0  0  0  0  0  0  0  0  0
  150.2858  141.7006  155.5999 C   0  0  0  0  0  0  0  0  0  0  0  0
  149.4943  140.6624  154.7871 C   0  0  0  0  0  0  0  0  0  0  0  0
  150.3931  139.7757  154.1324 O   0  0  0  0  0  0  0  0  0  0  0  0
  151.1863  139.0530  155.0657 C   0  0  0  0  0  0  0  0  0  0  0  0
  152.0422  140.0301  155.8894 C   0  0  0  0  0  0  0  0  0  0  0  0
  150.8953  142.7253  158.1383 N   0  0  0  0  0  0  0  0  0  0  0  0
  151.2212  143.2756  159.3262 C   0  0  0  0  0  0  0  0  0  0  0  0
  152.2041  142.7142  160.1637 C   0  0  0  0  0  0  0  0  0  0  0  0
  152.5953  143.4781  161.6662 Cl  0  0  0  0  0  0  0  0  0  0  0  0
  153.6990  136.4612  161.9279 H   0  0  0  0  0  0  0  0  0  0  0  0
  153.8105  137.0826  163.6664 H   0  0  0  0  0  0  0  0  0  0  0  0
  154.9834  139.0620  162.9127 H   0  0  0  0  0  0  0  0  0  0  0  0
  156.0099  139.0468  160.6702 H   0  0  0  0  0  0  0  0  0  0  0  0
  155.0474  137.6648  160.1878 H   0  0  0  0  0  0  0  0  0  0  0  0
  153.4756  139.1482  159.3946 H   0  0  0  0  0  0  0  0  0  0  0  0
  149.5735  142.3498  156.1080 H   0  0  0  0  0  0  0  0  0  0  0  0
  150.8683  142.3343  154.9304 H   0  0  0  0  0  0  0  0  0  0  0  0
  148.8142  140.1015  155.4305 H   0  0  0  0  0  0  0  0  0  0  0  0
  148.8816  141.1623  154.0369 H   0  0  0  0  0  0  0  0  0  0  0  0
  150.5480  138.4519  155.7156 H   0  0  0  0  0  0  0  0  0  0  0  0
  151.8283  138.3596  154.5223 H   0  0  0  0  0  0  0  0  0  0  0  0
  152.7612  140.5342  155.2427 H   0  0  0  0  0  0  0  0  0  0  0  0
  152.6184  139.4523  156.6115 H   0  0  0  0  0  0  0  0  0  0  0  0
  150.6942  144.1750  159.6083 H   0  0  0  0  0  0  0  0  0  0  0  0
  1  2  2  0  0  0  0
  1 20  1  0  0  0  0
  1 21  1  0  0  0  0
  2  3  1  0  0  0  0
  2 22  1  0  0  0  0
  3  4  1  0  0  0  0
  3 23  1  0  0  0  0
  3 24  1  0  0  0  0
  4  5  1  0  0  0  0
  4 25  1  0  0  0  0
  5  6  2  0  0  0  0
  5  7  1  0  0  0  0
  7 18  1  0  0  0  0
  7  8  2  0  0  0  0
  8  9  1  0  0  0  0
  9 10  1  0  0  0  0
  9 16  2  0  0  0  0
 10 15  1  0  0  0  0
 10 11  1  0  0  0  0
 11 12  1  0  0  0  0
 11 26  1  0  0  0  0
 11 27  1  0  0  0  0
 12 13  1  0  0  0  0
 12 28  1  0  0  0  0
 12 29  1  0  0  0  0
 13 14  1  0  0  0  0
 14 15  1  0  0  0  0
 14 30  1  0  0  0  0
 14 31  1  0  0  0  0
 15 32  1  0  0  0  0
 15 33  1  0  0  0  0
 16 17  1  0  0  0  0
 17 18  2  0  0  0  0
 17 34  1  0  0  0  0
 18 19  1  0  0  0  0
M  END
> <s_m_source_file>
AV-unprocessed.smi

> <i_m_source_file_index>
1341

> <i_lp_mmshare_version>
43012

> <i_f3d_flags>
0

> <s_epik_input>
W0NIMl09W0NIXVtDSDJdW05IXUMoPU8pYzFuYyhuW2NIXWMxQ2wpTjJbQ0gyXVtDSDJdT1tDSDJdW0NIMl0y

> <s_epik_cmdline>
J2VwaWtfcHl0aG9uJywgJy1waCcsICc3LjAnLCAnLXRuJywgJzgnLCAnLW1hJywgJzIwMCcsICctbWV0YWxfYmluZGluZycsICctaW1hZScsICc8aW5maWxlLm1hZT4nLCAnLW9tYWUnLCAnPG91dGZpbGUubWFlPic=

> <r_lp_tautomer_probability>
1

> <r_epik_Ionization_Penalty>
2.38615e-05

> <r_epik_Ionization_Penalty_Charging>
0

> <r_epik_Ionization_Penalty_Neutral>
2.38615e-05

> <r_epik_State_Penalty>
-0

> <r_epik_Charging_Adjusted_Penalty>
0

> <i_epik_Tot_Q>
0

> <i_epik_Tot_abs_Q>
0

> <r_epik_Metal_State_Penalty>
0.0225026

> <b_epik_Metal_Only>
0

> <s_lp_Force_Field>
OPLS_2005

> <r_lp_Energy>
14.7295

> <b_lp_Chiralities_Consistent>
1

> <s_lp_Variant>
AV-unprocessed.smi:1341-1

> <Gold.Version>
5.8.1

> <Gold.Id.Protein>
6NUR|6NUR_protein|mol2

> <Gold.PLP.Fitness>
42.4325

> <Gold.PLP.PLP>
-40.1520

> <Gold.PLP.part.hbond>
-2.0000

> <Gold.PLP.part.metal>
0.0000

> <Gold.PLP.part.buried>
-4.9986

> <Gold.PLP.part.nonpolar>
-32.5196

> <Gold.PLP.part.repulsive>
0.5787

> <Gold.PLP.ligand.clash>
0.0000

> <Gold.PLP.ligand.torsion>
0.4152

> <Gold.PLP.Chemscore.Hbond>
1.0000

> <Gold.PLP.Chemscore.CHOScore>
0.0000

> <Gold.PLP.Chemscore.Metal>
0.0000

> <Gold.Chemscore.Hbonds>
donor molecule, donor type, donor heavy atom, donor atom, acceptor molecule, acceptor atom, score
      P1  H  7989  7998       L1    13  1.00

> <Gold.PLP.Chemscore.Internal.Correction>
0.1108

> <Gold.Rescore>
     Score         DG    S(hbond)    S(metal)    S(lipo)     H(rot)  DE(clash)    DE(int)     intcor
     13.23     -15.01       0.55        0.00      91.06       1.16       0.06       1.71       ----

> <Gold.Chemscore.Fitness>
13.2349

> <Gold.Chemscore.DG>
-15.0060

> <Gold.Chemscore.ZeroCoef>
-5.4800

> <Gold.Chemscore.Hbond>
0.5544

> <Gold.Chemscore.Metal>
0.0000

> <Gold.Chemscore.Lipo>
91.0628

> <Gold.Chemscore.Internal_Hbond>
0.0000

> <Gold.Chemscore.DEClash>
0.0619

> <Gold.Chemscore.DEInternal>
1.7092

> <Gold.Chemscore.Rot>
1.1641

> <Gold.Chemscore.Internal.Correction>
   9.000000E+99

> <Gold.Chemscore.Hbonds>
donor molecule, donor type, donor heavy atom, donor atom, acceptor molecule, acceptor atom, score
      P1  H  7989  7998       L1    13  0.10

> <Gold.Chemscore.Hbond.Weighted>
-1.8518

> <Gold.Chemscore.Metal.Weighted>
-0.0000

> <Gold.Chemscore.Lipo.Weighted>
-10.6543

> <Gold.Chemscore.Internal_Hbond.Weighted>
0.0000

> <Gold.Chemscore.DEClash.Weighted>
0.0619

> <Gold.Chemscore.DEInternal.Weighted>
1.7092

> <Gold.Chemscore.Rot.Weighted>
2.9802

> <Gold.Chemscore.Internal.Correction.Weighted>
   9.000000E+99

> <Gold.Protein.RotatedTorsions>
[ 6907 6896 6895 6894 ] final   28.68 input  -60.11 | X-H torsion
[ 7974 7965 7964 7962 ] final   35.88 input  175.53 | X-H torsion
[ 8008 7997 7996 7995 ] final -175.86 input   59.86 | X-H torsion
[ 10167 10162 10161 10158 ] final -160.66 input  -65.29 | X-H torsion
[ 10718 10713 10712 10709 ] final  160.81 input   66.30 | X-H torsion
[ 10763 10752 10751 10750 ] final   90.96 input  -60.55 | X-H torsion
[ 11005 11000 10999 10996 ] final -115.22 input  -57.11 | X-H torsion

> <Gold.Protein.ActiveResidues>
 VAL166  LYS551  ARG553  GLY616  TRP617  ASP618  TYR619  PRO620  LYS621  CYS622 
 ASP623  PHE694  ASN695  SER759  ASP760  ASP761  ALA762  ILE779  LEU786  VAL792 
 PHE793  MET794  SER795  GLU796  ALA797  LYS798  CYS799  TRP800  GLU811  SER814 

> <Gold.Protein.RotatedAtoms>
  152.0206  134.9825  160.0570 H   0  0  0  0  0  0  0  0  0  0  0  0  # atno 6907 bound_to 6896
  152.1341  133.4420  159.4743 H   0  0  0  0  0  0  0  0  0  0  0  0  # atno 6908 bound_to 6896
  150.6859  134.2303  159.4475 H   0  0  0  0  0  0  0  0  0  0  0  0  # atno 6909 bound_to 6896
  146.1251  139.6086  142.9264 H   0  0  0  0  0  0  0  0  0  0  0  0  # atno 7974 bound_to 7965
  155.9877  140.1194  157.0667 H   0  0  0  0  0  0  0  0  0  0  0  0  # atno 8008 bound_to 7997
  154.4202  140.1132  156.5591 H   0  0  0  0  0  0  0  0  0  0  0  0  # atno 8009 bound_to 7997
  155.6385  140.3473  155.4709 H   0  0  0  0  0  0  0  0  0  0  0  0  # atno 8010 bound_to 7997
  139.6522  144.0062  152.2170 H   0  0  0  0  0  0  0  0  0  0  0  0  # atno 10167 bound_to 10162
  157.1452  131.0550  151.2307 H   0  0  0  0  0  0  0  0  0  0  0  0  # atno 10718 bound_to 10713
  153.2031  135.4415  155.0291 H   0  0  0  0  0  0  0  0  0  0  0  0  # atno 10763 bound_to 10752
  154.8158  135.3315  154.7181 H   0  0  0  0  0  0  0  0  0  0  0  0  # atno 10764 bound_to 10752
  153.7625  135.6990  153.4978 H   0  0  0  0  0  0  0  0  0  0  0  0  # atno 10765 bound_to 10752
  141.0502  133.9700  157.2850 H   0  0  0  0  0  0  0  0  0  0  0  0  # atno 11005 bound_to 11000
  145.5383  141.0422  143.2345 LP  0  0  0  0  0  0  0  0  0  0  0  0  # atno 17320 bound_to 7965
  144.7634  139.6901  143.7225 LP  0  0  0  0  0  0  0  0  0  0  0  0  # atno 17321 bound_to 7965
  139.9780  144.6448  150.7927 LP  0  0  0  0  0  0  0  0  0  0  0  0  # atno 17342 bound_to 10162
  140.7543  143.3024  151.3046 LP  0  0  0  0  0  0  0  0  0  0  0  0  # atno 17343 bound_to 10162
  157.4271  130.7469  149.6960 LP  0  0  0  0  0  0  0  0  0  0  0  0  # atno 17370 bound_to 10713
  155.9781  130.4055  150.3671 LP  0  0  0  0  0  0  0  0  0  0  0  0  # atno 17371 bound_to 10713
  139.9344  135.0197  156.8507 LP  0  0  0  0  0  0  0  0  0  0  0  0  # atno 17394 bound_to 11000
  140.6070  134.0118  155.7561 LP  0  0  0  0  0  0  0  0  0  0  0  0  # atno 17395 bound_to 11000

$$$$
