AV-unprocessed.smi:1794|AV-procd|sdf|7235|dock3
  -GOLD-   22720 8483D 1   1.00000     0.00000
 Structure written by MMmdl.
 56 58  0  0  0  0  0  0  0  0  3 V2000
  148.7093  138.4796  154.4102 C   0  0  0  0  0  0  0  0  0  0  0  0
  149.3850  137.8247  155.6403 C   0  0  0  0  0  0  0  0  0  0  0  0
  148.2674  137.3074  156.5855 C   0  0  0  0  0  0  0  0  0  0  0  0
  150.2305  136.5964  155.1902 C   0  0  0  0  0  0  0  0  0  0  0  0
  149.5107  135.6977  154.2917 N   0  0  0  0  0  0  0  0  0  0  0  0
  149.3203  134.3923  154.5204 C   0  0  0  0  0  0  0  0  0  0  0  0
  149.7224  133.8148  155.5300 O   0  0  0  0  0  0  0  0  0  0  0  0
  148.6623  133.8100  153.5042 N   0  0  0  0  0  0  0  0  0  0  0  0
  148.3410  132.4325  153.3441 C   0  0  0  0  0  0  0  0  0  0  0  0
  149.2132  131.4140  153.8075 C   0  0  0  0  0  0  0  0  0  0  0  0
  148.8790  130.0604  153.6134 C   0  0  0  0  0  0  0  0  0  0  0  0
  147.6744  129.7443  152.9624 C   0  0  0  0  0  0  0  0  0  0  0  0
  146.8563  130.7352  152.5518 N   0  3  0  0  0  0  0  0  0  0  0  0
  147.1153  132.0558  152.7222 C   0  0  0  0  0  0  0  0  0  0  0  0
  146.1584  132.9828  152.2496 N   0  0  0  0  0  0  0  0  0  0  0  0
  146.5377  134.0128  151.2896 C   0  0  0  0  0  0  0  0  0  0  0  0
  145.2163  134.5689  150.7661 C   0  0  0  0  0  0  0  0  0  0  0  0
  144.3251  133.3307  150.7468 C   0  0  0  0  0  0  0  0  0  0  0  0
  144.8073  132.5172  151.9527 C   0  0  0  0  0  0  0  0  0  0  0  0
  150.2828  138.8041  156.3597 N   0  3  0  0  0  0  0  0  0  0  0  0
  151.0386  138.2479  157.5200 C   0  0  0  0  0  0  0  0  0  0  0  0
  151.7780  139.3617  158.2783 C   0  0  0  0  0  0  0  0  0  0  0  0
  152.6652  140.0266  157.3921 O   0  0  0  0  0  0  0  0  0  0  0  0
  151.9643  140.6512  156.3275 C   0  0  0  0  0  0  0  0  0  0  0  0
  151.2118  139.5946  155.5002 C   0  0  0  0  0  0  0  0  0  0  0  0
  147.9786  137.8111  153.9539 H   0  0  0  0  0  0  0  0  0  0  0  0
  149.4299  138.7314  153.6321 H   0  0  0  0  0  0  0  0  0  0  0  0
  148.1751  139.3912  154.6774 H   0  0  0  0  0  0  0  0  0  0  0  0
  147.6759  136.5121  156.1319 H   0  0  0  0  0  0  0  0  0  0  0  0
  147.5491  138.0867  156.8401 H   0  0  0  0  0  0  0  0  0  0  0  0
  148.6817  136.9109  157.5133 H   0  0  0  0  0  0  0  0  0  0  0  0
  151.1290  136.9059  154.6585 H   0  0  0  0  0  0  0  0  0  0  0  0
  150.5618  136.0312  156.0633 H   0  0  0  0  0  0  0  0  0  0  0  0
  149.1491  136.0956  153.4373 H   0  0  0  0  0  0  0  0  0  0  0  0
  148.4781  134.3952  152.7026 H   0  0  0  0  0  0  0  0  0  0  0  0
  150.1359  131.6508  154.3150 H   0  0  0  0  0  0  0  0  0  0  0  0
  149.5393  129.2774  153.9570 H   0  0  0  0  0  0  0  0  0  0  0  0
  147.3379  128.7366  152.7657 H   0  0  0  0  0  0  0  0  0  0  0  0
  147.1473  134.7874  151.7555 H   0  0  0  0  0  0  0  0  0  0  0  0
  147.1036  133.5771  150.4652 H   0  0  0  0  0  0  0  0  0  0  0  0
  144.8162  135.3039  151.4660 H   0  0  0  0  0  0  0  0  0  0  0  0
  145.3107  135.0453  149.7899 H   0  0  0  0  0  0  0  0  0  0  0  0
  143.2623  133.5697  150.7937 H   0  0  0  0  0  0  0  0  0  0  0  0
  144.5023  132.7674  149.8294 H   0  0  0  0  0  0  0  0  0  0  0  0
  144.7770  131.4466  151.7465 H   0  0  0  0  0  0  0  0  0  0  0  0
  144.1693  132.7162  152.8142 H   0  0  0  0  0  0  0  0  0  0  0  0
  150.3840  137.7431  158.2262 H   0  0  0  0  0  0  0  0  0  0  0  0
  151.7674  137.5127  157.1772 H   0  0  0  0  0  0  0  0  0  0  0  0
  151.0753  140.0710  158.7185 H   0  0  0  0  0  0  0  0  0  0  0  0
  152.3564  138.9360  159.0985 H   0  0  0  0  0  0  0  0  0  0  0  0
  151.2752  141.4010  156.7201 H   0  0  0  0  0  0  0  0  0  0  0  0
  152.6805  141.1788  155.6975 H   0  0  0  0  0  0  0  0  0  0  0  0
  151.9255  138.9312  155.0111 H   0  0  0  0  0  0  0  0  0  0  0  0
  150.6786  140.1317  154.7181 H   0  0  0  0  0  0  0  0  0  0  0  0
  149.6520  139.4888  156.7523 H   0  0  0  0  0  0  0  0  0  0  0  0
  145.9846  130.4731  152.0913 H   0  0  0  0  0  0  0  0  0  0  0  0
  1  2  1  0  0  0  0
  1 26  1  0  0  0  0
  1 27  1  0  0  0  0
  1 28  1  0  0  0  0
  2  3  1  0  0  0  0
  2  4  1  0  0  0  0
  2 20  1  0  0  0  0
  3 29  1  0  0  0  0
  3 30  1  0  0  0  0
  3 31  1  0  0  0  0
  4  5  1  0  0  0  0
  4 32  1  0  0  0  0
  4 33  1  0  0  0  0
  5  6  1  0  0  0  0
  5 34  1  0  0  0  0
  6  7  2  0  0  0  0
  6  8  1  0  0  0  0
  8  9  1  0  0  0  0
  8 35  1  0  0  0  0
  9 14  1  0  0  0  0
  9 10  2  0  0  0  0
 10 11  1  0  0  0  0
 10 36  1  0  0  0  0
 11 12  2  0  0  0  0
 11 37  1  0  0  0  0
 12 13  1  0  0  0  0
 12 38  1  0  0  0  0
 13 14  2  0  0  0  0
 13 56  1  0  0  0  0
 14 15  1  0  0  0  0
 15 19  1  0  0  0  0
 15 16  1  0  0  0  0
 16 17  1  0  0  0  0
 16 39  1  0  0  0  0
 16 40  1  0  0  0  0
 17 18  1  0  0  0  0
 17 41  1  0  0  0  0
 17 42  1  0  0  0  0
 18 19  1  0  0  0  0
 18 43  1  0  0  0  0
 18 44  1  0  0  0  0
 19 45  1  0  0  0  0
 19 46  1  0  0  0  0
 20 25  1  0  0  0  0
 20 21  1  0  0  0  0
 20 55  1  0  0  0  0
 21 22  1  0  0  0  0
 21 47  1  0  0  0  0
 21 48  1  0  0  0  0
 22 23  1  0  0  0  0
 22 49  1  0  0  0  0
 22 50  1  0  0  0  0
 23 24  1  0  0  0  0
 24 25  1  0  0  0  0
 24 51  1  0  0  0  0
 24 52  1  0  0  0  0
 25 53  1  0  0  0  0
 25 54  1  0  0  0  0
M  CHG  1  13   1
M  CHG  1  20   1
M  END
> <s_m_source_file>
AV-unprocessed.smi

> <i_m_source_file_index>
1794

> <i_lp_mmshare_version>
43012

> <i_f3d_flags>
0

> <s_epik_input>
W0NIMl0xW0NIMl1PW0NIMl1bQ0gyXU4xQyhbQ0gzXSkoW0NIM10pW0NIMl1bTkhdQyg9TylbTkhdYzJbY0hdW2NIXVtjSF1uYzJOM1tDSDJdW0NIMl1bQ0gyXVtDSDJdMw==

> <s_epik_cmdline>
J2VwaWtfcHl0aG9uJywgJy1waCcsICc3LjAnLCAnLXRuJywgJzgnLCAnLW1hJywgJzIwMCcsICctbWV0YWxfYmluZGluZycsICctaW1hZScsICc8aW5maWxlLm1hZT4nLCAnLW9tYWUnLCAnPG91dGZpbGUubWFlPic=

> <r_lp_tautomer_probability>
0.999994

> <r_epik_Ionization_Penalty>
1.80144

> <r_epik_Ionization_Penalty_Charging>
1.80142

> <r_epik_Ionization_Penalty_Neutral>
2.02981e-05

> <r_epik_State_Penalty>
1.84115

> <r_epik_Charging_Adjusted_Penalty>
3.64257

> <i_epik_Tot_Q>
2

> <i_epik_Tot_abs_Q>
2

> <r_epik_Metal_State_Penalty>
1.92426

> <b_epik_Metal_Only>
0

> <s_lp_Force_Field>
OPLS_2005

> <r_lp_Energy>
63.0658

> <b_lp_Chiralities_Consistent>
1

> <s_lp_Variant>
AV-unprocessed.smi:1794-4

> <Gold.Version>
5.8.1

> <Gold.Id.Protein>
6NUR|6NUR_protein|mol2

> <Gold.PLP.Fitness>
41.6687

> <Gold.PLP.PLP>
-34.4345

> <Gold.PLP.part.hbond>
-3.8134

> <Gold.PLP.part.metal>
0.0000

> <Gold.PLP.part.buried>
-3.7322

> <Gold.PLP.part.nonpolar>
-26.1938

> <Gold.PLP.part.repulsive>
0.1798

> <Gold.PLP.ligand.clash>
0.0000

> <Gold.PLP.ligand.torsion>
0.7009

> <Gold.PLP.Chemscore.Hbond>
2.7160

> <Gold.PLP.Chemscore.CHOScore>
0.0000

> <Gold.PLP.Chemscore.Metal>
0.0000

> <Gold.Chemscore.Hbonds>
donor molecule, donor type, donor heavy atom, donor atom, acceptor molecule, acceptor atom, score
      L1  H     5    34       P1  7948  1.00
      L1  H     8    35       P1  7948  0.69
      P1  H  7997  8008       L1    23  0.98

> <Gold.PLP.Chemscore.Internal.Correction>
0.4879

> <Gold.Rescore>
     Score         DG    S(hbond)    S(metal)    S(lipo)     H(rot)  DE(clash)    DE(int)     intcor
     14.70     -16.72       1.86        0.00      78.70       1.64       0.02       2.00       ----

> <Gold.Chemscore.Fitness>
14.6953

> <Gold.Chemscore.DG>
-16.7163

> <Gold.Chemscore.ZeroCoef>
-5.4800

> <Gold.Chemscore.Hbond>
1.8605

> <Gold.Chemscore.Metal>
0.0000

> <Gold.Chemscore.Lipo>
78.6990

> <Gold.Chemscore.Internal_Hbond>
0.0000

> <Gold.Chemscore.DEClash>
0.0162

> <Gold.Chemscore.DEInternal>
2.0047

> <Gold.Chemscore.Rot>
1.6350

> <Gold.Chemscore.Internal.Correction>
   9.000000E+99

> <Gold.Chemscore.Hbonds>
donor molecule, donor type, donor heavy atom, donor atom, acceptor molecule, acceptor atom, score
      L1  H     5    34       P1  7948  0.86
      L1  H     8    35       P1  7948  0.09
      P1  H  7997  8008       L1    23  0.51

> <Gold.Chemscore.Hbond.Weighted>
-6.2141

> <Gold.Chemscore.Metal.Weighted>
-0.0000

> <Gold.Chemscore.Lipo.Weighted>
-9.2078

> <Gold.Chemscore.Internal_Hbond.Weighted>
0.0000

> <Gold.Chemscore.DEClash.Weighted>
0.0162

> <Gold.Chemscore.DEInternal.Weighted>
2.0047

> <Gold.Chemscore.Rot.Weighted>
4.1856

> <Gold.Chemscore.Internal.Correction.Weighted>
   9.000000E+99

> <Gold.Protein.RotatedTorsions>
[ 6907 6896 6895 6894 ] final -155.81 input  -60.11 | X-H torsion
[ 7974 7965 7964 7962 ] final -152.03 input  175.53 | X-H torsion
[ 8008 7997 7996 7995 ] final  -78.78 input   59.86 | X-H torsion
[ 10167 10162 10161 10158 ] final  133.85 input  -65.29 | X-H torsion
[ 10718 10713 10712 10709 ] final   53.03 input   66.30 | X-H torsion
[ 10763 10752 10751 10750 ] final  131.67 input  -60.55 | X-H torsion
[ 11005 11000 10999 10996 ] final   49.66 input  -57.11 | X-H torsion

> <Gold.Protein.ActiveResidues>
 VAL166  LYS551  ARG553  GLY616  TRP617  ASP618  TYR619  PRO620  LYS621  CYS622 
 ASP623  PHE694  ASN695  SER759  ASP760  ASP761  ALA762  ILE779  LEU786  VAL792 
 PHE793  MET794  SER795  GLU796  ALA797  LYS798  CYS799  TRP800  GLU811  SER814 

> <Gold.Protein.RotatedAtoms>
  151.2782  133.4222  159.2625 H   0  0  0  0  0  0  0  0  0  0  0  0  # atno 6907 bound_to 6896
  151.0384  134.9590  159.8159 H   0  0  0  0  0  0  0  0  0  0  0  0  # atno 6908 bound_to 6896
  152.5360  134.2741  159.9035 H   0  0  0  0  0  0  0  0  0  0  0  0  # atno 6909 bound_to 6896
  144.7817  140.4718  143.5835 H   0  0  0  0  0  0  0  0  0  0  0  0  # atno 7974 bound_to 7965
  154.5722  140.0689  156.8981 H   0  0  0  0  0  0  0  0  0  0  0  0  # atno 8008 bound_to 7997
  155.2614  140.3359  155.4254 H   0  0  0  0  0  0  0  0  0  0  0  0  # atno 8009 bound_to 7997
  156.2127  140.1765  156.7645 H   0  0  0  0  0  0  0  0  0  0  0  0  # atno 8010 bound_to 7997
  139.5280  144.6596  151.5056 H   0  0  0  0  0  0  0  0  0  0  0  0  # atno 10167 bound_to 10162
  157.5130  130.8513  149.8459 H   0  0  0  0  0  0  0  0  0  0  0  0  # atno 10718 bound_to 10713
  153.7782  135.3172  155.3362 H   0  0  0  0  0  0  0  0  0  0  0  0  # atno 10763 bound_to 10752
  154.8171  135.4628  154.0677 H   0  0  0  0  0  0  0  0  0  0  0  0  # atno 10764 bound_to 10752
  153.1958  135.6915  153.8379 H   0  0  0  0  0  0  0  0  0  0  0  0  # atno 10765 bound_to 10752
  140.1084  134.4987  155.8699 H   0  0  0  0  0  0  0  0  0  0  0  0  # atno 11005 bound_to 11000
  145.6033  139.1506  143.3117 LP  0  0  0  0  0  0  0  0  0  0  0  0  # atno 17320 bound_to 7965
  146.2028  140.6153  142.9094 LP  0  0  0  0  0  0  0  0  0  0  0  0  # atno 17321 bound_to 7965
  140.6437  143.8837  150.6717 LP  0  0  0  0  0  0  0  0  0  0  0  0  # atno 17342 bound_to 10162
  140.2180  143.3831  152.1666 LP  0  0  0  0  0  0  0  0  0  0  0  0  # atno 17343 bound_to 10162
  156.0301  130.3767  150.1711 LP  0  0  0  0  0  0  0  0  0  0  0  0  # atno 17370 bound_to 10713
  156.9900  130.9890  151.3417 LP  0  0  0  0  0  0  0  0  0  0  0  0  # atno 17371 bound_to 10713
  141.2124  133.6719  156.6657 LP  0  0  0  0  0  0  0  0  0  0  0  0  # atno 17394 bound_to 11000
  140.3124  134.8075  157.4187 LP  0  0  0  0  0  0  0  0  0  0  0  0  # atno 17395 bound_to 11000

$$$$
