AV-unprocessed.smi:1421|AV-procd|sdf|5791|dock6
  -GOLD-   22720 5443D 1   1.00000     0.00000
 Structure written by MMmdl.
 44 45  0  0  0  0  0  0  0  0  2 V2000
  151.6546  139.2273  157.1748 C   0  0  0  0  0  0  0  0  0  0  0  0
  151.8332  139.1003  155.3439 S   0  0  0  0  0  0  0  0  0  0  0  0
  150.8813  140.0816  154.8022 O   0  0  0  0  0  0  0  0  0  0  0  0
  153.2585  139.3293  155.0526 O   0  0  0  0  0  0  0  0  0  0  0  0
  151.3344  137.5808  155.0472 N   0  5  0  0  0  0  0  0  0  0  0  0
  149.9701  137.3020  154.6225 C   0  0  0  0  0  0  0  0  0  0  0  0
  149.2718  136.4081  155.6704 C   0  0  0  0  0  0  0  0  0  0  0  0
  148.9930  134.9807  155.1756 C   0  0  0  0  0  0  0  0  0  0  0  0
  149.6071  134.0184  155.6423 O   0  0  0  0  0  0  0  0  0  0  0  0
  148.0839  134.8578  154.1961 N   0  0  0  0  0  0  0  0  0  0  0  0
  147.6728  133.5935  153.6005 C   0  0  0  0  0  0  0  0  0  0  0  0
  146.5241  133.7557  152.6078 C   0  0  0  0  0  0  0  0  0  0  0  0
  146.0348  135.0494  152.3166 C   0  0  0  0  0  0  0  0  0  0  0  0
  144.9560  135.1973  151.4270 C   0  0  0  0  0  0  0  0  0  0  0  0
  144.3959  134.0381  150.8629 C   0  0  0  0  0  0  0  0  0  0  0  0
  144.8446  132.7956  151.1335 N   0  0  0  0  0  0  0  0  0  0  0  0
  145.8859  132.6460  151.9887 C   0  0  0  0  0  0  0  0  0  0  0  0
  146.3399  131.3355  152.2214 N   0  0  0  0  0  0  0  0  0  0  0  0
  146.3615  130.8799  153.6072 C   0  0  0  0  0  0  0  0  0  0  0  0
  147.0711  129.5177  153.6944 C   0  0  0  0  0  0  0  0  0  0  0  0
  146.4244  128.5875  152.8297 O   0  0  0  0  0  0  0  0  0  0  0  0
  146.4619  129.0044  151.4672 C   0  0  0  0  0  0  0  0  0  0  0  0
  145.7452  130.3576  151.3190 C   0  0  0  0  0  0  0  0  0  0  0  0
  151.8693  140.2497  157.4833 H   0  0  0  0  0  0  0  0  0  0  0  0
  152.3542  138.5532  157.6672 H   0  0  0  0  0  0  0  0  0  0  0  0
  150.6346  138.9712  157.4596 H   0  0  0  0  0  0  0  0  0  0  0  0
  149.3923  138.2182  154.4953 H   0  0  0  0  0  0  0  0  0  0  0  0
  149.9509  136.8002  153.6540 H   0  0  0  0  0  0  0  0  0  0  0  0
  149.8770  136.3592  156.5775 H   0  0  0  0  0  0  0  0  0  0  0  0
  148.3214  136.8563  155.9634 H   0  0  0  0  0  0  0  0  0  0  0  0
  147.6374  135.6953  153.8519 H   0  0  0  0  0  0  0  0  0  0  0  0
  148.5495  133.1326  153.1473 H   0  0  0  0  0  0  0  0  0  0  0  0
  147.3372  132.9149  154.3861 H   0  0  0  0  0  0  0  0  0  0  0  0
  146.4747  135.9239  152.7736 H   0  0  0  0  0  0  0  0  0  0  0  0
  144.5642  136.1747  151.1870 H   0  0  0  0  0  0  0  0  0  0  0  0
  143.5650  134.1091  150.1767 H   0  0  0  0  0  0  0  0  0  0  0  0
  146.8745  131.6126  154.2312 H   0  0  0  0  0  0  0  0  0  0  0  0
  145.3418  130.7864  153.9838 H   0  0  0  0  0  0  0  0  0  0  0  0
  148.1245  129.6099  153.4246 H   0  0  0  0  0  0  0  0  0  0  0  0
  147.0348  129.1389  154.7158 H   0  0  0  0  0  0  0  0  0  0  0  0
  147.4959  129.0734  151.1254 H   0  0  0  0  0  0  0  0  0  0  0  0
  145.9721  128.2505  150.8508 H   0  0  0  0  0  0  0  0  0  0  0  0
  144.6864  130.2474  151.5579 H   0  0  0  0  0  0  0  0  0  0  0  0
  145.8056  130.7023  150.2861 H   0  0  0  0  0  0  0  0  0  0  0  0
  1  2  1  0  0  0  0
  1 24  1  0  0  0  0
  1 25  1  0  0  0  0
  1 26  1  0  0  0  0
  2  3  2  0  0  0  0
  2  4  2  0  0  0  0
  2  5  1  0  0  0  0
  5  6  1  0  0  0  0
  6  7  1  0  0  0  0
  6 27  1  0  0  0  0
  6 28  1  0  0  0  0
  7  8  1  0  0  0  0
  7 29  1  0  0  0  0
  7 30  1  0  0  0  0
  8  9  2  0  0  0  0
  8 10  1  0  0  0  0
 10 11  1  0  0  0  0
 10 31  1  0  0  0  0
 11 12  1  0  0  0  0
 11 32  1  0  0  0  0
 11 33  1  0  0  0  0
 12 17  1  0  0  0  0
 12 13  2  0  0  0  0
 13 14  1  0  0  0  0
 13 34  1  0  0  0  0
 14 15  2  0  0  0  0
 14 35  1  0  0  0  0
 15 16  1  0  0  0  0
 15 36  1  0  0  0  0
 16 17  2  0  0  0  0
 17 18  1  0  0  0  0
 18 23  1  0  0  0  0
 18 19  1  0  0  0  0
 19 20  1  0  0  0  0
 19 37  1  0  0  0  0
 19 38  1  0  0  0  0
 20 21  1  0  0  0  0
 20 39  1  0  0  0  0
 20 40  1  0  0  0  0
 21 22  1  0  0  0  0
 22 23  1  0  0  0  0
 22 41  1  0  0  0  0
 22 42  1  0  0  0  0
 23 43  1  0  0  0  0
 23 44  1  0  0  0  0
M  CHG  1   5  -1
M  END
> <s_m_source_file>
AV-unprocessed.smi

> <i_m_source_file_index>
1421

> <i_lp_mmshare_version>
43012

> <i_f3d_flags>
0

> <s_epik_input>
W0NIM11TKD1PKSg9TylbTkhdW0NIMl1bQ0gyXUMoPU8pW05IXVtDSDJdYzFbY0hdW2NIXVtjSF1uYzFOMltDSDJdW0NIMl1PW0NIMl1bQ0gyXTI=

> <s_epik_cmdline>
J2VwaWtfcHl0aG9uJywgJy1waCcsICc3LjAnLCAnLXRuJywgJzgnLCAnLW1hJywgJzIwMCcsICctbWV0YWxfYmluZGluZycsICctaW1hZScsICc8aW5maWxlLm1hZT4nLCAnLW9tYWUnLCAnPG91dGZpbGUubWFlPic=

> <r_lp_tautomer_probability>
1

> <r_epik_Ionization_Penalty>
6.31253

> <r_epik_Ionization_Penalty_Charging>
6.30704

> <r_epik_Ionization_Penalty_Neutral>
0.00548981

> <r_epik_State_Penalty>
6.31049

> <r_epik_Charging_Adjusted_Penalty>
12.6175

> <i_epik_Tot_Q>
-1

> <i_epik_Tot_abs_Q>
1

> <r_epik_Metal_State_Penalty>
2.24651

> <b_epik_Metal_Only>
1

> <s_lp_Force_Field>
OPLS_2005

> <r_lp_Energy>
12.571

> <b_lp_Chiralities_Consistent>
1

> <s_lp_Variant>
AV-unprocessed.smi:1421-2

> <Gold.Version>
5.8.1

> <Gold.Id.Protein>
6NUR|6NUR_protein|mol2

> <Gold.PLP.Fitness>
40.3139

> <Gold.PLP.PLP>
-32.2651

> <Gold.PLP.part.hbond>
-3.9771

> <Gold.PLP.part.metal>
0.0000

> <Gold.PLP.part.buried>
-4.8319

> <Gold.PLP.part.nonpolar>
-24.4092

> <Gold.PLP.part.repulsive>
0.6694

> <Gold.PLP.ligand.clash>
0.0000

> <Gold.PLP.ligand.torsion>
1.0612

> <Gold.PLP.Chemscore.Hbond>
2.0000

> <Gold.PLP.Chemscore.CHOScore>
0.9717

> <Gold.PLP.Chemscore.Metal>
0.0000

> <Gold.Chemscore.Hbonds>
donor molecule, donor type, donor heavy atom, donor atom, acceptor molecule, acceptor atom, score
      P1  H  7989  7998       L1     3  1.00
      P1  H  7997  8008       L1     4  1.00
      L1  C    15    36       P1 10186  0.71

> <Gold.PLP.Chemscore.Internal.Correction>
1.2561

> <Gold.Rescore>
     Score         DG    S(hbond)    S(metal)    S(lipo)     H(rot)  DE(clash)    DE(int)     intcor
     12.83     -14.21       2.10        0.00      68.49       2.46       0.10       1.28       ----

> <Gold.Chemscore.Fitness>
12.8320

> <Gold.Chemscore.DG>
-14.2127

> <Gold.Chemscore.ZeroCoef>
-5.4800

> <Gold.Chemscore.Hbond>
2.1027

> <Gold.Chemscore.Metal>
0.0000

> <Gold.Chemscore.Lipo>
68.4924

> <Gold.Chemscore.Internal_Hbond>
0.0000

> <Gold.Chemscore.DEClash>
0.1032

> <Gold.Chemscore.DEInternal>
1.2775

> <Gold.Chemscore.Rot>
2.4625

> <Gold.Chemscore.Internal.Correction>
   9.000000E+99

> <Gold.Chemscore.Hbonds>
donor molecule, donor type, donor heavy atom, donor atom, acceptor molecule, acceptor atom, score
      P1  H  7989  7998       L1     3  0.65
      P1  H  7997  8008       L1     4  1.00

> <Gold.Chemscore.Hbond.Weighted>
-7.0231

> <Gold.Chemscore.Metal.Weighted>
-0.0000

> <Gold.Chemscore.Lipo.Weighted>
-8.0136

> <Gold.Chemscore.Internal_Hbond.Weighted>
0.0000

> <Gold.Chemscore.DEClash.Weighted>
0.1032

> <Gold.Chemscore.DEInternal.Weighted>
1.2775

> <Gold.Chemscore.Rot.Weighted>
6.3040

> <Gold.Chemscore.Internal.Correction.Weighted>
   9.000000E+99

> <Gold.Protein.RotatedTorsions>
[ 6907 6896 6895 6894 ] final   39.36 input  -60.11 | X-H torsion
[ 7974 7965 7964 7962 ] final  -61.21 input  175.53 | X-H torsion
[ 8008 7997 7996 7995 ] final  -17.12 input   59.86 | X-H torsion
[ 10167 10162 10161 10158 ] final  -90.37 input  -65.29 | X-H torsion
[ 10718 10713 10712 10709 ] final   13.32 input   66.30 | X-H torsion
[ 10763 10752 10751 10750 ] final  -34.00 input  -60.55 | X-H torsion
[ 11005 11000 10999 10996 ] final   52.07 input  -57.11 | X-H torsion

> <Gold.Protein.ActiveResidues>
 VAL166  LYS551  ARG553  GLY616  TRP617  ASP618  TYR619  PRO620  LYS621  CYS622 
 ASP623  PHE694  ASN695  SER759  ASP760  ASP761  ALA762  ILE779  LEU786  VAL792 
 PHE793  MET794  SER795  GLU796  ALA797  LYS798  CYS799  TRP800  GLU811  SER814 

> <Gold.Protein.RotatedAtoms>
  152.1685  134.8853  160.0535 H   0  0  0  0  0  0  0  0  0  0  0  0  # atno 6907 bound_to 6896
  151.9822  133.3756  159.4120 H   0  0  0  0  0  0  0  0  0  0  0  0  # atno 6908 bound_to 6896
  150.6898  134.3949  159.5137 H   0  0  0  0  0  0  0  0  0  0  0  0  # atno 6909 bound_to 6896
  145.8062  140.8626  143.0205 H   0  0  0  0  0  0  0  0  0  0  0  0  # atno 7974 bound_to 7965
  154.5002  140.2151  155.9363 H   0  0  0  0  0  0  0  0  0  0  0  0  # atno 8008 bound_to 7997
  156.1423  140.3177  155.8483 H   0  0  0  0  0  0  0  0  0  0  0  0  # atno 8009 bound_to 7997
  155.4096  140.0489  157.3023 H   0  0  0  0  0  0  0  0  0  0  0  0  # atno 8010 bound_to 7997
  140.3555  143.2869  151.9676 H   0  0  0  0  0  0  0  0  0  0  0  0  # atno 10167 bound_to 10162
  157.0230  130.6162  149.5724 H   0  0  0  0  0  0  0  0  0  0  0  0  # atno 10718 bound_to 10713
  153.8395  135.6859  153.4804 H   0  0  0  0  0  0  0  0  0  0  0  0  # atno 10763 bound_to 10752
  153.1462  135.4637  154.9568 H   0  0  0  0  0  0  0  0  0  0  0  0  # atno 10764 bound_to 10752
  154.7851  135.3282  154.7850 H   0  0  0  0  0  0  0  0  0  0  0  0  # atno 10765 bound_to 10752
  140.0879  134.5248  155.8880 H   0  0  0  0  0  0  0  0  0  0  0  0  # atno 11005 bound_to 11000
  144.6762  140.0330  143.7482 LP  0  0  0  0  0  0  0  0  0  0  0  0  # atno 17320 bound_to 7965
  145.9825  139.2952  143.1033 LP  0  0  0  0  0  0  0  0  0  0  0  0  # atno 17321 bound_to 7965
  139.4820  144.6038  151.7557 LP  0  0  0  0  0  0  0  0  0  0  0  0  # atno 17342 bound_to 10162
  140.5177  144.0927  150.6013 LP  0  0  0  0  0  0  0  0  0  0  0  0  # atno 17343 bound_to 10162
  156.0096  130.5186  150.7944 LP  0  0  0  0  0  0  0  0  0  0  0  0  # atno 17370 bound_to 10713
  157.5235  131.0933  151.0047 LP  0  0  0  0  0  0  0  0  0  0  0  0  # atno 17371 bound_to 10713
  141.2068  133.6659  156.6269 LP  0  0  0  0  0  0  0  0  0  0  0  0  # atno 17394 bound_to 11000
  140.3393  134.7862  157.4386 LP  0  0  0  0  0  0  0  0  0  0  0  0  # atno 17395 bound_to 11000

$$$$
