AV-unprocessed.smi:242|AV-procd|sdf|1844|dock6
  -GOLD-   2262020463D 1   1.00000     0.00000
 Structure written by MMmdl.
 58 61  0  0  0  0  0  0  0  0  2 V2000
  146.0270  132.6670  150.9544 C   0  0  0  0  0  0  0  0  0  0  0  0
  144.7097  132.3096  151.6705 C   0  0  0  0  0  0  0  0  0  0  0  0
  143.5270  132.5625  150.7155 C   0  0  0  0  0  0  0  0  0  0  0  0
  144.5451  133.0712  152.9413 N   0  3  2  0  0  0  0  0  0  0  0  0
  144.0972  134.4789  152.7961 C   0  0  0  0  0  0  0  0  0  0  0  0
  144.6269  135.2127  154.0257 C   0  0  0  0  0  0  0  0  0  0  0  0
  145.9880  134.5480  154.2017 C   0  0  1  0  0  0  0  0  0  0  0  0
  146.6282  134.7516  155.5062 N   0  0  0  0  0  0  0  0  0  0  0  0
  145.9823  135.5735  156.5267 C   0  0  0  0  0  0  0  0  0  0  0  0
  147.9765  134.6087  155.6176 C   0  0  0  0  0  0  0  0  0  0  0  0
  148.6057  133.6211  154.9258 N   0  0  0  0  0  0  0  0  0  0  0  0
  149.9294  133.4651  155.0166 C   0  0  0  0  0  0  0  0  0  0  0  0
  150.8042  134.1704  155.7347 N   0  0  0  0  0  0  0  0  0  0  0  0
  150.1834  135.1608  156.4365 C   0  0  0  0  0  0  0  0  0  0  0  0
  148.7882  135.4473  156.4366 C   0  0  0  0  0  0  0  0  0  0  0  0
  148.5290  136.5147  157.2893 N   0  0  0  0  0  0  0  0  0  0  0  0
  149.7002  136.8403  157.7624 C   0  0  0  0  0  0  0  0  0  0  0  0
  150.7518  136.0851  157.2959 N   0  0  0  0  0  0  0  0  0  0  0  0
  152.1532  136.2235  157.6611 C   0  0  0  0  0  0  0  0  0  0  0  0
  153.0316  136.9127  156.5810 C   0  0  0  0  0  0  0  0  0  0  0  0
  154.3382  136.3800  156.6877 O   0  0  0  0  0  0  0  0  0  0  0  0
  152.5543  136.6812  155.1315 C   0  0  0  0  0  0  0  0  0  0  0  0
  151.2693  137.4731  154.8347 C   0  0  0  0  0  0  0  0  0  0  0  0
  151.4919  138.8591  155.0716 O   0  0  0  0  0  0  0  0  0  0  0  0
  151.8257  139.1519  156.4244 C   0  0  0  0  0  0  0  0  0  0  0  0
  153.1296  138.4326  156.8177 C   0  0  0  0  0  0  0  0  0  0  0  0
  145.7327  133.0795  153.8352 C   0  0  0  0  0  0  0  0  0  0  0  0
  146.1115  132.1345  150.0066 H   0  0  0  0  0  0  0  0  0  0  0  0
  146.9032  132.3962  151.5435 H   0  0  0  0  0  0  0  0  0  0  0  0
  146.0853  133.7345  150.7386 H   0  0  0  0  0  0  0  0  0  0  0  0
  144.7358  131.2465  151.9146 H   0  0  0  0  0  0  0  0  0  0  0  0
  143.6594  132.0200  149.7789 H   0  0  0  0  0  0  0  0  0  0  0  0
  143.4357  133.6214  150.4711 H   0  0  0  0  0  0  0  0  0  0  0  0
  142.5758  132.2370  151.1354 H   0  0  0  0  0  0  0  0  0  0  0  0
  144.5417  134.9176  151.9007 H   0  0  0  0  0  0  0  0  0  0  0  0
  143.0128  134.5512  152.7065 H   0  0  0  0  0  0  0  0  0  0  0  0
  144.6940  136.2909  153.8782 H   0  0  0  0  0  0  0  0  0  0  0  0
  143.9783  135.0252  154.8819 H   0  0  0  0  0  0  0  0  0  0  0  0
  146.6475  134.9370  153.4238 H   0  0  0  0  0  0  0  0  0  0  0  0
  146.6605  136.3371  156.9105 H   0  0  0  0  0  0  0  0  0  0  0  0
  145.6586  134.9508  157.3608 H   0  0  0  0  0  0  0  0  0  0  0  0
  145.1048  136.0866  156.1345 H   0  0  0  0  0  0  0  0  0  0  0  0
  150.3476  132.6596  154.4312 H   0  0  0  0  0  0  0  0  0  0  0  0
  149.8304  137.6484  158.4674 H   0  0  0  0  0  0  0  0  0  0  0  0
  152.1932  136.7720  158.6017 H   0  0  0  0  0  0  0  0  0  0  0  0
  152.5451  135.2296  157.8829 H   0  0  0  0  0  0  0  0  0  0  0  0
  154.3583  135.7734  157.4119 H   0  0  0  0  0  0  0  0  0  0  0  0
  153.3257  137.0165  154.4366 H   0  0  0  0  0  0  0  0  0  0  0  0
  152.4096  135.6220  154.9211 H   0  0  0  0  0  0  0  0  0  0  0  0
  150.9829  137.3399  153.7916 H   0  0  0  0  0  0  0  0  0  0  0  0
  150.4335  137.1166  155.4378 H   0  0  0  0  0  0  0  0  0  0  0  0
  151.9525  140.2297  156.5257 H   0  0  0  0  0  0  0  0  0  0  0  0
  151.0017  138.8729  157.0818 H   0  0  0  0  0  0  0  0  0  0  0  0
  153.3798  138.6458  157.8576 H   0  0  0  0  0  0  0  0  0  0  0  0
  153.9414  138.8466  156.2175 H   0  0  0  0  0  0  0  0  0  0  0  0
  145.4967  132.4665  154.7048 H   0  0  0  0  0  0  0  0  0  0  0  0
  146.6225  132.6558  153.3683 H   0  0  0  0  0  0  0  0  0  0  0  0
  143.8159  132.6060  153.4628 H   0  0  0  0  0  0  0  0  0  0  0  0
  1  2  1  0  0  0  0
  1 28  1  0  0  0  0
  1 29  1  0  0  0  0
  1 30  1  0  0  0  0
  2  3  1  0  0  0  0
  2  4  1  0  0  0  0
  2 31  1  0  0  0  0
  3 32  1  0  0  0  0
  3 33  1  0  0  0  0
  3 34  1  0  0  0  0
  4 27  1  0  0  0  0
  4  5  1  0  0  0  0
  4 58  1  0  0  0  0
  5  6  1  0  0  0  0
  5 35  1  0  0  0  0
  5 36  1  0  0  0  0
  6  7  1  0  0  0  0
  6 37  1  0  0  0  0
  6 38  1  0  0  0  0
  7  8  1  0  0  0  0
  7 27  1  0  0  0  0
  7 39  1  0  0  0  0
  8  9  1  0  0  0  0
  8 10  1  0  0  0  0
  9 40  1  0  0  0  0
  9 41  1  0  0  0  0
  9 42  1  0  0  0  0
 10 15  1  0  0  0  0
 10 11  2  0  0  0  0
 11 12  1  0  0  0  0
 12 13  2  0  0  0  0
 12 43  1  0  0  0  0
 13 14  1  0  0  0  0
 14 18  1  0  0  0  0
 14 15  2  0  0  0  0
 15 16  1  0  0  0  0
 16 17  2  0  0  0  0
 17 18  1  0  0  0  0
 17 44  1  0  0  0  0
 18 19  1  0  0  0  0
 19 20  1  0  0  0  0
 19 45  1  0  0  0  0
 19 46  1  0  0  0  0
 20 26  1  0  0  0  0
 20 21  1  0  0  0  0
 20 22  1  0  0  0  0
 21 47  1  0  0  0  0
 22 23  1  0  0  0  0
 22 48  1  0  0  0  0
 22 49  1  0  0  0  0
 23 24  1  0  0  0  0
 23 50  1  0  0  0  0
 23 51  1  0  0  0  0
 24 25  1  0  0  0  0
 25 26  1  0  0  0  0
 25 52  1  0  0  0  0
 25 53  1  0  0  0  0
 26 54  1  0  0  0  0
 26 55  1  0  0  0  0
 27 56  1  0  0  0  0
 27 57  1  0  0  0  0
M  CHG  1   4   1
M  END
> <s_m_source_file>
AV-unprocessed.smi

> <i_m_source_file_index>
242

> <i_lp_mmshare_version>
43012

> <i_f3d_flags>
0

> <s_epik_input>
W0NIM11bQ0hdKFtDSDNdKU4xW0NIMl1bQ0gyXVtDQEhdKFtDSDJdMSlOKFtDSDNdKWMobltjSF1uMiljKGMyMyluW2NIXW4zW0NIMl1DNChbT0hdKVtDSDJdW0NIMl1PW0NIMl1bQ0gyXTQ=

> <s_epik_cmdline>
J2VwaWtfcHl0aG9uJywgJy1waCcsICc3LjAnLCAnLXRuJywgJzgnLCAnLW1hJywgJzIwMCcsICctbWV0YWxfYmluZGluZycsICctaW1hZScsICc8aW5maWxlLm1hZT4nLCAnLW9tYWUnLCAnPG91dGZpbGUubWFlPic=

> <r_lp_tautomer_probability>
1

> <r_epik_Ionization_Penalty>
0.000825961

> <r_epik_Ionization_Penalty_Charging>
0.00034898

> <r_epik_Ionization_Penalty_Neutral>
0.000476981

> <r_epik_State_Penalty>
-0

> <r_epik_Charging_Adjusted_Penalty>
0.00034898

> <i_epik_Tot_Q>
1

> <i_epik_Tot_abs_Q>
1

> <r_epik_Metal_State_Penalty>
-0

> <b_epik_Metal_Only>
0

> <s_lp_Force_Field>
OPLS_2005

> <r_lp_Energy>
46.8911

> <b_lp_Chiralities_Consistent>
1

> <s_lp_Variant>
AV-unprocessed.smi:242-1

> <Gold.Version>
5.8.1

> <Gold.Id.Protein>
6NUR|6NUR_protein|mol2

> <Gold.PLP.Fitness>
42.4452

> <Gold.PLP.PLP>
-33.4390

> <Gold.PLP.part.hbond>
-3.0000

> <Gold.PLP.part.metal>
0.0000

> <Gold.PLP.part.buried>
-6.7359

> <Gold.PLP.part.nonpolar>
-24.8951

> <Gold.PLP.part.repulsive>
0.3574

> <Gold.PLP.ligand.clash>
0.0000

> <Gold.PLP.ligand.torsion>
1.6712

> <Gold.PLP.Chemscore.Hbond>
3.8720

> <Gold.PLP.Chemscore.CHOScore>
0.0000

> <Gold.PLP.Chemscore.Metal>
0.0000

> <Gold.Chemscore.Hbonds>
donor molecule, donor type, donor heavy atom, donor atom, acceptor molecule, acceptor atom, score
      L1  H     4    58       P1 10957  2.00
      P1  H 10752 10763       L1    21  0.62

> <Gold.PLP.Chemscore.Internal.Correction>
0.7326

> <Gold.Rescore>
     Score         DG    S(hbond)    S(metal)    S(lipo)     H(rot)  DE(clash)    DE(int)     intcor
      9.74     -14.14       1.88        0.00      68.96       2.22       0.00       4.40       ----

> <Gold.Chemscore.Fitness>
9.7382

> <Gold.Chemscore.DG>
-14.1359

> <Gold.Chemscore.ZeroCoef>
-5.4800

> <Gold.Chemscore.Hbond>
1.8802

> <Gold.Chemscore.Metal>
0.0000

> <Gold.Chemscore.Lipo>
68.9580

> <Gold.Chemscore.Internal_Hbond>
0.0000

> <Gold.Chemscore.DEClash>
0.0015

> <Gold.Chemscore.DEInternal>
4.3963

> <Gold.Chemscore.Rot>
2.2234

> <Gold.Chemscore.Internal.Correction>
   9.000000E+99

> <Gold.Chemscore.Hbonds>
donor molecule, donor type, donor heavy atom, donor atom, acceptor molecule, acceptor atom, score
      L1  H     4    58       P1 10957  0.39
      P1  H 10752 10763       L1    21  0.12

> <Gold.Chemscore.Hbond.Weighted>
-6.2798

> <Gold.Chemscore.Metal.Weighted>
-0.0000

> <Gold.Chemscore.Lipo.Weighted>
-8.0681

> <Gold.Chemscore.Internal_Hbond.Weighted>
0.0000

> <Gold.Chemscore.DEClash.Weighted>
0.0015

> <Gold.Chemscore.DEInternal.Weighted>
4.3963

> <Gold.Chemscore.Rot.Weighted>
5.6919

> <Gold.Chemscore.Internal.Correction.Weighted>
   9.000000E+99

> <Gold.Protein.RotatedTorsions>
[ 6907 6896 6895 6894 ] final  134.02 input  -60.11 | X-H torsion
[ 7974 7965 7964 7962 ] final -136.91 input  175.53 | X-H torsion
[ 8008 7997 7996 7995 ] final   76.30 input   59.86 | X-H torsion
[ 10167 10162 10161 10158 ] final  177.33 input  -65.29 | X-H torsion
[ 10718 10713 10712 10709 ] final  -54.88 input   66.30 | X-H torsion
[ 10763 10752 10751 10750 ] final  177.72 input  -60.55 | X-H torsion
[ 11005 11000 10999 10996 ] final -147.01 input  -57.11 | X-H torsion

> <Gold.Protein.ActiveResidues>
 VAL166  LYS551  ARG553  GLY616  TRP617  ASP618  TYR619  PRO620  LYS621  CYS622 
 ASP623  PHE694  ASN695  SER759  ASP760  ASP761  ALA762  ILE779  LEU786  VAL792 
 PHE793  MET794  SER795  GLU796  ALA797  LYS798  CYS799  TRP800  GLU811  SER814 

> <Gold.Protein.RotatedAtoms>
  152.3157  133.5800  159.5710 H   0  0  0  0  0  0  0  0  0  0  0  0  # atno 6907 bound_to 6896
  150.7345  134.0086  159.3671 H   0  0  0  0  0  0  0  0  0  0  0  0  # atno 6908 bound_to 6896
  151.7975  135.0719  160.0446 H   0  0  0  0  0  0  0  0  0  0  0  0  # atno 6909 bound_to 6896
  144.8887  140.6611  143.5159 H   0  0  0  0  0  0  0  0  0  0  0  0  # atno 7974 bound_to 7965
  155.8253  140.3468  155.5539 H   0  0  0  0  0  0  0  0  0  0  0  0  # atno 8008 bound_to 7997
  155.8299  140.0925  157.1818 H   0  0  0  0  0  0  0  0  0  0  0  0  # atno 8009 bound_to 7997
  154.4004  140.1414  156.3589 H   0  0  0  0  0  0  0  0  0  0  0  0  # atno 8010 bound_to 7997
  139.5249  144.2810  152.0546 H   0  0  0  0  0  0  0  0  0  0  0  0  # atno 10167 bound_to 10162
  156.1414  130.4154  150.0097 H   0  0  0  0  0  0  0  0  0  0  0  0  # atno 10718 bound_to 10713
  154.4981  135.2782  155.1442 H   0  0  0  0  0  0  0  0  0  0  0  0  # atno 10763 bound_to 10752
  154.3087  135.6233  153.5459 H   0  0  0  0  0  0  0  0  0  0  0  0  # atno 10764 bound_to 10752
  152.9898  135.5714  154.5418 H   0  0  0  0  0  0  0  0  0  0  0  0  # atno 10765 bound_to 10752
  140.7761  134.3133  157.5060 H   0  0  0  0  0  0  0  0  0  0  0  0  # atno 11005 bound_to 11000
  145.3823  139.1634  143.4274 LP  0  0  0  0  0  0  0  0  0  0  0  0  # atno 17320 bound_to 7965
  146.3040  140.3905  142.8694 LP  0  0  0  0  0  0  0  0  0  0  0  0  # atno 17321 bound_to 7965
  140.2265  144.4412  150.6318 LP  0  0  0  0  0  0  0  0  0  0  0  0  # atno 17342 bound_to 10162
  140.6384  143.2199  151.6345 LP  0  0  0  0  0  0  0  0  0  0  0  0  # atno 17343 bound_to 10162
  156.7981  130.9280  151.3646 LP  0  0  0  0  0  0  0  0  0  0  0  0  # atno 17370 bound_to 10713
  157.6579  130.8940  149.9767 LP  0  0  0  0  0  0  0  0  0  0  0  0  # atno 17371 bound_to 10713
  139.8749  134.9290  156.3465 LP  0  0  0  0  0  0  0  0  0  0  0  0  # atno 17394 bound_to 11000
  140.9527  133.7440  156.0294 LP  0  0  0  0  0  0  0  0  0  0  0  0  # atno 17395 bound_to 11000

$$$$
