AV-unprocessed.smi:3071|AV-procd|sdf|11714|dock8
  -GOLD-   2272017113D 1   1.00000     0.00000
 Structure written by MMmdl.
 28 29  0  0  0  0  0  0  0  0  2 V2000
  152.0796  138.9620  155.1510 C   0  0  0  0  0  0  0  0  0  0  0  0
  150.9789  139.9714  155.0857 C   0  0  0  0  0  0  0  0  0  0  0  0
  150.0782  140.0182  154.1097 N   0  0  0  0  0  0  0  0  0  0  0  0
  149.2516  141.0868  154.4392 C   0  0  0  0  0  0  0  0  0  0  0  0
  149.6867  141.6535  155.6125 C   0  0  0  0  0  0  0  0  0  0  0  0
  150.8019  140.9297  156.0167 N   0  0  0  0  0  0  0  0  0  0  0  0
  151.5928  141.1815  157.2109 C   0  0  0  0  0  0  0  0  0  0  0  0
  151.1389  142.4466  157.9629 C   0  0  1  0  0  0  0  0  0  0  0  0
  151.8878  142.7306  159.2686 C   0  0  0  0  0  0  0  0  0  0  0  0
  151.6752  144.2276  159.4596 C   0  0  0  0  0  0  0  0  0  0  0  0
  151.7035  144.7771  158.0308 C   0  0  0  0  0  0  0  0  0  0  0  0
  151.3049  143.6642  157.1447 N   0  3  0  0  0  0  0  0  0  0  0  0
  151.9866  138.2458  154.3339 H   0  0  0  0  0  0  0  0  0  0  0  0
  152.0370  138.4134  156.0921 H   0  0  0  0  0  0  0  0  0  0  0  0
  153.0488  139.4530  155.0682 H   0  0  0  0  0  0  0  0  0  0  0  0
  148.4157  141.3616  153.8126 H   0  0  0  0  0  0  0  0  0  0  0  0
  149.3058  142.4923  156.1765 H   0  0  0  0  0  0  0  0  0  0  0  0
  151.5123  140.3092  157.8612 H   0  0  0  0  0  0  0  0  0  0  0  0
  152.6437  141.2583  156.9308 H   0  0  0  0  0  0  0  0  0  0  0  0
  150.0757  142.3694  158.1940 H   0  0  0  0  0  0  0  0  0  0  0  0
  151.5176  142.1403  160.1074 H   0  0  0  0  0  0  0  0  0  0  0  0
  152.9519  142.5208  159.1510 H   0  0  0  0  0  0  0  0  0  0  0  0
  150.6957  144.4050  159.9062 H   0  0  0  0  0  0  0  0  0  0  0  0
  152.4259  144.6853  160.1047 H   0  0  0  0  0  0  0  0  0  0  0  0
  151.0443  145.6372  157.9083 H   0  0  0  0  0  0  0  0  0  0  0  0
  152.7141  145.0866  157.7619 H   0  0  0  0  0  0  0  0  0  0  0  0
  152.0404  143.5152  156.4685 H   0  0  0  0  0  0  0  0  0  0  0  0
  150.4425  143.8795  156.6649 H   0  0  0  0  0  0  0  0  0  0  0  0
  1  2  1  0  0  0  0
  1 13  1  0  0  0  0
  1 14  1  0  0  0  0
  1 15  1  0  0  0  0
  2  6  1  0  0  0  0
  2  3  2  0  0  0  0
  3  4  1  0  0  0  0
  4  5  2  0  0  0  0
  4 16  1  0  0  0  0
  5  6  1  0  0  0  0
  5 17  1  0  0  0  0
  6  7  1  0  0  0  0
  7  8  1  0  0  0  0
  7 18  1  0  0  0  0
  7 19  1  0  0  0  0
  8 12  1  0  0  0  0
  8  9  1  0  0  0  0
  8 20  1  0  0  0  0
  9 10  1  0  0  0  0
  9 21  1  0  0  0  0
  9 22  1  0  0  0  0
 10 11  1  0  0  0  0
 10 23  1  0  0  0  0
 10 24  1  0  0  0  0
 11 12  1  0  0  0  0
 11 25  1  0  0  0  0
 11 26  1  0  0  0  0
 12 27  1  0  0  0  0
 12 28  1  0  0  0  0
M  CHG  1  12   1
M  END
> <s_m_source_file>
AV-unprocessed.smi

> <i_m_source_file_index>
3071

> <i_lp_mmshare_version>
43012

> <i_f3d_flags>
0

> <s_epik_input>
W0NIM11jMW5bY0hdW2NIXW4xW0NIMl1bQ0BASF0yW0NIMl1bQ0gyXVtDSDJdW05IXTI=

> <s_epik_cmdline>
J2VwaWtfcHl0aG9uJywgJy1waCcsICc3LjAnLCAnLXRuJywgJzgnLCAnLW1hJywgJzIwMCcsICctbWV0YWxfYmluZGluZycsICctaW1hZScsICc8aW5maWxlLm1hZT4nLCAnLW9tYWUnLCAnPG91dGZpbGUubWFlPic=

> <r_lp_tautomer_probability>
1

> <r_epik_Ionization_Penalty>
0.189495

> <r_epik_Ionization_Penalty_Charging>
0.189495

> <r_epik_Ionization_Penalty_Neutral>
1.84445e-13

> <r_epik_State_Penalty>
0.339469

> <r_epik_Charging_Adjusted_Penalty>
0.528964

> <i_epik_Tot_Q>
1

> <i_epik_Tot_abs_Q>
1

> <r_epik_Metal_State_Penalty>
0.000456861

> <b_epik_Metal_Only>
0

> <s_lp_Force_Field>
OPLS_2005

> <r_lp_Energy>
26.6713

> <b_lp_Chiralities_Consistent>
1

> <s_lp_Variant>
AV-unprocessed.smi:3071-2

> <Gold.Version>
5.8.1

> <Gold.Id.Protein>
6NUR|6NUR_protein|mol2

> <Gold.PLP.Fitness>
39.6592

> <Gold.PLP.PLP>
-30.7135

> <Gold.PLP.part.hbond>
-2.0000

> <Gold.PLP.part.metal>
0.0000

> <Gold.PLP.part.buried>
-1.2983

> <Gold.PLP.part.nonpolar>
-27.2370

> <Gold.PLP.part.repulsive>
1.1189

> <Gold.PLP.ligand.clash>
0.0000

> <Gold.PLP.ligand.torsion>
0.0272

> <Gold.PLP.Chemscore.Hbond>
2.0000

> <Gold.PLP.Chemscore.CHOScore>
1.0000

> <Gold.PLP.Chemscore.Metal>
0.0000

> <Gold.Chemscore.Hbonds>
donor molecule, donor type, donor heavy atom, donor atom, acceptor molecule, acceptor atom, score
      L1  H    12    28       P1  8028  2.00
      L1  C     5    17       P1  8028  1.00

> <Gold.PLP.Chemscore.Internal.Correction>
0.0000

> <Gold.Rescore>
     Score         DG    S(hbond)    S(metal)    S(lipo)     H(rot)  DE(clash)    DE(int)     intcor
     13.79     -14.04       1.00        0.00      71.33       1.22       0.19       0.06       ----

> <Gold.Chemscore.Fitness>
13.7916

> <Gold.Chemscore.DG>
-14.0375

> <Gold.Chemscore.ZeroCoef>
-5.4800

> <Gold.Chemscore.Hbond>
0.9980

> <Gold.Chemscore.Metal>
0.0000

> <Gold.Chemscore.Lipo>
71.3338

> <Gold.Chemscore.Internal_Hbond>
0.0000

> <Gold.Chemscore.DEClash>
0.1879

> <Gold.Chemscore.DEInternal>
0.0580

> <Gold.Chemscore.Rot>
1.2194

> <Gold.Chemscore.Internal.Correction>
   9.000000E+99

> <Gold.Chemscore.Hbonds>
donor molecule, donor type, donor heavy atom, donor atom, acceptor molecule, acceptor atom, score
      L1  H    12    28       P1  8028  0.94

> <Gold.Chemscore.Hbond.Weighted>
-3.3332

> <Gold.Chemscore.Metal.Weighted>
-0.0000

> <Gold.Chemscore.Lipo.Weighted>
-8.3460

> <Gold.Chemscore.Internal_Hbond.Weighted>
0.0000

> <Gold.Chemscore.DEClash.Weighted>
0.1879

> <Gold.Chemscore.DEInternal.Weighted>
0.0580

> <Gold.Chemscore.Rot.Weighted>
3.1218

> <Gold.Chemscore.Internal.Correction.Weighted>
   9.000000E+99

> <Gold.Protein.RotatedTorsions>
[ 6907 6896 6895 6894 ] final  137.88 input  -60.11 | X-H torsion
[ 7974 7965 7964 7962 ] final  177.79 input  175.53 | X-H torsion
[ 8008 7997 7996 7995 ] final   23.42 input   59.86 | X-H torsion
[ 10167 10162 10161 10158 ] final  -47.34 input  -65.29 | X-H torsion
[ 10718 10713 10712 10709 ] final  153.23 input   66.30 | X-H torsion
[ 10763 10752 10751 10750 ] final  -83.86 input  -60.55 | X-H torsion
[ 11005 11000 10999 10996 ] final   58.03 input  -57.11 | X-H torsion

> <Gold.Protein.ActiveResidues>
 VAL166  LYS551  ARG553  GLY616  TRP617  ASP618  TYR619  PRO620  LYS621  CYS622 
 ASP623  PHE694  ASN695  SER759  ASP760  ASP761  ALA762  ILE779  LEU786  VAL792 
 PHE793  MET794  SER795  GLU796  ALA797  LYS798  CYS799  TRP800  GLU811  SER814 

> <Gold.Protein.RotatedAtoms>
  152.2730  133.5399  159.5450 H   0  0  0  0  0  0  0  0  0  0  0  0  # atno 6907 bound_to 6896
  150.7166  134.0671  159.3860 H   0  0  0  0  0  0  0  0  0  0  0  0  # atno 6908 bound_to 6896
  151.8585  135.0532  160.0517 H   0  0  0  0  0  0  0  0  0  0  0  0  # atno 6909 bound_to 6896
  144.7164  140.0301  143.6439 H   0  0  0  0  0  0  0  0  0  0  0  0  # atno 7974 bound_to 7965
  154.9807  140.3101  155.4947 H   0  0  0  0  0  0  0  0  0  0  0  0  # atno 8008 bound_to 7997
  156.2954  140.2267  156.4846 H   0  0  0  0  0  0  0  0  0  0  0  0  # atno 8009 bound_to 7997
  154.7792  140.0447  157.1102 H   0  0  0  0  0  0  0  0  0  0  0  0  # atno 8010 bound_to 7997
  140.6779  143.2789  151.3912 H   0  0  0  0  0  0  0  0  0  0  0  0  # atno 10167 bound_to 10162
  157.2474  131.0772  151.1752 H   0  0  0  0  0  0  0  0  0  0  0  0  # atno 10718 bound_to 10713
  154.5927  135.5541  153.7294 H   0  0  0  0  0  0  0  0  0  0  0  0  # atno 10763 bound_to 10752
  153.0123  135.6347  154.1827 H   0  0  0  0  0  0  0  0  0  0  0  0  # atno 10764 bound_to 10752
  154.1767  135.2889  155.3044 H   0  0  0  0  0  0  0  0  0  0  0  0  # atno 10765 bound_to 10752
  140.0408  134.5876  155.9384 H   0  0  0  0  0  0  0  0  0  0  0  0  # atno 11005 bound_to 11000
  146.0110  139.3169  143.0870 LP  0  0  0  0  0  0  0  0  0  0  0  0  # atno 17320 bound_to 7965
  145.8682  140.9435  143.0664 LP  0  0  0  0  0  0  0  0  0  0  0  0  # atno 17321 bound_to 7965
  139.6083  144.1151  152.2272 LP  0  0  0  0  0  0  0  0  0  0  0  0  # atno 17342 bound_to 10162
  140.0557  144.5897  150.7301 LP  0  0  0  0  0  0  0  0  0  0  0  0  # atno 17343 bound_to 10162
  157.3314  130.6987  149.6326 LP  0  0  0  0  0  0  0  0  0  0  0  0  # atno 17370 bound_to 10713
  155.9667  130.4306  150.4885 LP  0  0  0  0  0  0  0  0  0  0  0  0  # atno 17371 bound_to 10713
  141.1882  133.6562  156.5314 LP  0  0  0  0  0  0  0  0  0  0  0  0  # atno 17394 bound_to 11000
  140.4072  134.7304  157.4815 LP  0  0  0  0  0  0  0  0  0  0  0  0  # atno 17395 bound_to 11000

$$$$
