AV-unprocessed.smi:2770|AV-procd|sdf|10660|dock7
  -GOLD-   2272015103D 1   1.00000     0.00000
 Structure written by MMmdl.
 35 36  0  0  0  0  0  0  0  0  2 V2000
  146.7024  145.6088  160.7100 C   0  0  0  0  0  0  0  0  0  0  0  0
  147.9136  145.2712  159.9783 N   0  0  0  0  0  0  0  0  0  0  0  0
  148.9642  144.6277  160.5092 C   0  0  0  0  0  0  0  0  0  0  0  0
  148.9950  144.2528  161.6820 O   0  0  0  0  0  0  0  0  0  0  0  0
  150.1468  144.3517  159.5701 C   0  0  2  0  0  0  0  0  0  0  0  0
  149.8493  143.2172  158.5633 C   0  0  0  0  0  0  0  0  0  0  0  0
  151.0328  142.9244  157.7654 N   0  0  0  0  0  0  0  0  0  0  0  0
  150.7918  141.9711  156.7677 C   0  0  0  0  0  0  0  0  0  0  0  0
  151.6382  140.8638  156.5253 C   0  0  0  0  0  0  0  0  0  0  0  0
  151.3071  139.9536  155.5005 C   0  0  0  0  0  0  0  0  0  0  0  0
  150.1395  140.1644  154.7391 C   0  0  0  0  0  0  0  0  0  0  0  0
  149.3277  141.2829  155.0222 C   0  0  0  0  0  0  0  0  0  0  0  0
  148.0579  141.5787  154.2528 C   0  0  0  0  0  0  0  0  0  0  0  0
  149.6816  142.1314  156.0134 N   0  3  0  0  0  0  0  0  0  0  0  0
  152.2035  142.6323  158.5814 C   0  0  0  0  0  0  0  0  0  0  0  0
  152.4514  143.7836  159.5687 C   0  0  0  0  0  0  0  0  0  0  0  0
  151.2829  143.9882  160.3568 O   0  0  0  0  0  0  0  0  0  0  0  0
  146.0126  146.1463  160.0596 H   0  0  0  0  0  0  0  0  0  0  0  0
  146.9297  146.2453  161.5659 H   0  0  0  0  0  0  0  0  0  0  0  0
  146.2020  144.7084  161.0684 H   0  0  0  0  0  0  0  0  0  0  0  0
  147.9601  145.5449  159.0071 H   0  0  0  0  0  0  0  0  0  0  0  0
  150.3640  145.2765  159.0324 H   0  0  0  0  0  0  0  0  0  0  0  0
  149.5329  142.3168  159.0929 H   0  0  0  0  0  0  0  0  0  0  0  0
  149.0321  143.5058  157.9005 H   0  0  0  0  0  0  0  0  0  0  0  0
  152.5287  140.7076  157.1167 H   0  0  0  0  0  0  0  0  0  0  0  0
  151.9410  139.1020  155.3015 H   0  0  0  0  0  0  0  0  0  0  0  0
  149.8730  139.4750  153.9510 H   0  0  0  0  0  0  0  0  0  0  0  0
  147.8432  140.7902  153.5307 H   0  0  0  0  0  0  0  0  0  0  0  0
  148.1527  142.5203  153.7115 H   0  0  0  0  0  0  0  0  0  0  0  0
  147.2098  141.6561  154.9336 H   0  0  0  0  0  0  0  0  0  0  0  0
  152.0532  141.7024  159.1310 H   0  0  0  0  0  0  0  0  0  0  0  0
  153.0752  142.4936  157.9407 H   0  0  0  0  0  0  0  0  0  0  0  0
  153.2863  143.5427  160.2267 H   0  0  0  0  0  0  0  0  0  0  0  0
  152.7145  144.7020  159.0412 H   0  0  0  0  0  0  0  0  0  0  0  0
  149.0798  142.9336  156.2014 H   0  0  0  0  0  0  0  0  0  0  0  0
  1  2  1  0  0  0  0
  1 18  1  0  0  0  0
  1 19  1  0  0  0  0
  1 20  1  0  0  0  0
  2  3  1  0  0  0  0
  2 21  1  0  0  0  0
  3  4  2  0  0  0  0
  3  5  1  0  0  0  0
  5 17  1  0  0  0  0
  5  6  1  0  0  0  0
  5 22  1  0  0  0  0
  6  7  1  0  0  0  0
  6 23  1  0  0  0  0
  6 24  1  0  0  0  0
  7  8  1  0  0  0  0
  7 15  1  0  0  0  0
  8 14  1  0  0  0  0
  8  9  2  0  0  0  0
  9 10  1  0  0  0  0
  9 25  1  0  0  0  0
 10 11  2  0  0  0  0
 10 26  1  0  0  0  0
 11 12  1  0  0  0  0
 11 27  1  0  0  0  0
 12 13  1  0  0  0  0
 12 14  2  0  0  0  0
 13 28  1  0  0  0  0
 13 29  1  0  0  0  0
 13 30  1  0  0  0  0
 14 35  1  0  0  0  0
 15 16  1  0  0  0  0
 15 31  1  0  0  0  0
 15 32  1  0  0  0  0
 16 17  1  0  0  0  0
 16 33  1  0  0  0  0
 16 34  1  0  0  0  0
M  CHG  1  14   1
M  END
> <s_m_source_file>
AV-unprocessed.smi

> <i_m_source_file_index>
2770

> <i_lp_mmshare_version>
43012

> <i_f3d_flags>
0

> <s_epik_input>
W0NIM11bTkhdQyg9TylbQ0BASF0xW0NIMl1OKFtDSDJdW0NIMl1PMSljMltjSF1bY0hdW2NIXWMobjIpW0NIM10=

> <s_epik_cmdline>
J2VwaWtfcHl0aG9uJywgJy1waCcsICc3LjAnLCAnLXRuJywgJzgnLCAnLW1hJywgJzIwMCcsICctbWV0YWxfYmluZGluZycsICctaW1hZScsICc8aW5maWxlLm1hZT4nLCAnLW9tYWUnLCAnPG91dGZpbGUubWFlPic=

> <r_lp_tautomer_probability>
0.999994

> <r_epik_Ionization_Penalty>
2.33902

> <r_epik_Ionization_Penalty_Charging>
2.33902

> <r_epik_Ionization_Penalty_Neutral>
5.66859e-08

> <r_epik_State_Penalty>
2.4925

> <r_epik_Charging_Adjusted_Penalty>
4.83152

> <i_epik_Tot_Q>
1

> <i_epik_Tot_abs_Q>
1

> <r_epik_Metal_State_Penalty>
2.50392

> <b_epik_Metal_Only>
0

> <s_lp_Force_Field>
OPLS_2005

> <r_lp_Energy>
23.5554

> <b_lp_Chiralities_Consistent>
1

> <s_lp_Variant>
AV-unprocessed.smi:2770-3

> <Gold.Version>
5.8.1

> <Gold.Id.Protein>
6NUR|6NUR_protein|mol2

> <Gold.PLP.Fitness>
45.3113

> <Gold.PLP.PLP>
-35.4944

> <Gold.PLP.part.hbond>
-3.0000

> <Gold.PLP.part.metal>
0.0000

> <Gold.PLP.part.buried>
-5.1123

> <Gold.PLP.part.nonpolar>
-28.6500

> <Gold.PLP.part.repulsive>
0.7373

> <Gold.PLP.ligand.clash>
0.0000

> <Gold.PLP.ligand.torsion>
0.5293

> <Gold.PLP.Chemscore.Hbond>
3.5920

> <Gold.PLP.Chemscore.CHOScore>
0.0000

> <Gold.PLP.Chemscore.Metal>
0.0000

> <Gold.Chemscore.Hbonds>
donor molecule, donor type, donor heavy atom, donor atom, acceptor molecule, acceptor atom, score
      L1  H     2    21       P1  8029  1.00
      L1  H    14    35       P1  8028  1.57
      P1  H  6933  6944       L1     4  0.51

> <Gold.PLP.Chemscore.Internal.Correction>
0.0995

> <Gold.Rescore>
     Score         DG    S(hbond)    S(metal)    S(lipo)     H(rot)  DE(clash)    DE(int)     intcor
     18.28     -19.17       2.47        0.00      74.77       1.30       0.07       0.82       ----

> <Gold.Chemscore.Fitness>
18.2823

> <Gold.Chemscore.DG>
-19.1674

> <Gold.Chemscore.ZeroCoef>
-5.4800

> <Gold.Chemscore.Hbond>
2.4725

> <Gold.Chemscore.Metal>
0.0000

> <Gold.Chemscore.Lipo>
74.7657

> <Gold.Chemscore.Internal_Hbond>
0.0000

> <Gold.Chemscore.DEClash>
0.0675

> <Gold.Chemscore.DEInternal>
0.8175

> <Gold.Chemscore.Rot>
1.2963

> <Gold.Chemscore.Internal.Correction>
   9.000000E+99

> <Gold.Chemscore.Hbonds>
donor molecule, donor type, donor heavy atom, donor atom, acceptor molecule, acceptor atom, score
      L1  H     2    21       P1  8029  1.00
      L1  H    14    35       P1  8028  0.80
      P1  H  6933  6944       L1     4  0.15

> <Gold.Chemscore.Hbond.Weighted>
-8.2583

> <Gold.Chemscore.Metal.Weighted>
-0.0000

> <Gold.Chemscore.Lipo.Weighted>
-8.7476

> <Gold.Chemscore.Internal_Hbond.Weighted>
0.0000

> <Gold.Chemscore.DEClash.Weighted>
0.0675

> <Gold.Chemscore.DEInternal.Weighted>
0.8175

> <Gold.Chemscore.Rot.Weighted>
3.3185

> <Gold.Chemscore.Internal.Correction.Weighted>
   9.000000E+99

> <Gold.Protein.RotatedTorsions>
[ 6907 6896 6895 6894 ] final  140.87 input  -60.11 | X-H torsion
[ 7974 7965 7964 7962 ] final   63.48 input  175.53 | X-H torsion
[ 8008 7997 7996 7995 ] final  152.97 input   59.86 | X-H torsion
[ 10167 10162 10161 10158 ] final  165.31 input  -65.29 | X-H torsion
[ 10718 10713 10712 10709 ] final -177.81 input   66.30 | X-H torsion
[ 10763 10752 10751 10750 ] final   36.39 input  -60.55 | X-H torsion
[ 11005 11000 10999 10996 ] final  -97.21 input  -57.11 | X-H torsion

> <Gold.Protein.ActiveResidues>
 VAL166  LYS551  ARG553  GLY616  TRP617  ASP618  TYR619  PRO620  LYS621  CYS622 
 ASP623  PHE694  ASN695  SER759  ASP760  ASP761  ALA762  ILE779  LEU786  VAL792 
 PHE793  MET794  SER795  GLU796  ALA797  LYS798  CYS799  TRP800  GLU811  SER814 

> <Gold.Protein.RotatedAtoms>
  152.2378  133.5110  159.5252 H   0  0  0  0  0  0  0  0  0  0  0  0  # atno 6907 bound_to 6896
  150.7055  134.1130  159.4016 H   0  0  0  0  0  0  0  0  0  0  0  0  # atno 6908 bound_to 6896
  151.9051  135.0362  160.0560 H   0  0  0  0  0  0  0  0  0  0  0  0  # atno 6909 bound_to 6896
  145.8613  139.3317  143.0817 H   0  0  0  0  0  0  0  0  0  0  0  0  # atno 7974 bound_to 7965
  156.2604  140.2006  156.6416 H   0  0  0  0  0  0  0  0  0  0  0  0  # atno 8008 bound_to 7997
  154.6605  140.0561  157.0081 H   0  0  0  0  0  0  0  0  0  0  0  0  # atno 8009 bound_to 7997
  155.1283  140.3231  155.4483 H   0  0  0  0  0  0  0  0  0  0  0  0  # atno 8010 bound_to 7997
  139.4903  144.4145  151.9260 H   0  0  0  0  0  0  0  0  0  0  0  0  # atno 10167 bound_to 10162
  156.8350  130.9666  151.3104 H   0  0  0  0  0  0  0  0  0  0  0  0  # atno 10718 bound_to 10713
  153.0079  135.6307  154.1978 H   0  0  0  0  0  0  0  0  0  0  0  0  # atno 10763 bound_to 10752
  154.1721  135.2818  155.3079 H   0  0  0  0  0  0  0  0  0  0  0  0  # atno 10764 bound_to 10752
  154.5901  135.5620  153.7329 H   0  0  0  0  0  0  0  0  0  0  0  0  # atno 10765 bound_to 10752
  141.1386  133.8154  157.0675 H   0  0  0  0  0  0  0  0  0  0  0  0  # atno 11005 bound_to 11000
  145.9245  140.9092  143.0388 LP  0  0  0  0  0  0  0  0  0  0  0  0  # atno 17320 bound_to 7965
  144.6726  140.1334  143.7442 LP  0  0  0  0  0  0  0  0  0  0  0  0  # atno 17321 bound_to 7965
  140.3588  144.2999  150.5937 LP  0  0  0  0  0  0  0  0  0  0  0  0  # atno 17342 bound_to 10162
  140.5421  143.2221  151.8067 LP  0  0  0  0  0  0  0  0  0  0  0  0  # atno 17343 bound_to 10162
  157.6386  130.8787  149.9406 LP  0  0  0  0  0  0  0  0  0  0  0  0  # atno 17370 bound_to 10713
  156.0913  130.3663  150.0390 LP  0  0  0  0  0  0  0  0  0  0  0  0  # atno 17371 bound_to 10713
  140.0532  134.9794  157.1174 LP  0  0  0  0  0  0  0  0  0  0  0  0  # atno 17394 bound_to 11000
  140.3958  134.2135  155.7164 LP  0  0  0  0  0  0  0  0  0  0  0  0  # atno 17395 bound_to 11000

$$$$
