AV-unprocessed.smi:2447|AV-procd|sdf|9649|dock2
  -GOLD-   2272013283D 1   1.00000     0.00000
 Structure written by MMmdl.
 30 31  0  0  0  0  0  0  0  0  1 V2000
  146.8152  140.5120  152.6596 N   0  0  0  0  0  0  0  0  0  0  0  0
  147.4149  140.7785  153.8214 C   0  0  0  0  0  0  0  0  0  0  0  0
  146.7832  141.0614  154.8378 O   0  0  0  0  0  0  0  0  0  0  0  0
  148.7537  140.6955  153.7239 N   0  0  0  0  0  0  0  0  0  0  0  0
  149.7217  140.9007  154.7421 C   0  0  0  0  0  0  0  0  0  0  0  0
  150.9145  140.2413  154.6683 N   0  0  0  0  0  0  0  0  0  0  0  0
  151.4834  140.7090  155.7719 C   0  0  0  0  0  0  0  0  0  0  0  0
  150.7204  141.5636  156.4594 N   0  0  0  0  0  0  0  0  0  0  0  0
  150.9999  142.2900  157.6887 C   0  0  0  0  0  0  0  0  0  0  0  0
  151.3783  143.7610  157.4138 C   0  0  0  0  0  0  0  0  0  0  0  0
  151.6596  144.5177  158.7226 C   0  0  0  0  0  0  0  0  0  0  0  0
  152.7464  143.8135  159.5510 C   0  0  0  0  0  0  0  0  0  0  0  0
  152.3757  142.3471  159.8255 C   0  0  0  0  0  0  0  0  0  0  0  0
  152.0945  141.5883  158.5181 C   0  0  0  0  0  0  0  0  0  0  0  0
  149.5512  141.7110  155.7892 N   0  0  0  0  0  0  0  0  0  0  0  0
  145.8072  140.5402  152.6029 H   0  0  0  0  0  0  0  0  0  0  0  0
  147.3634  140.2825  151.8438 H   0  0  0  0  0  0  0  0  0  0  0  0
  149.1259  140.4511  152.8183 H   0  0  0  0  0  0  0  0  0  0  0  0
  152.4776  140.4243  156.0839 H   0  0  0  0  0  0  0  0  0  0  0  0
  150.0797  142.2857  158.2750 H   0  0  0  0  0  0  0  0  0  0  0  0
  152.2626  143.8098  156.7769 H   0  0  0  0  0  0  0  0  0  0  0  0
  150.5758  144.2577  156.8671 H   0  0  0  0  0  0  0  0  0  0  0  0
  151.9654  145.5406  158.5013 H   0  0  0  0  0  0  0  0  0  0  0  0
  150.7422  144.5893  159.3080 H   0  0  0  0  0  0  0  0  0  0  0  0
  153.6965  143.8556  159.0169 H   0  0  0  0  0  0  0  0  0  0  0  0
  152.8970  144.3418  160.4931 H   0  0  0  0  0  0  0  0  0  0  0  0
  153.1800  141.8563  160.3738 H   0  0  0  0  0  0  0  0  0  0  0  0
  151.4946  142.3071  160.4671 H   0  0  0  0  0  0  0  0  0  0  0  0
  151.7931  140.5650  158.7451 H   0  0  0  0  0  0  0  0  0  0  0  0
  153.0155  141.5174  157.9375 H   0  0  0  0  0  0  0  0  0  0  0  0
  1  2  1  0  0  0  0
  1 16  1  0  0  0  0
  1 17  1  0  0  0  0
  2  3  2  0  0  0  0
  2  4  1  0  0  0  0
  4  5  1  0  0  0  0
  4 18  1  0  0  0  0
  5 15  2  0  0  0  0
  5  6  1  0  0  0  0
  6  7  2  0  0  0  0
  7  8  1  0  0  0  0
  7 19  1  0  0  0  0
  8  9  1  0  0  0  0
  8 15  1  0  0  0  0
  9 14  1  0  0  0  0
  9 10  1  0  0  0  0
  9 20  1  0  0  0  0
 10 11  1  0  0  0  0
 10 21  1  0  0  0  0
 10 22  1  0  0  0  0
 11 12  1  0  0  0  0
 11 23  1  0  0  0  0
 11 24  1  0  0  0  0
 12 13  1  0  0  0  0
 12 25  1  0  0  0  0
 12 26  1  0  0  0  0
 13 14  1  0  0  0  0
 13 27  1  0  0  0  0
 13 28  1  0  0  0  0
 14 29  1  0  0  0  0
 14 30  1  0  0  0  0
M  END
> <s_m_source_file>
AV-unprocessed.smi

> <i_m_source_file_index>
2447

> <i_lp_mmshare_version>
43012

> <i_f3d_flags>
0

> <s_epik_input>
W05IMl1DKD1PKVtOSF1jMW5bY0hdbihuMSlbQ0hdMltDSDJdW0NIMl1bQ0gyXVtDSDJdW0NIMl0y

> <s_epik_cmdline>
J2VwaWtfcHl0aG9uJywgJy1waCcsICc3LjAnLCAnLXRuJywgJzgnLCAnLW1hJywgJzIwMCcsICctbWV0YWxfYmluZGluZycsICctaW1hZScsICc8aW5maWxlLm1hZT4nLCAnLW9tYWUnLCAnPG91dGZpbGUubWFlPic=

> <r_epik_Ionization_Penalty>
0.00749739

> <r_epik_Ionization_Penalty_Charging>
0

> <r_epik_Ionization_Penalty_Neutral>
0.00749739

> <r_epik_State_Penalty>
2.70815e-06

> <r_epik_Charging_Adjusted_Penalty>
2.70815e-06

> <i_epik_Tot_Q>
0

> <i_epik_Tot_abs_Q>
0

> <r_epik_Metal_State_Penalty>
1.00719

> <b_epik_Metal_Only>
0

> <s_lp_Force_Field>
OPLS_2005

> <r_lp_Energy>
13.5965

> <b_lp_Chiralities_Consistent>
1

> <s_lp_Variant>
AV-unprocessed.smi:2447-1

> <Gold.Version>
5.8.1

> <Gold.Id.Protein>
6NUR|6NUR_protein|mol2

> <Gold.PLP.Fitness>
42.0757

> <Gold.PLP.PLP>
-34.5591

> <Gold.PLP.part.hbond>
-3.1633

> <Gold.PLP.part.metal>
0.0000

> <Gold.PLP.part.buried>
-3.6147

> <Gold.PLP.part.nonpolar>
-28.6140

> <Gold.PLP.part.repulsive>
0.8780

> <Gold.PLP.ligand.clash>
0.0000

> <Gold.PLP.ligand.torsion>
0.7379

> <Gold.PLP.Chemscore.Hbond>
2.9892

> <Gold.PLP.Chemscore.CHOScore>
0.0000

> <Gold.PLP.Chemscore.Metal>
0.0000

> <Gold.Chemscore.Hbonds>
donor molecule, donor type, donor heavy atom, donor atom, acceptor molecule, acceptor atom, score
      L1  H     1    16       P1 10175  0.78
      L1  H     1    17       P1  7957  0.22
      L1  H     4    18       P1  7957  1.00
      P1  H  7989  7998       L1     6  0.94

> <Gold.PLP.Chemscore.Internal.Correction>
0.0248

> <Gold.Rescore>
     Score         DG    S(hbond)    S(metal)    S(lipo)     H(rot)  DE(clash)    DE(int)     intcor
     16.54     -17.65       2.04        0.00      67.56       1.00       0.16       0.96       ----

> <Gold.Chemscore.Fitness>
16.5359

> <Gold.Chemscore.DG>
-17.6475

> <Gold.Chemscore.ZeroCoef>
-5.4800

> <Gold.Chemscore.Hbond>
2.0427

> <Gold.Chemscore.Metal>
0.0000

> <Gold.Chemscore.Lipo>
67.5641

> <Gold.Chemscore.Internal_Hbond>
0.0000

> <Gold.Chemscore.DEClash>
0.1562

> <Gold.Chemscore.DEInternal>
0.9554

> <Gold.Chemscore.Rot>
1.0000

> <Gold.Chemscore.Internal.Correction>
   9.000000E+99

> <Gold.Chemscore.Hbonds>
donor molecule, donor type, donor heavy atom, donor atom, acceptor molecule, acceptor atom, score
      L1  H     1    16       P1 10175  0.42
      L1  H     1    17       P1  7957  0.22
      L1  H     4    18       P1  7957  1.00
      P1  H  7989  7998       L1     6  0.27

> <Gold.Chemscore.Hbond.Weighted>
-6.8225

> <Gold.Chemscore.Metal.Weighted>
-0.0000

> <Gold.Chemscore.Lipo.Weighted>
-7.9050

> <Gold.Chemscore.Internal_Hbond.Weighted>
0.0000

> <Gold.Chemscore.DEClash.Weighted>
0.1562

> <Gold.Chemscore.DEInternal.Weighted>
0.9554

> <Gold.Chemscore.Rot.Weighted>
2.5600

> <Gold.Chemscore.Internal.Correction.Weighted>
   9.000000E+99

> <Gold.Protein.RotatedTorsions>
[ 6907 6896 6895 6894 ] final  -76.51 input  -60.11 | X-H torsion
[ 7974 7965 7964 7962 ] final   30.96 input  175.53 | X-H torsion
[ 8008 7997 7996 7995 ] final -111.39 input   59.86 | X-H torsion
[ 10167 10162 10161 10158 ] final  -71.11 input  -65.29 | X-H torsion
[ 10718 10713 10712 10709 ] final  -14.45 input   66.30 | X-H torsion
[ 10763 10752 10751 10750 ] final   -5.70 input  -60.55 | X-H torsion
[ 11005 11000 10999 10996 ] final  158.95 input  -57.11 | X-H torsion

> <Gold.Protein.ActiveResidues>
 VAL166  LYS551  ARG553  GLY616  TRP617  ASP618  TYR619  PRO620  LYS621  CYS622 
 ASP623  PHE694  ASN695  SER759  ASP760  ASP761  ALA762  ILE779  LEU786  VAL792 
 PHE793  MET794  SER795  GLU796  ALA797  LYS798  CYS799  TRP800  GLU811  SER814 

> <Gold.Protein.RotatedAtoms>
  150.7025  134.4560  159.5358 H   0  0  0  0  0  0  0  0  0  0  0  0  # atno 6907 bound_to 6896
  152.2244  134.8379  160.0491 H   0  0  0  0  0  0  0  0  0  0  0  0  # atno 6908 bound_to 6896
  151.9218  133.3552  159.3936 H   0  0  0  0  0  0  0  0  0  0  0  0  # atno 6909 bound_to 6896
  146.1580  139.6720  142.9053 H   0  0  0  0  0  0  0  0  0  0  0  0  # atno 7974 bound_to 7965
  154.9890  140.0395  157.2311 H   0  0  0  0  0  0  0  0  0  0  0  0  # atno 8008 bound_to 7997
  154.7645  140.2790  155.6164 H   0  0  0  0  0  0  0  0  0  0  0  0  # atno 8009 bound_to 7997
  156.2910  140.2622  156.2432 H   0  0  0  0  0  0  0  0  0  0  0  0  # atno 8010 bound_to 7997
  140.5299  143.2322  151.7281 H   0  0  0  0  0  0  0  0  0  0  0  0  # atno 10167 bound_to 10162
  156.6158  130.4862  149.6183 H   0  0  0  0  0  0  0  0  0  0  0  0  # atno 10718 bound_to 10713
  153.4022  135.7005  153.6418 H   0  0  0  0  0  0  0  0  0  0  0  0  # atno 10763 bound_to 10752
  153.4947  135.3665  155.2510 H   0  0  0  0  0  0  0  0  0  0  0  0  # atno 10764 bound_to 10752
  154.8711  135.4097  154.3359 H   0  0  0  0  0  0  0  0  0  0  0  0  # atno 10765 bound_to 10752
  140.1914  134.8404  157.2916 H   0  0  0  0  0  0  0  0  0  0  0  0  # atno 11005 bound_to 11000
  145.4660  141.0434  143.2725 LP  0  0  0  0  0  0  0  0  0  0  0  0  # atno 17320 bound_to 7965
  144.7988  139.6180  143.7080 LP  0  0  0  0  0  0  0  0  0  0  0  0  # atno 17321 bound_to 7965
  139.4951  144.4130  152.0060 LP  0  0  0  0  0  0  0  0  0  0  0  0  # atno 17342 bound_to 10162
  140.3231  144.3404  150.6005 LP  0  0  0  0  0  0  0  0  0  0  0  0  # atno 17343 bound_to 10162
  156.2352  130.6818  151.1502 LP  0  0  0  0  0  0  0  0  0  0  0  0  # atno 17370 bound_to 10713
  157.7241  131.0662  150.6008 LP  0  0  0  0  0  0  0  0  0  0  0  0  # atno 17371 bound_to 10713
  140.2155  134.4086  155.7591 LP  0  0  0  0  0  0  0  0  0  0  0  0  # atno 17394 bound_to 11000
  141.2226  133.7140  156.8407 LP  0  0  0  0  0  0  0  0  0  0  0  0  # atno 17395 bound_to 11000

$$$$
