AV-unprocessed.smi:1761|AV-procd|sdf|7097|dock10
  -GOLD-   22720 8313D 1   1.00000     0.00000
 Structure written by MMmdl.
 34 35  0  0  0  0  0  0  0  0  1 V2000
  150.6417  140.7020  156.2420 O   0  0  0  0  0  0  0  0  0  0  0  0
  149.9696  141.7264  156.1194 C   0  0  0  0  0  0  0  0  0  0  0  0
  148.8825  141.8558  155.3385 N   0  0  0  0  0  0  0  0  0  0  0  0
  148.2934  140.8856  154.4840 C   0  0  0  0  0  0  0  0  0  0  0  0
  147.3857  141.4002  153.5307 C   0  0  0  0  0  0  0  0  0  0  0  0
  146.7511  140.5207  152.6322 C   0  0  0  0  0  0  0  0  0  0  0  0
  147.0413  139.1470  152.7095 C   0  0  0  0  0  0  0  0  0  0  0  0
  147.9561  138.7170  153.6882 C   0  0  0  0  0  0  0  0  0  0  0  0
  148.5651  139.5581  154.5506 N   0  0  0  0  0  0  0  0  0  0  0  0
  150.2439  142.8713  156.7618 N   0  0  0  0  0  0  0  0  0  0  0  0
  151.3608  143.0781  157.6819 C   0  0  2  0  0  0  0  0  0  0  0  0
  151.2762  142.0899  158.8615 C   0  0  0  0  0  0  0  0  0  0  0  0
  152.4478  142.2860  159.8375 C   0  0  0  0  0  0  0  0  0  0  0  0
  152.5213  143.7364  160.3406 C   0  0  0  0  0  0  0  0  0  0  0  0
  152.5943  144.7364  159.1723 C   0  0  0  0  0  0  0  0  0  0  0  0
  151.4403  144.5463  158.1687 C   0  0  2  0  0  0  0  0  0  0  0  0
  150.2264  144.9414  158.7817 O   0  0  0  0  0  0  0  0  0  0  0  0
  148.4289  142.7571  155.3485 H   0  0  0  0  0  0  0  0  0  0  0  0
  147.1754  142.4589  153.4837 H   0  0  0  0  0  0  0  0  0  0  0  0
  146.0552  140.8948  151.8960 H   0  0  0  0  0  0  0  0  0  0  0  0
  146.5754  138.4420  152.0370 H   0  0  0  0  0  0  0  0  0  0  0  0
  148.2063  137.6705  153.7813 H   0  0  0  0  0  0  0  0  0  0  0  0
  149.6388  143.6632  156.6019 H   0  0  0  0  0  0  0  0  0  0  0  0
  152.2830  142.8528  157.1422 H   0  0  0  0  0  0  0  0  0  0  0  0
  150.3329  142.2207  159.3935 H   0  0  0  0  0  0  0  0  0  0  0  0
  151.2804  141.0644  158.4905 H   0  0  0  0  0  0  0  0  0  0  0  0
  152.3445  141.6053  160.6829 H   0  0  0  0  0  0  0  0  0  0  0  0
  153.3835  142.0239  159.3422 H   0  0  0  0  0  0  0  0  0  0  0  0
  151.6473  143.9533  160.9560 H   0  0  0  0  0  0  0  0  0  0  0  0
  153.3897  143.8604  160.9881 H   0  0  0  0  0  0  0  0  0  0  0  0
  152.5988  145.7583  159.5538 H   0  0  0  0  0  0  0  0  0  0  0  0
  153.5432  144.6032  158.6511 H   0  0  0  0  0  0  0  0  0  0  0  0
  151.6035  145.2080  157.3173 H   0  0  0  0  0  0  0  0  0  0  0  0
  149.6403  145.2505  158.1082 H   0  0  0  0  0  0  0  0  0  0  0  0
  1  2  2  0  0  0  0
  2  3  1  0  0  0  0
  2 10  1  0  0  0  0
  3  4  1  0  0  0  0
  3 18  1  0  0  0  0
  4  9  1  0  0  0  0
  4  5  2  0  0  0  0
  5  6  1  0  0  0  0
  5 19  1  0  0  0  0
  6  7  2  0  0  0  0
  6 20  1  0  0  0  0
  7  8  1  0  0  0  0
  7 21  1  0  0  0  0
  8  9  2  0  0  0  0
  8 22  1  0  0  0  0
 10 11  1  0  0  0  0
 10 23  1  0  0  0  0
 11 16  1  0  0  0  0
 11 12  1  0  0  0  0
 11 24  1  0  0  0  0
 12 13  1  0  0  0  0
 12 25  1  0  0  0  0
 12 26  1  0  0  0  0
 13 14  1  0  0  0  0
 13 27  1  0  0  0  0
 13 28  1  0  0  0  0
 14 15  1  0  0  0  0
 14 29  1  0  0  0  0
 14 30  1  0  0  0  0
 15 16  1  0  0  0  0
 15 31  1  0  0  0  0
 15 32  1  0  0  0  0
 16 17  1  0  0  0  0
 16 33  1  0  0  0  0
 17 34  1  0  0  0  0
M  END
> <s_m_source_file>
AV-unprocessed.smi

> <i_m_source_file_index>
1761

> <i_lp_mmshare_version>
43012

> <i_f3d_flags>
0

> <s_epik_input>
bjFbY0hdW2NIXVtjSF1bY0hdYzFbTkhdQyg9TylbTkhdW0NAQEhdMltDSDJdW0NIMl1bQ0gyXVtDSDJdW0NASF0yW09IXQ==

> <s_epik_cmdline>
J2VwaWtfcHl0aG9uJywgJy1waCcsICc3LjAnLCAnLXRuJywgJzgnLCAnLW1hJywgJzIwMCcsICctbWV0YWxfYmluZGluZycsICctaW1hZScsICc8aW5maWxlLm1hZT4nLCAnLW9tYWUnLCAnPG91dGZpbGUubWFlPic=

> <r_lp_tautomer_probability>
1

> <r_epik_Ionization_Penalty>
4.92589e-05

> <r_epik_Ionization_Penalty_Charging>
0

> <r_epik_Ionization_Penalty_Neutral>
4.92589e-05

> <r_epik_State_Penalty>
-0

> <r_epik_Charging_Adjusted_Penalty>
0

> <i_epik_Tot_Q>
0

> <i_epik_Tot_abs_Q>
0

> <r_epik_Metal_State_Penalty>
-0

> <b_epik_Metal_Only>
0

> <s_lp_Force_Field>
OPLS_2005

> <r_lp_Energy>
15.389

> <b_lp_Chiralities_Consistent>
1

> <s_lp_Variant>
AV-unprocessed.smi:1761-3

> <Gold.Version>
5.8.1

> <Gold.Id.Protein>
6NUR|6NUR_protein|mol2

> <Gold.PLP.Fitness>
46.7705

> <Gold.PLP.PLP>
-35.8748

> <Gold.PLP.part.hbond>
-3.0000

> <Gold.PLP.part.metal>
0.0000

> <Gold.PLP.part.buried>
-1.4158

> <Gold.PLP.part.nonpolar>
-30.6039

> <Gold.PLP.part.repulsive>
0.3321

> <Gold.PLP.ligand.clash>
0.0000

> <Gold.PLP.ligand.torsion>
0.0650

> <Gold.PLP.Chemscore.Hbond>
2.7956

> <Gold.PLP.Chemscore.CHOScore>
0.8753

> <Gold.PLP.Chemscore.Metal>
0.0000

> <Gold.Chemscore.Hbonds>
donor molecule, donor type, donor heavy atom, donor atom, acceptor molecule, acceptor atom, score
      L1  H     3    18       P1  8028  0.82
      L1  H    10    23       P1  8028  1.00
      L1  H    17    34       P1  8029  0.98
      L1  C     8    22       P1  7948  0.87

> <Gold.PLP.Chemscore.Internal.Correction>
0.0130

> <Gold.Rescore>
     Score         DG    S(hbond)    S(metal)    S(lipo)     H(rot)  DE(clash)    DE(int)     intcor
     17.61     -19.98       2.03        0.00      98.14       1.47       0.23       2.14       ----

> <Gold.Chemscore.Fitness>
17.6143

> <Gold.Chemscore.DG>
-19.9794

> <Gold.Chemscore.ZeroCoef>
-5.4800

> <Gold.Chemscore.Hbond>
2.0263

> <Gold.Chemscore.Metal>
0.0000

> <Gold.Chemscore.Lipo>
98.1435

> <Gold.Chemscore.Internal_Hbond>
0.0000

> <Gold.Chemscore.DEClash>
0.2273

> <Gold.Chemscore.DEInternal>
2.1378

> <Gold.Chemscore.Rot>
1.4653

> <Gold.Chemscore.Internal.Correction>
   9.000000E+99

> <Gold.Chemscore.Hbonds>
donor molecule, donor type, donor heavy atom, donor atom, acceptor molecule, acceptor atom, score
      L1  H     3    18       P1  8028  0.76
      L1  H    10    23       P1  8028  0.96
      L1  H    17    34       P1  8029  0.28

> <Gold.Chemscore.Hbond.Weighted>
-6.7677

> <Gold.Chemscore.Metal.Weighted>
-0.0000

> <Gold.Chemscore.Lipo.Weighted>
-11.4828

> <Gold.Chemscore.Internal_Hbond.Weighted>
0.0000

> <Gold.Chemscore.DEClash.Weighted>
0.2273

> <Gold.Chemscore.DEInternal.Weighted>
2.1378

> <Gold.Chemscore.Rot.Weighted>
3.7511

> <Gold.Chemscore.Internal.Correction.Weighted>
   9.000000E+99

> <Gold.Protein.RotatedTorsions>
[ 6907 6896 6895 6894 ] final  142.22 input  -60.11 | X-H torsion
[ 7974 7965 7964 7962 ] final   99.41 input  175.53 | X-H torsion
[ 8008 7997 7996 7995 ] final  124.27 input   59.86 | X-H torsion
[ 10167 10162 10161 10158 ] final  161.42 input  -65.29 | X-H torsion
[ 10718 10713 10712 10709 ] final  -99.09 input   66.30 | X-H torsion
[ 10763 10752 10751 10750 ] final   96.35 input  -60.55 | X-H torsion
[ 11005 11000 10999 10996 ] final  -25.28 input  -57.11 | X-H torsion

> <Gold.Protein.ActiveResidues>
 VAL166  LYS551  ARG553  GLY616  TRP617  ASP618  TYR619  PRO620  LYS621  CYS622 
 ASP623  PHE694  ASN695  SER759  ASP760  ASP761  ALA762  ILE779  LEU786  VAL792 
 PHE793  MET794  SER795  GLU796  ALA797  LYS798  CYS799  TRP800  GLU811  SER814 

> <Gold.Protein.RotatedAtoms>
  152.2214  133.4986  159.5164 H   0  0  0  0  0  0  0  0  0  0  0  0  # atno 6907 bound_to 6896
  150.7013  134.1338  159.4088 H   0  0  0  0  0  0  0  0  0  0  0  0  # atno 6908 bound_to 6896
  151.9258  135.0278  160.0576 H   0  0  0  0  0  0  0  0  0  0  0  0  # atno 6909 bound_to 6896
  145.3992  139.2350  143.3309 H   0  0  0  0  0  0  0  0  0  0  0  0  # atno 7974 bound_to 7965
  156.2796  140.2743  156.1762 H   0  0  0  0  0  0  0  0  0  0  0  0  # atno 8008 bound_to 7997
  155.0604  140.0386  157.2592 H   0  0  0  0  0  0  0  0  0  0  0  0  # atno 8009 bound_to 7997
  154.7122  140.2671  155.6624 H   0  0  0  0  0  0  0  0  0  0  0  0  # atno 8010 bound_to 7997
  139.4849  144.4538  151.8795 H   0  0  0  0  0  0  0  0  0  0  0  0  # atno 10167 bound_to 10162
  156.0124  130.5267  150.6618 H   0  0  0  0  0  0  0  0  0  0  0  0  # atno 10718 bound_to 10713
  153.2639  135.4222  155.0921 H   0  0  0  0  0  0  0  0  0  0  0  0  # atno 10763 bound_to 10752
  154.8430  135.3455  154.6339 H   0  0  0  0  0  0  0  0  0  0  0  0  # atno 10764 bound_to 10752
  153.6759  135.7041  153.5190 H   0  0  0  0  0  0  0  0  0  0  0  0  # atno 10765 bound_to 10752
  140.8923  133.7580  156.0437 H   0  0  0  0  0  0  0  0  0  0  0  0  # atno 11005 bound_to 11000
  146.2760  140.4687  142.8795 LP  0  0  0  0  0  0  0  0  0  0  0  0  # atno 17320 bound_to 7965
  144.8386  140.6821  143.6244 LP  0  0  0  0  0  0  0  0  0  0  0  0  # atno 17321 bound_to 7965
  140.3996  144.2510  150.5894 LP  0  0  0  0  0  0  0  0  0  0  0  0  # atno 17342 bound_to 10162
  140.5070  143.2301  151.8594 LP  0  0  0  0  0  0  0  0  0  0  0  0  # atno 17343 bound_to 10162
  157.4359  131.0855  151.0992 LP  0  0  0  0  0  0  0  0  0  0  0  0  # atno 17370 bound_to 10713
  157.1551  130.6201  149.5594 LP  0  0  0  0  0  0  0  0  0  0  0  0  # atno 17371 bound_to 10713
  140.8331  134.3154  157.5341 LP  0  0  0  0  0  0  0  0  0  0  0  0  # atno 17394 bound_to 11000
  139.8731  134.9374  156.3688 LP  0  0  0  0  0  0  0  0  0  0  0  0  # atno 17395 bound_to 11000

$$$$
