AV-unprocessed.smi:1971|AV-procd|sdf|7964|dock1
  -GOLD-   2272010133D 1   1.00000     0.00000
 Structure written by MMmdl.
 44 45  0  0  0  0  0  0  0  0  2 V2000
  144.4531  132.1177  151.1841 C   0  0  0  0  0  0  0  0  0  0  0  0
  145.6695  132.0418  152.1180 C   0  0  0  0  0  0  0  0  0  0  0  0
  146.7399  132.9515  151.7018 N   0  0  0  0  0  0  0  0  0  0  0  0
  146.2641  134.3250  151.5152 C   0  0  0  0  0  0  0  0  0  0  0  0
  145.9268  135.0089  152.8568 C   0  0  0  0  0  0  0  0  0  0  0  0
  147.1188  135.0144  153.7449 N   0  3  0  0  0  0  0  0  0  0  0  0
  146.9826  135.7917  155.0118 C   0  0  2  0  0  0  0  0  0  0  0  0
  146.2207  137.1229  154.8252 C   0  0  0  0  0  0  0  0  0  0  0  0
  148.3592  135.9835  155.6833 C   0  0  0  0  0  0  0  0  0  0  0  0
  148.2358  136.5704  157.0139 N   0  0  0  0  0  0  0  0  0  0  0  0
  147.9494  135.8791  158.1257 C   0  0  0  0  0  0  0  0  0  0  0  0
  147.7425  134.6654  158.1320 O   0  0  0  0  0  0  0  0  0  0  0  0
  147.9193  136.6790  159.2062 N   0  0  0  0  0  0  0  0  0  0  0  0
  147.7068  136.3130  160.5616 C   0  0  0  0  0  0  0  0  0  0  0  0
  147.7197  137.1737  161.5862 N   0  0  0  0  0  0  0  0  0  0  0  0
  147.4741  136.5400  162.8070 C   0  0  0  0  0  0  0  0  0  0  0  0
  147.2745  135.1867  162.6926 C   0  0  0  0  0  0  0  0  0  0  0  0
  147.3854  134.6516  161.0369 S   0  0  0  0  0  0  0  0  0  0  0  0
  147.6194  133.6310  153.9414 C   0  0  0  0  0  0  0  0  0  0  0  0
  147.9158  132.9693  152.5791 C   0  0  0  0  0  0  0  0  0  0  0  0
  143.6250  131.5378  151.5918 H   0  0  0  0  0  0  0  0  0  0  0  0
  144.6695  131.7158  150.1948 H   0  0  0  0  0  0  0  0  0  0  0  0
  144.1074  133.1452  151.0663 H   0  0  0  0  0  0  0  0  0  0  0  0
  145.3418  132.3319  153.1171 H   0  0  0  0  0  0  0  0  0  0  0  0
  146.0209  131.0135  152.1959 H   0  0  0  0  0  0  0  0  0  0  0  0
  147.0375  134.8951  150.9985 H   0  0  0  0  0  0  0  0  0  0  0  0
  145.3933  134.3269  150.8585 H   0  0  0  0  0  0  0  0  0  0  0  0
  145.6029  136.0293  152.6562 H   0  0  0  0  0  0  0  0  0  0  0  0
  145.0881  134.5054  153.3381 H   0  0  0  0  0  0  0  0  0  0  0  0
  146.3952  135.1768  155.6956 H   0  0  0  0  0  0  0  0  0  0  0  0
  146.0031  137.5905  155.7855 H   0  0  0  0  0  0  0  0  0  0  0  0
  145.2647  136.9755  154.3235 H   0  0  0  0  0  0  0  0  0  0  0  0
  146.7982  137.8413  154.2432 H   0  0  0  0  0  0  0  0  0  0  0  0
  148.8700  135.0240  155.7763 H   0  0  0  0  0  0  0  0  0  0  0  0
  148.9932  136.6199  155.0648 H   0  0  0  0  0  0  0  0  0  0  0  0
  148.3863  137.5654  157.0946 H   0  0  0  0  0  0  0  0  0  0  0  0
  148.0833  137.6618  159.0453 H   0  0  0  0  0  0  0  0  0  0  0  0
  147.4591  137.1307  163.7109 H   0  0  0  0  0  0  0  0  0  0  0  0
  147.0689  134.4758  163.4789 H   0  0  0  0  0  0  0  0  0  0  0  0
  148.5395  133.6569  154.5261 H   0  0  0  0  0  0  0  0  0  0  0  0
  146.9054  133.0397  154.5143 H   0  0  0  0  0  0  0  0  0  0  0  0
  148.3028  131.9613  152.7223 H   0  0  0  0  0  0  0  0  0  0  0  0
  148.7092  133.5233  152.0755 H   0  0  0  0  0  0  0  0  0  0  0  0
  147.8463  135.4830  153.2242 H   0  0  0  0  0  0  0  0  0  0  0  0
  1  2  1  0  0  0  0
  1 21  1  0  0  0  0
  1 22  1  0  0  0  0
  1 23  1  0  0  0  0
  2  3  1  0  0  0  0
  2 24  1  0  0  0  0
  2 25  1  0  0  0  0
  3 20  1  0  0  0  0
  3  4  1  0  0  0  0
  4  5  1  0  0  0  0
  4 26  1  0  0  0  0
  4 27  1  0  0  0  0
  5  6  1  0  0  0  0
  5 28  1  0  0  0  0
  5 29  1  0  0  0  0
  6  7  1  0  0  0  0
  6 19  1  0  0  0  0
  6 44  1  0  0  0  0
  7  8  1  0  0  0  0
  7  9  1  0  0  0  0
  7 30  1  0  0  0  0
  8 31  1  0  0  0  0
  8 32  1  0  0  0  0
  8 33  1  0  0  0  0
  9 10  1  0  0  0  0
  9 34  1  0  0  0  0
  9 35  1  0  0  0  0
 10 11  1  0  0  0  0
 10 36  1  0  0  0  0
 11 12  2  0  0  0  0
 11 13  1  0  0  0  0
 13 14  1  0  0  0  0
 13 37  1  0  0  0  0
 14 18  1  0  0  0  0
 14 15  2  0  0  0  0
 15 16  1  0  0  0  0
 16 17  2  0  0  0  0
 16 38  1  0  0  0  0
 17 18  1  0  0  0  0
 17 39  1  0  0  0  0
 19 20  1  0  0  0  0
 19 40  1  0  0  0  0
 19 41  1  0  0  0  0
 20 42  1  0  0  0  0
 20 43  1  0  0  0  0
M  CHG  1   6   1
M  END
> <s_m_source_file>
AV-unprocessed.smi

> <i_m_source_file_index>
1971

> <i_lp_mmshare_version>
43012

> <i_f3d_flags>
0

> <s_epik_input>
W0NIM11bQ0gyXU4xW0NIMl1bQ0gyXU4oW0NIMl1bQ0gyXTEpW0NASF0oW0NIM10pW0NIMl1bTkhdQyg9TylbTkhdYzJuW2NIXVtjSF1zMg==

> <s_epik_cmdline>
J2VwaWtfcHl0aG9uJywgJy1waCcsICc3LjAnLCAnLXRuJywgJzgnLCAnLW1hJywgJzIwMCcsICctbWV0YWxfYmluZGluZycsICctaW1hZScsICc8aW5maWxlLm1hZT4nLCAnLW9tYWUnLCAnPG91dGZpbGUubWFlPic=

> <r_epik_Ionization_Penalty>
0.150098

> <r_epik_Ionization_Penalty_Charging>
0.148467

> <r_epik_Ionization_Penalty_Neutral>
0.00163072

> <r_epik_State_Penalty>
0.974087

> <r_epik_Charging_Adjusted_Penalty>
1.12255

> <i_epik_Tot_Q>
1

> <i_epik_Tot_abs_Q>
1

> <r_epik_Metal_State_Penalty>
1.00741

> <b_epik_Metal_Only>
0

> <s_lp_Force_Field>
OPLS_2005

> <r_lp_Energy>
20.3005

> <b_lp_Chiralities_Consistent>
1

> <s_lp_Variant>
AV-unprocessed.smi:1971-3

> <Gold.Version>
5.8.1

> <Gold.Id.Protein>
6NUR|6NUR_protein|mol2

> <Gold.PLP.Fitness>
40.9453

> <Gold.PLP.PLP>
-30.2766

> <Gold.PLP.part.hbond>
-3.0000

> <Gold.PLP.part.metal>
0.0000

> <Gold.PLP.part.buried>
-4.5479

> <Gold.PLP.part.nonpolar>
-23.1253

> <Gold.PLP.part.repulsive>
0.3054

> <Gold.PLP.ligand.clash>
0.0000

> <Gold.PLP.ligand.torsion>
0.3559

> <Gold.PLP.Chemscore.Hbond>
3.7520

> <Gold.PLP.Chemscore.CHOScore>
0.0000

> <Gold.PLP.Chemscore.Metal>
0.0000

> <Gold.Chemscore.Hbonds>
donor molecule, donor type, donor heavy atom, donor atom, acceptor molecule, acceptor atom, score
      L1  H     6    44       P1  7948  2.00
      P1  H  6931  6943       L1    15  1.00
      P1  H  6934  6947       L1    15  0.74

> <Gold.PLP.Chemscore.Internal.Correction>
0.1245

> <Gold.Rescore>
     Score         DG    S(hbond)    S(metal)    S(lipo)     H(rot)  DE(clash)    DE(int)     intcor
     13.37     -15.08       1.97        0.00      65.13       1.79       0.11       1.60       ----

> <Gold.Chemscore.Fitness>
13.3679

> <Gold.Chemscore.DG>
-15.0802

> <Gold.Chemscore.ZeroCoef>
-5.4800

> <Gold.Chemscore.Hbond>
1.9675

> <Gold.Chemscore.Metal>
0.0000

> <Gold.Chemscore.Lipo>
65.1344

> <Gold.Chemscore.Internal_Hbond>
0.0000

> <Gold.Chemscore.DEClash>
0.1081

> <Gold.Chemscore.DEInternal>
1.6042

> <Gold.Chemscore.Rot>
1.7937

> <Gold.Chemscore.Internal.Correction>
   9.000000E+99

> <Gold.Chemscore.Hbonds>
donor molecule, donor type, donor heavy atom, donor atom, acceptor molecule, acceptor atom, score
      L1  H     6    44       P1  7948  1.00
      P1  H  6931  6943       L1    15  0.48
      P1  H  6934  6947       L1    15  0.51

> <Gold.Chemscore.Hbond.Weighted>
-6.5714

> <Gold.Chemscore.Metal.Weighted>
-0.0000

> <Gold.Chemscore.Lipo.Weighted>
-7.6207

> <Gold.Chemscore.Internal_Hbond.Weighted>
0.0000

> <Gold.Chemscore.DEClash.Weighted>
0.1081

> <Gold.Chemscore.DEInternal.Weighted>
1.6042

> <Gold.Chemscore.Rot.Weighted>
4.5919

> <Gold.Chemscore.Internal.Correction.Weighted>
   9.000000E+99

> <Gold.Protein.RotatedTorsions>
[ 6907 6896 6895 6894 ] final  167.08 input  -60.11 | X-H torsion
[ 7974 7965 7964 7962 ] final -101.69 input  175.53 | X-H torsion
[ 8008 7997 7996 7995 ] final  -90.09 input   59.86 | X-H torsion
[ 10167 10162 10161 10158 ] final  -94.46 input  -65.29 | X-H torsion
[ 10718 10713 10712 10709 ] final  134.56 input   66.30 | X-H torsion
[ 10763 10752 10751 10750 ] final   76.18 input  -60.55 | X-H torsion
[ 11005 11000 10999 10996 ] final  -67.46 input  -57.11 | X-H torsion

> <Gold.Protein.ActiveResidues>
 VAL166  LYS551  ARG553  GLY616  TRP617  ASP618  TYR619  PRO620  LYS621  CYS622 
 ASP623  PHE694  ASN695  SER759  ASP760  ASP761  ALA762  ILE779  LEU786  VAL792 
 PHE793  MET794  SER795  GLU796  ALA797  LYS798  CYS799  TRP800  GLU811  SER814 

> <Gold.Protein.RotatedAtoms>
  151.8688  133.3471  159.3727 H   0  0  0  0  0  0  0  0  0  0  0  0  # atno 6907 bound_to 6896
  150.7158  134.5133  159.5627 H   0  0  0  0  0  0  0  0  0  0  0  0  # atno 6908 bound_to 6896
  152.2662  134.7982  160.0473 H   0  0  0  0  0  0  0  0  0  0  0  0  # atno 6909 bound_to 6896
  145.2783  140.9319  143.2946 H   0  0  0  0  0  0  0  0  0  0  0  0  # atno 7974 bound_to 7965
  154.6944  140.0534  157.0395 H   0  0  0  0  0  0  0  0  0  0  0  0  # atno 8008 bound_to 7997
  155.0772  140.3206  155.4593 H   0  0  0  0  0  0  0  0  0  0  0  0  # atno 8009 bound_to 7997
  156.2739  140.2071  156.5900 H   0  0  0  0  0  0  0  0  0  0  0  0  # atno 8010 bound_to 7997
  140.3142  143.3087  152.0116 H   0  0  0  0  0  0  0  0  0  0  0  0  # atno 10167 bound_to 10162
  157.4660  131.1077  150.9862 H   0  0  0  0  0  0  0  0  0  0  0  0  # atno 10718 bound_to 10713
  153.0707  135.4961  154.8299 H   0  0  0  0  0  0  0  0  0  0  0  0  # atno 10763 bound_to 10752
  154.7019  135.3003  154.9331 H   0  0  0  0  0  0  0  0  0  0  0  0  # atno 10764 bound_to 10752
  154.0052  135.6761  153.4814 H   0  0  0  0  0  0  0  0  0  0  0  0  # atno 10765 bound_to 10752
  141.1508  133.6719  156.6296 H   0  0  0  0  0  0  0  0  0  0  0  0  # atno 11005 bound_to 11000
  144.9275  139.4338  143.6511 LP  0  0  0  0  0  0  0  0  0  0  0  0  # atno 17320 bound_to 7965
  146.3224  139.8168  142.8935 LP  0  0  0  0  0  0  0  0  0  0  0  0  # atno 17321 bound_to 7965
  139.4887  144.6361  151.6973 LP  0  0  0  0  0  0  0  0  0  0  0  0  # atno 17342 bound_to 10162
  140.5541  144.0377  150.6140 LP  0  0  0  0  0  0  0  0  0  0  0  0  # atno 17343 bound_to 10162
  157.0643  130.5838  149.5391 LP  0  0  0  0  0  0  0  0  0  0  0  0  # atno 17370 bound_to 10713
  156.0050  130.5136  150.7799 LP  0  0  0  0  0  0  0  0  0  0  0  0  # atno 17371 bound_to 10713
  140.3477  134.7795  157.4444 LP  0  0  0  0  0  0  0  0  0  0  0  0  # atno 17394 bound_to 11000
  140.0886  134.5632  155.8467 LP  0  0  0  0  0  0  0  0  0  0  0  0  # atno 17395 bound_to 11000

$$$$
