AV-unprocessed.smi:829|AV-procd|sdf|3866|dock5
  -GOLD-   22720 1313D 1   1.00000     0.00000
 Structure written by MMmdl.
 49 51  0  0  0  0  0  0  0  0  2 V2000
  150.1554  136.5561  156.1745 O   0  0  0  0  0  0  0  0  0  0  0  0
  149.7389  136.3933  155.0280 C   0  0  0  0  0  0  0  0  0  0  0  0
  149.5769  135.2088  154.4126 N   0  0  0  0  0  0  0  0  0  0  0  0
  149.8263  133.8979  154.9050 C   0  0  0  0  0  0  0  0  0  0  0  0
  149.5479  132.8164  154.0435 C   0  0  0  0  0  0  0  0  0  0  0  0
  149.7735  131.5037  154.5035 C   0  0  0  0  0  0  0  0  0  0  0  0
  150.2410  131.2203  155.7372 N   0  0  0  0  0  0  0  0  0  0  0  0
  150.4973  132.2551  156.5650 C   0  0  0  0  0  0  0  0  0  0  0  0
  150.3054  133.6043  156.2052 C   0  0  0  0  0  0  0  0  0  0  0  0
  149.3963  137.4081  154.2208 N   0  0  0  0  0  0  0  0  0  0  0  0
  149.4702  138.8229  154.5743 C   0  0  2  0  0  0  0  0  0  0  0  0
  150.8608  139.1782  155.1312 C   0  0  0  0  0  0  0  0  0  0  0  0
  150.9156  140.6421  155.6000 C   0  0  0  0  0  0  0  0  0  0  0  0
  149.8575  140.9248  156.6041 N   0  3  1  0  0  0  0  0  0  0  0  0
  149.9629  142.2859  157.1907 C   0  0  0  0  0  0  0  0  0  0  0  0
  151.3880  142.5853  157.6929 C   0  0  0  0  0  0  0  0  0  0  0  0
  151.7511  141.9536  159.0403 C   0  0  0  0  0  0  0  0  0  0  0  0
  152.9550  142.7572  159.5407 C   0  0  0  0  0  0  0  0  0  0  0  0
  152.8589  144.1344  158.8676 C   0  0  0  0  0  0  0  0  0  0  0  0
  151.6383  144.0754  157.9416 C   0  0  0  0  0  0  0  0  0  0  0  0
  148.5036  140.6258  156.0686 C   0  0  0  0  0  0  0  0  0  0  0  0
  148.3967  139.1588  155.6215 C   0  0  0  0  0  0  0  0  0  0  0  0
  149.2769  135.2515  153.4498 H   0  0  0  0  0  0  0  0  0  0  0  0
  149.1709  132.9839  153.0451 H   0  0  0  0  0  0  0  0  0  0  0  0
  149.5717  130.6583  153.8625 H   0  0  0  0  0  0  0  0  0  0  0  0
  150.8633  132.0001  157.5486 H   0  0  0  0  0  0  0  0  0  0  0  0
  150.5199  134.3705  156.9330 H   0  0  0  0  0  0  0  0  0  0  0  0
  149.0668  137.1863  153.2925 H   0  0  0  0  0  0  0  0  0  0  0  0
  149.2776  139.4256  153.6844 H   0  0  0  0  0  0  0  0  0  0  0  0
  151.1044  138.5213  155.9676 H   0  0  0  0  0  0  0  0  0  0  0  0
  151.6264  139.0085  154.3730 H   0  0  0  0  0  0  0  0  0  0  0  0
  151.8964  140.8392  156.0350 H   0  0  0  0  0  0  0  0  0  0  0  0
  150.8022  141.3157  154.7489 H   0  0  0  0  0  0  0  0  0  0  0  0
  149.7169  143.0304  156.4319 H   0  0  0  0  0  0  0  0  0  0  0  0
  149.2279  142.4251  157.9853 H   0  0  0  0  0  0  0  0  0  0  0  0
  152.1079  142.2458  156.9459 H   0  0  0  0  0  0  0  0  0  0  0  0
  150.9234  142.0689  159.7416 H   0  0  0  0  0  0  0  0  0  0  0  0
  151.9735  140.8892  158.9597 H   0  0  0  0  0  0  0  0  0  0  0  0
  152.9646  142.8305  160.6288 H   0  0  0  0  0  0  0  0  0  0  0  0
  153.8814  142.2664  159.2393 H   0  0  0  0  0  0  0  0  0  0  0  0
  152.7605  144.9379  159.5985 H   0  0  0  0  0  0  0  0  0  0  0  0
  153.7643  144.3287  158.2910 H   0  0  0  0  0  0  0  0  0  0  0  0
  151.7913  144.6333  157.0175 H   0  0  0  0  0  0  0  0  0  0  0  0
  150.7794  144.5151  158.4506 H   0  0  0  0  0  0  0  0  0  0  0  0
  147.7466  140.8253  156.8262 H   0  0  0  0  0  0  0  0  0  0  0  0
  148.2887  141.2886  155.2288 H   0  0  0  0  0  0  0  0  0  0  0  0
  147.4033  138.9700  155.2126 H   0  0  0  0  0  0  0  0  0  0  0  0
  148.5039  138.5065  156.4898 H   0  0  0  0  0  0  0  0  0  0  0  0
  150.0200  140.2805  157.3646 H   0  0  0  0  0  0  0  0  0  0  0  0
  1  2  2  0  0  0  0
  2  3  1  0  0  0  0
  2 10  1  0  0  0  0
  3  4  1  0  0  0  0
  3 23  1  0  0  0  0
  4  9  1  0  0  0  0
  4  5  2  0  0  0  0
  5  6  1  0  0  0  0
  5 24  1  0  0  0  0
  6  7  2  0  0  0  0
  6 25  1  0  0  0  0
  7  8  1  0  0  0  0
  8  9  2  0  0  0  0
  8 26  1  0  0  0  0
  9 27  1  0  0  0  0
 10 11  1  0  0  0  0
 10 28  1  0  0  0  0
 11 22  1  0  0  0  0
 11 12  1  0  0  0  0
 11 29  1  0  0  0  0
 12 13  1  0  0  0  0
 12 30  1  0  0  0  0
 12 31  1  0  0  0  0
 13 14  1  0  0  0  0
 13 32  1  0  0  0  0
 13 33  1  0  0  0  0
 14 15  1  0  0  0  0
 14 21  1  0  0  0  0
 14 49  1  0  0  0  0
 15 16  1  0  0  0  0
 15 34  1  0  0  0  0
 15 35  1  0  0  0  0
 16 20  1  0  0  0  0
 16 17  1  0  0  0  0
 16 36  1  0  0  0  0
 17 18  1  0  0  0  0
 17 37  1  0  0  0  0
 17 38  1  0  0  0  0
 18 19  1  0  0  0  0
 18 39  1  0  0  0  0
 18 40  1  0  0  0  0
 19 20  1  0  0  0  0
 19 41  1  0  0  0  0
 19 42  1  0  0  0  0
 20 43  1  0  0  0  0
 20 44  1  0  0  0  0
 21 22  1  0  0  0  0
 21 45  1  0  0  0  0
 21 46  1  0  0  0  0
 22 47  1  0  0  0  0
 22 48  1  0  0  0  0
M  CHG  1  14   1
M  END
> <s_m_source_file>
AV-unprocessed.smi

> <i_m_source_file_index>
829

> <i_lp_mmshare_version>
43012

> <i_f3d_flags>
0

> <s_epik_input>
W2NIXTFbY0hdbltjSF1bY0hdYzFbTkhdQyg9TylbTkhdW0NIXTJbQ0gyXVtDSDJdTihbQ0gyXVtDSDJdMilbQ0gyXVtDSF0zW0NIMl1bQ0gyXVtDSDJdW0NIMl0z

> <s_epik_cmdline>
J2VwaWtfcHl0aG9uJywgJy1waCcsICc3LjAnLCAnLXRuJywgJzgnLCAnLW1hJywgJzIwMCcsICctbWV0YWxfYmluZGluZycsICctaW1hZScsICc8aW5maWxlLm1hZT4nLCAnLW9tYWUnLCAnPG91dGZpbGUubWFlPic=

> <r_epik_Ionization_Penalty>
0.101981

> <r_epik_Ionization_Penalty_Charging>
0.00207989

> <r_epik_Ionization_Penalty_Neutral>
0.0999008

> <r_epik_State_Penalty>
0.0935668

> <r_epik_Charging_Adjusted_Penalty>
0.0956467

> <i_epik_Tot_Q>
1

> <i_epik_Tot_abs_Q>
1

> <r_epik_Metal_State_Penalty>
0.0787682

> <b_epik_Metal_Only>
0

> <s_lp_Force_Field>
OPLS_2005

> <r_lp_Energy>
43.2002

> <b_lp_Chiralities_Consistent>
1

> <s_lp_Variant>
AV-unprocessed.smi:829-1

> <Gold.Version>
5.8.1

> <Gold.Id.Protein>
6NUR|6NUR_protein|mol2

> <Gold.PLP.Fitness>
45.5813

> <Gold.PLP.PLP>
-40.0323

> <Gold.PLP.part.hbond>
-2.0000

> <Gold.PLP.part.metal>
0.0000

> <Gold.PLP.part.buried>
-2.8512

> <Gold.PLP.part.nonpolar>
-34.8264

> <Gold.PLP.part.repulsive>
0.0978

> <Gold.PLP.ligand.clash>
0.0000

> <Gold.PLP.ligand.torsion>
0.2479

> <Gold.PLP.Chemscore.Hbond>
2.0000

> <Gold.PLP.Chemscore.CHOScore>
0.0000

> <Gold.PLP.Chemscore.Metal>
0.0000

> <Gold.Chemscore.Hbonds>
donor molecule, donor type, donor heavy atom, donor atom, acceptor molecule, acceptor atom, score
      L1  H     3    23       P1  7948  0.90
      L1  H    10    28       P1  7948  1.00

> <Gold.PLP.Chemscore.Internal.Correction>
0.0447

> <Gold.Rescore>
     Score         DG    S(hbond)    S(metal)    S(lipo)     H(rot)  DE(clash)    DE(int)     intcor
     18.27     -20.83       1.72        0.00     111.45       1.35       0.03       2.53       ----

> <Gold.Chemscore.Fitness>
18.2660

> <Gold.Chemscore.DG>
-20.8263

> <Gold.Chemscore.ZeroCoef>
-5.4800

> <Gold.Chemscore.Hbond>
1.7217

> <Gold.Chemscore.Metal>
0.0000

> <Gold.Chemscore.Lipo>
111.4547

> <Gold.Chemscore.Internal_Hbond>
0.0000

> <Gold.Chemscore.DEClash>
0.0323

> <Gold.Chemscore.DEInternal>
2.5281

> <Gold.Chemscore.Rot>
1.3455

> <Gold.Chemscore.Internal.Correction>
   9.000000E+99

> <Gold.Chemscore.Hbonds>
donor molecule, donor type, donor heavy atom, donor atom, acceptor molecule, acceptor atom, score
      L1  H     3    23       P1  7948  0.17
      L1  H    10    28       P1  7948  0.97

> <Gold.Chemscore.Hbond.Weighted>
-5.7506

> <Gold.Chemscore.Metal.Weighted>
-0.0000

> <Gold.Chemscore.Lipo.Weighted>
-13.0402

> <Gold.Chemscore.Internal_Hbond.Weighted>
0.0000

> <Gold.Chemscore.DEClash.Weighted>
0.0323

> <Gold.Chemscore.DEInternal.Weighted>
2.5281

> <Gold.Chemscore.Rot.Weighted>
3.4445

> <Gold.Chemscore.Internal.Correction.Weighted>
   9.000000E+99

> <Gold.Protein.RotatedTorsions>
[ 6907 6896 6895 6894 ] final -135.95 input  -60.11 | X-H torsion
[ 7974 7965 7964 7962 ] final  -29.77 input  175.53 | X-H torsion
[ 8008 7997 7996 7995 ] final -100.31 input   59.86 | X-H torsion
[ 10167 10162 10161 10158 ] final  137.67 input  -65.29 | X-H torsion
[ 10718 10713 10712 10709 ] final  -20.89 input   66.30 | X-H torsion
[ 10763 10752 10751 10750 ] final -151.82 input  -60.55 | X-H torsion
[ 11005 11000 10999 10996 ] final   49.85 input  -57.11 | X-H torsion

> <Gold.Protein.ActiveResidues>
 VAL166  LYS551  ARG553  GLY616  TRP617  ASP618  TYR619  PRO620  LYS621  CYS622 
 ASP623  PHE694  ASN695  SER759  ASP760  ASP761  ALA762  ILE779  LEU786  VAL792 
 PHE793  MET794  SER795  GLU796  ALA797  LYS798  CYS799  TRP800  GLU811  SER814 

> <Gold.Protein.RotatedAtoms>
  151.0042  133.6027  159.2690 H   0  0  0  0  0  0  0  0  0  0  0  0  # atno 6907 bound_to 6896
  151.3203  135.0816  159.9313 H   0  0  0  0  0  0  0  0  0  0  0  0  # atno 6908 bound_to 6896
  152.5282  133.9690  159.7807 H   0  0  0  0  0  0  0  0  0  0  0  0  # atno 6909 bound_to 6896
  146.1192  140.5455  142.8743 H   0  0  0  0  0  0  0  0  0  0  0  0  # atno 7974 bound_to 7965
  154.8268  140.0442  157.1449 H   0  0  0  0  0  0  0  0  0  0  0  0  # atno 8008 bound_to 7997
  154.9197  140.3025  155.5202 H   0  0  0  0  0  0  0  0  0  0  0  0  # atno 8009 bound_to 7997
  156.2984  140.2343  156.4245 H   0  0  0  0  0  0  0  0  0  0  0  0  # atno 8010 bound_to 7997
  139.5136  144.6397  151.5603 H   0  0  0  0  0  0  0  0  0  0  0  0  # atno 10167 bound_to 10162
  156.5256  130.4643  149.6574 H   0  0  0  0  0  0  0  0  0  0  0  0  # atno 10718 bound_to 10713
  154.8034  135.3251  154.7494 H   0  0  0  0  0  0  0  0  0  0  0  0  # atno 10763 bound_to 10752
  153.8157  135.6892  153.4838 H   0  0  0  0  0  0  0  0  0  0  0  0  # atno 10764 bound_to 10752
  153.1764  135.4603  154.9914 H   0  0  0  0  0  0  0  0  0  0  0  0  # atno 10765 bound_to 10752
  140.1068  134.5008  155.8713 H   0  0  0  0  0  0  0  0  0  0  0  0  # atno 11005 bound_to 11000
  144.7581  140.5357  143.6754 LP  0  0  0  0  0  0  0  0  0  0  0  0  # atno 17320 bound_to 7965
  145.5502  139.1476  143.3398 LP  0  0  0  0  0  0  0  0  0  0  0  0  # atno 17321 bound_to 7965
  140.6159  143.9350  150.6488 LP  0  0  0  0  0  0  0  0  0  0  0  0  # atno 17342 bound_to 10162
  140.2608  143.3525  152.1324 LP  0  0  0  0  0  0  0  0  0  0  0  0  # atno 17343 bound_to 10162
  156.3108  130.7228  151.2120 LP  0  0  0  0  0  0  0  0  0  0  0  0  # atno 17370 bound_to 10713
  157.7430  131.0481  150.4981 LP  0  0  0  0  0  0  0  0  0  0  0  0  # atno 17371 bound_to 10713
  141.2120  133.6714  156.6626 LP  0  0  0  0  0  0  0  0  0  0  0  0  # atno 17394 bound_to 11000
  140.3145  134.8058  157.4203 LP  0  0  0  0  0  0  0  0  0  0  0  0  # atno 17395 bound_to 11000

$$$$
