AV-unprocessed.smi:2332|AV-procd|sdf|9319|dock3
  -GOLD-   2272012543D 1   1.00000     0.00000
 Structure written by MMmdl.
 32 33  0  0  0  0  0  0  0  0  1 V2000
  148.9742  141.4243  154.2224 C   0  0  0  0  0  0  0  0  0  0  0  0
  149.4713  142.1411  155.3864 N   0  0  0  0  0  0  0  0  0  0  0  0
  150.4688  141.7100  156.1734 C   0  0  0  0  0  0  0  0  0  0  0  0
  151.0556  140.6443  155.9808 O   0  0  0  0  0  0  0  0  0  0  0  0
  150.8509  142.6003  157.3659 C   0  0  1  0  0  0  0  0  0  0  0  0
  151.8505  141.9016  158.3160 C   0  0  0  0  0  0  0  0  0  0  0  0
  152.2854  142.8121  159.3729 N   0  0  0  0  0  0  0  0  0  0  0  0
  152.9886  142.2126  160.4405 C   0  0  0  0  0  0  0  0  0  0  0  0
  153.6925  141.0009  160.2379 C   0  0  0  0  0  0  0  0  0  0  0  0
  154.3908  140.4221  161.3155 C   0  0  0  0  0  0  0  0  0  0  0  0
  154.3655  141.0679  162.5660 C   0  0  0  0  0  0  0  0  0  0  0  0
  155.0700  140.5110  163.7080 C   0  0  0  0  0  0  0  0  0  0  0  0
  155.6310  140.0676  164.6176 N   0  0  0  0  0  0  0  0  0  0  0  0
  153.6358  142.2670  162.6813 C   0  0  0  0  0  0  0  0  0  0  0  0
  152.9638  142.8245  161.6513 N   0  0  0  0  0  0  0  0  0  0  0  0
  152.7692  144.0965  158.8722 C   0  0  0  0  0  0  0  0  0  0  0  0
  151.7333  144.7247  157.9278 C   0  0  0  0  0  0  0  0  0  0  0  0
  151.4321  143.8111  156.8796 O   0  0  0  0  0  0  0  0  0  0  0  0
  148.1942  142.0066  153.7323 H   0  0  0  0  0  0  0  0  0  0  0  0
  148.5508  140.4617  154.5120 H   0  0  0  0  0  0  0  0  0  0  0  0
  149.7740  141.2506  153.5012 H   0  0  0  0  0  0  0  0  0  0  0  0
  149.0372  143.0259  155.6076 H   0  0  0  0  0  0  0  0  0  0  0  0
  149.9317  142.8362  157.9050 H   0  0  0  0  0  0  0  0  0  0  0  0
  151.3834  141.0103  158.7334 H   0  0  0  0  0  0  0  0  0  0  0  0
  152.7287  141.5675  157.7612 H   0  0  0  0  0  0  0  0  0  0  0  0
  153.6928  140.5039  159.2792 H   0  0  0  0  0  0  0  0  0  0  0  0
  154.9312  139.4965  161.1782 H   0  0  0  0  0  0  0  0  0  0  0  0
  153.5852  142.7971  163.6213 H   0  0  0  0  0  0  0  0  0  0  0  0
  152.9608  144.7777  159.7024 H   0  0  0  0  0  0  0  0  0  0  0  0
  153.7129  143.9479  158.3454 H   0  0  0  0  0  0  0  0  0  0  0  0
  150.8231  144.9915  158.4677 H   0  0  0  0  0  0  0  0  0  0  0  0
  152.1282  145.6438  157.4951 H   0  0  0  0  0  0  0  0  0  0  0  0
  1  2  1  0  0  0  0
  1 19  1  0  0  0  0
  1 20  1  0  0  0  0
  1 21  1  0  0  0  0
  2  3  1  0  0  0  0
  2 22  1  0  0  0  0
  3  4  2  0  0  0  0
  3  5  1  0  0  0  0
  5 18  1  0  0  0  0
  5  6  1  0  0  0  0
  5 23  1  0  0  0  0
  6  7  1  0  0  0  0
  6 24  1  0  0  0  0
  6 25  1  0  0  0  0
  7  8  1  0  0  0  0
  7 16  1  0  0  0  0
  8 15  1  0  0  0  0
  8  9  2  0  0  0  0
  9 10  1  0  0  0  0
  9 26  1  0  0  0  0
 10 11  2  0  0  0  0
 10 27  1  0  0  0  0
 11 12  1  0  0  0  0
 11 14  1  0  0  0  0
 12 13  3  0  0  0  0
 14 15  2  0  0  0  0
 14 28  1  0  0  0  0
 16 17  1  0  0  0  0
 16 29  1  0  0  0  0
 16 30  1  0  0  0  0
 17 18  1  0  0  0  0
 17 31  1  0  0  0  0
 17 32  1  0  0  0  0
M  END
> <s_m_source_file>
AV-unprocessed.smi

> <i_m_source_file_index>
2332

> <i_lp_mmshare_version>
43012

> <i_f3d_flags>
0

> <s_epik_input>
W0NIM11bTkhdQyg9TylbQ0BASF0xW0NIMl1OKFtDSDJdW0NIMl1PMSljMltjSF1bY0hdYyhDI04pW2NIXW4y

> <s_epik_cmdline>
J2VwaWtfcHl0aG9uJywgJy1waCcsICc3LjAnLCAnLXRuJywgJzgnLCAnLW1hJywgJzIwMCcsICctbWV0YWxfYmluZGluZycsICctaW1hZScsICc8aW5maWxlLm1hZT4nLCAnLW9tYWUnLCAnPG91dGZpbGUubWFlPic=

> <r_lp_tautomer_probability>
1

> <r_epik_Ionization_Penalty>
6.95229e-08

> <r_epik_Ionization_Penalty_Charging>
0

> <r_epik_Ionization_Penalty_Neutral>
6.95229e-08

> <r_epik_State_Penalty>
-0

> <r_epik_Charging_Adjusted_Penalty>
0

> <i_epik_Tot_Q>
0

> <i_epik_Tot_abs_Q>
0

> <r_epik_Metal_State_Penalty>
-0

> <b_epik_Metal_Only>
0

> <s_lp_Force_Field>
OPLS_2005

> <r_lp_Energy>
17.7289

> <b_lp_Chiralities_Consistent>
1

> <s_lp_Variant>
AV-unprocessed.smi:2332-2

> <Gold.Version>
5.8.1

> <Gold.Id.Protein>
6NUR|6NUR_protein|mol2

> <Gold.PLP.Fitness>
40.4346

> <Gold.PLP.PLP>
-38.1590

> <Gold.PLP.part.hbond>
-1.0000

> <Gold.PLP.part.metal>
0.0000

> <Gold.PLP.part.buried>
-3.4343

> <Gold.PLP.part.nonpolar>
-34.8118

> <Gold.PLP.part.repulsive>
2.0907

> <Gold.PLP.ligand.clash>
0.0000

> <Gold.PLP.ligand.torsion>
0.5177

> <Gold.PLP.Chemscore.Hbond>
0.9920

> <Gold.PLP.Chemscore.CHOScore>
0.0000

> <Gold.PLP.Chemscore.Metal>
0.0000

> <Gold.Chemscore.Hbonds>
donor molecule, donor type, donor heavy atom, donor atom, acceptor molecule, acceptor atom, score
      L1  H     2    22       P1  8028  1.00

> <Gold.PLP.Chemscore.Internal.Correction>
0.3350

> <Gold.Rescore>
     Score         DG    S(hbond)    S(metal)    S(lipo)     H(rot)  DE(clash)    DE(int)     intcor
     15.14     -15.96       0.98        0.00      91.29       1.35       0.38       0.44       ----

> <Gold.Chemscore.Fitness>
15.1375

> <Gold.Chemscore.DG>
-15.9631

> <Gold.Chemscore.ZeroCoef>
-5.4800

> <Gold.Chemscore.Hbond>
0.9752

> <Gold.Chemscore.Metal>
0.0000

> <Gold.Chemscore.Lipo>
91.2949

> <Gold.Chemscore.Internal_Hbond>
0.0000

> <Gold.Chemscore.DEClash>
0.3837

> <Gold.Chemscore.DEInternal>
0.4419

> <Gold.Chemscore.Rot>
1.3498

> <Gold.Chemscore.Internal.Correction>
   9.000000E+99

> <Gold.Chemscore.Hbonds>
donor molecule, donor type, donor heavy atom, donor atom, acceptor molecule, acceptor atom, score
      L1  H     2    22       P1  8028  0.99

> <Gold.Chemscore.Hbond.Weighted>
-3.2572

> <Gold.Chemscore.Metal.Weighted>
-0.0000

> <Gold.Chemscore.Lipo.Weighted>
-10.6815

> <Gold.Chemscore.Internal_Hbond.Weighted>
0.0000

> <Gold.Chemscore.DEClash.Weighted>
0.3837

> <Gold.Chemscore.DEInternal.Weighted>
0.4419

> <Gold.Chemscore.Rot.Weighted>
3.4556

> <Gold.Chemscore.Internal.Correction.Weighted>
   9.000000E+99

> <Gold.Protein.RotatedTorsions>
[ 6907 6896 6895 6894 ] final -127.15 input  -60.11 | X-H torsion
[ 7974 7965 7964 7962 ] final  170.05 input  175.53 | X-H torsion
[ 8008 7997 7996 7995 ] final  -48.30 input   59.86 | X-H torsion
[ 10167 10162 10161 10158 ] final -129.88 input  -65.29 | X-H torsion
[ 10718 10713 10712 10709 ] final  -13.76 input   66.30 | X-H torsion
[ 10763 10752 10751 10750 ] final  -50.73 input  -60.55 | X-H torsion
[ 11005 11000 10999 10996 ] final  131.15 input  -57.11 | X-H torsion

> <Gold.Protein.ActiveResidues>
 VAL166  LYS551  ARG553  GLY616  TRP617  ASP618  TYR619  PRO620  LYS621  CYS622 
 ASP623  PHE694  ASN695  SER759  ASP760  ASP761  ALA762  ILE779  LEU786  VAL792 
 PHE793  MET794  SER795  GLU796  ALA797  LYS798  CYS799  TRP800  GLU811  SER814 

> <Gold.Protein.RotatedAtoms>
  150.9043  133.7078  159.2870 H   0  0  0  0  0  0  0  0  0  0  0  0  # atno 6907 bound_to 6896
  151.4586  135.1035  159.9728 H   0  0  0  0  0  0  0  0  0  0  0  0  # atno 6908 bound_to 6896
  152.4894  133.8412  159.7208 H   0  0  0  0  0  0  0  0  0  0  0  0  # atno 6909 bound_to 6896
  144.7335  139.9145  143.6417 H   0  0  0  0  0  0  0  0  0  0  0  0  # atno 7974 bound_to 7965
  154.4027  140.1325  156.4316 H   0  0  0  0  0  0  0  0  0  0  0  0  # atno 8008 bound_to 7997
  155.7546  140.3487  155.5147 H   0  0  0  0  0  0  0  0  0  0  0  0  # atno 8009 bound_to 7997
  155.8917  140.1004  157.1404 H   0  0  0  0  0  0  0  0  0  0  0  0  # atno 8010 bound_to 7997
  139.9351  143.6227  152.2519 H   0  0  0  0  0  0  0  0  0  0  0  0  # atno 10167 bound_to 10162
  156.6256  130.4887  149.6148 H   0  0  0  0  0  0  0  0  0  0  0  0  # atno 10718 bound_to 10713
  154.1151  135.6543  153.4892 H   0  0  0  0  0  0  0  0  0  0  0  0  # atno 10763 bound_to 10752
  153.0243  135.5257  154.7153 H   0  0  0  0  0  0  0  0  0  0  0  0  # atno 10764 bound_to 10752
  154.6344  135.2980  155.0148 H   0  0  0  0  0  0  0  0  0  0  0  0  # atno 10765 bound_to 10752
  139.9713  134.9576  156.9396 H   0  0  0  0  0  0  0  0  0  0  0  0  # atno 11005 bound_to 11000
  146.0976  139.3969  143.0367 LP  0  0  0  0  0  0  0  0  0  0  0  0  # atno 17320 bound_to 7965
  145.7624  140.9930  143.1193 LP  0  0  0  0  0  0  0  0  0  0  0  0  # atno 17321 bound_to 7965
  139.6750  144.7659  151.1713 LP  0  0  0  0  0  0  0  0  0  0  0  0  # atno 17342 bound_to 10162
  140.7627  143.5808  150.8896 LP  0  0  0  0  0  0  0  0  0  0  0  0  # atno 17343 bound_to 10162
  156.2276  130.6775  151.1431 LP  0  0  0  0  0  0  0  0  0  0  0  0  # atno 17370 bound_to 10713
  157.7215  131.0678  150.6116 LP  0  0  0  0  0  0  0  0  0  0  0  0  # atno 17371 bound_to 10713
  140.5287  134.0835  155.7310 LP  0  0  0  0  0  0  0  0  0  0  0  0  # atno 17394 bound_to 11000
  141.1392  133.9167  157.2364 LP  0  0  0  0  0  0  0  0  0  0  0  0  # atno 17395 bound_to 11000

$$$$
