AV-unprocessed.smi:2002|AV-procd|sdf|8113|dock2
  -GOLD-   2272010343D 1   1.00000     0.00000
 Structure written by MMmdl.
 39 40  0  0  0  0  0  0  0  0  2 V2000
  145.8862  129.0947  151.7695 C   0  0  0  0  0  0  0  0  0  0  0  0
  146.8482  129.4955  152.8958 C   0  0  0  0  0  0  0  0  0  0  0  0
  147.6423  130.6962  152.5463 N   0  3  1  0  0  0  0  0  0  0  0  0
  146.8504  131.9143  152.2492 C   0  0  0  0  0  0  0  0  0  0  0  0
  147.5250  133.0746  152.9925 C   0  0  0  0  0  0  0  0  0  0  0  0
  148.9203  132.5543  153.3344 C   0  0  1  0  0  0  0  0  0  0  0  0
  149.5811  133.2887  154.5172 C   0  0  0  0  0  0  0  0  0  0  0  0
  150.1570  134.5700  154.1201 N   0  0  0  0  0  0  0  0  0  0  0  0
  150.5544  135.5373  154.9598 C   0  0  0  0  0  0  0  0  0  0  0  0
  150.4923  135.4396  156.1859 O   0  0  0  0  0  0  0  0  0  0  0  0
  151.0260  136.6027  154.2906 N   0  0  0  0  0  0  0  0  0  0  0  0
  151.5525  137.8012  154.8362 C   0  0  0  0  0  0  0  0  0  0  0  0
  150.7043  138.7497  155.4670 C   0  0  0  0  0  0  0  0  0  0  0  0
  151.5722  139.7353  155.8447 C   0  0  0  0  0  0  0  0  0  0  0  0
  151.3868  141.0324  156.5550 C   0  0  0  0  0  0  0  0  0  0  0  0
  152.8423  139.4153  155.4753 O   0  0  0  0  0  0  0  0  0  0  0  0
  152.8230  138.1746  154.8275 N   0  0  0  0  0  0  0  0  0  0  0  0
  148.6547  131.0637  153.5564 C   0  0  0  0  0  0  0  0  0  0  0  0
  145.3421  128.1875  152.0328 H   0  0  0  0  0  0  0  0  0  0  0  0
  146.4253  128.8994  150.8418 H   0  0  0  0  0  0  0  0  0  0  0  0
  145.1490  129.8734  151.5722 H   0  0  0  0  0  0  0  0  0  0  0  0
  146.3017  129.6661  153.8246 H   0  0  0  0  0  0  0  0  0  0  0  0
  147.5320  128.6663  153.0826 H   0  0  0  0  0  0  0  0  0  0  0  0
  146.8613  132.0813  151.1718 H   0  0  0  0  0  0  0  0  0  0  0  0
  145.8085  131.8182  152.5582 H   0  0  0  0  0  0  0  0  0  0  0  0
  147.5514  133.9913  152.4026 H   0  0  0  0  0  0  0  0  0  0  0  0
  146.9721  133.2875  153.9087 H   0  0  0  0  0  0  0  0  0  0  0  0
  149.5494  132.6648  152.4493 H   0  0  0  0  0  0  0  0  0  0  0  0
  148.8312  133.4906  155.2823 H   0  0  0  0  0  0  0  0  0  0  0  0
  150.3353  132.6580  154.9915 H   0  0  0  0  0  0  0  0  0  0  0  0
  150.2442  134.7387  153.1283 H   0  0  0  0  0  0  0  0  0  0  0  0
  151.0106  136.5508  153.2827 H   0  0  0  0  0  0  0  0  0  0  0  0
  149.6357  138.7159  155.6198 H   0  0  0  0  0  0  0  0  0  0  0  0
  150.3776  141.4165  156.4058 H   0  0  0  0  0  0  0  0  0  0  0  0
  152.0894  141.7813  156.1886 H   0  0  0  0  0  0  0  0  0  0  0  0
  151.5484  140.9113  157.6261 H   0  0  0  0  0  0  0  0  0  0  0  0
  148.2482  130.9025  154.5566 H   0  0  0  0  0  0  0  0  0  0  0  0
  149.5541  130.4553  153.4552 H   0  0  0  0  0  0  0  0  0  0  0  0
  148.1576  130.4797  151.7050 H   0  0  0  0  0  0  0  0  0  0  0  0
  1  2  1  0  0  0  0
  1 19  1  0  0  0  0
  1 20  1  0  0  0  0
  1 21  1  0  0  0  0
  2  3  1  0  0  0  0
  2 22  1  0  0  0  0
  2 23  1  0  0  0  0
  3 18  1  0  0  0  0
  3  4  1  0  0  0  0
  3 39  1  0  0  0  0
  4  5  1  0  0  0  0
  4 24  1  0  0  0  0
  4 25  1  0  0  0  0
  5  6  1  0  0  0  0
  5 26  1  0  0  0  0
  5 27  1  0  0  0  0
  6  7  1  0  0  0  0
  6 18  1  0  0  0  0
  6 28  1  0  0  0  0
  7  8  1  0  0  0  0
  7 29  1  0  0  0  0
  7 30  1  0  0  0  0
  8  9  1  0  0  0  0
  8 31  1  0  0  0  0
  9 10  2  0  0  0  0
  9 11  1  0  0  0  0
 11 12  1  0  0  0  0
 11 32  1  0  0  0  0
 12 17  2  0  0  0  0
 12 13  1  0  0  0  0
 13 14  2  0  0  0  0
 13 33  1  0  0  0  0
 14 15  1  0  0  0  0
 14 16  1  0  0  0  0
 15 34  1  0  0  0  0
 15 35  1  0  0  0  0
 15 36  1  0  0  0  0
 16 17  1  0  0  0  0
 18 37  1  0  0  0  0
 18 38  1  0  0  0  0
M  CHG  1   3   1
M  END
> <s_m_source_file>
AV-unprocessed.smi

> <i_m_source_file_index>
2002

> <i_lp_mmshare_version>
43012

> <i_f3d_flags>
0

> <s_epik_input>
W0NIM11bQ0gyXU4xW0NIMl1bQ0gyXVtDQEhdKFtDSDJdMSlbQ0gyXVtOSF1DKD1PKVtOSF1jMltjSF1jKFtDSDNdKW9uMg==

> <s_epik_cmdline>
J2VwaWtfcHl0aG9uJywgJy1waCcsICc3LjAnLCAnLXRuJywgJzgnLCAnLW1hJywgJzIwMCcsICctbWV0YWxfYmluZGluZycsICctaW1hZScsICc8aW5maWxlLm1hZT4nLCAnLW9tYWUnLCAnPG91dGZpbGUubWFlPic=

> <r_epik_Ionization_Penalty>
0.000632871

> <r_epik_Ionization_Penalty_Charging>
0.000610951

> <r_epik_Ionization_Penalty_Neutral>
2.19198e-05

> <r_epik_State_Penalty>
0.000385263

> <r_epik_Charging_Adjusted_Penalty>
0.000996214

> <i_epik_Tot_Q>
1

> <i_epik_Tot_abs_Q>
1

> <r_epik_Metal_State_Penalty>
-0

> <b_epik_Metal_Only>
0

> <s_lp_Force_Field>
OPLS_2005

> <r_lp_Energy>
24.2793

> <b_lp_Chiralities_Consistent>
1

> <s_lp_Variant>
AV-unprocessed.smi:2002-1

> <Gold.Version>
5.8.1

> <Gold.Id.Protein>
6NUR|6NUR_protein|mol2

> <Gold.PLP.Fitness>
41.9952

> <Gold.PLP.PLP>
-34.8149

> <Gold.PLP.part.hbond>
-5.9988

> <Gold.PLP.part.metal>
0.0000

> <Gold.PLP.part.buried>
-2.9524

> <Gold.PLP.part.nonpolar>
-25.8379

> <Gold.PLP.part.repulsive>
0.2224

> <Gold.PLP.ligand.clash>
0.0000

> <Gold.PLP.ligand.torsion>
0.9230

> <Gold.PLP.Chemscore.Hbond>
3.0000

> <Gold.PLP.Chemscore.CHOScore>
0.0000

> <Gold.PLP.Chemscore.Metal>
0.0000

> <Gold.Chemscore.Hbonds>
donor molecule, donor type, donor heavy atom, donor atom, acceptor molecule, acceptor atom, score
      L1  H     3    39       P1 10747  1.00
      L1  H    11    32       P1  7949  1.00
      P1  H  7997  8008       L1    16  1.00

> <Gold.PLP.Chemscore.Internal.Correction>
0.0262

> <Gold.Rescore>
     Score         DG    S(hbond)    S(metal)    S(lipo)     H(rot)  DE(clash)    DE(int)     intcor
     16.13     -17.46       2.37        0.00      68.03       1.52       0.28       1.05       ----

> <Gold.Chemscore.Fitness>
16.1338

> <Gold.Chemscore.DG>
-17.4567

> <Gold.Chemscore.ZeroCoef>
-5.4800

> <Gold.Chemscore.Hbond>
2.3695

> <Gold.Chemscore.Metal>
0.0000

> <Gold.Chemscore.Lipo>
68.0316

> <Gold.Chemscore.Internal_Hbond>
0.0000

> <Gold.Chemscore.DEClash>
0.2776

> <Gold.Chemscore.DEInternal>
1.0453

> <Gold.Chemscore.Rot>
1.5223

> <Gold.Chemscore.Internal.Correction>
   9.000000E+99

> <Gold.Chemscore.Hbonds>
donor molecule, donor type, donor heavy atom, donor atom, acceptor molecule, acceptor atom, score
      L1  H     3    39       P1 10747  0.98
      L1  H    11    32       P1  7949  0.26
      P1  H  7997  8008       L1    16  0.97

> <Gold.Chemscore.Hbond.Weighted>
-7.9141

> <Gold.Chemscore.Metal.Weighted>
-0.0000

> <Gold.Chemscore.Lipo.Weighted>
-7.9597

> <Gold.Chemscore.Internal_Hbond.Weighted>
0.0000

> <Gold.Chemscore.DEClash.Weighted>
0.2776

> <Gold.Chemscore.DEInternal.Weighted>
1.0453

> <Gold.Chemscore.Rot.Weighted>
3.8971

> <Gold.Chemscore.Internal.Correction.Weighted>
   9.000000E+99

> <Gold.Protein.RotatedTorsions>
[ 6907 6896 6895 6894 ] final  133.82 input  -60.11 | X-H torsion
[ 7974 7965 7964 7962 ] final -151.19 input  175.53 | X-H torsion
[ 8008 7997 7996 7995 ] final  -14.65 input   59.86 | X-H torsion
[ 10167 10162 10161 10158 ] final -128.82 input  -65.29 | X-H torsion
[ 10718 10713 10712 10709 ] final  115.70 input   66.30 | X-H torsion
[ 10763 10752 10751 10750 ] final  167.74 input  -60.55 | X-H torsion
[ 11005 11000 10999 10996 ] final  101.18 input  -57.11 | X-H torsion

> <Gold.Protein.ActiveResidues>
 VAL166  LYS551  ARG553  GLY616  TRP617  ASP618  TYR619  PRO620  LYS621  CYS622 
 ASP623  PHE694  ASN695  SER759  ASP760  ASP761  ALA762  ILE779  LEU786  VAL792 
 PHE793  MET794  SER795  GLU796  ALA797  LYS798  CYS799  TRP800  GLU811  SER814 

> <Gold.Protein.RotatedAtoms>
  152.3179  133.5822  159.5724 H   0  0  0  0  0  0  0  0  0  0  0  0  # atno 6907 bound_to 6896
  150.7356  134.0056  159.3661 H   0  0  0  0  0  0  0  0  0  0  0  0  # atno 6908 bound_to 6896
  151.7943  135.0727  160.0442 H   0  0  0  0  0  0  0  0  0  0  0  0  # atno 6909 bound_to 6896
  144.7864  140.4830  143.5803 H   0  0  0  0  0  0  0  0  0  0  0  0  # atno 7974 bound_to 7965
  154.5193  140.2217  155.9007 H   0  0  0  0  0  0  0  0  0  0  0  0  # atno 8008 bound_to 7997
  156.1643  140.3135  155.8827 H   0  0  0  0  0  0  0  0  0  0  0  0  # atno 8009 bound_to 7997
  155.3688  140.0465  157.3036 H   0  0  0  0  0  0  0  0  0  0  0  0  # atno 8010 bound_to 7997
  139.9462  143.6107  152.2489 H   0  0  0  0  0  0  0  0  0  0  0  0  # atno 10167 bound_to 10162
  157.6206  131.1016  150.7367 H   0  0  0  0  0  0  0  0  0  0  0  0  # atno 10718 bound_to 10713
  154.3583  135.2753  155.2334 H   0  0  0  0  0  0  0  0  0  0  0  0  # atno 10763 bound_to 10752
  154.4533  135.5925  153.6210 H   0  0  0  0  0  0  0  0  0  0  0  0  # atno 10764 bound_to 10752
  152.9845  135.6047  154.3801 H   0  0  0  0  0  0  0  0  0  0  0  0  # atno 10765 bound_to 10752
  139.8772  134.9172  156.4867 H   0  0  0  0  0  0  0  0  0  0  0  0  # atno 11005 bound_to 11000
  145.5911  139.1496  143.3181 LP  0  0  0  0  0  0  0  0  0  0  0  0  # atno 17320 bound_to 7965
  146.2097  140.6037  142.9065 LP  0  0  0  0  0  0  0  0  0  0  0  0  # atno 17321 bound_to 7965
  139.6665  144.7662  151.1864 LP  0  0  0  0  0  0  0  0  0  0  0  0  # atno 17342 bound_to 10162
  140.7596  143.5930  150.8776 LP  0  0  0  0  0  0  0  0  0  0  0  0  # atno 17343 bound_to 10162
  156.7725  130.4833  149.5416 LP  0  0  0  0  0  0  0  0  0  0  0  0  # atno 17370 bound_to 10713
  156.1350  130.6204  151.0387 LP  0  0  0  0  0  0  0  0  0  0  0  0  # atno 17371 bound_to 10713
  140.8688  133.8004  155.9342 LP  0  0  0  0  0  0  0  0  0  0  0  0  # atno 17394 bound_to 11000
  140.8974  134.2420  157.5061 LP  0  0  0  0  0  0  0  0  0  0  0  0  # atno 17395 bound_to 11000

$$$$
