AV-unprocessed.smi:2046|AV-procd|sdf|8312|dock2
  -GOLD-   2272010583D 1   1.00000     0.00000
 Structure written by MMmdl.
 30 31  0  0  0  0  0  0  0  0  1 V2000
  146.5284  137.1076  153.3585 O   0  0  0  0  0  0  0  0  0  0  0  0
  145.6734  137.9477  153.0768 C   0  0  0  0  0  0  0  0  0  0  0  0
  145.7857  139.2720  153.2812 N   0  0  0  0  0  0  0  0  0  0  0  0
  146.8738  139.9864  153.8487 C   0  0  0  0  0  0  0  0  0  0  0  0
  147.9302  139.3961  154.4297 N   0  0  0  0  0  0  0  0  0  0  0  0
  148.8498  140.3241  154.9011 N   0  0  0  0  0  0  0  0  0  0  0  0
  148.4513  141.5758  154.6577 C   0  0  0  0  0  0  0  0  0  0  0  0
  146.9130  141.7438  153.8294 S   0  0  0  0  0  0  0  0  0  0  0  0
  144.4931  137.6433  152.5177 N   0  0  0  0  0  0  0  0  0  0  0  0
  144.0511  136.3026  152.1300 C   0  0  1  0  0  0  0  0  0  0  0  0
  145.0394  135.6881  151.1131 C   0  0  0  0  0  0  0  0  0  0  0  0
  144.4312  134.5749  150.2448 C   0  0  0  0  0  0  0  0  0  0  0  0
  143.9642  133.3334  151.0194 C   0  0  0  0  0  0  0  0  0  0  0  0
  142.7923  133.6083  151.9776 C   0  0  0  0  0  0  0  0  0  0  0  0
  143.2223  134.2293  153.2243 N   0  0  0  0  0  0  0  0  0  0  0  0
  143.8015  135.4301  153.3746 C   0  0  0  0  0  0  0  0  0  0  0  0
  144.1361  135.8269  154.4908 O   0  0  0  0  0  0  0  0  0  0  0  0
  145.0006  139.8372  152.9940 H   0  0  0  0  0  0  0  0  0  0  0  0
  149.0679  142.4061  154.9687 H   0  0  0  0  0  0  0  0  0  0  0  0
  143.8535  138.3981  152.3169 H   0  0  0  0  0  0  0  0  0  0  0  0
  143.0818  136.4197  151.6411 H   0  0  0  0  0  0  0  0  0  0  0  0
  145.3966  136.4651  150.4364 H   0  0  0  0  0  0  0  0  0  0  0  0
  145.9266  135.3180  151.6289 H   0  0  0  0  0  0  0  0  0  0  0  0
  143.5983  134.9789  149.6682 H   0  0  0  0  0  0  0  0  0  0  0  0
  145.1754  134.2646  149.5106 H   0  0  0  0  0  0  0  0  0  0  0  0
  143.6439  132.5858  150.2929 H   0  0  0  0  0  0  0  0  0  0  0  0
  144.7994  132.8851  151.5592 H   0  0  0  0  0  0  0  0  0  0  0  0
  142.0219  134.2126  151.4966 H   0  0  0  0  0  0  0  0  0  0  0  0
  142.3177  132.6630  152.2413 H   0  0  0  0  0  0  0  0  0  0  0  0
  143.0746  133.6866  154.0631 H   0  0  0  0  0  0  0  0  0  0  0  0
  1  2  2  0  0  0  0
  2  3  1  0  0  0  0
  2  9  1  0  0  0  0
  3  4  1  0  0  0  0
  3 18  1  0  0  0  0
  4  8  1  0  0  0  0
  4  5  2  0  0  0  0
  5  6  1  0  0  0  0
  6  7  2  0  0  0  0
  7  8  1  0  0  0  0
  7 19  1  0  0  0  0
  9 10  1  0  0  0  0
  9 20  1  0  0  0  0
 10 16  1  0  0  0  0
 10 11  1  0  0  0  0
 10 21  1  0  0  0  0
 11 12  1  0  0  0  0
 11 22  1  0  0  0  0
 11 23  1  0  0  0  0
 12 13  1  0  0  0  0
 12 24  1  0  0  0  0
 12 25  1  0  0  0  0
 13 14  1  0  0  0  0
 13 26  1  0  0  0  0
 13 27  1  0  0  0  0
 14 15  1  0  0  0  0
 14 28  1  0  0  0  0
 14 29  1  0  0  0  0
 15 16  1  0  0  0  0
 15 30  1  0  0  0  0
 16 17  2  0  0  0  0
M  END
> <s_m_source_file>
AV-unprocessed.smi

> <i_m_source_file_index>
2046

> <i_lp_mmshare_version>
43012

> <i_f3d_flags>
0

> <s_epik_input>
czFbY0hdbm5jMVtOSF1DKD1PKVtOSF1bQ0BASF0yW0NIMl1bQ0gyXVtDSDJdW0NIMl1bTkhdQzI9Tw==

> <s_epik_cmdline>
J2VwaWtfcHl0aG9uJywgJy1waCcsICc3LjAnLCAnLXRuJywgJzgnLCAnLW1hJywgJzIwMCcsICctbWV0YWxfYmluZGluZycsICctaW1hZScsICc8aW5maWxlLm1hZT4nLCAnLW9tYWUnLCAnPG91dGZpbGUubWFlPic=

> <r_lp_tautomer_probability>
1

> <r_epik_Ionization_Penalty>
0.000691558

> <r_epik_Ionization_Penalty_Charging>
0

> <r_epik_Ionization_Penalty_Neutral>
0.000691558

> <r_epik_State_Penalty>
-0

> <r_epik_Charging_Adjusted_Penalty>
0

> <i_epik_Tot_Q>
0

> <i_epik_Tot_abs_Q>
0

> <r_epik_Metal_State_Penalty>
0.252698

> <b_epik_Metal_Only>
0

> <s_lp_Force_Field>
OPLS_2005

> <r_lp_Energy>
9.05746

> <b_lp_Chiralities_Consistent>
1

> <s_lp_Variant>
AV-unprocessed.smi:2046-2

> <Gold.Version>
5.8.1

> <Gold.Id.Protein>
6NUR|6NUR_protein|mol2

> <Gold.PLP.Fitness>
36.1896

> <Gold.PLP.PLP>
-25.5169

> <Gold.PLP.part.hbond>
-4.0000

> <Gold.PLP.part.metal>
0.0000

> <Gold.PLP.part.buried>
-2.9593

> <Gold.PLP.part.nonpolar>
-20.5063

> <Gold.PLP.part.repulsive>
1.5602

> <Gold.PLP.ligand.clash>
0.0000

> <Gold.PLP.ligand.torsion>
0.0569

> <Gold.PLP.Chemscore.Hbond>
2.5863

> <Gold.PLP.Chemscore.CHOScore>
1.0000

> <Gold.PLP.Chemscore.Metal>
0.0000

> <Gold.Chemscore.Hbonds>
donor molecule, donor type, donor heavy atom, donor atom, acceptor molecule, acceptor atom, score
      L1  H     3    18       P1 10175  1.00
      L1  H     9    20       P1 10175  0.83
      L1  H    15    30       P1 10957  0.74
      L1  C     7    19       P1  8028  1.00

> <Gold.PLP.Chemscore.Internal.Correction>
0.0277

> <Gold.Rescore>
     Score         DG    S(hbond)    S(metal)    S(lipo)     H(rot)  DE(clash)    DE(int)     intcor
     12.22     -16.70       2.62        0.00      43.06       1.00       0.08       4.40       ----

> <Gold.Chemscore.Fitness>
12.2191

> <Gold.Chemscore.DG>
-16.6963

> <Gold.Chemscore.ZeroCoef>
-5.4800

> <Gold.Chemscore.Hbond>
2.6164

> <Gold.Chemscore.Metal>
0.0000

> <Gold.Chemscore.Lipo>
43.0553

> <Gold.Chemscore.Internal_Hbond>
0.0000

> <Gold.Chemscore.DEClash>
0.0756

> <Gold.Chemscore.DEInternal>
4.4016

> <Gold.Chemscore.Rot>
1.0000

> <Gold.Chemscore.Internal.Correction>
   9.000000E+99

> <Gold.Chemscore.Hbonds>
donor molecule, donor type, donor heavy atom, donor atom, acceptor molecule, acceptor atom, score
      L1  H     3    18       P1 10175  0.95
      L1  H     9    20       P1 10175  0.76
      L1  H    15    30       P1 10957  0.71

> <Gold.Chemscore.Hbond.Weighted>
-8.7388

> <Gold.Chemscore.Metal.Weighted>
-0.0000

> <Gold.Chemscore.Lipo.Weighted>
-5.0375

> <Gold.Chemscore.Internal_Hbond.Weighted>
0.0000

> <Gold.Chemscore.DEClash.Weighted>
0.0756

> <Gold.Chemscore.DEInternal.Weighted>
4.4016

> <Gold.Chemscore.Rot.Weighted>
2.5600

> <Gold.Chemscore.Internal.Correction.Weighted>
   9.000000E+99

> <Gold.Protein.RotatedTorsions>
[ 6907 6896 6895 6894 ] final  166.65 input  -60.11 | X-H torsion
[ 7974 7965 7964 7962 ] final   75.54 input  175.53 | X-H torsion
[ 8008 7997 7996 7995 ] final   -7.63 input   59.86 | X-H torsion
[ 10167 10162 10161 10158 ] final  -29.22 input  -65.29 | X-H torsion
[ 10718 10713 10712 10709 ] final  104.51 input   66.30 | X-H torsion
[ 10763 10752 10751 10750 ] final  168.82 input  -60.55 | X-H torsion
[ 11005 11000 10999 10996 ] final  -94.52 input  -57.11 | X-H torsion

> <Gold.Protein.ActiveResidues>
 VAL166  LYS551  ARG553  GLY616  TRP617  ASP618  TYR619  PRO620  LYS621  CYS622 
 ASP623  PHE694  ASN695  SER759  ASP760  ASP761  ALA762  ILE779  LEU786  VAL792 
 PHE793  MET794  SER795  GLU796  ALA797  LYS798  CYS799  TRP800  GLU811  SER814 

> <Gold.Protein.RotatedAtoms>
  151.8756  133.3484  159.3748 H   0  0  0  0  0  0  0  0  0  0  0  0  # atno 6907 bound_to 6896
  150.7141  134.5070  159.5598 H   0  0  0  0  0  0  0  0  0  0  0  0  # atno 6908 bound_to 6896
  152.2611  134.8033  160.0481 H   0  0  0  0  0  0  0  0  0  0  0  0  # atno 6909 bound_to 6896
  145.7143  139.2625  143.1632 H   0  0  0  0  0  0  0  0  0  0  0  0  # atno 7974 bound_to 7965
  154.5820  140.2402  155.8040 H   0  0  0  0  0  0  0  0  0  0  0  0  # atno 8008 bound_to 7997
  156.2186  140.3004  155.9854 H   0  0  0  0  0  0  0  0  0  0  0  0  # atno 8009 bound_to 7997
  155.2524  140.0411  157.2979 H   0  0  0  0  0  0  0  0  0  0  0  0  # atno 8010 bound_to 7997
  140.7262  143.3946  151.1370 H   0  0  0  0  0  0  0  0  0  0  0  0  # atno 10167 bound_to 10162
  157.6737  131.0805  150.5717 H   0  0  0  0  0  0  0  0  0  0  0  0  # atno 10718 bound_to 10713
  154.3742  135.2753  155.2249 H   0  0  0  0  0  0  0  0  0  0  0  0  # atno 10763 bound_to 10752
  154.4383  135.5960  153.6116 H   0  0  0  0  0  0  0  0  0  0  0  0  # atno 10764 bound_to 10752
  152.9837  135.6012  154.3977 H   0  0  0  0  0  0  0  0  0  0  0  0  # atno 10765 bound_to 10752
  141.1468  133.7962  157.0309 H   0  0  0  0  0  0  0  0  0  0  0  0  # atno 11005 bound_to 11000
  146.0684  140.7896  142.9700 LP  0  0  0  0  0  0  0  0  0  0  0  0  # atno 17320 bound_to 7965
  144.6933  140.3304  143.7217 LP  0  0  0  0  0  0  0  0  0  0  0  0  # atno 17321 bound_to 7965
  139.7557  143.8712  152.3088 LP  0  0  0  0  0  0  0  0  0  0  0  0  # atno 17342 bound_to 10162
  139.8580  144.7131  150.9133 LP  0  0  0  0  0  0  0  0  0  0  0  0  # atno 17343 bound_to 10162
  156.6019  130.4356  149.5894 LP  0  0  0  0  0  0  0  0  0  0  0  0  # atno 17370 bound_to 10713
  156.2500  130.6901  151.1635 LP  0  0  0  0  0  0  0  0  0  0  0  0  # atno 17371 bound_to 10713
  140.0754  134.9678  157.1537 LP  0  0  0  0  0  0  0  0  0  0  0  0  # atno 17394 bound_to 11000
  140.3651  134.2451  155.7183 LP  0  0  0  0  0  0  0  0  0  0  0  0  # atno 17395 bound_to 11000

$$$$
