AV-unprocessed.smi:2204|AV-procd|sdf|8938|dock2
  -GOLD-   2272012153D 1   1.00000     0.00000
 Structure written by MMmdl.
 39 40  0  0  0  0  0  0  0  0  1 V2000
  151.3929  144.9461  158.5662 C   0  0  0  0  0  0  0  0  0  0  0  0
  151.9064  143.6691  159.1629 C   0  0  0  0  0  0  0  0  0  0  0  0
  152.6878  143.4973  160.3392 C   0  0  0  0  0  0  0  0  0  0  0  0
  152.8771  142.1467  160.4248 C   0  0  0  0  0  0  0  0  0  0  0  0
  153.6172  141.3427  161.4429 C   0  0  0  0  0  0  0  0  0  0  0  0
  152.2309  141.5811  159.3391 N   0  0  0  0  0  0  0  0  0  0  0  0
  152.1298  140.1799  158.9533 C   0  0  0  0  0  0  0  0  0  0  0  0
  152.0219  139.9990  157.4354 C   0  0  0  0  0  0  0  0  0  0  0  0
  152.9157  139.4118  156.8263 O   0  0  0  0  0  0  0  0  0  0  0  0
  150.9399  140.5237  156.8360 N   0  0  0  0  0  0  0  0  0  0  0  0
  150.6458  140.4811  155.4067 C   0  0  1  0  0  0  0  0  0  0  0  0
  150.3141  139.0305  155.0233 C   0  0  0  0  0  0  0  0  0  0  0  0
  149.4950  141.4562  155.0807 C   0  0  2  0  0  0  0  0  0  0  0  0
  148.2063  141.2033  155.8678 C   0  0  0  0  0  0  0  0  0  0  0  0
  147.1548  141.7610  154.9367 C   0  0  0  0  0  0  0  0  0  0  0  0
  147.6945  141.3247  153.5805 C   0  0  0  0  0  0  0  0  0  0  0  0
  149.1128  141.3462  153.7088 O   0  0  0  0  0  0  0  0  0  0  0  0
  151.6362  142.5186  158.5692 N   0  0  0  0  0  0  0  0  0  0  0  0
  151.5617  145.7898  159.2355 H   0  0  0  0  0  0  0  0  0  0  0  0
  150.3219  144.8876  158.3708 H   0  0  0  0  0  0  0  0  0  0  0  0
  151.8933  145.1659  157.6230 H   0  0  0  0  0  0  0  0  0  0  0  0
  153.0543  144.2525  161.0186 H   0  0  0  0  0  0  0  0  0  0  0  0
  154.0860  141.9897  162.1844 H   0  0  0  0  0  0  0  0  0  0  0  0
  154.4015  140.7472  160.9759 H   0  0  0  0  0  0  0  0  0  0  0  0
  152.9433  140.6659  161.9683 H   0  0  0  0  0  0  0  0  0  0  0  0
  153.0008  139.6373  159.3210 H   0  0  0  0  0  0  0  0  0  0  0  0
  151.2577  139.7420  159.4420 H   0  0  0  0  0  0  0  0  0  0  0  0
  150.2622  140.9895  157.4214 H   0  0  0  0  0  0  0  0  0  0  0  0
  151.5290  140.7791  154.8388 H   0  0  0  0  0  0  0  0  0  0  0  0
  150.1416  138.9303  153.9518 H   0  0  0  0  0  0  0  0  0  0  0  0
  149.4209  138.6769  155.5394 H   0  0  0  0  0  0  0  0  0  0  0  0
  151.1349  138.3608  155.2827 H   0  0  0  0  0  0  0  0  0  0  0  0
  149.8157  142.4861  155.2472 H   0  0  0  0  0  0  0  0  0  0  0  0
  148.0446  140.1335  156.0092 H   0  0  0  0  0  0  0  0  0  0  0  0
  148.2047  141.6820  156.8476 H   0  0  0  0  0  0  0  0  0  0  0  0
  146.1532  141.3815  155.1403 H   0  0  0  0  0  0  0  0  0  0  0  0
  147.1317  142.8495  155.0030 H   0  0  0  0  0  0  0  0  0  0  0  0
  147.3833  140.3032  153.3587 H   0  0  0  0  0  0  0  0  0  0  0  0
  147.3552  141.9669  152.7676 H   0  0  0  0  0  0  0  0  0  0  0  0
  1  2  1  0  0  0  0
  1 19  1  0  0  0  0
  1 20  1  0  0  0  0
  1 21  1  0  0  0  0
  2 18  2  0  0  0  0
  2  3  1  0  0  0  0
  3  4  2  0  0  0  0
  3 22  1  0  0  0  0
  4  5  1  0  0  0  0
  4  6  1  0  0  0  0
  5 23  1  0  0  0  0
  5 24  1  0  0  0  0
  5 25  1  0  0  0  0
  6  7  1  0  0  0  0
  6 18  1  0  0  0  0
  7  8  1  0  0  0  0
  7 26  1  0  0  0  0
  7 27  1  0  0  0  0
  8  9  2  0  0  0  0
  8 10  1  0  0  0  0
 10 11  1  0  0  0  0
 10 28  1  0  0  0  0
 11 12  1  0  0  0  0
 11 13  1  0  0  0  0
 11 29  1  0  0  0  0
 12 30  1  0  0  0  0
 12 31  1  0  0  0  0
 12 32  1  0  0  0  0
 13 17  1  0  0  0  0
 13 14  1  0  0  0  0
 13 33  1  0  0  0  0
 14 15  1  0  0  0  0
 14 34  1  0  0  0  0
 14 35  1  0  0  0  0
 15 16  1  0  0  0  0
 15 36  1  0  0  0  0
 15 37  1  0  0  0  0
 16 17  1  0  0  0  0
 16 38  1  0  0  0  0
 16 39  1  0  0  0  0
M  END
> <s_m_source_file>
AV-unprocessed.smi

> <i_m_source_file_index>
2204

> <i_lp_mmshare_version>
43012

> <i_f3d_flags>
0

> <s_epik_input>
W0NIM11jMVtjSF1jKFtDSDNdKW4objEpW0NIMl1DKD1PKVtOSF1bQ0BIXShbQ0gzXSlbQ0BASF0yW0NIMl1bQ0gyXVtDSDJdTzI=

> <s_epik_cmdline>
J2VwaWtfcHl0aG9uJywgJy1waCcsICc3LjAnLCAnLXRuJywgJzgnLCAnLW1hJywgJzIwMCcsICctbWV0YWxfYmluZGluZycsICctaW1hZScsICc8aW5maWxlLm1hZT4nLCAnLW9tYWUnLCAnPG91dGZpbGUubWFlPic=

> <r_lp_tautomer_probability>
1

> <r_epik_Ionization_Penalty>
0.000433354

> <r_epik_Ionization_Penalty_Charging>
0

> <r_epik_Ionization_Penalty_Neutral>
0.000433354

> <r_epik_State_Penalty>
-0

> <r_epik_Charging_Adjusted_Penalty>
0

> <i_epik_Tot_Q>
0

> <i_epik_Tot_abs_Q>
0

> <r_epik_Metal_State_Penalty>
-0

> <b_epik_Metal_Only>
0

> <s_lp_Force_Field>
OPLS_2005

> <r_lp_Energy>
17.6032

> <b_lp_Chiralities_Consistent>
1

> <s_lp_Variant>
AV-unprocessed.smi:2204-2

> <Gold.Version>
5.8.1

> <Gold.Id.Protein>
6NUR|6NUR_protein|mol2

> <Gold.PLP.Fitness>
45.9738

> <Gold.PLP.PLP>
-41.6360

> <Gold.PLP.part.hbond>
-2.9425

> <Gold.PLP.part.metal>
0.0000

> <Gold.PLP.part.buried>
-5.5994

> <Gold.PLP.part.nonpolar>
-35.0639

> <Gold.PLP.part.repulsive>
0.9773

> <Gold.PLP.ligand.clash>
0.0000

> <Gold.PLP.ligand.torsion>
0.5236

> <Gold.PLP.Chemscore.Hbond>
1.7840

> <Gold.PLP.Chemscore.CHOScore>
0.0000

> <Gold.PLP.Chemscore.Metal>
0.0000

> <Gold.Chemscore.Hbonds>
donor molecule, donor type, donor heavy atom, donor atom, acceptor molecule, acceptor atom, score
      P1  H  7997  8010       L1     9  1.00
      P1  H  8011  8017       L1    17  0.85

> <Gold.PLP.Chemscore.Internal.Correction>
0.0330

> <Gold.Rescore>
     Score         DG    S(hbond)    S(metal)    S(lipo)     H(rot)  DE(clash)    DE(int)     intcor
     16.56     -18.66       1.55        0.00     101.09       1.50       0.08       2.02       ----

> <Gold.Chemscore.Fitness>
16.5583

> <Gold.Chemscore.DG>
-18.6586

> <Gold.Chemscore.ZeroCoef>
-5.4800

> <Gold.Chemscore.Hbond>
1.5546

> <Gold.Chemscore.Metal>
0.0000

> <Gold.Chemscore.Lipo>
101.0884

> <Gold.Chemscore.Internal_Hbond>
0.0000

> <Gold.Chemscore.DEClash>
0.0802

> <Gold.Chemscore.DEInternal>
2.0202

> <Gold.Chemscore.Rot>
1.5005

> <Gold.Chemscore.Internal.Correction>
   9.000000E+99

> <Gold.Chemscore.Hbonds>
donor molecule, donor type, donor heavy atom, donor atom, acceptor molecule, acceptor atom, score
      P1  H  7997  8010       L1     9  0.99
      P1  H  8011  8017       L1    17  0.54

> <Gold.Chemscore.Hbond.Weighted>
-5.1925

> <Gold.Chemscore.Metal.Weighted>
-0.0000

> <Gold.Chemscore.Lipo.Weighted>
-11.8273

> <Gold.Chemscore.Internal_Hbond.Weighted>
0.0000

> <Gold.Chemscore.DEClash.Weighted>
0.0802

> <Gold.Chemscore.DEInternal.Weighted>
2.0202

> <Gold.Chemscore.Rot.Weighted>
3.8412

> <Gold.Chemscore.Internal.Correction.Weighted>
   9.000000E+99

> <Gold.Protein.RotatedTorsions>
[ 6907 6896 6895 6894 ] final   82.70 input  -60.11 | X-H torsion
[ 7974 7965 7964 7962 ] final   60.57 input  175.53 | X-H torsion
[ 8008 7997 7996 7995 ] final   75.13 input   59.86 | X-H torsion
[ 10167 10162 10161 10158 ] final -149.68 input  -65.29 | X-H torsion
[ 10718 10713 10712 10709 ] final   66.88 input   66.30 | X-H torsion
[ 10763 10752 10751 10750 ] final -112.82 input  -60.55 | X-H torsion
[ 11005 11000 10999 10996 ] final  110.74 input  -57.11 | X-H torsion

> <Gold.Protein.ActiveResidues>
 VAL166  LYS551  ARG553  GLY616  TRP617  ASP618  TYR619  PRO620  LYS621  CYS622 
 ASP623  PHE694  ASN695  SER759  ASP760  ASP761  ALA762  ILE779  LEU786  VAL792 
 PHE793  MET794  SER795  GLU796  ALA797  LYS798  CYS799  TRP800  GLU811  SER814 

> <Gold.Protein.RotatedAtoms>
  152.5306  134.3010  159.9078 H   0  0  0  0  0  0  0  0  0  0  0  0  # atno 6907 bound_to 6896
  151.2960  133.4137  159.2644 H   0  0  0  0  0  0  0  0  0  0  0  0  # atno 6908 bound_to 6896
  151.0160  134.9449  159.8090 H   0  0  0  0  0  0  0  0  0  0  0  0  # atno 6909 bound_to 6896
  145.8945  139.3535  143.0629 H   0  0  0  0  0  0  0  0  0  0  0  0  # atno 7974 bound_to 7965
  155.8084  140.3474  155.5443 H   0  0  0  0  0  0  0  0  0  0  0  0  # atno 8008 bound_to 7997
  155.8466  140.0950  157.1721 H   0  0  0  0  0  0  0  0  0  0  0  0  # atno 8009 bound_to 7997
  154.4006  140.1384  156.3781 H   0  0  0  0  0  0  0  0  0  0  0  0  # atno 8010 bound_to 7997
  139.7421  143.8646  152.2565 H   0  0  0  0  0  0  0  0  0  0  0  0  # atno 10167 bound_to 10162
  157.6196  130.9291  150.0168 H   0  0  0  0  0  0  0  0  0  0  0  0  # atno 10718 bound_to 10713
  154.8368  135.4477  154.1254 H   0  0  0  0  0  0  0  0  0  0  0  0  # atno 10763 bound_to 10752
  153.2478  135.6923  153.7718 H   0  0  0  0  0  0  0  0  0  0  0  0  # atno 10764 bound_to 10752
  153.7042  135.3367  155.3207 H   0  0  0  0  0  0  0  0  0  0  0  0  # atno 10765 bound_to 10752
  139.8888  134.9491  156.6325 H   0  0  0  0  0  0  0  0  0  0  0  0  # atno 11005 bound_to 11000
  145.8867  140.9329  143.0573 LP  0  0  0  0  0  0  0  0  0  0  0  0  # atno 17320 bound_to 7965
  144.6732  140.0851  143.7467 LP  0  0  0  0  0  0  0  0  0  0  0  0  # atno 17321 bound_to 7965
  139.8600  144.7122  150.9111 LP  0  0  0  0  0  0  0  0  0  0  0  0  # atno 17342 bound_to 10162
  140.7787  143.3826  151.1450 LP  0  0  0  0  0  0  0  0  0  0  0  0  # atno 17343 bound_to 10162
  156.1335  130.3643  149.9694 LP  0  0  0  0  0  0  0  0  0  0  0  0  # atno 17370 bound_to 10713
  156.7750  130.9200  151.3645 LP  0  0  0  0  0  0  0  0  0  0  0  0  # atno 17371 bound_to 10713
  140.7656  133.8781  155.8451 LP  0  0  0  0  0  0  0  0  0  0  0  0  # atno 17394 bound_to 11000
  140.9885  134.1310  157.4429 LP  0  0  0  0  0  0  0  0  0  0  0  0  # atno 17395 bound_to 11000

$$$$
