AV-unprocessed.smi:794|AV-procd|sdf|3758|dock8
  -GOLD-   22720 1193D 1   1.00000     0.00000
 Structure written by MMmdl.
 41 43  0  0  0  0  0  0  0  0  1 V2000
  153.8481  141.2818  160.4088 C   0  0  0  0  0  0  0  0  0  0  0  0
  152.7016  142.1494  159.9882 C   0  0  0  0  0  0  0  0  0  0  0  0
  152.1269  141.9703  158.7263 N   0  0  0  0  0  0  0  0  0  0  0  0
  151.1166  142.8172  158.5050 C   0  0  0  0  0  0  0  0  0  0  0  0
  150.3506  142.8570  157.3104 N   0  0  0  0  0  0  0  0  0  0  0  0
  150.1548  141.8721  156.4163 C   0  0  0  0  0  0  0  0  0  0  0  0
  150.6251  140.7366  156.4925 O   0  0  0  0  0  0  0  0  0  0  0  0
  149.3741  142.2811  155.4067 N   0  0  0  0  0  0  0  0  0  0  0  0
  148.9846  141.4527  154.2674 C   0  0  2  0  0  0  0  0  0  0  0  0
  147.6606  141.9047  153.6009 C   0  0  2  0  0  0  0  0  0  0  0  0
  146.5281  142.0592  154.6392 C   0  0  0  0  0  0  0  0  0  0  0  0
  146.2426  140.6015  155.0449 C   0  0  0  0  0  0  0  0  0  0  0  0
  147.2277  139.8043  154.1677 C   0  0  1  0  0  0  0  0  0  0  0  0
  147.2297  140.6304  152.8863 C   0  0  0  0  0  0  0  0  0  0  0  0
  148.6654  139.9980  154.7038 C   0  0  1  0  0  0  0  0  0  0  0  0
  149.6558  138.9586  154.1444 C   0  0  0  0  0  0  0  0  0  0  0  0
  150.9809  139.4271  154.2804 O   0  0  0  0  0  0  0  0  0  0  0  0
  150.8033  143.9049  159.8465 S   0  0  0  0  0  0  0  0  0  0  0  0
  152.1090  143.1484  160.7257 C   0  0  0  0  0  0  0  0  0  0  0  0
  152.4659  143.5972  162.1037 C   0  0  0  0  0  0  0  0  0  0  0  0
  154.6805  141.8812  160.7777 H   0  0  0  0  0  0  0  0  0  0  0  0
  154.2213  140.6765  159.5820 H   0  0  0  0  0  0  0  0  0  0  0  0
  153.5517  140.6018  161.2074 H   0  0  0  0  0  0  0  0  0  0  0  0
  149.8989  143.7379  157.1141 H   0  0  0  0  0  0  0  0  0  0  0  0
  149.0261  143.2286  155.4218 H   0  0  0  0  0  0  0  0  0  0  0  0
  149.7853  141.4570  153.5246 H   0  0  0  0  0  0  0  0  0  0  0  0
  147.7752  142.7734  152.9518 H   0  0  0  0  0  0  0  0  0  0  0  0
  146.7968  142.6875  155.4885 H   0  0  0  0  0  0  0  0  0  0  0  0
  145.6454  142.5023  154.1762 H   0  0  0  0  0  0  0  0  0  0  0  0
  146.3980  140.4269  156.1101 H   0  0  0  0  0  0  0  0  0  0  0  0
  145.2108  140.3354  154.8113 H   0  0  0  0  0  0  0  0  0  0  0  0
  146.9402  138.7600  154.0406 H   0  0  0  0  0  0  0  0  0  0  0  0
  146.2466  140.7068  152.4183 H   0  0  0  0  0  0  0  0  0  0  0  0
  147.9495  140.2868  152.1421 H   0  0  0  0  0  0  0  0  0  0  0  0
  148.6548  139.9016  155.7913 H   0  0  0  0  0  0  0  0  0  0  0  0
  149.5675  138.0195  154.6914 H   0  0  0  0  0  0  0  0  0  0  0  0
  149.4574  138.7395  153.0952 H   0  0  0  0  0  0  0  0  0  0  0  0
  151.5719  138.7045  154.1334 H   0  0  0  0  0  0  0  0  0  0  0  0
  152.4333  142.7614  162.8028 H   0  0  0  0  0  0  0  0  0  0  0  0
  151.7760  144.3612  162.4623 H   0  0  0  0  0  0  0  0  0  0  0  0
  153.4721  144.0164  162.1248 H   0  0  0  0  0  0  0  0  0  0  0  0
  1  2  1  0  0  0  0
  1 21  1  0  0  0  0
  1 22  1  0  0  0  0
  1 23  1  0  0  0  0
  2 19  2  0  0  0  0
  2  3  1  0  0  0  0
  3  4  2  0  0  0  0
  4  5  1  0  0  0  0
  4 18  1  0  0  0  0
  5  6  1  0  0  0  0
  5 24  1  0  0  0  0
  6  7  2  0  0  0  0
  6  8  1  0  0  0  0
  8  9  1  0  0  0  0
  8 25  1  0  0  0  0
  9 15  1  0  0  0  0
  9 10  1  0  0  0  0
  9 26  1  0  0  0  0
 10 14  1  0  0  0  0
 10 11  1  0  0  0  0
 10 27  1  0  0  0  0
 11 12  1  0  0  0  0
 11 28  1  0  0  0  0
 11 29  1  0  0  0  0
 12 13  1  0  0  0  0
 12 30  1  0  0  0  0
 12 31  1  0  0  0  0
 13 14  1  0  0  0  0
 13 15  1  0  0  0  0
 13 32  1  0  0  0  0
 14 33  1  0  0  0  0
 14 34  1  0  0  0  0
 15 16  1  0  0  0  0
 15 35  1  0  0  0  0
 16 17  1  0  0  0  0
 16 36  1  0  0  0  0
 16 37  1  0  0  0  0
 17 38  1  0  0  0  0
 18 19  1  0  0  0  0
 19 20  1  0  0  0  0
 20 39  1  0  0  0  0
 20 40  1  0  0  0  0
 20 41  1  0  0  0  0
M  END
> <s_m_source_file>
AV-unprocessed.smi

> <i_m_source_file_index>
794

> <i_lp_mmshare_version>
43012

> <i_f3d_flags>
0

> <s_epik_input>
W0NIM11jMW5jKHNjMVtDSDNdKVtOSF1DKD1PKVtOSF1bQ0BIXShbQ0BASF0yMylbQ0BIXShbQ0gyXVtPSF0pW0NAQEhdKFtDSDJdMylbQ0gyXVtDSDJdMg==

> <s_epik_cmdline>
J2VwaWtfcHl0aG9uJywgJy1waCcsICc3LjAnLCAnLXRuJywgJzgnLCAnLW1hJywgJzIwMCcsICctbWV0YWxfYmluZGluZycsICctaW1hZScsICc8aW5maWxlLm1hZT4nLCAnLW9tYWUnLCAnPG91dGZpbGUubWFlPic=

> <r_lp_tautomer_probability>
0.999

> <r_epik_Ionization_Penalty>
0.000713029

> <r_epik_Ionization_Penalty_Charging>
0

> <r_epik_Ionization_Penalty_Neutral>
0.000713029

> <r_epik_State_Penalty>
0.000177984

> <r_epik_Charging_Adjusted_Penalty>
0.000177984

> <i_epik_Tot_Q>
0

> <i_epik_Tot_abs_Q>
0

> <r_epik_Metal_State_Penalty>
-0

> <b_epik_Metal_Only>
0

> <s_lp_Force_Field>
OPLS_2005

> <r_lp_Energy>
47.0696

> <b_lp_Chiralities_Consistent>
1

> <s_lp_Variant>
AV-unprocessed.smi:794-3

> <Gold.Version>
5.8.1

> <Gold.Id.Protein>
6NUR|6NUR_protein|mol2

> <Gold.PLP.Fitness>
49.3683

> <Gold.PLP.PLP>
-41.8966

> <Gold.PLP.part.hbond>
-2.9828

> <Gold.PLP.part.metal>
0.0000

> <Gold.PLP.part.buried>
-5.5518

> <Gold.PLP.part.nonpolar>
-33.2783

> <Gold.PLP.part.repulsive>
0.2117

> <Gold.PLP.ligand.clash>
0.0000

> <Gold.PLP.ligand.torsion>
0.5924

> <Gold.PLP.Chemscore.Hbond>
2.8800

> <Gold.PLP.Chemscore.CHOScore>
0.0000

> <Gold.PLP.Chemscore.Metal>
0.0000

> <Gold.Chemscore.Hbonds>
donor molecule, donor type, donor heavy atom, donor atom, acceptor molecule, acceptor atom, score
      L1  H     5    24       P1  8028  0.86
      L1  H     8    25       P1  8028  0.94
      P1  H  7989  7998       L1    17  1.00

> <Gold.PLP.Chemscore.Internal.Correction>
0.0165

> <Gold.Rescore>
     Score         DG    S(hbond)    S(metal)    S(lipo)     H(rot)  DE(clash)    DE(int)     intcor
     18.96     -22.02       2.79        0.00     100.74       1.78       0.09       2.97       ----

> <Gold.Chemscore.Fitness>
18.9647

> <Gold.Chemscore.DG>
-22.0164

> <Gold.Chemscore.ZeroCoef>
-5.4800

> <Gold.Chemscore.Hbond>
2.7861

> <Gold.Chemscore.Metal>
0.0000

> <Gold.Chemscore.Lipo>
100.7430

> <Gold.Chemscore.Internal_Hbond>
0.0000

> <Gold.Chemscore.DEClash>
0.0860

> <Gold.Chemscore.DEInternal>
2.9656

> <Gold.Chemscore.Rot>
1.7798

> <Gold.Chemscore.Internal.Correction>
   9.000000E+99

> <Gold.Chemscore.Hbonds>
donor molecule, donor type, donor heavy atom, donor atom, acceptor molecule, acceptor atom, score
      L1  H     5    24       P1  8028  0.76
      L1  H     8    25       P1  8028  0.90
      P1  H  7989  7998       L1    17  0.65

> <Gold.Chemscore.Hbond.Weighted>
-9.3057

> <Gold.Chemscore.Metal.Weighted>
-0.0000

> <Gold.Chemscore.Lipo.Weighted>
-11.7869

> <Gold.Chemscore.Internal_Hbond.Weighted>
0.0000

> <Gold.Chemscore.DEClash.Weighted>
0.0860

> <Gold.Chemscore.DEInternal.Weighted>
2.9656

> <Gold.Chemscore.Rot.Weighted>
4.5562

> <Gold.Chemscore.Internal.Correction.Weighted>
   9.000000E+99

> <Gold.Protein.RotatedTorsions>
[ 6907 6896 6895 6894 ] final  177.29 input  -60.11 | X-H torsion
[ 7974 7965 7964 7962 ] final -116.32 input  175.53 | X-H torsion
[ 8008 7997 7996 7995 ] final  169.40 input   59.86 | X-H torsion
[ 10167 10162 10161 10158 ] final -107.07 input  -65.29 | X-H torsion
[ 10718 10713 10712 10709 ] final -108.58 input   66.30 | X-H torsion
[ 10763 10752 10751 10750 ] final   43.12 input  -60.55 | X-H torsion
[ 11005 11000 10999 10996 ] final -127.75 input  -57.11 | X-H torsion

> <Gold.Protein.ActiveResidues>
 VAL166  LYS551  ARG553  GLY616  TRP617  ASP618  TYR619  PRO620  LYS621  CYS622 
 ASP623  PHE694  ASN695  SER759  ASP760  ASP761  ALA762  ILE779  LEU786  VAL792 
 PHE793  MET794  SER795  GLU796  ALA797  LYS798  CYS799  TRP800  GLU811  SER814 

> <Gold.Protein.RotatedAtoms>
  151.7063  133.3311  159.3279 H   0  0  0  0  0  0  0  0  0  0  0  0  # atno 6907 bound_to 6896
  150.7713  134.6571  159.6329 H   0  0  0  0  0  0  0  0  0  0  0  0  # atno 6908 bound_to 6896
  152.3738  134.6696  160.0218 H   0  0  0  0  0  0  0  0  0  0  0  0  # atno 6909 bound_to 6896
  145.0981  140.8534  143.3942 H   0  0  0  0  0  0  0  0  0  0  0  0  # atno 7974 bound_to 7965
  156.1461  140.1565  156.8845 H   0  0  0  0  0  0  0  0  0  0  0  0  # atno 8008 bound_to 7997
  154.5029  140.0820  156.7872 H   0  0  0  0  0  0  0  0  0  0  0  0  # atno 8009 bound_to 7997
  155.3987  140.3413  155.4258 H   0  0  0  0  0  0  0  0  0  0  0  0  # atno 8010 bound_to 7997
  140.1809  143.3967  152.1282 H   0  0  0  0  0  0  0  0  0  0  0  0  # atno 10167 bound_to 10162
  156.0493  130.5720  150.7981 H   0  0  0  0  0  0  0  0  0  0  0  0  # atno 10718 bound_to 10713
  152.9867  135.6111  154.3060 H   0  0  0  0  0  0  0  0  0  0  0  0  # atno 10763 bound_to 10752
  154.2778  135.2778  155.2712 H   0  0  0  0  0  0  0  0  0  0  0  0  # atno 10764 bound_to 10752
  154.5064  135.5853  153.6628 H   0  0  0  0  0  0  0  0  0  0  0  0  # atno 10765 bound_to 10752
  140.9573  134.0984  157.4003 H   0  0  0  0  0  0  0  0  0  0  0  0  # atno 11005 bound_to 11000
  145.0988  139.2838  143.5697 LP  0  0  0  0  0  0  0  0  0  0  0  0  # atno 17320 bound_to 7965
  146.3530  140.0548  142.8633 LP  0  0  0  0  0  0  0  0  0  0  0  0  # atno 17321 bound_to 7965
  139.5296  144.7144  151.5103 LP  0  0  0  0  0  0  0  0  0  0  0  0  # atno 17342 bound_to 10162
  140.6520  143.8677  150.6795 LP  0  0  0  0  0  0  0  0  0  0  0  0  # atno 17343 bound_to 10162
  157.5402  131.0940  150.9837 LP  0  0  0  0  0  0  0  0  0  0  0  0  # atno 17370 bound_to 10713
  157.0122  130.5641  149.5322 LP  0  0  0  0  0  0  0  0  0  0  0  0  # atno 17371 bound_to 10713
  139.8866  135.0083  156.6511 LP  0  0  0  0  0  0  0  0  0  0  0  0  # atno 17394 bound_to 11000
  140.7517  133.8891  155.8352 LP  0  0  0  0  0  0  0  0  0  0  0  0  # atno 17395 bound_to 11000

$$$$
