AV-unprocessed.smi:276|AV-procd|sdf|2070|dock2
  -GOLD-   2262021323D 1   1.00000     0.00000
 Structure written by MMmdl.
 57 61  0  0  0  0  0  0  0  0  1 V2000
  148.6872  143.7978  159.6437 C   0  0  0  0  0  0  0  0  0  0  0  0
  150.0583  143.5332  159.4050 O   0  0  0  0  0  0  0  0  0  0  0  0
  150.2793  142.8622  158.1743 C   0  0  2  0  0  0  0  0  0  0  0  0
  150.4308  141.3410  158.2964 C   0  0  0  0  0  0  0  0  0  0  0  0
  151.5818  141.4147  157.2735 C   0  0  1  0  0  0  0  0  0  0  0  0
  151.1033  141.1911  155.9014 N   0  0  0  0  0  0  0  0  0  0  0  0
  149.9361  141.9666  155.4928 C   0  0  0  0  0  0  0  0  0  0  0  0
  150.9425  139.8997  155.5351 C   0  0  0  0  0  0  0  0  0  0  0  0
  150.4971  139.6691  154.2749 N   0  0  0  0  0  0  0  0  0  0  0  0
  150.3288  138.4154  153.8441 C   0  0  0  0  0  0  0  0  0  0  0  0
  150.5380  137.2716  154.4995 N   0  0  0  0  0  0  0  0  0  0  0  0
  150.9706  137.5016  155.7726 C   0  0  0  0  0  0  0  0  0  0  0  0
  151.1926  138.7737  156.3714 C   0  0  0  0  0  0  0  0  0  0  0  0
  151.6231  138.6092  157.6831 N   0  0  0  0  0  0  0  0  0  0  0  0
  151.6691  137.3154  157.8446 C   0  0  0  0  0  0  0  0  0  0  0  0
  151.2955  136.5748  156.7468 N   0  0  0  0  0  0  0  0  0  0  0  0
  151.2622  135.1254  156.6501 C   0  0  0  0  0  0  0  0  0  0  0  0
  149.8495  134.5471  156.8968 C   0  0  2  0  0  0  0  0  0  0  0  0
  149.6271  134.5350  158.2951 O   0  0  0  0  0  0  0  0  0  0  0  0
  149.6597  133.0971  156.3909 C   0  0  2  0  0  0  0  0  0  0  0  0
  149.9071  132.8839  154.8867 C   0  0  0  0  0  0  0  0  0  0  0  0
  148.5319  133.0334  154.2791 C   0  0  0  0  0  0  0  0  0  0  0  0
  147.6741  132.3770  155.3477 C   0  0  0  0  0  0  0  0  0  0  0  0
  148.2795  132.7646  156.5741 O   0  0  0  0  0  0  0  0  0  0  0  0
  151.7422  142.9006  157.6966 C   0  0  0  0  0  0  0  0  0  0  0  0
  152.8602  143.2877  158.6821 C   0  0  0  0  0  0  0  0  0  0  0  0
  152.8547  144.6844  158.0548 C   0  0  0  0  0  0  0  0  0  0  0  0
  152.2548  144.0447  156.8004 C   0  0  0  0  0  0  0  0  0  0  0  0
  148.5766  144.3246  160.5915 H   0  0  0  0  0  0  0  0  0  0  0  0
  148.1087  142.8752  159.7023 H   0  0  0  0  0  0  0  0  0  0  0  0
  148.2656  144.4259  158.8581 H   0  0  0  0  0  0  0  0  0  0  0  0
  149.5860  143.1584  157.3840 H   0  0  0  0  0  0  0  0  0  0  0  0
  150.7755  141.0334  159.2852 H   0  0  0  0  0  0  0  0  0  0  0  0
  149.5454  140.7794  158.0001 H   0  0  0  0  0  0  0  0  0  0  0  0
  152.4230  140.7841  157.5609 H   0  0  0  0  0  0  0  0  0  0  0  0
  149.4771  141.5726  154.5843 H   0  0  0  0  0  0  0  0  0  0  0  0
  150.2161  142.9995  155.2883 H   0  0  0  0  0  0  0  0  0  0  0  0
  149.1810  141.9670  156.2796 H   0  0  0  0  0  0  0  0  0  0  0  0
  149.9792  138.3141  152.8272 H   0  0  0  0  0  0  0  0  0  0  0  0
  151.9823  136.8620  158.7738 H   0  0  0  0  0  0  0  0  0  0  0  0
  151.6259  134.8626  155.6579 H   0  0  0  0  0  0  0  0  0  0  0  0
  151.9748  134.7100  157.3640 H   0  0  0  0  0  0  0  0  0  0  0  0
  149.1081  135.2004  156.4352 H   0  0  0  0  0  0  0  0  0  0  0  0
  149.0626  135.2599  158.5160 H   0  0  0  0  0  0  0  0  0  0  0  0
  150.2890  132.4139  156.9633 H   0  0  0  0  0  0  0  0  0  0  0  0
  150.6405  133.5494  154.4367 H   0  0  0  0  0  0  0  0  0  0  0  0
  150.2599  131.8648  154.7213 H   0  0  0  0  0  0  0  0  0  0  0  0
  148.2739  134.0883  154.1772 H   0  0  0  0  0  0  0  0  0  0  0  0
  148.4378  132.5571  153.3030 H   0  0  0  0  0  0  0  0  0  0  0  0
  146.6296  132.6857  155.3000 H   0  0  0  0  0  0  0  0  0  0  0  0
  147.7158  131.2906  155.2592 H   0  0  0  0  0  0  0  0  0  0  0  0
  152.5920  143.2564  159.7383 H   0  0  0  0  0  0  0  0  0  0  0  0
  153.7901  142.7490  158.4924 H   0  0  0  0  0  0  0  0  0  0  0  0
  152.1653  145.3690  158.5515 H   0  0  0  0  0  0  0  0  0  0  0  0
  153.8407  145.1286  157.9165 H   0  0  0  0  0  0  0  0  0  0  0  0
  153.0354  143.7496  156.0996 H   0  0  0  0  0  0  0  0  0  0  0  0
  151.4768  144.6324  156.3127 H   0  0  0  0  0  0  0  0  0  0  0  0
  1  2  1  0  0  0  0
  1 29  1  0  0  0  0
  1 30  1  0  0  0  0
  1 31  1  0  0  0  0
  2  3  1  0  0  0  0
  3 25  1  0  0  0  0
  3  4  1  0  0  0  0
  3 32  1  0  0  0  0
  4  5  1  0  0  0  0
  4 33  1  0  0  0  0
  4 34  1  0  0  0  0
  5  6  1  0  0  0  0
  5 25  1  0  0  0  0
  5 35  1  0  0  0  0
  6  7  1  0  0  0  0
  6  8  1  0  0  0  0
  7 36  1  0  0  0  0
  7 37  1  0  0  0  0
  7 38  1  0  0  0  0
  8 13  1  0  0  0  0
  8  9  2  0  0  0  0
  9 10  1  0  0  0  0
 10 11  2  0  0  0  0
 10 39  1  0  0  0  0
 11 12  1  0  0  0  0
 12 16  1  0  0  0  0
 12 13  2  0  0  0  0
 13 14  1  0  0  0  0
 14 15  2  0  0  0  0
 15 16  1  0  0  0  0
 15 40  1  0  0  0  0
 16 17  1  0  0  0  0
 17 18  1  0  0  0  0
 17 41  1  0  0  0  0
 17 42  1  0  0  0  0
 18 19  1  0  0  0  0
 18 20  1  0  0  0  0
 18 43  1  0  0  0  0
 19 44  1  0  0  0  0
 20 24  1  0  0  0  0
 20 21  1  0  0  0  0
 20 45  1  0  0  0  0
 21 22  1  0  0  0  0
 21 46  1  0  0  0  0
 21 47  1  0  0  0  0
 22 23  1  0  0  0  0
 22 48  1  0  0  0  0
 22 49  1  0  0  0  0
 23 24  1  0  0  0  0
 23 50  1  0  0  0  0
 23 51  1  0  0  0  0
 25 28  1  0  0  0  0
 25 26  1  0  0  0  0
 26 27  1  0  0  0  0
 26 52  1  0  0  0  0
 26 53  1  0  0  0  0
 27 28  1  0  0  0  0
 27 54  1  0  0  0  0
 27 55  1  0  0  0  0
 28 56  1  0  0  0  0
 28 57  1  0  0  0  0
M  END
> <s_m_source_file>
AV-unprocessed.smi

> <i_m_source_file_index>
276

> <i_lp_mmshare_version>
43012

> <i_f3d_flags>
0

> <s_epik_input>
W0NIMl0xW0NIMl1bQ0gyXUMxMltDQEhdKE9bQ0gzXSlbQ0gyXVtDQEhdMk4oW0NIM10pYyhuW2NIXW4zKWMoYzM0KW5bY0hdbjRbQ0gyXVtDQEhdKFtPSF0pW0NAQEhdNVtDSDJdW0NIMl1bQ0gyXU81

> <s_epik_cmdline>
J2VwaWtfcHl0aG9uJywgJy1waCcsICc3LjAnLCAnLXRuJywgJzgnLCAnLW1hJywgJzIwMCcsICctbWV0YWxfYmluZGluZycsICctaW1hZScsICc8aW5maWxlLm1hZT4nLCAnLW9tYWUnLCAnPG91dGZpbGUubWFlPic=

> <r_lp_tautomer_probability>
1

> <r_epik_Ionization_Penalty>
0.00204117

> <r_epik_Ionization_Penalty_Charging>
0

> <r_epik_Ionization_Penalty_Neutral>
0.00204117

> <r_epik_State_Penalty>
0.00127401

> <r_epik_Charging_Adjusted_Penalty>
0.00127401

> <i_epik_Tot_Q>
0

> <i_epik_Tot_abs_Q>
0

> <r_epik_Metal_State_Penalty>
-0

> <b_epik_Metal_Only>
0

> <s_lp_Force_Field>
OPLS_2005

> <r_lp_Energy>
59.1309

> <b_lp_Chiralities_Consistent>
1

> <s_lp_Variant>
AV-unprocessed.smi:276-1

> <Gold.Version>
5.8.1

> <Gold.Id.Protein>
6NUR|6NUR_protein|mol2

> <Gold.PLP.Fitness>
43.3388

> <Gold.PLP.PLP>
-38.6660

> <Gold.PLP.part.hbond>
-3.0684

> <Gold.PLP.part.metal>
0.0000

> <Gold.PLP.part.buried>
-3.1425

> <Gold.PLP.part.nonpolar>
-33.6428

> <Gold.PLP.part.repulsive>
0.5330

> <Gold.PLP.ligand.clash>
4.9444

> <Gold.PLP.ligand.torsion>
1.1672

> <Gold.PLP.Chemscore.Hbond>
2.0000

> <Gold.PLP.Chemscore.CHOScore>
1.6999

> <Gold.PLP.Chemscore.Metal>
0.0000

> <Gold.Chemscore.Hbonds>
donor molecule, donor type, donor heavy atom, donor atom, acceptor molecule, acceptor atom, score
      P1  H  6896  6909       L1    19  1.00
      P1  H  7989  7998       L1     9  0.75
      L1  C    10    39       P1  7948  0.91
      L1  C    10    39       P1  7957  1.00

> <Gold.PLP.Chemscore.Internal.Correction>
0.8519

> <Gold.Rescore>
     Score         DG    S(hbond)    S(metal)    S(lipo)     H(rot)  DE(clash)    DE(int)     intcor
     11.17     -16.74       1.62        0.00     109.51       2.72       1.70       3.87       ----

> <Gold.Chemscore.Fitness>
11.1711

> <Gold.Chemscore.DG>
-16.7443

> <Gold.Chemscore.ZeroCoef>
-5.4800

> <Gold.Chemscore.Hbond>
1.6189

> <Gold.Chemscore.Metal>
0.0000

> <Gold.Chemscore.Lipo>
109.5147

> <Gold.Chemscore.Internal_Hbond>
0.0000

> <Gold.Chemscore.DEClash>
1.7007

> <Gold.Chemscore.DEInternal>
3.8725

> <Gold.Chemscore.Rot>
2.7172

> <Gold.Chemscore.Internal.Correction>
   9.000000E+99

> <Gold.Chemscore.Hbonds>
donor molecule, donor type, donor heavy atom, donor atom, acceptor molecule, acceptor atom, score
      P1  H  6896  6909       L1    19  0.91
      P1  H  7989  7998       L1     9  0.09

> <Gold.Chemscore.Hbond.Weighted>
-5.4070

> <Gold.Chemscore.Metal.Weighted>
-0.0000

> <Gold.Chemscore.Lipo.Weighted>
-12.8132

> <Gold.Chemscore.Internal_Hbond.Weighted>
0.0000

> <Gold.Chemscore.DEClash.Weighted>
1.7007

> <Gold.Chemscore.DEInternal.Weighted>
3.8725

> <Gold.Chemscore.Rot.Weighted>
6.9560

> <Gold.Chemscore.Internal.Correction.Weighted>
   9.000000E+99

> <Gold.Protein.RotatedTorsions>
[ 6907 6896 6895 6894 ] final   10.61 input  -60.11 | X-H torsion
[ 7974 7965 7964 7962 ] final  108.65 input  175.53 | X-H torsion
[ 8008 7997 7996 7995 ] final   -3.90 input   59.86 | X-H torsion
[ 10167 10162 10161 10158 ] final   66.98 input  -65.29 | X-H torsion
[ 10718 10713 10712 10709 ] final  -41.88 input   66.30 | X-H torsion
[ 10763 10752 10751 10750 ] final  -67.75 input  -60.55 | X-H torsion
[ 11005 11000 10999 10996 ] final   58.48 input  -57.11 | X-H torsion

> <Gold.Protein.ActiveResidues>
 VAL166  LYS551  ARG553  GLY616  TRP617  ASP618  TYR619  PRO620  LYS621  CYS622 
 ASP623  PHE694  ASN695  SER759  ASP760  ASP761  ALA762  ILE779  LEU786  VAL792 
 PHE793  MET794  SER795  GLU796  ALA797  LYS798  CYS799  TRP800  GLU811  SER814 

> <Gold.Protein.RotatedAtoms>
  151.7410  135.0854  160.0315 H   0  0  0  0  0  0  0  0  0  0  0  0  # atno 6907 bound_to 6896
  152.3479  133.6140  159.5932 H   0  0  0  0  0  0  0  0  0  0  0  0  # atno 6908 bound_to 6896
  150.7521  133.9536  159.3535 H   0  0  0  0  0  0  0  0  0  0  0  0  # atno 6909 bound_to 6896
  145.2779  139.2643  143.3931 H   0  0  0  0  0  0  0  0  0  0  0  0  # atno 7974 bound_to 7965
  154.6200  140.2497  155.7561 H   0  0  0  0  0  0  0  0  0  0  0  0  # atno 8008 bound_to 7997
  156.2421  140.2928  156.0423 H   0  0  0  0  0  0  0  0  0  0  0  0  # atno 8009 bound_to 7997
  155.1912  140.0391  157.2891 H   0  0  0  0  0  0  0  0  0  0  0  0  # atno 8010 bound_to 7997
  140.0945  144.4959  150.7077 H   0  0  0  0  0  0  0  0  0  0  0  0  # atno 10167 bound_to 10162
  156.2655  130.4201  149.8495 H   0  0  0  0  0  0  0  0  0  0  0  0  # atno 10718 bound_to 10713
  154.3791  135.6078  153.5781 H   0  0  0  0  0  0  0  0  0  0  0  0  # atno 10763 bound_to 10752
  152.9788  135.5856  154.4432 H   0  0  0  0  0  0  0  0  0  0  0  0  # atno 10764 bound_to 10752
  154.4198  135.2845  155.1960 H   0  0  0  0  0  0  0  0  0  0  0  0  # atno 10765 bound_to 10752
  140.0374  134.5923  155.9426 H   0  0  0  0  0  0  0  0  0  0  0  0  # atno 11005 bound_to 11000
  146.3226  140.3239  142.8635 LP  0  0  0  0  0  0  0  0  0  0  0  0  # atno 17320 bound_to 7965
  144.9278  140.7941  143.5708 LP  0  0  0  0  0  0  0  0  0  0  0  0  # atno 17321 bound_to 7965
  140.7011  143.2435  151.4861 LP  0  0  0  0  0  0  0  0  0  0  0  0  # atno 17342 bound_to 10162
  139.5706  144.1938  152.1830 LP  0  0  0  0  0  0  0  0  0  0  0  0  # atno 17343 bound_to 10162
  156.5995  130.8540  151.3428 LP  0  0  0  0  0  0  0  0  0  0  0  0  # atno 17370 bound_to 10713
  157.7266  130.9631  150.1662 LP  0  0  0  0  0  0  0  0  0  0  0  0  # atno 17371 bound_to 10713
  141.1865  133.6557  156.5241 LP  0  0  0  0  0  0  0  0  0  0  0  0  # atno 17394 bound_to 11000
  140.4125  134.7260  157.4844 LP  0  0  0  0  0  0  0  0  0  0  0  0  # atno 17395 bound_to 11000

$$$$
