AV-unprocessed.smi:1644|AV-procd|sdf|6584|dock8
  -GOLD-   22720 7273D 1   1.00000     0.00000
 Structure written by MMmdl.
 49 51  0  0  0  0  0  0  0  0  1 V2000
  148.1495  132.5388  154.1070 C   0  0  0  0  0  0  0  0  0  0  0  0
  148.3966  133.6263  155.1583 C   0  0  0  0  0  0  0  0  0  0  0  0
  149.3270  134.7380  154.6474 C   0  0  0  0  0  0  0  0  0  0  0  0
  149.3555  135.9773  155.5636 C   0  0  2  0  0  0  0  0  0  0  0  0
  148.0553  136.6038  155.6994 N   0  0  0  0  0  0  0  0  0  0  0  0
  148.0477  137.8723  155.2711 C   0  0  0  0  0  0  0  0  0  0  0  0
  147.0675  138.6157  155.2746 O   0  0  0  0  0  0  0  0  0  0  0  0
  149.2828  138.1807  154.8361 N   0  0  0  0  0  0  0  0  0  0  0  0
  149.6580  139.4774  154.2630 C   0  0  0  0  0  0  0  0  0  0  0  0
  149.1627  140.6551  155.1272 C   0  0  2  0  0  0  0  0  0  0  0  0
  148.2076  141.3904  154.3869 O   0  0  0  0  0  0  0  0  0  0  0  0
  150.3171  141.5991  155.5151 C   0  0  0  0  0  0  0  0  0  0  0  0
  151.1283  141.0701  156.5973 N   0  0  0  0  0  0  0  0  0  0  0  0
  151.6809  139.8441  156.6700 C   0  0  0  0  0  0  0  0  0  0  0  0
  152.3890  139.5588  157.7590 N   0  0  0  0  0  0  0  0  0  0  0  0
  152.2841  140.7380  158.4768 C   0  0  0  0  0  0  0  0  0  0  0  0
  152.8123  141.0944  159.7369 C   0  0  0  0  0  0  0  0  0  0  0  0
  152.5715  142.3730  160.2885 C   0  0  0  0  0  0  0  0  0  0  0  0
  153.1559  142.7133  161.6480 C   0  0  0  0  0  0  0  0  0  0  0  0
  151.7922  143.3190  159.5753 C   0  0  0  0  0  0  0  0  0  0  0  0
  151.5194  144.6986  160.1482 C   0  0  0  0  0  0  0  0  0  0  0  0
  151.2580  142.9796  158.3148 C   0  0  0  0  0  0  0  0  0  0  0  0
  151.5035  141.7040  157.7771 C   0  0  0  0  0  0  0  0  0  0  0  0
  150.1172  137.1396  154.9545 C   0  0  0  0  0  0  0  0  0  0  0  0
  151.3045  137.0917  154.6328 O   0  0  0  0  0  0  0  0  0  0  0  0
  147.4801  131.7697  154.4930 H   0  0  0  0  0  0  0  0  0  0  0  0
  149.0810  132.0531  153.8154 H   0  0  0  0  0  0  0  0  0  0  0  0
  147.6933  132.9560  153.2089 H   0  0  0  0  0  0  0  0  0  0  0  0
  147.4391  134.0520  155.4603 H   0  0  0  0  0  0  0  0  0  0  0  0
  148.8275  133.1717  156.0510 H   0  0  0  0  0  0  0  0  0  0  0  0
  150.3382  134.3379  154.5574 H   0  0  0  0  0  0  0  0  0  0  0  0
  149.0250  135.0278  153.6392 H   0  0  0  0  0  0  0  0  0  0  0  0
  149.7629  135.7390  156.5469 H   0  0  0  0  0  0  0  0  0  0  0  0
  147.2509  136.1227  156.0749 H   0  0  0  0  0  0  0  0  0  0  0  0
  150.7465  139.5102  154.1918 H   0  0  0  0  0  0  0  0  0  0  0  0
  149.3014  139.5753  153.2357 H   0  0  0  0  0  0  0  0  0  0  0  0
  148.6904  140.2843  156.0382 H   0  0  0  0  0  0  0  0  0  0  0  0
  148.4563  142.3024  154.3985 H   0  0  0  0  0  0  0  0  0  0  0  0
  150.9676  141.7688  154.6560 H   0  0  0  0  0  0  0  0  0  0  0  0
  149.9323  142.5762  155.8105 H   0  0  0  0  0  0  0  0  0  0  0  0
  151.5547  139.1195  155.8788 H   0  0  0  0  0  0  0  0  0  0  0  0
  153.4055  140.3733  160.2796 H   0  0  0  0  0  0  0  0  0  0  0  0
  153.8415  143.5573  161.5682 H   0  0  0  0  0  0  0  0  0  0  0  0
  153.7087  141.8713  162.0659 H   0  0  0  0  0  0  0  0  0  0  0  0
  152.3641  142.9743  162.3504 H   0  0  0  0  0  0  0  0  0  0  0  0
  150.9226  145.3026  159.4642 H   0  0  0  0  0  0  0  0  0  0  0  0
  152.4546  145.2280  160.3327 H   0  0  0  0  0  0  0  0  0  0  0  0
  150.9738  144.6197  161.0888 H   0  0  0  0  0  0  0  0  0  0  0  0
  150.6596  143.6889  157.7620 H   0  0  0  0  0  0  0  0  0  0  0  0
  1  2  1  0  0  0  0
  1 26  1  0  0  0  0
  1 27  1  0  0  0  0
  1 28  1  0  0  0  0
  2  3  1  0  0  0  0
  2 29  1  0  0  0  0
  2 30  1  0  0  0  0
  3  4  1  0  0  0  0
  3 31  1  0  0  0  0
  3 32  1  0  0  0  0
  4 24  1  0  0  0  0
  4  5  1  0  0  0  0
  4 33  1  0  0  0  0
  5  6  1  0  0  0  0
  5 34  1  0  0  0  0
  6  7  2  0  0  0  0
  6  8  1  0  0  0  0
  8  9  1  0  0  0  0
  8 24  1  0  0  0  0
  9 10  1  0  0  0  0
  9 35  1  0  0  0  0
  9 36  1  0  0  0  0
 10 11  1  0  0  0  0
 10 12  1  0  0  0  0
 10 37  1  0  0  0  0
 11 38  1  0  0  0  0
 12 13  1  0  0  0  0
 12 39  1  0  0  0  0
 12 40  1  0  0  0  0
 13 23  1  0  0  0  0
 13 14  1  0  0  0  0
 14 15  2  0  0  0  0
 14 41  1  0  0  0  0
 15 16  1  0  0  0  0
 16 23  2  0  0  0  0
 16 17  1  0  0  0  0
 17 18  2  0  0  0  0
 17 42  1  0  0  0  0
 18 19  1  0  0  0  0
 18 20  1  0  0  0  0
 19 43  1  0  0  0  0
 19 44  1  0  0  0  0
 19 45  1  0  0  0  0
 20 21  1  0  0  0  0
 20 22  2  0  0  0  0
 21 46  1  0  0  0  0
 21 47  1  0  0  0  0
 21 48  1  0  0  0  0
 22 23  1  0  0  0  0
 22 49  1  0  0  0  0
 24 25  2  0  0  0  0
M  END
> <s_m_source_file>
AV-unprocessed.smi

> <i_m_source_file_index>
1644

> <i_lp_mmshare_version>
43012

> <i_f3d_flags>
0

> <s_epik_input>
W0NIM11bQ0gyXVtDSDJdW0NAQEhdMVtOSF1DKD1PKU4oQzE9TylbQ0gyXVtDQEhdKFtPSF0pW0NIMl1uKFtjSF1uMiljKGMyMylbY0hdYyhbQ0gzXSljKFtjSF0zKVtDSDNd

> <s_epik_cmdline>
J2VwaWtfcHl0aG9uJywgJy1waCcsICc3LjAnLCAnLXRuJywgJzgnLCAnLW1hJywgJzIwMCcsICctbWV0YWxfYmluZGluZycsICctaW1hZScsICc8aW5maWxlLm1hZT4nLCAnLW9tYWUnLCAnPG91dGZpbGUubWFlPic=

> <r_lp_tautomer_probability>
1

> <r_epik_Ionization_Penalty>
0.10693

> <r_epik_Ionization_Penalty_Charging>
0

> <r_epik_Ionization_Penalty_Neutral>
0.10693

> <r_epik_State_Penalty>
0.096713

> <r_epik_Charging_Adjusted_Penalty>
0.096713

> <i_epik_Tot_Q>
0

> <i_epik_Tot_abs_Q>
0

> <r_epik_Metal_State_Penalty>
0.102757

> <b_epik_Metal_Only>
0

> <s_lp_Force_Field>
OPLS_2005

> <r_lp_Energy>
24.4016

> <b_lp_Chiralities_Consistent>
1

> <s_lp_Variant>
AV-unprocessed.smi:1644-1

> <Gold.Version>
5.8.1

> <Gold.Id.Protein>
6NUR|6NUR_protein|mol2

> <Gold.PLP.Fitness>
51.4099

> <Gold.PLP.PLP>
-47.9881

> <Gold.PLP.part.hbond>
-2.0000

> <Gold.PLP.part.metal>
0.0000

> <Gold.PLP.part.buried>
-5.4311

> <Gold.PLP.part.nonpolar>
-39.7595

> <Gold.PLP.part.repulsive>
0.1843

> <Gold.PLP.ligand.clash>
0.0000

> <Gold.PLP.ligand.torsion>
1.1701

> <Gold.PLP.Chemscore.Hbond>
1.8841

> <Gold.PLP.Chemscore.CHOScore>
0.0000

> <Gold.PLP.Chemscore.Metal>
0.0000

> <Gold.Chemscore.Hbonds>
donor molecule, donor type, donor heavy atom, donor atom, acceptor molecule, acceptor atom, score
      P1  H  7997  8010       L1    15  0.07
      P1  H 10752 10763       L1    25  0.57

> <Gold.PLP.Chemscore.Internal.Correction>
0.1095

> <Gold.Rescore>
     Score         DG    S(hbond)    S(metal)    S(lipo)     H(rot)  DE(clash)    DE(int)     intcor
     13.70     -16.18       0.94        0.00     124.07       2.72       0.07       2.41       ----

> <Gold.Chemscore.Fitness>
13.7045

> <Gold.Chemscore.DG>
-16.1849

> <Gold.Chemscore.ZeroCoef>
-5.4800

> <Gold.Chemscore.Hbond>
0.9447

> <Gold.Chemscore.Metal>
0.0000

> <Gold.Chemscore.Lipo>
124.0684

> <Gold.Chemscore.Internal_Hbond>
0.0000

> <Gold.Chemscore.DEClash>
0.0685

> <Gold.Chemscore.DEInternal>
2.4119

> <Gold.Chemscore.Rot>
2.7212

> <Gold.Chemscore.Internal.Correction>
   9.000000E+99

> <Gold.Chemscore.Hbonds>
donor molecule, donor type, donor heavy atom, donor atom, acceptor molecule, acceptor atom, score
      P1  H 10752 10763       L1    25  0.56

> <Gold.Chemscore.Hbond.Weighted>
-3.1552

> <Gold.Chemscore.Metal.Weighted>
-0.0000

> <Gold.Chemscore.Lipo.Weighted>
-14.5160

> <Gold.Chemscore.Internal_Hbond.Weighted>
0.0000

> <Gold.Chemscore.DEClash.Weighted>
0.0685

> <Gold.Chemscore.DEInternal.Weighted>
2.4119

> <Gold.Chemscore.Rot.Weighted>
6.9663

> <Gold.Chemscore.Internal.Correction.Weighted>
   9.000000E+99

> <Gold.Protein.RotatedTorsions>
[ 6907 6896 6895 6894 ] final   98.93 input  -60.11 | X-H torsion
[ 7974 7965 7964 7962 ] final  -40.79 input  175.53 | X-H torsion
[ 8008 7997 7996 7995 ] final   31.43 input   59.86 | X-H torsion
[ 10167 10162 10161 10158 ] final -132.33 input  -65.29 | X-H torsion
[ 10718 10713 10712 10709 ] final  -53.89 input   66.30 | X-H torsion
[ 10763 10752 10751 10750 ] final   39.40 input  -60.55 | X-H torsion
[ 11005 11000 10999 10996 ] final -172.47 input  -57.11 | X-H torsion

> <Gold.Protein.ActiveResidues>
 VAL166  LYS551  ARG553  GLY616  TRP617  ASP618  TYR619  PRO620  LYS621  CYS622 
 ASP623  PHE694  ASN695  SER759  ASP760  ASP761  ALA762  ILE779  LEU786  VAL792 
 PHE793  MET794  SER795  GLU796  ALA797  LYS798  CYS799  TRP800  GLU811  SER814 

> <Gold.Protein.RotatedAtoms>
  152.5401  134.0505  159.8107 H   0  0  0  0  0  0  0  0  0  0  0  0  # atno 6907 bound_to 6896
  151.0648  133.5507  159.2639 H   0  0  0  0  0  0  0  0  0  0  0  0  # atno 6908 bound_to 6896
  151.2392  135.0591  159.9072 H   0  0  0  0  0  0  0  0  0  0  0  0  # atno 6909 bound_to 6896
  146.0271  140.6777  142.9150 H   0  0  0  0  0  0  0  0  0  0  0  0  # atno 7974 bound_to 7965
  155.1063  140.3234  155.4533 H   0  0  0  0  0  0  0  0  0  0  0  0  # atno 8008 bound_to 7997
  156.2703  140.2052  156.6135 H   0  0  0  0  0  0  0  0  0  0  0  0  # atno 8009 bound_to 7997
  154.6790  140.0528  157.0233 H   0  0  0  0  0  0  0  0  0  0  0  0  # atno 8010 bound_to 7997
  139.9097  143.6509  152.2578 H   0  0  0  0  0  0  0  0  0  0  0  0  # atno 10167 bound_to 10162
  156.1497  130.4151  149.9966 H   0  0  0  0  0  0  0  0  0  0  0  0  # atno 10718 bound_to 10713
  152.9969  135.6222  154.2458 H   0  0  0  0  0  0  0  0  0  0  0  0  # atno 10763 bound_to 10752
  154.2198  135.2796  155.2930 H   0  0  0  0  0  0  0  0  0  0  0  0  # atno 10764 bound_to 10752
  154.5538  135.5725  153.7004 H   0  0  0  0  0  0  0  0  0  0  0  0  # atno 10765 bound_to 10752
  140.4966  134.5934  157.4973 H   0  0  0  0  0  0  0  0  0  0  0  0  # atno 11005 bound_to 11000
  144.7014  140.3670  143.7153 LP  0  0  0  0  0  0  0  0  0  0  0  0  # atno 17320 bound_to 7965
  145.7100  139.1682  143.2544 LP  0  0  0  0  0  0  0  0  0  0  0  0  # atno 17321 bound_to 7965
  139.6954  144.7642  151.1366 LP  0  0  0  0  0  0  0  0  0  0  0  0  # atno 17342 bound_to 10162
  140.7688  143.5531  150.9182 LP  0  0  0  0  0  0  0  0  0  0  0  0  # atno 17343 bound_to 10162
  156.7827  130.9227  151.3646 LP  0  0  0  0  0  0  0  0  0  0  0  0  # atno 17370 bound_to 10713
  157.6646  130.8996  149.9904 LP  0  0  0  0  0  0  0  0  0  0  0  0  # atno 17371 bound_to 10713
  139.9738  134.7249  155.9990 LP  0  0  0  0  0  0  0  0  0  0  0  0  # atno 17394 bound_to 11000
  141.1457  133.6556  156.3860 LP  0  0  0  0  0  0  0  0  0  0  0  0  # atno 17395 bound_to 11000

$$$$
