AV-unprocessed.smi:685|AV-procd|sdf|3336|dock1
  -GOLD-   22720 0303D 1   1.00000     0.00000
 Structure written by MMmdl.
 51 52  0  0  0  0  0  0  0  0  2 V2000
  146.5620  142.0741  154.1530 C   0  0  0  0  0  0  0  0  0  0  0  0
  147.8854  141.5578  154.6096 C   0  0  0  0  0  0  0  0  0  0  0  0
  148.7571  142.2569  155.3846 N   0  3  0  0  0  0  0  0  0  0  0  0
  149.8529  141.5230  155.6270 N   0  0  0  0  0  0  0  0  0  0  0  0
  150.9202  142.0918  156.4503 C   0  0  0  0  0  0  0  0  0  0  0  0
  149.7523  140.3091  155.0146 C   0  0  0  0  0  0  0  0  0  0  0  0
  150.7952  139.2405  155.0709 C   0  0  0  0  0  0  0  0  0  0  0  0
  148.5075  140.3265  154.3724 C   0  0  0  0  0  0  0  0  0  0  0  0
  147.9171  139.2090  153.5593 C   0  0  0  0  0  0  0  0  0  0  0  0
  147.7262  137.9075  154.3684 C   0  0  1  0  0  0  0  0  0  0  0  0
  147.0806  138.1506  155.7414 C   0  0  0  0  0  0  0  0  0  0  0  0
  146.9080  136.9590  153.6179 N   0  0  0  0  0  0  0  0  0  0  0  0
  145.5716  137.0149  153.5015 C   0  0  0  0  0  0  0  0  0  0  0  0
  144.8859  137.8872  154.0361 O   0  0  0  0  0  0  0  0  0  0  0  0
  144.9168  135.9233  152.6500 C   0  0  0  0  0  0  0  0  0  0  0  0
  145.4240  135.9133  151.1952 C   0  0  0  0  0  0  0  0  0  0  0  0
  145.1679  134.5781  150.4738 C   0  0  0  0  0  0  0  0  0  0  0  0
  143.8725  133.8904  150.9102 C   0  0  0  0  0  0  0  0  0  0  0  0
  144.0319  132.4324  150.4688 C   0  0  0  0  0  0  0  0  0  0  0  0
  145.5438  132.1713  150.3927 C   0  0  0  0  0  0  0  0  0  0  0  0
  146.2297  133.5022  150.7243 C   0  0  0  0  0  0  0  0  0  0  0  0
  145.7921  141.3138  154.2853 H   0  0  0  0  0  0  0  0  0  0  0  0
  146.6071  142.3418  153.0973 H   0  0  0  0  0  0  0  0  0  0  0  0
  146.2760  142.9579  154.7238 H   0  0  0  0  0  0  0  0  0  0  0  0
  151.3324  141.3129  157.0926 H   0  0  0  0  0  0  0  0  0  0  0  0
  150.5255  142.8969  157.0717 H   0  0  0  0  0  0  0  0  0  0  0  0
  151.7032  142.4803  155.7987 H   0  0  0  0  0  0  0  0  0  0  0  0
  150.7424  138.6038  154.1881 H   0  0  0  0  0  0  0  0  0  0  0  0
  150.6491  138.6216  155.9560 H   0  0  0  0  0  0  0  0  0  0  0  0
  151.7921  139.6796  155.1120 H   0  0  0  0  0  0  0  0  0  0  0  0
  146.9644  139.5126  153.1242 H   0  0  0  0  0  0  0  0  0  0  0  0
  148.5686  139.0170  152.7060 H   0  0  0  0  0  0  0  0  0  0  0  0
  148.7017  137.4488  154.5392 H   0  0  0  0  0  0  0  0  0  0  0  0
  147.6930  138.8078  156.3589 H   0  0  0  0  0  0  0  0  0  0  0  0
  146.9581  137.2148  156.2877 H   0  0  0  0  0  0  0  0  0  0  0  0
  146.0956  138.6082  155.6424 H   0  0  0  0  0  0  0  0  0  0  0  0
  147.3932  136.2105  153.1444 H   0  0  0  0  0  0  0  0  0  0  0  0
  145.1171  134.9599  153.1200 H   0  0  0  0  0  0  0  0  0  0  0  0
  143.8346  136.0582  152.6631 H   0  0  0  0  0  0  0  0  0  0  0  0
  144.9621  136.7286  150.6362 H   0  0  0  0  0  0  0  0  0  0  0  0
  146.4975  136.1085  151.1855 H   0  0  0  0  0  0  0  0  0  0  0  0
  145.1063  134.7599  149.3995 H   0  0  0  0  0  0  0  0  0  0  0  0
  143.7766  133.9318  151.9963 H   0  0  0  0  0  0  0  0  0  0  0  0
  142.9859  134.3602  150.4830 H   0  0  0  0  0  0  0  0  0  0  0  0
  143.5313  131.7485  151.1549 H   0  0  0  0  0  0  0  0  0  0  0  0
  143.5853  132.2908  149.4838 H   0  0  0  0  0  0  0  0  0  0  0  0
  145.8547  131.3861  151.0824 H   0  0  0  0  0  0  0  0  0  0  0  0
  145.8126  131.8457  149.3869 H   0  0  0  0  0  0  0  0  0  0  0  0
  147.1318  133.6591  150.1318 H   0  0  0  0  0  0  0  0  0  0  0  0
  146.5217  133.5059  151.7755 H   0  0  0  0  0  0  0  0  0  0  0  0
  148.6589  143.1915  155.7610 H   0  0  0  0  0  0  0  0  0  0  0  0
  1  2  1  0  0  0  0
  1 22  1  0  0  0  0
  1 23  1  0  0  0  0
  1 24  1  0  0  0  0
  2  8  1  0  0  0  0
  2  3  2  0  0  0  0
  3  4  1  0  0  0  0
  3 51  1  0  0  0  0
  4  5  1  0  0  0  0
  4  6  1  0  0  0  0
  5 25  1  0  0  0  0
  5 26  1  0  0  0  0
  5 27  1  0  0  0  0
  6  7  1  0  0  0  0
  6  8  2  0  0  0  0
  7 28  1  0  0  0  0
  7 29  1  0  0  0  0
  7 30  1  0  0  0  0
  8  9  1  0  0  0  0
  9 10  1  0  0  0  0
  9 31  1  0  0  0  0
  9 32  1  0  0  0  0
 10 11  1  0  0  0  0
 10 12  1  0  0  0  0
 10 33  1  0  0  0  0
 11 34  1  0  0  0  0
 11 35  1  0  0  0  0
 11 36  1  0  0  0  0
 12 13  1  0  0  0  0
 12 37  1  0  0  0  0
 13 14  2  0  0  0  0
 13 15  1  0  0  0  0
 15 16  1  0  0  0  0
 15 38  1  0  0  0  0
 15 39  1  0  0  0  0
 16 17  1  0  0  0  0
 16 40  1  0  0  0  0
 16 41  1  0  0  0  0
 17 21  1  0  0  0  0
 17 18  1  0  0  0  0
 17 42  1  0  0  0  0
 18 19  1  0  0  0  0
 18 43  1  0  0  0  0
 18 44  1  0  0  0  0
 19 20  1  0  0  0  0
 19 45  1  0  0  0  0
 19 46  1  0  0  0  0
 20 21  1  0  0  0  0
 20 47  1  0  0  0  0
 20 48  1  0  0  0  0
 21 49  1  0  0  0  0
 21 50  1  0  0  0  0
M  CHG  1   3   1
M  END
> <s_m_source_file>
AV-unprocessed.smi

> <i_m_source_file_index>
685

> <i_lp_mmshare_version>
43012

> <i_f3d_flags>
0

> <s_epik_input>
W0NIM11jMW5uKFtDSDNdKWMoW0NIM10pYzFbQ0gyXVtDQEhdKFtDSDNdKVtOSF1DKD1PKVtDSDJdW0NIMl1bQ0hdMltDSDJdW0NIMl1bQ0gyXVtDSDJdMg==

> <s_epik_cmdline>
J2VwaWtfcHl0aG9uJywgJy1waCcsICc3LjAnLCAnLXRuJywgJzgnLCAnLW1hJywgJzIwMCcsICctbWV0YWxfYmluZGluZycsICctaW1hZScsICc8aW5maWxlLm1hZT4nLCAnLW9tYWUnLCAnPG91dGZpbGUubWFlPic=

> <r_lp_tautomer_probability>
1

> <r_epik_Ionization_Penalty>
2.26429

> <r_epik_Ionization_Penalty_Charging>
2.26429

> <r_epik_Ionization_Penalty_Neutral>
2.3289e-07

> <r_epik_State_Penalty>
2.41237

> <r_epik_Charging_Adjusted_Penalty>
4.67666

> <i_epik_Tot_Q>
1

> <i_epik_Tot_abs_Q>
1

> <r_epik_Metal_State_Penalty>
2.42525

> <b_epik_Metal_Only>
0

> <s_lp_Force_Field>
OPLS_2005

> <r_lp_Energy>
28.4866

> <b_lp_Chiralities_Consistent>
1

> <s_lp_Variant>
AV-unprocessed.smi:685-4

> <Gold.Version>
5.8.1

> <Gold.Id.Protein>
6NUR|6NUR_protein|mol2

> <Gold.PLP.Fitness>
46.4463

> <Gold.PLP.PLP>
-39.6284

> <Gold.PLP.part.hbond>
-1.8274

> <Gold.PLP.part.metal>
0.0000

> <Gold.PLP.part.buried>
-4.0806

> <Gold.PLP.part.nonpolar>
-34.7873

> <Gold.PLP.part.repulsive>
0.2861

> <Gold.PLP.ligand.clash>
0.0000

> <Gold.PLP.ligand.torsion>
0.6627

> <Gold.PLP.Chemscore.Hbond>
2.6080

> <Gold.PLP.Chemscore.CHOScore>
0.0000

> <Gold.PLP.Chemscore.Metal>
0.0000

> <Gold.Chemscore.Hbonds>
donor molecule, donor type, donor heavy atom, donor atom, acceptor molecule, acceptor atom, score
      L1  H     3    51       P1  8028  2.00
      L1  H    12    37       P1  7948  0.64

> <Gold.PLP.Chemscore.Internal.Correction>
0.3195

> <Gold.Rescore>
     Score         DG    S(hbond)    S(metal)    S(lipo)     H(rot)  DE(clash)    DE(int)     intcor
     16.17     -18.93       1.72        0.00     101.14       1.61       0.49       2.26       ----

> <Gold.Chemscore.Fitness>
16.1747

> <Gold.Chemscore.DG>
-18.9310

> <Gold.Chemscore.ZeroCoef>
-5.4800

> <Gold.Chemscore.Hbond>
1.7181

> <Gold.Chemscore.Metal>
0.0000

> <Gold.Chemscore.Lipo>
101.1359

> <Gold.Chemscore.Internal_Hbond>
0.0000

> <Gold.Chemscore.DEClash>
0.4932

> <Gold.Chemscore.DEInternal>
2.2632

> <Gold.Chemscore.Rot>
1.6095

> <Gold.Chemscore.Internal.Correction>
   9.000000E+99

> <Gold.Chemscore.Hbonds>
donor molecule, donor type, donor heavy atom, donor atom, acceptor molecule, acceptor atom, score
      L1  H     3    51       P1  8028  0.90
      L1  H    12    37       P1  7948  0.60

> <Gold.Chemscore.Hbond.Weighted>
-5.7384

> <Gold.Chemscore.Metal.Weighted>
-0.0000

> <Gold.Chemscore.Lipo.Weighted>
-11.8329

> <Gold.Chemscore.Internal_Hbond.Weighted>
0.0000

> <Gold.Chemscore.DEClash.Weighted>
0.4932

> <Gold.Chemscore.DEInternal.Weighted>
2.2632

> <Gold.Chemscore.Rot.Weighted>
4.1202

> <Gold.Chemscore.Internal.Correction.Weighted>
   9.000000E+99

> <Gold.Protein.RotatedTorsions>
[ 6907 6896 6895 6894 ] final   93.32 input  -60.11 | X-H torsion
[ 7974 7965 7964 7962 ] final  -65.86 input  175.53 | X-H torsion
[ 8008 7997 7996 7995 ] final  132.93 input   59.86 | X-H torsion
[ 10167 10162 10161 10158 ] final   25.90 input  -65.29 | X-H torsion
[ 10718 10713 10712 10709 ] final  -91.76 input   66.30 | X-H torsion
[ 10763 10752 10751 10750 ] final    0.64 input  -60.55 | X-H torsion
[ 11005 11000 10999 10996 ] final  107.57 input  -57.11 | X-H torsion

> <Gold.Protein.ActiveResidues>
 VAL166  LYS551  ARG553  GLY616  TRP617  ASP618  TYR619  PRO620  LYS621  CYS622 
 ASP623  PHE694  ASN695  SER759  ASP760  ASP761  ALA762  ILE779  LEU786  VAL792 
 PHE793  MET794  SER795  GLU796  ALA797  LYS798  CYS799  TRP800  GLU811  SER814 

> <Gold.Protein.RotatedAtoms>
  152.5452  134.1367  159.8461 H   0  0  0  0  0  0  0  0  0  0  0  0  # atno 6907 bound_to 6896
  151.1407  133.4966  159.2604 H   0  0  0  0  0  0  0  0  0  0  0  0  # atno 6908 bound_to 6896
  151.1576  135.0268  159.8751 H   0  0  0  0  0  0  0  0  0  0  0  0  # atno 6909 bound_to 6896
  145.7490  140.8917  143.0490 H   0  0  0  0  0  0  0  0  0  0  0  0  # atno 7974 bound_to 7965
  156.2987  140.2534  156.3169 H   0  0  0  0  0  0  0  0  0  0  0  0  # atno 8008 bound_to 7997
  154.9272  140.0399  157.2048 H   0  0  0  0  0  0  0  0  0  0  0  0  # atno 8009 bound_to 7997
  154.8253  140.2867  155.5763 H   0  0  0  0  0  0  0  0  0  0  0  0  # atno 8010 bound_to 7997
  140.5068  144.0226  150.6355 H   0  0  0  0  0  0  0  0  0  0  0  0  # atno 10167 bound_to 10162
  155.9996  130.4960  150.5523 H   0  0  0  0  0  0  0  0  0  0  0  0  # atno 10718 bound_to 10713
  153.3181  135.6967  153.7055 H   0  0  0  0  0  0  0  0  0  0  0  0  # atno 10763 bound_to 10752
  153.5906  135.3480  155.2910 H   0  0  0  0  0  0  0  0  0  0  0  0  # atno 10764 bound_to 10752
  154.8591  135.4317  154.2338 H   0  0  0  0  0  0  0  0  0  0  0  0  # atno 10765 bound_to 10752
  139.8830  134.9405  156.5840 H   0  0  0  0  0  0  0  0  0  0  0  0  # atno 11005 bound_to 11000
  144.6854  139.9565  143.7479 LP  0  0  0  0  0  0  0  0  0  0  0  0  # atno 17320 bound_to 7965
  146.0375  139.3391  143.0718 LP  0  0  0  0  0  0  0  0  0  0  0  0  # atno 17321 bound_to 7965
  140.3537  143.2948  152.0459 LP  0  0  0  0  0  0  0  0  0  0  0  0  # atno 17342 bound_to 10162
  139.4885  144.6355  151.6985 LP  0  0  0  0  0  0  0  0  0  0  0  0  # atno 17343 bound_to 10162
  157.3444  131.0722  151.1762 LP  0  0  0  0  0  0  0  0  0  0  0  0  # atno 17370 bound_to 10713
  157.2600  130.6654  149.5970 LP  0  0  0  0  0  0  0  0  0  0  0  0  # atno 17371 bound_to 10713
  140.8006  133.8508  155.8723 LP  0  0  0  0  0  0  0  0  0  0  0  0  # atno 17394 bound_to 11000
  140.9596  134.1673  157.4664 LP  0  0  0  0  0  0  0  0  0  0  0  0  # atno 17395 bound_to 11000

$$$$
