AV-unprocessed.smi:227|AV-procd|sdf|1734|dock3
  -GOLD-   2262020233D 1   1.00000     0.00000
 Structure written by MMmdl.
 54 58  0  0  0  0  0  0  0  0  1 V2000
  150.5154  142.7310  156.9636 O   0  0  0  0  0  0  0  0  0  0  0  0
  150.3427  142.6526  158.3636 C   0  0  0  0  0  0  0  0  0  0  0  0
  151.6058  142.0873  159.0635 C   0  0  1  0  0  0  0  0  0  0  0  0
  152.2114  140.9021  158.2540 C   0  0  0  0  0  0  0  0  0  0  0  0
  152.8396  139.8762  159.0747 N   0  0  0  0  0  0  0  0  0  0  0  0
  152.7388  138.5145  158.9071 C   0  0  0  0  0  0  0  0  0  0  0  0
  153.4004  137.7977  159.7726 N   0  0  0  0  0  0  0  0  0  0  0  0
  153.9956  138.7298  160.6152 C   0  0  0  0  0  0  0  0  0  0  0  0
  154.8476  138.6505  161.7580 C   0  0  0  0  0  0  0  0  0  0  0  0
  155.3092  137.4919  162.3073 N   0  0  0  0  0  0  0  0  0  0  0  0
  156.6481  137.3994  162.8721 C   0  0  1  0  0  0  0  0  0  0  0  0
  156.5504  138.1904  164.1913 C   0  0  0  0  0  0  0  0  0  0  0  0
  155.1107  137.8715  164.6227 C   0  0  0  0  0  0  0  0  0  0  0  0
  154.6512  136.9333  163.4822 C   0  0  2  0  0  0  0  0  0  0  0  0
  155.3235  135.5448  163.5764 C   0  0  2  0  0  0  0  0  0  0  0  0
  155.1722  134.7694  164.8990 C   0  0  0  0  0  0  0  0  0  0  0  0
  156.0416  135.2943  165.8795 O   0  0  0  0  0  0  0  0  0  0  0  0
  156.7727  135.9003  163.2008 C   0  0  0  0  0  0  0  0  0  0  0  0
  155.2011  139.8229  162.3486 N   0  0  0  0  0  0  0  0  0  0  0  0
  154.7794  140.9892  161.8548 C   0  0  0  0  0  0  0  0  0  0  0  0
  154.0047  141.2117  160.7937 N   0  0  0  0  0  0  0  0  0  0  0  0
  153.6327  140.0438  160.1976 C   0  0  0  0  0  0  0  0  0  0  0  0
  152.6526  143.2067  159.3637 C   0  0  2  0  0  0  0  0  0  0  0  0
  152.3617  144.0099  160.6287 C   0  0  0  0  0  0  0  0  0  0  0  0
  151.4061  145.1072  160.1591 C   0  0  0  0  0  0  0  0  0  0  0  0
  151.5919  145.2117  158.7524 O   0  0  0  0  0  0  0  0  0  0  0  0
  152.6682  144.3716  158.3631 C   0  0  0  0  0  0  0  0  0  0  0  0
  150.0056  143.4573  156.6383 H   0  0  0  0  0  0  0  0  0  0  0  0
  150.0810  143.6360  158.7530 H   0  0  0  0  0  0  0  0  0  0  0  0
  149.4765  142.0138  158.5195 H   0  0  0  0  0  0  0  0  0  0  0  0
  151.2787  141.6796  160.0209 H   0  0  0  0  0  0  0  0  0  0  0  0
  151.4580  140.4270  157.6283 H   0  0  0  0  0  0  0  0  0  0  0  0
  152.9578  141.2668  157.5480 H   0  0  0  0  0  0  0  0  0  0  0  0
  152.1604  138.0660  158.1124 H   0  0  0  0  0  0  0  0  0  0  0  0
  157.4590  137.7316  162.2270 H   0  0  0  0  0  0  0  0  0  0  0  0
  157.2936  137.8783  164.9257 H   0  0  0  0  0  0  0  0  0  0  0  0
  156.6733  139.2605  164.0192 H   0  0  0  0  0  0  0  0  0  0  0  0
  155.0438  137.4293  165.6152 H   0  0  0  0  0  0  0  0  0  0  0  0
  154.5119  138.7831  164.6359 H   0  0  0  0  0  0  0  0  0  0  0  0
  153.5663  136.8563  163.4031 H   0  0  0  0  0  0  0  0  0  0  0  0
  154.9126  134.9234  162.7782 H   0  0  0  0  0  0  0  0  0  0  0  0
  154.1491  134.8600  165.2648 H   0  0  0  0  0  0  0  0  0  0  0  0
  155.3617  133.7040  164.7749 H   0  0  0  0  0  0  0  0  0  0  0  0
  155.6919  136.1187  166.1814 H   0  0  0  0  0  0  0  0  0  0  0  0
  157.0906  135.3317  162.3259 H   0  0  0  0  0  0  0  0  0  0  0  0
  157.4877  135.7095  164.0020 H   0  0  0  0  0  0  0  0  0  0  0  0
  155.1110  141.8697  162.3853 H   0  0  0  0  0  0  0  0  0  0  0  0
  153.6454  142.7583  159.4151 H   0  0  0  0  0  0  0  0  0  0  0  0
  151.9570  143.4402  161.4624 H   0  0  0  0  0  0  0  0  0  0  0  0
  153.2879  144.4668  160.9807 H   0  0  0  0  0  0  0  0  0  0  0  0
  150.3688  144.8353  160.3570 H   0  0  0  0  0  0  0  0  0  0  0  0
  151.6086  146.0573  160.6539 H   0  0  0  0  0  0  0  0  0  0  0  0
  153.5956  144.9367  158.4716 H   0  0  0  0  0  0  0  0  0  0  0  0
  152.5983  144.0912  157.3150 H   0  0  0  0  0  0  0  0  0  0  0  0
  1  2  1  0  0  0  0
  1 28  1  0  0  0  0
  2  3  1  0  0  0  0
  2 29  1  0  0  0  0
  2 30  1  0  0  0  0
  3  4  1  0  0  0  0
  3 23  1  0  0  0  0
  3 31  1  0  0  0  0
  4  5  1  0  0  0  0
  4 32  1  0  0  0  0
  4 33  1  0  0  0  0
  5 22  1  0  0  0  0
  5  6  1  0  0  0  0
  6  7  2  0  0  0  0
  6 34  1  0  0  0  0
  7  8  1  0  0  0  0
  8 22  2  0  0  0  0
  8  9  1  0  0  0  0
  9 10  1  0  0  0  0
  9 19  2  0  0  0  0
 10 14  1  0  0  0  0
 10 11  1  0  0  0  0
 11 18  1  0  0  0  0
 11 12  1  0  0  0  0
 11 35  1  0  0  0  0
 12 13  1  0  0  0  0
 12 36  1  0  0  0  0
 12 37  1  0  0  0  0
 13 14  1  0  0  0  0
 13 38  1  0  0  0  0
 13 39  1  0  0  0  0
 14 15  1  0  0  0  0
 14 40  1  0  0  0  0
 15 16  1  0  0  0  0
 15 18  1  0  0  0  0
 15 41  1  0  0  0  0
 16 17  1  0  0  0  0
 16 42  1  0  0  0  0
 16 43  1  0  0  0  0
 17 44  1  0  0  0  0
 18 45  1  0  0  0  0
 18 46  1  0  0  0  0
 19 20  1  0  0  0  0
 20 21  2  0  0  0  0
 20 47  1  0  0  0  0
 21 22  1  0  0  0  0
 23 27  1  0  0  0  0
 23 24  1  0  0  0  0
 23 48  1  0  0  0  0
 24 25  1  0  0  0  0
 24 49  1  0  0  0  0
 24 50  1  0  0  0  0
 25 26  1  0  0  0  0
 25 51  1  0  0  0  0
 25 52  1  0  0  0  0
 26 27  1  0  0  0  0
 27 53  1  0  0  0  0
 27 54  1  0  0  0  0
M  END
> <s_m_source_file>
AV-unprocessed.smi

> <i_m_source_file_index>
227

> <i_lp_mmshare_version>
43012

> <i_f3d_flags>
0

> <s_epik_input>
W0NIMl0xT1tDSDJdW0NIMl1bQ0BIXTFbQ0BIXShbQ0gyXVtPSF0pW0NIMl1uKFtjSF1uMiljKGMyMyluW2NIXW5jM04oW0NASF00NSlbQ0BASF0oW0NIMl1bQ0gyXTQpW0NASF0oW0NIMl01KVtDSDJdW09IXQ==

> <s_epik_cmdline>
J2VwaWtfcHl0aG9uJywgJy1waCcsICc3LjAnLCAnLXRuJywgJzgnLCAnLW1hJywgJzIwMCcsICctbWV0YWxfYmluZGluZycsICctaW1hZScsICc8aW5maWxlLm1hZT4nLCAnLW9tYWUnLCAnPG91dGZpbGUubWFlPic=

> <r_lp_tautomer_probability>
1

> <r_epik_Ionization_Penalty>
0.0055791

> <r_epik_Ionization_Penalty_Charging>
0

> <r_epik_Ionization_Penalty_Neutral>
0.0055791

> <r_epik_State_Penalty>
0.00401299

> <r_epik_Charging_Adjusted_Penalty>
0.00401299

> <i_epik_Tot_Q>
0

> <i_epik_Tot_abs_Q>
0

> <r_epik_Metal_State_Penalty>
-0

> <b_epik_Metal_Only>
0

> <s_lp_Force_Field>
OPLS_2005

> <r_lp_Energy>
91.5897

> <b_lp_Chiralities_Consistent>
1

> <s_lp_Variant>
AV-unprocessed.smi:227-8

> <Gold.Version>
5.8.1

> <Gold.Id.Protein>
6NUR|6NUR_protein|mol2

> <Gold.PLP.Fitness>
49.8350

> <Gold.PLP.PLP>
-51.1209

> <Gold.PLP.part.hbond>
-2.0000

> <Gold.PLP.part.metal>
0.0000

> <Gold.PLP.part.buried>
-9.1683

> <Gold.PLP.part.nonpolar>
-40.1802

> <Gold.PLP.part.repulsive>
0.0856

> <Gold.PLP.ligand.clash>
0.0000

> <Gold.PLP.ligand.torsion>
2.3079

> <Gold.PLP.Chemscore.Hbond>
1.0000

> <Gold.PLP.Chemscore.CHOScore>
0.0000

> <Gold.PLP.Chemscore.Metal>
0.0000

> <Gold.Chemscore.Hbonds>
donor molecule, donor type, donor heavy atom, donor atom, acceptor molecule, acceptor atom, score
      L1  H     1    28       P1  8028  1.00

> <Gold.PLP.Chemscore.Internal.Correction>
0.3298

> <Gold.Rescore>
     Score         DG    S(hbond)    S(metal)    S(lipo)     H(rot)  DE(clash)    DE(int)     intcor
      7.62     -14.20       1.00        0.00     125.08       3.61       0.01       6.57       ----

> <Gold.Chemscore.Fitness>
7.6231

> <Gold.Chemscore.DG>
-14.2049

> <Gold.Chemscore.ZeroCoef>
-5.4800

> <Gold.Chemscore.Hbond>
0.9954

> <Gold.Chemscore.Metal>
0.0000

> <Gold.Chemscore.Lipo>
125.0817

> <Gold.Chemscore.Internal_Hbond>
0.0000

> <Gold.Chemscore.DEClash>
0.0139

> <Gold.Chemscore.DEInternal>
6.5679

> <Gold.Chemscore.Rot>
3.6071

> <Gold.Chemscore.Internal.Correction>
   9.000000E+99

> <Gold.Chemscore.Hbonds>
donor molecule, donor type, donor heavy atom, donor atom, acceptor molecule, acceptor atom, score
      L1  H     1    28       P1  8028  0.99

> <Gold.Chemscore.Hbond.Weighted>
-3.3245

> <Gold.Chemscore.Metal.Weighted>
-0.0000

> <Gold.Chemscore.Lipo.Weighted>
-14.6346

> <Gold.Chemscore.Internal_Hbond.Weighted>
0.0000

> <Gold.Chemscore.DEClash.Weighted>
0.0139

> <Gold.Chemscore.DEInternal.Weighted>
6.5679

> <Gold.Chemscore.Rot.Weighted>
9.2342

> <Gold.Chemscore.Internal.Correction.Weighted>
   9.000000E+99

> <Gold.Protein.RotatedTorsions>
[ 6907 6896 6895 6894 ] final   -7.70 input  -60.11 | X-H torsion
[ 7974 7965 7964 7962 ] final    2.66 input  175.53 | X-H torsion
[ 8008 7997 7996 7995 ] final  -94.47 input   59.86 | X-H torsion
[ 10167 10162 10161 10158 ] final  155.40 input  -65.29 | X-H torsion
[ 10718 10713 10712 10709 ] final   80.40 input   66.30 | X-H torsion
[ 10763 10752 10751 10750 ] final  -17.55 input  -60.55 | X-H torsion
[ 11005 11000 10999 10996 ] final   73.29 input  -57.11 | X-H torsion

> <Gold.Protein.ActiveResidues>
 VAL166  LYS551  ARG553  GLY616  TRP617  ASP618  TYR619  PRO620  LYS621  CYS622 
 ASP623  PHE694  ASN695  SER759  ASP760  ASP761  ALA762  ILE779  LEU786  VAL792 
 PHE793  MET794  SER795  GLU796  ALA797  LYS798  CYS799  TRP800  GLU811  SER814 

> <Gold.Protein.RotatedAtoms>
  151.4454  135.1024  159.9682 H   0  0  0  0  0  0  0  0  0  0  0  0  # atno 6907 bound_to 6896
  152.4907  133.8489  159.7202 H   0  0  0  0  0  0  0  0  0  0  0  0  # atno 6908 bound_to 6896
  150.9059  133.7000  159.2894 H   0  0  0  0  0  0  0  0  0  0  0  0  # atno 6909 bound_to 6896
  146.2444  140.0802  142.8357 H   0  0  0  0  0  0  0  0  0  0  0  0  # atno 7974 bound_to 7965
  154.7488  140.0489  157.0875 H   0  0  0  0  0  0  0  0  0  0  0  0  # atno 8008 bound_to 7997
  155.0084  140.3133  155.4820 H   0  0  0  0  0  0  0  0  0  0  0  0  # atno 8009 bound_to 7997
  156.2880  140.2188  156.5197 H   0  0  0  0  0  0  0  0  0  0  0  0  # atno 8010 bound_to 7997
  139.4821  144.5102  151.8037 H   0  0  0  0  0  0  0  0  0  0  0  0  # atno 10167 bound_to 10162
  157.6805  130.9957  150.2073 H   0  0  0  0  0  0  0  0  0  0  0  0  # atno 10718 bound_to 10713
  153.5755  135.7006  153.5486 H   0  0  0  0  0  0  0  0  0  0  0  0  # atno 10763 bound_to 10752
  153.3306  135.4048  155.1492 H   0  0  0  0  0  0  0  0  0  0  0  0  # atno 10764 bound_to 10752
  154.8626  135.3718  154.5280 H   0  0  0  0  0  0  0  0  0  0  0  0  # atno 10765 bound_to 10752
  139.9448  134.7334  156.1008 H   0  0  0  0  0  0  0  0  0  0  0  0  # atno 11005 bound_to 11000
  145.0739  140.9175  143.4865 LP  0  0  0  0  0  0  0  0  0  0  0  0  # atno 17320 bound_to 7965
  145.0942  139.2868  143.5719 LP  0  0  0  0  0  0  0  0  0  0  0  0  # atno 17321 bound_to 7965
  140.4604  144.1730  150.5906 LP  0  0  0  0  0  0  0  0  0  0  0  0  # atno 17342 bound_to 10162
  140.4491  143.2494  151.9372 LP  0  0  0  0  0  0  0  0  0  0  0  0  # atno 17343 bound_to 10162
  156.2751  130.3726  149.7991 LP  0  0  0  0  0  0  0  0  0  0  0  0  # atno 17370 bound_to 10713
  156.5696  130.8419  151.3353 LP  0  0  0  0  0  0  0  0  0  0  0  0  # atno 17371 bound_to 10713
  141.1094  133.6648  156.2942 LP  0  0  0  0  0  0  0  0  0  0  0  0  # atno 17394 bound_to 11000
  140.5863  134.5695  157.5490 LP  0  0  0  0  0  0  0  0  0  0  0  0  # atno 17395 bound_to 11000

$$$$
