AV-unprocessed.smi:2510|AV-procd|sdf|9878|dock8
  -GOLD-   2272013513D 1   1.00000     0.00000
 Structure written by MMmdl.
 48 49  0  0  0  0  0  0  0  0  1 V2000
  148.9575  142.2923  158.0420 C   0  0  0  0  0  0  0  0  0  0  0  0
  149.5121  140.8610  157.9628 C   0  0  0  0  0  0  0  0  0  0  0  0
  150.9528  140.7408  157.3971 C   0  0  0  0  0  0  0  0  0  0  0  0
  151.8365  141.8144  158.0789 C   0  0  0  0  0  0  0  0  0  0  0  0
  152.3115  141.4673  159.5001 C   0  0  0  0  0  0  0  0  0  0  0  0
  151.6128  139.3274  157.3474 C   0  0  1  0  0  0  0  0  0  0  0  0
  150.6526  138.2274  157.2897 N   0  0  0  0  0  0  0  0  0  0  0  0
  150.6980  137.1140  158.0356 C   0  0  0  0  0  0  0  0  0  0  0  0
  151.6346  136.8341  158.7827 O   0  0  0  0  0  0  0  0  0  0  0  0
  149.4786  136.1944  157.9459 C   0  0  0  0  0  0  0  0  0  0  0  0
  148.6252  136.3368  159.1677 C   0  0  0  0  0  0  0  0  0  0  0  0
  148.3756  135.4734  160.1983 C   0  0  0  0  0  0  0  0  0  0  0  0
  147.4325  136.1621  161.0151 C   0  0  0  0  0  0  0  0  0  0  0  0
  146.7734  135.6812  162.2736 C   0  0  0  0  0  0  0  0  0  0  0  0
  147.1380  137.3645  160.5436 N   0  0  0  0  0  0  0  0  0  0  0  0
  147.8714  137.4607  159.4191 N   0  0  0  0  0  0  0  0  0  0  0  0
  152.1695  139.6622  155.9520 C   0  0  1  0  0  0  0  0  0  0  0  0
  152.3289  138.5843  154.8814 C   0  0  0  0  0  0  0  0  0  0  0  0
  151.0670  140.7324  155.8479 C   0  0  1  0  0  0  0  0  0  0  0  0
  149.8818  140.2355  155.2337 O   0  0  0  0  0  0  0  0  0  0  0  0
  149.0188  141.2582  154.7690 C   0  0  0  0  0  0  0  0  0  0  0  0
  147.8361  138.2820  158.8320 H   0  0  0  0  0  0  0  0  0  0  0  0
  147.9045  142.2761  158.3227 H   0  0  0  0  0  0  0  0  0  0  0  0
  149.0329  142.8021  157.0815 H   0  0  0  0  0  0  0  0  0  0  0  0
  149.4776  142.8922  158.7879 H   0  0  0  0  0  0  0  0  0  0  0  0
  149.4355  140.3858  158.9402 H   0  0  0  0  0  0  0  0  0  0  0  0
  148.8135  140.3038  157.3405 H   0  0  0  0  0  0  0  0  0  0  0  0
  152.7296  141.9917  157.4801 H   0  0  0  0  0  0  0  0  0  0  0  0
  151.3322  142.7799  158.0945 H   0  0  0  0  0  0  0  0  0  0  0  0
  153.0277  142.2092  159.8534 H   0  0  0  0  0  0  0  0  0  0  0  0
  152.8023  140.4949  159.5354 H   0  0  0  0  0  0  0  0  0  0  0  0
  151.4878  141.4553  160.2131 H   0  0  0  0  0  0  0  0  0  0  0  0
  152.4052  139.1755  158.0815 H   0  0  0  0  0  0  0  0  0  0  0  0
  149.8402  138.3704  156.7071 H   0  0  0  0  0  0  0  0  0  0  0  0
  148.9045  136.4485  157.0545 H   0  0  0  0  0  0  0  0  0  0  0  0
  149.8037  135.1598  157.8285 H   0  0  0  0  0  0  0  0  0  0  0  0
  148.7853  134.4836  160.3343 H   0  0  0  0  0  0  0  0  0  0  0  0
  147.1289  134.6883  162.5494 H   0  0  0  0  0  0  0  0  0  0  0  0
  145.6916  135.6225  162.1505 H   0  0  0  0  0  0  0  0  0  0  0  0
  146.9796  136.3520  163.1076 H   0  0  0  0  0  0  0  0  0  0  0  0
  153.1260  140.1701  156.0853 H   0  0  0  0  0  0  0  0  0  0  0  0
  151.3830  138.0965  154.6454 H   0  0  0  0  0  0  0  0  0  0  0  0
  153.0244  137.8103  155.2058 H   0  0  0  0  0  0  0  0  0  0  0  0
  152.7187  139.0065  153.9552 H   0  0  0  0  0  0  0  0  0  0  0  0
  151.4009  141.6884  155.4401 H   0  0  0  0  0  0  0  0  0  0  0  0
  148.1545  140.8098  154.2794 H   0  0  0  0  0  0  0  0  0  0  0  0
  149.5164  141.9080  154.0491 H   0  0  0  0  0  0  0  0  0  0  0  0
  148.6567  141.8682  155.5973 H   0  0  0  0  0  0  0  0  0  0  0  0
  1  2  1  0  0  0  0
  1 23  1  0  0  0  0
  1 24  1  0  0  0  0
  1 25  1  0  0  0  0
  2  3  1  0  0  0  0
  2 26  1  0  0  0  0
  2 27  1  0  0  0  0
  3 19  1  0  0  0  0
  3  4  1  0  0  0  0
  3  6  1  0  0  0  0
  4  5  1  0  0  0  0
  4 28  1  0  0  0  0
  4 29  1  0  0  0  0
  5 30  1  0  0  0  0
  5 31  1  0  0  0  0
  5 32  1  0  0  0  0
  6  7  1  0  0  0  0
  6 17  1  0  0  0  0
  6 33  1  0  0  0  0
  7  8  1  0  0  0  0
  7 34  1  0  0  0  0
  8  9  2  0  0  0  0
  8 10  1  0  0  0  0
 10 35  1  0  0  0  0
 10 36  1  0  0  0  0
 10 11  1  0  0  0  0
 11 16  1  0  0  0  0
 11 12  2  0  0  0  0
 12 13  1  0  0  0  0
 12 37  1  0  0  0  0
 13 14  1  0  0  0  0
 13 15  2  0  0  0  0
 14 38  1  0  0  0  0
 14 39  1  0  0  0  0
 14 40  1  0  0  0  0
 15 16  1  0  0  0  0
 16 22  1  0  0  0  0
 17 18  1  0  0  0  0
 17 19  1  0  0  0  0
 17 41  1  0  0  0  0
 18 42  1  0  0  0  0
 18 43  1  0  0  0  0
 18 44  1  0  0  0  0
 19 20  1  0  0  0  0
 19 45  1  0  0  0  0
 20 21  1  0  0  0  0
 21 46  1  0  0  0  0
 21 47  1  0  0  0  0
 21 48  1  0  0  0  0
M  END
> <s_m_source_file>
AV-unprocessed.smi

> <i_m_source_file_index>
2510

> <i_lp_mmshare_version>
43012

> <i_f3d_flags>
0

> <s_epik_input>
W0NIM11PW0NAQEhdMVtDQEhdKFtDSDNdKVtDQEBIXShDMShbQ0gyXVtDSDNdKVtDSDJdW0NIM10pW05IXUMoPU8pW0NIMl1jMltjSF1jKFtDSDNdKVtuSF1uMg==

> <s_epik_cmdline>
J2VwaWtfcHl0aG9uJywgJy1waCcsICc3LjAnLCAnLXRuJywgJzgnLCAnLW1hJywgJzIwMCcsICctbWV0YWxfYmluZGluZycsICctaW1hZScsICc8aW5maWxlLm1hZT4nLCAnLW9tYWUnLCAnPG91dGZpbGUubWFlPic=

> <r_lp_tautomer_probability>
0.5

> <r_epik_Ionization_Penalty>
0.000134763

> <r_epik_Ionization_Penalty_Charging>
0

> <r_epik_Ionization_Penalty_Neutral>
0.000134763

> <r_epik_State_Penalty>
0.41068

> <r_epik_Charging_Adjusted_Penalty>
0.41068

> <i_epik_Tot_Q>
0

> <i_epik_Tot_abs_Q>
0

> <r_epik_Metal_State_Penalty>
0.410661

> <b_epik_Metal_Only>
0

> <s_lp_Force_Field>
OPLS_2005

> <r_lp_Energy>
25.663

> <b_lp_Chiralities_Consistent>
1

> <s_lp_Variant>
AV-unprocessed.smi:2510-9

> <Gold.Version>
5.8.1

> <Gold.Id.Protein>
6NUR|6NUR_protein|mol2

> <Gold.PLP.Fitness>
37.8081

> <Gold.PLP.PLP>
-34.2116

> <Gold.PLP.part.hbond>
-2.1322

> <Gold.PLP.part.metal>
0.0000

> <Gold.PLP.part.buried>
-4.8864

> <Gold.PLP.part.nonpolar>
-28.2410

> <Gold.PLP.part.repulsive>
1.1091

> <Gold.PLP.ligand.clash>
0.0000

> <Gold.PLP.ligand.torsion>
1.1734

> <Gold.PLP.Chemscore.Hbond>
1.7620

> <Gold.PLP.Chemscore.CHOScore>
0.0000

> <Gold.PLP.Chemscore.Metal>
0.0000

> <Gold.Chemscore.Hbonds>
donor molecule, donor type, donor heavy atom, donor atom, acceptor molecule, acceptor atom, score
      P1  H  6896  6908       L1     9  0.86
      P1  H  6934  6947       L1    15  0.80

> <Gold.PLP.Chemscore.Internal.Correction>
0.6571

> <Gold.Rescore>
     Score         DG    S(hbond)    S(metal)    S(lipo)     H(rot)  DE(clash)    DE(int)     intcor
     13.95     -15.31       1.29        0.00      86.73       1.81       0.12       1.24       ----

> <Gold.Chemscore.Fitness>
13.9511

> <Gold.Chemscore.DG>
-15.3115

> <Gold.Chemscore.ZeroCoef>
-5.4800

> <Gold.Chemscore.Hbond>
1.2930

> <Gold.Chemscore.Metal>
0.0000

> <Gold.Chemscore.Lipo>
86.7267

> <Gold.Chemscore.Internal_Hbond>
0.0000

> <Gold.Chemscore.DEClash>
0.1206

> <Gold.Chemscore.DEInternal>
1.2398

> <Gold.Chemscore.Rot>
1.8102

> <Gold.Chemscore.Internal.Correction>
   9.000000E+99

> <Gold.Chemscore.Hbonds>
donor molecule, donor type, donor heavy atom, donor atom, acceptor molecule, acceptor atom, score
      P1  H  6896  6908       L1     9  0.74
      P1  H  6934  6947       L1    15  0.12

> <Gold.Chemscore.Hbond.Weighted>
-4.3186

> <Gold.Chemscore.Metal.Weighted>
-0.0000

> <Gold.Chemscore.Lipo.Weighted>
-10.1470

> <Gold.Chemscore.Internal_Hbond.Weighted>
0.0000

> <Gold.Chemscore.DEClash.Weighted>
0.1206

> <Gold.Chemscore.DEInternal.Weighted>
1.2398

> <Gold.Chemscore.Rot.Weighted>
4.6341

> <Gold.Chemscore.Internal.Correction.Weighted>
   9.000000E+99

> <Gold.Protein.RotatedTorsions>
[ 6907 6896 6895 6894 ] final -130.48 input  -60.11 | X-H torsion
[ 7974 7965 7964 7962 ] final    2.50 input  175.53 | X-H torsion
[ 8008 7997 7996 7995 ] final   20.15 input   59.86 | X-H torsion
[ 10167 10162 10161 10158 ] final    3.50 input  -65.29 | X-H torsion
[ 10718 10713 10712 10709 ] final  -53.48 input   66.30 | X-H torsion
[ 10763 10752 10751 10750 ] final   81.53 input  -60.55 | X-H torsion
[ 11005 11000 10999 10996 ] final  111.30 input  -57.11 | X-H torsion

> <Gold.Protein.ActiveResidues>
 VAL166  LYS551  ARG553  GLY616  TRP617  ASP618  TYR619  PRO620  LYS621  CYS622 
 ASP623  PHE694  ASN695  SER759  ASP760  ASP761  ALA762  ILE779  LEU786  VAL792 
 PHE793  MET794  SER795  GLU796  ALA797  LYS798  CYS799  TRP800  GLU811  SER814 

> <Gold.Protein.RotatedAtoms>
  150.9402  133.6665  159.2792 H   0  0  0  0  0  0  0  0  0  0  0  0  # atno 6907 bound_to 6896
  151.4056  135.0976  159.9579 H   0  0  0  0  0  0  0  0  0  0  0  0  # atno 6908 bound_to 6896
  152.5066  133.8887  159.7437 H   0  0  0  0  0  0  0  0  0  0  0  0  # atno 6909 bound_to 6896
  146.2444  140.0827  142.8356 H   0  0  0  0  0  0  0  0  0  0  0  0  # atno 7974 bound_to 7965
  154.9314  140.3041  155.5166 H   0  0  0  0  0  0  0  0  0  0  0  0  # atno 8008 bound_to 7997
  156.3003  140.2353  156.4311 H   0  0  0  0  0  0  0  0  0  0  0  0  # atno 8009 bound_to 7997
  154.8234  140.0422  157.1415 H   0  0  0  0  0  0  0  0  0  0  0  0  # atno 8010 bound_to 7997
  140.6582  143.7371  150.7692 H   0  0  0  0  0  0  0  0  0  0  0  0  # atno 10167 bound_to 10162
  156.1531  130.4151  149.9912 H   0  0  0  0  0  0  0  0  0  0  0  0  # atno 10718 bound_to 10713
  153.1125  135.4762  154.9059 H   0  0  0  0  0  0  0  0  0  0  0  0  # atno 10763 bound_to 10752
  154.7495  135.3102  154.8586 H   0  0  0  0  0  0  0  0  0  0  0  0  # atno 10764 bound_to 10752
  153.9171  135.6859  153.4802 H   0  0  0  0  0  0  0  0  0  0  0  0  # atno 10765 bound_to 10752
  139.8901  134.9505  156.6412 H   0  0  0  0  0  0  0  0  0  0  0  0  # atno 11005 bound_to 11000
  145.0719  140.9161  143.4877 LP  0  0  0  0  0  0  0  0  0  0  0  0  # atno 17320 bound_to 7965
  145.0963  139.2854  143.5709 LP  0  0  0  0  0  0  0  0  0  0  0  0  # atno 17321 bound_to 7965
  140.1035  143.4765  152.2411 LP  0  0  0  0  0  0  0  0  0  0  0  0  # atno 17342 bound_to 10162
  139.5810  144.7510  151.3640 LP  0  0  0  0  0  0  0  0  0  0  0  0  # atno 17343 bound_to 10162
  156.7764  130.9205  151.3645 LP  0  0  0  0  0  0  0  0  0  0  0  0  # atno 17370 bound_to 10713
  157.6673  130.9019  149.9961 LP  0  0  0  0  0  0  0  0  0  0  0  0  # atno 17371 bound_to 10713
  140.7592  133.8832  155.8405 LP  0  0  0  0  0  0  0  0  0  0  0  0  # atno 17394 bound_to 11000
  140.9936  134.1245  157.4385 LP  0  0  0  0  0  0  0  0  0  0  0  0  # atno 17395 bound_to 11000

$$$$
