AV-unprocessed.smi:283|AV-procd|sdf|2154|dock4
  -GOLD-   2262021493D 1   1.00000     0.00000
 Structure written by MMmdl.
 48 51  0  0  0  0  0  0  0  0  1 V2000
  151.4734  142.7513  157.7120 C   0  0  0  0  0  0  0  0  0  0  0  0
  151.2109  141.4863  158.5402 C   0  0  1  0  0  0  0  0  0  0  0  0
  150.8023  140.3959  157.6571 N   0  0  0  0  0  0  0  0  0  0  0  0
  149.6108  140.4191  157.0193 C   0  0  0  0  0  0  0  0  0  0  0  0
  148.8104  141.4694  157.3188 N   0  0  0  0  0  0  0  0  0  0  0  0
  147.6197  141.5952  156.7272 C   0  0  0  0  0  0  0  0  0  0  0  0
  147.0489  140.7953  155.8259 N   0  0  0  0  0  0  0  0  0  0  0  0
  147.8405  139.7251  155.5267 C   0  0  0  0  0  0  0  0  0  0  0  0
  149.1264  139.4600  156.0807 C   0  0  0  0  0  0  0  0  0  0  0  0
  149.6157  138.2714  155.5519 N   0  0  0  0  0  0  0  0  0  0  0  0
  148.6862  137.8737  154.7282 C   0  0  0  0  0  0  0  0  0  0  0  0
  147.5801  138.6881  154.6509 N   0  0  0  0  0  0  0  0  0  0  0  0
  146.3658  138.4826  153.7952 C   0  0  2  0  0  0  0  0  0  0  0  0
  145.9529  137.1501  153.8849 O   0  0  0  0  0  0  0  0  0  0  0  0
  145.9367  136.5433  152.5937 C   0  0  1  0  0  0  0  0  0  0  0  0
  144.8174  135.4911  152.5471 C   0  0  0  0  0  0  0  0  0  0  0  0
  143.5649  136.0813  152.8221 O   0  0  0  0  0  0  0  0  0  0  0  0
  145.7537  137.7300  151.6432 C   0  0  2  0  0  0  0  0  0  0  0  0
  146.1536  137.4637  150.3125 O   0  0  0  0  0  0  0  0  0  0  0  0
  146.6021  138.8054  152.3070 C   0  0  2  0  0  0  0  0  0  0  0  0
  147.9669  138.7422  151.9205 O   0  0  0  0  0  0  0  0  0  0  0  0
  152.4183  141.1729  159.4291 C   0  0  0  0  0  0  0  0  0  0  0  0
  153.0671  139.9203  159.3224 C   0  0  0  0  0  0  0  0  0  0  0  0
  154.1746  139.6129  160.1345 C   0  0  0  0  0  0  0  0  0  0  0  0
  154.6522  140.5590  161.0586 C   0  0  0  0  0  0  0  0  0  0  0  0
  154.0252  141.8142  161.1629 C   0  0  0  0  0  0  0  0  0  0  0  0
  152.9164  142.1279  160.3514 C   0  0  0  0  0  0  0  0  0  0  0  0
  152.1972  143.6924  160.5119 Cl  0  0  0  0  0  0  0  0  0  0  0  0
  145.6004  139.1158  154.2459 H   0  0  0  0  0  0  0  0  0  0  0  0
  146.9080  136.0735  152.4302 H   0  0  0  0  0  0  0  0  0  0  0  0
  144.7087  138.0441  151.6443 H   0  0  0  0  0  0  0  0  0  0  0  0
  146.2311  139.8069  152.0874 H   0  0  0  0  0  0  0  0  0  0  0  0
  151.6950  143.6028  158.3563 H   0  0  0  0  0  0  0  0  0  0  0  0
  150.6037  143.0148  157.1095 H   0  0  0  0  0  0  0  0  0  0  0  0
  152.3188  142.6162  157.0367 H   0  0  0  0  0  0  0  0  0  0  0  0
  150.3504  141.6992  159.1719 H   0  0  0  0  0  0  0  0  0  0  0  0
  151.3187  139.5377  157.7843 H   0  0  0  0  0  0  0  0  0  0  0  0
  147.0425  142.4614  157.0151 H   0  0  0  0  0  0  0  0  0  0  0  0
  148.7828  136.9654  154.1515 H   0  0  0  0  0  0  0  0  0  0  0  0
  144.7681  135.0456  151.5531 H   0  0  0  0  0  0  0  0  0  0  0  0
  145.0076  134.6821  153.2530 H   0  0  0  0  0  0  0  0  0  0  0  0
  143.2743  136.5436  152.0509 H   0  0  0  0  0  0  0  0  0  0  0  0
  145.4647  137.7539  149.7339 H   0  0  0  0  0  0  0  0  0  0  0  0
  148.1577  137.8602  151.6398 H   0  0  0  0  0  0  0  0  0  0  0  0
  152.7160  139.1825  158.6160 H   0  0  0  0  0  0  0  0  0  0  0  0
  154.6573  138.6505  160.0474 H   0  0  0  0  0  0  0  0  0  0  0  0
  155.5016  140.3249  161.6834 H   0  0  0  0  0  0  0  0  0  0  0  0
  154.3993  142.5411  161.8688 H   0  0  0  0  0  0  0  0  0  0  0  0
  1  2  1  0  0  0  0
  1 33  1  0  0  0  0
  1 34  1  0  0  0  0
  1 35  1  0  0  0  0
  2  3  1  0  0  0  0
  2 22  1  0  0  0  0
  2 36  1  0  0  0  0
  3  4  1  0  0  0  0
  3 37  1  0  0  0  0
  4  9  1  0  0  0  0
  4  5  2  0  0  0  0
  5  6  1  0  0  0  0
  6  7  2  0  0  0  0
  6 38  1  0  0  0  0
  7  8  1  0  0  0  0
  8 12  1  0  0  0  0
  8  9  2  0  0  0  0
  9 10  1  0  0  0  0
 10 11  2  0  0  0  0
 11 12  1  0  0  0  0
 11 39  1  0  0  0  0
 12 13  1  0  0  0  0
 13 29  1  0  0  0  0
 13 20  1  0  0  0  0
 13 14  1  0  0  0  0
 14 15  1  0  0  0  0
 15 30  1  0  0  0  0
 15 16  1  0  0  0  0
 15 18  1  0  0  0  0
 16 17  1  0  0  0  0
 16 40  1  0  0  0  0
 16 41  1  0  0  0  0
 17 42  1  0  0  0  0
 18 31  1  0  0  0  0
 18 19  1  0  0  0  0
 18 20  1  0  0  0  0
 19 43  1  0  0  0  0
 20 32  1  0  0  0  0
 20 21  1  0  0  0  0
 21 44  1  0  0  0  0
 22 27  1  0  0  0  0
 22 23  2  0  0  0  0
 23 24  1  0  0  0  0
 23 45  1  0  0  0  0
 24 25  2  0  0  0  0
 24 46  1  0  0  0  0
 25 26  1  0  0  0  0
 25 47  1  0  0  0  0
 26 27  2  0  0  0  0
 26 48  1  0  0  0  0
 27 28  1  0  0  0  0
M  END
> <s_m_source_file>
AV-unprocessed.smi

> <i_m_source_file_index>
283

> <i_lp_mmshare_version>
43012

> <i_f3d_flags>
0

> <s_epik_input>
Q2xjMVtjSF1bY0hdW2NIXVtjSF1jMVtDQEhdKFtDSDNdKVtOSF1jKG5bY0hdbjIpYyhjMjMpbltjSF1uM1tDQEBIXTRPW0NASF0oW0NIMl1bT0hdKVtDQEBIXShbT0hdKVtDQEhdNFtPSF0=

> <s_epik_cmdline>
J2VwaWtfcHl0aG9uJywgJy1waCcsICc3LjAnLCAnLXRuJywgJzgnLCAnLW1hJywgJzIwMCcsICctbWV0YWxfYmluZGluZycsICctaW1hZScsICc8aW5maWxlLm1hZT4nLCAnLW9tYWUnLCAnPG91dGZpbGUubWFlPic=

> <r_lp_tautomer_probability>
1

> <r_epik_Ionization_Penalty>
0.000266407

> <r_epik_Ionization_Penalty_Charging>
0

> <r_epik_Ionization_Penalty_Neutral>
0.000266407

> <r_epik_State_Penalty>
-0

> <r_epik_Charging_Adjusted_Penalty>
0

> <i_epik_Tot_Q>
0

> <i_epik_Tot_abs_Q>
0

> <r_epik_Metal_State_Penalty>
-0

> <b_epik_Metal_Only>
0

> <s_epik_Chemistry_Notes>
This compound contains an acetal/aminal-like group ( X-CH(R)-Y where X, Y are N, S, or O) that may be acid/base labile, releasing an aldehyde.

> <s_lp_Force_Field>
OPLS_2005

> <r_lp_Energy>
52.4072

> <b_lp_Chiralities_Consistent>
1

> <s_lp_Variant>
AV-unprocessed.smi:283-30

> <Gold.Version>
5.8.1

> <Gold.Id.Protein>
6NUR|6NUR_protein|mol2

> <Gold.PLP.Fitness>
47.9008

> <Gold.PLP.PLP>
-38.1463

> <Gold.PLP.part.hbond>
-3.6912

> <Gold.PLP.part.metal>
0.0000

> <Gold.PLP.part.buried>
-2.0188

> <Gold.PLP.part.nonpolar>
-32.9756

> <Gold.PLP.part.repulsive>
0.3820

> <Gold.PLP.ligand.clash>
0.0000

> <Gold.PLP.ligand.torsion>
0.5150

> <Gold.PLP.Chemscore.Hbond>
2.5520

> <Gold.PLP.Chemscore.CHOScore>
1.0000

> <Gold.PLP.Chemscore.Metal>
0.0000

> <Gold.Chemscore.Hbonds>
donor molecule, donor type, donor heavy atom, donor atom, acceptor molecule, acceptor atom, score
      L1  H    19    43       P1 10171  0.82
      L1  H    21    44       P1  7948  1.00
      P1  H  7954  7966       L1    19  0.69
      L1  C    11    39       P1  7948  1.00

> <Gold.PLP.Chemscore.Internal.Correction>
0.1284

> <Gold.Rescore>
     Score         DG    S(hbond)    S(metal)    S(lipo)     H(rot)  DE(clash)    DE(int)     intcor
     15.23     -16.83       2.80        0.00     106.76       4.10       0.19       1.41       ----

> <Gold.Chemscore.Fitness>
15.2255

> <Gold.Chemscore.DG>
-16.8278

> <Gold.Chemscore.ZeroCoef>
-5.4800

> <Gold.Chemscore.Hbond>
2.7980

> <Gold.Chemscore.Metal>
0.0000

> <Gold.Chemscore.Lipo>
106.7558

> <Gold.Chemscore.Internal_Hbond>
0.0000

> <Gold.Chemscore.DEClash>
0.1902

> <Gold.Chemscore.DEInternal>
1.4121

> <Gold.Chemscore.Rot>
4.0968

> <Gold.Chemscore.Internal.Correction>
   9.000000E+99

> <Gold.Chemscore.Hbonds>
donor molecule, donor type, donor heavy atom, donor atom, acceptor molecule, acceptor atom, score
      L1  H    19    43       P1 10171  0.81
      L1  H    21    44       P1  7948  0.97
      P1  H  7954  7966       L1    19  0.61

> <Gold.Chemscore.Hbond.Weighted>
-9.3453

> <Gold.Chemscore.Metal.Weighted>
-0.0000

> <Gold.Chemscore.Lipo.Weighted>
-12.4904

> <Gold.Chemscore.Internal_Hbond.Weighted>
0.0000

> <Gold.Chemscore.DEClash.Weighted>
0.1902

> <Gold.Chemscore.DEInternal.Weighted>
1.4121

> <Gold.Chemscore.Rot.Weighted>
10.4879

> <Gold.Chemscore.Internal.Correction.Weighted>
   9.000000E+99

> <Gold.Protein.RotatedTorsions>
[ 6907 6896 6895 6894 ] final   -4.30 input  -60.11 | X-H torsion
[ 7974 7965 7964 7962 ] final -159.42 input  175.53 | X-H torsion
[ 8008 7997 7996 7995 ] final  -17.55 input   59.86 | X-H torsion
[ 10167 10162 10161 10158 ] final  -33.36 input  -65.29 | X-H torsion
[ 10718 10713 10712 10709 ] final -153.13 input   66.30 | X-H torsion
[ 10763 10752 10751 10750 ] final   56.73 input  -60.55 | X-H torsion
[ 11005 11000 10999 10996 ] final  104.10 input  -57.11 | X-H torsion

> <Gold.Protein.ActiveResidues>
 VAL166  LYS551  ARG553  GLY616  TRP617  ASP618  TYR619  PRO620  LYS621  CYS622 
 ASP623  PHE694  ASN695  SER759  ASP760  ASP761  ALA762  ILE779  LEU786  VAL792 
 PHE793  MET794  SER795  GLU796  ALA797  LYS798  CYS799  TRP800  GLU811  SER814 

> <Gold.Protein.RotatedAtoms>
  151.4999  135.1061  159.9825 H   0  0  0  0  0  0  0  0  0  0  0  0  # atno 6907 bound_to 6896
  152.4706  133.8017  159.6967 H   0  0  0  0  0  0  0  0  0  0  0  0  # atno 6908 bound_to 6896
  150.8713  133.7438  159.2986 H   0  0  0  0  0  0  0  0  0  0  0  0  # atno 6909 bound_to 6896
  144.7466  140.3687  143.6080 H   0  0  0  0  0  0  0  0  0  0  0  0  # atno 7974 bound_to 7965
  154.4970  140.2140  155.9425 H   0  0  0  0  0  0  0  0  0  0  0  0  # atno 8008 bound_to 7997
  156.1384  140.3184  155.8424 H   0  0  0  0  0  0  0  0  0  0  0  0  # atno 8009 bound_to 7997
  155.4167  140.0494  157.3019 H   0  0  0  0  0  0  0  0  0  0  0  0  # atno 8010 bound_to 7997
  140.7205  143.3626  151.1934 H   0  0  0  0  0  0  0  0  0  0  0  0  # atno 10167 bound_to 10162
  156.4817  130.8306  151.2533 H   0  0  0  0  0  0  0  0  0  0  0  0  # atno 10718 bound_to 10713
  152.9837  135.5666  154.5276 H   0  0  0  0  0  0  0  0  0  0  0  0  # atno 10763 bound_to 10752
  154.4753  135.2786  155.1614 H   0  0  0  0  0  0  0  0  0  0  0  0  # atno 10764 bound_to 10752
  154.3144  135.6281  153.5533 H   0  0  0  0  0  0  0  0  0  0  0  0  # atno 10765 bound_to 10752
  139.8789  134.9288  156.5310 H   0  0  0  0  0  0  0  0  0  0  0  0  # atno 11005 bound_to 11000
  145.7101  139.1682  143.2544 LP  0  0  0  0  0  0  0  0  0  0  0  0  # atno 17320 bound_to 7965
  146.1353  140.7131  142.9393 LP  0  0  0  0  0  0  0  0  0  0  0  0  # atno 17321 bound_to 7965
  139.7181  143.9268  152.2974 LP  0  0  0  0  0  0  0  0  0  0  0  0  # atno 17342 bound_to 10162
  139.9016  144.6909  150.8659 LP  0  0  0  0  0  0  0  0  0  0  0  0  # atno 17343 bound_to 10162
  157.7482  131.0043  150.3070 LP  0  0  0  0  0  0  0  0  0  0  0  0  # atno 17370 bound_to 10713
  156.3515  130.3832  149.7325 LP  0  0  0  0  0  0  0  0  0  0  0  0  # atno 17371 bound_to 10713
  140.8381  133.8227  155.9048 LP  0  0  0  0  0  0  0  0  0  0  0  0  # atno 17394 bound_to 11000
  140.9264  134.2077  157.4893 LP  0  0  0  0  0  0  0  0  0  0  0  0  # atno 17395 bound_to 11000

$$$$
