AV-unprocessed.smi:2599|AV-procd|sdf|10179|dock3
  -GOLD-   2272014193D 1   1.00000     0.00000
 Structure written by MMmdl.
 40 41  0  0  0  0  0  0  0  0  1 V2000
  153.5050  139.0199  158.7340 C   0  0  0  0  0  0  0  0  0  0  0  0
  153.3045  139.3182  157.3567 O   0  0  0  0  0  0  0  0  0  0  0  0
  152.4589  138.5064  156.6294 C   0  0  0  0  0  0  0  0  0  0  0  0
  152.1784  138.8375  155.2920 C   0  0  0  0  0  0  0  0  0  0  0  0
  151.3154  137.9886  154.5785 C   0  0  0  0  0  0  0  0  0  0  0  0
  150.7840  136.8627  155.2415 C   0  0  0  0  0  0  0  0  0  0  0  0
  149.9257  136.0453  154.4596 N   0  0  0  0  0  0  0  0  0  0  0  0
  149.4341  134.8316  154.7642 C   0  0  0  0  0  0  0  0  0  0  0  0
  149.6202  134.2340  155.8245 O   0  0  0  0  0  0  0  0  0  0  0  0
  148.6999  134.3393  153.7555 N   0  0  0  0  0  0  0  0  0  0  0  0
  148.0107  133.0490  153.7533 C   0  0  2  0  0  0  0  0  0  0  0  0
  149.0471  131.9284  153.9641 C   0  0  0  0  0  0  0  0  0  0  0  0
  147.1935  132.8875  152.4444 C   0  0  0  0  0  0  0  0  0  0  0  0
  146.2384  134.0752  152.1958 C   0  0  0  0  0  0  0  0  0  0  0  0
  145.3931  133.8581  150.9305 C   0  0  0  0  0  0  0  0  0  0  0  0
  144.6624  132.6430  151.0372 O   0  0  0  0  0  0  0  0  0  0  0  0
  145.5070  131.5035  151.1378 C   0  0  0  0  0  0  0  0  0  0  0  0
  146.3603  131.5897  152.4140 C   0  0  0  0  0  0  0  0  0  0  0  0
  151.1000  136.6078  156.5375 N   0  0  0  0  0  0  0  0  0  0  0  0
  151.9210  137.4107  157.2221 N   0  0  0  0  0  0  0  0  0  0  0  0
  154.1962  139.7452  159.1630 H   0  0  0  0  0  0  0  0  0  0  0  0
  153.9402  138.0286  158.8683 H   0  0  0  0  0  0  0  0  0  0  0  0
  152.5719  139.0806  159.2958 H   0  0  0  0  0  0  0  0  0  0  0  0
  152.6117  139.7119  154.8292 H   0  0  0  0  0  0  0  0  0  0  0  0
  151.0702  138.1993  153.5476 H   0  0  0  0  0  0  0  0  0  0  0  0
  149.6706  136.4205  153.5583 H   0  0  0  0  0  0  0  0  0  0  0  0
  148.6040  134.9014  152.9225 H   0  0  0  0  0  0  0  0  0  0  0  0
  147.3102  133.0275  154.5905 H   0  0  0  0  0  0  0  0  0  0  0  0
  148.5711  130.9580  154.1002 H   0  0  0  0  0  0  0  0  0  0  0  0
  149.6482  132.1080  154.8560 H   0  0  0  0  0  0  0  0  0  0  0  0
  149.7286  131.8528  153.1161 H   0  0  0  0  0  0  0  0  0  0  0  0
  147.8975  132.8489  151.6113 H   0  0  0  0  0  0  0  0  0  0  0  0
  145.5766  134.2015  153.0536 H   0  0  0  0  0  0  0  0  0  0  0  0
  146.7940  135.0073  152.0929 H   0  0  0  0  0  0  0  0  0  0  0  0
  144.6891  134.6808  150.8058 H   0  0  0  0  0  0  0  0  0  0  0  0
  146.0224  133.8414  150.0395 H   0  0  0  0  0  0  0  0  0  0  0  0
  144.8860  130.6081  151.1633 H   0  0  0  0  0  0  0  0  0  0  0  0
  146.1389  131.4262  150.2514 H   0  0  0  0  0  0  0  0  0  0  0  0
  147.0064  130.7136  152.4603 H   0  0  0  0  0  0  0  0  0  0  0  0
  145.7096  131.5459  153.2884 H   0  0  0  0  0  0  0  0  0  0  0  0
  1  2  1  0  0  0  0
  1 21  1  0  0  0  0
  1 22  1  0  0  0  0
  1 23  1  0  0  0  0
  2  3  1  0  0  0  0
  3 20  1  0  0  0  0
  3  4  2  0  0  0  0
  4  5  1  0  0  0  0
  4 24  1  0  0  0  0
  5  6  2  0  0  0  0
  5 25  1  0  0  0  0
  6  7  1  0  0  0  0
  6 19  1  0  0  0  0
  7  8  1  0  0  0  0
  7 26  1  0  0  0  0
  8  9  2  0  0  0  0
  8 10  1  0  0  0  0
 10 11  1  0  0  0  0
 10 27  1  0  0  0  0
 11 12  1  0  0  0  0
 11 13  1  0  0  0  0
 11 28  1  0  0  0  0
 12 29  1  0  0  0  0
 12 30  1  0  0  0  0
 12 31  1  0  0  0  0
 13 18  1  0  0  0  0
 13 14  1  0  0  0  0
 13 32  1  0  0  0  0
 14 15  1  0  0  0  0
 14 33  1  0  0  0  0
 14 34  1  0  0  0  0
 15 16  1  0  0  0  0
 15 35  1  0  0  0  0
 15 36  1  0  0  0  0
 16 17  1  0  0  0  0
 17 18  1  0  0  0  0
 17 37  1  0  0  0  0
 17 38  1  0  0  0  0
 18 39  1  0  0  0  0
 18 40  1  0  0  0  0
 19 20  2  0  0  0  0
M  END
> <s_m_source_file>
AV-unprocessed.smi

> <i_m_source_file_index>
2599

> <i_lp_mmshare_version>
43012

> <i_f3d_flags>
0

> <s_epik_input>
W0NIM11PYzFbY0hdW2NIXWMobm4xKVtOSF1DKD1PKVtOSF1bQ0BIXShbQ0gzXSlbQ0hdMltDSDJdW0NIMl1PW0NIMl1bQ0gyXTI=

> <s_epik_cmdline>
J2VwaWtfcHl0aG9uJywgJy1waCcsICc3LjAnLCAnLXRuJywgJzgnLCAnLW1hJywgJzIwMCcsICctbWV0YWxfYmluZGluZycsICctaW1hZScsICc8aW5maWxlLm1hZT4nLCAnLW9tYWUnLCAnPG91dGZpbGUubWFlPic=

> <r_lp_tautomer_probability>
1

> <r_epik_Ionization_Penalty>
0.00150063

> <r_epik_Ionization_Penalty_Charging>
0

> <r_epik_Ionization_Penalty_Neutral>
0.00150063

> <r_epik_State_Penalty>
-0

> <r_epik_Charging_Adjusted_Penalty>
0

> <i_epik_Tot_Q>
0

> <i_epik_Tot_abs_Q>
0

> <r_epik_Metal_State_Penalty>
-0

> <b_epik_Metal_Only>
0

> <s_lp_Force_Field>
OPLS_2005

> <r_lp_Energy>
16.4266

> <b_lp_Chiralities_Consistent>
1

> <s_lp_Variant>
AV-unprocessed.smi:2599-1

> <Gold.Version>
5.8.1

> <Gold.Id.Protein>
6NUR|6NUR_protein|mol2

> <Gold.PLP.Fitness>
40.4897

> <Gold.PLP.PLP>
-31.6011

> <Gold.PLP.part.hbond>
-3.4314

> <Gold.PLP.part.metal>
0.0000

> <Gold.PLP.part.buried>
-2.4747

> <Gold.PLP.part.nonpolar>
-25.3898

> <Gold.PLP.part.repulsive>
0.2133

> <Gold.PLP.ligand.clash>
0.0000

> <Gold.PLP.ligand.torsion>
0.0675

> <Gold.PLP.Chemscore.Hbond>
3.0000

> <Gold.PLP.Chemscore.CHOScore>
0.0000

> <Gold.PLP.Chemscore.Metal>
0.0000

> <Gold.Chemscore.Hbonds>
donor molecule, donor type, donor heavy atom, donor atom, acceptor molecule, acceptor atom, score
      L1  H     7    26       P1  7948  1.00
      L1  H    10    27       P1  7948  1.00
      P1  H  7997  8010       L1     2  0.88

> <Gold.PLP.Chemscore.Internal.Correction>
0.0235

> <Gold.Rescore>
     Score         DG    S(hbond)    S(metal)    S(lipo)     H(rot)  DE(clash)    DE(int)     intcor
     14.55     -15.95       2.43        0.00      53.94       1.55       0.00       1.39       ----

> <Gold.Chemscore.Fitness>
14.5542

> <Gold.Chemscore.DG>
-15.9470

> <Gold.Chemscore.ZeroCoef>
-5.4800

> <Gold.Chemscore.Hbond>
2.4317

> <Gold.Chemscore.Metal>
0.0000

> <Gold.Chemscore.Lipo>
53.9398

> <Gold.Chemscore.Internal_Hbond>
0.0000

> <Gold.Chemscore.DEClash>
0.0029

> <Gold.Chemscore.DEInternal>
1.3899

> <Gold.Chemscore.Rot>
1.5492

> <Gold.Chemscore.Internal.Correction>
   9.000000E+99

> <Gold.Chemscore.Hbonds>
donor molecule, donor type, donor heavy atom, donor atom, acceptor molecule, acceptor atom, score
      L1  H     7    26       P1  7948  0.43
      L1  H    10    27       P1  7948  0.39
      P1  H  7997  8010       L1     2  0.16

> <Gold.Chemscore.Hbond.Weighted>
-8.1219

> <Gold.Chemscore.Metal.Weighted>
-0.0000

> <Gold.Chemscore.Lipo.Weighted>
-6.3110

> <Gold.Chemscore.Internal_Hbond.Weighted>
0.0000

> <Gold.Chemscore.DEClash.Weighted>
0.0029

> <Gold.Chemscore.DEInternal.Weighted>
1.3899

> <Gold.Chemscore.Rot.Weighted>
3.9659

> <Gold.Chemscore.Internal.Correction.Weighted>
   9.000000E+99

> <Gold.Protein.RotatedTorsions>
[ 6907 6896 6895 6894 ] final  175.41 input  -60.11 | X-H torsion
[ 7974 7965 7964 7962 ] final -178.24 input  175.53 | X-H torsion
[ 8008 7997 7996 7995 ] final   27.53 input   59.86 | X-H torsion
[ 10167 10162 10161 10158 ] final  101.03 input  -65.29 | X-H torsion
[ 10718 10713 10712 10709 ] final -153.25 input   66.30 | X-H torsion
[ 10763 10752 10751 10750 ] final   41.51 input  -60.55 | X-H torsion
[ 11005 11000 10999 10996 ] final  -52.55 input  -57.11 | X-H torsion

> <Gold.Protein.ActiveResidues>
 VAL166  LYS551  ARG553  GLY616  TRP617  ASP618  TYR619  PRO620  LYS621  CYS622 
 ASP623  PHE694  ASN695  SER759  ASP760  ASP761  ALA762  ILE779  LEU786  VAL792 
 PHE793  MET794  SER795  GLU796  ALA797  LYS798  CYS799  TRP800  GLU811  SER814 

> <Gold.Protein.RotatedAtoms>
  151.7366  133.3320  159.3354 H   0  0  0  0  0  0  0  0  0  0  0  0  # atno 6907 bound_to 6896
  150.7590  134.6315  159.6198 H   0  0  0  0  0  0  0  0  0  0  0  0  # atno 6908 bound_to 6896
  152.3557  134.6945  160.0274 H   0  0  0  0  0  0  0  0  0  0  0  0  # atno 6909 bound_to 6896
  144.7130  140.0899  143.6422 H   0  0  0  0  0  0  0  0  0  0  0  0  # atno 7974 bound_to 7965
  155.0443  140.3173  155.4714 H   0  0  0  0  0  0  0  0  0  0  0  0  # atno 8008 bound_to 7997
  156.2848  140.2157  156.5511 H   0  0  0  0  0  0  0  0  0  0  0  0  # atno 8009 bound_to 7997
  154.7263  140.0485  157.0674 H   0  0  0  0  0  0  0  0  0  0  0  0  # atno 8010 bound_to 7997
  139.7474  144.6994  151.0483 H   0  0  0  0  0  0  0  0  0  0  0  0  # atno 10167 bound_to 10162
  156.4833  130.8313  151.2539 H   0  0  0  0  0  0  0  0  0  0  0  0  # atno 10718 bound_to 10713
  152.9906  135.6159  154.2800 H   0  0  0  0  0  0  0  0  0  0  0  0  # atno 10763 bound_to 10752
  154.2529  135.2785  155.2811 H   0  0  0  0  0  0  0  0  0  0  0  0  # atno 10764 bound_to 10752
  154.5272  135.5798  153.6786 H   0  0  0  0  0  0  0  0  0  0  0  0  # atno 10765 bound_to 10752
  141.0930  133.6629  156.4041 H   0  0  0  0  0  0  0  0  0  0  0  0  # atno 11005 bound_to 11000
  145.9629  139.2814  143.1144 LP  0  0  0  0  0  0  0  0  0  0  0  0  # atno 17320 bound_to 7965
  145.9200  140.9121  143.0410 LP  0  0  0  0  0  0  0  0  0  0  0  0  # atno 17321 bound_to 7965
  140.7794  143.4850  150.9968 LP  0  0  0  0  0  0  0  0  0  0  0  0  # atno 17342 bound_to 10162
  139.8538  143.7403  152.3177 LP  0  0  0  0  0  0  0  0  0  0  0  0  # atno 17343 bound_to 10162
  157.7481  131.0038  150.3050 LP  0  0  0  0  0  0  0  0  0  0  0  0  # atno 17370 bound_to 10713
  156.3500  130.3829  149.7337 LP  0  0  0  0  0  0  0  0  0  0  0  0  # atno 17371 bound_to 10713
  140.5206  134.6307  157.5317 LP  0  0  0  0  0  0  0  0  0  0  0  0  # atno 17394 bound_to 11000
  139.9760  134.7214  155.9949 LP  0  0  0  0  0  0  0  0  0  0  0  0  # atno 17395 bound_to 11000

$$$$
