AV-unprocessed.smi:1570|AV-procd|sdf|6324|dock4
  -GOLD-   22720 6533D 1   1.00000     0.00000
 Structure written by MMmdl.
 52 54  0  0  0  0  0  0  0  0  2 V2000
  155.1225  140.5843  159.9575 C   0  0  0  0  0  0  0  0  0  0  0  0
  153.7152  140.8655  160.4995 C   0  0  0  0  0  0  0  0  0  0  0  0
  152.8909  141.5430  159.5019 N   0  0  0  0  0  0  0  0  0  0  0  0
  152.4967  141.0440  158.3069 C   0  0  0  0  0  0  0  0  0  0  0  0
  152.7922  139.9406  157.8477 O   0  0  0  0  0  0  0  0  0  0  0  0
  151.7205  141.9716  157.6989 N   0  0  0  0  0  0  0  0  0  0  0  0
  151.0818  141.8444  156.3905 C   0  0  0  0  0  0  0  0  0  0  0  0
  149.7044  141.1583  156.4934 C   0  0  2  0  0  0  0  0  0  0  0  0
  149.9044  139.8430  156.9740 O   0  0  0  0  0  0  0  0  0  0  0  0
  149.0174  141.0570  155.1159 C   0  0  0  0  0  0  0  0  0  0  0  0
  147.5744  140.7046  155.2134 N   0  3  1  0  0  0  0  0  0  0  0  0
  146.9718  140.8775  156.5605 C   0  0  0  0  0  0  0  0  0  0  0  0
  146.6549  142.3584  156.8616 C   0  0  2  0  0  0  0  0  0  0  0  0
  145.9059  142.5259  158.1884 C   0  0  0  0  0  0  0  0  0  0  0  0
  145.8355  142.8865  155.8237 O   0  0  0  0  0  0  0  0  0  0  0  0
  146.4607  142.8374  154.5456 C   0  0  2  0  0  0  0  0  0  0  0  0
  145.5331  143.5184  153.5334 C   0  0  0  0  0  0  0  0  0  0  0  0
  146.7342  141.3633  154.1838 C   0  0  0  0  0  0  0  0  0  0  0  0
  151.6215  143.1005  158.5245 C   0  0  0  0  0  0  0  0  0  0  0  0
  150.9469  144.3211  158.3474 C   0  0  0  0  0  0  0  0  0  0  0  0
  151.0452  145.2714  159.3904 C   0  0  0  0  0  0  0  0  0  0  0  0
  151.7965  144.9909  160.5611 C   0  0  0  0  0  0  0  0  0  0  0  0
  152.4673  143.7549  160.7129 C   0  0  0  0  0  0  0  0  0  0  0  0
  152.3554  142.8293  159.6606 C   0  0  0  0  0  0  0  0  0  0  0  0
  155.7316  140.0770  160.7057 H   0  0  0  0  0  0  0  0  0  0  0  0
  155.6326  141.5087  159.6852 H   0  0  0  0  0  0  0  0  0  0  0  0
  155.0853  139.9484  159.0724 H   0  0  0  0  0  0  0  0  0  0  0  0
  153.2360  139.9331  160.7984 H   0  0  0  0  0  0  0  0  0  0  0  0
  153.7813  141.4736  161.4029 H   0  0  0  0  0  0  0  0  0  0  0  0
  150.9611  142.8520  155.9888 H   0  0  0  0  0  0  0  0  0  0  0  0
  151.7339  141.3297  155.6833 H   0  0  0  0  0  0  0  0  0  0  0  0
  149.0707  141.7031  157.1924 H   0  0  0  0  0  0  0  0  0  0  0  0
  149.7318  139.8298  157.9034 H   0  0  0  0  0  0  0  0  0  0  0  0
  149.1321  141.9924  154.5688 H   0  0  0  0  0  0  0  0  0  0  0  0
  149.5387  140.3002  154.5273 H   0  0  0  0  0  0  0  0  0  0  0  0
  146.0468  140.2997  156.5867 H   0  0  0  0  0  0  0  0  0  0  0  0
  147.6088  140.4565  157.3370 H   0  0  0  0  0  0  0  0  0  0  0  0
  147.5774  142.9375  156.9184 H   0  0  0  0  0  0  0  0  0  0  0  0
  146.4939  142.1423  159.0227 H   0  0  0  0  0  0  0  0  0  0  0  0
  144.9549  141.9926  158.1757 H   0  0  0  0  0  0  0  0  0  0  0  0
  145.6952  143.5772  158.3868 H   0  0  0  0  0  0  0  0  0  0  0  0
  147.3975  143.3961  154.5799 H   0  0  0  0  0  0  0  0  0  0  0  0
  145.9717  143.5155  152.5352 H   0  0  0  0  0  0  0  0  0  0  0  0
  145.3494  144.5566  153.8112 H   0  0  0  0  0  0  0  0  0  0  0  0
  144.5686  143.0129  153.4775 H   0  0  0  0  0  0  0  0  0  0  0  0
  147.1998  141.2817  153.2007 H   0  0  0  0  0  0  0  0  0  0  0  0
  145.7886  140.8231  154.1182 H   0  0  0  0  0  0  0  0  0  0  0  0
  150.3770  144.5305  157.4546 H   0  0  0  0  0  0  0  0  0  0  0  0
  150.5417  146.2220  159.2946 H   0  0  0  0  0  0  0  0  0  0  0  0
  151.8573  145.7303  161.3459 H   0  0  0  0  0  0  0  0  0  0  0  0
  153.0403  143.5364  161.6019 H   0  0  0  0  0  0  0  0  0  0  0  0
  147.5387  139.7158  155.0077 H   0  0  0  0  0  0  0  0  0  0  0  0
  1  2  1  0  0  0  0
  1 25  1  0  0  0  0
  1 26  1  0  0  0  0
  1 27  1  0  0  0  0
  2  3  1  0  0  0  0
  2 28  1  0  0  0  0
  2 29  1  0  0  0  0
  3 24  1  0  0  0  0
  3  4  1  0  0  0  0
  4  5  2  0  0  0  0
  4  6  1  0  0  0  0
  6  7  1  0  0  0  0
  6 19  1  0  0  0  0
  7  8  1  0  0  0  0
  7 30  1  0  0  0  0
  7 31  1  0  0  0  0
  8  9  1  0  0  0  0
  8 10  1  0  0  0  0
  8 32  1  0  0  0  0
  9 33  1  0  0  0  0
 10 11  1  0  0  0  0
 10 34  1  0  0  0  0
 10 35  1  0  0  0  0
 11 18  1  0  0  0  0
 11 12  1  0  0  0  0
 11 52  1  0  0  0  0
 12 13  1  0  0  0  0
 12 36  1  0  0  0  0
 12 37  1  0  0  0  0
 13 14  1  0  0  0  0
 13 15  1  0  0  0  0
 13 38  1  0  0  0  0
 14 39  1  0  0  0  0
 14 40  1  0  0  0  0
 14 41  1  0  0  0  0
 15 16  1  0  0  0  0
 16 17  1  0  0  0  0
 16 18  1  0  0  0  0
 16 42  1  0  0  0  0
 17 43  1  0  0  0  0
 17 44  1  0  0  0  0
 17 45  1  0  0  0  0
 18 46  1  0  0  0  0
 18 47  1  0  0  0  0
 19 24  2  0  0  0  0
 19 20  1  0  0  0  0
 20 21  2  0  0  0  0
 20 48  1  0  0  0  0
 21 22  1  0  0  0  0
 21 49  1  0  0  0  0
 22 23  2  0  0  0  0
 22 50  1  0  0  0  0
 23 24  1  0  0  0  0
 23 51  1  0  0  0  0
M  CHG  1  11   1
M  END
> <s_m_source_file>
AV-unprocessed.smi

> <i_m_source_file_index>
1570

> <i_lp_mmshare_version>
43012

> <i_f3d_flags>
0

> <s_epik_input>
W2NIXTFbY0hdW2NIXVtjSF1jKGMxMiluKFtDSDJdW0NIM10pYyg9TyluMltDSDJdW0NASF0oW09IXSlbQ0gyXU4zW0NIMl1bQ0BASF0oW0NIM10pT1tDQEBIXShbQ0gzXSlbQ0gyXTM=

> <s_epik_cmdline>
J2VwaWtfcHl0aG9uJywgJy1waCcsICc3LjAnLCAnLXRuJywgJzgnLCAnLW1hJywgJzIwMCcsICctbWV0YWxfYmluZGluZycsICctaW1hZScsICc8aW5maWxlLm1hZT4nLCAnLW9tYWUnLCAnPG91dGZpbGUubWFlPic=

> <r_epik_Ionization_Penalty>
0.706332

> <r_epik_Ionization_Penalty_Charging>
0.706318

> <r_epik_Ionization_Penalty_Neutral>
1.42224e-05

> <r_epik_State_Penalty>
0.729493

> <r_epik_Charging_Adjusted_Penalty>
1.43581

> <i_epik_Tot_Q>
1

> <i_epik_Tot_abs_Q>
1

> <r_epik_Metal_State_Penalty>
0.729493

> <b_epik_Metal_Only>
0

> <s_lp_Force_Field>
OPLS_2005

> <r_lp_Energy>
54.3222

> <b_lp_Chiralities_Consistent>
1

> <s_lp_Variant>
AV-unprocessed.smi:1570-13

> <Gold.Version>
5.8.1

> <Gold.Id.Protein>
6NUR|6NUR_protein|mol2

> <Gold.PLP.Fitness>
51.4661

> <Gold.PLP.PLP>
-50.4738

> <Gold.PLP.part.hbond>
-1.0000

> <Gold.PLP.part.metal>
0.0000

> <Gold.PLP.part.buried>
-7.2754

> <Gold.PLP.part.nonpolar>
-42.4167

> <Gold.PLP.part.repulsive>
0.1738

> <Gold.PLP.ligand.clash>
0.0814

> <Gold.PLP.ligand.torsion>
1.0353

> <Gold.PLP.Chemscore.Hbond>
1.0000

> <Gold.PLP.Chemscore.CHOScore>
0.0000

> <Gold.PLP.Chemscore.Metal>
0.0000

> <Gold.Chemscore.Hbonds>
donor molecule, donor type, donor heavy atom, donor atom, acceptor molecule, acceptor atom, score
      P1  H  7997  8009       L1     5  1.00

> <Gold.PLP.Chemscore.Internal.Correction>
0.1444

> <Gold.Rescore>
     Score         DG    S(hbond)    S(metal)    S(lipo)     H(rot)  DE(clash)    DE(int)     intcor
     17.19     -18.29       0.91        0.00     130.12       2.13       0.06       1.04       ----

> <Gold.Chemscore.Fitness>
17.1933

> <Gold.Chemscore.DG>
-18.2858

> <Gold.Chemscore.ZeroCoef>
-5.4800

> <Gold.Chemscore.Hbond>
0.9089

> <Gold.Chemscore.Metal>
0.0000

> <Gold.Chemscore.Lipo>
130.1165

> <Gold.Chemscore.Internal_Hbond>
0.0000

> <Gold.Chemscore.DEClash>
0.0551

> <Gold.Chemscore.DEInternal>
1.0374

> <Gold.Chemscore.Rot>
2.1303

> <Gold.Chemscore.Internal.Correction>
   9.000000E+99

> <Gold.Chemscore.Hbonds>
donor molecule, donor type, donor heavy atom, donor atom, acceptor molecule, acceptor atom, score
      P1  H  7997  8009       L1     5  0.73

> <Gold.Chemscore.Hbond.Weighted>
-3.0357

> <Gold.Chemscore.Metal.Weighted>
-0.0000

> <Gold.Chemscore.Lipo.Weighted>
-15.2236

> <Gold.Chemscore.Internal_Hbond.Weighted>
0.0000

> <Gold.Chemscore.DEClash.Weighted>
0.0551

> <Gold.Chemscore.DEInternal.Weighted>
1.0374

> <Gold.Chemscore.Rot.Weighted>
5.4535

> <Gold.Chemscore.Internal.Correction.Weighted>
   9.000000E+99

> <Gold.Protein.RotatedTorsions>
[ 6907 6896 6895 6894 ] final  117.65 input  -60.11 | X-H torsion
[ 7974 7965 7964 7962 ] final  169.24 input  175.53 | X-H torsion
[ 8008 7997 7996 7995 ] final  167.96 input   59.86 | X-H torsion
[ 10167 10162 10161 10158 ] final   79.50 input  -65.29 | X-H torsion
[ 10718 10713 10712 10709 ] final   77.61 input   66.30 | X-H torsion
[ 10763 10752 10751 10750 ] final   -0.01 input  -60.55 | X-H torsion
[ 11005 11000 10999 10996 ] final  -13.68 input  -57.11 | X-H torsion

> <Gold.Protein.ActiveResidues>
 VAL166  LYS551  ARG553  GLY616  TRP617  ASP618  TYR619  PRO620  LYS621  CYS622 
 ASP623  PHE694  ASN695  SER759  ASP760  ASP761  ALA762  ILE779  LEU786  VAL792 
 PHE793  MET794  SER795  GLU796  ALA797  LYS798  CYS799  TRP800  GLU811  SER814 

> <Gold.Protein.RotatedAtoms>
  152.4597  133.7797  159.6843 H   0  0  0  0  0  0  0  0  0  0  0  0  # atno 6907 bound_to 6896
  150.8536  133.7739  159.3023 H   0  0  0  0  0  0  0  0  0  0  0  0  # atno 6908 bound_to 6896
  151.5326  135.1071  159.9958 H   0  0  0  0  0  0  0  0  0  0  0  0  # atno 6909 bound_to 6896
  144.7362  139.9025  143.6410 H   0  0  0  0  0  0  0  0  0  0  0  0  # atno 7974 bound_to 7965
  156.1588  140.1603  156.8647 H   0  0  0  0  0  0  0  0  0  0  0  0  # atno 8008 bound_to 7997
  154.5141  140.0794  156.8082 H   0  0  0  0  0  0  0  0  0  0  0  0  # atno 8009 bound_to 7997
  155.3749  140.3402  155.4247 H   0  0  0  0  0  0  0  0  0  0  0  0  # atno 8010 bound_to 7997
  139.9597  144.5969  150.8084 H   0  0  0  0  0  0  0  0  0  0  0  0  # atno 10167 bound_to 10162
  157.6716  130.9830  150.1666 H   0  0  0  0  0  0  0  0  0  0  0  0  # atno 10718 bound_to 10713
  153.3264  135.6972  153.6985 H   0  0  0  0  0  0  0  0  0  0  0  0  # atno 10763 bound_to 10752
  153.5805  135.3499  155.2873 H   0  0  0  0  0  0  0  0  0  0  0  0  # atno 10764 bound_to 10752
  154.8609  135.4294  154.2442 H   0  0  0  0  0  0  0  0  0  0  0  0  # atno 10765 bound_to 10752
  140.7786  133.8381  155.9271 H   0  0  0  0  0  0  0  0  0  0  0  0  # atno 11005 bound_to 11000
  146.1061  139.4061  143.0316 LP  0  0  0  0  0  0  0  0  0  0  0  0  # atno 17320 bound_to 7965
  145.7509  140.9973  143.1251 LP  0  0  0  0  0  0  0  0  0  0  0  0  # atno 17321 bound_to 7965
  140.7557  143.3051  151.2981 LP  0  0  0  0  0  0  0  0  0  0  0  0  # atno 17342 bound_to 10162
  139.6564  144.0269  152.2662 LP  0  0  0  0  0  0  0  0  0  0  0  0  # atno 17343 bound_to 10162
  156.2430  130.3693  149.8316 LP  0  0  0  0  0  0  0  0  0  0  0  0  # atno 17370 bound_to 10713
  156.6110  130.8587  151.3454 LP  0  0  0  0  0  0  0  0  0  0  0  0  # atno 17371 bound_to 10713
  140.9504  134.1786  157.4732 LP  0  0  0  0  0  0  0  0  0  0  0  0  # atno 17394 bound_to 11000
  139.8745  134.9907  156.5515 LP  0  0  0  0  0  0  0  0  0  0  0  0  # atno 17395 bound_to 11000

$$$$
