AV-unprocessed.smi:1607|AV-procd|sdf|6464|dock3
  -GOLD-   22720 7123D 1   1.00000     0.00000
 Structure written by MMmdl.
 39 40  0  0  0  0  0  0  0  0  2 V2000
  143.8938  132.6810  148.6957 C   0  0  0  0  0  0  0  0  0  0  0  0
  143.8070  132.8474  150.2230 C   0  0  1  0  0  0  0  0  0  0  0  0
  144.7200  131.8679  150.9837 C   0  0  0  0  0  0  0  0  0  0  0  0
  146.1943  132.2833  150.8785 C   0  0  0  0  0  0  0  0  0  0  0  0
  146.3889  133.7454  151.3107 C   0  0  0  0  0  0  0  0  0  0  0  0
  145.5196  134.6568  150.5227 N   0  3  2  0  0  0  0  0  0  0  0  0
  145.8005  136.0871  150.8052 C   0  0  0  0  0  0  0  0  0  0  0  0
  145.3667  136.5003  152.2255 C   0  0  0  0  0  0  0  0  0  0  0  0
  146.4568  136.3576  153.1838 N   0  0  0  0  0  0  0  0  0  0  0  0
  146.8874  137.3271  154.0060 C   0  0  0  0  0  0  0  0  0  0  0  0
  146.4053  138.4597  154.0224 O   0  0  0  0  0  0  0  0  0  0  0  0
  148.0349  136.9661  154.9519 C   0  0  0  0  0  0  0  0  0  0  0  0
  148.9987  138.0470  155.0461 N   0  0  0  0  0  0  0  0  0  0  0  0
  149.7480  138.6384  154.1134 C   0  0  0  0  0  0  0  0  0  0  0  0
  150.5066  139.5939  154.6285 N   0  0  0  0  0  0  0  0  0  0  0  0
  150.1789  139.5646  155.9737 N   0  0  0  0  0  0  0  0  0  0  0  0
  149.2844  138.6493  156.2274 N   0  0  0  0  0  0  0  0  0  0  0  0
  144.0820  134.2990  150.6667 C   0  0  0  0  0  0  0  0  0  0  0  0
  144.8873  132.9179  148.3149 H   0  0  0  0  0  0  0  0  0  0  0  0
  143.1839  133.3365  148.1904 H   0  0  0  0  0  0  0  0  0  0  0  0
  143.6602  131.6579  148.3994 H   0  0  0  0  0  0  0  0  0  0  0  0
  142.7783  132.6110  150.4984 H   0  0  0  0  0  0  0  0  0  0  0  0
  144.4301  131.8514  152.0352 H   0  0  0  0  0  0  0  0  0  0  0  0
  144.5848  130.8507  150.6141 H   0  0  0  0  0  0  0  0  0  0  0  0
  146.8080  131.6291  151.4986 H   0  0  0  0  0  0  0  0  0  0  0  0
  146.5470  132.1514  149.8553 H   0  0  0  0  0  0  0  0  0  0  0  0
  146.1686  133.8587  152.3734 H   0  0  0  0  0  0  0  0  0  0  0  0
  147.4358  134.0184  151.1726 H   0  0  0  0  0  0  0  0  0  0  0  0
  146.8592  136.2964  150.6447 H   0  0  0  0  0  0  0  0  0  0  0  0
  145.2542  136.7017  150.0883 H   0  0  0  0  0  0  0  0  0  0  0  0
  145.0004  137.5285  152.2294 H   0  0  0  0  0  0  0  0  0  0  0  0
  144.5453  135.8782  152.5787 H   0  0  0  0  0  0  0  0  0  0  0  0
  146.9076  135.4552  153.2346 H   0  0  0  0  0  0  0  0  0  0  0  0
  147.6604  136.7466  155.9530 H   0  0  0  0  0  0  0  0  0  0  0  0
  148.5339  136.0659  154.5901 H   0  0  0  0  0  0  0  0  0  0  0  0
  149.7394  138.3701  153.0672 H   0  0  0  0  0  0  0  0  0  0  0  0
  143.4560  134.9751  150.0854 H   0  0  0  0  0  0  0  0  0  0  0  0
  143.7872  134.4269  151.7097 H   0  0  0  0  0  0  0  0  0  0  0  0
  145.7647  134.5063  149.5544 H   0  0  0  0  0  0  0  0  0  0  0  0
  1  2  1  0  0  0  0
  1 19  1  0  0  0  0
  1 20  1  0  0  0  0
  1 21  1  0  0  0  0
  2 18  1  0  0  0  0
  2  3  1  0  0  0  0
  2 22  1  0  0  0  0
  3  4  1  0  0  0  0
  3 23  1  0  0  0  0
  3 24  1  0  0  0  0
  4  5  1  0  0  0  0
  4 25  1  0  0  0  0
  4 26  1  0  0  0  0
  5  6  1  0  0  0  0
  5 27  1  0  0  0  0
  5 28  1  0  0  0  0
  6  7  1  0  0  0  0
  6 18  1  0  0  0  0
  6 39  1  0  0  0  0
  7  8  1  0  0  0  0
  7 29  1  0  0  0  0
  7 30  1  0  0  0  0
  8  9  1  0  0  0  0
  8 31  1  0  0  0  0
  8 32  1  0  0  0  0
  9 10  1  0  0  0  0
  9 33  1  0  0  0  0
 10 11  2  0  0  0  0
 10 12  1  0  0  0  0
 12 13  1  0  0  0  0
 12 34  1  0  0  0  0
 12 35  1  0  0  0  0
 13 17  1  0  0  0  0
 13 14  1  0  0  0  0
 14 15  2  0  0  0  0
 14 36  1  0  0  0  0
 15 16  1  0  0  0  0
 16 17  2  0  0  0  0
 18 37  1  0  0  0  0
 18 38  1  0  0  0  0
M  CHG  1   6   1
M  END
> <s_m_source_file>
AV-unprocessed.smi

> <i_m_source_file_index>
1607

> <i_lp_mmshare_version>
43012

> <i_f3d_flags>
0

> <s_epik_input>
W0NIM11bQ0BASF0xW0NIMl1bQ0gyXVtDSDJdTihbQ0gyXTEpW0NIMl1bQ0gyXVtOSF1DKD1PKVtDSDJdbjJbY0hdbm5uMg==

> <s_epik_cmdline>
J2VwaWtfcHl0aG9uJywgJy1waCcsICc3LjAnLCAnLXRuJywgJzgnLCAnLW1hJywgJzIwMCcsICctbWV0YWxfYmluZGluZycsICctaW1hZScsICc8aW5maWxlLm1hZT4nLCAnLW9tYWUnLCAnPG91dGZpbGUubWFlPic=

> <r_lp_tautomer_probability>
1

> <r_epik_Ionization_Penalty>
0.00268321

> <r_epik_Ionization_Penalty_Charging>
0.00267875

> <r_epik_Ionization_Penalty_Neutral>
4.46125e-06

> <r_epik_State_Penalty>
0.00186642

> <r_epik_Charging_Adjusted_Penalty>
0.00454517

> <i_epik_Tot_Q>
1

> <i_epik_Tot_abs_Q>
1

> <r_epik_Metal_State_Penalty>
-0

> <b_epik_Metal_Only>
0

> <s_lp_Force_Field>
OPLS_2005

> <r_lp_Energy>
22.4706

> <b_lp_Chiralities_Consistent>
1

> <s_lp_Variant>
AV-unprocessed.smi:1607-2

> <Gold.Version>
5.8.1

> <Gold.Id.Protein>
6NUR|6NUR_protein|mol2

> <Gold.PLP.Fitness>
38.7885

> <Gold.PLP.PLP>
-28.0130

> <Gold.PLP.part.hbond>
-3.0000

> <Gold.PLP.part.metal>
0.0000

> <Gold.PLP.part.buried>
-2.8560

> <Gold.PLP.part.nonpolar>
-23.5589

> <Gold.PLP.part.repulsive>
0.2866

> <Gold.PLP.ligand.clash>
0.0000

> <Gold.PLP.ligand.torsion>
0.5155

> <Gold.PLP.Chemscore.Hbond>
2.0000

> <Gold.PLP.Chemscore.CHOScore>
1.9176

> <Gold.PLP.Chemscore.Metal>
0.0000

> <Gold.Chemscore.Hbonds>
donor molecule, donor type, donor heavy atom, donor atom, acceptor molecule, acceptor atom, score
      L1  H     6    39       P1  7921  1.00
      P1  H  7989  7998       L1    15  0.98
      L1  C    14    36       P1  7948  0.99
      L1  C    14    36       P1  7957  0.91

> <Gold.PLP.Chemscore.Internal.Correction>
0.0535

> <Gold.Rescore>
     Score         DG    S(hbond)    S(metal)    S(lipo)     H(rot)  DE(clash)    DE(int)     intcor
     11.94     -12.76       1.93        0.00      66.14       2.69       0.29       0.53       ----

> <Gold.Chemscore.Fitness>
11.9372

> <Gold.Chemscore.DG>
-12.7578

> <Gold.Chemscore.ZeroCoef>
-5.4800

> <Gold.Chemscore.Hbond>
1.9263

> <Gold.Chemscore.Metal>
0.0000

> <Gold.Chemscore.Lipo>
66.1398

> <Gold.Chemscore.Internal_Hbond>
0.0000

> <Gold.Chemscore.DEClash>
0.2907

> <Gold.Chemscore.DEInternal>
0.5298

> <Gold.Chemscore.Rot>
2.6932

> <Gold.Chemscore.Internal.Correction>
   9.000000E+99

> <Gold.Chemscore.Hbonds>
donor molecule, donor type, donor heavy atom, donor atom, acceptor molecule, acceptor atom, score
      L1  H     6    39       P1  7921  0.77
      P1  H  7989  7998       L1    15  0.91

> <Gold.Chemscore.Hbond.Weighted>
-6.4339

> <Gold.Chemscore.Metal.Weighted>
-0.0000

> <Gold.Chemscore.Lipo.Weighted>
-7.7384

> <Gold.Chemscore.Internal_Hbond.Weighted>
0.0000

> <Gold.Chemscore.DEClash.Weighted>
0.2907

> <Gold.Chemscore.DEInternal.Weighted>
0.5298

> <Gold.Chemscore.Rot.Weighted>
6.8945

> <Gold.Chemscore.Internal.Correction.Weighted>
   9.000000E+99

> <Gold.Protein.RotatedTorsions>
[ 6907 6896 6895 6894 ] final  -94.07 input  -60.11 | X-H torsion
[ 7974 7965 7964 7962 ] final  -91.20 input  175.53 | X-H torsion
[ 8008 7997 7996 7995 ] final -121.68 input   59.86 | X-H torsion
[ 10167 10162 10161 10158 ] final  -55.84 input  -65.29 | X-H torsion
[ 10718 10713 10712 10709 ] final -136.18 input   66.30 | X-H torsion
[ 10763 10752 10751 10750 ] final    8.69 input  -60.55 | X-H torsion
[ 11005 11000 10999 10996 ] final  167.41 input  -57.11 | X-H torsion

> <Gold.Protein.ActiveResidues>
 VAL166  LYS551  ARG553  GLY616  TRP617  ASP618  TYR619  PRO620  LYS621  CYS622 
 ASP623  PHE694  ASN695  SER759  ASP760  ASP761  ALA762  ILE779  LEU786  VAL792 
 PHE793  MET794  SER795  GLU796  ALA797  LYS798  CYS799  TRP800  GLU811  SER814 

> <Gold.Protein.RotatedAtoms>
  150.6934  134.1870  159.4270 H   0  0  0  0  0  0  0  0  0  0  0  0  # atno 6907 bound_to 6896
  151.9842  135.0010  160.0568 H   0  0  0  0  0  0  0  0  0  0  0  0  # atno 6908 bound_to 6896
  152.1727  133.4619  159.4954 H   0  0  0  0  0  0  0  0  0  0  0  0  # atno 6909 bound_to 6896
  145.4162  140.9548  143.2206 H   0  0  0  0  0  0  0  0  0  0  0  0  # atno 7974 bound_to 7965
  155.1520  140.0404  157.2823 H   0  0  0  0  0  0  0  0  0  0  0  0  # atno 8008 bound_to 7997
  154.6397  140.2544  155.7309 H   0  0  0  0  0  0  0  0  0  0  0  0  # atno 8009 bound_to 7997
  156.2526  140.2858  156.0786 H   0  0  0  0  0  0  0  0  0  0  0  0  # atno 8010 bound_to 7997
  140.6351  143.2478  151.5138 H   0  0  0  0  0  0  0  0  0  0  0  0  # atno 10167 bound_to 10162
  156.2743  130.7283  151.1260 H   0  0  0  0  0  0  0  0  0  0  0  0  # atno 10718 bound_to 10713
  153.2222  135.6882  153.7986 H   0  0  0  0  0  0  0  0  0  0  0  0  # atno 10763 bound_to 10752
  153.7181  135.3271  155.3262 H   0  0  0  0  0  0  0  0  0  0  0  0  # atno 10764 bound_to 10752
  154.8275  135.4606  154.1074 H   0  0  0  0  0  0  0  0  0  0  0  0  # atno 10765 bound_to 10752
  140.2766  134.7784  157.3721 H   0  0  0  0  0  0  0  0  0  0  0  0  # atno 11005 bound_to 11000
  144.8275  139.5684  143.6958 LP  0  0  0  0  0  0  0  0  0  0  0  0  # atno 17320 bound_to 7965
  146.2680  139.6565  142.9316 LP  0  0  0  0  0  0  0  0  0  0  0  0  # atno 17321 bound_to 7965
  139.5562  144.2269  152.1616 LP  0  0  0  0  0  0  0  0  0  0  0  0  # atno 17342 bound_to 10162
  140.1523  144.5103  150.6680 LP  0  0  0  0  0  0  0  0  0  0  0  0  # atno 17343 bound_to 10162
  157.7294  131.0624  150.5776 LP  0  0  0  0  0  0  0  0  0  0  0  0  # atno 17370 bound_to 10713
  156.5875  130.4320  149.5951 LP  0  0  0  0  0  0  0  0  0  0  0  0  # atno 17371 bound_to 10713
  140.1323  134.5079  155.8096 LP  0  0  0  0  0  0  0  0  0  0  0  0  # atno 17394 bound_to 11000
  141.2169  133.6794  156.7062 LP  0  0  0  0  0  0  0  0  0  0  0  0  # atno 17395 bound_to 11000

$$$$
