AV-unprocessed.smi:967|AV-procd|sdf|4288|dock3
  -GOLD-   22720 2193D 1   1.00000     0.00000
 Structure written by MMmdl.
 42 43  0  0  0  0  0  0  0  0  1 V2000
  146.9551  142.0564  157.0566 C   0  0  0  0  0  0  0  0  0  0  0  0
  146.5186  142.1031  155.6696 N   0  0  0  0  0  0  0  0  0  0  0  0
  145.2989  142.8510  155.4062 C   0  0  0  0  0  0  0  0  0  0  0  0
  146.5320  140.8474  155.0478 C   0  0  0  0  0  0  0  0  0  0  0  0
  145.7524  139.7756  155.5388 C   0  0  0  0  0  0  0  0  0  0  0  0
  145.8043  138.5373  154.8706 C   0  0  0  0  0  0  0  0  0  0  0  0
  146.6281  138.4117  153.7269 C   0  0  0  0  0  0  0  0  0  0  0  0
  146.7798  137.2128  152.9797 N   0  0  0  0  0  0  0  0  0  0  0  0
  145.9118  136.1953  152.8477 C   0  0  0  0  0  0  0  0  0  0  0  0
  144.7884  136.1513  153.3487 O   0  0  0  0  0  0  0  0  0  0  0  0
  146.4204  135.2265  152.0727 N   0  0  0  0  0  0  0  0  0  0  0  0
  145.7475  133.9847  151.7004 C   0  0  2  0  0  0  0  0  0  0  0  0
  146.5025  133.3135  150.5388 C   0  0  0  0  0  0  0  0  0  0  0  0
  145.7885  132.0356  150.0641 C   0  0  0  0  0  0  0  0  0  0  0  0
  144.3154  132.2935  149.6942 C   0  0  2  0  0  0  0  0  0  0  0  0
  144.2405  133.0600  148.5081 O   0  0  0  0  0  0  0  0  0  0  0  0
  143.5627  133.0069  150.8336 C   0  0  0  0  0  0  0  0  0  0  0  0
  144.2879  134.2788  151.3077 C   0  0  0  0  0  0  0  0  0  0  0  0
  147.3770  139.5389  153.3307 C   0  0  0  0  0  0  0  0  0  0  0  0
  147.3311  140.7292  153.9655 N   0  0  0  0  0  0  0  0  0  0  0  0
  147.8710  141.4727  157.1565 H   0  0  0  0  0  0  0  0  0  0  0  0
  146.1898  141.6108  157.6929 H   0  0  0  0  0  0  0  0  0  0  0  0
  147.1572  143.0639  157.4208 H   0  0  0  0  0  0  0  0  0  0  0  0
  145.0546  142.8350  154.3432 H   0  0  0  0  0  0  0  0  0  0  0  0
  145.4238  143.8913  155.7072 H   0  0  0  0  0  0  0  0  0  0  0  0
  144.4573  142.4341  155.9608 H   0  0  0  0  0  0  0  0  0  0  0  0
  145.1284  139.8948  156.4124 H   0  0  0  0  0  0  0  0  0  0  0  0
  145.2264  137.7114  155.2552 H   0  0  0  0  0  0  0  0  0  0  0  0
  147.6274  137.1468  152.4354 H   0  0  0  0  0  0  0  0  0  0  0  0
  147.3500  135.3605  151.7024 H   0  0  0  0  0  0  0  0  0  0  0  0
  145.7413  133.2905  152.5426 H   0  0  0  0  0  0  0  0  0  0  0  0
  146.5940  134.0104  149.7044 H   0  0  0  0  0  0  0  0  0  0  0  0
  147.5197  133.0695  150.8476 H   0  0  0  0  0  0  0  0  0  0  0  0
  146.3214  131.6001  149.2181 H   0  0  0  0  0  0  0  0  0  0  0  0
  145.8284  131.2927  150.8619 H   0  0  0  0  0  0  0  0  0  0  0  0
  143.8272  131.3407  149.4869 H   0  0  0  0  0  0  0  0  0  0  0  0
  144.9308  133.7052  148.5235 H   0  0  0  0  0  0  0  0  0  0  0  0
  142.5458  133.2485  150.5226 H   0  0  0  0  0  0  0  0  0  0  0  0
  143.4669  132.3223  151.6774 H   0  0  0  0  0  0  0  0  0  0  0  0
  143.7535  134.7091  152.1555 H   0  0  0  0  0  0  0  0  0  0  0  0
  144.2615  135.0287  150.5156 H   0  0  0  0  0  0  0  0  0  0  0  0
  148.0312  139.4879  152.4726 H   0  0  0  0  0  0  0  0  0  0  0  0
  1  2  1  0  0  0  0
  1 21  1  0  0  0  0
  1 22  1  0  0  0  0
  1 23  1  0  0  0  0
  2  3  1  0  0  0  0
  2  4  1  0  0  0  0
  3 24  1  0  0  0  0
  3 25  1  0  0  0  0
  3 26  1  0  0  0  0
  4 20  1  0  0  0  0
  4  5  2  0  0  0  0
  5  6  1  0  0  0  0
  5 27  1  0  0  0  0
  6  7  2  0  0  0  0
  6 28  1  0  0  0  0
  7  8  1  0  0  0  0
  7 19  1  0  0  0  0
  8  9  1  0  0  0  0
  8 29  1  0  0  0  0
  9 10  2  0  0  0  0
  9 11  1  0  0  0  0
 11 12  1  0  0  0  0
 11 30  1  0  0  0  0
 12 18  1  0  0  0  0
 12 13  1  0  0  0  0
 12 31  1  0  0  0  0
 13 14  1  0  0  0  0
 13 32  1  0  0  0  0
 13 33  1  0  0  0  0
 14 15  1  0  0  0  0
 14 34  1  0  0  0  0
 14 35  1  0  0  0  0
 15 16  1  0  0  0  0
 15 17  1  0  0  0  0
 15 36  1  0  0  0  0
 16 37  1  0  0  0  0
 17 18  1  0  0  0  0
 17 38  1  0  0  0  0
 17 39  1  0  0  0  0
 18 40  1  0  0  0  0
 18 41  1  0  0  0  0
 19 20  2  0  0  0  0
 19 42  1  0  0  0  0
M  END
> <s_m_source_file>
AV-unprocessed.smi

> <i_m_source_file_index>
967

> <i_lp_mmshare_version>
43012

> <i_f3d_flags>
0

> <s_epik_input>
W0NIM11OKFtDSDNdKWMxW2NIXVtjSF1jKFtjSF1uMSlbTkhdQyg9TylbTkhdW0NAQEhdMltDSDJdW0NIMl1bQ0BASF0oW09IXSlbQ0gyXVtDSDJdMg==

> <s_epik_cmdline>
J2VwaWtfcHl0aG9uJywgJy1waCcsICc3LjAnLCAnLXRuJywgJzgnLCAnLW1hJywgJzIwMCcsICctbWV0YWxfYmluZGluZycsICctaW1hZScsICc8aW5maWxlLm1hZT4nLCAnLW9tYWUnLCAnPG91dGZpbGUubWFlPic=

> <r_lp_tautomer_probability>
1

> <r_epik_Ionization_Penalty>
0.629464

> <r_epik_Ionization_Penalty_Charging>
0

> <r_epik_Ionization_Penalty_Neutral>
0.629464

> <r_epik_State_Penalty>
0.645019

> <r_epik_Charging_Adjusted_Penalty>
0.645019

> <i_epik_Tot_Q>
0

> <i_epik_Tot_abs_Q>
0

> <r_epik_Metal_State_Penalty>
0.308581

> <b_epik_Metal_Only>
0

> <s_lp_Force_Field>
OPLS_2005

> <r_lp_Energy>
18.5045

> <b_lp_Chiralities_Consistent>
1

> <s_lp_Variant>
AV-unprocessed.smi:967-4

> <Gold.Version>
5.8.1

> <Gold.Id.Protein>
6NUR|6NUR_protein|mol2

> <Gold.PLP.Fitness>
41.5726

> <Gold.PLP.PLP>
-30.3994

> <Gold.PLP.part.hbond>
-3.9118

> <Gold.PLP.part.metal>
0.0000

> <Gold.PLP.part.buried>
-4.2508

> <Gold.PLP.part.nonpolar>
-22.8744

> <Gold.PLP.part.repulsive>
0.4722

> <Gold.PLP.ligand.clash>
0.0000

> <Gold.PLP.ligand.torsion>
0.5056

> <Gold.PLP.Chemscore.Hbond>
2.9920

> <Gold.PLP.Chemscore.CHOScore>
1.0000

> <Gold.PLP.Chemscore.Metal>
0.0000

> <Gold.Chemscore.Hbonds>
donor molecule, donor type, donor heavy atom, donor atom, acceptor molecule, acceptor atom, score
      L1  H     8    29       P1  7948  1.00
      L1  H    11    30       P1  7948  0.98
      L1  H    16    37       P1  7921  0.99
      L1  C    19    42       P1  7957  1.00

> <Gold.PLP.Chemscore.Internal.Correction>
0.2083

> <Gold.Rescore>
     Score         DG    S(hbond)    S(metal)    S(lipo)     H(rot)  DE(clash)    DE(int)     intcor
     15.38     -18.83       2.89        0.00      69.00       1.71       0.40       3.05       ----

> <Gold.Chemscore.Fitness>
15.3759

> <Gold.Chemscore.DG>
-18.8328

> <Gold.Chemscore.ZeroCoef>
-5.4800

> <Gold.Chemscore.Hbond>
2.8902

> <Gold.Chemscore.Metal>
0.0000

> <Gold.Chemscore.Lipo>
68.9999

> <Gold.Chemscore.Internal_Hbond>
0.0000

> <Gold.Chemscore.DEClash>
0.4024

> <Gold.Chemscore.DEInternal>
3.0546

> <Gold.Chemscore.Rot>
1.7084

> <Gold.Chemscore.Internal.Correction>
   9.000000E+99

> <Gold.Chemscore.Hbonds>
donor molecule, donor type, donor heavy atom, donor atom, acceptor molecule, acceptor atom, score
      L1  H     8    29       P1  7948  0.95
      L1  H    11    30       P1  7948  0.90
      L1  H    16    37       P1  7921  0.87

> <Gold.Chemscore.Hbond.Weighted>
-9.6534

> <Gold.Chemscore.Metal.Weighted>
-0.0000

> <Gold.Chemscore.Lipo.Weighted>
-8.0730

> <Gold.Chemscore.Internal_Hbond.Weighted>
0.0000

> <Gold.Chemscore.DEClash.Weighted>
0.4024

> <Gold.Chemscore.DEInternal.Weighted>
3.0546

> <Gold.Chemscore.Rot.Weighted>
4.3735

> <Gold.Chemscore.Internal.Correction.Weighted>
   9.000000E+99

> <Gold.Protein.RotatedTorsions>
[ 6907 6896 6895 6894 ] final  -94.43 input  -60.11 | X-H torsion
[ 7974 7965 7964 7962 ] final   15.97 input  175.53 | X-H torsion
[ 8008 7997 7996 7995 ] final  -12.27 input   59.86 | X-H torsion
[ 10167 10162 10161 10158 ] final  -37.47 input  -65.29 | X-H torsion
[ 10718 10713 10712 10709 ] final  -47.38 input   66.30 | X-H torsion
[ 10763 10752 10751 10750 ] final  -45.49 input  -60.55 | X-H torsion
[ 11005 11000 10999 10996 ] final  178.79 input  -57.11 | X-H torsion

> <Gold.Protein.ActiveResidues>
 VAL166  LYS551  ARG553  GLY616  TRP617  ASP618  TYR619  PRO620  LYS621  CYS622 
 ASP623  PHE694  ASN695  SER759  ASP760  ASP761  ALA762  ILE779  LEU786  VAL792 
 PHE793  MET794  SER795  GLU796  ALA797  LYS798  CYS799  TRP800  GLU811  SER814 

> <Gold.Protein.RotatedAtoms>
  150.6942  134.1813  159.4249 H   0  0  0  0  0  0  0  0  0  0  0  0  # atno 6907 bound_to 6896
  151.9787  135.0037  160.0565 H   0  0  0  0  0  0  0  0  0  0  0  0  # atno 6908 bound_to 6896
  152.1775  133.4649  159.4977 H   0  0  0  0  0  0  0  0  0  0  0  0  # atno 6909 bound_to 6896
  146.2263  139.8816  142.8570 H   0  0  0  0  0  0  0  0  0  0  0  0  # atno 7974 bound_to 7965
  154.5392  140.2280  155.8670 H   0  0  0  0  0  0  0  0  0  0  0  0  # atno 8008 bound_to 7997
  156.1841  140.3093  155.9168 H   0  0  0  0  0  0  0  0  0  0  0  0  # atno 8009 bound_to 7997
  155.3293  140.0444  157.3032 H   0  0  0  0  0  0  0  0  0  0  0  0  # atno 8010 bound_to 7997
  140.7117  143.3340  151.2505 H   0  0  0  0  0  0  0  0  0  0  0  0  # atno 10167 bound_to 10162
  156.2090  130.4160  149.9139 H   0  0  0  0  0  0  0  0  0  0  0  0  # atno 10718 bound_to 10713
  154.0295  135.6658  153.4779 H   0  0  0  0  0  0  0  0  0  0  0  0  # atno 10763 bound_to 10752
  153.0546  135.5063  154.7947 H   0  0  0  0  0  0  0  0  0  0  0  0  # atno 10764 bound_to 10752
  154.6887  135.3057  154.9475 H   0  0  0  0  0  0  0  0  0  0  0  0  # atno 10765 bound_to 10752
  140.3990  134.6795  157.4551 H   0  0  0  0  0  0  0  0  0  0  0  0  # atno 11005 bound_to 11000
  145.2507  141.0043  143.3882 LP  0  0  0  0  0  0  0  0  0  0  0  0  # atno 17320 bound_to 7965
  144.9377  139.4225  143.6464 LP  0  0  0  0  0  0  0  0  0  0  0  0  # atno 17321 bound_to 7965
  139.6830  143.9822  152.2819 LP  0  0  0  0  0  0  0  0  0  0  0  0  # atno 17342 bound_to 10162
  139.9458  144.6652  150.8220 LP  0  0  0  0  0  0  0  0  0  0  0  0  # atno 17343 bound_to 10162
  156.6824  130.8863  151.3577 LP  0  0  0  0  0  0  0  0  0  0  0  0  # atno 17370 bound_to 10713
  157.7028  130.9352  150.0838 LP  0  0  0  0  0  0  0  0  0  0  0  0  # atno 17371 bound_to 10713
  140.0350  134.6350  155.9055 LP  0  0  0  0  0  0  0  0  0  0  0  0  # atno 17394 bound_to 11000
  141.1864  133.6557  156.5236 LP  0  0  0  0  0  0  0  0  0  0  0  0  # atno 17395 bound_to 11000

$$$$
