AV-unprocessed.smi:3348|AV-procd|sdf|12929|dock5
  -GOLD-   2272019353D 1   1.00000     0.00000
 Structure written by MMmdl.
 46 47  0  0  0  0  0  0  0  0  1 V2000
  155.7476  141.2424  167.5281 C   0  0  0  0  0  0  0  0  0  0  0  0
  155.9775  142.7379  167.2698 C   0  0  2  0  0  0  0  0  0  0  0  0
  155.8429  143.5272  168.5950 C   0  0  0  0  0  0  0  0  0  0  0  0
  156.7965  144.6113  168.7451 N   0  0  0  0  0  0  0  0  0  0  0  0
  156.5714  145.9689  168.6429 C   0  0  0  0  0  0  0  0  0  0  0  0
  157.7646  146.5955  168.8626 C   0  0  0  0  0  0  0  0  0  0  0  0
  158.6703  145.5238  169.1003 C   0  0  0  0  0  0  0  0  0  0  0  0
  158.0876  144.3373  169.0325 N   0  0  0  0  0  0  0  0  0  0  0  0
  155.0211  143.1991  166.2587 N   0  0  0  0  0  0  0  0  0  0  0  0
  155.2032  142.6317  164.9224 C   0  0  0  0  0  0  0  0  0  0  0  0
  154.0274  142.9899  164.0106 C   0  0  0  0  0  0  0  0  0  0  0  0
  154.2099  142.3020  162.7819 O   0  0  0  0  0  0  0  0  0  0  0  0
  153.0788  142.3015  161.9213 C   0  0  1  0  0  0  0  0  0  0  0  0
  152.4661  143.7171  161.8659 C   0  0  0  0  0  0  0  0  0  0  0  0
  151.3314  143.8022  160.8343 C   0  0  0  0  0  0  0  0  0  0  0  0
  151.8149  143.3614  159.4458 C   0  0  0  0  0  0  0  0  0  0  0  0
  152.4146  141.9480  159.4946 C   0  0  0  0  0  0  0  0  0  0  0  0
  153.5586  141.8472  160.5236 C   0  0  2  0  0  0  0  0  0  0  0  0
  154.1368  140.4225  160.5547 C   0  0  0  0  0  0  0  0  0  0  0  0
  156.4685  140.8534  168.2477 H   0  0  0  0  0  0  0  0  0  0  0  0
  155.8578  140.6632  166.6108 H   0  0  0  0  0  0  0  0  0  0  0  0
  154.7486  141.0546  167.9236 H   0  0  0  0  0  0  0  0  0  0  0  0
  156.9940  142.8447  166.8885 H   0  0  0  0  0  0  0  0  0  0  0  0
  154.8360  143.9367  168.6892 H   0  0  0  0  0  0  0  0  0  0  0  0
  155.9770  142.8534  169.4425 H   0  0  0  0  0  0  0  0  0  0  0  0
  155.5945  146.3702  168.4163 H   0  0  0  0  0  0  0  0  0  0  0  0
  157.9601  147.6575  168.8536 H   0  0  0  0  0  0  0  0  0  0  0  0
  159.7269  145.5727  169.3189 H   0  0  0  0  0  0  0  0  0  0  0  0
  154.0743  143.0120  166.5729 H   0  0  0  0  0  0  0  0  0  0  0  0
  156.1291  142.9623  164.4580 H   0  0  0  0  0  0  0  0  0  0  0  0
  155.2771  141.5470  165.0050 H   0  0  0  0  0  0  0  0  0  0  0  0
  153.0985  142.6565  164.4754 H   0  0  0  0  0  0  0  0  0  0  0  0
  153.9563  144.0686  163.8693 H   0  0  0  0  0  0  0  0  0  0  0  0
  152.3317  141.5906  162.2803 H   0  0  0  0  0  0  0  0  0  0  0  0
  152.0824  144.0082  162.8432 H   0  0  0  0  0  0  0  0  0  0  0  0
  153.2420  144.4406  161.6117 H   0  0  0  0  0  0  0  0  0  0  0  0
  150.5006  143.1704  161.1511 H   0  0  0  0  0  0  0  0  0  0  0  0
  150.9459  144.8212  160.7883 H   0  0  0  0  0  0  0  0  0  0  0  0
  150.9866  143.3902  158.7373 H   0  0  0  0  0  0  0  0  0  0  0  0
  152.5629  144.0645  159.0768 H   0  0  0  0  0  0  0  0  0  0  0  0
  151.6310  141.2309  159.7437 H   0  0  0  0  0  0  0  0  0  0  0  0
  152.7792  141.6740  158.5039 H   0  0  0  0  0  0  0  0  0  0  0  0
  154.3558  142.5203  160.2039 H   0  0  0  0  0  0  0  0  0  0  0  0
  153.3916  139.6997  160.8884 H   0  0  0  0  0  0  0  0  0  0  0  0
  154.9903  140.3540  161.2294 H   0  0  0  0  0  0  0  0  0  0  0  0
  154.4787  140.1157  159.5660 H   0  0  0  0  0  0  0  0  0  0  0  0
  1  2  1  0  0  0  0
  1 20  1  0  0  0  0
  1 21  1  0  0  0  0
  1 22  1  0  0  0  0
  2  3  1  0  0  0  0
  2  9  1  0  0  0  0
  2 23  1  0  0  0  0
  3  4  1  0  0  0  0
  3 24  1  0  0  0  0
  3 25  1  0  0  0  0
  4  8  1  0  0  0  0
  4  5  1  0  0  0  0
  5  6  2  0  0  0  0
  5 26  1  0  0  0  0
  6  7  1  0  0  0  0
  6 27  1  0  0  0  0
  7  8  2  0  0  0  0
  7 28  1  0  0  0  0
  9 10  1  0  0  0  0
  9 29  1  0  0  0  0
 10 11  1  0  0  0  0
 10 30  1  0  0  0  0
 10 31  1  0  0  0  0
 11 12  1  0  0  0  0
 11 32  1  0  0  0  0
 11 33  1  0  0  0  0
 12 13  1  0  0  0  0
 13 18  1  0  0  0  0
 13 14  1  0  0  0  0
 13 34  1  0  0  0  0
 14 15  1  0  0  0  0
 14 35  1  0  0  0  0
 14 36  1  0  0  0  0
 15 16  1  0  0  0  0
 15 37  1  0  0  0  0
 15 38  1  0  0  0  0
 16 17  1  0  0  0  0
 16 39  1  0  0  0  0
 16 40  1  0  0  0  0
 17 18  1  0  0  0  0
 17 41  1  0  0  0  0
 17 42  1  0  0  0  0
 18 19  1  0  0  0  0
 18 43  1  0  0  0  0
 19 44  1  0  0  0  0
 19 45  1  0  0  0  0
 19 46  1  0  0  0  0
M  END
> <s_m_source_file>
AV-unprocessed.smi

> <i_m_source_file_index>
3348

> <i_lp_mmshare_version>
43012

> <i_f3d_flags>
0

> <s_epik_input>
bjFbY0hdW2NIXVtjSF1uMVtDSDJdW0NAQEhdKFtDSDNdKVtOSF1bQ0gyXVtDSDJdT1tDQEBIXTJbQ0gyXVtDSDJdW0NIMl1bQ0gyXVtDQEhdMltDSDNd

> <s_epik_cmdline>
J2VwaWtfcHl0aG9uJywgJy1waCcsICc3LjAnLCAnLXRuJywgJzgnLCAnLW1hJywgJzIwMCcsICctbWV0YWxfYmluZGluZycsICctaW1hZScsICc8aW5maWxlLm1hZT4nLCAnLW9tYWUnLCAnPG91dGZpbGUubWFlPic=

> <r_lp_tautomer_probability>
1

> <r_epik_Ionization_Penalty>
2.46945

> <r_epik_Ionization_Penalty_Charging>
0

> <r_epik_Ionization_Penalty_Neutral>
2.46945

> <r_epik_State_Penalty>
2.6322

> <r_epik_Charging_Adjusted_Penalty>
2.6322

> <i_epik_Tot_Q>
0

> <i_epik_Tot_abs_Q>
0

> <r_epik_Metal_State_Penalty>
2.63217

> <b_epik_Metal_Only>
0

> <s_lp_Force_Field>
OPLS_2005

> <r_lp_Energy>
18.1963

> <b_lp_Chiralities_Consistent>
1

> <s_lp_Variant>
AV-unprocessed.smi:3348-15

> <Gold.Version>
5.8.1

> <Gold.Id.Protein>
6NUR|6NUR_protein|mol2

> <Gold.PLP.Fitness>
47.8389

> <Gold.PLP.PLP>
-49.5543

> <Gold.PLP.part.hbond>
-1.4663

> <Gold.PLP.part.metal>
0.0000

> <Gold.PLP.part.buried>
-5.0290

> <Gold.PLP.part.nonpolar>
-41.1037

> <Gold.PLP.part.repulsive>
0.1073

> <Gold.PLP.ligand.clash>
0.0000

> <Gold.PLP.ligand.torsion>
0.9068

> <Gold.PLP.Chemscore.Hbond>
0.0000

> <Gold.PLP.Chemscore.CHOScore>
0.0000

> <Gold.PLP.Chemscore.Metal>
0.0000

> <Gold.PLP.Chemscore.Internal.Correction>
0.0982

> <Gold.Rescore>
     Score         DG    S(hbond)    S(metal)    S(lipo)     H(rot)  DE(clash)    DE(int)     intcor
     14.30     -16.63       0.00        0.00     133.05       1.72       1.60       0.74       ----

> <Gold.Chemscore.Fitness>
14.2979

> <Gold.Chemscore.DG>
-16.6339

> <Gold.Chemscore.ZeroCoef>
-5.4800

> <Gold.Chemscore.Hbond>
0.0000

> <Gold.Chemscore.Metal>
0.0000

> <Gold.Chemscore.Lipo>
133.0465

> <Gold.Chemscore.Internal_Hbond>
0.0000

> <Gold.Chemscore.DEClash>
1.5968

> <Gold.Chemscore.DEInternal>
0.7392

> <Gold.Chemscore.Rot>
1.7237

> <Gold.Chemscore.Internal.Correction>
   9.000000E+99

> <Gold.Chemscore.Hbond.Weighted>
-0.0000

> <Gold.Chemscore.Metal.Weighted>
-0.0000

> <Gold.Chemscore.Lipo.Weighted>
-15.5664

> <Gold.Chemscore.Internal_Hbond.Weighted>
0.0000

> <Gold.Chemscore.DEClash.Weighted>
1.5968

> <Gold.Chemscore.DEInternal.Weighted>
0.7392

> <Gold.Chemscore.Rot.Weighted>
4.4126

> <Gold.Chemscore.Internal.Correction.Weighted>
   9.000000E+99

> <Gold.Protein.RotatedTorsions>
[ 6907 6896 6895 6894 ] final -106.52 input  -60.11 | X-H torsion
[ 7974 7965 7964 7962 ] final  116.16 input  175.53 | X-H torsion
[ 8008 7997 7996 7995 ] final -148.30 input   59.86 | X-H torsion
[ 10167 10162 10161 10158 ] final -124.31 input  -65.29 | X-H torsion
[ 10718 10713 10712 10709 ] final   34.25 input   66.30 | X-H torsion
[ 10763 10752 10751 10750 ] final  -96.52 input  -60.55 | X-H torsion
[ 11005 11000 10999 10996 ] final -129.59 input  -57.11 | X-H torsion

> <Gold.Protein.ActiveResidues>
 VAL166  LYS551  ARG553  GLY616  TRP617  ASP618  TYR619  PRO620  LYS621  CYS622 
 ASP623  PHE694  ASN695  SER759  ASP760  ASP761  ALA762  ILE779  LEU786  VAL792 
 PHE793  MET794  SER795  GLU796  ALA797  LYS798  CYS799  TRP800  GLU811  SER814 

> <Gold.Protein.RotatedAtoms>
  150.7394  133.9964  159.3623 H   0  0  0  0  0  0  0  0  0  0  0  0  # atno 6907 bound_to 6896
  151.7915  135.0732  160.0397 H   0  0  0  0  0  0  0  0  0  0  0  0  # atno 6908 bound_to 6896
  152.3204  133.5811  159.5777 H   0  0  0  0  0  0  0  0  0  0  0  0  # atno 6909 bound_to 6896
  145.1830  139.3040  143.4408 H   0  0  0  0  0  0  0  0  0  0  0  0  # atno 7974 bound_to 7965
  155.5893  140.0651  157.2763 H   0  0  0  0  0  0  0  0  0  0  0  0  # atno 8008 bound_to 7997
  154.4310  140.1838  156.1105 H   0  0  0  0  0  0  0  0  0  0  0  0  # atno 8009 bound_to 7997
  156.0245  140.3313  155.7077 H   0  0  0  0  0  0  0  0  0  0  0  0  # atno 8010 bound_to 7997
  139.9941  143.5609  152.2330 H   0  0  0  0  0  0  0  0  0  0  0  0  # atno 10167 bound_to 10162
  157.3080  130.7385  149.6707 H   0  0  0  0  0  0  0  0  0  0  0  0  # atno 10718 bound_to 10713
  154.7247  135.5080  153.8867 H   0  0  0  0  0  0  0  0  0  0  0  0  # atno 10763 bound_to 10752
  153.0894  135.6655  153.9893 H   0  0  0  0  0  0  0  0  0  0  0  0  # atno 10764 bound_to 10752
  153.9708  135.3038  155.3407 H   0  0  0  0  0  0  0  0  0  0  0  0  # atno 10765 bound_to 10752
  140.9419  134.1182  157.4143 H   0  0  0  0  0  0  0  0  0  0  0  0  # atno 11005 bound_to 11000
  146.3450  140.2016  142.8589 LP  0  0  0  0  0  0  0  0  0  0  0  0  # atno 17320 bound_to 7965
  145.0117  140.8719  143.5220 LP  0  0  0  0  0  0  0  0  0  0  0  0  # atno 17321 bound_to 7965
  139.6318  144.7645  151.2519 LP  0  0  0  0  0  0  0  0  0  0  0  0  # atno 17342 bound_to 10162
  140.7443  143.6465  150.8287 LP  0  0  0  0  0  0  0  0  0  0  0  0  # atno 17343 bound_to 10162
  155.9676  130.4260  150.4678 LP  0  0  0  0  0  0  0  0  0  0  0  0  # atno 17370 bound_to 10713
  157.2671  131.0579  151.2283 LP  0  0  0  0  0  0  0  0  0  0  0  0  # atno 17371 bound_to 10713
  139.8822  135.0039  156.6216 LP  0  0  0  0  0  0  0  0  0  0  0  0  # atno 17394 bound_to 11000
  140.7722  133.8729  155.8501 LP  0  0  0  0  0  0  0  0  0  0  0  0  # atno 17395 bound_to 11000

$$$$
