AV-unprocessed.smi:3044|AV-procd|sdf|11607|dock7
  -GOLD-   2272016583D 1   1.00000     0.00000
 Structure written by MMmdl.
 41 42  0  0  0  0  0  0  0  0  1 V2000
  146.9977  141.3884  158.7729 C   0  0  0  0  0  0  0  0  0  0  0  0
  146.5765  141.6054  157.3296 C   0  0  0  0  0  0  0  0  0  0  0  0
  145.3142  142.0567  157.1547 N   0  0  0  0  0  0  0  0  0  0  0  0
  144.8806  142.2678  155.8946 C   0  0  0  0  0  0  0  0  0  0  0  0
  145.6749  142.0342  154.7566 C   0  0  0  0  0  0  0  0  0  0  0  0
  146.9891  141.5649  154.9401 C   0  0  0  0  0  0  0  0  0  0  0  0
  147.4662  141.3539  156.2564 C   0  0  0  0  0  0  0  0  0  0  0  0
  148.7701  140.8634  156.5428 N   0  0  0  0  0  0  0  0  0  0  0  0
  149.7564  140.5456  155.6837 C   0  0  0  0  0  0  0  0  0  0  0  0
  149.6643  140.6136  154.4586 O   0  0  0  0  0  0  0  0  0  0  0  0
  151.0705  140.0733  156.3082 C   0  0  0  0  0  0  0  0  0  0  0  0
  151.0694  140.3713  157.6996 O   0  0  0  0  0  0  0  0  0  0  0  0
  152.0282  141.3421  158.0962 C   0  0  2  0  0  0  0  0  0  0  0  0
  152.7508  140.7903  159.3364 C   0  0  0  0  0  0  0  0  0  0  0  0
  153.7562  141.8081  159.8951 C   0  0  0  0  0  0  0  0  0  0  0  0
  153.0699  143.1450  160.2164 C   0  0  0  0  0  0  0  0  0  0  0  0
  152.3385  143.7156  158.9859 C   0  0  2  0  0  0  0  0  0  0  0  0
  151.6461  145.0463  159.3136 C   0  0  0  0  0  0  0  0  0  0  0  0
  151.3407  142.6844  158.4220 C   0  0  0  0  0  0  0  0  0  0  0  0
  147.8582  142.0128  159.0144 H   0  0  0  0  0  0  0  0  0  0  0  0
  147.2722  140.3460  158.9360 H   0  0  0  0  0  0  0  0  0  0  0  0
  146.1952  141.6377  159.4681 H   0  0  0  0  0  0  0  0  0  0  0  0
  143.8678  142.6280  155.7901 H   0  0  0  0  0  0  0  0  0  0  0  0
  145.2834  142.2064  153.7649 H   0  0  0  0  0  0  0  0  0  0  0  0
  147.5988  141.3631  154.0730 H   0  0  0  0  0  0  0  0  0  0  0  0
  149.0206  140.8394  157.5208 H   0  0  0  0  0  0  0  0  0  0  0  0
  151.1693  138.9985  156.1501 H   0  0  0  0  0  0  0  0  0  0  0  0
  151.9030  140.5643  155.8037 H   0  0  0  0  0  0  0  0  0  0  0  0
  152.7662  141.4847  157.3042 H   0  0  0  0  0  0  0  0  0  0  0  0
  152.0203  140.5407  160.1074 H   0  0  0  0  0  0  0  0  0  0  0  0
  153.2645  139.8620  159.0850 H   0  0  0  0  0  0  0  0  0  0  0  0
  154.2297  141.4088  160.7924 H   0  0  0  0  0  0  0  0  0  0  0  0
  154.5549  141.9707  159.1702 H   0  0  0  0  0  0  0  0  0  0  0  0
  152.3614  143.0016  161.0335 H   0  0  0  0  0  0  0  0  0  0  0  0
  153.8120  143.8593  160.5743 H   0  0  0  0  0  0  0  0  0  0  0  0
  153.0846  143.9153  158.2154 H   0  0  0  0  0  0  0  0  0  0  0  0
  150.8789  144.9167  160.0777 H   0  0  0  0  0  0  0  0  0  0  0  0
  151.1673  145.4685  158.4296 H   0  0  0  0  0  0  0  0  0  0  0  0
  152.3620  145.7814  159.6824 H   0  0  0  0  0  0  0  0  0  0  0  0
  150.8667  143.0927  157.5296 H   0  0  0  0  0  0  0  0  0  0  0  0
  150.5409  142.5153  159.1443 H   0  0  0  0  0  0  0  0  0  0  0  0
  1  2  1  0  0  0  0
  1 20  1  0  0  0  0
  1 21  1  0  0  0  0
  1 22  1  0  0  0  0
  2  7  1  0  0  0  0
  2  3  2  0  0  0  0
  3  4  1  0  0  0  0
  4  5  2  0  0  0  0
  4 23  1  0  0  0  0
  5  6  1  0  0  0  0
  5 24  1  0  0  0  0
  6  7  2  0  0  0  0
  6 25  1  0  0  0  0
  7  8  1  0  0  0  0
  8  9  1  0  0  0  0
  8 26  1  0  0  0  0
  9 10  2  0  0  0  0
  9 11  1  0  0  0  0
 11 12  1  0  0  0  0
 11 27  1  0  0  0  0
 11 28  1  0  0  0  0
 12 13  1  0  0  0  0
 13 19  1  0  0  0  0
 13 14  1  0  0  0  0
 13 29  1  0  0  0  0
 14 15  1  0  0  0  0
 14 30  1  0  0  0  0
 14 31  1  0  0  0  0
 15 16  1  0  0  0  0
 15 32  1  0  0  0  0
 15 33  1  0  0  0  0
 16 17  1  0  0  0  0
 16 34  1  0  0  0  0
 16 35  1  0  0  0  0
 17 18  1  0  0  0  0
 17 19  1  0  0  0  0
 17 36  1  0  0  0  0
 18 37  1  0  0  0  0
 18 38  1  0  0  0  0
 18 39  1  0  0  0  0
 19 40  1  0  0  0  0
 19 41  1  0  0  0  0
M  END
> <s_m_source_file>
AV-unprocessed.smi

> <i_m_source_file_index>
3044

> <i_lp_mmshare_version>
43012

> <i_f3d_flags>
0

> <s_epik_input>
W0NIM11jMW5bY0hdW2NIXVtjSF1jMVtOSF1DKD1PKVtDSDJdT1tDQEBIXTJbQ0gyXVtDSDJdW0NIMl1bQ0BASF0oW0NIM10pW0NIMl0y

> <s_epik_cmdline>
J2VwaWtfcHl0aG9uJywgJy1waCcsICc3LjAnLCAnLXRuJywgJzgnLCAnLW1hJywgJzIwMCcsICctbWV0YWxfYmluZGluZycsICctaW1hZScsICc8aW5maWxlLm1hZT4nLCAnLW9tYWUnLCAnPG91dGZpbGUubWFlPic=

> <r_epik_Ionization_Penalty>
0.0077122

> <r_epik_Ionization_Penalty_Charging>
0

> <r_epik_Ionization_Penalty_Neutral>
0.0077122

> <r_epik_State_Penalty>
0.00577497

> <r_epik_Charging_Adjusted_Penalty>
0.00577497

> <i_epik_Tot_Q>
0

> <i_epik_Tot_abs_Q>
0

> <r_epik_Metal_State_Penalty>
-0

> <b_epik_Metal_Only>
0

> <s_lp_Force_Field>
OPLS_2005

> <r_lp_Energy>
17.0629

> <b_lp_Chiralities_Consistent>
1

> <s_lp_Variant>
AV-unprocessed.smi:3044-3

> <Gold.Version>
5.8.1

> <Gold.Id.Protein>
6NUR|6NUR_protein|mol2

> <Gold.PLP.Fitness>
42.3433

> <Gold.PLP.PLP>
-41.7344

> <Gold.PLP.part.hbond>
-1.0000

> <Gold.PLP.part.metal>
0.0000

> <Gold.PLP.part.buried>
-5.7261

> <Gold.PLP.part.nonpolar>
-35.3444

> <Gold.PLP.part.repulsive>
0.3090

> <Gold.PLP.ligand.clash>
0.0000

> <Gold.PLP.ligand.torsion>
1.1919

> <Gold.PLP.Chemscore.Hbond>
0.9920

> <Gold.PLP.Chemscore.CHOScore>
0.0000

> <Gold.PLP.Chemscore.Metal>
0.0000

> <Gold.Chemscore.Hbonds>
donor molecule, donor type, donor heavy atom, donor atom, acceptor molecule, acceptor atom, score
      P1  H  7989  7998       L1    10  0.44

> <Gold.PLP.Chemscore.Internal.Correction>
0.0167

> <Gold.Rescore>
     Score         DG    S(hbond)    S(metal)    S(lipo)     H(rot)  DE(clash)    DE(int)     intcor
     15.78     -18.36       1.00        0.00     110.16       1.31       0.03       2.55       ----

> <Gold.Chemscore.Fitness>
15.7793

> <Gold.Chemscore.DG>
-18.3592

> <Gold.Chemscore.ZeroCoef>
-5.4800

> <Gold.Chemscore.Hbond>
0.9986

> <Gold.Chemscore.Metal>
0.0000

> <Gold.Chemscore.Lipo>
110.1556

> <Gold.Chemscore.Internal_Hbond>
0.0000

> <Gold.Chemscore.DEClash>
0.0274

> <Gold.Chemscore.DEInternal>
2.5525

> <Gold.Chemscore.Rot>
1.3064

> <Gold.Chemscore.Internal.Correction>
   9.000000E+99

> <Gold.Chemscore.Hbonds>
donor molecule, donor type, donor heavy atom, donor atom, acceptor molecule, acceptor atom, score
      P1  H  7989  7998       L1    10  0.38

> <Gold.Chemscore.Hbond.Weighted>
-3.3353

> <Gold.Chemscore.Metal.Weighted>
-0.0000

> <Gold.Chemscore.Lipo.Weighted>
-12.8882

> <Gold.Chemscore.Internal_Hbond.Weighted>
0.0000

> <Gold.Chemscore.DEClash.Weighted>
0.0274

> <Gold.Chemscore.DEInternal.Weighted>
2.5525

> <Gold.Chemscore.Rot.Weighted>
3.3443

> <Gold.Chemscore.Internal.Correction.Weighted>
   9.000000E+99

> <Gold.Protein.RotatedTorsions>
[ 6907 6896 6895 6894 ] final -131.36 input  -60.11 | X-H torsion
[ 7974 7965 7964 7962 ] final   76.35 input  175.53 | X-H torsion
[ 8008 7997 7996 7995 ] final  108.48 input   59.86 | X-H torsion
[ 10167 10162 10161 10158 ] final   33.96 input  -65.29 | X-H torsion
[ 10718 10713 10712 10709 ] final  -47.00 input   66.30 | X-H torsion
[ 10763 10752 10751 10750 ] final  139.79 input  -60.55 | X-H torsion
[ 11005 11000 10999 10996 ] final  -98.78 input  -57.11 | X-H torsion

> <Gold.Protein.ActiveResidues>
 VAL166  LYS551  ARG553  GLY616  TRP617  ASP618  TYR619  PRO620  LYS621  CYS622 
 ASP623  PHE694  ASN695  SER759  ASP760  ASP761  ALA762  ILE779  LEU786  VAL792 
 PHE793  MET794  SER795  GLU796  ALA797  LYS798  CYS799  TRP800  GLU811  SER814 

> <Gold.Protein.RotatedAtoms>
  150.9501  133.6559  159.2773 H   0  0  0  0  0  0  0  0  0  0  0  0  # atno 6907 bound_to 6896
  151.3918  135.0956  159.9538 H   0  0  0  0  0  0  0  0  0  0  0  0  # atno 6908 bound_to 6896
  152.5106  133.9014  159.7497 H   0  0  0  0  0  0  0  0  0  0  0  0  # atno 6909 bound_to 6896
  145.7040  139.2592  143.1689 H   0  0  0  0  0  0  0  0  0  0  0  0  # atno 7974 bound_to 7965
  156.1906  140.3075  155.9324 H   0  0  0  0  0  0  0  0  0  0  0  0  # atno 8008 bound_to 7997
  155.3182  140.0454  157.3055 H   0  0  0  0  0  0  0  0  0  0  0  0  # atno 8009 bound_to 7997
  154.5447  140.2273  155.8592 H   0  0  0  0  0  0  0  0  0  0  0  0  # atno 8010 bound_to 7997
  140.4359  144.1258  150.6166 H   0  0  0  0  0  0  0  0  0  0  0  0  # atno 10167 bound_to 10162
  156.2128  130.4161  149.9093 H   0  0  0  0  0  0  0  0  0  0  0  0  # atno 10718 bound_to 10713
  153.9120  135.3010  155.3448 H   0  0  0  0  0  0  0  0  0  0  0  0  # atno 10763 bound_to 10752
  154.7618  135.4930  153.9482 H   0  0  0  0  0  0  0  0  0  0  0  0  # atno 10764 bound_to 10752
  153.1187  135.6777  153.9474 H   0  0  0  0  0  0  0  0  0  0  0  0  # atno 10765 bound_to 10752
  141.1332  133.8271  157.0884 H   0  0  0  0  0  0  0  0  0  0  0  0  # atno 11005 bound_to 11000
  146.0772  140.7804  142.9659 LP  0  0  0  0  0  0  0  0  0  0  0  0  # atno 17320 bound_to 7965
  144.6960  140.3434  143.7195 LP  0  0  0  0  0  0  0  0  0  0  0  0  # atno 17321 bound_to 7965
  140.4374  143.2541  151.9517 LP  0  0  0  0  0  0  0  0  0  0  0  0  # atno 17342 bound_to 10162
  139.4787  144.5687  151.8124 LP  0  0  0  0  0  0  0  0  0  0  0  0  # atno 17343 bound_to 10162
  156.6766  130.8841  151.3570 LP  0  0  0  0  0  0  0  0  0  0  0  0  # atno 17370 bound_to 10713
  157.7047  130.9372  150.0894 LP  0  0  0  0  0  0  0  0  0  0  0  0  # atno 17371 bound_to 10713
  140.0407  134.9855  157.0957 LP  0  0  0  0  0  0  0  0  0  0  0  0  # atno 17394 bound_to 11000
  140.4139  134.1952  155.7163 LP  0  0  0  0  0  0  0  0  0  0  0  0  # atno 17395 bound_to 11000

$$$$
