AV-unprocessed.smi:1078|AV-procd|sdf|4702|dock6
  -GOLD-   22720 3223D 1   1.00000     0.00000
 Structure written by MMmdl.
 40 41  0  0  0  0  0  0  0  0  2 V2000
  147.8098  141.8344  154.7283 C   0  0  0  0  0  0  0  0  0  0  0  0
  149.2683  141.3481  154.6765 C   0  0  2  0  0  0  0  0  0  0  0  0
  149.4150  139.8640  155.0890 C   0  0  0  0  0  0  0  0  0  0  0  0
  150.7249  139.3136  154.7885 N   0  0  0  0  0  0  0  0  0  0  0  0
  151.0346  138.1022  154.2058 C   0  0  0  0  0  0  0  0  0  0  0  0
  152.3958  138.0209  154.1378 C   0  0  0  0  0  0  0  0  0  0  0  0
  152.8374  139.2426  154.7186 C   0  0  0  0  0  0  0  0  0  0  0  0
  151.8349  140.0120  155.1116 N   0  0  0  0  0  0  0  0  0  0  0  0
  150.1026  142.2264  155.5271 N   0  3  0  0  0  0  0  0  0  0  0  0
  150.0147  141.9780  156.9823 C   0  0  0  0  0  0  0  0  0  0  0  0
  151.2592  142.5069  157.7191 C   0  0  0  0  0  0  0  0  0  0  0  0
  151.4100  141.8825  159.1244 C   0  0  0  0  0  0  0  0  0  0  0  0
  152.6448  142.4278  159.8605 C   0  0  0  0  0  0  0  0  0  0  0  0
  152.6068  143.9606  159.9528 C   0  0  0  0  0  0  0  0  0  0  0  0
  152.4585  144.5933  158.5613 C   0  0  0  0  0  0  0  0  0  0  0  0
  151.2229  144.0451  157.8288 C   0  0  0  0  0  0  0  0  0  0  0  0
  147.1766  141.2850  154.0312 H   0  0  0  0  0  0  0  0  0  0  0  0
  147.7385  142.8892  154.4608 H   0  0  0  0  0  0  0  0  0  0  0  0
  147.3876  141.7151  155.7266 H   0  0  0  0  0  0  0  0  0  0  0  0
  149.6103  141.4633  153.6467 H   0  0  0  0  0  0  0  0  0  0  0  0
  149.2421  139.7375  156.1580 H   0  0  0  0  0  0  0  0  0  0  0  0
  148.6656  139.2576  154.5782 H   0  0  0  0  0  0  0  0  0  0  0  0
  150.2707  137.4071  153.8895 H   0  0  0  0  0  0  0  0  0  0  0  0
  152.9866  137.2106  153.7366 H   0  0  0  0  0  0  0  0  0  0  0  0
  153.8496  139.5894  154.8670 H   0  0  0  0  0  0  0  0  0  0  0  0
  151.0652  142.0786  155.2595 H   0  0  0  0  0  0  0  0  0  0  0  0
  149.1256  142.4739  157.3715 H   0  0  0  0  0  0  0  0  0  0  0  0
  149.8929  140.9102  157.1706 H   0  0  0  0  0  0  0  0  0  0  0  0
  152.1388  142.2411  157.1298 H   0  0  0  0  0  0  0  0  0  0  0  0
  150.5170  142.0871  159.7169 H   0  0  0  0  0  0  0  0  0  0  0  0
  151.4885  140.7974  159.0523 H   0  0  0  0  0  0  0  0  0  0  0  0
  152.7010  141.9978  160.8611 H   0  0  0  0  0  0  0  0  0  0  0  0
  153.5500  142.1147  159.3389 H   0  0  0  0  0  0  0  0  0  0  0  0
  151.7733  144.2686  160.5853 H   0  0  0  0  0  0  0  0  0  0  0  0
  153.5133  144.3280  160.4347 H   0  0  0  0  0  0  0  0  0  0  0  0
  152.3858  145.6776  158.6529 H   0  0  0  0  0  0  0  0  0  0  0  0
  153.3535  144.3921  157.9708 H   0  0  0  0  0  0  0  0  0  0  0  0
  151.1658  144.4901  156.8347 H   0  0  0  0  0  0  0  0  0  0  0  0
  150.3209  144.3565  158.3573 H   0  0  0  0  0  0  0  0  0  0  0  0
  149.8644  143.1898  155.3393 H   0  0  0  0  0  0  0  0  0  0  0  0
  1  2  1  0  0  0  0
  1 17  1  0  0  0  0
  1 18  1  0  0  0  0
  1 19  1  0  0  0  0
  2  3  1  0  0  0  0
  2  9  1  0  0  0  0
  2 20  1  0  0  0  0
  3  4  1  0  0  0  0
  3 21  1  0  0  0  0
  3 22  1  0  0  0  0
  4  8  1  0  0  0  0
  4  5  1  0  0  0  0
  5  6  2  0  0  0  0
  5 23  1  0  0  0  0
  6  7  1  0  0  0  0
  6 24  1  0  0  0  0
  7  8  2  0  0  0  0
  7 25  1  0  0  0  0
  9 10  1  0  0  0  0
  9 26  1  0  0  0  0
  9 40  1  0  0  0  0
 10 11  1  0  0  0  0
 10 27  1  0  0  0  0
 10 28  1  0  0  0  0
 11 16  1  0  0  0  0
 11 12  1  0  0  0  0
 11 29  1  0  0  0  0
 12 13  1  0  0  0  0
 12 30  1  0  0  0  0
 12 31  1  0  0  0  0
 13 14  1  0  0  0  0
 13 32  1  0  0  0  0
 13 33  1  0  0  0  0
 14 15  1  0  0  0  0
 14 34  1  0  0  0  0
 14 35  1  0  0  0  0
 15 16  1  0  0  0  0
 15 36  1  0  0  0  0
 15 37  1  0  0  0  0
 16 38  1  0  0  0  0
 16 39  1  0  0  0  0
M  CHG  1   9   1
M  END
> <s_m_source_file>
AV-unprocessed.smi

> <i_m_source_file_index>
1078

> <i_lp_mmshare_version>
43012

> <i_f3d_flags>
0

> <s_epik_input>
bjFbY0hdW2NIXVtjSF1uMVtDSDJdW0NAQEhdKFtDSDNdKVtOSF1bQ0gyXVtDSF0yW0NIMl1bQ0gyXVtDSDJdW0NIMl1bQ0gyXTI=

> <s_epik_cmdline>
J2VwaWtfcHl0aG9uJywgJy1waCcsICc3LjAnLCAnLXRuJywgJzgnLCAnLW1hJywgJzIwMCcsICctbWV0YWxfYmluZGluZycsICctaW1hZScsICc8aW5maWxlLm1hZT4nLCAnLW9tYWUnLCAnPG91dGZpbGUubWFlPic=

> <r_lp_tautomer_probability>
1

> <r_epik_Ionization_Penalty>
0.00174474

> <r_epik_Ionization_Penalty_Charging>
0.00174052

> <r_epik_Ionization_Penalty_Neutral>
4.21324e-06

> <r_epik_State_Penalty>
0.00117783

> <r_epik_Charging_Adjusted_Penalty>
0.00291835

> <i_epik_Tot_Q>
1

> <i_epik_Tot_abs_Q>
1

> <r_epik_Metal_State_Penalty>
-0

> <b_epik_Metal_Only>
0

> <s_lp_Force_Field>
OPLS_2005

> <r_lp_Energy>
15.4187

> <b_lp_Chiralities_Consistent>
1

> <s_lp_Variant>
AV-unprocessed.smi:1078-1

> <Gold.Version>
5.8.1

> <Gold.Id.Protein>
6NUR|6NUR_protein|mol2

> <Gold.PLP.Fitness>
50.9980

> <Gold.PLP.PLP>
-41.5907

> <Gold.PLP.part.hbond>
-2.0000

> <Gold.PLP.part.metal>
0.0000

> <Gold.PLP.part.buried>
-1.4071

> <Gold.PLP.part.nonpolar>
-38.7251

> <Gold.PLP.part.repulsive>
0.2129

> <Gold.PLP.ligand.clash>
0.0000

> <Gold.PLP.ligand.torsion>
0.5943

> <Gold.PLP.Chemscore.Hbond>
2.5250

> <Gold.PLP.Chemscore.CHOScore>
1.0000

> <Gold.PLP.Chemscore.Metal>
0.0000

> <Gold.Chemscore.Hbonds>
donor molecule, donor type, donor heavy atom, donor atom, acceptor molecule, acceptor atom, score
      L1  H     9    40       P1  8028  2.00
      P1  H  7989  7998       L1     8  0.27
      L1  C     5    23       P1  7948  0.71

> <Gold.PLP.Chemscore.Internal.Correction>
0.0209

> <Gold.Rescore>
     Score         DG    S(hbond)    S(metal)    S(lipo)     H(rot)  DE(clash)    DE(int)     intcor
     18.41     -18.95       0.98        0.00     120.84       1.54       0.11       0.43       ----

> <Gold.Chemscore.Fitness>
18.4150

> <Gold.Chemscore.DG>
-18.9544

> <Gold.Chemscore.ZeroCoef>
-5.4800

> <Gold.Chemscore.Hbond>
0.9799

> <Gold.Chemscore.Metal>
0.0000

> <Gold.Chemscore.Lipo>
120.8390

> <Gold.Chemscore.Internal_Hbond>
0.0000

> <Gold.Chemscore.DEClash>
0.1126

> <Gold.Chemscore.DEInternal>
0.4268

> <Gold.Chemscore.Rot>
1.5378

> <Gold.Chemscore.Internal.Correction>
   9.000000E+99

> <Gold.Chemscore.Hbonds>
donor molecule, donor type, donor heavy atom, donor atom, acceptor molecule, acceptor atom, score
      L1  H     9    40       P1  8028  0.97

> <Gold.Chemscore.Hbond.Weighted>
-3.2730

> <Gold.Chemscore.Metal.Weighted>
-0.0000

> <Gold.Chemscore.Lipo.Weighted>
-14.1382

> <Gold.Chemscore.Internal_Hbond.Weighted>
0.0000

> <Gold.Chemscore.DEClash.Weighted>
0.1126

> <Gold.Chemscore.DEInternal.Weighted>
0.4268

> <Gold.Chemscore.Rot.Weighted>
3.9368

> <Gold.Chemscore.Internal.Correction.Weighted>
   9.000000E+99

> <Gold.Protein.RotatedTorsions>
[ 6907 6896 6895 6894 ] final -104.78 input  -60.11 | X-H torsion
[ 7974 7965 7964 7962 ] final  -57.27 input  175.53 | X-H torsion
[ 8008 7997 7996 7995 ] final   89.89 input   59.86 | X-H torsion
[ 10167 10162 10161 10158 ] final  119.35 input  -65.29 | X-H torsion
[ 10718 10713 10712 10709 ] final -141.05 input   66.30 | X-H torsion
[ 10763 10752 10751 10750 ] final  -87.85 input  -60.55 | X-H torsion
[ 11005 11000 10999 10996 ] final  166.42 input  -57.11 | X-H torsion

> <Gold.Protein.ActiveResidues>
 VAL166  LYS551  ARG553  GLY616  TRP617  ASP618  TYR619  PRO620  LYS621  CYS622 
 ASP623  PHE694  ASN695  SER759  ASP760  ASP761  ALA762  ILE779  LEU786  VAL792 
 PHE793  MET794  SER795  GLU796  ALA797  LYS798  CYS799  TRP800  GLU811  SER814 

> <Gold.Protein.RotatedAtoms>
  150.7304  134.0225  159.3705 H   0  0  0  0  0  0  0  0  0  0  0  0  # atno 6907 bound_to 6896
  151.8191  135.0655  160.0432 H   0  0  0  0  0  0  0  0  0  0  0  0  # atno 6908 bound_to 6896
  152.3017  133.5626  159.5659 H   0  0  0  0  0  0  0  0  0  0  0  0  # atno 6909 bound_to 6896
  145.8530  140.8339  142.9976 H   0  0  0  0  0  0  0  0  0  0  0  0  # atno 7974 bound_to 7965
  156.0054  140.3355  155.6887 H   0  0  0  0  0  0  0  0  0  0  0  0  # atno 8008 bound_to 7997
  155.6232  140.0677  157.2689 H   0  0  0  0  0  0  0  0  0  0  0  0  # atno 8009 bound_to 7997
  154.4263  140.1773  156.1382 H   0  0  0  0  0  0  0  0  0  0  0  0  # atno 8010 bound_to 7997
  139.6052  144.7068  151.2970 H   0  0  0  0  0  0  0  0  0  0  0  0  # atno 10167 bound_to 10162
  156.3295  130.7578  151.1693 H   0  0  0  0  0  0  0  0  0  0  0  0  # atno 10718 bound_to 10713
  154.6382  135.5398  153.7758 H   0  0  0  0  0  0  0  0  0  0  0  0  # atno 10763 bound_to 10752
  153.0319  135.6452  154.1200 H   0  0  0  0  0  0  0  0  0  0  0  0  # atno 10764 bound_to 10752
  154.1126  135.2925  155.3207 H   0  0  0  0  0  0  0  0  0  0  0  0  # atno 10765 bound_to 10752
  140.2662  134.7863  157.3635 H   0  0  0  0  0  0  0  0  0  0  0  0  # atno 11005 bound_to 11000
  144.6728  140.0982  143.7462 LP  0  0  0  0  0  0  0  0  0  0  0  0  # atno 17320 bound_to 7965
  145.9336  139.2622  143.1311 LP  0  0  0  0  0  0  0  0  0  0  0  0  # atno 17321 bound_to 7965
  140.7279  143.6949  150.7891 LP  0  0  0  0  0  0  0  0  0  0  0  0  # atno 17342 bound_to 10162
  140.0534  143.5227  152.2663 LP  0  0  0  0  0  0  0  0  0  0  0  0  # atno 17343 bound_to 10162
  157.7427  131.0485  150.5000 LP  0  0  0  0  0  0  0  0  0  0  0  0  # atno 17370 bound_to 10713
  156.5164  130.4151  149.6274 LP  0  0  0  0  0  0  0  0  0  0  0  0  # atno 17371 bound_to 10713
  140.1416  134.4964  155.8027 LP  0  0  0  0  0  0  0  0  0  0  0  0  # atno 17394 bound_to 11000
  141.2184  133.6827  156.7221 LP  0  0  0  0  0  0  0  0  0  0  0  0  # atno 17395 bound_to 11000

$$$$
