AV-unprocessed.smi:160|AV-procd|sdf|1370|dock4
  -GOLD-   2262019 93D 1   1.00000     0.00000
 Structure written by MMmdl.
 28 29  0  0  0  0  0  0  0  0  2 V2000
  151.8978  137.3953  154.0447 N   0  5  0  0  0  0  0  0  0  0  0  0
  152.4372  138.3578  154.8232 C   0  0  0  0  0  0  0  0  0  0  0  0
  153.6167  138.4429  155.1647 O   0  0  0  0  0  0  0  0  0  0  0  0
  151.4539  139.4050  155.2884 C   0  0  0  0  0  0  0  0  0  0  0  0
  151.4008  139.8570  156.5809 N   0  0  0  0  0  0  0  0  0  0  0  0
  150.4101  140.7289  156.4582 C   0  0  0  0  0  0  0  0  0  0  0  0
  149.8783  140.7892  155.2317 N   0  0  0  0  0  0  0  0  0  0  0  0
  148.8107  141.6764  154.6646 C   0  0  1  0  0  0  0  0  0  0  0  0
  148.5574  141.2756  153.3474 O   0  0  0  0  0  0  0  0  0  0  0  0
  147.3708  140.4912  153.2637 C   0  0  1  0  0  0  0  0  0  0  0  0
  147.6926  138.9955  153.4937 C   0  0  0  0  0  0  0  0  0  0  0  0
  148.9440  138.6840  152.9201 O   0  0  0  0  0  0  0  0  0  0  0  0
  146.4973  141.1590  154.3348 C   0  0  1  0  0  0  0  0  0  0  0  0
  145.4652  140.3189  154.8132 O   0  0  0  0  0  0  0  0  0  0  0  0
  147.4838  141.5246  155.4378 C   0  0  2  0  0  0  0  0  0  0  0  0
  147.0913  142.7367  156.0503 O   0  0  0  0  0  0  0  0  0  0  0  0
  150.5850  139.9493  154.4351 N   0  0  0  0  0  0  0  0  0  0  0  0
  149.2461  142.6761  154.6940 H   0  0  0  0  0  0  0  0  0  0  0  0
  146.9094  140.6140  152.2830 H   0  0  0  0  0  0  0  0  0  0  0  0
  146.0559  142.0614  153.9082 H   0  0  0  0  0  0  0  0  0  0  0  0
  147.5500  140.7230  156.1743 H   0  0  0  0  0  0  0  0  0  0  0  0
  151.3073  137.6806  153.2542 H   0  0  0  0  0  0  0  0  0  0  0  0
  150.0703  141.3383  157.2824 H   0  0  0  0  0  0  0  0  0  0  0  0
  147.6796  138.7162  154.5457 H   0  0  0  0  0  0  0  0  0  0  0  0
  146.9597  138.3629  152.9938 H   0  0  0  0  0  0  0  0  0  0  0  0
  148.8237  137.9796  152.3019 H   0  0  0  0  0  0  0  0  0  0  0  0
  144.8697  140.1448  154.1003 H   0  0  0  0  0  0  0  0  0  0  0  0
  147.7763  143.3747  155.9201 H   0  0  0  0  0  0  0  0  0  0  0  0
  1  2  1  0  0  0  0
  1 22  1  0  0  0  0
  2  3  2  0  0  0  0
  2  4  1  0  0  0  0
  4 17  2  0  0  0  0
  4  5  1  0  0  0  0
  5  6  2  0  0  0  0
  6  7  1  0  0  0  0
  6 23  1  0  0  0  0
  7  8  1  0  0  0  0
  7 17  1  0  0  0  0
  8 18  1  0  0  0  0
  8 15  1  0  0  0  0
  8  9  1  0  0  0  0
  9 10  1  0  0  0  0
 10 19  1  0  0  0  0
 10 11  1  0  0  0  0
 10 13  1  0  0  0  0
 11 12  1  0  0  0  0
 11 24  1  0  0  0  0
 11 25  1  0  0  0  0
 12 26  1  0  0  0  0
 13 20  1  0  0  0  0
 13 14  1  0  0  0  0
 13 15  1  0  0  0  0
 14 27  1  0  0  0  0
 15 21  1  0  0  0  0
 15 16  1  0  0  0  0
 16 28  1  0  0  0  0
M  CHG  1   1  -1
M  END
> <s_m_source_file>
AV-unprocessed.smi

> <i_m_source_file_index>
160

> <i_lp_mmshare_version>
43012

> <i_f3d_flags>
0

> <s_epik_input>
W05IMl1DKD1PKWMxbltjSF1uKG4xKVtDQEBIXTJPW0NASF0oW0NIMl1bT0hdKVtDQEBIXShbT0hdKVtDQEhdMltPSF0=

> <s_epik_cmdline>
J2VwaWtfcHl0aG9uJywgJy1waCcsICc3LjAnLCAnLXRuJywgJzgnLCAnLW1hJywgJzIwMCcsICctbWV0YWxfYmluZGluZycsICctaW1hZScsICc8aW5maWxlLm1hZT4nLCAnLW9tYWUnLCAnPG91dGZpbGUubWFlPic=

> <r_lp_tautomer_probability>
1

> <r_epik_Ionization_Penalty>
6.6993

> <r_epik_Ionization_Penalty_Charging>
6.6993

> <r_epik_Ionization_Penalty_Neutral>
6.01698e-06

> <r_epik_State_Penalty>
6.69929

> <r_epik_Charging_Adjusted_Penalty>
13.3986

> <i_epik_Tot_Q>
-1

> <i_epik_Tot_abs_Q>
1

> <r_epik_Metal_State_Penalty>
2.62798

> <b_epik_Metal_Only>
1

> <s_epik_Chemistry_Notes>
This compound contains an acetal/aminal-like group ( X-CH(R)-Y where X, Y are N, S, or O) that may be acid/base labile, releasing an aldehyde.

> <s_lp_Force_Field>
OPLS_2005

> <r_lp_Energy>
41.818

> <b_lp_Chiralities_Consistent>
1

> <s_lp_Variant>
AV-unprocessed.smi:160-28

> <Gold.Version>
5.8.1

> <Gold.Id.Protein>
6NUR|6NUR_protein|mol2

> <Gold.PLP.Fitness>
48.6603

> <Gold.PLP.PLP>
-28.5555

> <Gold.PLP.part.hbond>
-8.1685

> <Gold.PLP.part.metal>
0.0000

> <Gold.PLP.part.buried>
0.4228

> <Gold.PLP.part.nonpolar>
-21.0828

> <Gold.PLP.part.repulsive>
2.8039

> <Gold.PLP.ligand.clash>
0.0000

> <Gold.PLP.ligand.torsion>
1.1681

> <Gold.PLP.Chemscore.Hbond>
7.4562

> <Gold.PLP.Chemscore.CHOScore>
0.0000

> <Gold.PLP.Chemscore.Metal>
0.0000

> <Gold.Chemscore.Hbonds>
donor molecule, donor type, donor heavy atom, donor atom, acceptor molecule, acceptor atom, score
      L1  H    12    26       P1  7948  1.00
      L1  H    14    27       P1 10175  0.99
      L1  H    16    28       P1  8028  0.80
      P1  H  7989  7998       L1    17  1.00
      P1  H  7997  8009       L1     3  0.74
      P1  H  8011  8017       L1     9  0.88
      P1  H 10752 10765       L1     1  2.00

> <Gold.PLP.Chemscore.Internal.Correction>
0.0722

> <Gold.Rescore>
     Score         DG    S(hbond)    S(metal)    S(lipo)     H(rot)  DE(clash)    DE(int)     intcor
      9.94     -13.73       4.78        0.00      22.49       4.04       1.01       2.78       ----

> <Gold.Chemscore.Fitness>
9.9407

> <Gold.Chemscore.DG>
-13.7257

> <Gold.Chemscore.ZeroCoef>
-5.4800

> <Gold.Chemscore.Hbond>
4.7777

> <Gold.Chemscore.Metal>
0.0000

> <Gold.Chemscore.Lipo>
22.4883

> <Gold.Chemscore.Internal_Hbond>
0.0000

> <Gold.Chemscore.DEClash>
1.0095

> <Gold.Chemscore.DEInternal>
2.7755

> <Gold.Chemscore.Rot>
4.0403

> <Gold.Chemscore.Internal.Correction>
   9.000000E+99

> <Gold.Chemscore.Hbonds>
donor molecule, donor type, donor heavy atom, donor atom, acceptor molecule, acceptor atom, score
      L1  H     1    22       P1  7949  0.01
      L1  H    12    26       P1  7948  0.95
      L1  H    14    27       P1 10175  0.92
      L1  H    16    28       P1  8028  0.12
      P1  H  7989  7998       L1    17  0.20
      P1  H  7997  8009       L1     3  0.70
      P1  H  8011  8017       L1     9  0.30
      P1  H 10752 10765       L1     1  0.70

> <Gold.Chemscore.Hbond.Weighted>
-15.9576

> <Gold.Chemscore.Metal.Weighted>
-0.0000

> <Gold.Chemscore.Lipo.Weighted>
-2.6311

> <Gold.Chemscore.Internal_Hbond.Weighted>
0.0000

> <Gold.Chemscore.DEClash.Weighted>
1.0095

> <Gold.Chemscore.DEInternal.Weighted>
2.7755

> <Gold.Chemscore.Rot.Weighted>
10.3431

> <Gold.Chemscore.Internal.Correction.Weighted>
   9.000000E+99

> <Gold.Protein.RotatedTorsions>
[ 6907 6896 6895 6894 ] final   37.73 input  -60.11 | X-H torsion
[ 7974 7965 7964 7962 ] final -179.12 input  175.53 | X-H torsion
[ 8008 7997 7996 7995 ] final -141.74 input   59.86 | X-H torsion
[ 10167 10162 10161 10158 ] final  163.55 input  -65.29 | X-H torsion
[ 10718 10713 10712 10709 ] final   31.06 input   66.30 | X-H torsion
[ 10763 10752 10751 10750 ] final  150.65 input  -60.55 | X-H torsion
[ 11005 11000 10999 10996 ] final  175.58 input  -57.11 | X-H torsion

> <Gold.Protein.ActiveResidues>
 VAL166  LYS551  ARG553  GLY616  TRP617  ASP618  TYR619  PRO620  LYS621  CYS622 
 ASP623  PHE694  ASN695  SER759  ASP760  ASP761  ALA762  ILE779  LEU786  VAL792 
 PHE793  MET794  SER795  GLU796  ALA797  LYS798  CYS799  TRP800  GLU811  SER814 

> <Gold.Protein.RotatedAtoms>
  152.1471  134.9017  160.0550 H   0  0  0  0  0  0  0  0  0  0  0  0  # atno 6907 bound_to 6896
  152.0063  133.3839  159.4210 H   0  0  0  0  0  0  0  0  0  0  0  0  # atno 6908 bound_to 6896
  150.6871  134.3701  159.5032 H   0  0  0  0  0  0  0  0  0  0  0  0  # atno 6909 bound_to 6896
  144.7134  140.0766  143.6427 H   0  0  0  0  0  0  0  0  0  0  0  0  # atno 7974 bound_to 7965
  155.4827  140.0561  157.2965 H   0  0  0  0  0  0  0  0  0  0  0  0  # atno 8008 bound_to 7997
  154.4654  140.2016  156.0085 H   0  0  0  0  0  0  0  0  0  0  0  0  # atno 8009 bound_to 7997
  156.0965  140.3225  155.7888 H   0  0  0  0  0  0  0  0  0  0  0  0  # atno 8010 bound_to 7997
  139.4875  144.4325  151.9053 H   0  0  0  0  0  0  0  0  0  0  0  0  # atno 10167 bound_to 10162
  157.2676  130.7192  149.6487 H   0  0  0  0  0  0  0  0  0  0  0  0  # atno 10718 bound_to 10713
  154.0910  135.2852  155.3271 H   0  0  0  0  0  0  0  0  0  0  0  0  # atno 10763 bound_to 10752
  154.6620  135.5331  153.8033 H   0  0  0  0  0  0  0  0  0  0  0  0  # atno 10764 bound_to 10752
  153.0413  135.6536  154.1079 H   0  0  0  0  0  0  0  0  0  0  0  0  # atno 10765 bound_to 10752
  140.3637  134.7090  157.4348 H   0  0  0  0  0  0  0  0  0  0  0  0  # atno 11005 bound_to 11000
  145.9738  139.2889  143.1083 LP  0  0  0  0  0  0  0  0  0  0  0  0  # atno 17320 bound_to 7965
  145.9087  140.9195  143.0465 LP  0  0  0  0  0  0  0  0  0  0  0  0  # atno 17321 bound_to 7965
  140.3773  144.2780  150.5912 LP  0  0  0  0  0  0  0  0  0  0  0  0  # atno 17342 bound_to 10162
  140.5265  143.2253  151.8307 LP  0  0  0  0  0  0  0  0  0  0  0  0  # atno 17343 bound_to 10162
  155.9663  130.4377  150.5189 LP  0  0  0  0  0  0  0  0  0  0  0  0  # atno 17370 bound_to 10713
  157.3106  131.0663  151.2003 LP  0  0  0  0  0  0  0  0  0  0  0  0  # atno 17371 bound_to 10713
  140.0606  134.6001  155.8753 LP  0  0  0  0  0  0  0  0  0  0  0  0  # atno 17394 bound_to 11000
  141.1976  133.6597  156.5750 LP  0  0  0  0  0  0  0  0  0  0  0  0  # atno 17395 bound_to 11000

$$$$
