AV-unprocessed.smi:1032|AV-procd|sdf|4486|dock7
  -GOLD-   22720 2463D 1   1.00000     0.00000
 Structure written by MMmdl.
 47 48  0  0  0  0  0  0  0  0  3 V2000
  142.3898  136.3875  154.5043 C   0  0  0  0  0  0  0  0  0  0  0  0
  143.8390  136.8602  154.3228 C   0  0  2  0  0  0  0  0  0  0  0  0
  144.1601  138.0749  155.2096 C   0  0  0  0  0  0  0  0  0  0  0  0
  145.6058  138.5554  154.9970 C   0  0  0  0  0  0  0  0  0  0  0  0
  145.8577  138.8808  153.5676 N   0  3  1  0  0  0  0  0  0  0  0  0
  147.2012  139.4658  153.3199 C   0  0  0  0  0  0  0  0  0  0  0  0
  147.5447  140.6210  154.2836 C   0  0  2  0  0  0  0  0  0  0  0  0
  147.0113  141.8099  153.7340 O   0  0  0  0  0  0  0  0  0  0  0  0
  149.0706  140.8013  154.4223 C   0  0  0  0  0  0  0  0  0  0  0  0
  149.4139  141.9406  155.2687 N   0  0  0  0  0  0  0  0  0  0  0  0
  150.2179  141.8850  156.3404 C   0  0  0  0  0  0  0  0  0  0  0  0
  150.7311  140.8426  156.7475 O   0  0  0  0  0  0  0  0  0  0  0  0
  150.3626  143.0939  156.9098 N   0  0  0  0  0  0  0  0  0  0  0  0
  151.1744  143.4512  158.0207 C   0  0  0  0  0  0  0  0  0  0  0  0
  151.7751  142.4072  158.7590 C   0  0  0  0  0  0  0  0  0  0  0  0
  152.5720  142.7176  159.8798 C   0  0  0  0  0  0  0  0  0  0  0  0
  152.7451  144.0057  160.2460 N   0  3  0  0  0  0  0  0  0  0  0  0
  152.1786  145.0359  159.5820 C   0  0  0  0  0  0  0  0  0  0  0  0
  151.3728  144.7875  158.4520 C   0  0  0  0  0  0  0  0  0  0  0  0
  145.5874  137.7126  152.6903 C   0  0  0  0  0  0  0  0  0  0  0  0
  144.1435  137.2111  152.8571 C   0  0  0  0  0  0  0  0  0  0  0  0
  141.6788  137.1628  154.2164 H   0  0  0  0  0  0  0  0  0  0  0  0
  142.1900  136.1216  155.5426 H   0  0  0  0  0  0  0  0  0  0  0  0
  142.1858  135.5065  153.8950 H   0  0  0  0  0  0  0  0  0  0  0  0
  144.4945  136.0401  154.6201 H   0  0  0  0  0  0  0  0  0  0  0  0
  143.4692  138.8895  154.9874 H   0  0  0  0  0  0  0  0  0  0  0  0
  144.0093  137.8209  156.2595 H   0  0  0  0  0  0  0  0  0  0  0  0
  145.7785  139.4278  155.6255 H   0  0  0  0  0  0  0  0  0  0  0  0
  146.3074  137.7872  155.3261 H   0  0  0  0  0  0  0  0  0  0  0  0
  147.9498  138.6748  153.3876 H   0  0  0  0  0  0  0  0  0  0  0  0
  147.2535  139.8450  152.2977 H   0  0  0  0  0  0  0  0  0  0  0  0
  147.1004  140.4459  155.2626 H   0  0  0  0  0  0  0  0  0  0  0  0
  146.2048  142.0144  154.1831 H   0  0  0  0  0  0  0  0  0  0  0  0
  149.5145  139.9047  154.8592 H   0  0  0  0  0  0  0  0  0  0  0  0
  149.5423  140.9186  153.4456 H   0  0  0  0  0  0  0  0  0  0  0  0
  149.0294  142.8361  155.0040 H   0  0  0  0  0  0  0  0  0  0  0  0
  149.7963  143.8374  156.5283 H   0  0  0  0  0  0  0  0  0  0  0  0
  151.6337  141.3761  158.4689 H   0  0  0  0  0  0  0  0  0  0  0  0
  153.0695  141.9794  160.4917 H   0  0  0  0  0  0  0  0  0  0  0  0
  152.3799  146.0216  159.9753 H   0  0  0  0  0  0  0  0  0  0  0  0
  150.9121  145.6237  157.9480 H   0  0  0  0  0  0  0  0  0  0  0  0
  145.7485  137.9888  151.6473 H   0  0  0  0  0  0  0  0  0  0  0  0
  146.2935  136.9126  152.9195 H   0  0  0  0  0  0  0  0  0  0  0  0
  143.9839  136.3380  152.2232 H   0  0  0  0  0  0  0  0  0  0  0  0
  143.4501  137.9773  152.5072 H   0  0  0  0  0  0  0  0  0  0  0  0
  145.1902  139.5915  153.3031 H   0  0  0  0  0  0  0  0  0  0  0  0
  153.3237  144.2091  161.0617 H   0  0  0  0  0  0  0  0  0  0  0  0
  1  2  1  0  0  0  0
  1 22  1  0  0  0  0
  1 23  1  0  0  0  0
  1 24  1  0  0  0  0
  2 21  1  0  0  0  0
  2  3  1  0  0  0  0
  2 25  1  0  0  0  0
  3  4  1  0  0  0  0
  3 26  1  0  0  0  0
  3 27  1  0  0  0  0
  4  5  1  0  0  0  0
  4 28  1  0  0  0  0
  4 29  1  0  0  0  0
  5  6  1  0  0  0  0
  5 20  1  0  0  0  0
  5 46  1  0  0  0  0
  6  7  1  0  0  0  0
  6 30  1  0  0  0  0
  6 31  1  0  0  0  0
  7  8  1  0  0  0  0
  7  9  1  0  0  0  0
  7 32  1  0  0  0  0
  8 33  1  0  0  0  0
  9 10  1  0  0  0  0
  9 34  1  0  0  0  0
  9 35  1  0  0  0  0
 10 11  1  0  0  0  0
 10 36  1  0  0  0  0
 11 12  2  0  0  0  0
 11 13  1  0  0  0  0
 13 14  1  0  0  0  0
 13 37  1  0  0  0  0
 14 19  1  0  0  0  0
 14 15  2  0  0  0  0
 15 16  1  0  0  0  0
 15 38  1  0  0  0  0
 16 17  2  0  0  0  0
 16 39  1  0  0  0  0
 17 18  1  0  0  0  0
 17 47  1  0  0  0  0
 18 19  2  0  0  0  0
 18 40  1  0  0  0  0
 19 41  1  0  0  0  0
 20 21  1  0  0  0  0
 20 42  1  0  0  0  0
 20 43  1  0  0  0  0
 21 44  1  0  0  0  0
 21 45  1  0  0  0  0
M  CHG  1   5   1
M  CHG  1  17   1
M  END
> <s_m_source_file>
AV-unprocessed.smi

> <i_m_source_file_index>
1032

> <i_lp_mmshare_version>
43012

> <i_f3d_flags>
0

> <s_epik_input>
W0NIM11bQ0hdMVtDSDJdW0NIMl1OKFtDSDJdW0NIMl0xKVtDSDJdW0NASF0oW09IXSlbQ0gyXVtOSF1DKD1PKVtOSF1jMltjSF1bY0hdbltjSF1bY0hdMg==

> <s_epik_cmdline>
J2VwaWtfcHl0aG9uJywgJy1waCcsICc3LjAnLCAnLXRuJywgJzgnLCAnLW1hJywgJzIwMCcsICctbWV0YWxfYmluZGluZycsICctaW1hZScsICc8aW5maWxlLm1hZT4nLCAnLW9tYWUnLCAnPG91dGZpbGUubWFlPic=

> <r_epik_Ionization_Penalty>
1.02509

> <r_epik_Ionization_Penalty_Charging>
1.02507

> <r_epik_Ionization_Penalty_Neutral>
1.85474e-05

> <r_epik_State_Penalty>
1.07411

> <r_epik_Charging_Adjusted_Penalty>
2.09917

> <i_epik_Tot_Q>
2

> <i_epik_Tot_abs_Q>
2

> <r_epik_Metal_State_Penalty>
1.1725

> <b_epik_Metal_Only>
0

> <s_lp_Force_Field>
OPLS_2005

> <r_lp_Energy>
32.4913

> <b_lp_Chiralities_Consistent>
1

> <s_lp_Variant>
AV-unprocessed.smi:1032-5

> <Gold.Version>
5.8.1

> <Gold.Id.Protein>
6NUR|6NUR_protein|mol2

> <Gold.PLP.Fitness>
47.5727

> <Gold.PLP.PLP>
-36.3623

> <Gold.PLP.part.hbond>
-3.0000

> <Gold.PLP.part.metal>
0.0000

> <Gold.PLP.part.buried>
-4.7824

> <Gold.PLP.part.nonpolar>
-29.2789

> <Gold.PLP.part.repulsive>
0.2466

> <Gold.PLP.ligand.clash>
0.0000

> <Gold.PLP.ligand.torsion>
0.3486

> <Gold.PLP.Chemscore.Hbond>
3.9440

> <Gold.PLP.Chemscore.CHOScore>
0.0000

> <Gold.PLP.Chemscore.Metal>
0.0000

> <Gold.Chemscore.Hbonds>
donor molecule, donor type, donor heavy atom, donor atom, acceptor molecule, acceptor atom, score
      L1  H     5    46       P1 10175  2.00
      L1  H    10    36       P1  8028  0.85
      L1  H    13    37       P1  8028  0.99

> <Gold.PLP.Chemscore.Internal.Correction>
0.0757

> <Gold.Rescore>
     Score         DG    S(hbond)    S(metal)    S(lipo)     H(rot)  DE(clash)    DE(int)     intcor
     18.30     -20.18       2.86        0.00      95.19       2.34       0.10       1.78       ----

> <Gold.Chemscore.Fitness>
18.2988

> <Gold.Chemscore.DG>
-20.1804

> <Gold.Chemscore.ZeroCoef>
-5.4800

> <Gold.Chemscore.Hbond>
2.8598

> <Gold.Chemscore.Metal>
0.0000

> <Gold.Chemscore.Lipo>
95.1908

> <Gold.Chemscore.Internal_Hbond>
0.0000

> <Gold.Chemscore.DEClash>
0.1013

> <Gold.Chemscore.DEInternal>
1.7804

> <Gold.Chemscore.Rot>
2.3393

> <Gold.Chemscore.Internal.Correction>
   9.000000E+99

> <Gold.Chemscore.Hbonds>
donor molecule, donor type, donor heavy atom, donor atom, acceptor molecule, acceptor atom, score
      L1  H     5    46       P1 10175  0.99
      L1  H    10    36       P1  8028  0.81
      L1  H    13    37       P1  8028  0.92

> <Gold.Chemscore.Hbond.Weighted>
-9.5518

> <Gold.Chemscore.Metal.Weighted>
-0.0000

> <Gold.Chemscore.Lipo.Weighted>
-11.1373

> <Gold.Chemscore.Internal_Hbond.Weighted>
0.0000

> <Gold.Chemscore.DEClash.Weighted>
0.1013

> <Gold.Chemscore.DEInternal.Weighted>
1.7804

> <Gold.Chemscore.Rot.Weighted>
5.9886

> <Gold.Chemscore.Internal.Correction.Weighted>
   9.000000E+99

> <Gold.Protein.RotatedTorsions>
[ 6907 6896 6895 6894 ] final -111.46 input  -60.11 | X-H torsion
[ 7974 7965 7964 7962 ] final -168.37 input  175.53 | X-H torsion
[ 8008 7997 7996 7995 ] final -174.84 input   59.86 | X-H torsion
[ 10167 10162 10161 10158 ] final -153.43 input  -65.29 | X-H torsion
[ 10718 10713 10712 10709 ] final  153.57 input   66.30 | X-H torsion
[ 10763 10752 10751 10750 ] final -158.73 input  -60.55 | X-H torsion
[ 11005 11000 10999 10996 ] final  125.55 input  -57.11 | X-H torsion

> <Gold.Protein.ActiveResidues>
 VAL166  LYS551  ARG553  GLY616  TRP617  ASP618  TYR619  PRO620  LYS621  CYS622 
 ASP623  PHE694  ASN695  SER759  ASP760  ASP761  ALA762  ILE779  LEU786  VAL792 
 PHE793  MET794  SER795  GLU796  ALA797  LYS798  CYS799  TRP800  GLU811  SER814 

> <Gold.Protein.RotatedAtoms>
  150.7692  133.9232  159.3404 H   0  0  0  0  0  0  0  0  0  0  0  0  # atno 6907 bound_to 6896
  151.7122  135.0908  160.0279 H   0  0  0  0  0  0  0  0  0  0  0  0  # atno 6908 bound_to 6896
  152.3702  133.6371  159.6117 H   0  0  0  0  0  0  0  0  0  0  0  0  # atno 6909 bound_to 6896
  144.7204  140.2380  143.6295 H   0  0  0  0  0  0  0  0  0  0  0  0  # atno 7974 bound_to 7965
  155.9751  140.1170  157.0777 H   0  0  0  0  0  0  0  0  0  0  0  0  # atno 8008 bound_to 7997
  154.4167  140.1155  156.5427 H   0  0  0  0  0  0  0  0  0  0  0  0  # atno 8009 bound_to 7997
  155.6545  140.3473  155.4762 H   0  0  0  0  0  0  0  0  0  0  0  0  # atno 8010 bound_to 7997
  139.7097  143.9128  152.2463 H   0  0  0  0  0  0  0  0  0  0  0  0  # atno 10167 bound_to 10162
  157.2430  131.0763  151.1780 H   0  0  0  0  0  0  0  0  0  0  0  0  # atno 10718 bound_to 10713
  154.7533  135.3098  154.8517 H   0  0  0  0  0  0  0  0  0  0  0  0  # atno 10763 bound_to 10752
  153.9298  135.6786  153.4750 H   0  0  0  0  0  0  0  0  0  0  0  0  # atno 10764 bound_to 10752
  153.1130  135.4858  154.8996 H   0  0  0  0  0  0  0  0  0  0  0  0  # atno 10765 bound_to 10752
  139.9412  134.9635  156.8575 H   0  0  0  0  0  0  0  0  0  0  0  0  # atno 11005 bound_to 11000
  145.8347  139.2102  143.1862 LP  0  0  0  0  0  0  0  0  0  0  0  0  # atno 17320 bound_to 7965
  146.0399  140.8175  142.9833 LP  0  0  0  0  0  0  0  0  0  0  0  0  # atno 17321 bound_to 7965
  139.8994  144.6920  150.8682 LP  0  0  0  0  0  0  0  0  0  0  0  0  # atno 17342 bound_to 10162
  140.7730  143.3525  151.1985 LP  0  0  0  0  0  0  0  0  0  0  0  0  # atno 17343 bound_to 10162
  157.3359  130.7008  149.6352 LP  0  0  0  0  0  0  0  0  0  0  0  0  # atno 17370 bound_to 10713
  155.9669  130.4294  150.4831 LP  0  0  0  0  0  0  0  0  0  0  0  0  # atno 17371 bound_to 10713
  140.5947  134.0228  155.7513 LP  0  0  0  0  0  0  0  0  0  0  0  0  # atno 17394 bound_to 11000
  141.1047  133.9712  157.3018 LP  0  0  0  0  0  0  0  0  0  0  0  0  # atno 17395 bound_to 11000

$$$$
