AV-unprocessed.smi:861|AV-procd|sdf|3973|dock2
  -GOLD-   22720 1443D 1   1.00000     0.00000
 Structure written by MMmdl.
 45 46  0  0  0  0  0  0  0  0  3 V2000
  145.1018  144.4164  153.6960 C   0  0  0  0  0  0  0  0  0  0  0  0
  145.4931  143.0896  154.3687 C   0  0  0  0  0  0  0  0  0  0  0  0
  145.4403  143.2313  155.8976 C   0  0  0  0  0  0  0  0  0  0  0  0
  146.8770  142.5776  153.9180 C   0  0  0  0  0  0  0  0  0  0  0  0
  147.1170  141.0828  154.2048 C   0  0  0  0  0  0  0  0  0  0  0  0
  148.5098  140.6663  153.8894 N   0  3  2  0  0  0  0  0  0  0  0  0
  148.7651  139.2217  154.1092 C   0  0  0  0  0  0  0  0  0  0  0  0
  148.9571  138.9120  155.6043 C   0  0  0  0  0  0  0  0  0  0  0  0
  150.0169  139.7096  156.1186 O   0  0  0  0  0  0  0  0  0  0  0  0
  149.7436  141.1047  156.0319 C   0  0  1  0  0  0  0  0  0  0  0  0
  150.9193  141.8652  156.6709 C   0  0  0  0  0  0  0  0  0  0  0  0
  150.5675  143.2285  157.0470 N   0  0  0  0  0  0  0  0  0  0  0  0
  151.2094  143.8956  158.1007 C   0  0  0  0  0  0  0  0  0  0  0  0
  152.2397  143.3366  158.8932 C   0  0  0  0  0  0  0  0  0  0  0  0
  152.7962  144.1235  159.9159 C   0  0  0  0  0  0  0  0  0  0  0  0
  152.2880  145.4232  160.0878 C   0  0  0  0  0  0  0  0  0  0  0  0
  151.3018  145.9391  159.3212 N   0  0  0  0  0  0  0  0  0  0  0  0
  150.7900  145.1613  158.3508 N   0  3  0  0  0  0  0  0  0  0  0  0
  149.5660  141.4820  154.5438 C   0  0  0  0  0  0  0  0  0  0  0  0
  145.8392  145.1947  153.8944 H   0  0  0  0  0  0  0  0  0  0  0  0
  144.1394  144.7718  154.0658 H   0  0  0  0  0  0  0  0  0  0  0  0
  145.0069  144.3111  152.6158 H   0  0  0  0  0  0  0  0  0  0  0  0
  144.7490  142.3423  154.0895 H   0  0  0  0  0  0  0  0  0  0  0  0
  146.1635  143.9665  156.2526 H   0  0  0  0  0  0  0  0  0  0  0  0
  145.6591  142.2840  156.3913 H   0  0  0  0  0  0  0  0  0  0  0  0
  144.4520  143.5506  156.2296 H   0  0  0  0  0  0  0  0  0  0  0  0
  147.0105  142.7708  152.8526 H   0  0  0  0  0  0  0  0  0  0  0  0
  147.6369  143.1702  154.4261 H   0  0  0  0  0  0  0  0  0  0  0  0
  146.8658  140.8445  155.2380 H   0  0  0  0  0  0  0  0  0  0  0  0
  146.4332  140.5034  153.5850 H   0  0  0  0  0  0  0  0  0  0  0  0
  147.9631  138.6162  153.6852 H   0  0  0  0  0  0  0  0  0  0  0  0
  149.6713  138.9477  153.5673 H   0  0  0  0  0  0  0  0  0  0  0  0
  148.0399  139.0898  156.1677 H   0  0  0  0  0  0  0  0  0  0  0  0
  149.2126  137.8608  155.7384 H   0  0  0  0  0  0  0  0  0  0  0  0
  148.8298  141.3304  156.5826 H   0  0  0  0  0  0  0  0  0  0  0  0
  151.2540  141.3398  157.5658 H   0  0  0  0  0  0  0  0  0  0  0  0
  151.7762  141.8842  155.9974 H   0  0  0  0  0  0  0  0  0  0  0  0
  149.9492  143.7463  156.4383 H   0  0  0  0  0  0  0  0  0  0  0  0
  152.6060  142.3335  158.7346 H   0  0  0  0  0  0  0  0  0  0  0  0
  153.5846  143.7450  160.5497 H   0  0  0  0  0  0  0  0  0  0  0  0
  152.6816  146.0674  160.8605 H   0  0  0  0  0  0  0  0  0  0  0  0
  150.5024  141.3044  154.0129 H   0  0  0  0  0  0  0  0  0  0  0  0
  149.3591  142.5465  154.4409 H   0  0  0  0  0  0  0  0  0  0  0  0
  148.6057  140.8110  152.8939 H   0  0  0  0  0  0  0  0  0  0  0  0
  150.0444  145.5450  157.7696 H   0  0  0  0  0  0  0  0  0  0  0  0
  1  2  1  0  0  0  0
  1 20  1  0  0  0  0
  1 21  1  0  0  0  0
  1 22  1  0  0  0  0
  2  3  1  0  0  0  0
  2  4  1  0  0  0  0
  2 23  1  0  0  0  0
  3 24  1  0  0  0  0
  3 25  1  0  0  0  0
  3 26  1  0  0  0  0
  4  5  1  0  0  0  0
  4 27  1  0  0  0  0
  4 28  1  0  0  0  0
  5  6  1  0  0  0  0
  5 29  1  0  0  0  0
  5 30  1  0  0  0  0
  6 19  1  0  0  0  0
  6  7  1  0  0  0  0
  6 44  1  0  0  0  0
  7  8  1  0  0  0  0
  7 31  1  0  0  0  0
  7 32  1  0  0  0  0
  8  9  1  0  0  0  0
  8 33  1  0  0  0  0
  8 34  1  0  0  0  0
  9 10  1  0  0  0  0
 10 11  1  0  0  0  0
 10 19  1  0  0  0  0
 10 35  1  0  0  0  0
 11 12  1  0  0  0  0
 11 36  1  0  0  0  0
 11 37  1  0  0  0  0
 12 13  1  0  0  0  0
 12 38  1  0  0  0  0
 13 18  1  0  0  0  0
 13 14  2  0  0  0  0
 14 15  1  0  0  0  0
 14 39  1  0  0  0  0
 15 16  2  0  0  0  0
 15 40  1  0  0  0  0
 16 17  1  0  0  0  0
 16 41  1  0  0  0  0
 17 18  2  0  0  0  0
 18 45  1  0  0  0  0
 19 42  1  0  0  0  0
 19 43  1  0  0  0  0
M  CHG  1   6   1
M  CHG  1  18   1
M  END
> <s_m_source_file>
AV-unprocessed.smi

> <i_m_source_file_index>
861

> <i_lp_mmshare_version>
43012

> <i_f3d_flags>
0

> <s_epik_input>
W0NIM11bQ0hdKFtDSDNdKVtDSDJdW0NIMl1OMVtDSDJdW0NIMl1PW0NASF0oW0NIMl0xKVtDSDJdW05IXWMyW2NIXVtjSF1bY0hdbm4y

> <s_epik_cmdline>
J2VwaWtfcHl0aG9uJywgJy1waCcsICc3LjAnLCAnLXRuJywgJzgnLCAnLW1hJywgJzIwMCcsICctbWV0YWxfYmluZGluZycsICctaW1hZScsICc8aW5maWxlLm1hZT4nLCAnLW9tYWUnLCAnPG91dGZpbGUubWFlPic=

> <r_lp_tautomer_probability>
0.966961

> <r_epik_Ionization_Penalty>
2.478

> <r_epik_Ionization_Penalty_Charging>
2.47799

> <r_epik_Ionization_Penalty_Neutral>
3.15286e-06

> <r_epik_State_Penalty>
2.10794

> <r_epik_Charging_Adjusted_Penalty>
4.58594

> <i_epik_Tot_Q>
2

> <i_epik_Tot_abs_Q>
2

> <r_epik_Metal_State_Penalty>
2.11378

> <b_epik_Metal_Only>
0

> <s_lp_Force_Field>
OPLS_2005

> <r_lp_Energy>
36.5784

> <b_lp_Chiralities_Consistent>
1

> <s_lp_Variant>
AV-unprocessed.smi:861-8

> <Gold.Version>
5.8.1

> <Gold.Id.Protein>
6NUR|6NUR_protein|mol2

> <Gold.PLP.Fitness>
52.1434

> <Gold.PLP.PLP>
-39.3691

> <Gold.PLP.part.hbond>
-5.0096

> <Gold.PLP.part.metal>
0.0000

> <Gold.PLP.part.buried>
-3.6674

> <Gold.PLP.part.nonpolar>
-31.3411

> <Gold.PLP.part.repulsive>
0.5646

> <Gold.PLP.ligand.clash>
0.0000

> <Gold.PLP.ligand.torsion>
0.5175

> <Gold.PLP.Chemscore.Hbond>
4.5650

> <Gold.PLP.Chemscore.CHOScore>
0.0000

> <Gold.PLP.Chemscore.Metal>
0.0000

> <Gold.Chemscore.Hbonds>
donor molecule, donor type, donor heavy atom, donor atom, acceptor molecule, acceptor atom, score
      L1  H     6    44       P1  7957  0.63
      L1  H    12    38       P1  8028  2.00
      L1  H    18    45       P1  8029  0.66

> <Gold.PLP.Chemscore.Internal.Correction>
0.1144

> <Gold.Rescore>
     Score         DG    S(hbond)    S(metal)    S(lipo)     H(rot)  DE(clash)    DE(int)     intcor
     16.38     -17.40       1.56        0.00      96.24       1.78       0.53       0.49       ----

> <Gold.Chemscore.Fitness>
16.3783

> <Gold.Chemscore.DG>
-17.4007

> <Gold.Chemscore.ZeroCoef>
-5.4800

> <Gold.Chemscore.Hbond>
1.5588

> <Gold.Chemscore.Metal>
0.0000

> <Gold.Chemscore.Lipo>
96.2430

> <Gold.Chemscore.Internal_Hbond>
0.0000

> <Gold.Chemscore.DEClash>
0.5320

> <Gold.Chemscore.DEInternal>
0.4903

> <Gold.Chemscore.Rot>
1.7759

> <Gold.Chemscore.Internal.Correction>
   9.000000E+99

> <Gold.Chemscore.Hbonds>
donor molecule, donor type, donor heavy atom, donor atom, acceptor molecule, acceptor atom, score
      L1  H     6    44       P1  7957  0.62
      L1  H    12    38       P1  8028  0.99
      L1  H    18    45       P1  8029  0.02

> <Gold.Chemscore.Hbond.Weighted>
-5.2065

> <Gold.Chemscore.Metal.Weighted>
-0.0000

> <Gold.Chemscore.Lipo.Weighted>
-11.2604

> <Gold.Chemscore.Internal_Hbond.Weighted>
0.0000

> <Gold.Chemscore.DEClash.Weighted>
0.5320

> <Gold.Chemscore.DEInternal.Weighted>
0.4903

> <Gold.Chemscore.Rot.Weighted>
4.5462

> <Gold.Chemscore.Internal.Correction.Weighted>
   9.000000E+99

> <Gold.Protein.RotatedTorsions>
[ 6907 6896 6895 6894 ] final  -38.50 input  -60.11 | X-H torsion
[ 7974 7965 7964 7962 ] final  -21.61 input  175.53 | X-H torsion
[ 8008 7997 7996 7995 ] final   77.97 input   59.86 | X-H torsion
[ 10167 10162 10161 10158 ] final  174.26 input  -65.29 | X-H torsion
[ 10718 10713 10712 10709 ] final -179.69 input   66.30 | X-H torsion
[ 10763 10752 10751 10750 ] final -109.93 input  -60.55 | X-H torsion
[ 11005 11000 10999 10996 ] final   18.12 input  -57.11 | X-H torsion

> <Gold.Protein.ActiveResidues>
 VAL166  LYS551  ARG553  GLY616  TRP617  ASP618  TYR619  PRO620  LYS621  CYS622 
 ASP623  PHE694  ASN695  SER759  ASP760  ASP761  ALA762  ILE779  LEU786  VAL792 
 PHE793  MET794  SER795  GLU796  ALA797  LYS798  CYS799  TRP800  GLU811  SER814 

> <Gold.Protein.RotatedAtoms>
  151.0017  134.9327  159.7957 H   0  0  0  0  0  0  0  0  0  0  0  0  # atno 6907 bound_to 6896
  152.5279  134.3145  159.9136 H   0  0  0  0  0  0  0  0  0  0  0  0  # atno 6908 bound_to 6896
  151.3151  133.4022  159.2684 H   0  0  0  0  0  0  0  0  0  0  0  0  # atno 6909 bound_to 6896
  146.1723  140.4364  142.8527 H   0  0  0  0  0  0  0  0  0  0  0  0  # atno 7974 bound_to 7965
  155.8491  140.3459  155.5681 H   0  0  0  0  0  0  0  0  0  0  0  0  # atno 8008 bound_to 7997
  155.8058  140.0891  157.1951 H   0  0  0  0  0  0  0  0  0  0  0  0  # atno 8009 bound_to 7997
  154.4007  140.1457  156.3315 H   0  0  0  0  0  0  0  0  0  0  0  0  # atno 8010 bound_to 7997
  139.5136  144.3167  152.0241 H   0  0  0  0  0  0  0  0  0  0  0  0  # atno 10167 bound_to 10162
  156.8628  130.9757  151.3081 H   0  0  0  0  0  0  0  0  0  0  0  0  # atno 10718 bound_to 10713
  154.8220  135.4583  154.0807 H   0  0  0  0  0  0  0  0  0  0  0  0  # atno 10763 bound_to 10752
  153.2153  135.6887  153.8072 H   0  0  0  0  0  0  0  0  0  0  0  0  # atno 10764 bound_to 10752
  153.7508  135.3298  155.3297 H   0  0  0  0  0  0  0  0  0  0  0  0  # atno 10765 bound_to 10752
  140.4283  134.1446  155.7678 H   0  0  0  0  0  0  0  0  0  0  0  0  # atno 11005 bound_to 11000
  144.8182  140.6505  143.6370 LP  0  0  0  0  0  0  0  0  0  0  0  0  # atno 17320 bound_to 7965
  145.4306  139.1550  143.4024 LP  0  0  0  0  0  0  0  0  0  0  0  0  # atno 17321 bound_to 7965
  140.2610  144.4067  150.6185 LP  0  0  0  0  0  0  0  0  0  0  0  0  # atno 17342 bound_to 10162
  140.6157  143.2172  151.6796 LP  0  0  0  0  0  0  0  0  0  0  0  0  # atno 17343 bound_to 10162
  157.6240  130.8677  149.9157 LP  0  0  0  0  0  0  0  0  0  0  0  0  # atno 17370 bound_to 10713
  156.0767  130.3678  150.0663 LP  0  0  0  0  0  0  0  0  0  0  0  0  # atno 17371 bound_to 10713
  141.1756  133.8521  157.1432 LP  0  0  0  0  0  0  0  0  0  0  0  0  # atno 17394 bound_to 11000
  140.0152  134.9971  157.0478 LP  0  0  0  0  0  0  0  0  0  0  0  0  # atno 17395 bound_to 11000

$$$$
