AV-unprocessed.smi:270|AV-procd|sdf|2046|dock6
  -GOLD-   2262021273D 1   1.00000     0.00000
 Structure written by MMmdl.
 54 57  0  0  0  0  0  0  0  0  1 V2000
  143.4804  132.3546  150.4692 C   0  0  0  0  0  0  0  0  0  0  0  0
  144.5866  132.8877  151.3963 C   0  0  1  0  0  0  0  0  0  0  0  0
  145.8091  132.1960  151.1462 O   0  0  0  0  0  0  0  0  0  0  0  0
  146.7945  133.1082  150.6878 C   0  0  0  0  0  0  0  0  0  0  0  0
  146.4229  134.4172  151.3702 C   0  0  0  0  0  0  0  0  0  0  0  0
  144.9024  134.4038  151.3083 C   0  0  1  0  0  0  0  0  0  0  0  0
  144.5090  134.9328  150.0519 O   0  0  0  0  0  0  0  0  0  0  0  0
  144.2612  135.2605  152.4265 C   0  0  0  0  0  0  0  0  0  0  0  0
  145.2254  136.0426  153.1839 N   0  0  0  0  0  0  0  0  0  0  0  0
  145.6651  135.7934  154.4641 C   0  0  0  0  0  0  0  0  0  0  0  0
  146.5313  136.6499  154.9308 N   0  0  0  0  0  0  0  0  0  0  0  0
  146.7131  137.5551  153.8914 C   0  0  0  0  0  0  0  0  0  0  0  0
  147.5142  138.7234  153.7324 C   0  0  0  0  0  0  0  0  0  0  0  0
  148.3871  139.2319  154.7378 N   0  0  0  0  0  0  0  0  0  0  0  0
  148.2895  140.6610  154.9974 C   0  0  0  0  0  0  0  0  0  0  0  0
  149.8208  140.6862  155.0211 C   0  0  0  0  0  0  0  0  0  0  0  0
  150.3742  140.7261  156.3275 O   0  0  0  0  0  0  0  0  0  0  0  0
  150.7314  142.0391  156.7306 C   0  0  0  0  0  0  0  0  0  0  0  0
  151.5042  141.9602  158.0521 C   0  0  0  0  0  0  0  0  0  0  0  0
  151.5888  140.8666  158.6128 O   0  0  0  0  0  0  0  0  0  0  0  0
  152.0751  143.0807  158.5534 N   0  0  0  0  0  0  0  0  0  0  0  0
  151.9470  144.3980  157.9238 C   0  0  0  0  0  0  0  0  0  0  0  0
  152.8534  143.0333  159.7938 C   0  0  0  0  0  0  0  0  0  0  0  0
  149.8140  139.2722  154.4387 C   0  0  0  0  0  0  0  0  0  0  0  0
  147.4484  139.3360  152.5196 N   0  0  0  0  0  0  0  0  0  0  0  0
  146.6478  138.8754  151.5542 C   0  0  0  0  0  0  0  0  0  0  0  0
  145.8377  137.8169  151.5781 N   0  0  0  0  0  0  0  0  0  0  0  0
  145.9067  137.1774  152.7794 C   0  0  0  0  0  0  0  0  0  0  0  0
  142.5383  132.8778  150.6326 H   0  0  0  0  0  0  0  0  0  0  0  0
  143.3045  131.2942  150.6500 H   0  0  0  0  0  0  0  0  0  0  0  0
  143.7492  132.4656  149.4184 H   0  0  0  0  0  0  0  0  0  0  0  0
  144.3213  132.6379  152.4239 H   0  0  0  0  0  0  0  0  0  0  0  0
  147.8004  132.7709  150.9384 H   0  0  0  0  0  0  0  0  0  0  0  0
  146.7232  133.2020  149.6032 H   0  0  0  0  0  0  0  0  0  0  0  0
  146.7608  134.3859  152.4072 H   0  0  0  0  0  0  0  0  0  0  0  0
  146.8754  135.2907  150.8991 H   0  0  0  0  0  0  0  0  0  0  0  0
  145.2102  134.7943  149.4338 H   0  0  0  0  0  0  0  0  0  0  0  0
  143.5316  135.9501  152.0002 H   0  0  0  0  0  0  0  0  0  0  0  0
  143.7089  134.6259  153.1210 H   0  0  0  0  0  0  0  0  0  0  0  0
  145.3154  134.9551  155.0490 H   0  0  0  0  0  0  0  0  0  0  0  0
  147.8686  141.2277  154.1655 H   0  0  0  0  0  0  0  0  0  0  0  0
  147.8107  140.8940  155.9487 H   0  0  0  0  0  0  0  0  0  0  0  0
  150.2605  141.4151  154.3384 H   0  0  0  0  0  0  0  0  0  0  0  0
  151.3637  142.4973  155.9681 H   0  0  0  0  0  0  0  0  0  0  0  0
  149.8545  142.6780  156.8417 H   0  0  0  0  0  0  0  0  0  0  0  0
  152.4718  144.4198  156.9681 H   0  0  0  0  0  0  0  0  0  0  0  0
  152.3618  145.1952  158.5410 H   0  0  0  0  0  0  0  0  0  0  0  0
  150.9014  144.6529  157.7491 H   0  0  0  0  0  0  0  0  0  0  0  0
  152.1862  142.9782  160.6544 H   0  0  0  0  0  0  0  0  0  0  0  0
  153.4895  143.9099  159.9189 H   0  0  0  0  0  0  0  0  0  0  0  0
  153.5121  142.1637  159.8185 H   0  0  0  0  0  0  0  0  0  0  0  0
  150.3974  138.5472  155.0068 H   0  0  0  0  0  0  0  0  0  0  0  0
  150.0529  139.2604  153.3742 H   0  0  0  0  0  0  0  0  0  0  0  0
  146.6591  139.4357  150.6309 H   0  0  0  0  0  0  0  0  0  0  0  0
  1  2  1  0  0  0  0
  1 29  1  0  0  0  0
  1 30  1  0  0  0  0
  1 31  1  0  0  0  0
  2  6  1  0  0  0  0
  2  3  1  0  0  0  0
  2 32  1  0  0  0  0
  3  4  1  0  0  0  0
  4  5  1  0  0  0  0
  4 33  1  0  0  0  0
  4 34  1  0  0  0  0
  5  6  1  0  0  0  0
  5 35  1  0  0  0  0
  5 36  1  0  0  0  0
  6  7  1  0  0  0  0
  6  8  1  0  0  0  0
  7 37  1  0  0  0  0
  8  9  1  0  0  0  0
  8 38  1  0  0  0  0
  8 39  1  0  0  0  0
  9 28  1  0  0  0  0
  9 10  1  0  0  0  0
 10 11  2  0  0  0  0
 10 40  1  0  0  0  0
 11 12  1  0  0  0  0
 12 28  2  0  0  0  0
 12 13  1  0  0  0  0
 13 14  1  0  0  0  0
 13 25  2  0  0  0  0
 14 24  1  0  0  0  0
 14 15  1  0  0  0  0
 15 16  1  0  0  0  0
 15 41  1  0  0  0  0
 15 42  1  0  0  0  0
 16 17  1  0  0  0  0
 16 24  1  0  0  0  0
 16 43  1  0  0  0  0
 17 18  1  0  0  0  0
 18 19  1  0  0  0  0
 18 44  1  0  0  0  0
 18 45  1  0  0  0  0
 19 20  2  0  0  0  0
 19 21  1  0  0  0  0
 21 22  1  0  0  0  0
 21 23  1  0  0  0  0
 22 46  1  0  0  0  0
 22 47  1  0  0  0  0
 22 48  1  0  0  0  0
 23 49  1  0  0  0  0
 23 50  1  0  0  0  0
 23 51  1  0  0  0  0
 24 52  1  0  0  0  0
 24 53  1  0  0  0  0
 25 26  1  0  0  0  0
 26 27  2  0  0  0  0
 26 54  1  0  0  0  0
 27 28  1  0  0  0  0
M  END
> <s_m_source_file>
AV-unprocessed.smi

> <i_m_source_file_index>
270

> <i_lp_mmshare_version>
43012

> <i_f3d_flags>
0

> <s_epik_input>
W0NIMl0xW0NIMl1PW0NAQEhdKFtDSDNdKVtDQEBdMShbT0hdKVtDSDJdbihbY0hdbjIpYyhjMjMpbltjSF1uYzNONFtDSDJdW0NIXShbQ0gyXTQpT1tDSDJdQyg9TylOKFtDSDNdKVtDSDNd

> <s_epik_cmdline>
J2VwaWtfcHl0aG9uJywgJy1waCcsICc3LjAnLCAnLXRuJywgJzgnLCAnLW1hJywgJzIwMCcsICctbWV0YWxfYmluZGluZycsICctaW1hZScsICc8aW5maWxlLm1hZT4nLCAnLW9tYWUnLCAnPG91dGZpbGUubWFlPic=

> <r_lp_tautomer_probability>
1

> <r_epik_Ionization_Penalty>
0.00375854

> <r_epik_Ionization_Penalty_Charging>
0

> <r_epik_Ionization_Penalty_Neutral>
0.00375854

> <r_epik_State_Penalty>
-0

> <r_epik_Charging_Adjusted_Penalty>
0

> <i_epik_Tot_Q>
0

> <i_epik_Tot_abs_Q>
0

> <r_epik_Metal_State_Penalty>
-0

> <b_epik_Metal_Only>
0

> <s_lp_Force_Field>
OPLS_2005

> <r_lp_Energy>
55.1289

> <b_lp_Chiralities_Consistent>
1

> <s_lp_Variant>
AV-unprocessed.smi:270-2

> <Gold.Version>
5.8.1

> <Gold.Id.Protein>
6NUR|6NUR_protein|mol2

> <Gold.PLP.Fitness>
41.8709

> <Gold.PLP.PLP>
-42.0757

> <Gold.PLP.part.hbond>
-1.0000

> <Gold.PLP.part.metal>
0.0000

> <Gold.PLP.part.buried>
-6.2643

> <Gold.PLP.part.nonpolar>
-41.5210

> <Gold.PLP.part.repulsive>
6.6648

> <Gold.PLP.ligand.clash>
0.0000

> <Gold.PLP.ligand.torsion>
1.7685

> <Gold.PLP.Chemscore.Hbond>
1.0000

> <Gold.PLP.Chemscore.CHOScore>
0.0000

> <Gold.PLP.Chemscore.Metal>
0.0000

> <Gold.Chemscore.Hbonds>
donor molecule, donor type, donor heavy atom, donor atom, acceptor molecule, acceptor atom, score
      L1  H     7    37       P1  7921  1.00

> <Gold.PLP.Chemscore.Internal.Correction>
0.3323

> <Gold.Rescore>
     Score         DG    S(hbond)    S(metal)    S(lipo)     H(rot)  DE(clash)    DE(int)     intcor
      7.00     -11.59       0.99        0.00      92.26       3.12       2.88       1.70       ----

> <Gold.Chemscore.Fitness>
7.0014

> <Gold.Chemscore.DG>
-11.5874

> <Gold.Chemscore.ZeroCoef>
-5.4800

> <Gold.Chemscore.Hbond>
0.9908

> <Gold.Chemscore.Metal>
0.0000

> <Gold.Chemscore.Lipo>
92.2556

> <Gold.Chemscore.Internal_Hbond>
0.0000

> <Gold.Chemscore.DEClash>
2.8835

> <Gold.Chemscore.DEInternal>
1.7025

> <Gold.Chemscore.Rot>
3.1234

> <Gold.Chemscore.Internal.Correction>
   9.000000E+99

> <Gold.Chemscore.Hbonds>
donor molecule, donor type, donor heavy atom, donor atom, acceptor molecule, acceptor atom, score
      L1  H     7    37       P1  7921  0.93

> <Gold.Chemscore.Hbond.Weighted>
-3.3094

> <Gold.Chemscore.Metal.Weighted>
-0.0000

> <Gold.Chemscore.Lipo.Weighted>
-10.7939

> <Gold.Chemscore.Internal_Hbond.Weighted>
0.0000

> <Gold.Chemscore.DEClash.Weighted>
2.8835

> <Gold.Chemscore.DEInternal.Weighted>
1.7025

> <Gold.Chemscore.Rot.Weighted>
7.9959

> <Gold.Chemscore.Internal.Correction.Weighted>
   9.000000E+99

> <Gold.Protein.RotatedTorsions>
[ 6907 6896 6895 6894 ] final   37.14 input  -60.11 | X-H torsion
[ 7974 7965 7964 7962 ] final  157.10 input  175.53 | X-H torsion
[ 8008 7997 7996 7995 ] final  -93.62 input   59.86 | X-H torsion
[ 10167 10162 10161 10158 ] final -117.46 input  -65.29 | X-H torsion
[ 10718 10713 10712 10709 ] final  111.36 input   66.30 | X-H torsion
[ 10763 10752 10751 10750 ] final -138.92 input  -60.55 | X-H torsion
[ 11005 11000 10999 10996 ] final  -73.42 input  -57.11 | X-H torsion

> <Gold.Protein.ActiveResidues>
 VAL166  LYS551  ARG553  GLY616  TRP617  ASP618  TYR619  PRO620  LYS621  CYS622 
 ASP623  PHE694  ASN695  SER759  ASP760  ASP761  ALA762  ILE779  LEU786  VAL792 
 PHE793  MET794  SER795  GLU796  ALA797  LYS798  CYS799  TRP800  GLU811  SER814 

> <Gold.Protein.RotatedAtoms>
  152.1392  134.9076  160.0554 H   0  0  0  0  0  0  0  0  0  0  0  0  # atno 6907 bound_to 6896
  152.0150  133.3871  159.4243 H   0  0  0  0  0  0  0  0  0  0  0  0  # atno 6908 bound_to 6896
  150.6863  134.3610  159.4994 H   0  0  0  0  0  0  0  0  0  0  0  0  # atno 6909 bound_to 6896
  144.7923  139.7294  143.6216 H   0  0  0  0  0  0  0  0  0  0  0  0  # atno 7974 bound_to 7965
  154.7380  140.0497  157.0785 H   0  0  0  0  0  0  0  0  0  0  0  0  # atno 8008 bound_to 7997
  155.0216  140.3147  155.4772 H   0  0  0  0  0  0  0  0  0  0  0  0  # atno 8009 bound_to 7997
  156.2857  140.2166  156.5334 H   0  0  0  0  0  0  0  0  0  0  0  0  # atno 8010 bound_to 7997
  140.0680  143.4904  152.1995 H   0  0  0  0  0  0  0  0  0  0  0  0  # atno 10167 bound_to 10162
  157.6448  131.0949  150.6738 H   0  0  0  0  0  0  0  0  0  0  0  0  # atno 10718 bound_to 10713
  154.8624  135.3598  154.5462 H   0  0  0  0  0  0  0  0  0  0  0  0  # atno 10763 bound_to 10752
  153.6082  135.7010  153.5362 H   0  0  0  0  0  0  0  0  0  0  0  0  # atno 10764 bound_to 10752
  153.3232  135.4145  155.1395 H   0  0  0  0  0  0  0  0  0  0  0  0  # atno 10765 bound_to 10752
  141.1622  133.6878  156.7209 H   0  0  0  0  0  0  0  0  0  0  0  0  # atno 11005 bound_to 11000
  146.2180  139.5583  142.9637 LP  0  0  0  0  0  0  0  0  0  0  0  0  # atno 17320 bound_to 7965
  145.5762  141.0388  143.2147 LP  0  0  0  0  0  0  0  0  0  0  0  0  # atno 17321 bound_to 7965
  139.5853  144.7528  151.3536 LP  0  0  0  0  0  0  0  0  0  0  0  0  # atno 17342 bound_to 10162
  140.7139  143.7317  150.7618 LP  0  0  0  0  0  0  0  0  0  0  0  0  # atno 17343 bound_to 10162
  156.7057  130.4636  149.5561 LP  0  0  0  0  0  0  0  0  0  0  0  0  # atno 17370 bound_to 10713
  156.1765  130.6471  151.0900 LP  0  0  0  0  0  0  0  0  0  0  0  0  # atno 17371 bound_to 10713
  140.2817  134.8311  157.3939 LP  0  0  0  0  0  0  0  0  0  0  0  0  # atno 17394 bound_to 11000
  140.1427  134.4951  155.8019 LP  0  0  0  0  0  0  0  0  0  0  0  0  # atno 17395 bound_to 11000

$$$$
