AV-unprocessed.smi:781|AV-procd|sdf|3710|dock6
  -GOLD-   22720 1133D 1   1.00000     0.00000
 Structure written by MMmdl.
 38 40  0  0  0  0  0  0  0  0  1 V2000
  150.4765  130.6012  154.7335 C   0  0  0  0  0  0  0  0  0  0  0  0
  150.1507  132.0418  154.9329 C   0  0  0  0  0  0  0  0  0  0  0  0
  149.7044  133.0203  154.0898 C   0  0  0  0  0  0  0  0  0  0  0  0
  149.6064  134.1545  154.9391 C   0  0  0  0  0  0  0  0  0  0  0  0
  149.1660  135.4051  154.4355 N   0  0  0  0  0  0  0  0  0  0  0  0
  148.7289  136.4632  155.1397 C   0  0  0  0  0  0  0  0  0  0  0  0
  148.6438  136.5129  156.3669 O   0  0  0  0  0  0  0  0  0  0  0  0
  148.3814  137.4754  154.3315 N   0  0  0  0  0  0  0  0  0  0  0  0
  147.8774  138.7769  154.7731 C   0  0  1  0  0  0  0  0  0  0  0  0
  149.0425  139.7811  154.9084 C   0  0  2  0  0  0  0  0  0  0  0  0
  148.5689  140.9943  155.7293 C   0  0  0  0  0  0  0  0  0  0  0  0
  147.6207  141.7110  154.7490 C   0  0  0  0  0  0  0  0  0  0  0  0
  147.6793  140.8139  153.4962 C   0  0  1  0  0  0  0  0  0  0  0  0
  149.1376  140.3736  153.5077 C   0  0  0  0  0  0  0  0  0  0  0  0
  146.9185  139.4933  153.7732 C   0  0  1  0  0  0  0  0  0  0  0  0
  146.5624  138.7118  152.4877 C   0  0  0  0  0  0  0  0  0  0  0  0
  147.7345  138.3596  151.7831 O   0  0  0  0  0  0  0  0  0  0  0  0
  149.9607  133.8921  156.1877 N   0  0  0  0  0  0  0  0  0  0  0  0
  150.3116  132.5367  156.1902 O   0  0  0  0  0  0  0  0  0  0  0  0
  150.3855  130.3230  153.6834 H   0  0  0  0  0  0  0  0  0  0  0  0
  149.8016  129.9688  155.3105 H   0  0  0  0  0  0  0  0  0  0  0  0
  151.4966  130.3871  155.0526 H   0  0  0  0  0  0  0  0  0  0  0  0
  149.4837  132.9347  153.0362 H   0  0  0  0  0  0  0  0  0  0  0  0
  149.1829  135.5035  153.4313 H   0  0  0  0  0  0  0  0  0  0  0  0
  148.4819  137.3447  153.3357 H   0  0  0  0  0  0  0  0  0  0  0  0
  147.3902  138.6541  155.7424 H   0  0  0  0  0  0  0  0  0  0  0  0
  149.9666  139.3423  155.2872 H   0  0  0  0  0  0  0  0  0  0  0  0
  148.0716  140.7043  156.6557 H   0  0  0  0  0  0  0  0  0  0  0  0
  149.4093  141.6392  155.9894 H   0  0  0  0  0  0  0  0  0  0  0  0
  146.6088  141.8093  155.1436 H   0  0  0  0  0  0  0  0  0  0  0  0
  147.9890  142.7131  154.5256 H   0  0  0  0  0  0  0  0  0  0  0  0
  147.3653  141.3298  152.5884 H   0  0  0  0  0  0  0  0  0  0  0  0
  149.8411  141.2050  153.4368 H   0  0  0  0  0  0  0  0  0  0  0  0
  149.3791  139.6382  152.7391 H   0  0  0  0  0  0  0  0  0  0  0  0
  145.9805  139.7144  154.2852 H   0  0  0  0  0  0  0  0  0  0  0  0
  145.9954  137.8077  152.7106 H   0  0  0  0  0  0  0  0  0  0  0  0
  145.9524  139.3246  151.8241 H   0  0  0  0  0  0  0  0  0  0  0  0
  148.1573  137.6478  152.2391 H   0  0  0  0  0  0  0  0  0  0  0  0
  1  2  1  0  0  0  0
  1 20  1  0  0  0  0
  1 21  1  0  0  0  0
  1 22  1  0  0  0  0
  2 19  1  0  0  0  0
  2  3  2  0  0  0  0
  3  4  1  0  0  0  0
  3 23  1  0  0  0  0
  4  5  1  0  0  0  0
  4 18  2  0  0  0  0
  5  6  1  0  0  0  0
  5 24  1  0  0  0  0
  6  7  2  0  0  0  0
  6  8  1  0  0  0  0
  8  9  1  0  0  0  0
  8 25  1  0  0  0  0
  9 15  1  0  0  0  0
  9 10  1  0  0  0  0
  9 26  1  0  0  0  0
 10 14  1  0  0  0  0
 10 11  1  0  0  0  0
 10 27  1  0  0  0  0
 11 12  1  0  0  0  0
 11 28  1  0  0  0  0
 11 29  1  0  0  0  0
 12 13  1  0  0  0  0
 12 30  1  0  0  0  0
 12 31  1  0  0  0  0
 13 14  1  0  0  0  0
 13 15  1  0  0  0  0
 13 32  1  0  0  0  0
 14 33  1  0  0  0  0
 14 34  1  0  0  0  0
 15 16  1  0  0  0  0
 15 35  1  0  0  0  0
 16 17  1  0  0  0  0
 16 36  1  0  0  0  0
 16 37  1  0  0  0  0
 17 38  1  0  0  0  0
 18 19  1  0  0  0  0
M  END
> <s_m_source_file>
AV-unprocessed.smi

> <i_m_source_file_index>
781

> <i_lp_mmshare_version>
43012

> <i_f3d_flags>
0

> <s_epik_input>
W0NIM11jMVtjSF1jKG5vMSlbTkhdQyg9TylbTkhdW0NASF0oW0NAQEhdMjMpW0NASF0oW0NIMl1bT0hdKVtDQEBIXShbQ0gyXTMpW0NIMl1bQ0gyXTI=

> <s_epik_cmdline>
J2VwaWtfcHl0aG9uJywgJy1waCcsICc3LjAnLCAnLXRuJywgJzgnLCAnLW1hJywgJzIwMCcsICctbWV0YWxfYmluZGluZycsICctaW1hZScsICc8aW5maWxlLm1hZT4nLCAnLW9tYWUnLCAnPG91dGZpbGUubWFlPic=

> <r_lp_tautomer_probability>
1

> <r_epik_Ionization_Penalty>
2.32222e-05

> <r_epik_Ionization_Penalty_Charging>
0

> <r_epik_Ionization_Penalty_Neutral>
2.32222e-05

> <r_epik_State_Penalty>
-0

> <r_epik_Charging_Adjusted_Penalty>
0

> <i_epik_Tot_Q>
0

> <i_epik_Tot_abs_Q>
0

> <r_epik_Metal_State_Penalty>
-0

> <b_epik_Metal_Only>
0

> <s_lp_Force_Field>
OPLS_2005

> <r_lp_Energy>
48.1353

> <b_lp_Chiralities_Consistent>
1

> <s_lp_Variant>
AV-unprocessed.smi:781-4

> <Gold.Version>
5.8.1

> <Gold.Id.Protein>
6NUR|6NUR_protein|mol2

> <Gold.PLP.Fitness>
37.6693

> <Gold.PLP.PLP>
-27.3202

> <Gold.PLP.part.hbond>
-4.6772

> <Gold.PLP.part.metal>
0.0000

> <Gold.PLP.part.buried>
2.3272

> <Gold.PLP.part.nonpolar>
-25.1170

> <Gold.PLP.part.repulsive>
0.0319

> <Gold.PLP.ligand.clash>
0.0052

> <Gold.PLP.ligand.torsion>
0.4333

> <Gold.PLP.Chemscore.Hbond>
3.7360

> <Gold.PLP.Chemscore.CHOScore>
0.0000

> <Gold.PLP.Chemscore.Metal>
0.0000

> <Gold.Chemscore.Hbonds>
donor molecule, donor type, donor heavy atom, donor atom, acceptor molecule, acceptor atom, score
      L1  H     5    24       P1  7948  1.00
      L1  H     8    25       P1  7948  1.00
      L1  H    17    38       P1  7948  0.74
      P1  H  7954  7966       L1    17  1.00

> <Gold.PLP.Chemscore.Internal.Correction>
0.0129

> <Gold.Rescore>
     Score         DG    S(hbond)    S(metal)    S(lipo)     H(rot)  DE(clash)    DE(int)     intcor
     12.67     -18.77       3.06        0.00      66.83       1.86       2.01       4.10       ----

> <Gold.Chemscore.Fitness>
12.6664

> <Gold.Chemscore.DG>
-18.7732

> <Gold.Chemscore.ZeroCoef>
-5.4800

> <Gold.Chemscore.Hbond>
3.0637

> <Gold.Chemscore.Metal>
0.0000

> <Gold.Chemscore.Lipo>
66.8269

> <Gold.Chemscore.Internal_Hbond>
0.0000

> <Gold.Chemscore.DEClash>
2.0102

> <Gold.Chemscore.DEInternal>
4.0966

> <Gold.Chemscore.Rot>
1.8587

> <Gold.Chemscore.Internal.Correction>
   9.000000E+99

> <Gold.Chemscore.Hbonds>
donor molecule, donor type, donor heavy atom, donor atom, acceptor molecule, acceptor atom, score
      L1  H     5    24       P1  7948  0.45
      L1  H     8    25       P1  7948  0.94
      L1  H    17    38       P1  7948  0.74
      P1  H  7954  7966       L1    17  0.24

> <Gold.Chemscore.Hbond.Weighted>
-10.2328

> <Gold.Chemscore.Metal.Weighted>
-0.0000

> <Gold.Chemscore.Lipo.Weighted>
-7.8188

> <Gold.Chemscore.Internal_Hbond.Weighted>
0.0000

> <Gold.Chemscore.DEClash.Weighted>
2.0102

> <Gold.Chemscore.DEInternal.Weighted>
4.0966

> <Gold.Chemscore.Rot.Weighted>
4.7583

> <Gold.Chemscore.Internal.Correction.Weighted>
   9.000000E+99

> <Gold.Protein.RotatedTorsions>
[ 6907 6896 6895 6894 ] final   20.47 input  -60.11 | X-H torsion
[ 7974 7965 7964 7962 ] final  -65.99 input  175.53 | X-H torsion
[ 8008 7997 7996 7995 ] final  139.98 input   59.86 | X-H torsion
[ 10167 10162 10161 10158 ] final  168.00 input  -65.29 | X-H torsion
[ 10718 10713 10712 10709 ] final  -19.97 input   66.30 | X-H torsion
[ 10763 10752 10751 10750 ] final  -71.56 input  -60.55 | X-H torsion
[ 11005 11000 10999 10996 ] final   78.41 input  -57.11 | X-H torsion

> <Gold.Protein.ActiveResidues>
 VAL166  LYS551  ARG553  GLY616  TRP617  ASP618  TYR619  PRO620  LYS621  CYS622 
 ASP623  PHE694  ASN695  SER759  ASP760  ASP761  ALA762  ILE779  LEU786  VAL792 
 PHE793  MET794  SER795  GLU796  ALA797  LYS798  CYS799  TRP800  GLU811  SER814 

> <Gold.Protein.RotatedAtoms>
  151.8968  135.0394  160.0502 H   0  0  0  0  0  0  0  0  0  0  0  0  # atno 6907 bound_to 6896
  152.2391  133.5116  159.5268 H   0  0  0  0  0  0  0  0  0  0  0  0  # atno 6908 bound_to 6896
  150.7048  134.1030  159.4015 H   0  0  0  0  0  0  0  0  0  0  0  0  # atno 6909 bound_to 6896
  145.7473  140.8925  143.0498 H   0  0  0  0  0  0  0  0  0  0  0  0  # atno 7974 bound_to 7965
  156.2984  140.2353  156.4327 H   0  0  0  0  0  0  0  0  0  0  0  0  # atno 8008 bound_to 7997
  154.8256  140.0435  157.1462 H   0  0  0  0  0  0  0  0  0  0  0  0  # atno 8009 bound_to 7997
  154.9265  140.3011  155.5193 H   0  0  0  0  0  0  0  0  0  0  0  0  # atno 8010 bound_to 7997
  139.4958  144.3861  151.9568 H   0  0  0  0  0  0  0  0  0  0  0  0  # atno 10167 bound_to 10162
  156.5383  130.4672  149.6512 H   0  0  0  0  0  0  0  0  0  0  0  0  # atno 10718 bound_to 10713
  154.4334  135.5958  153.6083 H   0  0  0  0  0  0  0  0  0  0  0  0  # atno 10763 bound_to 10752
  152.9800  135.5980  154.3811 H   0  0  0  0  0  0  0  0  0  0  0  0  # atno 10764 bound_to 10752
  154.3652  135.2841  155.2276 H   0  0  0  0  0  0  0  0  0  0  0  0  # atno 10765 bound_to 10752
  139.9214  134.7761  156.1646 H   0  0  0  0  0  0  0  0  0  0  0  0  # atno 11005 bound_to 11000
  144.6857  139.9543  143.7479 LP  0  0  0  0  0  0  0  0  0  0  0  0  # atno 17320 bound_to 7965
  146.0390  139.3404  143.0709 LP  0  0  0  0  0  0  0  0  0  0  0  0  # atno 17321 bound_to 7965
  140.3298  144.3329  150.5990 LP  0  0  0  0  0  0  0  0  0  0  0  0  # atno 17342 bound_to 10162
  140.5654  143.2187  151.7692 LP  0  0  0  0  0  0  0  0  0  0  0  0  # atno 17343 bound_to 10162
  156.2995  130.7169  151.2037 LP  0  0  0  0  0  0  0  0  0  0  0  0  # atno 17370 bound_to 10713
  157.7410  131.0510  150.5129 LP  0  0  0  0  0  0  0  0  0  0  0  0  # atno 17371 bound_to 10713
  141.0737  133.6785  156.2193 LP  0  0  0  0  0  0  0  0  0  0  0  0  # atno 17394 bound_to 11000
  140.6464  134.5113  157.5574 LP  0  0  0  0  0  0  0  0  0  0  0  0  # atno 17395 bound_to 11000

$$$$
