AV-unprocessed.smi:494|AV-procd|sdf|2713|dock1
  -GOLD-   2262023153D 1   1.00000     0.00000
 Structure written by MMmdl.
 49 50  0  0  0  0  0  0  0  0  2 V2000
  145.3703  130.3276  151.1413 C   0  0  0  0  0  0  0  0  0  0  0  0
  146.5483  129.6233  151.7510 C   0  0  0  0  0  0  0  0  0  0  0  0
  147.2395  128.7654  151.0200 N   0  0  0  0  0  0  0  0  0  0  0  0
  148.2545  128.2829  151.8517 O   0  0  0  0  0  0  0  0  0  0  0  0
  148.1349  128.8787  153.0650 C   0  0  0  0  0  0  0  0  0  0  0  0
  149.1316  128.4892  154.1042 C   0  0  0  0  0  0  0  0  0  0  0  0
  147.0721  129.7402  153.0711 C   0  0  0  0  0  0  0  0  0  0  0  0
  146.5686  130.6059  154.1982 C   0  0  0  0  0  0  0  0  0  0  0  0
  146.6457  132.0801  153.7998 C   0  0  0  0  0  0  0  0  0  0  0  0
  147.7375  132.6034  153.5832 O   0  0  0  0  0  0  0  0  0  0  0  0
  145.4792  132.7390  153.7188 N   0  0  0  0  0  0  0  0  0  0  0  0
  145.3011  134.1372  153.3291 C   0  0  0  0  0  0  0  0  0  0  0  0
  143.8925  134.4375  152.7220 C   0  0  0  0  0  0  0  0  0  0  0  0
  142.8864  134.4510  153.8505 N   0  3  0  0  0  0  0  0  0  0  0  0
  141.4700  134.6975  153.4773 C   0  0  0  0  0  0  0  0  0  0  0  0
  143.2563  135.2857  155.0240 C   0  0  0  0  0  0  0  0  0  0  0  0
  143.9136  135.8100  151.9822 C   0  0  0  0  0  0  0  0  0  0  0  0
  144.8047  135.8332  150.7240 C   0  0  0  0  0  0  0  0  0  0  0  0
  144.4403  134.7121  149.7417 C   0  0  0  0  0  0  0  0  0  0  0  0
  144.4622  133.3407  150.4290 C   0  0  0  0  0  0  0  0  0  0  0  0
  143.5439  133.3368  151.6642 C   0  0  0  0  0  0  0  0  0  0  0  0
  145.6924  131.1854  150.5509 H   0  0  0  0  0  0  0  0  0  0  0  0
  144.6847  130.6903  151.9070 H   0  0  0  0  0  0  0  0  0  0  0  0
  144.8059  129.6636  150.4859 H   0  0  0  0  0  0  0  0  0  0  0  0
  148.6899  127.7976  154.8215 H   0  0  0  0  0  0  0  0  0  0  0  0
  149.4839  129.3643  154.6505 H   0  0  0  0  0  0  0  0  0  0  0  0
  149.9980  128.0029  153.6553 H   0  0  0  0  0  0  0  0  0  0  0  0
  145.5367  130.3652  154.4567 H   0  0  0  0  0  0  0  0  0  0  0  0
  147.1505  130.4486  155.1070 H   0  0  0  0  0  0  0  0  0  0  0  0
  144.6370  132.2165  153.9124 H   0  0  0  0  0  0  0  0  0  0  0  0
  145.5224  134.7931  154.1707 H   0  0  0  0  0  0  0  0  0  0  0  0
  146.0925  134.3540  152.6148 H   0  0  0  0  0  0  0  0  0  0  0  0
  141.3580  135.6382  152.9372 H   0  0  0  0  0  0  0  0  0  0  0  0
  140.8397  134.7487  154.3656 H   0  0  0  0  0  0  0  0  0  0  0  0
  141.0670  133.8878  152.8693 H   0  0  0  0  0  0  0  0  0  0  0  0
  143.1397  136.3485  154.8091 H   0  0  0  0  0  0  0  0  0  0  0  0
  144.2781  135.1162  155.3579 H   0  0  0  0  0  0  0  0  0  0  0  0
  142.6087  135.0500  155.8689 H   0  0  0  0  0  0  0  0  0  0  0  0
  142.8994  136.0806  151.6859 H   0  0  0  0  0  0  0  0  0  0  0  0
  144.2553  136.6033  152.6474 H   0  0  0  0  0  0  0  0  0  0  0  0
  144.7062  136.7983  150.2261 H   0  0  0  0  0  0  0  0  0  0  0  0
  145.8551  135.7509  151.0026 H   0  0  0  0  0  0  0  0  0  0  0  0
  143.4468  134.8979  149.3315 H   0  0  0  0  0  0  0  0  0  0  0  0
  145.1287  134.7175  148.8960 H   0  0  0  0  0  0  0  0  0  0  0  0
  144.1285  132.5779  149.7249 H   0  0  0  0  0  0  0  0  0  0  0  0
  145.4820  133.0681  150.6988 H   0  0  0  0  0  0  0  0  0  0  0  0
  143.5428  132.3452  152.1177 H   0  0  0  0  0  0  0  0  0  0  0  0
  142.5382  133.4878  151.2728 H   0  0  0  0  0  0  0  0  0  0  0  0
  142.8924  133.5025  154.1981 H   0  0  0  0  0  0  0  0  0  0  0  0
  1  2  1  0  0  0  0
  1 22  1  0  0  0  0
  1 23  1  0  0  0  0
  1 24  1  0  0  0  0
  2  7  1  0  0  0  0
  2  3  2  0  0  0  0
  3  4  1  0  0  0  0
  4  5  1  0  0  0  0
  5  6  1  0  0  0  0
  5  7  2  0  0  0  0
  6 25  1  0  0  0  0
  6 26  1  0  0  0  0
  6 27  1  0  0  0  0
  7  8  1  0  0  0  0
  8  9  1  0  0  0  0
  8 28  1  0  0  0  0
  8 29  1  0  0  0  0
  9 10  2  0  0  0  0
  9 11  1  0  0  0  0
 11 12  1  0  0  0  0
 11 30  1  0  0  0  0
 12 13  1  0  0  0  0
 12 31  1  0  0  0  0
 12 32  1  0  0  0  0
 13 21  1  0  0  0  0
 13 14  1  0  0  0  0
 13 17  1  0  0  0  0
 14 15  1  0  0  0  0
 14 16  1  0  0  0  0
 14 49  1  0  0  0  0
 15 33  1  0  0  0  0
 15 34  1  0  0  0  0
 15 35  1  0  0  0  0
 16 36  1  0  0  0  0
 16 37  1  0  0  0  0
 16 38  1  0  0  0  0
 17 18  1  0  0  0  0
 17 39  1  0  0  0  0
 17 40  1  0  0  0  0
 18 19  1  0  0  0  0
 18 41  1  0  0  0  0
 18 42  1  0  0  0  0
 19 20  1  0  0  0  0
 19 43  1  0  0  0  0
 19 44  1  0  0  0  0
 20 21  1  0  0  0  0
 20 45  1  0  0  0  0
 20 46  1  0  0  0  0
 21 47  1  0  0  0  0
 21 48  1  0  0  0  0
M  CHG  1  14   1
M  END
> <s_m_source_file>
AV-unprocessed.smi

> <i_m_source_file_index>
494

> <i_lp_mmshare_version>
43012

> <i_f3d_flags>
0

> <s_epik_input>
W0NIM11jMW5vYyhbQ0gzXSljMVtDSDJdQyg9TylbTkhdW0NIMl1DMihOKFtDSDNdKVtDSDNdKVtDSDJdW0NIMl1bQ0gyXVtDSDJdW0NIMl0y

> <s_epik_cmdline>
J2VwaWtfcHl0aG9uJywgJy1waCcsICc3LjAnLCAnLXRuJywgJzgnLCAnLW1hJywgJzIwMCcsICctbWV0YWxfYmluZGluZycsICctaW1hZScsICc8aW5maWxlLm1hZT4nLCAnLW9tYWUnLCAnPG91dGZpbGUubWFlPic=

> <r_epik_Ionization_Penalty>
0.00230711

> <r_epik_Ionization_Penalty_Charging>
0.00230702

> <r_epik_Ionization_Penalty_Neutral>
8.72116e-08

> <r_epik_State_Penalty>
0.00159123

> <r_epik_Charging_Adjusted_Penalty>
0.00389825

> <i_epik_Tot_Q>
1

> <i_epik_Tot_abs_Q>
1

> <r_epik_Metal_State_Penalty>
-0

> <b_epik_Metal_Only>
0

> <s_lp_Force_Field>
OPLS_2005

> <r_lp_Energy>
28.1912

> <b_lp_Chiralities_Consistent>
1

> <s_lp_Variant>
AV-unprocessed.smi:494-1

> <Gold.Version>
5.8.1

> <Gold.Id.Protein>
6NUR|6NUR_protein|mol2

> <Gold.PLP.Fitness>
38.8729

> <Gold.PLP.PLP>
-31.2047

> <Gold.PLP.part.hbond>
-1.7662

> <Gold.PLP.part.metal>
0.0000

> <Gold.PLP.part.buried>
-3.9178

> <Gold.PLP.part.nonpolar>
-26.3110

> <Gold.PLP.part.repulsive>
0.6726

> <Gold.PLP.ligand.clash>
0.0000

> <Gold.PLP.ligand.torsion>
0.4339

> <Gold.PLP.Chemscore.Hbond>
2.7963

> <Gold.PLP.Chemscore.CHOScore>
0.0000

> <Gold.PLP.Chemscore.Metal>
0.0000

> <Gold.Chemscore.Hbonds>
donor molecule, donor type, donor heavy atom, donor atom, acceptor molecule, acceptor atom, score
      L1  H    11    30       P1 10957  0.56
      L1  H    14    49       P1 10957  2.00

> <Gold.PLP.Chemscore.Internal.Correction>
0.1472

> <Gold.Rescore>
     Score         DG    S(hbond)    S(metal)    S(lipo)     H(rot)  DE(clash)    DE(int)     intcor
     14.03     -15.93       1.32        0.00      88.40       1.68       1.54       0.36       ----

> <Gold.Chemscore.Fitness>
14.0304

> <Gold.Chemscore.DG>
-15.9303

> <Gold.Chemscore.ZeroCoef>
-5.4800

> <Gold.Chemscore.Hbond>
1.3161

> <Gold.Chemscore.Metal>
0.0000

> <Gold.Chemscore.Lipo>
88.4024

> <Gold.Chemscore.Internal_Hbond>
0.0000

> <Gold.Chemscore.DEClash>
1.5429

> <Gold.Chemscore.DEInternal>
0.3570

> <Gold.Chemscore.Rot>
1.6752

> <Gold.Chemscore.Internal.Correction>
   9.000000E+99

> <Gold.Chemscore.Hbonds>
donor molecule, donor type, donor heavy atom, donor atom, acceptor molecule, acceptor atom, score
      L1  H    11    30       P1 10957  0.11
      L1  H    14    49       P1 10957  1.00

> <Gold.Chemscore.Hbond.Weighted>
-4.3956

> <Gold.Chemscore.Metal.Weighted>
-0.0000

> <Gold.Chemscore.Lipo.Weighted>
-10.3431

> <Gold.Chemscore.Internal_Hbond.Weighted>
0.0000

> <Gold.Chemscore.DEClash.Weighted>
1.5429

> <Gold.Chemscore.DEInternal.Weighted>
0.3570

> <Gold.Chemscore.Rot.Weighted>
4.2884

> <Gold.Chemscore.Internal.Correction.Weighted>
   9.000000E+99

> <Gold.Protein.RotatedTorsions>
[ 6907 6896 6895 6894 ] final  130.82 input  -60.11 | X-H torsion
[ 7974 7965 7964 7962 ] final    5.39 input  175.53 | X-H torsion
[ 8008 7997 7996 7995 ] final  112.40 input   59.86 | X-H torsion
[ 10167 10162 10161 10158 ] final -139.13 input  -65.29 | X-H torsion
[ 10718 10713 10712 10709 ] final   90.16 input   66.30 | X-H torsion
[ 10763 10752 10751 10750 ] final -109.50 input  -60.55 | X-H torsion
[ 11005 11000 10999 10996 ] final   11.52 input  -57.11 | X-H torsion

> <Gold.Protein.ActiveResidues>
 VAL166  LYS551  ARG553  GLY616  TRP617  ASP618  TYR619  PRO620  LYS621  CYS622 
 ASP623  PHE694  ASN695  SER759  ASP760  ASP761  ALA762  ILE779  LEU786  VAL792 
 PHE793  MET794  SER795  GLU796  ALA797  LYS798  CYS799  TRP800  GLU811  SER814 

> <Gold.Protein.RotatedAtoms>
  152.3488  133.6155  159.5929 H   0  0  0  0  0  0  0  0  0  0  0  0  # atno 6907 bound_to 6896
  150.7524  133.9607  159.3523 H   0  0  0  0  0  0  0  0  0  0  0  0  # atno 6908 bound_to 6896
  151.7461  135.0844  160.0374 H   0  0  0  0  0  0  0  0  0  0  0  0  # atno 6909 bound_to 6896
  146.2440  140.0391  142.8383 H   0  0  0  0  0  0  0  0  0  0  0  0  # atno 7974 bound_to 7965
  156.2190  140.3000  155.9906 H   0  0  0  0  0  0  0  0  0  0  0  0  # atno 8008 bound_to 7997
  155.2532  140.0427  157.3006 H   0  0  0  0  0  0  0  0  0  0  0  0  # atno 8009 bound_to 7997
  154.5811  140.2375  155.8061 H   0  0  0  0  0  0  0  0  0  0  0  0  # atno 8010 bound_to 7997
  139.8409  143.7323  152.2663 H   0  0  0  0  0  0  0  0  0  0  0  0  # atno 10167 bound_to 10162
  157.6958  131.0360  150.3535 H   0  0  0  0  0  0  0  0  0  0  0  0  # atno 10718 bound_to 10713
  154.8197  135.4598  154.0742 H   0  0  0  0  0  0  0  0  0  0  0  0  # atno 10763 bound_to 10752
  153.2106  135.6881  153.8124 H   0  0  0  0  0  0  0  0  0  0  0  0  # atno 10764 bound_to 10752
  153.7577  135.3288  155.3308 H   0  0  0  0  0  0  0  0  0  0  0  0  # atno 10765 bound_to 10752
  140.5023  134.0733  155.7797 H   0  0  0  0  0  0  0  0  0  0  0  0  # atno 11005 bound_to 11000
  145.1085  140.9390  143.4670 LP  0  0  0  0  0  0  0  0  0  0  0  0  # atno 17320 bound_to 7965
  145.0600  139.3113  143.5885 LP  0  0  0  0  0  0  0  0  0  0  0  0  # atno 17321 bound_to 7965
  139.7560  144.7520  151.0435 LP  0  0  0  0  0  0  0  0  0  0  0  0  # atno 17342 bound_to 10162
  140.7798  143.4806  151.0024 LP  0  0  0  0  0  0  0  0  0  0  0  0  # atno 17343 bound_to 10162
  156.3980  130.3910  149.6980 LP  0  0  0  0  0  0  0  0  0  0  0  0  # atno 17370 bound_to 10713
  156.4307  130.7814  151.2833 LP  0  0  0  0  0  0  0  0  0  0  0  0  # atno 17371 bound_to 10713
  141.1429  133.9107  157.2284 LP  0  0  0  0  0  0  0  0  0  0  0  0  # atno 17394 bound_to 11000
  139.9706  135.0129  156.9501 LP  0  0  0  0  0  0  0  0  0  0  0  0  # atno 17395 bound_to 11000

$$$$
