AV-unprocessed.smi:1432|AV-procd|sdf|5831|dock6
  -GOLD-   22720 5493D 1   1.00000     0.00000
 Structure written by MMmdl.
 47 48  0  0  0  0  0  0  0  0  2 V2000
  147.1017  134.7737  154.4129 C   0  0  0  0  0  0  0  0  0  0  0  0
  146.1893  135.5572  153.4478 C   0  0  2  0  0  0  0  0  0  0  0  0
  145.8883  134.6771  152.2145 C   0  0  0  0  0  0  0  0  0  0  0  0
  145.0024  135.3994  151.1949 C   0  0  0  0  0  0  0  0  0  0  0  0
  145.6596  136.7218  150.7958 C   0  0  0  0  0  0  0  0  0  0  0  0
  145.9304  137.5822  152.0378 C   0  0  0  0  0  0  0  0  0  0  0  0
  146.7776  136.8711  153.0342 N   0  3  1  0  0  0  0  0  0  0  0  0
  147.1419  137.7632  154.1690 C   0  0  0  0  0  0  0  0  0  0  0  0
  147.8067  139.0555  153.6729 C   0  0  0  0  0  0  0  0  0  0  0  0
  147.8757  140.0370  154.7455 N   0  0  0  0  0  0  0  0  0  0  0  0
  148.7622  141.0439  154.8035 C   0  0  0  0  0  0  0  0  0  0  0  0
  149.6025  141.2368  153.9262 O   0  0  0  0  0  0  0  0  0  0  0  0
  148.7225  141.9838  156.0213 C   0  0  0  0  0  0  0  0  0  0  0  0
  149.9722  142.0451  156.8014 N   0  0  0  0  0  0  0  0  0  0  0  0
  150.4827  143.3249  157.0944 C   0  0  0  0  0  0  0  0  0  0  0  0
  151.6186  143.5192  157.7911 C   0  0  0  0  0  0  0  0  0  0  0  0
  152.1068  144.9156  158.1445 C   0  0  0  0  0  0  0  0  0  0  0  0
  152.3309  145.6401  157.0482 F   0  0  0  0  0  0  0  0  0  0  0  0
  151.1905  145.5441  158.8794 F   0  0  0  0  0  0  0  0  0  0  0  0
  153.2380  144.8615  158.8487 F   0  0  0  0  0  0  0  0  0  0  0  0
  152.2986  142.3282  158.2618 C   0  0  0  0  0  0  0  0  0  0  0  0
  151.8161  141.0971  158.0028 C   0  0  0  0  0  0  0  0  0  0  0  0
  150.5848  140.9022  157.2343 C   0  0  0  0  0  0  0  0  0  0  0  0
  150.1272  139.7833  157.0025 O   0  0  0  0  0  0  0  0  0  0  0  0
  146.6656  133.8044  154.6561 H   0  0  0  0  0  0  0  0  0  0  0  0
  147.2523  135.2920  155.3594 H   0  0  0  0  0  0  0  0  0  0  0  0
  148.0813  134.5887  153.9708 H   0  0  0  0  0  0  0  0  0  0  0  0
  145.2471  135.7605  153.9600 H   0  0  0  0  0  0  0  0  0  0  0  0
  146.8230  134.3828  151.7345 H   0  0  0  0  0  0  0  0  0  0  0  0
  145.4000  133.7526  152.5253 H   0  0  0  0  0  0  0  0  0  0  0  0
  144.8495  134.7724  150.3161 H   0  0  0  0  0  0  0  0  0  0  0  0
  144.0168  135.5863  151.6236 H   0  0  0  0  0  0  0  0  0  0  0  0
  146.5948  136.5277  150.2687 H   0  0  0  0  0  0  0  0  0  0  0  0
  145.0172  137.2623  150.1000 H   0  0  0  0  0  0  0  0  0  0  0  0
  146.4287  138.5015  151.7262 H   0  0  0  0  0  0  0  0  0  0  0  0
  144.9874  137.8735  152.5033 H   0  0  0  0  0  0  0  0  0  0  0  0
  146.2517  138.0406  154.7364 H   0  0  0  0  0  0  0  0  0  0  0  0
  147.7804  137.2422  154.8837 H   0  0  0  0  0  0  0  0  0  0  0  0
  148.8165  138.8634  153.3107 H   0  0  0  0  0  0  0  0  0  0  0  0
  147.2381  139.4634  152.8352 H   0  0  0  0  0  0  0  0  0  0  0  0
  147.2152  139.9411  155.5033 H   0  0  0  0  0  0  0  0  0  0  0  0
  148.4411  142.9818  155.6800 H   0  0  0  0  0  0  0  0  0  0  0  0
  147.8984  141.6671  156.6622 H   0  0  0  0  0  0  0  0  0  0  0  0
  149.8825  144.1436  156.7239 H   0  0  0  0  0  0  0  0  0  0  0  0
  153.2136  142.4226  158.8280 H   0  0  0  0  0  0  0  0  0  0  0  0
  152.3503  140.2318  158.3675 H   0  0  0  0  0  0  0  0  0  0  0  0
  147.6416  136.6580  152.5563 H   0  0  0  0  0  0  0  0  0  0  0  0
  1  2  1  0  0  0  0
  1 25  1  0  0  0  0
  1 26  1  0  0  0  0
  1 27  1  0  0  0  0
  2  7  1  0  0  0  0
  2  3  1  0  0  0  0
  2 28  1  0  0  0  0
  3  4  1  0  0  0  0
  3 29  1  0  0  0  0
  3 30  1  0  0  0  0
  4  5  1  0  0  0  0
  4 31  1  0  0  0  0
  4 32  1  0  0  0  0
  5  6  1  0  0  0  0
  5 33  1  0  0  0  0
  5 34  1  0  0  0  0
  6  7  1  0  0  0  0
  6 35  1  0  0  0  0
  6 36  1  0  0  0  0
  7  8  1  0  0  0  0
  7 47  1  0  0  0  0
  8  9  1  0  0  0  0
  8 37  1  0  0  0  0
  8 38  1  0  0  0  0
  9 10  1  0  0  0  0
  9 39  1  0  0  0  0
  9 40  1  0  0  0  0
 10 11  1  0  0  0  0
 10 41  1  0  0  0  0
 11 12  2  0  0  0  0
 11 13  1  0  0  0  0
 13 14  1  0  0  0  0
 13 42  1  0  0  0  0
 13 43  1  0  0  0  0
 14 23  1  0  0  0  0
 14 15  1  0  0  0  0
 15 16  2  0  0  0  0
 15 44  1  0  0  0  0
 16 17  1  0  0  0  0
 16 21  1  0  0  0  0
 17 18  1  0  0  0  0
 17 19  1  0  0  0  0
 17 20  1  0  0  0  0
 21 22  2  0  0  0  0
 21 45  1  0  0  0  0
 22 23  1  0  0  0  0
 22 46  1  0  0  0  0
 23 24  2  0  0  0  0
M  CHG  1   7   1
M  END
> <s_m_source_file>
AV-unprocessed.smi

> <i_m_source_file_index>
1432

> <i_lp_mmshare_version>
43012

> <i_f3d_flags>
0

> <s_epik_input>
W0NIM11bQ0BASF0xW0NIMl1bQ0gyXVtDSDJdW0NIMl1OMVtDSDJdW0NIMl1bTkhdQyg9TylbQ0gyXW4yW2NIXWMoQyhGKShGKUYpW2NIXVtjSF1jMj1P

> <s_epik_cmdline>
J2VwaWtfcHl0aG9uJywgJy1waCcsICc3LjAnLCAnLXRuJywgJzgnLCAnLW1hJywgJzIwMCcsICctbWV0YWxfYmluZGluZycsICctaW1hZScsICc8aW5maWxlLm1hZT4nLCAnLW9tYWUnLCAnPG91dGZpbGUubWFlPic=

> <r_lp_tautomer_probability>
1

> <r_epik_Ionization_Penalty>
0.00237222

> <r_epik_Ionization_Penalty_Charging>
0.00237213

> <r_epik_Ionization_Penalty_Neutral>
8.2065e-08

> <r_epik_State_Penalty>
0.00163922

> <r_epik_Charging_Adjusted_Penalty>
0.00401135

> <i_epik_Tot_Q>
1

> <i_epik_Tot_abs_Q>
1

> <r_epik_Metal_State_Penalty>
-0

> <b_epik_Metal_Only>
0

> <s_lp_Force_Field>
OPLS_2005

> <r_lp_Energy>
33.1317

> <b_lp_Chiralities_Consistent>
1

> <s_lp_Variant>
AV-unprocessed.smi:1432-1

> <Gold.Version>
5.8.1

> <Gold.Id.Protein>
6NUR|6NUR_protein|mol2

> <Gold.PLP.Fitness>
51.8647

> <Gold.PLP.PLP>
-41.2565

> <Gold.PLP.part.hbond>
-2.0000

> <Gold.PLP.part.metal>
0.0000

> <Gold.PLP.part.buried>
-2.4066

> <Gold.PLP.part.nonpolar>
-38.4324

> <Gold.PLP.part.repulsive>
0.1511

> <Gold.PLP.ligand.clash>
0.0000

> <Gold.PLP.ligand.torsion>
0.3284

> <Gold.PLP.Chemscore.Hbond>
2.7200

> <Gold.PLP.Chemscore.CHOScore>
1.0000

> <Gold.PLP.Chemscore.Metal>
0.0000

> <Gold.Chemscore.Hbonds>
donor molecule, donor type, donor heavy atom, donor atom, acceptor molecule, acceptor atom, score
      L1  H     7    47       P1  7948  2.00
      P1  H  7989  7998       L1    12  0.27
      P1  H  8011  8017       L1    12  0.80

> <Gold.PLP.Chemscore.Internal.Correction>
0.1051

> <Gold.Rescore>
     Score         DG    S(hbond)    S(metal)    S(lipo)     H(rot)  DE(clash)    DE(int)     intcor
     13.12     -15.54       1.59        0.00      86.06       2.08       1.77       0.64       ----

> <Gold.Chemscore.Fitness>
13.1243

> <Gold.Chemscore.DG>
-15.5357

> <Gold.Chemscore.ZeroCoef>
-5.4800

> <Gold.Chemscore.Hbond>
1.5875

> <Gold.Chemscore.Metal>
0.0000

> <Gold.Chemscore.Lipo>
86.0555

> <Gold.Chemscore.Internal_Hbond>
0.0000

> <Gold.Chemscore.DEClash>
1.7746

> <Gold.Chemscore.DEInternal>
0.6367

> <Gold.Chemscore.Rot>
2.0762

> <Gold.Chemscore.Internal.Correction>
   9.000000E+99

> <Gold.Chemscore.Hbonds>
donor molecule, donor type, donor heavy atom, donor atom, acceptor molecule, acceptor atom, score
      L1  H     7    47       P1  7948  0.94
      P1  H  7989  7998       L1    12  0.28
      P1  H  8011  8017       L1    12  0.77

> <Gold.Chemscore.Hbond.Weighted>
-5.3022

> <Gold.Chemscore.Metal.Weighted>
-0.0000

> <Gold.Chemscore.Lipo.Weighted>
-10.0685

> <Gold.Chemscore.Internal_Hbond.Weighted>
0.0000

> <Gold.Chemscore.DEClash.Weighted>
1.7746

> <Gold.Chemscore.DEInternal.Weighted>
0.6367

> <Gold.Chemscore.Rot.Weighted>
5.3150

> <Gold.Chemscore.Internal.Correction.Weighted>
   9.000000E+99

> <Gold.Protein.RotatedTorsions>
[ 6907 6896 6895 6894 ] final  105.29 input  -60.11 | X-H torsion
[ 7974 7965 7964 7962 ] final -165.72 input  175.53 | X-H torsion
[ 8008 7997 7996 7995 ] final   95.47 input   59.86 | X-H torsion
[ 10167 10162 10161 10158 ] final   46.42 input  -65.29 | X-H torsion
[ 10718 10713 10712 10709 ] final  139.61 input   66.30 | X-H torsion
[ 10763 10752 10751 10750 ] final  -57.48 input  -60.55 | X-H torsion
[ 11005 11000 10999 10996 ] final -143.15 input  -57.11 | X-H torsion

> <Gold.Protein.ActiveResidues>
 VAL166  LYS551  ARG553  GLY616  TRP617  ASP618  TYR619  PRO620  LYS621  CYS622 
 ASP623  PHE694  ASN695  SER759  ASP760  ASP761  ALA762  ILE779  LEU786  VAL792 
 PHE793  MET794  SER795  GLU796  ALA797  LYS798  CYS799  TRP800  GLU811  SER814 

> <Gold.Protein.RotatedAtoms>
  152.5235  133.9550  159.7689 H   0  0  0  0  0  0  0  0  0  0  0  0  # atno 6907 bound_to 6896
  150.9852  133.6197  159.2723 H   0  0  0  0  0  0  0  0  0  0  0  0  # atno 6908 bound_to 6896
  151.3360  135.0858  159.9408 H   0  0  0  0  0  0  0  0  0  0  0  0  # atno 6909 bound_to 6896
  144.7263  140.2772  143.6241 H   0  0  0  0  0  0  0  0  0  0  0  0  # atno 7974 bound_to 7965
  156.0693  140.3286  155.7556 H   0  0  0  0  0  0  0  0  0  0  0  0  # atno 8008 bound_to 7997
  155.5332  140.0595  157.2902 H   0  0  0  0  0  0  0  0  0  0  0  0  # atno 8009 bound_to 7997
  154.4521  140.1924  156.0505 H   0  0  0  0  0  0  0  0  0  0  0  0  # atno 8010 bound_to 7997
  140.3141  144.2785  150.6194 H   0  0  0  0  0  0  0  0  0  0  0  0  # atno 10167 bound_to 10162
  157.4125  131.1029  151.0439 H   0  0  0  0  0  0  0  0  0  0  0  0  # atno 10718 bound_to 10713
  154.2231  135.6374  153.5151 H   0  0  0  0  0  0  0  0  0  0  0  0  # atno 10763 bound_to 10752
  152.9964  135.5501  154.6093 H   0  0  0  0  0  0  0  0  0  0  0  0  # atno 10764 bound_to 10752
  154.5557  135.2905  155.0940 H   0  0  0  0  0  0  0  0  0  0  0  0  # atno 10765 bound_to 10752
  140.8154  134.2695  157.4923 H   0  0  0  0  0  0  0  0  0  0  0  0  # atno 11005 bound_to 11000
  145.7985  139.1955  143.2062 LP  0  0  0  0  0  0  0  0  0  0  0  0  # atno 17320 bound_to 7965
  146.0696  140.7883  142.9694 LP  0  0  0  0  0  0  0  0  0  0  0  0  # atno 17321 bound_to 7965
  140.5542  143.2201  151.7876 LP  0  0  0  0  0  0  0  0  0  0  0  0  # atno 17342 bound_to 10162
  139.4887  144.4436  151.9736 LP  0  0  0  0  0  0  0  0  0  0  0  0  # atno 17343 bound_to 10162
  157.1399  130.6138  149.5552 LP  0  0  0  0  0  0  0  0  0  0  0  0  # atno 17370 bound_to 10713
  155.9855  130.4885  150.7034 LP  0  0  0  0  0  0  0  0  0  0  0  0  # atno 17371 bound_to 10713
  139.8711  134.9506  156.4060 LP  0  0  0  0  0  0  0  0  0  0  0  0  # atno 17394 bound_to 11000
  140.9155  133.7682  155.9842 LP  0  0  0  0  0  0  0  0  0  0  0  0  # atno 17395 bound_to 11000

$$$$
