AV-unprocessed.smi:1019|AV-procd|sdf|4451|dock4
  -GOLD-   22720 2413D 1   1.00000     0.00000
 Structure written by MMmdl.
 43 45  0  0  0  0  0  0  0  0  1 V2000
  151.8037  139.2387  154.3141 C   0  0  0  0  0  0  0  0  0  0  0  0
  150.4889  138.7721  154.7541 N   0  0  0  0  0  0  0  0  0  0  0  0
  150.1002  137.5548  154.0400 C   0  0  0  0  0  0  0  0  0  0  0  0
  150.9214  136.3309  154.4105 C   0  0  0  0  0  0  0  0  0  0  0  0
  150.6658  135.0904  153.7883 C   0  0  0  0  0  0  0  0  0  0  0  0
  151.4270  133.9561  154.1319 C   0  0  0  0  0  0  0  0  0  0  0  0
  152.4479  134.0585  155.0968 C   0  0  0  0  0  0  0  0  0  0  0  0
  152.7073  135.2954  155.7181 C   0  0  0  0  0  0  0  0  0  0  0  0
  151.9463  136.4300  155.3753 C   0  0  0  0  0  0  0  0  0  0  0  0
  149.4633  139.8062  154.5904 C   0  0  0  0  0  0  0  0  0  0  0  0
  149.3624  140.8432  155.7287 C   0  0  2  0  0  0  0  0  0  0  0  0
  148.3336  141.7626  155.4156 O   0  0  0  0  0  0  0  0  0  0  0  0
  150.6878  141.6078  155.9089 C   0  0  0  0  0  0  0  0  0  0  0  0
  151.1611  141.5908  157.2820 N   0  0  0  0  0  0  0  0  0  0  0  0
  151.5274  140.5098  157.9972 C   0  0  0  0  0  0  0  0  0  0  0  0
  151.9390  140.7146  159.2450 N   0  0  0  0  0  0  0  0  0  0  0  0
  151.8264  142.0901  159.3536 C   0  0  0  0  0  0  0  0  0  0  0  0
  152.1114  142.9502  160.4384 C   0  0  0  0  0  0  0  0  0  0  0  0
  151.9175  144.3419  160.3168 C   0  0  0  0  0  0  0  0  0  0  0  0
  151.4359  144.8940  159.1121 C   0  0  0  0  0  0  0  0  0  0  0  0
  151.1452  144.0573  158.0174 C   0  0  0  0  0  0  0  0  0  0  0  0
  151.3414  142.6691  158.1419 C   0  0  0  0  0  0  0  0  0  0  0  0
  152.1427  140.0918  154.8994 H   0  0  0  0  0  0  0  0  0  0  0  0
  151.7872  139.5296  153.2629 H   0  0  0  0  0  0  0  0  0  0  0  0
  152.5591  138.4623  154.4362 H   0  0  0  0  0  0  0  0  0  0  0  0
  149.0606  137.3128  154.2649 H   0  0  0  0  0  0  0  0  0  0  0  0
  150.1495  137.7200  152.9626 H   0  0  0  0  0  0  0  0  0  0  0  0
  149.8832  135.0066  153.0483 H   0  0  0  0  0  0  0  0  0  0  0  0
  151.2275  133.0079  153.6547 H   0  0  0  0  0  0  0  0  0  0  0  0
  153.0318  133.1889  155.3602 H   0  0  0  0  0  0  0  0  0  0  0  0
  153.4899  135.3746  156.4584 H   0  0  0  0  0  0  0  0  0  0  0  0
  152.1503  137.3748  155.8575 H   0  0  0  0  0  0  0  0  0  0  0  0
  149.6370  140.3272  153.6475 H   0  0  0  0  0  0  0  0  0  0  0  0
  148.4856  139.3331  154.4860 H   0  0  0  0  0  0  0  0  0  0  0  0
  149.1168  140.3627  156.6745 H   0  0  0  0  0  0  0  0  0  0  0  0
  148.6128  142.6272  155.6753 H   0  0  0  0  0  0  0  0  0  0  0  0
  151.4625  141.1676  155.2797 H   0  0  0  0  0  0  0  0  0  0  0  0
  150.5798  142.6444  155.5870 H   0  0  0  0  0  0  0  0  0  0  0  0
  151.4891  139.5153  157.5769 H   0  0  0  0  0  0  0  0  0  0  0  0
  152.4800  142.5381  161.3661 H   0  0  0  0  0  0  0  0  0  0  0  0
  152.1393  144.9891  161.1527 H   0  0  0  0  0  0  0  0  0  0  0  0
  151.2897  145.9611  159.0290 H   0  0  0  0  0  0  0  0  0  0  0  0
  150.7754  144.4775  157.0941 H   0  0  0  0  0  0  0  0  0  0  0  0
  1  2  1  0  0  0  0
  1 23  1  0  0  0  0
  1 24  1  0  0  0  0
  1 25  1  0  0  0  0
  2  3  1  0  0  0  0
  2 10  1  0  0  0  0
  3  4  1  0  0  0  0
  3 26  1  0  0  0  0
  3 27  1  0  0  0  0
  4  9  1  0  0  0  0
  4  5  2  0  0  0  0
  5  6  1  0  0  0  0
  5 28  1  0  0  0  0
  6  7  2  0  0  0  0
  6 29  1  0  0  0  0
  7  8  1  0  0  0  0
  7 30  1  0  0  0  0
  8  9  2  0  0  0  0
  8 31  1  0  0  0  0
  9 32  1  0  0  0  0
 10 11  1  0  0  0  0
 10 33  1  0  0  0  0
 10 34  1  0  0  0  0
 11 12  1  0  0  0  0
 11 13  1  0  0  0  0
 11 35  1  0  0  0  0
 12 36  1  0  0  0  0
 13 14  1  0  0  0  0
 13 37  1  0  0  0  0
 13 38  1  0  0  0  0
 14 22  1  0  0  0  0
 14 15  1  0  0  0  0
 15 16  2  0  0  0  0
 15 39  1  0  0  0  0
 16 17  1  0  0  0  0
 17 22  2  0  0  0  0
 17 18  1  0  0  0  0
 18 19  2  0  0  0  0
 18 40  1  0  0  0  0
 19 20  1  0  0  0  0
 19 41  1  0  0  0  0
 20 21  2  0  0  0  0
 20 42  1  0  0  0  0
 21 22  1  0  0  0  0
 21 43  1  0  0  0  0
M  END
> <s_m_source_file>
AV-unprocessed.smi

> <i_m_source_file_index>
1019

> <i_lp_mmshare_version>
43012

> <i_f3d_flags>
0

> <s_epik_input>
W2NIXTFbY0hdW2NIXVtjSF1bY0hdYzFbQ0gyXU4oW0NIM10pW0NIMl1bQ0BIXShbT0hdKVtDSDJdbihbY0hdbjIpYyhjMjMpW2NIXVtjSF1bY0hdW2NIXTM=

> <s_epik_cmdline>
J2VwaWtfcHl0aG9uJywgJy1waCcsICc3LjAnLCAnLXRuJywgJzgnLCAnLW1hJywgJzIwMCcsICctbWV0YWxfYmluZGluZycsICctaW1hZScsICc8aW5maWxlLm1hZT4nLCAnLW9tYWUnLCAnPG91dGZpbGUubWFlPic=

> <r_epik_Ionization_Penalty>
1.56741

> <r_epik_Ionization_Penalty_Charging>
0

> <r_epik_Ionization_Penalty_Neutral>
1.56741

> <r_epik_State_Penalty>
1.62466

> <r_epik_Charging_Adjusted_Penalty>
1.62466

> <i_epik_Tot_Q>
0

> <i_epik_Tot_abs_Q>
0

> <r_epik_Metal_State_Penalty>
1.58486

> <b_epik_Metal_Only>
0

> <s_lp_Force_Field>
OPLS_2005

> <r_lp_Energy>
24.0301

> <b_lp_Chiralities_Consistent>
1

> <s_lp_Variant>
AV-unprocessed.smi:1019-9

> <Gold.Version>
5.8.1

> <Gold.Id.Protein>
6NUR|6NUR_protein|mol2

> <Gold.PLP.Fitness>
45.7385

> <Gold.PLP.PLP>
-44.7638

> <Gold.PLP.part.hbond>
-1.0000

> <Gold.PLP.part.metal>
0.0000

> <Gold.PLP.part.buried>
-3.7451

> <Gold.PLP.part.nonpolar>
-39.8695

> <Gold.PLP.part.repulsive>
0.0956

> <Gold.PLP.ligand.clash>
0.0000

> <Gold.PLP.ligand.torsion>
1.0784

> <Gold.PLP.Chemscore.Hbond>
0.9920

> <Gold.PLP.Chemscore.CHOScore>
0.0000

> <Gold.PLP.Chemscore.Metal>
0.0000

> <Gold.Chemscore.Hbonds>
donor molecule, donor type, donor heavy atom, donor atom, acceptor molecule, acceptor atom, score
      L1  H    12    36       P1  8028  0.83

> <Gold.PLP.Chemscore.Internal.Correction>
0.1556

> <Gold.Rescore>
     Score         DG    S(hbond)    S(metal)    S(lipo)     H(rot)  DE(clash)    DE(int)     intcor
     16.44     -17.84       1.00        0.00     126.75       2.27       0.09       1.30       ----

> <Gold.Chemscore.Fitness>
16.4406

> <Gold.Chemscore.DG>
-17.8358

> <Gold.Chemscore.ZeroCoef>
-5.4800

> <Gold.Chemscore.Hbond>
0.9966

> <Gold.Chemscore.Metal>
0.0000

> <Gold.Chemscore.Lipo>
126.7525

> <Gold.Chemscore.Internal_Hbond>
0.0000

> <Gold.Chemscore.DEClash>
0.0906

> <Gold.Chemscore.DEInternal>
1.3046

> <Gold.Chemscore.Rot>
2.2667

> <Gold.Chemscore.Internal.Correction>
   9.000000E+99

> <Gold.Chemscore.Hbonds>
donor molecule, donor type, donor heavy atom, donor atom, acceptor molecule, acceptor atom, score
      L1  H    12    36       P1  8028  0.80

> <Gold.Chemscore.Hbond.Weighted>
-3.3286

> <Gold.Chemscore.Metal.Weighted>
-0.0000

> <Gold.Chemscore.Lipo.Weighted>
-14.8300

> <Gold.Chemscore.Internal_Hbond.Weighted>
0.0000

> <Gold.Chemscore.DEClash.Weighted>
0.0906

> <Gold.Chemscore.DEInternal.Weighted>
1.3046

> <Gold.Chemscore.Rot.Weighted>
5.8028

> <Gold.Chemscore.Internal.Correction.Weighted>
   9.000000E+99

> <Gold.Protein.RotatedTorsions>
[ 6907 6896 6895 6894 ] final  -52.66 input  -60.11 | X-H torsion
[ 7974 7965 7964 7962 ] final -178.53 input  175.53 | X-H torsion
[ 8008 7997 7996 7995 ] final   11.46 input   59.86 | X-H torsion
[ 10167 10162 10161 10158 ] final  150.79 input  -65.29 | X-H torsion
[ 10718 10713 10712 10709 ] final  -28.40 input   66.30 | X-H torsion
[ 10763 10752 10751 10750 ] final -140.34 input  -60.55 | X-H torsion
[ 11005 11000 10999 10996 ] final   46.13 input  -57.11 | X-H torsion

> <Gold.Protein.ActiveResidues>
 VAL166  LYS551  ARG553  GLY616  TRP617  ASP618  TYR619  PRO620  LYS621  CYS622 
 ASP623  PHE694  ASN695  SER759  ASP760  ASP761  ALA762  ILE779  LEU786  VAL792 
 PHE793  MET794  SER795  GLU796  ALA797  LYS798  CYS799  TRP800  GLU811  SER814 

> <Gold.Protein.RotatedAtoms>
  150.8498  134.7818  159.6998 H   0  0  0  0  0  0  0  0  0  0  0  0  # atno 6907 bound_to 6896
  152.4565  134.5276  159.9811 H   0  0  0  0  0  0  0  0  0  0  0  0  # atno 6908 bound_to 6896
  151.5399  133.3396  159.2969 H   0  0  0  0  0  0  0  0  0  0  0  0  # atno 6909 bound_to 6896
  144.7131  140.0855  143.6424 H   0  0  0  0  0  0  0  0  0  0  0  0  # atno 7974 bound_to 7965
  154.8072  140.2862  155.5879 H   0  0  0  0  0  0  0  0  0  0  0  0  # atno 8008 bound_to 7997
  156.2984  140.2575  156.2882 H   0  0  0  0  0  0  0  0  0  0  0  0  # atno 8009 bound_to 7997
  154.9489  140.0380  157.2123 H   0  0  0  0  0  0  0  0  0  0  0  0  # atno 8010 bound_to 7997
  139.4846  144.5493  151.7428 H   0  0  0  0  0  0  0  0  0  0  0  0  # atno 10167 bound_to 10162
  156.4258  130.4435  149.7152 H   0  0  0  0  0  0  0  0  0  0  0  0  # atno 10718 bound_to 10713
  154.8581  135.3556  154.5692 H   0  0  0  0  0  0  0  0  0  0  0  0  # atno 10763 bound_to 10752
  153.6306  135.7002  153.5282 H   0  0  0  0  0  0  0  0  0  0  0  0  # atno 10764 bound_to 10752
  153.3053  135.4194  155.1248 H   0  0  0  0  0  0  0  0  0  0  0  0  # atno 10765 bound_to 10752
  140.1397  134.4599  155.8459 H   0  0  0  0  0  0  0  0  0  0  0  0  # atno 11005 bound_to 11000
  145.9666  139.2839  143.1124 LP  0  0  0  0  0  0  0  0  0  0  0  0  # atno 17320 bound_to 7965
  145.9163  140.9146  143.0428 LP  0  0  0  0  0  0  0  0  0  0  0  0  # atno 17321 bound_to 7965
  140.5045  144.1119  150.5979 LP  0  0  0  0  0  0  0  0  0  0  0  0  # atno 17342 bound_to 10162
  140.4024  143.2697  151.9932 LP  0  0  0  0  0  0  0  0  0  0  0  0  # atno 17343 bound_to 10162
  156.4075  130.7705  151.2716 LP  0  0  0  0  0  0  0  0  0  0  0  0  # atno 17370 bound_to 10713
  157.7508  131.0221  150.3779 LP  0  0  0  0  0  0  0  0  0  0  0  0  # atno 17371 bound_to 10713
  141.2184  133.6828  156.7224 LP  0  0  0  0  0  0  0  0  0  0  0  0  # atno 17394 bound_to 11000
  140.2737  134.8371  157.3871 LP  0  0  0  0  0  0  0  0  0  0  0  0  # atno 17395 bound_to 11000

$$$$
