AV-unprocessed.smi:2898|AV-procd|sdf|11141|dock5
  -GOLD-   2272016 23D 1   1.00000     0.00000
 Structure written by MMmdl.
 44 45  0  0  0  0  0  0  0  0  1 V2000
  149.4676  141.7856  157.5682 C   0  0  0  0  0  0  0  0  0  0  0  0
  149.9709  140.8285  156.5260 C   0  0  0  0  0  0  0  0  0  0  0  0
  150.2271  141.2700  155.3072 N   0  0  0  0  0  0  0  0  0  0  0  0
  150.6441  140.1539  154.5779 O   0  0  0  0  0  0  0  0  0  0  0  0
  150.6202  139.0700  155.3945 C   0  0  0  0  0  0  0  0  0  0  0  0
  151.0157  137.7722  154.7743 C   0  0  0  0  0  0  0  0  0  0  0  0
  150.2091  139.4288  156.6518 C   0  0  0  0  0  0  0  0  0  0  0  0
  150.0023  138.5770  157.8879 C   0  0  2  0  0  0  0  0  0  0  0  0
  151.3175  137.9485  158.3738 C   0  0  0  0  0  0  0  0  0  0  0  0
  148.9060  137.5084  157.6862 C   0  0  0  0  0  0  0  0  0  0  0  0
  148.3300  137.0774  158.9580 N   0  0  0  0  0  0  0  0  0  0  0  0
  148.2790  135.8121  159.4103 C   0  0  0  0  0  0  0  0  0  0  0  0
  148.8175  134.8760  158.8170 O   0  0  0  0  0  0  0  0  0  0  0  0
  147.4817  135.5433  160.7060 C   0  0  0  0  0  0  0  0  0  0  0  0
  148.0012  136.3464  161.8334 C   0  0  0  0  0  0  0  0  0  0  0  0
  148.4074  136.9748  162.7169 N   0  0  0  0  0  0  0  0  0  0  0  0
  145.9939  135.9056  160.4650 C   0  0  0  0  0  0  0  0  0  0  0  0
  145.1056  135.5546  161.6716 C   0  0  0  0  0  0  0  0  0  0  0  0
  145.2317  134.0673  162.0343 C   0  0  0  0  0  0  0  0  0  0  0  0
  146.6965  133.6702  162.2707 C   0  0  0  0  0  0  0  0  0  0  0  0
  147.5710  134.0375  161.0586 C   0  0  0  0  0  0  0  0  0  0  0  0
  148.4768  141.4926  157.9167 H   0  0  0  0  0  0  0  0  0  0  0  0
  149.3936  142.8034  157.1831 H   0  0  0  0  0  0  0  0  0  0  0  0
  150.1321  141.8062  158.4320 H   0  0  0  0  0  0  0  0  0  0  0  0
  150.3672  136.9646  155.1123 H   0  0  0  0  0  0  0  0  0  0  0  0
  152.0424  137.5169  155.0355 H   0  0  0  0  0  0  0  0  0  0  0  0
  150.9464  137.8212  153.6874 H   0  0  0  0  0  0  0  0  0  0  0  0
  149.6594  139.2190  158.7002 H   0  0  0  0  0  0  0  0  0  0  0  0
  152.0723  138.7131  158.5598 H   0  0  0  0  0  0  0  0  0  0  0  0
  151.7248  137.2464  157.6469 H   0  0  0  0  0  0  0  0  0  0  0  0
  151.1670  137.4027  159.3054 H   0  0  0  0  0  0  0  0  0  0  0  0
  148.1295  137.8810  157.0167 H   0  0  0  0  0  0  0  0  0  0  0  0
  149.3305  136.6329  157.1941 H   0  0  0  0  0  0  0  0  0  0  0  0
  147.8741  137.7908  159.5084 H   0  0  0  0  0  0  0  0  0  0  0  0
  145.8996  136.9707  160.2481 H   0  0  0  0  0  0  0  0  0  0  0  0
  145.6104  135.3833  159.5869 H   0  0  0  0  0  0  0  0  0  0  0  0
  145.3811  136.1676  162.5302 H   0  0  0  0  0  0  0  0  0  0  0  0
  144.0657  135.7928  161.4470 H   0  0  0  0  0  0  0  0  0  0  0  0
  144.6387  133.8490  162.9229 H   0  0  0  0  0  0  0  0  0  0  0  0
  144.8160  133.4604  161.2290 H   0  0  0  0  0  0  0  0  0  0  0  0
  147.0721  134.1652  163.1667 H   0  0  0  0  0  0  0  0  0  0  0  0
  146.7622  132.5989  162.4628 H   0  0  0  0  0  0  0  0  0  0  0  0
  147.2615  133.4277  160.2082 H   0  0  0  0  0  0  0  0  0  0  0  0
  148.6067  133.7647  161.2666 H   0  0  0  0  0  0  0  0  0  0  0  0
  1  2  1  0  0  0  0
  1 22  1  0  0  0  0
  1 23  1  0  0  0  0
  1 24  1  0  0  0  0
  2  7  1  0  0  0  0
  2  3  2  0  0  0  0
  3  4  1  0  0  0  0
  4  5  1  0  0  0  0
  5  6  1  0  0  0  0
  5  7  2  0  0  0  0
  6 25  1  0  0  0  0
  6 26  1  0  0  0  0
  6 27  1  0  0  0  0
  7  8  1  0  0  0  0
  8  9  1  0  0  0  0
  8 10  1  0  0  0  0
  8 28  1  0  0  0  0
  9 29  1  0  0  0  0
  9 30  1  0  0  0  0
  9 31  1  0  0  0  0
 10 11  1  0  0  0  0
 10 32  1  0  0  0  0
 10 33  1  0  0  0  0
 11 12  1  0  0  0  0
 11 34  1  0  0  0  0
 12 13  2  0  0  0  0
 12 14  1  0  0  0  0
 14 21  1  0  0  0  0
 14 15  1  0  0  0  0
 14 17  1  0  0  0  0
 15 16  3  0  0  0  0
 17 18  1  0  0  0  0
 17 35  1  0  0  0  0
 17 36  1  0  0  0  0
 18 19  1  0  0  0  0
 18 37  1  0  0  0  0
 18 38  1  0  0  0  0
 19 20  1  0  0  0  0
 19 39  1  0  0  0  0
 19 40  1  0  0  0  0
 20 21  1  0  0  0  0
 20 41  1  0  0  0  0
 20 42  1  0  0  0  0
 21 43  1  0  0  0  0
 21 44  1  0  0  0  0
M  END
> <s_m_source_file>
AV-unprocessed.smi

> <i_m_source_file_index>
2898

> <i_lp_mmshare_version>
43012

> <i_f3d_flags>
0

> <s_epik_input>
W0NIM11jMW5vYyhbQ0gzXSljMVtDQEhdKFtDSDNdKVtDSDJdW05IXUMoPU8pQzIoQyNOKVtDSDJdW0NIMl1bQ0gyXVtDSDJdW0NIMl0y

> <s_epik_cmdline>
J2VwaWtfcHl0aG9uJywgJy1waCcsICc3LjAnLCAnLXRuJywgJzgnLCAnLW1hJywgJzIwMCcsICctbWV0YWxfYmluZGluZycsICctaW1hZScsICc8aW5maWxlLm1hZT4nLCAnLW9tYWUnLCAnPG91dGZpbGUubWFlPic=

> <r_lp_tautomer_probability>
1

> <r_epik_Ionization_Penalty>
4.33734e-07

> <r_epik_Ionization_Penalty_Charging>
0

> <r_epik_Ionization_Penalty_Neutral>
4.33734e-07

> <r_epik_State_Penalty>
-0

> <r_epik_Charging_Adjusted_Penalty>
0

> <i_epik_Tot_Q>
0

> <i_epik_Tot_abs_Q>
0

> <r_epik_Metal_State_Penalty>
-0

> <b_epik_Metal_Only>
0

> <s_lp_Force_Field>
OPLS_2005

> <r_lp_Energy>
7.89046

> <b_lp_Chiralities_Consistent>
1

> <s_lp_Variant>
AV-unprocessed.smi:2898-1

> <Gold.Version>
5.8.1

> <Gold.Id.Protein>
6NUR|6NUR_protein|mol2

> <Gold.PLP.Fitness>
39.0826

> <Gold.PLP.PLP>
-30.9085

> <Gold.PLP.part.hbond>
-3.6535

> <Gold.PLP.part.metal>
0.0000

> <Gold.PLP.part.buried>
-3.3438

> <Gold.PLP.part.nonpolar>
-22.7432

> <Gold.PLP.part.repulsive>
0.3530

> <Gold.PLP.ligand.clash>
0.0000

> <Gold.PLP.ligand.torsion>
0.2426

> <Gold.PLP.Chemscore.Hbond>
2.8640

> <Gold.PLP.Chemscore.CHOScore>
0.0000

> <Gold.PLP.Chemscore.Metal>
0.0000

> <Gold.Chemscore.Hbonds>
donor molecule, donor type, donor heavy atom, donor atom, acceptor molecule, acceptor atom, score
      P1  H  6896  6908       L1    13  1.00
      P1  H  6931  6943       L1    16  0.93
      P1  H  7989  7998       L1     4  1.00

> <Gold.PLP.Chemscore.Internal.Correction>
0.0674

> <Gold.Rescore>
     Score         DG    S(hbond)    S(metal)    S(lipo)     H(rot)  DE(clash)    DE(int)     intcor
     17.10     -17.44       2.43        0.00      66.23       1.52       0.01       0.33       ----

> <Gold.Chemscore.Fitness>
17.1001

> <Gold.Chemscore.DG>
-17.4385

> <Gold.Chemscore.ZeroCoef>
-5.4800

> <Gold.Chemscore.Hbond>
2.4288

> <Gold.Chemscore.Metal>
0.0000

> <Gold.Chemscore.Lipo>
66.2274

> <Gold.Chemscore.Internal_Hbond>
0.0000

> <Gold.Chemscore.DEClash>
0.0107

> <Gold.Chemscore.DEInternal>
0.3277

> <Gold.Chemscore.Rot>
1.5243

> <Gold.Chemscore.Internal.Correction>
   9.000000E+99

> <Gold.Chemscore.Hbonds>
donor molecule, donor type, donor heavy atom, donor atom, acceptor molecule, acceptor atom, score
      P1  H  6896  6908       L1    13  0.75
      P1  H  6931  6943       L1    16  0.31
      P1  H  7989  7998       L1     4  0.25

> <Gold.Chemscore.Hbond.Weighted>
-8.1121

> <Gold.Chemscore.Metal.Weighted>
-0.0000

> <Gold.Chemscore.Lipo.Weighted>
-7.7486

> <Gold.Chemscore.Internal_Hbond.Weighted>
0.0000

> <Gold.Chemscore.DEClash.Weighted>
0.0107

> <Gold.Chemscore.DEInternal.Weighted>
0.3277

> <Gold.Chemscore.Rot.Weighted>
3.9022

> <Gold.Chemscore.Internal.Correction.Weighted>
   9.000000E+99

> <Gold.Protein.RotatedTorsions>
[ 6907 6896 6895 6894 ] final  167.25 input  -60.11 | X-H torsion
[ 7974 7965 7964 7962 ] final -131.92 input  175.53 | X-H torsion
[ 8008 7997 7996 7995 ] final   90.53 input   59.86 | X-H torsion
[ 10167 10162 10161 10158 ] final  -80.81 input  -65.29 | X-H torsion
[ 10718 10713 10712 10709 ] final  -27.43 input   66.30 | X-H torsion
[ 10763 10752 10751 10750 ] final  -95.40 input  -60.55 | X-H torsion
[ 11005 11000 10999 10996 ] final -124.56 input  -57.11 | X-H torsion

> <Gold.Protein.ActiveResidues>
 VAL166  LYS551  ARG553  GLY616  TRP617  ASP618  TYR619  PRO620  LYS621  CYS622 
 ASP623  PHE694  ASN695  SER759  ASP760  ASP761  ALA762  ILE779  LEU786  VAL792 
 PHE793  MET794  SER795  GLU796  ALA797  LYS798  CYS799  TRP800  GLU811  SER814 

> <Gold.Protein.RotatedAtoms>
  151.8662  133.3467  159.3719 H   0  0  0  0  0  0  0  0  0  0  0  0  # atno 6907 bound_to 6896
  150.7165  134.5157  159.5638 H   0  0  0  0  0  0  0  0  0  0  0  0  # atno 6908 bound_to 6896
  152.2681  134.7963  160.0470 H   0  0  0  0  0  0  0  0  0  0  0  0  # atno 6909 bound_to 6896
  144.9334  140.7155  143.4892 H   0  0  0  0  0  0  0  0  0  0  0  0  # atno 7974 bound_to 7965
  156.0131  140.3348  155.6961 H   0  0  0  0  0  0  0  0  0  0  0  0  # atno 8008 bound_to 7997
  155.6129  140.0667  157.2718 H   0  0  0  0  0  0  0  0  0  0  0  0  # atno 8009 bound_to 7997
  154.4288  140.1790  156.1279 H   0  0  0  0  0  0  0  0  0  0  0  0  # atno 8010 bound_to 7997
  140.4469  143.2496  151.8545 H   0  0  0  0  0  0  0  0  0  0  0  0  # atno 10167 bound_to 10162
  156.4383  130.4459  149.7070 H   0  0  0  0  0  0  0  0  0  0  0  0  # atno 10718 bound_to 10713
  154.7144  135.5122  153.8716 H   0  0  0  0  0  0  0  0  0  0  0  0  # atno 10763 bound_to 10752
  153.0808  135.6630  154.0058 H   0  0  0  0  0  0  0  0  0  0  0  0  # atno 10764 bound_to 10752
  153.9894  135.3021  155.3393 H   0  0  0  0  0  0  0  0  0  0  0  0  # atno 10765 bound_to 10752
  140.9831  134.0645  157.3742 H   0  0  0  0  0  0  0  0  0  0  0  0  # atno 11005 bound_to 11000
  145.3106  139.1820  143.4641 LP  0  0  0  0  0  0  0  0  0  0  0  0  # atno 17320 bound_to 7965
  146.3256  140.3110  142.8627 LP  0  0  0  0  0  0  0  0  0  0  0  0  # atno 17321 bound_to 7965
  139.4793  144.5165  151.8861 LP  0  0  0  0  0  0  0  0  0  0  0  0  # atno 17342 bound_to 10162
  140.4253  144.2189  150.5887 LP  0  0  0  0  0  0  0  0  0  0  0  0  # atno 17343 bound_to 10162
  156.3945  130.7644  151.2647 LP  0  0  0  0  0  0  0  0  0  0  0  0  # atno 17370 bound_to 10713
  157.7507  131.0258  150.3934 LP  0  0  0  0  0  0  0  0  0  0  0  0  # atno 17371 bound_to 10713
  139.8959  135.0143  156.7024 LP  0  0  0  0  0  0  0  0  0  0  0  0  # atno 17394 bound_to 11000
  140.7155  133.9186  155.8112 LP  0  0  0  0  0  0  0  0  0  0  0  0  # atno 17395 bound_to 11000

$$$$
