AV-unprocessed.smi:876|AV-procd|sdf|4026|dock6
  -GOLD-   22720 1513D 1   1.00000     0.00000
 Structure written by MMmdl.
 40 41  0  0  0  0  0  0  0  0  1 V2000
  150.9938  142.6114  156.4577 C   0  0  0  0  0  0  0  0  0  0  0  0
  150.8954  141.2462  156.9594 N   0  0  0  0  0  0  0  0  0  0  0  0
  151.5420  140.8848  158.2168 C   0  0  0  0  0  0  0  0  0  0  0  0
  150.1575  140.2760  156.2431 C   0  0  0  0  0  0  0  0  0  0  0  0
  149.1917  139.4596  156.8825 C   0  0  0  0  0  0  0  0  0  0  0  0
  148.4825  138.5058  156.1271 C   0  0  0  0  0  0  0  0  0  0  0  0
  148.7467  138.3920  154.7426 C   0  0  0  0  0  0  0  0  0  0  0  0
  148.1154  137.4617  153.8721 N   0  0  0  0  0  0  0  0  0  0  0  0
  146.8467  137.0174  153.8871 C   0  0  0  0  0  0  0  0  0  0  0  0
  145.9757  137.3657  154.6839 O   0  0  0  0  0  0  0  0  0  0  0  0
  146.6307  136.1405  152.8966 N   0  0  0  0  0  0  0  0  0  0  0  0
  145.3545  135.4876  152.6253 C   0  0  1  0  0  0  0  0  0  0  0  0
  144.9479  135.6960  151.1922 C   0  0  0  0  0  0  0  0  0  0  0  0
  144.6959  134.5530  150.5583 C   0  0  0  0  0  0  0  0  0  0  0  0
  144.8892  133.3429  151.4360 C   0  0  1  0  0  0  0  0  0  0  0  0
  145.8320  132.2957  150.8181 C   0  0  0  0  0  0  0  0  0  0  0  0
  147.1068  132.8544  150.5778 O   0  0  0  0  0  0  0  0  0  0  0  0
  145.4255  133.9435  152.7607 C   0  0  0  0  0  0  0  0  0  0  0  0
  149.7311  139.2392  154.1976 C   0  0  0  0  0  0  0  0  0  0  0  0
  150.4133  140.1534  154.9176 N   0  0  0  0  0  0  0  0  0  0  0  0
  144.5728  135.9002  153.2654 H   0  0  0  0  0  0  0  0  0  0  0  0
  143.9085  132.8973  151.6100 H   0  0  0  0  0  0  0  0  0  0  0  0
  150.0063  143.0695  156.3958 H   0  0  0  0  0  0  0  0  0  0  0  0
  151.4483  142.6241  155.4665 H   0  0  0  0  0  0  0  0  0  0  0  0
  151.6074  143.2312  157.1115 H   0  0  0  0  0  0  0  0  0  0  0  0
  152.2793  140.0976  158.0568 H   0  0  0  0  0  0  0  0  0  0  0  0
  150.8053  140.5283  158.9376 H   0  0  0  0  0  0  0  0  0  0  0  0
  152.0555  141.7379  158.6602 H   0  0  0  0  0  0  0  0  0  0  0  0
  148.9834  139.5403  157.9386 H   0  0  0  0  0  0  0  0  0  0  0  0
  147.7648  137.8778  156.6303 H   0  0  0  0  0  0  0  0  0  0  0  0
  148.6896  137.1281  153.1118 H   0  0  0  0  0  0  0  0  0  0  0  0
  147.3996  135.9112  152.2841 H   0  0  0  0  0  0  0  0  0  0  0  0
  144.8602  136.6800  150.7554 H   0  0  0  0  0  0  0  0  0  0  0  0
  144.3737  134.4724  149.5304 H   0  0  0  0  0  0  0  0  0  0  0  0
  145.9364  131.4305  151.4739 H   0  0  0  0  0  0  0  0  0  0  0  0
  145.4284  131.9368  149.8710 H   0  0  0  0  0  0  0  0  0  0  0  0
  147.7276  132.1505  150.4674 H   0  0  0  0  0  0  0  0  0  0  0  0
  146.4520  133.6175  152.9370 H   0  0  0  0  0  0  0  0  0  0  0  0
  144.8394  133.5989  153.6134 H   0  0  0  0  0  0  0  0  0  0  0  0
  149.9796  139.1861  153.1475 H   0  0  0  0  0  0  0  0  0  0  0  0
  1  2  1  0  0  0  0
  1 23  1  0  0  0  0
  1 24  1  0  0  0  0
  1 25  1  0  0  0  0
  2  3  1  0  0  0  0
  2  4  1  0  0  0  0
  3 26  1  0  0  0  0
  3 27  1  0  0  0  0
  3 28  1  0  0  0  0
  4 20  1  0  0  0  0
  4  5  2  0  0  0  0
  5  6  1  0  0  0  0
  5 29  1  0  0  0  0
  6  7  2  0  0  0  0
  6 30  1  0  0  0  0
  7  8  1  0  0  0  0
  7 19  1  0  0  0  0
  8  9  1  0  0  0  0
  8 31  1  0  0  0  0
  9 10  2  0  0  0  0
  9 11  1  0  0  0  0
 11 12  1  0  0  0  0
 11 32  1  0  0  0  0
 12 21  1  0  0  0  0
 12 18  1  0  0  0  0
 12 13  1  0  0  0  0
 13 14  2  0  0  0  0
 13 33  1  0  0  0  0
 14 15  1  0  0  0  0
 14 34  1  0  0  0  0
 15 22  1  0  0  0  0
 15 16  1  0  0  0  0
 15 18  1  0  0  0  0
 16 17  1  0  0  0  0
 16 35  1  0  0  0  0
 16 36  1  0  0  0  0
 17 37  1  0  0  0  0
 18 38  1  0  0  0  0
 18 39  1  0  0  0  0
 19 20  2  0  0  0  0
 19 40  1  0  0  0  0
M  END
> <s_m_source_file>
AV-unprocessed.smi

> <i_m_source_file_index>
876

> <i_lp_mmshare_version>
43012

> <i_f3d_flags>
0

> <s_epik_input>
W0NIM11OKFtDSDNdKWMxW2NIXVtjSF1jKFtjSF1uMSlbTkhdQyg9TylbTkhdW0NAQEhdMltDSF09W0NIXVtDQEBIXShbQ0gyXTIpW0NIMl1bT0hd

> <s_epik_cmdline>
J2VwaWtfcHl0aG9uJywgJy1waCcsICc3LjAnLCAnLXRuJywgJzgnLCAnLW1hJywgJzIwMCcsICctbWV0YWxfYmluZGluZycsICctaW1hZScsICc8aW5maWxlLm1hZT4nLCAnLW9tYWUnLCAnPG91dGZpbGUubWFlPic=

> <r_lp_tautomer_probability>
1

> <r_epik_Ionization_Penalty>
0.617998

> <r_epik_Ionization_Penalty_Charging>
0

> <r_epik_Ionization_Penalty_Neutral>
0.617998

> <r_epik_State_Penalty>
0.632637

> <r_epik_Charging_Adjusted_Penalty>
0.632637

> <i_epik_Tot_Q>
0

> <i_epik_Tot_abs_Q>
0

> <r_epik_Metal_State_Penalty>
0.305596

> <b_epik_Metal_Only>
0

> <s_lp_Force_Field>
OPLS_2005

> <r_lp_Energy>
21.5566

> <b_lp_Chiralities_Consistent>
1

> <s_lp_Variant>
AV-unprocessed.smi:876-8

> <Gold.Version>
5.8.1

> <Gold.Id.Protein>
6NUR|6NUR_protein|mol2

> <Gold.PLP.Fitness>
39.9765

> <Gold.PLP.PLP>
-27.3344

> <Gold.PLP.part.hbond>
-3.9340

> <Gold.PLP.part.metal>
0.0000

> <Gold.PLP.part.buried>
-2.0544

> <Gold.PLP.part.nonpolar>
-20.7617

> <Gold.PLP.part.repulsive>
0.1389

> <Gold.PLP.ligand.clash>
0.0000

> <Gold.PLP.ligand.torsion>
1.1300

> <Gold.PLP.Chemscore.Hbond>
3.9600

> <Gold.PLP.Chemscore.CHOScore>
1.0000

> <Gold.PLP.Chemscore.Metal>
0.0000

> <Gold.Chemscore.Hbonds>
donor molecule, donor type, donor heavy atom, donor atom, acceptor molecule, acceptor atom, score
      L1  H     8    31       P1  7948  1.00
      L1  H    11    32       P1  7948  0.96
      L1  H    17    37       P1 10747  1.00
      P1  H  7989  7998       L1    20  1.00
      L1  C    19    40       P1  7957  1.00

> <Gold.PLP.Chemscore.Internal.Correction>
0.0221

> <Gold.Rescore>
     Score         DG    S(hbond)    S(metal)    S(lipo)     H(rot)  DE(clash)    DE(int)     intcor
     17.42     -18.91       3.24        0.00      61.63       1.80       0.36       1.14       ----

> <Gold.Chemscore.Fitness>
17.4165

> <Gold.Chemscore.DG>
-18.9099

> <Gold.Chemscore.ZeroCoef>
-5.4800

> <Gold.Chemscore.Hbond>
3.2401

> <Gold.Chemscore.Metal>
0.0000

> <Gold.Chemscore.Lipo>
61.6326

> <Gold.Chemscore.Internal_Hbond>
0.0000

> <Gold.Chemscore.DEClash>
0.3556

> <Gold.Chemscore.DEInternal>
1.1378

> <Gold.Chemscore.Rot>
1.7980

> <Gold.Chemscore.Internal.Correction>
   9.000000E+99

> <Gold.Chemscore.Hbonds>
donor molecule, donor type, donor heavy atom, donor atom, acceptor molecule, acceptor atom, score
      L1  H     8    31       P1  7948  0.93
      L1  H    11    32       P1  7948  0.92
      L1  H    17    37       P1 10747  1.00
      P1  H  7989  7998       L1    20  0.24

> <Gold.Chemscore.Hbond.Weighted>
-10.8218

> <Gold.Chemscore.Metal.Weighted>
-0.0000

> <Gold.Chemscore.Lipo.Weighted>
-7.2110

> <Gold.Chemscore.Internal_Hbond.Weighted>
0.0000

> <Gold.Chemscore.DEClash.Weighted>
0.3556

> <Gold.Chemscore.DEInternal.Weighted>
1.1378

> <Gold.Chemscore.Rot.Weighted>
4.6029

> <Gold.Chemscore.Internal.Correction.Weighted>
   9.000000E+99

> <Gold.Protein.RotatedTorsions>
[ 6907 6896 6895 6894 ] final  165.35 input  -60.11 | X-H torsion
[ 7974 7965 7964 7962 ] final  149.51 input  175.53 | X-H torsion
[ 8008 7997 7996 7995 ] final  119.15 input   59.86 | X-H torsion
[ 10167 10162 10161 10158 ] final  147.83 input  -65.29 | X-H torsion
[ 10718 10713 10712 10709 ] final   90.80 input   66.30 | X-H torsion
[ 10763 10752 10751 10750 ] final    1.64 input  -60.55 | X-H torsion
[ 11005 11000 10999 10996 ] final  151.29 input  -57.11 | X-H torsion

> <Gold.Protein.ActiveResidues>
 VAL166  LYS551  ARG553  GLY616  TRP617  ASP618  TYR619  PRO620  LYS621  CYS622 
 ASP623  PHE694  ASN695  SER759  ASP760  ASP761  ALA762  ILE779  LEU786  VAL792 
 PHE793  MET794  SER795  GLU796  ALA797  LYS798  CYS799  TRP800  GLU811  SER814 

> <Gold.Protein.RotatedAtoms>
  151.8958  133.3526  159.3813 H   0  0  0  0  0  0  0  0  0  0  0  0  # atno 6907 bound_to 6896
  150.7092  134.4878  159.5510 H   0  0  0  0  0  0  0  0  0  0  0  0  # atno 6908 bound_to 6896
  152.2457  134.8184  160.0504 H   0  0  0  0  0  0  0  0  0  0  0  0  # atno 6909 bound_to 6896
  144.8432  139.6290  143.6007 H   0  0  0  0  0  0  0  0  0  0  0  0  # atno 7974 bound_to 7965
  156.2582  140.2859  156.0947 H   0  0  0  0  0  0  0  0  0  0  0  0  # atno 8008 bound_to 7997
  155.1425  140.0396  157.2819 H   0  0  0  0  0  0  0  0  0  0  0  0  # atno 8009 bound_to 7997
  154.6519  140.2546  155.7210 H   0  0  0  0  0  0  0  0  0  0  0  0  # atno 8010 bound_to 7997
  139.4884  144.5726  151.7026 H   0  0  0  0  0  0  0  0  0  0  0  0  # atno 10167 bound_to 10162
  157.6959  131.0384  150.3632 H   0  0  0  0  0  0  0  0  0  0  0  0  # atno 10718 bound_to 10713
  153.3055  135.6959  153.7164 H   0  0  0  0  0  0  0  0  0  0  0  0  # atno 10763 bound_to 10752
  153.6061  135.3453  155.2963 H   0  0  0  0  0  0  0  0  0  0  0  0  # atno 10764 bound_to 10752
  154.8562  135.4352  154.2178 H   0  0  0  0  0  0  0  0  0  0  0  0  # atno 10765 bound_to 10752
  140.1206  134.8866  157.2066 H   0  0  0  0  0  0  0  0  0  0  0  0  # atno 11005 bound_to 11000
  146.2721  139.6662  142.9288 LP  0  0  0  0  0  0  0  0  0  0  0  0  # atno 17320 bound_to 7965
  145.4650  141.0434  143.2730 LP  0  0  0  0  0  0  0  0  0  0  0  0  # atno 17321 bound_to 7965
  140.5316  144.0721  150.6055 LP  0  0  0  0  0  0  0  0  0  0  0  0  # atno 17342 bound_to 10162
  140.3713  143.2853  152.0274 LP  0  0  0  0  0  0  0  0  0  0  0  0  # atno 17343 bound_to 10162
  156.4066  130.3926  149.6921 LP  0  0  0  0  0  0  0  0  0  0  0  0  # atno 17370 bound_to 10713
  156.4220  130.7773  151.2791 LP  0  0  0  0  0  0  0  0  0  0  0  0  # atno 17371 bound_to 10713
  140.2971  134.3174  155.7299 LP  0  0  0  0  0  0  0  0  0  0  0  0  # atno 17394 bound_to 11000
  141.2151  133.7569  156.9587 LP  0  0  0  0  0  0  0  0  0  0  0  0  # atno 17395 bound_to 11000

$$$$
