AV-unprocessed.smi:1962|AV-procd|sdf|7923|dock6
  -GOLD-   2272010 93D 1   1.00000     0.00000
 Structure written by MMmdl.
 36 37  0  0  0  0  0  0  0  0  1 V2000
  154.5156  140.6649  160.7641 C   0  0  0  0  0  0  0  0  0  0  0  0
  153.3049  141.4905  160.3088 C   0  0  1  0  0  0  0  0  0  0  0  0
  153.6935  142.9600  160.0433 C   0  0  0  0  0  0  0  0  0  0  0  0
  152.5471  143.7914  159.7198 N   0  0  0  0  0  0  0  0  0  0  0  0
  152.3432  144.5698  158.6001 C   0  0  0  0  0  0  0  0  0  0  0  0
  151.1303  145.1801  158.7449 C   0  0  0  0  0  0  0  0  0  0  0  0
  150.6605  144.7043  160.0010 C   0  0  0  0  0  0  0  0  0  0  0  0
  151.5091  143.8709  160.5809 N   0  0  0  0  0  0  0  0  0  0  0  0
  152.7374  140.8795  159.1079 N   0  0  0  0  0  0  0  0  0  0  0  0
  151.5217  141.1379  158.5899 C   0  0  0  0  0  0  0  0  0  0  0  0
  150.7229  141.9195  159.1068 O   0  0  0  0  0  0  0  0  0  0  0  0
  151.1903  140.4274  157.3262 C   0  0  0  0  0  0  0  0  0  0  0  0
  152.1392  139.9746  156.5678 N   0  0  0  0  0  0  0  0  0  0  0  0
  151.8790  139.3013  155.3917 N   0  0  0  0  0  0  0  0  0  0  0  0
  153.0356  138.6332  154.7985 C   0  0  0  0  0  0  0  0  0  0  0  0
  150.6712  139.2634  154.7756 C   0  0  0  0  0  0  0  0  0  0  0  0
  150.4543  138.6471  153.7323 O   0  0  0  0  0  0  0  0  0  0  0  0
  149.5464  140.0721  155.4281 C   0  0  0  0  0  0  0  0  0  0  0  0
  149.7369  140.2148  156.9512 C   0  0  0  0  0  0  0  0  0  0  0  0
  154.9479  141.0747  161.6774 H   0  0  0  0  0  0  0  0  0  0  0  0
  155.2967  140.6511  160.0033 H   0  0  0  0  0  0  0  0  0  0  0  0
  154.2320  139.6322  160.9700 H   0  0  0  0  0  0  0  0  0  0  0  0
  152.5752  141.4646  161.1201 H   0  0  0  0  0  0  0  0  0  0  0  0
  154.1713  143.3851  160.9268 H   0  0  0  0  0  0  0  0  0  0  0  0
  154.4242  143.0239  159.2350 H   0  0  0  0  0  0  0  0  0  0  0  0
  153.0730  144.6283  157.8061 H   0  0  0  0  0  0  0  0  0  0  0  0
  150.6523  145.8636  158.0592 H   0  0  0  0  0  0  0  0  0  0  0  0
  149.7343  144.9373  160.5051 H   0  0  0  0  0  0  0  0  0  0  0  0
  153.3255  140.2248  158.6123 H   0  0  0  0  0  0  0  0  0  0  0  0
  153.2593  139.0536  153.8168 H   0  0  0  0  0  0  0  0  0  0  0  0
  152.8432  137.5661  154.6772 H   0  0  0  0  0  0  0  0  0  0  0  0
  153.9305  138.7384  155.4142 H   0  0  0  0  0  0  0  0  0  0  0  0
  149.5427  141.0595  154.9649 H   0  0  0  0  0  0  0  0  0  0  0  0
  148.5802  139.6176  155.2075 H   0  0  0  0  0  0  0  0  0  0  0  0
  149.3614  139.3253  157.4581 H   0  0  0  0  0  0  0  0  0  0  0  0
  149.1236  141.0477  157.2975 H   0  0  0  0  0  0  0  0  0  0  0  0
  1  2  1  0  0  0  0
  1 20  1  0  0  0  0
  1 21  1  0  0  0  0
  1 22  1  0  0  0  0
  2  3  1  0  0  0  0
  2  9  1  0  0  0  0
  2 23  1  0  0  0  0
  3  4  1  0  0  0  0
  3 24  1  0  0  0  0
  3 25  1  0  0  0  0
  4  8  1  0  0  0  0
  4  5  1  0  0  0  0
  5  6  2  0  0  0  0
  5 26  1  0  0  0  0
  6  7  1  0  0  0  0
  6 27  1  0  0  0  0
  7  8  2  0  0  0  0
  7 28  1  0  0  0  0
  9 10  1  0  0  0  0
  9 29  1  0  0  0  0
 10 11  2  0  0  0  0
 10 12  1  0  0  0  0
 12 19  1  0  0  0  0
 12 13  2  0  0  0  0
 13 14  1  0  0  0  0
 14 15  1  0  0  0  0
 14 16  1  0  0  0  0
 15 30  1  0  0  0  0
 15 31  1  0  0  0  0
 15 32  1  0  0  0  0
 16 17  2  0  0  0  0
 16 18  1  0  0  0  0
 18 19  1  0  0  0  0
 18 33  1  0  0  0  0
 18 34  1  0  0  0  0
 19 35  1  0  0  0  0
 19 36  1  0  0  0  0
M  END
> <s_m_source_file>
AV-unprocessed.smi

> <i_m_source_file_index>
1962

> <i_lp_mmshare_version>
43012

> <i_f3d_flags>
0

> <s_epik_input>
bjFbY0hdW2NIXVtjSF1uMVtDSDJdW0NAQEhdKFtDSDNdKVtOSF1DKD1PKUMyPU5OKFtDSDNdKUMoPU8pW0NIMl1bQ0gyXTI=

> <s_epik_cmdline>
J2VwaWtfcHl0aG9uJywgJy1waCcsICc3LjAnLCAnLXRuJywgJzgnLCAnLW1hJywgJzIwMCcsICctbWV0YWxfYmluZGluZycsICctaW1hZScsICc8aW5maWxlLm1hZT4nLCAnLW9tYWUnLCAnPG91dGZpbGUubWFlPic=

> <r_lp_tautomer_probability>
1

> <r_epik_Ionization_Penalty>
9.43868e-05

> <r_epik_Ionization_Penalty_Charging>
0

> <r_epik_Ionization_Penalty_Neutral>
9.43868e-05

> <r_epik_State_Penalty>
-0

> <r_epik_Charging_Adjusted_Penalty>
0

> <i_epik_Tot_Q>
0

> <i_epik_Tot_abs_Q>
0

> <r_epik_Metal_State_Penalty>
0.0732556

> <b_epik_Metal_Only>
0

> <s_epik_Chemistry_Notes>
This compound has an imine and may undergo hydrolysis.

> <s_lp_Force_Field>
OPLS_2005

> <r_lp_Energy>
16.0721

> <b_lp_Chiralities_Consistent>
1

> <s_lp_Variant>
AV-unprocessed.smi:1962-2

> <Gold.Version>
5.8.1

> <Gold.Id.Protein>
6NUR|6NUR_protein|mol2

> <Gold.PLP.Fitness>
42.0397

> <Gold.PLP.PLP>
-41.1957

> <Gold.PLP.part.hbond>
-1.3399

> <Gold.PLP.part.metal>
0.0000

> <Gold.PLP.part.buried>
-5.7159

> <Gold.PLP.part.nonpolar>
-34.4300

> <Gold.PLP.part.repulsive>
1.1885

> <Gold.PLP.ligand.clash>
0.0000

> <Gold.PLP.ligand.torsion>
0.4171

> <Gold.PLP.Chemscore.Hbond>
0.5525

> <Gold.PLP.Chemscore.CHOScore>
0.0000

> <Gold.PLP.Chemscore.Metal>
0.0000

> <Gold.Chemscore.Hbonds>
donor molecule, donor type, donor heavy atom, donor atom, acceptor molecule, acceptor atom, score
      P1  H  7997  8010       L1    13  0.55

> <Gold.PLP.Chemscore.Internal.Correction>
0.0208

> <Gold.Rescore>
     Score         DG    S(hbond)    S(metal)    S(lipo)     H(rot)  DE(clash)    DE(int)     intcor
     11.58     -14.92       0.78        0.00      91.75       1.53       0.25       3.09       ----

> <Gold.Chemscore.Fitness>
11.5839

> <Gold.Chemscore.DG>
-14.9194

> <Gold.Chemscore.ZeroCoef>
-5.4800

> <Gold.Chemscore.Hbond>
0.7814

> <Gold.Chemscore.Metal>
0.0000

> <Gold.Chemscore.Lipo>
91.7492

> <Gold.Chemscore.Internal_Hbond>
0.0000

> <Gold.Chemscore.DEClash>
0.2460

> <Gold.Chemscore.DEInternal>
3.0895

> <Gold.Chemscore.Rot>
1.5254

> <Gold.Chemscore.Internal.Correction>
   9.000000E+99

> <Gold.Chemscore.Hbonds>
donor molecule, donor type, donor heavy atom, donor atom, acceptor molecule, acceptor atom, score
      P1  H  7997  8010       L1    13  0.17

> <Gold.Chemscore.Hbond.Weighted>
-2.6098

> <Gold.Chemscore.Metal.Weighted>
-0.0000

> <Gold.Chemscore.Lipo.Weighted>
-10.7347

> <Gold.Chemscore.Internal_Hbond.Weighted>
0.0000

> <Gold.Chemscore.DEClash.Weighted>
0.2460

> <Gold.Chemscore.DEInternal.Weighted>
3.0895

> <Gold.Chemscore.Rot.Weighted>
3.9051

> <Gold.Chemscore.Internal.Correction.Weighted>
   9.000000E+99

> <Gold.Protein.RotatedTorsions>
[ 6907 6896 6895 6894 ] final -133.15 input  -60.11 | X-H torsion
[ 7974 7965 7964 7962 ] final   20.00 input  175.53 | X-H torsion
[ 8008 7997 7996 7995 ] final   68.60 input   59.86 | X-H torsion
[ 10167 10162 10161 10158 ] final  139.67 input  -65.29 | X-H torsion
[ 10718 10713 10712 10709 ] final  -23.57 input   66.30 | X-H torsion
[ 10763 10752 10751 10750 ] final   84.11 input  -60.55 | X-H torsion
[ 11005 11000 10999 10996 ] final  -44.42 input  -57.11 | X-H torsion

> <Gold.Protein.ActiveResidues>
 VAL166  LYS551  ARG553  GLY616  TRP617  ASP618  TYR619  PRO620  LYS621  CYS622 
 ASP623  PHE694  ASN695  SER759  ASP760  ASP761  ALA762  ILE779  LEU786  VAL792 
 PHE793  MET794  SER795  GLU796  ALA797  LYS798  CYS799  TRP800  GLU811  SER814 

> <Gold.Protein.RotatedAtoms>
  150.9707  133.6347  159.2738 H   0  0  0  0  0  0  0  0  0  0  0  0  # atno 6907 bound_to 6896
  151.3637  135.0908  159.9452 H   0  0  0  0  0  0  0  0  0  0  0  0  # atno 6908 bound_to 6896
  152.5181  133.9275  159.7619 H   0  0  0  0  0  0  0  0  0  0  0  0  # atno 6909 bound_to 6896
  146.2128  139.8232  142.8675 H   0  0  0  0  0  0  0  0  0  0  0  0  # atno 7974 bound_to 7965
  155.7107  140.3494  155.4973 H   0  0  0  0  0  0  0  0  0  0  0  0  # atno 8008 bound_to 7997
  155.9358  140.1092  157.1117 H   0  0  0  0  0  0  0  0  0  0  0  0  # atno 8009 bound_to 7997
  154.4093  140.1222  156.4849 H   0  0  0  0  0  0  0  0  0  0  0  0  # atno 8010 bound_to 7997
  139.5071  144.6280  151.5888 H   0  0  0  0  0  0  0  0  0  0  0  0  # atno 10167 bound_to 10162
  156.4893  130.4562  149.6765 H   0  0  0  0  0  0  0  0  0  0  0  0  # atno 10718 bound_to 10713
  153.1352  135.4666  154.9411 H   0  0  0  0  0  0  0  0  0  0  0  0  # atno 10763 bound_to 10752
  154.7699  135.3156  154.8212 H   0  0  0  0  0  0  0  0  0  0  0  0  # atno 10764 bound_to 10752
  153.8746  135.6900  153.4825 H   0  0  0  0  0  0  0  0  0  0  0  0  # atno 10765 bound_to 10752
  141.0449  133.6765  156.2870 H   0  0  0  0  0  0  0  0  0  0  0  0  # atno 11005 bound_to 11000
  145.3074  141.0211  143.3574 LP  0  0  0  0  0  0  0  0  0  0  0  0  # atno 17320 bound_to 7965
  144.8961  139.4711  143.6655 LP  0  0  0  0  0  0  0  0  0  0  0  0  # atno 17321 bound_to 7965
  140.6004  143.9621  150.6382 LP  0  0  0  0  0  0  0  0  0  0  0  0  # atno 17342 bound_to 10162
  140.2830  143.3376  152.1133 LP  0  0  0  0  0  0  0  0  0  0  0  0  # atno 17343 bound_to 10162
  156.3443  130.7398  151.2348 LP  0  0  0  0  0  0  0  0  0  0  0  0  # atno 17370 bound_to 10713
  157.7475  131.0395  150.4552 LP  0  0  0  0  0  0  0  0  0  0  0  0  # atno 17371 bound_to 10713
  140.6165  134.5405  157.5541 LP  0  0  0  0  0  0  0  0  0  0  0  0  # atno 17394 bound_to 11000
  139.9304  134.7974  156.0947 LP  0  0  0  0  0  0  0  0  0  0  0  0  # atno 17395 bound_to 11000

$$$$
