AV-unprocessed.smi:790|AV-procd|sdf|3743|dock2
  -GOLD-   22720 1173D 1   1.00000     0.00000
 Structure written by MMmdl.
 38 40  0  0  0  0  0  0  0  0  1 V2000
  151.1050  140.8348  156.3978 O   0  0  0  0  0  0  0  0  0  0  0  0
  150.4109  141.8435  156.2779 C   0  0  0  0  0  0  0  0  0  0  0  0
  150.4533  142.9202  157.0814 N   0  0  0  0  0  0  0  0  0  0  0  0
  151.2515  143.1387  158.2373 C   0  0  0  0  0  0  0  0  0  0  0  0
  152.1620  142.1277  158.6080 C   0  0  0  0  0  0  0  0  0  0  0  0
  152.9794  142.3187  159.7381 C   0  0  0  0  0  0  0  0  0  0  0  0
  152.8593  143.5248  160.4545 C   0  0  0  0  0  0  0  0  0  0  0  0
  152.0036  144.5088  160.1072 N   0  0  0  0  0  0  0  0  0  0  0  0
  151.2218  144.3187  159.0222 C   0  0  0  0  0  0  0  0  0  0  0  0
  149.5179  142.0130  155.2929 N   0  0  0  0  0  0  0  0  0  0  0  0
  149.2045  141.0314  154.2525 C   0  0  1  0  0  0  0  0  0  0  0  0
  149.2512  139.5769  154.7836 C   0  0  1  0  0  0  0  0  0  0  0  0
  148.4103  139.4184  156.0685 C   0  0  0  0  0  0  0  0  0  0  0  0
  146.9696  139.5576  155.5454 C   0  0  0  0  0  0  0  0  0  0  0  0
  147.1694  139.7414  154.0262 C   0  0  2  0  0  0  0  0  0  0  0  0
  148.3742  138.8423  153.7749 C   0  0  0  0  0  0  0  0  0  0  0  0
  147.7598  141.1307  153.6806 C   0  0  1  0  0  0  0  0  0  0  0  0
  146.9072  142.3506  154.0974 C   0  0  0  0  0  0  0  0  0  0  0  0
  146.9971  142.5590  155.4910 O   0  0  0  0  0  0  0  0  0  0  0  0
  149.8716  143.6985  156.8074 H   0  0  0  0  0  0  0  0  0  0  0  0
  152.2335  141.2137  158.0366 H   0  0  0  0  0  0  0  0  0  0  0  0
  153.6820  141.5595  160.0483 H   0  0  0  0  0  0  0  0  0  0  0  0
  153.4698  143.7056  161.3268 H   0  0  0  0  0  0  0  0  0  0  0  0
  150.5793  145.1513  158.7839 H   0  0  0  0  0  0  0  0  0  0  0  0
  149.0012  142.8797  155.2649 H   0  0  0  0  0  0  0  0  0  0  0  0
  149.9207  141.1239  153.4335 H   0  0  0  0  0  0  0  0  0  0  0  0
  150.2633  139.1825  154.8786 H   0  0  0  0  0  0  0  0  0  0  0  0
  148.5593  138.4273  156.4992 H   0  0  0  0  0  0  0  0  0  0  0  0
  148.6486  140.1447  156.8453 H   0  0  0  0  0  0  0  0  0  0  0  0
  146.4060  138.6460  155.7481 H   0  0  0  0  0  0  0  0  0  0  0  0
  146.4296  140.3799  156.0127 H   0  0  0  0  0  0  0  0  0  0  0  0
  146.2871  139.4865  153.4381 H   0  0  0  0  0  0  0  0  0  0  0  0
  148.7521  138.8959  152.7522 H   0  0  0  0  0  0  0  0  0  0  0  0
  148.1972  137.7966  154.0331 H   0  0  0  0  0  0  0  0  0  0  0  0
  147.8519  141.1787  152.5937 H   0  0  0  0  0  0  0  0  0  0  0  0
  147.2049  143.2604  153.5775 H   0  0  0  0  0  0  0  0  0  0  0  0
  145.8596  142.1753  153.8523 H   0  0  0  0  0  0  0  0  0  0  0  0
  147.6613  143.2109  155.6553 H   0  0  0  0  0  0  0  0  0  0  0  0
  1  2  2  0  0  0  0
  2  3  1  0  0  0  0
  2 10  1  0  0  0  0
  3  4  1  0  0  0  0
  3 20  1  0  0  0  0
  4  9  1  0  0  0  0
  4  5  2  0  0  0  0
  5  6  1  0  0  0  0
  5 21  1  0  0  0  0
  6  7  2  0  0  0  0
  6 22  1  0  0  0  0
  7  8  1  0  0  0  0
  7 23  1  0  0  0  0
  8  9  2  0  0  0  0
  9 24  1  0  0  0  0
 10 11  1  0  0  0  0
 10 25  1  0  0  0  0
 11 17  1  0  0  0  0
 11 12  1  0  0  0  0
 11 26  1  0  0  0  0
 12 16  1  0  0  0  0
 12 13  1  0  0  0  0
 12 27  1  0  0  0  0
 13 14  1  0  0  0  0
 13 28  1  0  0  0  0
 13 29  1  0  0  0  0
 14 15  1  0  0  0  0
 14 30  1  0  0  0  0
 14 31  1  0  0  0  0
 15 16  1  0  0  0  0
 15 17  1  0  0  0  0
 15 32  1  0  0  0  0
 16 33  1  0  0  0  0
 16 34  1  0  0  0  0
 17 18  1  0  0  0  0
 17 35  1  0  0  0  0
 18 19  1  0  0  0  0
 18 36  1  0  0  0  0
 18 37  1  0  0  0  0
 19 38  1  0  0  0  0
M  END
> <s_m_source_file>
AV-unprocessed.smi

> <i_m_source_file_index>
790

> <i_lp_mmshare_version>
43012

> <i_f3d_flags>
0

> <s_epik_input>
W0NIMl0xW0NIMl1bQ0BASF0oW0NIMl0yKVtDQEBIXShbQ0gyXVtPSF0pW0NAQEhdKFtDQEhdMTIpW05IXUMoPU8pW05IXWMzW2NIXVtjSF1bY0hdbltjSF0z

> <s_epik_cmdline>
J2VwaWtfcHl0aG9uJywgJy1waCcsICc3LjAnLCAnLXRuJywgJzgnLCAnLW1hJywgJzIwMCcsICctbWV0YWxfYmluZGluZycsICctaW1hZScsICc8aW5maWxlLm1hZT4nLCAnLW9tYWUnLCAnPG91dGZpbGUubWFlPic=

> <r_epik_Ionization_Penalty>
0.00497582

> <r_epik_Ionization_Penalty_Charging>
0

> <r_epik_Ionization_Penalty_Neutral>
0.00497582

> <r_epik_State_Penalty>
0.00358602

> <r_epik_Charging_Adjusted_Penalty>
0.00358602

> <i_epik_Tot_Q>
0

> <i_epik_Tot_abs_Q>
0

> <r_epik_Metal_State_Penalty>
-0

> <b_epik_Metal_Only>
0

> <s_lp_Force_Field>
OPLS_2005

> <r_lp_Energy>
55.7442

> <b_lp_Chiralities_Consistent>
1

> <s_lp_Variant>
AV-unprocessed.smi:790-4

> <Gold.Version>
5.8.1

> <Gold.Id.Protein>
6NUR|6NUR_protein|mol2

> <Gold.PLP.Fitness>
44.2675

> <Gold.PLP.PLP>
-36.1675

> <Gold.PLP.part.hbond>
-3.0000

> <Gold.PLP.part.metal>
0.0000

> <Gold.PLP.part.buried>
-5.0105

> <Gold.PLP.part.nonpolar>
-29.0961

> <Gold.PLP.part.repulsive>
0.2859

> <Gold.PLP.ligand.clash>
0.0000

> <Gold.PLP.ligand.torsion>
0.4569

> <Gold.PLP.Chemscore.Hbond>
3.0000

> <Gold.PLP.Chemscore.CHOScore>
0.0000

> <Gold.PLP.Chemscore.Metal>
0.0000

> <Gold.Chemscore.Hbonds>
donor molecule, donor type, donor heavy atom, donor atom, acceptor molecule, acceptor atom, score
      L1  H     3    20       P1  8028  1.00
      L1  H    10    25       P1  8028  1.00
      L1  H    19    38       P1  8028  0.95

> <Gold.PLP.Chemscore.Internal.Correction>
0.0139

> <Gold.Rescore>
     Score         DG    S(hbond)    S(metal)    S(lipo)     H(rot)  DE(clash)    DE(int)     intcor
     15.61     -21.28       2.64        0.00      98.72       1.78       0.56       5.12       ----

> <Gold.Chemscore.Fitness>
15.6057

> <Gold.Chemscore.DG>
-21.2827

> <Gold.Chemscore.ZeroCoef>
-5.4800

> <Gold.Chemscore.Hbond>
2.6361

> <Gold.Chemscore.Metal>
0.0000

> <Gold.Chemscore.Lipo>
98.7242

> <Gold.Chemscore.Internal_Hbond>
0.0000

> <Gold.Chemscore.DEClash>
0.5607

> <Gold.Chemscore.DEInternal>
5.1162

> <Gold.Chemscore.Rot>
1.7783

> <Gold.Chemscore.Internal.Correction>
   9.000000E+99

> <Gold.Chemscore.Hbonds>
donor molecule, donor type, donor heavy atom, donor atom, acceptor molecule, acceptor atom, score
      L1  H     3    20       P1  8028  0.98
      L1  H    10    25       P1  8028  0.95
      L1  H    19    38       P1  8028  0.21

> <Gold.Chemscore.Hbond.Weighted>
-8.8045

> <Gold.Chemscore.Metal.Weighted>
-0.0000

> <Gold.Chemscore.Lipo.Weighted>
-11.5507

> <Gold.Chemscore.Internal_Hbond.Weighted>
0.0000

> <Gold.Chemscore.DEClash.Weighted>
0.5607

> <Gold.Chemscore.DEInternal.Weighted>
5.1162

> <Gold.Chemscore.Rot.Weighted>
4.5525

> <Gold.Chemscore.Internal.Correction.Weighted>
   9.000000E+99

> <Gold.Protein.RotatedTorsions>
[ 6907 6896 6895 6894 ] final  149.12 input  -60.11 | X-H torsion
[ 7974 7965 7964 7962 ] final   38.22 input  175.53 | X-H torsion
[ 8008 7997 7996 7995 ] final   85.94 input   59.86 | X-H torsion
[ 10167 10162 10161 10158 ] final  -72.55 input  -65.29 | X-H torsion
[ 10718 10713 10712 10709 ] final  -41.15 input   66.30 | X-H torsion
[ 10763 10752 10751 10750 ] final   87.62 input  -60.55 | X-H torsion
[ 11005 11000 10999 10996 ] final  -12.53 input  -57.11 | X-H torsion

> <Gold.Protein.ActiveResidues>
 VAL166  LYS551  ARG553  GLY616  TRP617  ASP618  TYR619  PRO620  LYS621  CYS622 
 ASP623  PHE694  ASN695  SER759  ASP760  ASP761  ALA762  ILE779  LEU786  VAL792 
 PHE793  MET794  SER795  GLU796  ALA797  LYS798  CYS799  TRP800  GLU811  SER814 

> <Gold.Protein.RotatedAtoms>
  152.1324  133.4415  159.4726 H   0  0  0  0  0  0  0  0  0  0  0  0  # atno 6907 bound_to 6896
  150.6879  134.2405  159.4479 H   0  0  0  0  0  0  0  0  0  0  0  0  # atno 6908 bound_to 6896
  152.0290  134.9778  160.0623 H   0  0  0  0  0  0  0  0  0  0  0  0  # atno 6909 bound_to 6896
  146.1078  139.5799  142.9372 H   0  0  0  0  0  0  0  0  0  0  0  0  # atno 7974 bound_to 7965
  155.9564  140.3397  155.6452 H   0  0  0  0  0  0  0  0  0  0  0  0  # atno 8008 bound_to 7997
  155.6854  140.0742  157.2487 H   0  0  0  0  0  0  0  0  0  0  0  0  # atno 8009 bound_to 7997
  154.4133  140.1667  156.2016 H   0  0  0  0  0  0  0  0  0  0  0  0  # atno 8010 bound_to 7997
  140.5183  143.2335  151.7474 H   0  0  0  0  0  0  0  0  0  0  0  0  # atno 10167 bound_to 10162
  156.2736  130.4209  149.8412 H   0  0  0  0  0  0  0  0  0  0  0  0  # atno 10718 bound_to 10713
  153.1687  135.4537  154.9872 H   0  0  0  0  0  0  0  0  0  0  0  0  # atno 10763 bound_to 10752
  154.7950  135.3234  154.7690 H   0  0  0  0  0  0  0  0  0  0  0  0  # atno 10764 bound_to 10752
  153.8169  135.6950  153.4887 H   0  0  0  0  0  0  0  0  0  0  0  0  # atno 10765 bound_to 10752
  140.7667  133.8471  155.9171 H   0  0  0  0  0  0  0  0  0  0  0  0  # atno 11005 bound_to 11000
  145.5724  141.0392  143.2166 LP  0  0  0  0  0  0  0  0  0  0  0  0  # atno 17320 bound_to 7965
  144.7486  139.7254  143.7282 LP  0  0  0  0  0  0  0  0  0  0  0  0  # atno 17321 bound_to 7965
  139.4916  144.4291  151.9892 LP  0  0  0  0  0  0  0  0  0  0  0  0  # atno 17342 bound_to 10162
  140.3387  144.3230  150.5972 LP  0  0  0  0  0  0  0  0  0  0  0  0  # atno 17343 bound_to 10162
  156.5885  130.8496  151.3402 LP  0  0  0  0  0  0  0  0  0  0  0  0  # atno 17370 bound_to 10713
  157.7292  130.9667  150.1775 LP  0  0  0  0  0  0  0  0  0  0  0  0  # atno 17371 bound_to 10713
  140.9612  134.1653  157.4652 LP  0  0  0  0  0  0  0  0  0  0  0  0  # atno 17394 bound_to 11000
  139.8762  134.9945  156.5698 LP  0  0  0  0  0  0  0  0  0  0  0  0  # atno 17395 bound_to 11000

$$$$
