AV-unprocessed.smi:2363|AV-procd|sdf|9416|dock8
  -GOLD-   2272013 53D 1   1.00000     0.00000
 Structure written by MMmdl.
 44 45  0  0  0  0  0  0  0  0  1 V2000
  152.6550  138.5681  156.1473 C   0  0  0  0  0  0  0  0  0  0  0  0
  152.3556  138.7502  154.6523 C   0  0  0  0  0  0  0  0  0  0  0  0
  150.9398  138.3116  154.2373 C   0  0  0  0  0  0  0  0  0  0  0  0
  149.9919  139.4143  154.2189 N   0  0  0  0  0  0  0  0  0  0  0  0
  150.3858  140.6401  154.6296 N   0  0  0  0  0  0  0  0  0  0  0  0
  149.3148  141.4107  154.4910 C   0  0  0  0  0  0  0  0  0  0  0  0
  148.1848  140.7094  153.9827 C   0  0  0  0  0  0  0  0  0  0  0  0
  148.6708  139.4404  153.8225 C   0  0  0  0  0  0  0  0  0  0  0  0
  148.0299  138.3345  153.3591 N   0  0  0  0  0  0  0  0  0  0  0  0
  146.7377  137.9921  153.4965 C   0  0  0  0  0  0  0  0  0  0  0  0
  145.8865  138.6494  154.0955 O   0  0  0  0  0  0  0  0  0  0  0  0
  146.4835  136.8220  152.8911 N   0  0  0  0  0  0  0  0  0  0  0  0
  145.1854  136.1485  152.8320 C   0  0  1  0  0  0  0  0  0  0  0  0
  144.1252  137.1969  152.4538 C   0  0  0  0  0  0  0  0  0  0  0  0
  145.2358  134.9449  151.8527 C   0  0  0  0  0  0  0  0  0  0  0  0
  143.8751  134.2292  151.7284 C   0  0  0  0  0  0  0  0  0  0  0  0
  143.9704  132.9948  150.8171 C   0  0  0  0  0  0  0  0  0  0  0  0
  144.9632  132.1020  151.3063 O   0  0  0  0  0  0  0  0  0  0  0  0
  146.2623  132.6794  151.3116 C   0  0  0  0  0  0  0  0  0  0  0  0
  146.2941  133.8939  152.2529 C   0  0  0  0  0  0  0  0  0  0  0  0
  153.6468  138.9487  156.3917 H   0  0  0  0  0  0  0  0  0  0  0  0
  152.6276  137.5175  156.4369 H   0  0  0  0  0  0  0  0  0  0  0  0
  151.9318  139.1055  156.7610 H   0  0  0  0  0  0  0  0  0  0  0  0
  152.4914  139.7992  154.3879 H   0  0  0  0  0  0  0  0  0  0  0  0
  153.0921  138.1948  154.0703 H   0  0  0  0  0  0  0  0  0  0  0  0
  150.9638  137.8488  153.2503 H   0  0  0  0  0  0  0  0  0  0  0  0
  150.5706  137.5484  154.9239 H   0  0  0  0  0  0  0  0  0  0  0  0
  149.3887  142.4531  154.7636 H   0  0  0  0  0  0  0  0  0  0  0  0
  147.1964  141.0920  153.7775 H   0  0  0  0  0  0  0  0  0  0  0  0
  148.6033  137.6989  152.8244 H   0  0  0  0  0  0  0  0  0  0  0  0
  147.2503  136.3569  152.4279 H   0  0  0  0  0  0  0  0  0  0  0  0
  144.9240  135.7682  153.8210 H   0  0  0  0  0  0  0  0  0  0  0  0
  143.1148  136.7967  152.5312 H   0  0  0  0  0  0  0  0  0  0  0  0
  144.2668  137.5570  151.4343 H   0  0  0  0  0  0  0  0  0  0  0  0
  144.1742  138.0592  153.1199 H   0  0  0  0  0  0  0  0  0  0  0  0
  145.5047  135.3243  150.8654 H   0  0  0  0  0  0  0  0  0  0  0  0
  143.5274  133.9224  152.7158 H   0  0  0  0  0  0  0  0  0  0  0  0
  143.1191  134.9025  151.3257 H   0  0  0  0  0  0  0  0  0  0  0  0
  143.0127  132.4746  150.7920 H   0  0  0  0  0  0  0  0  0  0  0  0
  144.2006  133.2849  149.7907 H   0  0  0  0  0  0  0  0  0  0  0  0
  146.9789  131.9287  151.6457 H   0  0  0  0  0  0  0  0  0  0  0  0
  146.5505  132.9648  150.2988 H   0  0  0  0  0  0  0  0  0  0  0  0
  147.2952  134.3249  152.2352 H   0  0  0  0  0  0  0  0  0  0  0  0
  146.1166  133.5630  153.2771 H   0  0  0  0  0  0  0  0  0  0  0  0
  1  2  1  0  0  0  0
  1 21  1  0  0  0  0
  1 22  1  0  0  0  0
  1 23  1  0  0  0  0
  2  3  1  0  0  0  0
  2 24  1  0  0  0  0
  2 25  1  0  0  0  0
  3  4  1  0  0  0  0
  3 26  1  0  0  0  0
  3 27  1  0  0  0  0
  4  8  1  0  0  0  0
  4  5  1  0  0  0  0
  5  6  2  0  0  0  0
  6  7  1  0  0  0  0
  6 28  1  0  0  0  0
  7  8  2  0  0  0  0
  7 29  1  0  0  0  0
  8  9  1  0  0  0  0
  9 10  1  0  0  0  0
  9 30  1  0  0  0  0
 10 11  2  0  0  0  0
 10 12  1  0  0  0  0
 12 13  1  0  0  0  0
 12 31  1  0  0  0  0
 13 14  1  0  0  0  0
 13 15  1  0  0  0  0
 13 32  1  0  0  0  0
 14 33  1  0  0  0  0
 14 34  1  0  0  0  0
 14 35  1  0  0  0  0
 15 20  1  0  0  0  0
 15 16  1  0  0  0  0
 15 36  1  0  0  0  0
 16 17  1  0  0  0  0
 16 37  1  0  0  0  0
 16 38  1  0  0  0  0
 17 18  1  0  0  0  0
 17 39  1  0  0  0  0
 17 40  1  0  0  0  0
 18 19  1  0  0  0  0
 19 20  1  0  0  0  0
 19 41  1  0  0  0  0
 19 42  1  0  0  0  0
 20 43  1  0  0  0  0
 20 44  1  0  0  0  0
M  END
> <s_m_source_file>
AV-unprocessed.smi

> <i_m_source_file_index>
2363

> <i_lp_mmshare_version>
43012

> <i_f3d_flags>
0

> <s_epik_input>
W0NIM11bQ0gyXVtDSDJdbjFuW2NIXVtjSF1jMVtOSF1DKD1PKVtOSF1bQ0BIXShbQ0gzXSlbQ0hdMltDSDJdW0NIMl1PW0NIMl1bQ0gyXTI=

> <s_epik_cmdline>
J2VwaWtfcHl0aG9uJywgJy1waCcsICc3LjAnLCAnLXRuJywgJzgnLCAnLW1hJywgJzIwMCcsICctbWV0YWxfYmluZGluZycsICctaW1hZScsICc8aW5maWxlLm1hZT4nLCAnLW9tYWUnLCAnPG91dGZpbGUubWFlPic=

> <r_lp_tautomer_probability>
1

> <r_epik_Ionization_Penalty>
3.26671e-05

> <r_epik_Ionization_Penalty_Charging>
0

> <r_epik_Ionization_Penalty_Neutral>
3.26671e-05

> <r_epik_State_Penalty>
-0

> <r_epik_Charging_Adjusted_Penalty>
0

> <i_epik_Tot_Q>
0

> <i_epik_Tot_abs_Q>
0

> <r_epik_Metal_State_Penalty>
-0

> <b_epik_Metal_Only>
0

> <s_lp_Force_Field>
OPLS_2005

> <r_lp_Energy>
15.2221

> <b_lp_Chiralities_Consistent>
1

> <s_lp_Variant>
AV-unprocessed.smi:2363-2

> <Gold.Version>
5.8.1

> <Gold.Id.Protein>
6NUR|6NUR_protein|mol2

> <Gold.PLP.Fitness>
47.1234

> <Gold.PLP.PLP>
-36.5945

> <Gold.PLP.part.hbond>
-3.1143

> <Gold.PLP.part.metal>
0.0000

> <Gold.PLP.part.buried>
-3.4611

> <Gold.PLP.part.nonpolar>
-30.1434

> <Gold.PLP.part.repulsive>
0.3518

> <Gold.PLP.ligand.clash>
0.0000

> <Gold.PLP.ligand.torsion>
0.6062

> <Gold.PLP.Chemscore.Hbond>
2.8928

> <Gold.PLP.Chemscore.CHOScore>
1.0000

> <Gold.PLP.Chemscore.Metal>
0.0000

> <Gold.Chemscore.Hbonds>
donor molecule, donor type, donor heavy atom, donor atom, acceptor molecule, acceptor atom, score
      L1  H     9    30       P1  7948  1.00
      L1  H    12    31       P1  7948  1.00
      P1  H  7989  7998       L1     5  0.81
      L1  C     6    28       P1  8028  1.00

> <Gold.PLP.Chemscore.Internal.Correction>
0.0628

> <Gold.Rescore>
     Score         DG    S(hbond)    S(metal)    S(lipo)     H(rot)  DE(clash)    DE(int)     intcor
     15.63     -17.76       2.21        0.00      75.11       1.52       0.12       2.02       ----

> <Gold.Chemscore.Fitness>
15.6284

> <Gold.Chemscore.DG>
-17.7636

> <Gold.Chemscore.ZeroCoef>
-5.4800

> <Gold.Chemscore.Hbond>
2.2100

> <Gold.Chemscore.Metal>
0.0000

> <Gold.Chemscore.Lipo>
75.1065

> <Gold.Chemscore.Internal_Hbond>
0.0000

> <Gold.Chemscore.DEClash>
0.1200

> <Gold.Chemscore.DEInternal>
2.0153

> <Gold.Chemscore.Rot>
1.5176

> <Gold.Chemscore.Internal.Correction>
   9.000000E+99

> <Gold.Chemscore.Hbonds>
donor molecule, donor type, donor heavy atom, donor atom, acceptor molecule, acceptor atom, score
      L1  H     9    30       P1  7948  0.99
      L1  H    12    31       P1  7948  0.98
      P1  H  7989  7998       L1     5  0.14

> <Gold.Chemscore.Hbond.Weighted>
-7.3813

> <Gold.Chemscore.Metal.Weighted>
-0.0000

> <Gold.Chemscore.Lipo.Weighted>
-8.7875

> <Gold.Chemscore.Internal_Hbond.Weighted>
0.0000

> <Gold.Chemscore.DEClash.Weighted>
0.1200

> <Gold.Chemscore.DEInternal.Weighted>
2.0153

> <Gold.Chemscore.Rot.Weighted>
3.8851

> <Gold.Chemscore.Internal.Correction.Weighted>
   9.000000E+99

> <Gold.Protein.RotatedTorsions>
[ 6907 6896 6895 6894 ] final  -38.88 input  -60.11 | X-H torsion
[ 7974 7965 7964 7962 ] final  103.45 input  175.53 | X-H torsion
[ 8008 7997 7996 7995 ] final -170.09 input   59.86 | X-H torsion
[ 10167 10162 10161 10158 ] final  -43.91 input  -65.29 | X-H torsion
[ 10718 10713 10712 10709 ] final   -4.66 input   66.30 | X-H torsion
[ 10763 10752 10751 10750 ] final -165.04 input  -60.55 | X-H torsion
[ 11005 11000 10999 10996 ] final  102.48 input  -57.11 | X-H torsion

> <Gold.Protein.ActiveResidues>
 VAL166  LYS551  ARG553  GLY616  TRP617  ASP618  TYR619  PRO620  LYS621  CYS622 
 ASP623  PHE694  ASN695  SER759  ASP760  ASP761  ALA762  ILE779  LEU786  VAL792 
 PHE793  MET794  SER795  GLU796  ALA797  LYS798  CYS799  TRP800  GLU811  SER814 

> <Gold.Protein.RotatedAtoms>
  150.9971  134.9292  159.7932 H   0  0  0  0  0  0  0  0  0  0  0  0  # atno 6907 bound_to 6896
  152.5267  134.3204  159.9156 H   0  0  0  0  0  0  0  0  0  0  0  0  # atno 6908 bound_to 6896
  151.3210  133.3999  159.2689 H   0  0  0  0  0  0  0  0  0  0  0  0  # atno 6909 bound_to 6896
  145.3457  139.2451  143.3585 H   0  0  0  0  0  0  0  0  0  0  0  0  # atno 7974 bound_to 7965
  155.9137  140.1062  157.1260 H   0  0  0  0  0  0  0  0  0  0  0  0  # atno 8008 bound_to 7997
  154.4043  140.1269  156.4655 H   0  0  0  0  0  0  0  0  0  0  0  0  # atno 8009 bound_to 7997
  155.7280  140.3469  155.5048 H   0  0  0  0  0  0  0  0  0  0  0  0  # atno 8010 bound_to 7997
  140.6916  143.2958  151.3420 H   0  0  0  0  0  0  0  0  0  0  0  0  # atno 10167 bound_to 10162
  156.7581  130.5261  149.5790 H   0  0  0  0  0  0  0  0  0  0  0  0  # atno 10718 bound_to 10713
  154.6970  135.2981  154.9397 H   0  0  0  0  0  0  0  0  0  0  0  0  # atno 10763 bound_to 10752
  154.0341  135.6666  153.4787 H   0  0  0  0  0  0  0  0  0  0  0  0  # atno 10764 bound_to 10752
  153.0653  135.5092  154.8093 H   0  0  0  0  0  0  0  0  0  0  0  0  # atno 10765 bound_to 10752
  139.8778  134.9225  156.5064 H   0  0  0  0  0  0  0  0  0  0  0  0  # atno 11005 bound_to 11000
  146.2989  140.4063  142.8711 LP  0  0  0  0  0  0  0  0  0  0  0  0  # atno 17320 bound_to 7965
  144.8756  140.7331  143.6019 LP  0  0  0  0  0  0  0  0  0  0  0  0  # atno 17321 bound_to 7965
  139.6326  144.0692  152.2489 LP  0  0  0  0  0  0  0  0  0  0  0  0  # atno 17342 bound_to 10162
  140.0172  144.6180  150.7597 LP  0  0  0  0  0  0  0  0  0  0  0  0  # atno 17343 bound_to 10162
  156.1357  130.6209  151.0397 LP  0  0  0  0  0  0  0  0  0  0  0  0  # atno 17370 bound_to 10713
  157.6747  131.0853  150.7525 LP  0  0  0  0  0  0  0  0  0  0  0  0  # atno 17371 bound_to 10713
  140.8552  133.8102  155.9209 LP  0  0  0  0  0  0  0  0  0  0  0  0  # atno 17394 bound_to 11000
  140.9105  134.2267  157.4989 LP  0  0  0  0  0  0  0  0  0  0  0  0  # atno 17395 bound_to 11000

$$$$
