AV-unprocessed.smi:2216|AV-procd|sdf|8967|dock2
  -GOLD-   2272012183D 1   1.00000     0.00000
 Structure written by MMmdl.
 40 41  0  0  0  0  0  0  0  0  2 V2000
  145.4355  130.9737  151.3622 C   0  0  0  0  0  0  0  0  0  0  0  0
  145.2148  132.4521  151.0906 C   0  0  0  0  0  0  0  0  0  0  0  0
  145.9503  133.4080  151.7116 C   0  0  0  0  0  0  0  0  0  0  0  0
  145.7492  134.8330  151.4496 C   0  0  0  0  0  0  0  0  0  0  0  0
  146.4490  135.9043  152.0199 N   0  0  0  0  0  0  0  0  0  0  0  0
  145.9629  136.9570  152.7009 C   0  0  0  0  0  0  0  0  0  0  0  0
  144.7742  137.1891  152.9196 O   0  0  0  0  0  0  0  0  0  0  0  0
  146.9561  137.7554  153.1172 N   0  0  0  0  0  0  0  0  0  0  0  0
  146.7792  138.9973  153.8608 C   0  0  0  0  0  0  0  0  0  0  0  0
  148.0125  139.9072  153.7324 C   0  0  0  0  0  0  0  0  0  0  0  0
  149.2108  139.4107  154.5563 C   0  0  1  0  0  0  0  0  0  0  0  0
  149.9543  138.2575  153.8545 C   0  0  0  0  0  0  0  0  0  0  0  0
  151.1874  137.8388  154.6630 C   0  0  0  0  0  0  0  0  0  0  0  0
  152.0594  139.0661  154.9482 C   0  0  0  0  0  0  0  0  0  0  0  0
  151.2177  140.1826  155.5862 C   0  0  0  0  0  0  0  0  0  0  0  0
  150.1129  140.4997  154.7449 O   0  0  0  0  0  0  0  0  0  0  0  0
  144.7582  135.0656  150.5175 C   0  0  0  0  0  0  0  0  0  0  0  0
  143.9849  134.1732  149.8622 N   0  5  0  0  0  0  0  0  0  0  0  0
  144.1747  132.8472  150.1193 C   0  0  0  0  0  0  0  0  0  0  0  0
  143.5045  131.9775  149.5641 O   0  0  0  0  0  0  0  0  0  0  0  0
  146.2262  130.8173  152.0965 H   0  0  0  0  0  0  0  0  0  0  0  0
  145.7203  130.4567  150.4453 H   0  0  0  0  0  0  0  0  0  0  0  0
  144.5235  130.5165  151.7471 H   0  0  0  0  0  0  0  0  0  0  0  0
  146.7074  133.0816  152.4058 H   0  0  0  0  0  0  0  0  0  0  0  0
  147.4501  135.8706  151.8952 H   0  0  0  0  0  0  0  0  0  0  0  0
  147.9036  137.4879  152.8949 H   0  0  0  0  0  0  0  0  0  0  0  0
  145.8800  139.5144  153.5216 H   0  0  0  0  0  0  0  0  0  0  0  0
  146.6123  138.7427  154.9076 H   0  0  0  0  0  0  0  0  0  0  0  0
  148.2991  139.9646  152.6817 H   0  0  0  0  0  0  0  0  0  0  0  0
  147.7587  140.9236  154.0369 H   0  0  0  0  0  0  0  0  0  0  0  0
  148.8518  139.0687  155.5288 H   0  0  0  0  0  0  0  0  0  0  0  0
  149.2897  137.4033  153.7221 H   0  0  0  0  0  0  0  0  0  0  0  0
  150.2623  138.5712  152.8562 H   0  0  0  0  0  0  0  0  0  0  0  0
  150.8735  137.3843  155.6035 H   0  0  0  0  0  0  0  0  0  0  0  0
  151.7585  137.0828  154.1232 H   0  0  0  0  0  0  0  0  0  0  0  0
  152.8892  138.7965  155.6021 H   0  0  0  0  0  0  0  0  0  0  0  0
  152.4986  139.4283  154.0178 H   0  0  0  0  0  0  0  0  0  0  0  0
  150.8620  139.8863  156.5741 H   0  0  0  0  0  0  0  0  0  0  0  0
  151.8243  141.0779  155.7221 H   0  0  0  0  0  0  0  0  0  0  0  0
  144.5531  136.1279  150.2634 H   0  0  0  0  0  0  0  0  0  0  0  0
  1  2  1  0  0  0  0
  1 21  1  0  0  0  0
  1 22  1  0  0  0  0
  1 23  1  0  0  0  0
  2 19  1  0  0  0  0
  2  3  2  0  0  0  0
  3  4  1  0  0  0  0
  3 24  1  0  0  0  0
  4  5  1  0  0  0  0
  4 17  2  0  0  0  0
  5  6  1  0  0  0  0
  5 25  1  0  0  0  0
  6  7  2  0  0  0  0
  6  8  1  0  0  0  0
  8  9  1  0  0  0  0
  8 26  1  0  0  0  0
  9 10  1  0  0  0  0
  9 27  1  0  0  0  0
  9 28  1  0  0  0  0
 10 11  1  0  0  0  0
 10 29  1  0  0  0  0
 10 30  1  0  0  0  0
 11 16  1  0  0  0  0
 11 12  1  0  0  0  0
 11 31  1  0  0  0  0
 12 13  1  0  0  0  0
 12 32  1  0  0  0  0
 12 33  1  0  0  0  0
 13 14  1  0  0  0  0
 13 34  1  0  0  0  0
 13 35  1  0  0  0  0
 14 15  1  0  0  0  0
 14 36  1  0  0  0  0
 14 37  1  0  0  0  0
 15 16  1  0  0  0  0
 15 38  1  0  0  0  0
 15 39  1  0  0  0  0
 17 18  1  0  0  0  0
 17 40  1  0  0  0  0
 18 19  1  0  0  0  0
 19 20  2  0  0  0  0
M  CHG  1  18  -1
M  END
> <s_m_source_file>
AV-unprocessed.smi

> <i_m_source_file_index>
2216

> <i_lp_mmshare_version>
43012

> <i_f3d_flags>
0

> <s_epik_input>
Tz1jMVtuSF1bY0hdYyhbY0hdYzFbQ0gzXSlbTkhdQyg9TylbTkhdW0NIMl1bQ0gyXVtDQEBIXTJbQ0gyXVtDSDJdW0NIMl1bQ0gyXU8y

> <s_epik_cmdline>
J2VwaWtfcHl0aG9uJywgJy1waCcsICc3LjAnLCAnLXRuJywgJzgnLCAnLW1hJywgJzIwMCcsICctbWV0YWxfYmluZGluZycsICctaW1hZScsICc8aW5maWxlLm1hZT4nLCAnLW9tYWUnLCAnPG91dGZpbGUubWFlPic=

> <r_lp_tautomer_probability>
1

> <r_epik_Ionization_Penalty>
7.55627

> <r_epik_Ionization_Penalty_Charging>
1.50531

> <r_epik_Ionization_Penalty_Neutral>
6.05097

> <r_epik_State_Penalty>
6.05091

> <r_epik_Charging_Adjusted_Penalty>
7.55622

> <i_epik_Tot_Q>
-1

> <i_epik_Tot_abs_Q>
1

> <r_epik_Metal_State_Penalty>
2.00009

> <b_epik_Metal_Only>
1

> <s_lp_Force_Field>
OPLS_2005

> <r_lp_Energy>
20.9745

> <b_lp_Chiralities_Consistent>
1

> <s_lp_Variant>
AV-unprocessed.smi:2216-4

> <Gold.Version>
5.8.1

> <Gold.Id.Protein>
6NUR|6NUR_protein|mol2

> <Gold.PLP.Fitness>
41.4404

> <Gold.PLP.PLP>
-34.4323

> <Gold.PLP.part.hbond>
-3.9193

> <Gold.PLP.part.metal>
0.0000

> <Gold.PLP.part.buried>
-2.7062

> <Gold.PLP.part.nonpolar>
-30.6203

> <Gold.PLP.part.repulsive>
1.5760

> <Gold.PLP.ligand.clash>
0.0000

> <Gold.PLP.ligand.torsion>
0.8959

> <Gold.PLP.Chemscore.Hbond>
2.9247

> <Gold.PLP.Chemscore.CHOScore>
0.0000

> <Gold.PLP.Chemscore.Metal>
0.0000

> <Gold.Chemscore.Hbonds>
donor molecule, donor type, donor heavy atom, donor atom, acceptor molecule, acceptor atom, score
      L1  H     5    25       P1  7948  0.96
      L1  H     8    26       P1  7948  0.86
      P1  H 10785 10796       L1    20  0.99

> <Gold.PLP.Chemscore.Internal.Correction>
0.0260

> <Gold.Rescore>
     Score         DG    S(hbond)    S(metal)    S(lipo)     H(rot)  DE(clash)    DE(int)     intcor
     18.50     -20.42       2.76        0.00      81.04       1.47       1.06       0.87       ----

> <Gold.Chemscore.Fitness>
18.4985

> <Gold.Chemscore.DG>
-20.4221

> <Gold.Chemscore.ZeroCoef>
-5.4800

> <Gold.Chemscore.Hbond>
2.7624

> <Gold.Chemscore.Metal>
0.0000

> <Gold.Chemscore.Lipo>
81.0366

> <Gold.Chemscore.Internal_Hbond>
0.0000

> <Gold.Chemscore.DEClash>
1.0572

> <Gold.Chemscore.DEInternal>
0.8664

> <Gold.Chemscore.Rot>
1.4709

> <Gold.Chemscore.Internal.Correction>
   9.000000E+99

> <Gold.Chemscore.Hbonds>
donor molecule, donor type, donor heavy atom, donor atom, acceptor molecule, acceptor atom, score
      L1  H     5    25       P1  7948  0.91
      L1  H     8    26       P1  7948  0.84
      P1  H 10785 10796       L1    20  0.88

> <Gold.Chemscore.Hbond.Weighted>
-9.2263

> <Gold.Chemscore.Metal.Weighted>
-0.0000

> <Gold.Chemscore.Lipo.Weighted>
-9.4813

> <Gold.Chemscore.Internal_Hbond.Weighted>
0.0000

> <Gold.Chemscore.DEClash.Weighted>
1.0572

> <Gold.Chemscore.DEInternal.Weighted>
0.8664

> <Gold.Chemscore.Rot.Weighted>
3.7654

> <Gold.Chemscore.Internal.Correction.Weighted>
   9.000000E+99

> <Gold.Protein.RotatedTorsions>
[ 6907 6896 6895 6894 ] final  131.12 input  -60.11 | X-H torsion
[ 7974 7965 7964 7962 ] final  130.87 input  175.53 | X-H torsion
[ 8008 7997 7996 7995 ] final  125.73 input   59.86 | X-H torsion
[ 10167 10162 10161 10158 ] final  135.04 input  -65.29 | X-H torsion
[ 10718 10713 10712 10709 ] final  -96.25 input   66.30 | X-H torsion
[ 10763 10752 10751 10750 ] final  -48.10 input  -60.55 | X-H torsion
[ 11005 11000 10999 10996 ] final  -39.83 input  -57.11 | X-H torsion

> <Gold.Protein.ActiveResidues>
 VAL166  LYS551  ARG553  GLY616  TRP617  ASP618  TYR619  PRO620  LYS621  CYS622 
 ASP623  PHE694  ASN695  SER759  ASP760  ASP761  ALA762  ILE779  LEU786  VAL792 
 PHE793  MET794  SER795  GLU796  ALA797  LYS798  CYS799  TRP800  GLU811  SER814 

> <Gold.Protein.RotatedAtoms>
  152.3458  133.6121  159.5908 H   0  0  0  0  0  0  0  0  0  0  0  0  # atno 6907 bound_to 6896
  150.7507  133.9651  159.3537 H   0  0  0  0  0  0  0  0  0  0  0  0  # atno 6908 bound_to 6896
  151.7509  135.0833  160.0382 H   0  0  0  0  0  0  0  0  0  0  0  0  # atno 6909 bound_to 6896
  145.0133  139.4199  143.5234 H   0  0  0  0  0  0  0  0  0  0  0  0  # atno 7974 bound_to 7965
  156.2843  140.2709  156.1997 H   0  0  0  0  0  0  0  0  0  0  0  0  # atno 8008 bound_to 7997
  155.0373  140.0386  157.2514 H   0  0  0  0  0  0  0  0  0  0  0  0  # atno 8009 bound_to 7997
  154.7303  140.2705  155.6467 H   0  0  0  0  0  0  0  0  0  0  0  0  # atno 8010 bound_to 7997
  139.5232  144.6537  151.5226 H   0  0  0  0  0  0  0  0  0  0  0  0  # atno 10167 bound_to 10162
  156.0058  130.5143  150.6198 H   0  0  0  0  0  0  0  0  0  0  0  0  # atno 10718 bound_to 10713
  154.0723  135.6603  153.4826 H   0  0  0  0  0  0  0  0  0  0  0  0  # atno 10763 bound_to 10752
  153.0386  135.5160  154.7555 H   0  0  0  0  0  0  0  0  0  0  0  0  # atno 10764 bound_to 10752
  154.6624  135.3017  154.9816 H   0  0  0  0  0  0  0  0  0  0  0  0  # atno 10765 bound_to 10752
  141.0130  133.6898  156.2239 H   0  0  0  0  0  0  0  0  0  0  0  0  # atno 11005 bound_to 11000
  146.3473  139.9590  142.8719 LP  0  0  0  0  0  0  0  0  0  0  0  0  # atno 17320 bound_to 7965
  145.1993  140.9847  143.4165 LP  0  0  0  0  0  0  0  0  0  0  0  0  # atno 17321 bound_to 7965
  140.6353  143.8996  150.6642 LP  0  0  0  0  0  0  0  0  0  0  0  0  # atno 17342 bound_to 10162
  140.2313  143.3733  152.1563 LP  0  0  0  0  0  0  0  0  0  0  0  0  # atno 17343 bound_to 10162
  157.4015  131.0810  151.1304 LP  0  0  0  0  0  0  0  0  0  0  0  0  # atno 17370 bound_to 10713
  157.1964  130.6375  149.5722 LP  0  0  0  0  0  0  0  0  0  0  0  0  # atno 17371 bound_to 10713
  140.6701  134.4877  157.5587 LP  0  0  0  0  0  0  0  0  0  0  0  0  # atno 17394 bound_to 11000
  139.9101  134.8364  156.1560 LP  0  0  0  0  0  0  0  0  0  0  0  0  # atno 17395 bound_to 11000

$$$$
