AV-unprocessed.smi:2840|AV-procd|sdf|10932|dock10
  -GOLD-   2272015383D 1   1.00000     0.00000
 Structure written by MMmdl.
 36 37  0  0  0  0  0  0  0  0  1 V2000
  146.0594  143.2569  154.1420 C   0  0  0  0  0  0  0  0  0  0  0  0
  146.3427  141.7775  154.4537 C   0  0  1  0  0  0  0  0  0  0  0  0
  147.3867  141.1838  153.4853 C   0  0  0  0  0  0  0  0  0  0  0  0
  147.6210  139.6890  153.7551 C   0  0  0  0  0  0  0  0  0  0  0  0
  148.0311  139.4418  155.2143 C   0  0  0  0  0  0  0  0  0  0  0  0
  146.9985  140.0317  156.1907 C   0  0  0  0  0  0  0  0  0  0  0  0
  146.7392  141.5299  155.9323 C   0  0  1  0  0  0  0  0  0  0  0  0
  147.9166  142.3094  156.3221 N   0  0  0  0  0  0  0  0  0  0  0  0
  148.7050  142.0761  157.3821 C   0  0  0  0  0  0  0  0  0  0  0  0
  148.5079  141.1712  158.1937 O   0  0  0  0  0  0  0  0  0  0  0  0
  149.7211  142.9553  157.4303 N   0  0  0  0  0  0  0  0  0  0  0  0
  150.7807  143.0233  158.3739 C   0  0  0  0  0  0  0  0  0  0  0  0
  151.5007  144.2395  158.3784 C   0  0  0  0  0  0  0  0  0  0  0  0
  152.5759  144.4055  159.2730 C   0  0  0  0  0  0  0  0  0  0  0  0
  152.9027  143.3500  160.1427 C   0  0  0  0  0  0  0  0  0  0  0  0
  152.1336  142.1736  160.0760 C   0  0  0  0  0  0  0  0  0  0  0  0
  151.1036  142.0120  159.2188 N   0  0  0  0  0  0  0  0  0  0  0  0
  146.9604  143.8657  154.2176 H   0  0  0  0  0  0  0  0  0  0  0  0
  145.3201  143.6673  154.8305 H   0  0  0  0  0  0  0  0  0  0  0  0
  145.6679  143.3746  153.1313 H   0  0  0  0  0  0  0  0  0  0  0  0
  145.4077  141.2415  154.2835 H   0  0  0  0  0  0  0  0  0  0  0  0
  147.0563  141.3180  152.4547 H   0  0  0  0  0  0  0  0  0  0  0  0
  148.3300  141.7239  153.5770 H   0  0  0  0  0  0  0  0  0  0  0  0
  146.7106  139.1312  153.5326 H   0  0  0  0  0  0  0  0  0  0  0  0
  148.3899  139.3064  153.0834 H   0  0  0  0  0  0  0  0  0  0  0  0
  148.1391  138.3715  155.3919 H   0  0  0  0  0  0  0  0  0  0  0  0
  149.0109  139.8833  155.3990 H   0  0  0  0  0  0  0  0  0  0  0  0
  146.0608  139.4841  156.0876 H   0  0  0  0  0  0  0  0  0  0  0  0
  147.3262  139.8766  157.2195 H   0  0  0  0  0  0  0  0  0  0  0  0
  145.8952  141.8204  156.5602 H   0  0  0  0  0  0  0  0  0  0  0  0
  148.1575  143.0831  155.7202 H   0  0  0  0  0  0  0  0  0  0  0  0
  149.7515  143.6451  156.6944 H   0  0  0  0  0  0  0  0  0  0  0  0
  151.2364  145.0401  157.7029 H   0  0  0  0  0  0  0  0  0  0  0  0
  153.1399  145.3264  159.2902 H   0  0  0  0  0  0  0  0  0  0  0  0
  153.7204  143.4393  160.8423 H   0  0  0  0  0  0  0  0  0  0  0  0
  152.3514  141.3399  160.7272 H   0  0  0  0  0  0  0  0  0  0  0  0
  1  2  1  0  0  0  0
  1 18  1  0  0  0  0
  1 19  1  0  0  0  0
  1 20  1  0  0  0  0
  2  7  1  0  0  0  0
  2  3  1  0  0  0  0
  2 21  1  0  0  0  0
  3  4  1  0  0  0  0
  3 22  1  0  0  0  0
  3 23  1  0  0  0  0
  4  5  1  0  0  0  0
  4 24  1  0  0  0  0
  4 25  1  0  0  0  0
  5  6  1  0  0  0  0
  5 26  1  0  0  0  0
  5 27  1  0  0  0  0
  6  7  1  0  0  0  0
  6 28  1  0  0  0  0
  6 29  1  0  0  0  0
  7  8  1  0  0  0  0
  7 30  1  0  0  0  0
  8  9  1  0  0  0  0
  8 31  1  0  0  0  0
  9 10  2  0  0  0  0
  9 11  1  0  0  0  0
 11 12  1  0  0  0  0
 11 32  1  0  0  0  0
 12 17  1  0  0  0  0
 12 13  2  0  0  0  0
 13 14  1  0  0  0  0
 13 33  1  0  0  0  0
 14 15  2  0  0  0  0
 14 34  1  0  0  0  0
 15 16  1  0  0  0  0
 15 35  1  0  0  0  0
 16 17  2  0  0  0  0
 16 36  1  0  0  0  0
M  END
> <s_m_source_file>
AV-unprocessed.smi

> <i_m_source_file_index>
2840

> <i_lp_mmshare_version>
43012

> <i_f3d_flags>
0

> <s_epik_input>
W0NIM11bQ0BASF0xW0NIMl1bQ0gyXVtDSDJdW0NIMl1bQ0BIXTFbTkhdQyg9TylbTkhdYzJbY0hdW2NIXVtjSF1bY0hdbjI=

> <s_epik_cmdline>
J2VwaWtfcHl0aG9uJywgJy1waCcsICc3LjAnLCAnLXRuJywgJzgnLCAnLW1hJywgJzIwMCcsICctbWV0YWxfYmluZGluZycsICctaW1hZScsICc8aW5maWxlLm1hZT4nLCAnLW9tYWUnLCAnPG91dGZpbGUubWFlPic=

> <r_lp_tautomer_probability>
1

> <r_epik_Ionization_Penalty>
5.29956e-05

> <r_epik_Ionization_Penalty_Charging>
0

> <r_epik_Ionization_Penalty_Neutral>
5.29956e-05

> <r_epik_State_Penalty>
-0

> <r_epik_Charging_Adjusted_Penalty>
0

> <i_epik_Tot_Q>
0

> <i_epik_Tot_abs_Q>
0

> <r_epik_Metal_State_Penalty>
-0

> <b_epik_Metal_Only>
0

> <s_lp_Force_Field>
OPLS_2005

> <r_lp_Energy>
11.7155

> <b_lp_Chiralities_Consistent>
1

> <s_lp_Variant>
AV-unprocessed.smi:2840-2

> <Gold.Version>
5.8.1

> <Gold.Id.Protein>
6NUR|6NUR_protein|mol2

> <Gold.PLP.Fitness>
38.3865

> <Gold.PLP.PLP>
-33.1692

> <Gold.PLP.part.hbond>
-2.7167

> <Gold.PLP.part.metal>
0.0000

> <Gold.PLP.part.buried>
-4.5766

> <Gold.PLP.part.nonpolar>
-26.0192

> <Gold.PLP.part.repulsive>
0.0641

> <Gold.PLP.ligand.clash>
0.0000

> <Gold.PLP.ligand.torsion>
0.3348

> <Gold.PLP.Chemscore.Hbond>
1.9600

> <Gold.PLP.Chemscore.CHOScore>
0.0000

> <Gold.PLP.Chemscore.Metal>
0.0000

> <Gold.Chemscore.Hbonds>
donor molecule, donor type, donor heavy atom, donor atom, acceptor molecule, acceptor atom, score
      L1  H     8    31       P1  8028  0.91
      L1  H    11    32       P1  8028  0.96

> <Gold.PLP.Chemscore.Internal.Correction>
0.0069

> <Gold.Rescore>
     Score         DG    S(hbond)    S(metal)    S(lipo)     H(rot)  DE(clash)    DE(int)     intcor
     15.23     -18.32       1.79        0.00      80.41       1.00       0.10       2.99       ----

> <Gold.Chemscore.Fitness>
15.2324

> <Gold.Chemscore.DG>
-18.3191

> <Gold.Chemscore.ZeroCoef>
-5.4800

> <Gold.Chemscore.Hbond>
1.7936

> <Gold.Chemscore.Metal>
0.0000

> <Gold.Chemscore.Lipo>
80.4138

> <Gold.Chemscore.Internal_Hbond>
0.0000

> <Gold.Chemscore.DEClash>
0.0998

> <Gold.Chemscore.DEInternal>
2.9870

> <Gold.Chemscore.Rot>
1.0000

> <Gold.Chemscore.Internal.Correction>
   9.000000E+99

> <Gold.Chemscore.Hbonds>
donor molecule, donor type, donor heavy atom, donor atom, acceptor molecule, acceptor atom, score
      L1  H     8    31       P1  8028  0.75
      L1  H    11    32       P1  8028  0.92

> <Gold.Chemscore.Hbond.Weighted>
-5.9907

> <Gold.Chemscore.Metal.Weighted>
-0.0000

> <Gold.Chemscore.Lipo.Weighted>
-9.4084

> <Gold.Chemscore.Internal_Hbond.Weighted>
0.0000

> <Gold.Chemscore.DEClash.Weighted>
0.0998

> <Gold.Chemscore.DEInternal.Weighted>
2.9870

> <Gold.Chemscore.Rot.Weighted>
2.5600

> <Gold.Chemscore.Internal.Correction.Weighted>
   9.000000E+99

> <Gold.Protein.RotatedTorsions>
[ 6907 6896 6895 6894 ] final  -47.45 input  -60.11 | X-H torsion
[ 7974 7965 7964 7962 ] final -129.93 input  175.53 | X-H torsion
[ 8008 7997 7996 7995 ] final  -24.81 input   59.86 | X-H torsion
[ 10167 10162 10161 10158 ] final  128.40 input  -65.29 | X-H torsion
[ 10718 10713 10712 10709 ] final   89.28 input   66.30 | X-H torsion
[ 10763 10752 10751 10750 ] final  -24.89 input  -60.55 | X-H torsion
[ 11005 11000 10999 10996 ] final   15.32 input  -57.11 | X-H torsion

> <Gold.Protein.ActiveResidues>
 VAL166  LYS551  ARG553  GLY616  TRP617  ASP618  TYR619  PRO620  LYS621  CYS622 
 ASP623  PHE694  ASN695  SER759  ASP760  ASP761  ALA762  ILE779  LEU786  VAL792 
 PHE793  MET794  SER795  GLU796  ALA797  LYS798  CYS799  TRP800  GLU811  SER814 

> <Gold.Protein.RotatedAtoms>
  150.9006  134.8418  159.7357 H   0  0  0  0  0  0  0  0  0  0  0  0  # atno 6907 bound_to 6896
  152.4890  134.4508  159.9584 H   0  0  0  0  0  0  0  0  0  0  0  0  # atno 6908 bound_to 6896
  151.4560  133.3566  159.2837 H   0  0  0  0  0  0  0  0  0  0  0  0  # atno 6909 bound_to 6896
  144.9524  140.7359  143.4779 H   0  0  0  0  0  0  0  0  0  0  0  0  # atno 7974 bound_to 7965
  154.4509  140.1943  156.0522 H   0  0  0  0  0  0  0  0  0  0  0  0  # atno 8008 bound_to 7997
  156.0646  140.3292  155.7475 H   0  0  0  0  0  0  0  0  0  0  0  0  # atno 8009 bound_to 7997
  155.5359  140.0582  157.2870 H   0  0  0  0  0  0  0  0  0  0  0  0  # atno 8010 bound_to 7997
  139.5529  144.6827  151.4269 H   0  0  0  0  0  0  0  0  0  0  0  0  # atno 10167 bound_to 10162
  157.6954  131.0327  150.3402 H   0  0  0  0  0  0  0  0  0  0  0  0  # atno 10718 bound_to 10713
  153.6911  135.6961  153.5090 H   0  0  0  0  0  0  0  0  0  0  0  0  # atno 10763 bound_to 10752
  153.2412  135.4305  155.0699 H   0  0  0  0  0  0  0  0  0  0  0  0  # atno 10764 bound_to 10752
  154.8372  135.3508  154.6453 H   0  0  0  0  0  0  0  0  0  0  0  0  # atno 10765 bound_to 10752
  140.4596  134.1141  155.7714 H   0  0  0  0  0  0  0  0  0  0  0  0  # atno 11005 bound_to 11000
  145.2823  139.1913  143.4784 LP  0  0  0  0  0  0  0  0  0  0  0  0  # atno 17320 bound_to 7965
  146.3325  140.2787  142.8609 LP  0  0  0  0  0  0  0  0  0  0  0  0  # atno 17321 bound_to 7965
  140.6796  143.8112  150.7103 LP  0  0  0  0  0  0  0  0  0  0  0  0  # atno 17342 bound_to 10162
  140.1561  143.4315  152.2098 LP  0  0  0  0  0  0  0  0  0  0  0  0  # atno 17343 bound_to 10162
  156.3864  130.3890  149.7063 LP  0  0  0  0  0  0  0  0  0  0  0  0  # atno 17370 bound_to 10713
  156.4427  130.7869  151.2890 LP  0  0  0  0  0  0  0  0  0  0  0  0  # atno 17371 bound_to 10713
  141.1627  133.8762  157.1802 LP  0  0  0  0  0  0  0  0  0  0  0  0  # atno 17394 bound_to 11000
  139.9954  135.0049  157.0070 LP  0  0  0  0  0  0  0  0  0  0  0  0  # atno 17395 bound_to 11000

$$$$
