AV-unprocessed.smi:1696|AV-procd|sdf|6800|dock9
  -GOLD-   22720 7573D 1   1.00000     0.00000
 Structure written by MMmdl.
 39 40  0  0  0  0  0  0  0  0  2 V2000
  145.5800  143.4323  153.7622 C   0  0  0  0  0  0  0  0  0  0  0  0
  146.5176  142.4817  154.5221 C   0  0  0  0  0  0  0  0  0  0  0  0
  147.2869  141.4778  153.6211 C   0  0  1  0  0  0  0  0  0  0  0  0
  148.6453  141.0471  154.2439 C   0  0  0  0  0  0  0  0  0  0  0  0
  149.1328  141.9671  155.2712 N   0  0  0  0  0  0  0  0  0  0  0  0
  150.0393  141.6751  156.2147 C   0  0  0  0  0  0  0  0  0  0  0  0
  150.5901  140.5795  156.3107 O   0  0  0  0  0  0  0  0  0  0  0  0
  150.2565  142.7266  157.0211 N   0  0  0  0  0  0  0  0  0  0  0  0
  151.1512  142.8088  158.1166 C   0  0  0  0  0  0  0  0  0  0  0  0
  151.5245  141.6836  158.7287 N   0  0  0  0  0  0  0  0  0  0  0  0
  152.4078  141.9287  159.7842 C   0  0  0  0  0  0  0  0  0  0  0  0
  152.6962  143.2587  159.9648 C   0  0  0  0  0  0  0  0  0  0  0  0
  151.8649  144.2666  158.8108 S   0  0  0  0  0  0  0  0  0  0  0  0
  146.4515  140.2837  153.2871 N   0  3  0  0  0  0  0  0  0  0  0  0
  146.9094  139.4618  152.1451 C   0  0  0  0  0  0  0  0  0  0  0  0
  146.2209  138.1143  152.3253 C   0  0  0  0  0  0  0  0  0  0  0  0
  146.2289  137.9223  153.8367 C   0  0  0  0  0  0  0  0  0  0  0  0
  146.2167  139.3442  154.4144 C   0  0  0  0  0  0  0  0  0  0  0  0
  144.9871  144.0226  154.4611 H   0  0  0  0  0  0  0  0  0  0  0  0
  144.8869  142.8794  153.1279 H   0  0  0  0  0  0  0  0  0  0  0  0
  146.1252  144.1356  153.1343 H   0  0  0  0  0  0  0  0  0  0  0  0
  147.2148  143.0596  155.1287 H   0  0  0  0  0  0  0  0  0  0  0  0
  145.8870  141.9431  155.2280 H   0  0  0  0  0  0  0  0  0  0  0  0
  147.5021  141.9915  152.6827 H   0  0  0  0  0  0  0  0  0  0  0  0
  148.5346  140.0753  154.7246 H   0  0  0  0  0  0  0  0  0  0  0  0
  149.4040  140.8831  153.4790 H   0  0  0  0  0  0  0  0  0  0  0  0
  148.7264  142.8914  155.2814 H   0  0  0  0  0  0  0  0  0  0  0  0
  149.7230  143.5626  156.8341 H   0  0  0  0  0  0  0  0  0  0  0  0
  152.7855  141.0942  160.3565 H   0  0  0  0  0  0  0  0  0  0  0  0
  153.3455  143.7049  160.7035 H   0  0  0  0  0  0  0  0  0  0  0  0
  146.6580  139.9157  151.1862 H   0  0  0  0  0  0  0  0  0  0  0  0
  147.9922  139.3331  152.1929 H   0  0  0  0  0  0  0  0  0  0  0  0
  145.1931  138.1720  151.9643 H   0  0  0  0  0  0  0  0  0  0  0  0
  146.7215  137.3060  151.7910 H   0  0  0  0  0  0  0  0  0  0  0  0
  145.3874  137.3216  154.1831 H   0  0  0  0  0  0  0  0  0  0  0  0
  147.1451  137.4118  154.1369 H   0  0  0  0  0  0  0  0  0  0  0  0
  146.9896  139.4311  155.1795 H   0  0  0  0  0  0  0  0  0  0  0  0
  145.2593  139.5747  154.8823 H   0  0  0  0  0  0  0  0  0  0  0  0
  145.5410  140.6310  153.0215 H   0  0  0  0  0  0  0  0  0  0  0  0
  1  2  1  0  0  0  0
  1 19  1  0  0  0  0
  1 20  1  0  0  0  0
  1 21  1  0  0  0  0
  2  3  1  0  0  0  0
  2 22  1  0  0  0  0
  2 23  1  0  0  0  0
  3  4  1  0  0  0  0
  3 14  1  0  0  0  0
  3 24  1  0  0  0  0
  4  5  1  0  0  0  0
  4 25  1  0  0  0  0
  4 26  1  0  0  0  0
  5  6  1  0  0  0  0
  5 27  1  0  0  0  0
  6  7  2  0  0  0  0
  6  8  1  0  0  0  0
  8  9  1  0  0  0  0
  8 28  1  0  0  0  0
  9 13  1  0  0  0  0
  9 10  2  0  0  0  0
 10 11  1  0  0  0  0
 11 12  2  0  0  0  0
 11 29  1  0  0  0  0
 12 13  1  0  0  0  0
 12 30  1  0  0  0  0
 14 18  1  0  0  0  0
 14 15  1  0  0  0  0
 14 39  1  0  0  0  0
 15 16  1  0  0  0  0
 15 31  1  0  0  0  0
 15 32  1  0  0  0  0
 16 17  1  0  0  0  0
 16 33  1  0  0  0  0
 16 34  1  0  0  0  0
 17 18  1  0  0  0  0
 17 35  1  0  0  0  0
 17 36  1  0  0  0  0
 18 37  1  0  0  0  0
 18 38  1  0  0  0  0
M  CHG  1  14   1
M  END
> <s_m_source_file>
AV-unprocessed.smi

> <i_m_source_file_index>
1696

> <i_lp_mmshare_version>
43012

> <i_f3d_flags>
0

> <s_epik_input>
W0NIMl0xW0NIMl1bQ0gyXVtDSDJdTjFbQ0BIXShbQ0gyXVtDSDNdKVtDSDJdW05IXUMoPU8pW05IXWMybltjSF1bY0hdczI=

> <s_epik_cmdline>
J2VwaWtfcHl0aG9uJywgJy1waCcsICc3LjAnLCAnLXRuJywgJzgnLCAnLW1hJywgJzIwMCcsICctbWV0YWxfYmluZGluZycsICctaW1hZScsICc8aW5maWxlLm1hZT4nLCAnLW9tYWUnLCAnPG91dGZpbGUubWFlPic=

> <r_lp_tautomer_probability>
1

> <r_epik_Ionization_Penalty>
0.0013883

> <r_epik_Ionization_Penalty_Charging>
0.00115997

> <r_epik_Ionization_Penalty_Neutral>
0.000228323

> <r_epik_State_Penalty>
-0

> <r_epik_Charging_Adjusted_Penalty>
0.00115997

> <i_epik_Tot_Q>
1

> <i_epik_Tot_abs_Q>
1

> <r_epik_Metal_State_Penalty>
0.0131845

> <b_epik_Metal_Only>
0

> <s_lp_Force_Field>
OPLS_2005

> <r_lp_Energy>
36.9264

> <b_lp_Chiralities_Consistent>
1

> <s_lp_Variant>
AV-unprocessed.smi:1696-2

> <Gold.Version>
5.8.1

> <Gold.Id.Protein>
6NUR|6NUR_protein|mol2

> <Gold.PLP.Fitness>
51.6784

> <Gold.PLP.PLP>
-42.0170

> <Gold.PLP.part.hbond>
-3.0000

> <Gold.PLP.part.metal>
0.0000

> <Gold.PLP.part.buried>
-3.7784

> <Gold.PLP.part.nonpolar>
-35.9871

> <Gold.PLP.part.repulsive>
0.3043

> <Gold.PLP.ligand.clash>
0.0000

> <Gold.PLP.ligand.torsion>
1.2025

> <Gold.PLP.Chemscore.Hbond>
3.9920

> <Gold.PLP.Chemscore.CHOScore>
0.0000

> <Gold.PLP.Chemscore.Metal>
0.0000

> <Gold.Chemscore.Hbonds>
donor molecule, donor type, donor heavy atom, donor atom, acceptor molecule, acceptor atom, score
      L1  H     5    27       P1  8028  1.00
      L1  H     8    28       P1  8028  1.00
      L1  H    14    39       P1 10175  2.00

> <Gold.PLP.Chemscore.Internal.Correction>
0.0904

> <Gold.Rescore>
     Score         DG    S(hbond)    S(metal)    S(lipo)     H(rot)  DE(clash)    DE(int)     intcor
     18.02     -20.63       2.85        0.00      86.91       1.77       0.14       2.47       ----

> <Gold.Chemscore.Fitness>
18.0161

> <Gold.Chemscore.DG>
-20.6293

> <Gold.Chemscore.ZeroCoef>
-5.4800

> <Gold.Chemscore.Hbond>
2.8484

> <Gold.Chemscore.Metal>
0.0000

> <Gold.Chemscore.Lipo>
86.9060

> <Gold.Chemscore.Internal_Hbond>
0.0000

> <Gold.Chemscore.DEClash>
0.1398

> <Gold.Chemscore.DEInternal>
2.4734

> <Gold.Chemscore.Rot>
1.7705

> <Gold.Chemscore.Internal.Correction>
   9.000000E+99

> <Gold.Chemscore.Hbonds>
donor molecule, donor type, donor heavy atom, donor atom, acceptor molecule, acceptor atom, score
      L1  H     5    27       P1  8028  0.94
      L1  H     8    28       P1  8028  0.96
      L1  H    14    39       P1 10175  0.73

> <Gold.Chemscore.Hbond.Weighted>
-9.5138

> <Gold.Chemscore.Metal.Weighted>
-0.0000

> <Gold.Chemscore.Lipo.Weighted>
-10.1680

> <Gold.Chemscore.Internal_Hbond.Weighted>
0.0000

> <Gold.Chemscore.DEClash.Weighted>
0.1398

> <Gold.Chemscore.DEInternal.Weighted>
2.4734

> <Gold.Chemscore.Rot.Weighted>
4.5324

> <Gold.Chemscore.Internal.Correction.Weighted>
   9.000000E+99

> <Gold.Protein.RotatedTorsions>
[ 6907 6896 6895 6894 ] final  165.46 input  -60.11 | X-H torsion
[ 7974 7965 7964 7962 ] final -127.42 input  175.53 | X-H torsion
[ 8008 7997 7996 7995 ] final  -50.59 input   59.86 | X-H torsion
[ 10167 10162 10161 10158 ] final  -43.06 input  -65.29 | X-H torsion
[ 10718 10713 10712 10709 ] final -176.89 input   66.30 | X-H torsion
[ 10763 10752 10751 10750 ] final   60.28 input  -60.55 | X-H torsion
[ 11005 11000 10999 10996 ] final -148.32 input  -57.11 | X-H torsion

> <Gold.Protein.ActiveResidues>
 VAL166  LYS551  ARG553  GLY616  TRP617  ASP618  TYR619  PRO620  LYS621  CYS622 
 ASP623  PHE694  ASN695  SER759  ASP760  ASP761  ALA762  ILE779  LEU786  VAL792 
 PHE793  MET794  SER795  GLU796  ALA797  LYS798  CYS799  TRP800  GLU811  SER814 

> <Gold.Protein.RotatedAtoms>
  151.8941  133.3523  159.3808 H   0  0  0  0  0  0  0  0  0  0  0  0  # atno 6907 bound_to 6896
  150.7096  134.4894  159.5517 H   0  0  0  0  0  0  0  0  0  0  0  0  # atno 6908 bound_to 6896
  152.2470  134.8172  160.0503 H   0  0  0  0  0  0  0  0  0  0  0  0  # atno 6909 bound_to 6896
  144.9772  140.7605  143.4634 H   0  0  0  0  0  0  0  0  0  0  0  0  # atno 7974 bound_to 7965
  154.4065  140.1268  156.4691 H   0  0  0  0  0  0  0  0  0  0  0  0  # atno 8008 bound_to 7997
  155.7197  140.3493  155.4991 H   0  0  0  0  0  0  0  0  0  0  0  0  # atno 8009 bound_to 7997
  155.9225  140.1055  157.1185 H   0  0  0  0  0  0  0  0  0  0  0  0  # atno 8010 bound_to 7997
  140.6947  143.3003  151.3298 H   0  0  0  0  0  0  0  0  0  0  0  0  # atno 10167 bound_to 10162
  156.8214  130.9621  151.3111 H   0  0  0  0  0  0  0  0  0  0  0  0  # atno 10718 bound_to 10713
  152.9917  135.5542  154.5848 H   0  0  0  0  0  0  0  0  0  0  0  0  # atno 10763 bound_to 10752
  154.5222  135.2808  155.1255 H   0  0  0  0  0  0  0  0  0  0  0  0  # atno 10764 bound_to 10752
  154.2604  135.6382  153.5325 H   0  0  0  0  0  0  0  0  0  0  0  0  # atno 10765 bound_to 10752
  140.7625  134.3282  157.5098 H   0  0  0  0  0  0  0  0  0  0  0  0  # atno 11005 bound_to 11000
  145.2472  139.2047  143.4961 LP  0  0  0  0  0  0  0  0  0  0  0  0  # atno 17320 bound_to 7965
  146.3398  140.2379  142.8595 LP  0  0  0  0  0  0  0  0  0  0  0  0  # atno 17321 bound_to 7965
  139.6389  144.0578  152.2538 LP  0  0  0  0  0  0  0  0  0  0  0  0  # atno 17342 bound_to 10162
  140.0077  144.6247  150.7675 LP  0  0  0  0  0  0  0  0  0  0  0  0  # atno 17343 bound_to 10162
  157.6455  130.8840  149.9529 LP  0  0  0  0  0  0  0  0  0  0  0  0  # atno 17370 bound_to 10713
  156.0986  130.3657  150.0259 LP  0  0  0  0  0  0  0  0  0  0  0  0  # atno 17371 bound_to 10713
  139.8768  134.9211  156.3266 LP  0  0  0  0  0  0  0  0  0  0  0  0  # atno 17394 bound_to 11000
  140.9650  133.7364  156.0454 LP  0  0  0  0  0  0  0  0  0  0  0  0  # atno 17395 bound_to 11000

$$$$
