AV-unprocessed.smi:1683|AV-procd|sdf|6750|dock1
  -GOLD-   22720 7503D 1   1.00000     0.00000
 Structure written by MMmdl.
 37 38  0  0  0  0  0  0  0  0  2 V2000
  150.3566  134.9080  155.9355 O   0  0  0  0  0  0  0  0  0  0  0  0
  149.8442  135.2115  154.8577 C   0  0  0  0  0  0  0  0  0  0  0  0
  149.0747  134.3765  154.1449 N   0  0  0  0  0  0  0  0  0  0  0  0
  148.7517  133.0069  154.5312 C   0  0  0  0  0  0  0  0  0  0  0  0
  148.1928  132.1889  153.3513 C   0  0  1  0  0  0  0  0  0  0  0  0
  147.7200  130.7831  153.7119 C   0  0  0  0  0  0  0  0  0  0  0  0
  146.8047  130.4324  152.5421 C   0  0  0  0  0  0  0  0  0  0  0  0
  146.1345  131.6983  152.1664 N   0  3  2  0  0  0  0  0  0  0  0  0
  145.7833  131.8241  150.7298 C   0  0  0  0  0  0  0  0  0  0  0  0
  144.6746  132.8604  150.4720 C   0  0  0  0  0  0  0  0  0  0  0  0
  143.6747  132.6470  151.3259 F   0  0  0  0  0  0  0  0  0  0  0  0
  145.1216  134.1031  150.6500 F   0  0  0  0  0  0  0  0  0  0  0  0
  144.2097  132.7334  149.2292 F   0  0  0  0  0  0  0  0  0  0  0  0
  146.9576  132.8154  152.6911 C   0  0  0  0  0  0  0  0  0  0  0  0
  149.9710  136.4023  154.2494 N   0  0  0  0  0  0  0  0  0  0  0  0
  150.7276  137.5171  154.6915 C   0  0  0  0  0  0  0  0  0  0  0  0
  150.5975  138.8375  154.1816 C   0  0  0  0  0  0  0  0  0  0  0  0
  151.4363  139.6717  154.7791 N   0  0  0  0  0  0  0  0  0  0  0  0
  152.1021  138.8961  155.6642 N   0  0  0  0  0  0  0  0  0  0  0  0
  151.7046  137.5775  155.6453 C   0  0  0  0  0  0  0  0  0  0  0  0
  152.8183  139.2764  156.2667 H   0  0  0  0  0  0  0  0  0  0  0  0
  148.6947  134.7072  153.2698 H   0  0  0  0  0  0  0  0  0  0  0  0
  149.6595  132.5405  154.9149 H   0  0  0  0  0  0  0  0  0  0  0  0
  148.0383  133.0143  155.3571 H   0  0  0  0  0  0  0  0  0  0  0  0
  148.9639  132.0956  152.5842 H   0  0  0  0  0  0  0  0  0  0  0  0
  148.5412  130.0756  153.8310 H   0  0  0  0  0  0  0  0  0  0  0  0
  147.1491  130.7999  154.6415 H   0  0  0  0  0  0  0  0  0  0  0  0
  147.4089  130.0677  151.7098 H   0  0  0  0  0  0  0  0  0  0  0  0
  146.0832  129.6567  152.7998 H   0  0  0  0  0  0  0  0  0  0  0  0
  146.6756  132.1434  150.1891 H   0  0  0  0  0  0  0  0  0  0  0  0
  145.5066  130.8502  150.3225 H   0  0  0  0  0  0  0  0  0  0  0  0
  146.3566  133.3555  153.4237 H   0  0  0  0  0  0  0  0  0  0  0  0
  147.2483  133.5288  151.9181 H   0  0  0  0  0  0  0  0  0  0  0  0
  149.4812  136.5235  153.3751 H   0  0  0  0  0  0  0  0  0  0  0  0
  149.9359  139.2109  153.4138 H   0  0  0  0  0  0  0  0  0  0  0  0
  152.1436  136.8322  156.2920 H   0  0  0  0  0  0  0  0  0  0  0  0
  145.2671  131.7328  152.6828 H   0  0  0  0  0  0  0  0  0  0  0  0
  1  2  2  0  0  0  0
  2  3  1  0  0  0  0
  2 15  1  0  0  0  0
  3  4  1  0  0  0  0
  3 22  1  0  0  0  0
  4  5  1  0  0  0  0
  4 23  1  0  0  0  0
  4 24  1  0  0  0  0
  5 14  1  0  0  0  0
  5  6  1  0  0  0  0
  5 25  1  0  0  0  0
  6  7  1  0  0  0  0
  6 26  1  0  0  0  0
  6 27  1  0  0  0  0
  7  8  1  0  0  0  0
  7 28  1  0  0  0  0
  7 29  1  0  0  0  0
  8  9  1  0  0  0  0
  8 14  1  0  0  0  0
  8 37  1  0  0  0  0
  9 10  1  0  0  0  0
  9 30  1  0  0  0  0
  9 31  1  0  0  0  0
 10 11  1  0  0  0  0
 10 12  1  0  0  0  0
 10 13  1  0  0  0  0
 14 32  1  0  0  0  0
 14 33  1  0  0  0  0
 15 16  1  0  0  0  0
 15 34  1  0  0  0  0
 16 20  2  0  0  0  0
 16 17  1  0  0  0  0
 17 18  2  0  0  0  0
 17 35  1  0  0  0  0
 18 19  1  0  0  0  0
 19 21  1  0  0  0  0
 19 20  1  0  0  0  0
 20 36  1  0  0  0  0
M  CHG  1   8   1
M  END
> <s_m_source_file>
AV-unprocessed.smi

> <i_m_source_file_index>
1683

> <i_lp_mmshare_version>
43012

> <i_f3d_flags>
0

> <s_epik_input>
W2NIXTFbbkhdbltjSF1jMVtOSF1DKD1PKVtOSF1bQ0gyXVtDQEBIXTJbQ0gyXVtDSDJdTihbQ0gyXTIpW0NIMl1DKEYpKEYpRg==

> <s_epik_cmdline>
J2VwaWtfcHl0aG9uJywgJy1waCcsICc3LjAnLCAnLXRuJywgJzgnLCAnLW1hJywgJzIwMCcsICctbWV0YWxfYmluZGluZycsICctaW1hZScsICc8aW5maWxlLm1hZT4nLCAnLW9tYWUnLCAnPG91dGZpbGUubWFlPic=

> <r_lp_tautomer_probability>
0.5

> <r_epik_Ionization_Penalty>
0.641865

> <r_epik_Ionization_Penalty_Charging>
0.64182

> <r_epik_Ionization_Penalty_Neutral>
4.50685e-05

> <r_epik_State_Penalty>
0.65957

> <r_epik_Charging_Adjusted_Penalty>
1.30139

> <i_epik_Tot_Q>
1

> <i_epik_Tot_abs_Q>
1

> <r_epik_Metal_State_Penalty>
0.659571

> <b_epik_Metal_Only>
0

> <s_lp_Force_Field>
OPLS_2005

> <r_lp_Energy>
31.4735

> <b_lp_Chiralities_Consistent>
1

> <s_lp_Variant>
AV-unprocessed.smi:1683-4

> <Gold.Version>
5.8.1

> <Gold.Id.Protein>
6NUR|6NUR_protein|mol2

> <Gold.PLP.Fitness>
48.7490

> <Gold.PLP.PLP>
-37.7199

> <Gold.PLP.part.hbond>
-4.0000

> <Gold.PLP.part.metal>
0.0000

> <Gold.PLP.part.buried>
-4.0463

> <Gold.PLP.part.nonpolar>
-29.7578

> <Gold.PLP.part.repulsive>
0.3511

> <Gold.PLP.ligand.clash>
0.0000

> <Gold.PLP.ligand.torsion>
0.4353

> <Gold.PLP.Chemscore.Hbond>
2.8160

> <Gold.PLP.Chemscore.CHOScore>
1.0000

> <Gold.PLP.Chemscore.Metal>
0.0000

> <Gold.Chemscore.Hbonds>
donor molecule, donor type, donor heavy atom, donor atom, acceptor molecule, acceptor atom, score
      L1  H     3    22       P1  7948  0.77
      L1  H    15    34       P1  7948  1.00
      P1  H  7989  7998       L1    18  1.00
      L1  C    17    35       P1  7957  1.00

> <Gold.PLP.Chemscore.Internal.Correction>
0.4517

> <Gold.Rescore>
     Score         DG    S(hbond)    S(metal)    S(lipo)     H(rot)  DE(clash)    DE(int)     intcor
     13.09     -14.74       1.97        0.00      62.54       1.81       0.00       1.65       ----

> <Gold.Chemscore.Fitness>
13.0940

> <Gold.Chemscore.DG>
-14.7440

> <Gold.Chemscore.ZeroCoef>
-5.4800

> <Gold.Chemscore.Hbond>
1.9715

> <Gold.Chemscore.Metal>
0.0000

> <Gold.Chemscore.Lipo>
62.5388

> <Gold.Chemscore.Internal_Hbond>
0.0000

> <Gold.Chemscore.DEClash>
0.0000

> <Gold.Chemscore.DEInternal>
1.6500

> <Gold.Chemscore.Rot>
1.8116

> <Gold.Chemscore.Internal.Correction>
   9.000000E+99

> <Gold.Chemscore.Hbonds>
donor molecule, donor type, donor heavy atom, donor atom, acceptor molecule, acceptor atom, score
      L1  H     3    22       P1  7948  0.25
      L1  H    15    34       P1  7948  0.69
      P1  H  7989  7998       L1    18  0.26

> <Gold.Chemscore.Hbond.Weighted>
-6.5847

> <Gold.Chemscore.Metal.Weighted>
-0.0000

> <Gold.Chemscore.Lipo.Weighted>
-7.3170

> <Gold.Chemscore.Internal_Hbond.Weighted>
0.0000

> <Gold.Chemscore.DEClash.Weighted>
0.0000

> <Gold.Chemscore.DEInternal.Weighted>
1.6500

> <Gold.Chemscore.Rot.Weighted>
4.6378

> <Gold.Chemscore.Internal.Correction.Weighted>
   9.000000E+99

> <Gold.Protein.RotatedTorsions>
[ 6907 6896 6895 6894 ] final -109.91 input  -60.11 | X-H torsion
[ 7974 7965 7964 7962 ] final   96.61 input  175.53 | X-H torsion
[ 8008 7997 7996 7995 ] final  -82.62 input   59.86 | X-H torsion
[ 10167 10162 10161 10158 ] final  164.79 input  -65.29 | X-H torsion
[ 10718 10713 10712 10709 ] final  -14.67 input   66.30 | X-H torsion
[ 10763 10752 10751 10750 ] final -104.92 input  -60.55 | X-H torsion
[ 11005 11000 10999 10996 ] final  149.05 input  -57.11 | X-H torsion

> <Gold.Protein.ActiveResidues>
 VAL166  LYS551  ARG553  GLY616  TRP617  ASP618  TYR619  PRO620  LYS621  CYS622 
 ASP623  PHE694  ASN695  SER759  ASP760  ASP761  ALA762  ILE779  LEU786  VAL792 
 PHE793  MET794  SER795  GLU796  ALA797  LYS798  CYS799  TRP800  GLU811  SER814 

> <Gold.Protein.RotatedAtoms>
  150.7591  133.9459  159.3470 H   0  0  0  0  0  0  0  0  0  0  0  0  # atno 6907 bound_to 6896
  151.7372  135.0860  160.0319 H   0  0  0  0  0  0  0  0  0  0  0  0  # atno 6908 bound_to 6896
  152.3552  133.6190  159.6010 H   0  0  0  0  0  0  0  0  0  0  0  0  # atno 6909 bound_to 6896
  145.4365  139.2305  143.3115 H   0  0  0  0  0  0  0  0  0  0  0  0  # atno 7974 bound_to 7965
  154.6105  140.0630  156.9487 H   0  0  0  0  0  0  0  0  0  0  0  0  # atno 8008 bound_to 7997
  155.1982  140.3313  155.4329 H   0  0  0  0  0  0  0  0  0  0  0  0  # atno 8009 bound_to 7997
  156.2373  140.1869  156.7067 H   0  0  0  0  0  0  0  0  0  0  0  0  # atno 8010 bound_to 7997
  139.4895  144.4199  151.9199 H   0  0  0  0  0  0  0  0  0  0  0  0  # atno 10167 bound_to 10162
  156.6127  130.4854  149.6195 H   0  0  0  0  0  0  0  0  0  0  0  0  # atno 10718 bound_to 10713
  154.7912  135.4768  154.0056 H   0  0  0  0  0  0  0  0  0  0  0  0  # atno 10763 bound_to 10752
  153.1633  135.6812  153.8718 H   0  0  0  0  0  0  0  0  0  0  0  0  # atno 10764 bound_to 10752
  153.8324  135.3190  155.3398 H   0  0  0  0  0  0  0  0  0  0  0  0  # atno 10765 bound_to 10752
  140.1012  134.8982  157.1798 H   0  0  0  0  0  0  0  0  0  0  0  0  # atno 11005 bound_to 11000
  146.2579  140.5109  142.8866 LP  0  0  0  0  0  0  0  0  0  0  0  0  # atno 17320 bound_to 7965
  144.8149  140.6450  143.6391 LP  0  0  0  0  0  0  0  0  0  0  0  0  # atno 17321 bound_to 7965
  140.3642  144.2935  150.5929 LP  0  0  0  0  0  0  0  0  0  0  0  0  # atno 17342 bound_to 10162
  140.5376  143.2230  151.8138 LP  0  0  0  0  0  0  0  0  0  0  0  0  # atno 17343 bound_to 10162
  156.2376  130.6832  151.1525 LP  0  0  0  0  0  0  0  0  0  0  0  0  # atno 17370 bound_to 10713
  157.7250  131.0656  150.5973 LP  0  0  0  0  0  0  0  0  0  0  0  0  # atno 17371 bound_to 10713
  140.3217  134.2908  155.7245 LP  0  0  0  0  0  0  0  0  0  0  0  0  # atno 17394 bound_to 11000
  141.2106  133.7714  156.9921 LP  0  0  0  0  0  0  0  0  0  0  0  0  # atno 17395 bound_to 11000

$$$$
