AV-unprocessed.smi:377|AV-procd|sdf|2456|dock8
  -GOLD-   2262022393D 1   1.00000     0.00000
 Structure written by MMmdl.
 33 34  0  0  0  0  0  0  0  0  1 V2000
  149.0804  134.0164  153.9590 C   0  0  0  0  0  0  0  0  0  0  0  0
  150.0026  134.8068  154.8966 C   0  0  0  0  0  0  0  0  0  0  0  0
  150.3034  136.1296  154.3622 N   0  0  0  0  0  0  0  0  0  0  0  0
  151.1949  136.9875  154.8803 C   0  0  0  0  0  0  0  0  0  0  0  0
  151.8630  136.7395  155.8856 O   0  0  0  0  0  0  0  0  0  0  0  0
  151.3448  138.3238  154.1363 C   0  0  0  0  0  0  0  0  0  0  0  0
  150.6802  139.4581  154.8150 N   0  0  0  0  0  0  0  0  0  0  0  0
  149.3875  139.8479  154.3802 C   0  0  0  0  0  0  0  0  0  0  0  0
  148.8123  139.2410  153.4750 O   0  0  0  0  0  0  0  0  0  0  0  0
  148.8167  141.0063  155.0635 C   0  0  0  0  0  0  0  0  0  0  0  0
  147.5319  141.4483  154.6329 C   0  0  0  0  0  0  0  0  0  0  0  0
  146.4813  141.7831  154.2810 N   0  0  0  0  0  0  0  0  0  0  0  0
  149.4873  141.6285  156.0548 C   0  0  0  0  0  0  0  0  0  0  0  0
  150.7258  141.2089  156.4891 N   0  0  0  0  0  0  0  0  0  0  0  0
  151.4901  141.9756  157.4322 C   0  0  0  0  0  0  0  0  0  0  0  0
  150.7975  142.9725  158.3408 C   0  0  0  0  0  0  0  0  0  0  0  0
  151.6623  143.4620  157.2052 C   0  0  0  0  0  0  0  0  0  0  0  0
  151.3799  140.1388  155.8409 C   0  0  0  0  0  0  0  0  0  0  0  0
  152.5290  139.8125  156.1497 O   0  0  0  0  0  0  0  0  0  0  0  0
  148.8332  133.0453  154.3882 H   0  0  0  0  0  0  0  0  0  0  0  0
  149.5525  133.8402  152.9919 H   0  0  0  0  0  0  0  0  0  0  0  0
  148.1458  134.5500  153.7839 H   0  0  0  0  0  0  0  0  0  0  0  0
  149.5190  134.9343  155.8653 H   0  0  0  0  0  0  0  0  0  0  0  0
  150.9243  134.2529  155.0808 H   0  0  0  0  0  0  0  0  0  0  0  0
  149.7968  136.4133  153.5360 H   0  0  0  0  0  0  0  0  0  0  0  0
  152.4084  138.5228  153.9956 H   0  0  0  0  0  0  0  0  0  0  0  0
  150.9638  138.1995  153.1212 H   0  0  0  0  0  0  0  0  0  0  0  0
  149.0359  142.4863  156.5325 H   0  0  0  0  0  0  0  0  0  0  0  0
  152.3467  141.4599  157.8629 H   0  0  0  0  0  0  0  0  0  0  0  0
  149.7220  143.1032  158.2375 H   0  0  0  0  0  0  0  0  0  0  0  0
  151.1845  143.0805  159.3519 H   0  0  0  0  0  0  0  0  0  0  0  0
  152.6250  143.9004  157.4602 H   0  0  0  0  0  0  0  0  0  0  0  0
  151.1565  143.9135  156.3538 H   0  0  0  0  0  0  0  0  0  0  0  0
  1  2  1  0  0  0  0
  1 20  1  0  0  0  0
  1 21  1  0  0  0  0
  1 22  1  0  0  0  0
  2  3  1  0  0  0  0
  2 23  1  0  0  0  0
  2 24  1  0  0  0  0
  3  4  1  0  0  0  0
  3 25  1  0  0  0  0
  4  5  2  0  0  0  0
  4  6  1  0  0  0  0
  6  7  1  0  0  0  0
  6 26  1  0  0  0  0
  6 27  1  0  0  0  0
  7 18  1  0  0  0  0
  7  8  1  0  0  0  0
  8  9  2  0  0  0  0
  8 10  1  0  0  0  0
 10 11  1  0  0  0  0
 10 13  2  0  0  0  0
 11 12  3  0  0  0  0
 13 14  1  0  0  0  0
 13 28  1  0  0  0  0
 14 15  1  0  0  0  0
 14 18  1  0  0  0  0
 15 17  1  0  0  0  0
 15 16  1  0  0  0  0
 15 29  1  0  0  0  0
 16 17  1  0  0  0  0
 16 30  1  0  0  0  0
 16 31  1  0  0  0  0
 17 32  1  0  0  0  0
 17 33  1  0  0  0  0
 18 19  2  0  0  0  0
M  END
> <s_m_source_file>
AV-unprocessed.smi

> <i_m_source_file_index>
377

> <i_lp_mmshare_version>
43012

> <i_f3d_flags>
0

> <s_epik_input>
W0NIM11bQ0gyXVtOSF1DKD1PKVtDSDJdbjFjKD1PKWMoQyNOKVtjSF1uKGMxPU8pW0NIXTJbQ0gyXVtDSDJdMg==

> <s_epik_cmdline>
J2VwaWtfcHl0aG9uJywgJy1waCcsICc3LjAnLCAnLXRuJywgJzgnLCAnLW1hJywgJzIwMCcsICctbWV0YWxfYmluZGluZycsICctaW1hZScsICc8aW5maWxlLm1hZT4nLCAnLW9tYWUnLCAnPG91dGZpbGUubWFlPic=

> <r_lp_tautomer_probability>
1

> <r_epik_Ionization_Penalty>
1.81858e-08

> <r_epik_Ionization_Penalty_Charging>
8.22213e-11

> <r_epik_Ionization_Penalty_Neutral>
1.81036e-08

> <r_epik_State_Penalty>
-0

> <r_epik_Charging_Adjusted_Penalty>
8.22213e-11

> <i_epik_Tot_Q>
0

> <i_epik_Tot_abs_Q>
0

> <r_epik_Metal_State_Penalty>
-0

> <b_epik_Metal_Only>
0

> <s_lp_Force_Field>
OPLS_2005

> <r_lp_Energy>
28.0616

> <b_lp_Chiralities_Consistent>
1

> <s_lp_Variant>
AV-unprocessed.smi:377-1

> <Gold.Version>
5.8.1

> <Gold.Id.Protein>
6NUR|6NUR_protein|mol2

> <Gold.PLP.Fitness>
42.4969

> <Gold.PLP.PLP>
-32.5958

> <Gold.PLP.part.hbond>
-3.9106

> <Gold.PLP.part.metal>
0.0000

> <Gold.PLP.part.buried>
-2.7725

> <Gold.PLP.part.nonpolar>
-26.1906

> <Gold.PLP.part.repulsive>
2.1003

> <Gold.PLP.ligand.clash>
0.0000

> <Gold.PLP.ligand.torsion>
0.8504

> <Gold.PLP.Chemscore.Hbond>
3.0000

> <Gold.PLP.Chemscore.CHOScore>
0.7970

> <Gold.PLP.Chemscore.Metal>
0.0000

> <Gold.Chemscore.Hbonds>
donor molecule, donor type, donor heavy atom, donor atom, acceptor molecule, acceptor atom, score
      L1  H     3    25       P1  7948  1.00
      P1  H  7997  8010       L1    19  1.00
      P1  H 10752 10765       L1     5  0.65
      L1  C    13    28       P1  8028  0.95

> <Gold.PLP.Chemscore.Internal.Correction>
0.2107

> <Gold.Rescore>
     Score         DG    S(hbond)    S(metal)    S(lipo)     H(rot)  DE(clash)    DE(int)     intcor
     11.93     -13.01       1.76        0.00      55.40       1.89       0.31       0.77       ----

> <Gold.Chemscore.Fitness>
11.9284

> <Gold.Chemscore.DG>
-13.0097

> <Gold.Chemscore.ZeroCoef>
-5.4800

> <Gold.Chemscore.Hbond>
1.7630

> <Gold.Chemscore.Metal>
0.0000

> <Gold.Chemscore.Lipo>
55.3992

> <Gold.Chemscore.Internal_Hbond>
0.0000

> <Gold.Chemscore.DEClash>
0.3135

> <Gold.Chemscore.DEInternal>
0.7678

> <Gold.Chemscore.Rot>
1.8908

> <Gold.Chemscore.Internal.Correction>
   9.000000E+99

> <Gold.Chemscore.Hbonds>
donor molecule, donor type, donor heavy atom, donor atom, acceptor molecule, acceptor atom, score
      L1  H     3    25       P1  7948  0.25
      P1  H  7997  8010       L1    19  1.00
      P1  H 10752 10765       L1     5  0.06

> <Gold.Chemscore.Hbond.Weighted>
-5.8885

> <Gold.Chemscore.Metal.Weighted>
-0.0000

> <Gold.Chemscore.Lipo.Weighted>
-6.4817

> <Gold.Chemscore.Internal_Hbond.Weighted>
0.0000

> <Gold.Chemscore.DEClash.Weighted>
0.3135

> <Gold.Chemscore.DEInternal.Weighted>
0.7678

> <Gold.Chemscore.Rot.Weighted>
4.8406

> <Gold.Chemscore.Internal.Correction.Weighted>
   9.000000E+99

> <Gold.Protein.RotatedTorsions>
[ 6907 6896 6895 6894 ] final  -50.72 input  -60.11 | X-H torsion
[ 7974 7965 7964 7962 ] final  140.05 input  175.53 | X-H torsion
[ 8008 7997 7996 7995 ] final   71.33 input   59.86 | X-H torsion
[ 10167 10162 10161 10158 ] final -121.54 input  -65.29 | X-H torsion
[ 10718 10713 10712 10709 ] final  -38.06 input   66.30 | X-H torsion
[ 10763 10752 10751 10750 ] final -158.83 input  -60.55 | X-H torsion
[ 11005 11000 10999 10996 ] final -135.94 input  -57.11 | X-H torsion

> <Gold.Protein.ActiveResidues>
 VAL166  LYS551  ARG553  GLY616  TRP617  ASP618  TYR619  PRO620  LYS621  CYS622 
 ASP623  PHE694  ASN695  SER759  ASP760  ASP761  ALA762  ILE779  LEU786  VAL792 
 PHE793  MET794  SER795  GLU796  ALA797  LYS798  CYS799  TRP800  GLU811  SER814 

> <Gold.Protein.RotatedAtoms>
  150.8680  134.8048  159.7133 H   0  0  0  0  0  0  0  0  0  0  0  0  # atno 6907 bound_to 6896
  152.4695  134.4992  159.9729 H   0  0  0  0  0  0  0  0  0  0  0  0  # atno 6908 bound_to 6896
  151.5085  133.3451  159.2916 H   0  0  0  0  0  0  0  0  0  0  0  0  # atno 6909 bound_to 6896
  144.9222  139.5153  143.5658 H   0  0  0  0  0  0  0  0  0  0  0  0  # atno 7974 bound_to 7965
  155.7523  140.3488  155.5156 H   0  0  0  0  0  0  0  0  0  0  0  0  # atno 8008 bound_to 7997
  155.8993  140.1031  157.1383 H   0  0  0  0  0  0  0  0  0  0  0  0  # atno 8009 bound_to 7997
  154.4042  140.1289  156.4402 H   0  0  0  0  0  0  0  0  0  0  0  0  # atno 8010 bound_to 7997
  140.0240  143.5315  152.2207 H   0  0  0  0  0  0  0  0  0  0  0  0  # atno 10167 bound_to 10162
  156.3081  130.4249  149.8077 H   0  0  0  0  0  0  0  0  0  0  0  0  # atno 10718 bound_to 10713
  154.7524  135.3096  154.8532 H   0  0  0  0  0  0  0  0  0  0  0  0  # atno 10763 bound_to 10752
  153.9316  135.6784  153.4749 H   0  0  0  0  0  0  0  0  0  0  0  0  # atno 10764 bound_to 10752
  153.1121  135.4862  154.8981 H   0  0  0  0  0  0  0  0  0  0  0  0  # atno 10765 bound_to 10752
  140.8851  134.1882  157.4565 H   0  0  0  0  0  0  0  0  0  0  0  0  # atno 11005 bound_to 11000
  146.3210  139.8110  142.8946 LP  0  0  0  0  0  0  0  0  0  0  0  0  # atno 17320 bound_to 7965
  145.3278  141.0259  143.3464 LP  0  0  0  0  0  0  0  0  0  0  0  0  # atno 17321 bound_to 7965
  139.6121  144.7611  151.2929 LP  0  0  0  0  0  0  0  0  0  0  0  0  # atno 17342 bound_to 10162
  140.7330  143.6806  150.8004 LP  0  0  0  0  0  0  0  0  0  0  0  0  # atno 17343 bound_to 10162
  156.5430  130.8308  151.3275 LP  0  0  0  0  0  0  0  0  0  0  0  0  # atno 17370 bound_to 10713
  157.7384  130.9813  150.2253 LP  0  0  0  0  0  0  0  0  0  0  0  0  # atno 17371 bound_to 10713
  139.8723  134.9834  156.5197 LP  0  0  0  0  0  0  0  0  0  0  0  0  # atno 17394 bound_to 11000
  140.8414  133.8202  155.9079 LP  0  0  0  0  0  0  0  0  0  0  0  0  # atno 17395 bound_to 11000

$$$$
