AV-unprocessed.smi:1238|AV-procd|sdf|5184|dock6
  -GOLD-   22720 4263D 1   1.00000     0.00000
 Structure written by MMmdl.
 42 43  0  0  0  0  0  0  0  0  2 V2000
  152.1512  143.0711  159.4785 C   0  0  0  0  0  0  0  0  0  0  0  0
  151.1237  142.0996  159.5649 O   0  0  0  0  0  0  0  0  0  0  0  0
  150.9394  141.3970  158.3475 C   0  0  0  0  0  0  0  0  0  0  0  0
  152.2585  140.7041  157.9660 C   0  0  0  0  0  0  0  0  0  0  0  0
  152.0437  139.6282  156.9701 N   0  0  0  0  0  0  0  0  0  0  0  0
  152.4855  138.2964  157.2382 C   0  0  0  0  0  0  0  0  0  0  0  0
  153.3962  138.0717  158.8141 S   0  0  0  0  0  0  0  0  0  0  0  0
  154.7408  136.9629  158.3055 C   0  0  0  0  0  0  0  0  0  0  0  0
  155.8596  137.7043  157.5803 C   0  0  0  0  0  0  0  0  0  0  0  0
  156.4963  138.5832  158.1610 O   0  0  0  0  0  0  0  0  0  0  0  0
  156.0903  137.3413  156.3092 N   0  0  0  0  0  0  0  0  0  0  0  0
  157.1029  137.9332  155.4397 C   0  0  0  0  0  0  0  0  0  0  0  0
  156.4854  138.4881  154.1392 C   0  0  0  0  0  0  0  0  0  0  0  0
  157.3424  137.9420  152.9962 C   0  0  0  0  0  0  0  0  0  0  0  0
  157.8665  136.6100  153.5227 C   0  0  0  0  0  0  0  0  0  0  0  0
  158.1319  136.8731  155.0054 C   0  0  0  0  0  0  0  0  0  0  0  0
  152.2562  137.3396  156.3931 N   0  0  0  0  0  0  0  0  0  0  0  0
  151.5916  137.5513  155.1859 C   0  0  0  0  0  0  0  0  0  0  0  0
  151.4516  136.5036  154.5181 O   0  5  0  0  0  0  0  0  0  0  0  0
  151.1934  138.8429  154.8835 C   0  0  0  0  0  0  0  0  0  0  0  0
  151.4341  139.9582  155.7902 C   0  0  0  0  0  0  0  0  0  0  0  0
  151.1023  141.1100  155.5043 O   0  0  0  0  0  0  0  0  0  0  0  0
  152.2544  143.5819  160.4356 H   0  0  0  0  0  0  0  0  0  0  0  0
  151.9216  143.8211  158.7204 H   0  0  0  0  0  0  0  0  0  0  0  0
  153.1101  142.6112  159.2367 H   0  0  0  0  0  0  0  0  0  0  0  0
  150.1465  140.6565  158.4634 H   0  0  0  0  0  0  0  0  0  0  0  0
  150.6277  142.0892  157.5643 H   0  0  0  0  0  0  0  0  0  0  0  0
  153.0024  141.4324  157.6466 H   0  0  0  0  0  0  0  0  0  0  0  0
  152.7113  140.3008  158.8735 H   0  0  0  0  0  0  0  0  0  0  0  0
  154.3420  136.1861  157.6520 H   0  0  0  0  0  0  0  0  0  0  0  0
  155.1466  136.4646  159.1869 H   0  0  0  0  0  0  0  0  0  0  0  0
  155.5164  136.6107  155.9133 H   0  0  0  0  0  0  0  0  0  0  0  0
  157.6227  138.7274  155.9789 H   0  0  0  0  0  0  0  0  0  0  0  0
  155.4618  138.1300  154.0159 H   0  0  0  0  0  0  0  0  0  0  0  0
  156.4468  139.5779  154.1356 H   0  0  0  0  0  0  0  0  0  0  0  0
  156.7834  137.8371  152.0659 H   0  0  0  0  0  0  0  0  0  0  0  0
  158.1790  138.6165  152.8082 H   0  0  0  0  0  0  0  0  0  0  0  0
  157.0966  135.8446  153.4163 H   0  0  0  0  0  0  0  0  0  0  0  0
  158.7547  136.2673  152.9913 H   0  0  0  0  0  0  0  0  0  0  0  0
  159.1369  137.2810  155.1218 H   0  0  0  0  0  0  0  0  0  0  0  0
  158.0888  135.9576  155.5972 H   0  0  0  0  0  0  0  0  0  0  0  0
  150.6817  139.0371  153.9521 H   0  0  0  0  0  0  0  0  0  0  0  0
  1  2  1  0  0  0  0
  1 23  1  0  0  0  0
  1 24  1  0  0  0  0
  1 25  1  0  0  0  0
  2  3  1  0  0  0  0
  3  4  1  0  0  0  0
  3 26  1  0  0  0  0
  3 27  1  0  0  0  0
  4 28  1  0  0  0  0
  4 29  1  0  0  0  0
  4  5  1  0  0  0  0
  5  6  1  0  0  0  0
  5 21  1  0  0  0  0
  6 17  2  0  0  0  0
  6  7  1  0  0  0  0
  7  8  1  0  0  0  0
  8  9  1  0  0  0  0
  8 30  1  0  0  0  0
  8 31  1  0  0  0  0
  9 10  2  0  0  0  0
  9 11  1  0  0  0  0
 11 12  1  0  0  0  0
 11 32  1  0  0  0  0
 12 16  1  0  0  0  0
 12 13  1  0  0  0  0
 12 33  1  0  0  0  0
 13 14  1  0  0  0  0
 13 34  1  0  0  0  0
 13 35  1  0  0  0  0
 14 15  1  0  0  0  0
 14 36  1  0  0  0  0
 14 37  1  0  0  0  0
 15 16  1  0  0  0  0
 15 38  1  0  0  0  0
 15 39  1  0  0  0  0
 16 40  1  0  0  0  0
 16 41  1  0  0  0  0
 17 18  1  0  0  0  0
 18 20  2  0  0  0  0
 18 19  1  0  0  0  0
 20 21  1  0  0  0  0
 20 42  1  0  0  0  0
 21 22  2  0  0  0  0
M  CHG  1  19  -1
M  END
> <s_m_source_file>
AV-unprocessed.smi

> <i_m_source_file_index>
1238

> <i_lp_mmshare_version>
43012

> <i_f3d_flags>
0

> <s_epik_input>
W0NIM11PW0NIMl1bQ0gyXW4xYyhuYyhbT0hdKVtjSF1jMT1PKVNbQ0gyXUMoPU8pW05IXVtDSF0yW0NIMl1bQ0gyXVtDSDJdW0NIMl0y

> <s_epik_cmdline>
J2VwaWtfcHl0aG9uJywgJy1waCcsICc3LjAnLCAnLXRuJywgJzgnLCAnLW1hJywgJzIwMCcsICctbWV0YWxfYmluZGluZycsICctaW1hZScsICc8aW5maWxlLm1hZT4nLCAnLW9tYWUnLCAnPG91dGZpbGUubWFlPic=

> <r_lp_tautomer_probability>
1

> <r_epik_Ionization_Penalty>
0.0116372

> <r_epik_Ionization_Penalty_Charging>
3.186e-07

> <r_epik_Ionization_Penalty_Neutral>
0.0116369

> <r_epik_State_Penalty>
0.000414464

> <r_epik_Charging_Adjusted_Penalty>
0.000414782

> <i_epik_Tot_Q>
-1

> <i_epik_Tot_abs_Q>
1

> <r_epik_Metal_State_Penalty>
-0

> <b_epik_Metal_Only>
0

> <s_lp_Force_Field>
OPLS_2005

> <r_lp_Energy>
27.578

> <b_lp_Chiralities_Consistent>
1

> <s_lp_Variant>
AV-unprocessed.smi:1238-1

> <Gold.Version>
5.8.1

> <Gold.Id.Protein>
6NUR|6NUR_protein|mol2

> <Gold.PLP.Fitness>
43.8387

> <Gold.PLP.PLP>
-35.0892

> <Gold.PLP.part.hbond>
-4.4699

> <Gold.PLP.part.metal>
0.0000

> <Gold.PLP.part.buried>
-3.0253

> <Gold.PLP.part.nonpolar>
-28.7982

> <Gold.PLP.part.repulsive>
1.5223

> <Gold.PLP.ligand.clash>
0.0000

> <Gold.PLP.ligand.torsion>
0.4416

> <Gold.PLP.Chemscore.Hbond>
3.1678

> <Gold.PLP.Chemscore.CHOScore>
0.0000

> <Gold.PLP.Chemscore.Metal>
0.0000

> <Gold.Chemscore.Hbonds>
donor molecule, donor type, donor heavy atom, donor atom, acceptor molecule, acceptor atom, score
      P1  H  7989  7998       L1    22  0.38
      P1  H  7997  8008       L1    10  0.95
      P1  H 10752 10763       L1    19  2.00

> <Gold.PLP.Chemscore.Internal.Correction>
0.1291

> <Gold.Rescore>
     Score         DG    S(hbond)    S(metal)    S(lipo)     H(rot)  DE(clash)    DE(int)     intcor
     13.03     -14.76       1.76        0.00      83.95       2.51       0.23       1.50       ----

> <Gold.Chemscore.Fitness>
13.0350

> <Gold.Chemscore.DG>
-14.7598

> <Gold.Chemscore.ZeroCoef>
-5.4800

> <Gold.Chemscore.Hbond>
1.7634

> <Gold.Chemscore.Metal>
0.0000

> <Gold.Chemscore.Lipo>
83.9460

> <Gold.Chemscore.Internal_Hbond>
0.0000

> <Gold.Chemscore.DEClash>
0.2269

> <Gold.Chemscore.DEInternal>
1.4980

> <Gold.Chemscore.Rot>
2.5124

> <Gold.Chemscore.Internal.Correction>
   9.000000E+99

> <Gold.Chemscore.Hbonds>
donor molecule, donor type, donor heavy atom, donor atom, acceptor molecule, acceptor atom, score
      P1  H  7989  7998       L1    22  0.04
      P1  H  7997  8008       L1    10  0.21
      P1  H 10752 10763       L1    19  0.82

> <Gold.Chemscore.Hbond.Weighted>
-5.8899

> <Gold.Chemscore.Metal.Weighted>
-0.0000

> <Gold.Chemscore.Lipo.Weighted>
-9.8217

> <Gold.Chemscore.Internal_Hbond.Weighted>
0.0000

> <Gold.Chemscore.DEClash.Weighted>
0.2269

> <Gold.Chemscore.DEInternal.Weighted>
1.4980

> <Gold.Chemscore.Rot.Weighted>
6.4318

> <Gold.Chemscore.Internal.Correction.Weighted>
   9.000000E+99

> <Gold.Protein.RotatedTorsions>
[ 6907 6896 6895 6894 ] final -153.62 input  -60.11 | X-H torsion
[ 7974 7965 7964 7962 ] final   39.15 input  175.53 | X-H torsion
[ 8008 7997 7996 7995 ] final -171.11 input   59.86 | X-H torsion
[ 10167 10162 10161 10158 ] final  158.58 input  -65.29 | X-H torsion
[ 10718 10713 10712 10709 ] final -122.77 input   66.30 | X-H torsion
[ 10763 10752 10751 10750 ] final   46.88 input  -60.55 | X-H torsion
[ 11005 11000 10999 10996 ] final  115.94 input  -57.11 | X-H torsion

> <Gold.Protein.ActiveResidues>
 VAL166  LYS551  ARG553  GLY616  TRP617  ASP618  TYR619  PRO620  LYS621  CYS622 
 ASP623  PHE694  ASN695  SER759  ASP760  ASP761  ALA762  ILE779  LEU786  VAL792 
 PHE793  MET794  SER795  GLU796  ALA797  LYS798  CYS799  TRP800  GLU811  SER814 

> <Gold.Protein.RotatedAtoms>
  151.2452  133.4378  159.2608 H   0  0  0  0  0  0  0  0  0  0  0  0  # atno 6907 bound_to 6896
  151.0668  134.9773  159.8298 H   0  0  0  0  0  0  0  0  0  0  0  0  # atno 6908 bound_to 6896
  152.5406  134.2400  159.8911 H   0  0  0  0  0  0  0  0  0  0  0  0  # atno 6909 bound_to 6896
  146.1007  139.5687  142.9416 H   0  0  0  0  0  0  0  0  0  0  0  0  # atno 7974 bound_to 7965
  155.9272  140.1085  157.1161 H   0  0  0  0  0  0  0  0  0  0  0  0  # atno 8008 bound_to 7997
  154.4064  140.1244  156.4821 H   0  0  0  0  0  0  0  0  0  0  0  0  # atno 8009 bound_to 7997
  155.7124  140.3471  155.4982 H   0  0  0  0  0  0  0  0  0  0  0  0  # atno 8010 bound_to 7997
  139.4827  144.4811  151.8442 H   0  0  0  0  0  0  0  0  0  0  0  0  # atno 10167 bound_to 10162
  156.1446  130.6491  150.9823 H   0  0  0  0  0  0  0  0  0  0  0  0  # atno 10718 bound_to 10713
  152.9806  135.5994  154.3671 H   0  0  0  0  0  0  0  0  0  0  0  0  # atno 10763 bound_to 10752
  154.3348  135.2768  155.2455 H   0  0  0  0  0  0  0  0  0  0  0  0  # atno 10764 bound_to 10752
  154.4563  135.5977  153.6281 H   0  0  0  0  0  0  0  0  0  0  0  0  # atno 10765 bound_to 10752
  139.9025  134.9591  156.7122 H   0  0  0  0  0  0  0  0  0  0  0  0  # atno 11005 bound_to 11000
  145.5860  141.0376  143.2096 LP  0  0  0  0  0  0  0  0  0  0  0  0  # atno 17320 bound_to 7965
  144.7430  139.7396  143.7303 LP  0  0  0  0  0  0  0  0  0  0  0  0  # atno 17321 bound_to 7965
  140.4287  144.2145  150.5887 LP  0  0  0  0  0  0  0  0  0  0  0  0  # atno 17342 bound_to 10162
  140.4801  143.2382  151.8967 LP  0  0  0  0  0  0  0  0  0  0  0  0  # atno 17343 bound_to 10162
  157.6605  131.0881  150.7848 LP  0  0  0  0  0  0  0  0  0  0  0  0  # atno 17370 bound_to 10713
  156.7921  130.4893  149.5383 LP  0  0  0  0  0  0  0  0  0  0  0  0  # atno 17371 bound_to 10713
  140.7066  133.9260  155.8058 LP  0  0  0  0  0  0  0  0  0  0  0  0  # atno 17394 bound_to 11000
  141.0332  134.0727  157.3990 LP  0  0  0  0  0  0  0  0  0  0  0  0  # atno 17395 bound_to 11000

$$$$
