AV-unprocessed.smi:788|AV-procd|sdf|3736|dock8
  -GOLD-   22720 1173D 1   1.00000     0.00000
 Structure written by MMmdl.
 34 35  0  0  0  0  0  0  0  0  2 V2000
  152.0408  144.5565  156.8824 C   0  0  0  0  0  0  0  0  0  0  0  0
  152.4607  144.3191  158.3430 C   0  0  1  0  0  0  0  0  0  0  0  0
  151.3978  144.8459  159.3288 C   0  0  0  0  0  0  0  0  0  0  0  0
  151.8419  144.6609  160.7879 C   0  0  0  0  0  0  0  0  0  0  0  0
  152.1930  143.1956  161.0879 C   0  0  0  0  0  0  0  0  0  0  0  0
  153.2594  142.6577  160.1113 C   0  0  1  0  0  0  0  0  0  0  0  0
  153.6443  141.2055  160.4436 C   0  0  0  0  0  0  0  0  0  0  0  0
  152.8138  142.8392  158.6384 C   0  0  1  0  0  0  0  0  0  0  0  0
  151.6823  141.9594  158.3356 N   0  0  0  0  0  0  0  0  0  0  0  0
  151.7188  140.6759  157.9271 C   0  0  0  0  0  0  0  0  0  0  0  0
  152.8073  140.1325  157.7472 O   0  0  0  0  0  0  0  0  0  0  0  0
  150.5296  140.0463  157.7341 N   0  5  0  0  0  0  0  0  0  0  0  0
  150.1259  139.6265  156.5204 C   0  0  0  0  0  0  0  0  0  0  0  0
  148.8511  139.2943  156.2602 N   0  0  0  0  0  0  0  0  0  0  0  0
  148.6538  138.8699  154.9534 N   0  0  0  0  0  0  0  0  0  0  0  0
  149.7883  138.9038  154.2549 C   0  0  0  0  0  0  0  0  0  0  0  0
  151.2011  139.4551  155.1300 S   0  0  0  0  0  0  0  0  0  0  0  0
  151.0950  144.0662  156.6497 H   0  0  0  0  0  0  0  0  0  0  0  0
  152.7927  144.1741  156.1916 H   0  0  0  0  0  0  0  0  0  0  0  0
  151.9173  145.6204  156.6792 H   0  0  0  0  0  0  0  0  0  0  0  0
  153.3686  144.9023  158.5039 H   0  0  0  0  0  0  0  0  0  0  0  0
  151.2056  145.9025  159.1393 H   0  0  0  0  0  0  0  0  0  0  0  0
  150.4503  144.3295  159.1674 H   0  0  0  0  0  0  0  0  0  0  0  0
  152.7088  145.2917  160.9876 H   0  0  0  0  0  0  0  0  0  0  0  0
  151.0532  144.9984  161.4609 H   0  0  0  0  0  0  0  0  0  0  0  0
  152.5524  143.1117  162.1139 H   0  0  0  0  0  0  0  0  0  0  0  0
  151.2908  142.5850  161.0296 H   0  0  0  0  0  0  0  0  0  0  0  0
  154.1590  143.2593  160.2504 H   0  0  0  0  0  0  0  0  0  0  0  0
  152.7833  140.5378  160.3952 H   0  0  0  0  0  0  0  0  0  0  0  0
  154.0605  141.1318  161.4485 H   0  0  0  0  0  0  0  0  0  0  0  0
  154.3953  140.8304  159.7478 H   0  0  0  0  0  0  0  0  0  0  0  0
  153.6634  142.5708  158.0086 H   0  0  0  0  0  0  0  0  0  0  0  0
  150.7667  142.3659  158.4579 H   0  0  0  0  0  0  0  0  0  0  0  0
  149.7932  138.6032  153.2180 H   0  0  0  0  0  0  0  0  0  0  0  0
  1  2  1  0  0  0  0
  1 18  1  0  0  0  0
  1 19  1  0  0  0  0
  1 20  1  0  0  0  0
  2  8  1  0  0  0  0
  2  3  1  0  0  0  0
  2 21  1  0  0  0  0
  3  4  1  0  0  0  0
  3 22  1  0  0  0  0
  3 23  1  0  0  0  0
  4  5  1  0  0  0  0
  4 24  1  0  0  0  0
  4 25  1  0  0  0  0
  5  6  1  0  0  0  0
  5 26  1  0  0  0  0
  5 27  1  0  0  0  0
  6  7  1  0  0  0  0
  6  8  1  0  0  0  0
  6 28  1  0  0  0  0
  7 29  1  0  0  0  0
  7 30  1  0  0  0  0
  7 31  1  0  0  0  0
  8  9  1  0  0  0  0
  8 32  1  0  0  0  0
  9 10  1  0  0  0  0
  9 33  1  0  0  0  0
 10 11  2  0  0  0  0
 10 12  1  0  0  0  0
 12 13  1  0  0  0  0
 13 17  1  0  0  0  0
 13 14  2  0  0  0  0
 14 15  1  0  0  0  0
 15 16  2  0  0  0  0
 16 17  1  0  0  0  0
 16 34  1  0  0  0  0
M  CHG  1  12  -1
M  END
> <s_m_source_file>
AV-unprocessed.smi

> <i_m_source_file_index>
788

> <i_lp_mmshare_version>
43012

> <i_f3d_flags>
0

> <s_epik_input>
W0NIM11bQ0BASF0xW0NIMl1bQ0gyXVtDSDJdW0NAQEhdKFtDSDNdKVtDQEhdMVtOSF1DKD1PKVtOSF1jMm5uW2NIXXMy

> <s_epik_cmdline>
J2VwaWtfcHl0aG9uJywgJy1waCcsICc3LjAnLCAnLXRuJywgJzgnLCAnLW1hJywgJzIwMCcsICctbWV0YWxfYmluZGluZycsICctaW1hZScsICc8aW5maWxlLm1hZT4nLCAnLW9tYWUnLCAnPG91dGZpbGUubWFlPic=

> <r_lp_tautomer_probability>
1

> <r_epik_Ionization_Penalty>
4.58638

> <r_epik_Ionization_Penalty_Charging>
4.53816

> <r_epik_Ionization_Penalty_Neutral>
0.048215

> <r_epik_State_Penalty>
4.53788

> <r_epik_Charging_Adjusted_Penalty>
9.07605

> <i_epik_Tot_Q>
-1

> <i_epik_Tot_abs_Q>
1

> <r_epik_Metal_State_Penalty>
0.838628

> <b_epik_Metal_Only>
1

> <s_lp_Force_Field>
OPLS_2005

> <r_lp_Energy>
10.1282

> <b_lp_Chiralities_Consistent>
1

> <s_lp_Variant>
AV-unprocessed.smi:788-6

> <Gold.Version>
5.8.1

> <Gold.Id.Protein>
6NUR|6NUR_protein|mol2

> <Gold.PLP.Fitness>
41.8180

> <Gold.PLP.PLP>
-36.9834

> <Gold.PLP.part.hbond>
-1.0000

> <Gold.PLP.part.metal>
0.0000

> <Gold.PLP.part.buried>
-3.8063

> <Gold.PLP.part.nonpolar>
-31.5621

> <Gold.PLP.part.repulsive>
0.1648

> <Gold.PLP.ligand.clash>
0.0000

> <Gold.PLP.ligand.torsion>
1.0430

> <Gold.PLP.Chemscore.Hbond>
1.0000

> <Gold.PLP.Chemscore.CHOScore>
1.3044

> <Gold.PLP.Chemscore.Metal>
0.0000

> <Gold.Chemscore.Hbonds>
donor molecule, donor type, donor heavy atom, donor atom, acceptor molecule, acceptor atom, score
      P1  H  7997  8010       L1    11  1.00
      L1  C    16    34       P1  7948  0.29
      L1  C    16    34       P1  7957  0.99

> <Gold.PLP.Chemscore.Internal.Correction>
0.0075

> <Gold.Rescore>
     Score         DG    S(hbond)    S(metal)    S(lipo)     H(rot)  DE(clash)    DE(int)     intcor
     17.11     -19.05       0.95        0.00     110.66       1.00       0.90       1.04       ----

> <Gold.Chemscore.Fitness>
17.1088

> <Gold.Chemscore.DG>
-19.0475

> <Gold.Chemscore.ZeroCoef>
-5.4800

> <Gold.Chemscore.Hbond>
0.9521

> <Gold.Chemscore.Metal>
0.0000

> <Gold.Chemscore.Lipo>
110.6632

> <Gold.Chemscore.Internal_Hbond>
0.0000

> <Gold.Chemscore.DEClash>
0.9018

> <Gold.Chemscore.DEInternal>
1.0369

> <Gold.Chemscore.Rot>
1.0000

> <Gold.Chemscore.Internal.Correction>
   9.000000E+99

> <Gold.Chemscore.Hbonds>
donor molecule, donor type, donor heavy atom, donor atom, acceptor molecule, acceptor atom, score
      P1  H  7997  8010       L1    11  0.95

> <Gold.Chemscore.Hbond.Weighted>
-3.1799

> <Gold.Chemscore.Metal.Weighted>
-0.0000

> <Gold.Chemscore.Lipo.Weighted>
-12.9476

> <Gold.Chemscore.Internal_Hbond.Weighted>
0.0000

> <Gold.Chemscore.DEClash.Weighted>
0.9018

> <Gold.Chemscore.DEInternal.Weighted>
1.0369

> <Gold.Chemscore.Rot.Weighted>
2.5600

> <Gold.Chemscore.Internal.Correction.Weighted>
   9.000000E+99

> <Gold.Protein.RotatedTorsions>
[ 6907 6896 6895 6894 ] final -127.89 input  -60.11 | X-H torsion
[ 7974 7965 7964 7962 ] final -172.88 input  175.53 | X-H torsion
[ 8008 7997 7996 7995 ] final   42.25 input   59.86 | X-H torsion
[ 10167 10162 10161 10158 ] final  166.71 input  -65.29 | X-H torsion
[ 10718 10713 10712 10709 ] final   95.51 input   66.30 | X-H torsion
[ 10763 10752 10751 10750 ] final -121.20 input  -60.55 | X-H torsion
[ 11005 11000 10999 10996 ] final  176.30 input  -57.11 | X-H torsion

> <Gold.Protein.ActiveResidues>
 VAL166  LYS551  ARG553  GLY616  TRP617  ASP618  TYR619  PRO620  LYS621  CYS622 
 ASP623  PHE694  ASN695  SER759  ASP760  ASP761  ALA762  ILE779  LEU786  VAL792 
 PHE793  MET794  SER795  GLU796  ALA797  LYS798  CYS799  TRP800  GLU811  SER814 

> <Gold.Protein.RotatedAtoms>
  150.9120  133.6985  159.2852 H   0  0  0  0  0  0  0  0  0  0  0  0  # atno 6907 bound_to 6896
  151.4469  135.1024  159.9696 H   0  0  0  0  0  0  0  0  0  0  0  0  # atno 6908 bound_to 6896
  152.4935  133.8515  159.7259 H   0  0  0  0  0  0  0  0  0  0  0  0  # atno 6909 bound_to 6896
  144.7142  140.1706  143.6368 H   0  0  0  0  0  0  0  0  0  0  0  0  # atno 7974 bound_to 7965
  155.2831  140.3374  155.4257 H   0  0  0  0  0  0  0  0  0  0  0  0  # atno 8008 bound_to 7997
  156.2081  140.1759  156.7797 H   0  0  0  0  0  0  0  0  0  0  0  0  # atno 8009 bound_to 7997
  154.5648  140.0681  156.8859 H   0  0  0  0  0  0  0  0  0  0  0  0  # atno 8010 bound_to 7997
  139.4930  144.3999  151.9421 H   0  0  0  0  0  0  0  0  0  0  0  0  # atno 10167 bound_to 10162
  157.6938  131.0548  150.4350 H   0  0  0  0  0  0  0  0  0  0  0  0  # atno 10718 bound_to 10713
  154.8662  135.4176  154.2582 H   0  0  0  0  0  0  0  0  0  0  0  0  # atno 10763 bound_to 10752
  153.3515  135.6999  153.6790 H   0  0  0  0  0  0  0  0  0  0  0  0  # atno 10764 bound_to 10752
  153.5728  135.3588  155.2817 H   0  0  0  0  0  0  0  0  0  0  0  0  # atno 10765 bound_to 10752
  140.3716  134.7025  157.4396 H   0  0  0  0  0  0  0  0  0  0  0  0  # atno 11005 bound_to 11000
  145.8947  139.2396  143.1529 LP  0  0  0  0  0  0  0  0  0  0  0  0  # atno 17320 bound_to 7965
  145.9869  140.8635  143.0086 LP  0  0  0  0  0  0  0  0  0  0  0  0  # atno 17321 bound_to 7965
  140.3438  144.3171  150.5962 LP  0  0  0  0  0  0  0  0  0  0  0  0  # atno 17342 bound_to 10162
  140.5543  143.2201  151.7873 LP  0  0  0  0  0  0  0  0  0  0  0  0  # atno 17343 bound_to 10162
  156.4713  130.4053  149.6516 LP  0  0  0  0  0  0  0  0  0  0  0  0  # atno 17370 bound_to 10713
  156.3595  130.7474  151.2444 LP  0  0  0  0  0  0  0  0  0  0  0  0  # atno 17371 bound_to 10713
  140.0547  134.6080  155.8819 LP  0  0  0  0  0  0  0  0  0  0  0  0  # atno 17394 bound_to 11000
  141.1952  133.6586  156.5634 LP  0  0  0  0  0  0  0  0  0  0  0  0  # atno 17395 bound_to 11000

$$$$
