AV-unprocessed.smi:247|AV-procd|sdf|1894|dock10
  -GOLD-   2262020563D 1   1.00000     0.00000
 Structure written by MMmdl.
 61 65  0  0  0  0  0  0  0  0  1 V2000
  145.9124  136.7547  150.6959 O   0  0  0  0  0  0  0  0  0  0  0  0
  145.4975  136.1695  151.9148 C   0  0  0  0  0  0  0  0  0  0  0  0
  145.3768  134.6214  151.8485 C   0  0  0  0  0  0  0  0  0  0  0  0
  145.1076  134.0821  153.2892 C   0  0  0  0  0  0  0  0  0  0  0  0
  145.8736  134.7297  154.3450 N   0  0  0  0  0  0  0  0  0  0  0  0
  147.2437  134.7404  154.4823 C   0  0  0  0  0  0  0  0  0  0  0  0
  147.6957  135.3991  155.5138 N   0  0  0  0  0  0  0  0  0  0  0  0
  146.5523  135.8962  156.1278 C   0  0  0  0  0  0  0  0  0  0  0  0
  146.3154  136.6975  157.2806 C   0  0  0  0  0  0  0  0  0  0  0  0
  147.3190  137.1416  158.0812 N   0  0  0  0  0  0  0  0  0  0  0  0
  148.0752  138.2905  157.5938 C   0  0  0  0  0  0  0  0  0  0  0  0
  149.5314  138.0541  158.0048 C   0  0  0  0  0  0  0  0  0  0  0  0
  149.4225  137.0829  159.1754 C   0  0  0  0  0  0  0  0  0  0  0  0
  148.2186  136.2197  158.7762 C   0  0  1  0  0  0  0  0  0  0  0  0
  147.5532  135.4017  159.9236 C   0  0  1  0  0  0  0  0  0  0  0  0
  148.0010  133.9250  159.8568 C   0  0  0  0  0  0  0  0  0  0  0  0
  147.3299  133.1452  160.8405 O   0  0  0  0  0  0  0  0  0  0  0  0
  147.6285  133.5538  162.1695 C   0  0  0  0  0  0  0  0  0  0  0  0
  147.1412  134.9931  162.3835 C   0  0  0  0  0  0  0  0  0  0  0  0
  147.7841  135.9391  161.3591 C   0  0  2  0  0  0  0  0  0  0  0  0
  147.2097  137.2185  161.5365 O   0  0  0  0  0  0  0  0  0  0  0  0
  145.0237  137.0084  157.5684 N   0  0  0  0  0  0  0  0  0  0  0  0
  144.0318  136.5685  156.7891 C   0  0  0  0  0  0  0  0  0  0  0  0
  144.1055  135.8130  155.6920 N   0  0  0  0  0  0  0  0  0  0  0  0
  145.3986  135.4962  155.3960 C   0  0  0  0  0  0  0  0  0  0  0  0
  144.2506  134.2238  150.8591 C   0  0  0  0  0  0  0  0  0  0  0  0
  144.2321  132.7121  150.5700 C   0  0  0  0  0  0  0  0  0  0  0  0
  145.4961  132.3025  150.0622 O   0  0  0  0  0  0  0  0  0  0  0  0
  146.5605  132.5056  150.9838 C   0  0  0  0  0  0  0  0  0  0  0  0
  146.6968  134.0036  151.3183 C   0  0  0  0  0  0  0  0  0  0  0  0
  145.3548  137.4956  150.5136 H   0  0  0  0  0  0  0  0  0  0  0  0
  146.2097  136.4611  152.6876 H   0  0  0  0  0  0  0  0  0  0  0  0
  144.5417  136.6220  152.1785 H   0  0  0  0  0  0  0  0  0  0  0  0
  144.0559  134.1690  153.5574 H   0  0  0  0  0  0  0  0  0  0  0  0
  145.3250  133.0138  153.3276 H   0  0  0  0  0  0  0  0  0  0  0  0
  147.9029  134.2360  153.7910 H   0  0  0  0  0  0  0  0  0  0  0  0
  147.9893  138.4215  156.5140 H   0  0  0  0  0  0  0  0  0  0  0  0
  147.6869  139.1891  158.0742 H   0  0  0  0  0  0  0  0  0  0  0  0
  150.0713  137.5784  157.1850 H   0  0  0  0  0  0  0  0  0  0  0  0
  150.0544  138.9757  158.2614 H   0  0  0  0  0  0  0  0  0  0  0  0
  150.3326  136.5015  159.3245 H   0  0  0  0  0  0  0  0  0  0  0  0
  149.2284  137.6480  160.0859 H   0  0  0  0  0  0  0  0  0  0  0  0
  148.5784  135.5101  158.0291 H   0  0  0  0  0  0  0  0  0  0  0  0
  146.4764  135.3978  159.7520 H   0  0  0  0  0  0  0  0  0  0  0  0
  147.7689  133.5076  158.8767 H   0  0  0  0  0  0  0  0  0  0  0  0
  149.0797  133.8325  159.9911 H   0  0  0  0  0  0  0  0  0  0  0  0
  147.1281  132.8813  162.8663 H   0  0  0  0  0  0  0  0  0  0  0  0
  148.6999  133.4708  162.3587 H   0  0  0  0  0  0  0  0  0  0  0  0
  146.0547  135.0200  162.2864 H   0  0  0  0  0  0  0  0  0  0  0  0
  147.3729  135.3186  163.3984 H   0  0  0  0  0  0  0  0  0  0  0  0
  148.8494  136.0076  161.5757 H   0  0  0  0  0  0  0  0  0  0  0  0
  146.6722  137.1995  162.3140 H   0  0  0  0  0  0  0  0  0  0  0  0
  143.0365  136.8620  157.0890 H   0  0  0  0  0  0  0  0  0  0  0  0
  143.2759  134.5543  151.2155 H   0  0  0  0  0  0  0  0  0  0  0  0
  144.3980  134.7348  149.9071 H   0  0  0  0  0  0  0  0  0  0  0  0
  143.9762  132.1341  151.4582 H   0  0  0  0  0  0  0  0  0  0  0  0
  143.4700  132.4881  149.8237 H   0  0  0  0  0  0  0  0  0  0  0  0
  146.4046  131.9026  151.8784 H   0  0  0  0  0  0  0  0  0  0  0  0
  147.4834  132.1457  150.5288 H   0  0  0  0  0  0  0  0  0  0  0  0
  147.0107  134.5108  150.4059 H   0  0  0  0  0  0  0  0  0  0  0  0
  147.5039  134.1539  152.0362 H   0  0  0  0  0  0  0  0  0  0  0  0
  1  2  1  0  0  0  0
  1 31  1  0  0  0  0
  2  3  1  0  0  0  0
  2 32  1  0  0  0  0
  2 33  1  0  0  0  0
  3 30  1  0  0  0  0
  3  4  1  0  0  0  0
  3 26  1  0  0  0  0
  4  5  1  0  0  0  0
  4 34  1  0  0  0  0
  4 35  1  0  0  0  0
  5 25  1  0  0  0  0
  5  6  1  0  0  0  0
  6  7  2  0  0  0  0
  6 36  1  0  0  0  0
  7  8  1  0  0  0  0
  8 25  2  0  0  0  0
  8  9  1  0  0  0  0
  9 10  1  0  0  0  0
  9 22  2  0  0  0  0
 10 14  1  0  0  0  0
 10 11  1  0  0  0  0
 11 12  1  0  0  0  0
 11 37  1  0  0  0  0
 11 38  1  0  0  0  0
 12 13  1  0  0  0  0
 12 39  1  0  0  0  0
 12 40  1  0  0  0  0
 13 14  1  0  0  0  0
 13 41  1  0  0  0  0
 13 42  1  0  0  0  0
 14 15  1  0  0  0  0
 14 43  1  0  0  0  0
 15 20  1  0  0  0  0
 15 16  1  0  0  0  0
 15 44  1  0  0  0  0
 16 17  1  0  0  0  0
 16 45  1  0  0  0  0
 16 46  1  0  0  0  0
 17 18  1  0  0  0  0
 18 19  1  0  0  0  0
 18 47  1  0  0  0  0
 18 48  1  0  0  0  0
 19 20  1  0  0  0  0
 19 49  1  0  0  0  0
 19 50  1  0  0  0  0
 20 21  1  0  0  0  0
 20 51  1  0  0  0  0
 21 52  1  0  0  0  0
 22 23  1  0  0  0  0
 23 24  2  0  0  0  0
 23 53  1  0  0  0  0
 24 25  1  0  0  0  0
 26 27  1  0  0  0  0
 26 54  1  0  0  0  0
 26 55  1  0  0  0  0
 27 28  1  0  0  0  0
 27 56  1  0  0  0  0
 27 57  1  0  0  0  0
 28 29  1  0  0  0  0
 29 30  1  0  0  0  0
 29 58  1  0  0  0  0
 29 59  1  0  0  0  0
 30 60  1  0  0  0  0
 30 61  1  0  0  0  0
M  END
> <s_m_source_file>
AV-unprocessed.smi

> <i_m_source_file_index>
247

> <i_lp_mmshare_version>
43012

> <i_f3d_flags>
0

> <s_epik_input>
W0NIMl0xW0NIMl1PW0NIMl1bQ0gyXUMxKFtDSDJdW09IXSlbQ0gyXW4oW2NIXW4yKWMoYzIzKW5bY0hdbmMzTjRbQ0gyXVtDSDJdW0NIMl1bQ0BIXTRbQ0BASF01W0NIMl1PW0NIMl1bQ0gyXVtDQEhdNVtPSF0=

> <s_epik_cmdline>
J2VwaWtfcHl0aG9uJywgJy1waCcsICc3LjAnLCAnLXRuJywgJzgnLCAnLW1hJywgJzIwMCcsICctbWV0YWxfYmluZGluZycsICctaW1hZScsICc8aW5maWxlLm1hZT4nLCAnLW9tYWUnLCAnPG91dGZpbGUubWFlPic=

> <r_lp_tautomer_probability>
1

> <r_epik_Ionization_Penalty>
0.00362597

> <r_epik_Ionization_Penalty_Charging>
0

> <r_epik_Ionization_Penalty_Neutral>
0.00362597

> <r_epik_State_Penalty>
0.00241433

> <r_epik_Charging_Adjusted_Penalty>
0.00241433

> <i_epik_Tot_Q>
0

> <i_epik_Tot_abs_Q>
0

> <r_epik_Metal_State_Penalty>
-0

> <b_epik_Metal_Only>
0

> <s_lp_Force_Field>
OPLS_2005

> <r_lp_Energy>
58.3113

> <b_lp_Chiralities_Consistent>
1

> <s_lp_Variant>
AV-unprocessed.smi:247-7

> <Gold.Version>
5.8.1

> <Gold.Id.Protein>
6NUR|6NUR_protein|mol2

> <Gold.PLP.Fitness>
43.3262

> <Gold.PLP.PLP>
-37.9978

> <Gold.PLP.part.hbond>
-3.4390

> <Gold.PLP.part.metal>
0.0000

> <Gold.PLP.part.buried>
-7.4276

> <Gold.PLP.part.nonpolar>
-28.3160

> <Gold.PLP.part.repulsive>
0.2063

> <Gold.PLP.ligand.clash>
0.0000

> <Gold.PLP.ligand.torsion>
1.6824

> <Gold.PLP.Chemscore.Hbond>
2.7760

> <Gold.PLP.Chemscore.CHOScore>
0.0000

> <Gold.PLP.Chemscore.Metal>
0.0000

> <Gold.Chemscore.Hbonds>
donor molecule, donor type, donor heavy atom, donor atom, acceptor molecule, acceptor atom, score
      L1  H     1    31       P1 10171  1.00
      P1  H  6931  6943       L1    21  0.55
      P1  H  6934  6947       L1    21  0.96

> <Gold.PLP.Chemscore.Internal.Correction>
0.3653

> <Gold.Rescore>
     Score         DG    S(hbond)    S(metal)    S(lipo)     H(rot)  DE(clash)    DE(int)     intcor
     11.56     -13.67       1.98        0.00      84.20       3.23       0.21       1.90       ----

> <Gold.Chemscore.Fitness>
11.5622

> <Gold.Chemscore.DG>
-13.6739

> <Gold.Chemscore.ZeroCoef>
-5.4800

> <Gold.Chemscore.Hbond>
1.9779

> <Gold.Chemscore.Metal>
0.0000

> <Gold.Chemscore.Lipo>
84.1970

> <Gold.Chemscore.Internal_Hbond>
0.0000

> <Gold.Chemscore.DEClash>
0.2096

> <Gold.Chemscore.DEInternal>
1.9021

> <Gold.Chemscore.Rot>
3.2278

> <Gold.Chemscore.Internal.Correction>
   9.000000E+99

> <Gold.Chemscore.Hbonds>
donor molecule, donor type, donor heavy atom, donor atom, acceptor molecule, acceptor atom, score
      L1  H     1    31       P1 10171  0.98
      P1  H  6931  6943       L1    21  0.07
      P1  H  6934  6947       L1    21  0.46

> <Gold.Chemscore.Hbond.Weighted>
-6.6062

> <Gold.Chemscore.Metal.Weighted>
-0.0000

> <Gold.Chemscore.Lipo.Weighted>
-9.8510

> <Gold.Chemscore.Internal_Hbond.Weighted>
0.0000

> <Gold.Chemscore.DEClash.Weighted>
0.2096

> <Gold.Chemscore.DEInternal.Weighted>
1.9021

> <Gold.Chemscore.Rot.Weighted>
8.2633

> <Gold.Chemscore.Internal.Correction.Weighted>
   9.000000E+99

> <Gold.Protein.RotatedTorsions>
[ 6907 6896 6895 6894 ] final  -20.98 input  -60.11 | X-H torsion
[ 7974 7965 7964 7962 ] final  157.80 input  175.53 | X-H torsion
[ 8008 7997 7996 7995 ] final  -57.62 input   59.86 | X-H torsion
[ 10167 10162 10161 10158 ] final  113.35 input  -65.29 | X-H torsion
[ 10718 10713 10712 10709 ] final   -9.24 input   66.30 | X-H torsion
[ 10763 10752 10751 10750 ] final   54.45 input  -60.55 | X-H torsion
[ 11005 11000 10999 10996 ] final   61.35 input  -57.11 | X-H torsion

> <Gold.Protein.ActiveResidues>
 VAL166  LYS551  ARG553  GLY616  TRP617  ASP618  TYR619  PRO620  LYS621  CYS622 
 ASP623  PHE694  ASN695  SER759  ASP760  ASP761  ALA762  ILE779  LEU786  VAL792 
 PHE793  MET794  SER795  GLU796  ALA797  LYS798  CYS799  TRP800  GLU811  SER814 

> <Gold.Protein.RotatedAtoms>
  151.2401  135.0586  159.9021 H   0  0  0  0  0  0  0  0  0  0  0  0  # atno 6907 bound_to 6896
  152.5394  134.0443  159.8092 H   0  0  0  0  0  0  0  0  0  0  0  0  # atno 6908 bound_to 6896
  151.0636  133.5475  159.2664 H   0  0  0  0  0  0  0  0  0  0  0  0  # atno 6909 bound_to 6896
  144.7882  139.7390  143.6232 H   0  0  0  0  0  0  0  0  0  0  0  0  # atno 7974 bound_to 7965
  154.4275  140.1103  156.5826 H   0  0  0  0  0  0  0  0  0  0  0  0  # atno 8008 bound_to 7997
  155.6096  140.3494  155.4599 H   0  0  0  0  0  0  0  0  0  0  0  0  # atno 8009 bound_to 7997
  156.0109  140.1219  157.0444 H   0  0  0  0  0  0  0  0  0  0  0  0  # atno 8010 bound_to 7997
  139.6467  144.7127  151.2128 H   0  0  0  0  0  0  0  0  0  0  0  0  # atno 10167 bound_to 10162
  156.6909  130.5065  149.5944 H   0  0  0  0  0  0  0  0  0  0  0  0  # atno 10718 bound_to 10713
  152.9805  135.5744  154.4905 H   0  0  0  0  0  0  0  0  0  0  0  0  # atno 10763 bound_to 10752
  154.4440  135.2776  155.1829 H   0  0  0  0  0  0  0  0  0  0  0  0  # atno 10764 bound_to 10752
  154.3485  135.6214  153.5685 H   0  0  0  0  0  0  0  0  0  0  0  0  # atno 10765 bound_to 10752
  140.0167  134.6214  155.9699 H   0  0  0  0  0  0  0  0  0  0  0  0  # atno 11005 bound_to 11000
  146.2124  139.5489  142.9672 LP  0  0  0  0  0  0  0  0  0  0  0  0  # atno 17320 bound_to 7965
  145.5864  141.0376  143.2094 LP  0  0  0  0  0  0  0  0  0  0  0  0  # atno 17321 bound_to 7965
  140.7518  143.6218  150.8506 LP  0  0  0  0  0  0  0  0  0  0  0  0  # atno 17342 bound_to 10162
  139.9862  143.5897  152.2926 LP  0  0  0  0  0  0  0  0  0  0  0  0  # atno 17343 bound_to 10162
  156.1798  130.6491  151.0938 LP  0  0  0  0  0  0  0  0  0  0  0  0  # atno 17370 bound_to 10713
  157.7009  131.0776  150.6823 LP  0  0  0  0  0  0  0  0  0  0  0  0  # atno 17371 bound_to 10713
  141.1747  133.6539  156.4784 LP  0  0  0  0  0  0  0  0  0  0  0  0  # atno 17394 bound_to 11000
  140.4459  134.6973  157.5015 LP  0  0  0  0  0  0  0  0  0  0  0  0  # atno 17395 bound_to 11000

$$$$
