AV-unprocessed.smi:1636|AV-procd|sdf|6542|dock5
  -GOLD-   22720 7223D 1   1.00000     0.00000
 Structure written by MMmdl.
 43 44  0  0  0  0  0  0  0  0  1 V2000
  151.8670  145.5781  160.0216 C   0  0  0  0  0  0  0  0  0  0  0  0
  152.2954  144.2080  159.4858 C   0  0  2  0  0  0  0  0  0  0  0  0
  151.2119  143.5692  158.5960 C   0  0  0  0  0  0  0  0  0  0  0  0
  151.6124  142.2237  158.1897 N   0  0  0  0  0  0  0  0  0  0  0  0
  150.8650  141.5901  157.1737 C   0  0  0  0  0  0  0  0  0  0  0  0
  151.5179  140.7890  156.2076 C   0  0  0  0  0  0  0  0  0  0  0  0
  150.7536  140.1643  155.2040 C   0  0  0  0  0  0  0  0  0  0  0  0
  149.3579  140.3533  155.1838 C   0  0  0  0  0  0  0  0  0  0  0  0
  148.5200  139.6707  154.1092 C   0  0  0  0  0  0  0  0  0  0  0  0
  148.7302  138.2321  153.9755 N   0  0  0  0  0  0  0  0  0  0  0  0
  149.0589  137.4080  154.9801 C   0  0  0  0  0  0  0  0  0  0  0  0
  149.2364  137.7740  156.1422 O   0  0  0  0  0  0  0  0  0  0  0  0
  149.1791  136.1395  154.5646 N   0  0  0  0  0  0  0  0  0  0  0  0
  149.5485  135.0101  155.4113 C   0  0  0  0  0  0  0  0  0  0  0  0
  149.5766  133.6903  154.6211 C   0  0  0  0  0  0  0  0  0  0  0  0
  148.6767  133.7543  153.5351 O   0  0  0  0  0  0  0  0  0  0  0  0
  148.7934  141.1691  156.1890 C   0  0  0  0  0  0  0  0  0  0  0  0
  149.5215  141.7730  157.1519 N   0  0  0  0  0  0  0  0  0  0  0  0
  151.9964  141.3709  159.3114 C   0  0  0  0  0  0  0  0  0  0  0  0
  153.0428  142.0790  160.1888 C   0  0  0  0  0  0  0  0  0  0  0  0
  152.5509  143.3518  160.5956 O   0  0  0  0  0  0  0  0  0  0  0  0
  151.6752  146.2755  159.2057 H   0  0  0  0  0  0  0  0  0  0  0  0
  152.6446  146.0100  160.6519 H   0  0  0  0  0  0  0  0  0  0  0  0
  150.9576  145.5021  160.6185 H   0  0  0  0  0  0  0  0  0  0  0  0
  153.2153  144.3331  158.9115 H   0  0  0  0  0  0  0  0  0  0  0  0
  150.2650  143.5152  159.1353 H   0  0  0  0  0  0  0  0  0  0  0  0
  151.0517  144.1933  157.7156 H   0  0  0  0  0  0  0  0  0  0  0  0
  152.5898  140.6590  156.2168 H   0  0  0  0  0  0  0  0  0  0  0  0
  151.2361  139.5495  154.4584 H   0  0  0  0  0  0  0  0  0  0  0  0
  147.4627  139.8692  154.2945 H   0  0  0  0  0  0  0  0  0  0  0  0
  148.7551  140.1347  153.1512 H   0  0  0  0  0  0  0  0  0  0  0  0
  148.6081  137.8366  153.0546 H   0  0  0  0  0  0  0  0  0  0  0  0
  149.0173  135.9397  153.5884 H   0  0  0  0  0  0  0  0  0  0  0  0
  150.5370  135.1998  155.8334 H   0  0  0  0  0  0  0  0  0  0  0  0
  148.8686  134.9485  156.2617 H   0  0  0  0  0  0  0  0  0  0  0  0
  150.5784  133.4380  154.2710 H   0  0  0  0  0  0  0  0  0  0  0  0
  149.2510  132.8727  155.2645 H   0  0  0  0  0  0  0  0  0  0  0  0
  148.6713  134.6386  153.2021 H   0  0  0  0  0  0  0  0  0  0  0  0
  147.7291  141.3460  156.2342 H   0  0  0  0  0  0  0  0  0  0  0  0
  151.1070  141.1453  159.9014 H   0  0  0  0  0  0  0  0  0  0  0  0
  152.4026  140.4184  158.9738 H   0  0  0  0  0  0  0  0  0  0  0  0
  153.2542  141.4815  161.0756 H   0  0  0  0  0  0  0  0  0  0  0  0
  153.9859  142.1960  159.6521 H   0  0  0  0  0  0  0  0  0  0  0  0
  1  2  1  0  0  0  0
  1 22  1  0  0  0  0
  1 23  1  0  0  0  0
  1 24  1  0  0  0  0
  2 21  1  0  0  0  0
  2  3  1  0  0  0  0
  2 25  1  0  0  0  0
  3  4  1  0  0  0  0
  3 26  1  0  0  0  0
  3 27  1  0  0  0  0
  4  5  1  0  0  0  0
  4 19  1  0  0  0  0
  5 18  1  0  0  0  0
  5  6  2  0  0  0  0
  6  7  1  0  0  0  0
  6 28  1  0  0  0  0
  7  8  2  0  0  0  0
  7 29  1  0  0  0  0
  8  9  1  0  0  0  0
  8 17  1  0  0  0  0
  9 10  1  0  0  0  0
  9 30  1  0  0  0  0
  9 31  1  0  0  0  0
 10 11  1  0  0  0  0
 10 32  1  0  0  0  0
 11 12  2  0  0  0  0
 11 13  1  0  0  0  0
 13 14  1  0  0  0  0
 13 33  1  0  0  0  0
 14 15  1  0  0  0  0
 14 34  1  0  0  0  0
 14 35  1  0  0  0  0
 15 16  1  0  0  0  0
 15 36  1  0  0  0  0
 15 37  1  0  0  0  0
 16 38  1  0  0  0  0
 17 18  2  0  0  0  0
 17 39  1  0  0  0  0
 19 20  1  0  0  0  0
 19 40  1  0  0  0  0
 19 41  1  0  0  0  0
 20 21  1  0  0  0  0
 20 42  1  0  0  0  0
 20 43  1  0  0  0  0
M  END
> <s_m_source_file>
AV-unprocessed.smi

> <i_m_source_file_index>
1636

> <i_lp_mmshare_version>
43012

> <i_f3d_flags>
0

> <s_epik_input>
W0NIM11bQ0BASF0xW0NIMl1OKFtDSDJdW0NIMl1PMSljMltjSF1bY0hdYyhbY0hdbjIpW0NIMl1bTkhdQyg9TylbTkhdW0NIMl1bQ0gyXVtPSF0=

> <s_epik_cmdline>
J2VwaWtfcHl0aG9uJywgJy1waCcsICc3LjAnLCAnLXRuJywgJzgnLCAnLW1hJywgJzIwMCcsICctbWV0YWxfYmluZGluZycsICctaW1hZScsICc8aW5maWxlLm1hZT4nLCAnLW9tYWUnLCAnPG91dGZpbGUubWFlPic=

> <r_lp_tautomer_probability>
1

> <r_epik_Ionization_Penalty>
0.00695222

> <r_epik_Ionization_Penalty_Charging>
0

> <r_epik_Ionization_Penalty_Neutral>
0.00695222

> <r_epik_State_Penalty>
0.00513345

> <r_epik_Charging_Adjusted_Penalty>
0.00513345

> <i_epik_Tot_Q>
0

> <i_epik_Tot_abs_Q>
0

> <r_epik_Metal_State_Penalty>
-0

> <b_epik_Metal_Only>
0

> <s_lp_Force_Field>
OPLS_2005

> <r_lp_Energy>
15.2616

> <b_lp_Chiralities_Consistent>
1

> <s_lp_Variant>
AV-unprocessed.smi:1636-1

> <Gold.Version>
5.8.1

> <Gold.Id.Protein>
6NUR|6NUR_protein|mol2

> <Gold.PLP.Fitness>
45.4816

> <Gold.PLP.PLP>
-38.4817

> <Gold.PLP.part.hbond>
-3.0000

> <Gold.PLP.part.metal>
0.0000

> <Gold.PLP.part.buried>
-4.1842

> <Gold.PLP.part.nonpolar>
-31.5965

> <Gold.PLP.part.repulsive>
0.2277

> <Gold.PLP.ligand.clash>
0.0000

> <Gold.PLP.ligand.torsion>
1.0376

> <Gold.PLP.Chemscore.Hbond>
2.9120

> <Gold.PLP.Chemscore.CHOScore>
0.0000

> <Gold.PLP.Chemscore.Metal>
0.0000

> <Gold.Chemscore.Hbonds>
donor molecule, donor type, donor heavy atom, donor atom, acceptor molecule, acceptor atom, score
      L1  H    10    32       P1  7948  0.91
      L1  H    13    33       P1  7948  1.00
      L1  H    16    38       P1  7948  0.93

> <Gold.PLP.Chemscore.Internal.Correction>
0.3391

> <Gold.Rescore>
     Score         DG    S(hbond)    S(metal)    S(lipo)     H(rot)  DE(clash)    DE(int)     intcor
     14.58     -17.05       2.45        0.00      89.95       2.78       0.08       2.39       ----

> <Gold.Chemscore.Fitness>
14.5834

> <Gold.Chemscore.DG>
-17.0535

> <Gold.Chemscore.ZeroCoef>
-5.4800

> <Gold.Chemscore.Hbond>
2.4472

> <Gold.Chemscore.Metal>
0.0000

> <Gold.Chemscore.Lipo>
89.9476

> <Gold.Chemscore.Internal_Hbond>
0.0000

> <Gold.Chemscore.DEClash>
0.0771

> <Gold.Chemscore.DEInternal>
2.3930

> <Gold.Chemscore.Rot>
2.7828

> <Gold.Chemscore.Internal.Correction>
   9.000000E+99

> <Gold.Chemscore.Hbonds>
donor molecule, donor type, donor heavy atom, donor atom, acceptor molecule, acceptor atom, score
      L1  H    10    32       P1  7948  0.85
      L1  H    13    33       P1  7948  0.94
      L1  H    16    38       P1  7948  0.26

> <Gold.Chemscore.Hbond.Weighted>
-8.1737

> <Gold.Chemscore.Metal.Weighted>
-0.0000

> <Gold.Chemscore.Lipo.Weighted>
-10.5239

> <Gold.Chemscore.Internal_Hbond.Weighted>
0.0000

> <Gold.Chemscore.DEClash.Weighted>
0.0771

> <Gold.Chemscore.DEInternal.Weighted>
2.3930

> <Gold.Chemscore.Rot.Weighted>
7.1241

> <Gold.Chemscore.Internal.Correction.Weighted>
   9.000000E+99

> <Gold.Protein.RotatedTorsions>
[ 6907 6896 6895 6894 ] final   90.76 input  -60.11 | X-H torsion
[ 7974 7965 7964 7962 ] final   -0.90 input  175.53 | X-H torsion
[ 8008 7997 7996 7995 ] final  128.55 input   59.86 | X-H torsion
[ 10167 10162 10161 10158 ] final   -6.60 input  -65.29 | X-H torsion
[ 10718 10713 10712 10709 ] final  175.51 input   66.30 | X-H torsion
[ 10763 10752 10751 10750 ] final    3.87 input  -60.55 | X-H torsion
[ 11005 11000 10999 10996 ] final   48.13 input  -57.11 | X-H torsion

> <Gold.Protein.ActiveResidues>
 VAL166  LYS551  ARG553  GLY616  TRP617  ASP618  TYR619  PRO620  LYS621  CYS622 
 ASP623  PHE694  ASN695  SER759  ASP760  ASP761  ALA762  ILE779  LEU786  VAL792 
 PHE793  MET794  SER795  GLU796  ALA797  LYS798  CYS799  TRP800  GLU811  SER814 

> <Gold.Protein.RotatedAtoms>
  152.5446  134.1762  159.8616 H   0  0  0  0  0  0  0  0  0  0  0  0  # atno 6907 bound_to 6896
  151.1768  133.4743  159.2601 H   0  0  0  0  0  0  0  0  0  0  0  0  # atno 6908 bound_to 6896
  151.1219  135.0095  159.8597 H   0  0  0  0  0  0  0  0  0  0  0  0  # atno 6909 bound_to 6896
  146.2423  140.1339  142.8337 H   0  0  0  0  0  0  0  0  0  0  0  0  # atno 7974 bound_to 7965
  156.2917  140.2642  156.2454 H   0  0  0  0  0  0  0  0  0  0  0  0  # atno 8008 bound_to 7997
  154.9936  140.0388  157.2348 H   0  0  0  0  0  0  0  0  0  0  0  0  # atno 8009 bound_to 7997
  154.7664  140.2770  155.6177 H   0  0  0  0  0  0  0  0  0  0  0  0  # atno 8010 bound_to 7997
  140.7002  143.6175  150.8644 H   0  0  0  0  0  0  0  0  0  0  0  0  # atno 10167 bound_to 10162
  156.9337  130.9979  151.2982 H   0  0  0  0  0  0  0  0  0  0  0  0  # atno 10718 bound_to 10713
  153.2781  135.6938  153.7413 H   0  0  0  0  0  0  0  0  0  0  0  0  # atno 10763 bound_to 10752
  153.6411  135.3393  155.3072 H   0  0  0  0  0  0  0  0  0  0  0  0  # atno 10764 bound_to 10752
  154.8486  135.4432  154.1825 H   0  0  0  0  0  0  0  0  0  0  0  0  # atno 10765 bound_to 10752
  140.1218  134.4820  155.8592 H   0  0  0  0  0  0  0  0  0  0  0  0  # atno 11005 bound_to 11000
  145.0303  140.8865  143.5113 LP  0  0  0  0  0  0  0  0  0  0  0  0  # atno 17320 bound_to 7965
  145.1402  139.2577  143.5494 LP  0  0  0  0  0  0  0  0  0  0  0  0  # atno 17321 bound_to 7965
  139.9897  143.5861  152.2914 LP  0  0  0  0  0  0  0  0  0  0  0  0  # atno 17342 bound_to 10162
  139.6511  144.7660  151.2146 LP  0  0  0  0  0  0  0  0  0  0  0  0  # atno 17343 bound_to 10162
  157.5830  130.8390  149.8549 LP  0  0  0  0  0  0  0  0  0  0  0  0  # atno 17370 bound_to 10713
  156.0435  130.3733  150.1375 LP  0  0  0  0  0  0  0  0  0  0  0  0  # atno 17371 bound_to 10713
  141.2153  133.6763  156.6902 LP  0  0  0  0  0  0  0  0  0  0  0  0  # atno 17394 bound_to 11000
  140.2956  134.8205  157.4054 LP  0  0  0  0  0  0  0  0  0  0  0  0  # atno 17395 bound_to 11000

$$$$
