AV-unprocessed.smi:937|AV-procd|sdf|4216|dock2
  -GOLD-   22720 2123D 1   1.00000     0.00000
 Structure written by MMmdl.
 46 47  0  0  0  0  0  0  0  0  2 V2000
  151.2317  143.4365  157.9304 C   0  0  0  0  0  0  0  0  0  0  0  0
  150.9203  142.2344  157.0642 C   0  0  0  0  0  0  0  0  0  0  0  0
  151.5228  140.9753  157.2746 C   0  0  0  0  0  0  0  0  0  0  0  0
  151.1883  139.9010  156.4240 C   0  0  0  0  0  0  0  0  0  0  0  0
  150.2578  140.1065  155.3817 C   0  0  0  0  0  0  0  0  0  0  0  0
  149.8848  138.9770  154.4413 C   0  0  0  0  0  0  0  0  0  0  0  0
  149.1700  137.8332  155.1729 C   0  0  0  0  0  0  0  0  0  0  0  0
  148.3645  137.0519  154.2449 N   0  0  0  0  0  0  0  0  0  0  0  0
  147.0888  136.6924  154.4608 C   0  0  0  0  0  0  0  0  0  0  0  0
  146.4627  136.9995  155.4731 O   0  0  0  0  0  0  0  0  0  0  0  0
  146.5376  135.9505  153.4835 N   0  0  0  0  0  0  0  0  0  0  0  0
  145.1805  135.3999  153.4061 C   0  0  1  0  0  0  0  0  0  0  0  0
  144.2830  136.2148  152.4493 C   0  0  0  0  0  0  0  0  0  0  0  0
  144.7006  136.0443  150.9800 C   0  0  0  0  0  0  0  0  0  0  0  0
  144.7291  134.5620  150.5769 C   0  0  0  0  0  0  0  0  0  0  0  0
  145.6545  133.7384  151.4970 C   0  0  2  0  0  0  0  0  0  0  0  0
  145.6993  132.2509  151.0904 C   0  0  0  0  0  0  0  0  0  0  0  0
  146.4588  131.5504  151.9334 F   0  0  0  0  0  0  0  0  0  0  0  0
  144.4684  131.7390  151.0925 F   0  0  0  0  0  0  0  0  0  0  0  0
  146.1972  132.1300  149.8596 F   0  0  0  0  0  0  0  0  0  0  0  0
  145.2361  133.9203  152.9748 C   0  0  0  0  0  0  0  0  0  0  0  0
  149.6863  141.3868  155.2207 C   0  0  0  0  0  0  0  0  0  0  0  0
  150.0337  142.3903  156.0557 N   0  3  0  0  0  0  0  0  0  0  0  0
  151.9514  143.1842  158.7097 H   0  0  0  0  0  0  0  0  0  0  0  0
  150.3248  143.8049  158.4106 H   0  0  0  0  0  0  0  0  0  0  0  0
  151.6528  144.2403  157.3258 H   0  0  0  0  0  0  0  0  0  0  0  0
  152.2347  140.8322  158.0748 H   0  0  0  0  0  0  0  0  0  0  0  0
  151.6446  138.9327  156.5705 H   0  0  0  0  0  0  0  0  0  0  0  0
  149.2510  139.3669  153.6434 H   0  0  0  0  0  0  0  0  0  0  0  0
  150.7914  138.6056  153.9614 H   0  0  0  0  0  0  0  0  0  0  0  0
  149.9063  137.1893  155.6572 H   0  0  0  0  0  0  0  0  0  0  0  0
  148.5229  138.2297  155.9565 H   0  0  0  0  0  0  0  0  0  0  0  0
  148.8043  136.7559  153.3856 H   0  0  0  0  0  0  0  0  0  0  0  0
  147.1430  135.7185  152.7093 H   0  0  0  0  0  0  0  0  0  0  0  0
  144.7431  135.4283  154.4055 H   0  0  0  0  0  0  0  0  0  0  0  0
  143.2504  135.8826  152.5639 H   0  0  0  0  0  0  0  0  0  0  0  0
  144.2872  137.2718  152.7164 H   0  0  0  0  0  0  0  0  0  0  0  0
  144.0109  136.5891  150.3347 H   0  0  0  0  0  0  0  0  0  0  0  0
  145.6842  136.4882  150.8206 H   0  0  0  0  0  0  0  0  0  0  0  0
  143.7169  134.1572  150.6122 H   0  0  0  0  0  0  0  0  0  0  0  0
  145.0578  134.4772  149.5409 H   0  0  0  0  0  0  0  0  0  0  0  0
  146.6660  134.1317  151.3835 H   0  0  0  0  0  0  0  0  0  0  0  0
  145.9167  133.3732  153.6285 H   0  0  0  0  0  0  0  0  0  0  0  0
  144.2530  133.4727  153.1255 H   0  0  0  0  0  0  0  0  0  0  0  0
  148.9708  141.6388  154.4516 H   0  0  0  0  0  0  0  0  0  0  0  0
  149.6096  143.3078  155.9170 H   0  0  0  0  0  0  0  0  0  0  0  0
  1  2  1  0  0  0  0
  1 24  1  0  0  0  0
  1 25  1  0  0  0  0
  1 26  1  0  0  0  0
  2 23  1  0  0  0  0
  2  3  2  0  0  0  0
  3  4  1  0  0  0  0
  3 27  1  0  0  0  0
  4  5  2  0  0  0  0
  4 28  1  0  0  0  0
  5  6  1  0  0  0  0
  5 22  1  0  0  0  0
  6  7  1  0  0  0  0
  6 29  1  0  0  0  0
  6 30  1  0  0  0  0
  7  8  1  0  0  0  0
  7 31  1  0  0  0  0
  7 32  1  0  0  0  0
  8  9  1  0  0  0  0
  8 33  1  0  0  0  0
  9 10  2  0  0  0  0
  9 11  1  0  0  0  0
 11 12  1  0  0  0  0
 11 34  1  0  0  0  0
 12 21  1  0  0  0  0
 12 13  1  0  0  0  0
 12 35  1  0  0  0  0
 13 14  1  0  0  0  0
 13 36  1  0  0  0  0
 13 37  1  0  0  0  0
 14 15  1  0  0  0  0
 14 38  1  0  0  0  0
 14 39  1  0  0  0  0
 15 16  1  0  0  0  0
 15 40  1  0  0  0  0
 15 41  1  0  0  0  0
 16 17  1  0  0  0  0
 16 21  1  0  0  0  0
 16 42  1  0  0  0  0
 17 18  1  0  0  0  0
 17 19  1  0  0  0  0
 17 20  1  0  0  0  0
 21 43  1  0  0  0  0
 21 44  1  0  0  0  0
 22 23  2  0  0  0  0
 22 45  1  0  0  0  0
 23 46  1  0  0  0  0
M  CHG  1  23   1
M  END
> <s_m_source_file>
AV-unprocessed.smi

> <i_m_source_file_index>
937

> <i_lp_mmshare_version>
43012

> <i_f3d_flags>
0

> <s_epik_input>
W0NIM11jMVtjSF1bY0hdYyhbY0hdbjEpW0NIMl1bQ0gyXVtOSF1DKD1PKVtOSF1bQ0BASF0yW0NIMl1bQ0gyXVtDSDJdW0NAQEhdKEMoRikoRilGKVtDSDJdMg==

> <s_epik_cmdline>
J2VwaWtfcHl0aG9uJywgJy1waCcsICc3LjAnLCAnLXRuJywgJzgnLCAnLW1hJywgJzIwMCcsICctbWV0YWxfYmluZGluZycsICctaW1hZScsICc8aW5maWxlLm1hZT4nLCAnLW9tYWUnLCAnPG91dGZpbGUubWFlPic=

> <r_epik_Ionization_Penalty>
1.4226

> <r_epik_Ionization_Penalty_Charging>
1.42255

> <r_epik_Ionization_Penalty_Neutral>
5.16456e-05

> <r_epik_State_Penalty>
1.50646

> <r_epik_Charging_Adjusted_Penalty>
2.92901

> <i_epik_Tot_Q>
1

> <i_epik_Tot_abs_Q>
1

> <r_epik_Metal_State_Penalty>
1.55846

> <b_epik_Metal_Only>
0

> <s_lp_Force_Field>
OPLS_2005

> <r_lp_Energy>
25.1059

> <b_lp_Chiralities_Consistent>
1

> <s_lp_Variant>
AV-unprocessed.smi:937-8

> <Gold.Version>
5.8.1

> <Gold.Id.Protein>
6NUR|6NUR_protein|mol2

> <Gold.PLP.Fitness>
50.7328

> <Gold.PLP.PLP>
-40.0819

> <Gold.PLP.part.hbond>
-3.0000

> <Gold.PLP.part.metal>
0.0000

> <Gold.PLP.part.buried>
-0.4148

> <Gold.PLP.part.nonpolar>
-35.7743

> <Gold.PLP.part.repulsive>
0.1729

> <Gold.PLP.ligand.clash>
0.0000

> <Gold.PLP.ligand.torsion>
0.4379

> <Gold.PLP.Chemscore.Hbond>
3.8247

> <Gold.PLP.Chemscore.CHOScore>
0.0000

> <Gold.PLP.Chemscore.Metal>
0.0000

> <Gold.Chemscore.Hbonds>
donor molecule, donor type, donor heavy atom, donor atom, acceptor molecule, acceptor atom, score
      L1  H     8    33       P1  7948  1.00
      L1  H    11    34       P1  7948  0.81
      L1  H    23    46       P1  8028  2.00

> <Gold.PLP.Chemscore.Internal.Correction>
0.0525

> <Gold.Rescore>
     Score         DG    S(hbond)    S(metal)    S(lipo)     H(rot)  DE(clash)    DE(int)     intcor
     20.12     -21.11       2.81        0.00      89.63       1.66       0.70       0.29       ----

> <Gold.Chemscore.Fitness>
20.1178

> <Gold.Chemscore.DG>
-21.1089

> <Gold.Chemscore.ZeroCoef>
-5.4800

> <Gold.Chemscore.Hbond>
2.8106

> <Gold.Chemscore.Metal>
0.0000

> <Gold.Chemscore.Lipo>
89.6343

> <Gold.Chemscore.Internal_Hbond>
0.0000

> <Gold.Chemscore.DEClash>
0.7011

> <Gold.Chemscore.DEInternal>
0.2900

> <Gold.Chemscore.Rot>
1.6585

> <Gold.Chemscore.Internal.Correction>
   9.000000E+99

> <Gold.Chemscore.Hbonds>
donor molecule, donor type, donor heavy atom, donor atom, acceptor molecule, acceptor atom, score
      L1  H     8    33       P1  7948  0.99
      L1  H    11    34       P1  7948  0.76
      L1  H    23    46       P1  8028  0.99

> <Gold.Chemscore.Hbond.Weighted>
-9.3874

> <Gold.Chemscore.Metal.Weighted>
-0.0000

> <Gold.Chemscore.Lipo.Weighted>
-10.4872

> <Gold.Chemscore.Internal_Hbond.Weighted>
0.0000

> <Gold.Chemscore.DEClash.Weighted>
0.7011

> <Gold.Chemscore.DEInternal.Weighted>
0.2900

> <Gold.Chemscore.Rot.Weighted>
4.2457

> <Gold.Chemscore.Internal.Correction.Weighted>
   9.000000E+99

> <Gold.Protein.RotatedTorsions>
[ 6907 6896 6895 6894 ] final -103.65 input  -60.11 | X-H torsion
[ 7974 7965 7964 7962 ] final  172.93 input  175.53 | X-H torsion
[ 8008 7997 7996 7995 ] final   24.48 input   59.86 | X-H torsion
[ 10167 10162 10161 10158 ] final   55.56 input  -65.29 | X-H torsion
[ 10718 10713 10712 10709 ] final   82.70 input   66.30 | X-H torsion
[ 10763 10752 10751 10750 ] final  127.93 input  -60.55 | X-H torsion
[ 11005 11000 10999 10996 ] final   76.45 input  -57.11 | X-H torsion

> <Gold.Protein.ActiveResidues>
 VAL166  LYS551  ARG553  GLY616  TRP617  ASP618  TYR619  PRO620  LYS621  CYS622 
 ASP623  PHE694  ASN695  SER759  ASP760  ASP761  ALA762  ILE779  LEU786  VAL792 
 PHE793  MET794  SER795  GLU796  ALA797  LYS798  CYS799  TRP800  GLU811  SER814 

> <Gold.Protein.RotatedAtoms>
  150.7250  134.0397  159.3761 H   0  0  0  0  0  0  0  0  0  0  0  0  # atno 6907 bound_to 6896
  151.8370  135.0600  160.0453 H   0  0  0  0  0  0  0  0  0  0  0  0  # atno 6908 bound_to 6896
  152.2891  133.5508  159.5582 H   0  0  0  0  0  0  0  0  0  0  0  0  # atno 6909 bound_to 6896
  144.7256  139.9572  143.6434 H   0  0  0  0  0  0  0  0  0  0  0  0  # atno 7974 bound_to 7965
  154.9970  140.3120  155.4883 H   0  0  0  0  0  0  0  0  0  0  0  0  # atno 8008 bound_to 7997
  156.2931  140.2239  156.5018 H   0  0  0  0  0  0  0  0  0  0  0  0  # atno 8009 bound_to 7997
  154.7652  140.0456  157.0994 H   0  0  0  0  0  0  0  0  0  0  0  0  # atno 8010 bound_to 7997
  140.2182  144.3817  150.6461 H   0  0  0  0  0  0  0  0  0  0  0  0  # atno 10167 bound_to 10162
  157.6863  131.0059  150.2414 H   0  0  0  0  0  0  0  0  0  0  0  0  # atno 10718 bound_to 10713
  153.7173  135.3259  155.3259 H   0  0  0  0  0  0  0  0  0  0  0  0  # atno 10763 bound_to 10752
  154.8366  135.4491  154.1253 H   0  0  0  0  0  0  0  0  0  0  0  0  # atno 10764 bound_to 10752
  153.2363  135.6966  153.7912 H   0  0  0  0  0  0  0  0  0  0  0  0  # atno 10765 bound_to 10752
  139.9298  134.7602  156.1397 H   0  0  0  0  0  0  0  0  0  0  0  0  # atno 11005 bound_to 11000
  146.0665  139.3656  143.0549 LP  0  0  0  0  0  0  0  0  0  0  0  0  # atno 17320 bound_to 7965
  145.8024  140.9765  143.0992 LP  0  0  0  0  0  0  0  0  0  0  0  0  # atno 17321 bound_to 7965
  140.6274  143.2183  151.6567 LP  0  0  0  0  0  0  0  0  0  0  0  0  # atno 17342 bound_to 10162
  139.5154  144.3379  152.0767 LP  0  0  0  0  0  0  0  0  0  0  0  0  # atno 17343 bound_to 10162
  156.3027  130.3761  149.7735 LP  0  0  0  0  0  0  0  0  0  0  0  0  # atno 17370 bound_to 10713
  156.5360  130.8278  151.3253 LP  0  0  0  0  0  0  0  0  0  0  0  0  # atno 17371 bound_to 10713
  141.0879  133.6726  156.2476 LP  0  0  0  0  0  0  0  0  0  0  0  0  # atno 17394 bound_to 11000
  140.6234  134.5338  157.5550 LP  0  0  0  0  0  0  0  0  0  0  0  0  # atno 17395 bound_to 11000

$$$$
