AV-unprocessed.smi:819|AV-procd|sdf|3835|dock3
  -GOLD-   22720 1273D 1   1.00000     0.00000
 Structure written by MMmdl.
 40 41  0  0  0  0  0  0  0  0  1 V2000
  149.4649  133.5934  155.9252 C   0  0  0  0  0  0  0  0  0  0  0  0
  150.0895  134.1914  154.6536 C   0  0  1  0  0  0  0  0  0  0  0  0
  149.0333  134.3417  153.6535 N   0  0  0  0  0  0  0  0  0  0  0  0
  148.0653  133.4448  153.4113 C   0  0  0  0  0  0  0  0  0  0  0  0
  147.9581  132.3848  154.0272 O   0  0  0  0  0  0  0  0  0  0  0  0
  147.2611  133.8594  152.4170 N   0  0  0  0  0  0  0  0  0  0  0  0
  146.1214  133.2236  151.8508 C   0  0  0  0  0  0  0  0  0  0  0  0
  145.9506  131.8224  151.7272 C   0  0  0  0  0  0  0  0  0  0  0  0
  144.7630  131.3300  151.1525 C   0  0  0  0  0  0  0  0  0  0  0  0
  143.7879  132.2520  150.7264 C   0  0  0  0  0  0  0  0  0  0  0  0
  143.9330  133.5884  150.8431 N   0  0  0  0  0  0  0  0  0  0  0  0
  145.0746  134.0530  151.3939 C   0  0  0  0  0  0  0  0  0  0  0  0
  150.6964  135.5594  155.0032 C   0  0  0  0  0  0  0  0  0  0  0  0
  151.6055  135.6487  155.8302 O   0  0  0  0  0  0  0  0  0  0  0  0
  150.1796  136.6165  154.3596 N   0  0  0  0  0  0  0  0  0  0  0  0
  150.5853  138.0048  154.5590 C   0  0  0  0  0  0  0  0  0  0  0  0
  152.0276  138.2448  154.0692 C   0  0  0  0  0  0  0  0  0  0  0  0
  152.8785  138.3967  155.3300 C   0  0  0  0  0  0  0  0  0  0  0  0
  151.9280  139.0230  156.3454 C   0  0  0  0  0  0  0  0  0  0  0  0
  150.5767  138.3661  156.0573 C   0  0  0  0  0  0  0  0  0  0  0  0
  150.2111  133.4647  156.7104 H   0  0  0  0  0  0  0  0  0  0  0  0
  149.0363  132.6117  155.7225 H   0  0  0  0  0  0  0  0  0  0  0  0
  148.6685  134.2242  156.3238 H   0  0  0  0  0  0  0  0  0  0  0  0
  150.8621  133.5179  154.2766 H   0  0  0  0  0  0  0  0  0  0  0  0
  149.0547  135.1824  153.0954 H   0  0  0  0  0  0  0  0  0  0  0  0
  147.5127  134.7395  151.9910 H   0  0  0  0  0  0  0  0  0  0  0  0
  146.6898  131.1132  152.0622 H   0  0  0  0  0  0  0  0  0  0  0  0
  144.6022  130.2677  151.0429 H   0  0  0  0  0  0  0  0  0  0  0  0
  142.8657  131.9063  150.2832 H   0  0  0  0  0  0  0  0  0  0  0  0
  145.1543  135.1277  151.4715 H   0  0  0  0  0  0  0  0  0  0  0  0
  149.4336  136.4498  153.6999 H   0  0  0  0  0  0  0  0  0  0  0  0
  149.9025  138.6650  154.0209 H   0  0  0  0  0  0  0  0  0  0  0  0
  152.4045  137.4571  153.4150 H   0  0  0  0  0  0  0  0  0  0  0  0
  152.0614  139.1746  153.4995 H   0  0  0  0  0  0  0  0  0  0  0  0
  153.1958  137.4132  155.6800 H   0  0  0  0  0  0  0  0  0  0  0  0
  153.7730  138.9973  155.1637 H   0  0  0  0  0  0  0  0  0  0  0  0
  152.2557  138.8755  157.3748 H   0  0  0  0  0  0  0  0  0  0  0  0
  151.8595  140.0972  156.1680 H   0  0  0  0  0  0  0  0  0  0  0  0
  149.7444  139.0210  156.3175 H   0  0  0  0  0  0  0  0  0  0  0  0
  150.4819  137.4684  156.6705 H   0  0  0  0  0  0  0  0  0  0  0  0
  1  2  1  0  0  0  0
  1 21  1  0  0  0  0
  1 22  1  0  0  0  0
  1 23  1  0  0  0  0
  2  3  1  0  0  0  0
  2 13  1  0  0  0  0
  2 24  1  0  0  0  0
  3  4  1  0  0  0  0
  3 25  1  0  0  0  0
  4  5  2  0  0  0  0
  4  6  1  0  0  0  0
  6  7  1  0  0  0  0
  6 26  1  0  0  0  0
  7 12  1  0  0  0  0
  7  8  2  0  0  0  0
  8  9  1  0  0  0  0
  8 27  1  0  0  0  0
  9 10  2  0  0  0  0
  9 28  1  0  0  0  0
 10 11  1  0  0  0  0
 10 29  1  0  0  0  0
 11 12  2  0  0  0  0
 12 30  1  0  0  0  0
 13 14  2  0  0  0  0
 13 15  1  0  0  0  0
 15 16  1  0  0  0  0
 15 31  1  0  0  0  0
 16 20  1  0  0  0  0
 16 17  1  0  0  0  0
 16 32  1  0  0  0  0
 17 18  1  0  0  0  0
 17 33  1  0  0  0  0
 17 34  1  0  0  0  0
 18 19  1  0  0  0  0
 18 35  1  0  0  0  0
 18 36  1  0  0  0  0
 19 20  1  0  0  0  0
 19 37  1  0  0  0  0
 19 38  1  0  0  0  0
 20 39  1  0  0  0  0
 20 40  1  0  0  0  0
M  END
> <s_m_source_file>
AV-unprocessed.smi

> <i_m_source_file_index>
819

> <i_lp_mmshare_version>
43012

> <i_f3d_flags>
0

> <s_epik_input>
W0NIMl0xW0NIMl1bQ0gyXVtDSDJdW0NIXTFbTkhdQyg9TylbQ0BIXShbQ0gzXSlbTkhdQyg9TylbTkhdYzJbY0hdW2NIXVtjSF1uW2NIXTI=

> <s_epik_cmdline>
J2VwaWtfcHl0aG9uJywgJy1waCcsICc3LjAnLCAnLXRuJywgJzgnLCAnLW1hJywgJzIwMCcsICctbWV0YWxfYmluZGluZycsICctaW1hZScsICc8aW5maWxlLm1hZT4nLCAnLW9tYWUnLCAnPG91dGZpbGUubWFlPic=

> <r_epik_Ionization_Penalty>
0.00416979

> <r_epik_Ionization_Penalty_Charging>
0

> <r_epik_Ionization_Penalty_Neutral>
0.00416979

> <r_epik_State_Penalty>
0.00297037

> <r_epik_Charging_Adjusted_Penalty>
0.00297037

> <i_epik_Tot_Q>
0

> <i_epik_Tot_abs_Q>
0

> <r_epik_Metal_State_Penalty>
-0

> <b_epik_Metal_Only>
0

> <s_lp_Force_Field>
OPLS_2005

> <r_lp_Energy>
20.1385

> <b_lp_Chiralities_Consistent>
1

> <s_lp_Variant>
AV-unprocessed.smi:819-2

> <Gold.Version>
5.8.1

> <Gold.Id.Protein>
6NUR|6NUR_protein|mol2

> <Gold.PLP.Fitness>
45.0192

> <Gold.PLP.PLP>
-34.1362

> <Gold.PLP.part.hbond>
-4.6512

> <Gold.PLP.part.metal>
0.0000

> <Gold.PLP.part.buried>
-5.2757

> <Gold.PLP.part.nonpolar>
-24.7931

> <Gold.PLP.part.repulsive>
0.3379

> <Gold.PLP.ligand.clash>
1.5144

> <Gold.PLP.ligand.torsion>
0.5595

> <Gold.PLP.Chemscore.Hbond>
3.8477

> <Gold.PLP.Chemscore.CHOScore>
0.6509

> <Gold.PLP.Chemscore.Metal>
0.0000

> <Gold.Chemscore.Hbonds>
donor molecule, donor type, donor heavy atom, donor atom, acceptor molecule, acceptor atom, score
      L1  H     3    25       P1  7948  0.95
      L1  H     6    26       P1  7948  0.90
      L1  H    15    31       P1  7948  0.90
      P1  H 10752 10763       L1    14  1.00
      L1  C    10    29       P1 10952  0.66

> <Gold.PLP.Chemscore.Internal.Correction>
0.0205

> <Gold.Rescore>
     Score         DG    S(hbond)    S(metal)    S(lipo)     H(rot)  DE(clash)    DE(int)     intcor
     15.51     -19.57       2.61        0.00      79.15       1.52       0.48       3.59       ----

> <Gold.Chemscore.Fitness>
15.5067

> <Gold.Chemscore.DG>
-19.5725

> <Gold.Chemscore.ZeroCoef>
-5.4800

> <Gold.Chemscore.Hbond>
2.6138

> <Gold.Chemscore.Metal>
0.0000

> <Gold.Chemscore.Lipo>
79.1475

> <Gold.Chemscore.Internal_Hbond>
0.0000

> <Gold.Chemscore.DEClash>
0.4771

> <Gold.Chemscore.DEInternal>
3.5887

> <Gold.Chemscore.Rot>
1.5225

> <Gold.Chemscore.Internal.Correction>
   9.000000E+99

> <Gold.Chemscore.Hbonds>
donor molecule, donor type, donor heavy atom, donor atom, acceptor molecule, acceptor atom, score
      L1  H     3    25       P1  7948  0.21
      L1  H     6    26       P1  7948  0.62
      L1  H    15    31       P1  7948  0.72
      P1  H 10752 10763       L1    14  0.60

> <Gold.Chemscore.Hbond.Weighted>
-8.7300

> <Gold.Chemscore.Metal.Weighted>
-0.0000

> <Gold.Chemscore.Lipo.Weighted>
-9.2603

> <Gold.Chemscore.Internal_Hbond.Weighted>
0.0000

> <Gold.Chemscore.DEClash.Weighted>
0.4771

> <Gold.Chemscore.DEInternal.Weighted>
3.5887

> <Gold.Chemscore.Rot.Weighted>
3.8977

> <Gold.Chemscore.Internal.Correction.Weighted>
   9.000000E+99

> <Gold.Protein.RotatedTorsions>
[ 6907 6896 6895 6894 ] final   82.60 input  -60.11 | X-H torsion
[ 7974 7965 7964 7962 ] final  -13.52 input  175.53 | X-H torsion
[ 8008 7997 7996 7995 ] final -110.35 input   59.86 | X-H torsion
[ 10167 10162 10161 10158 ] final    1.50 input  -65.29 | X-H torsion
[ 10718 10713 10712 10709 ] final  170.21 input   66.30 | X-H torsion
[ 10763 10752 10751 10750 ] final   84.59 input  -60.55 | X-H torsion
[ 11005 11000 10999 10996 ] final  137.87 input  -57.11 | X-H torsion

> <Gold.Protein.ActiveResidues>
 VAL166  LYS551  ARG553  GLY616  TRP617  ASP618  TYR619  PRO620  LYS621  CYS622 
 ASP623  PHE694  ASN695  SER759  ASP760  ASP761  ALA762  ILE779  LEU786  VAL792 
 PHE793  MET794  SER795  GLU796  ALA797  LYS798  CYS799  TRP800  GLU811  SER814 

> <Gold.Protein.RotatedAtoms>
  152.5304  134.3025  159.9083 H   0  0  0  0  0  0  0  0  0  0  0  0  # atno 6907 bound_to 6896
  151.2975  133.4131  159.2645 H   0  0  0  0  0  0  0  0  0  0  0  0  # atno 6908 bound_to 6896
  151.0147  134.9440  159.8084 H   0  0  0  0  0  0  0  0  0  0  0  0  # atno 6909 bound_to 6896
  146.2111  140.3216  142.8391 H   0  0  0  0  0  0  0  0  0  0  0  0  # atno 7974 bound_to 7965
  154.9733  140.0397  157.2244 H   0  0  0  0  0  0  0  0  0  0  0  0  # atno 8008 bound_to 7997
  154.7781  140.2814  155.6062 H   0  0  0  0  0  0  0  0  0  0  0  0  # atno 8009 bound_to 7997
  156.2932  140.2597  156.2600 H   0  0  0  0  0  0  0  0  0  0  0  0  # atno 8010 bound_to 7997
  140.6680  143.7127  150.7865 H   0  0  0  0  0  0  0  0  0  0  0  0  # atno 10167 bound_to 10162
  157.0114  131.0205  151.2802 H   0  0  0  0  0  0  0  0  0  0  0  0  # atno 10718 bound_to 10713
  153.1396  135.4648  154.9475 H   0  0  0  0  0  0  0  0  0  0  0  0  # atno 10763 bound_to 10752
  154.7736  135.3166  154.8142 H   0  0  0  0  0  0  0  0  0  0  0  0  # atno 10764 bound_to 10752
  153.8667  135.6907  153.4832 H   0  0  0  0  0  0  0  0  0  0  0  0  # atno 10765 bound_to 10752
  140.0144  134.9425  157.0345 H   0  0  0  0  0  0  0  0  0  0  0  0  # atno 11005 bound_to 11000
  144.8916  140.7531  143.5923 LP  0  0  0  0  0  0  0  0  0  0  0  0  # atno 17320 bound_to 7965
  145.3138  139.1810  143.4624 LP  0  0  0  0  0  0  0  0  0  0  0  0  # atno 17321 bound_to 7965
  140.0808  143.4971  152.2531 LP  0  0  0  0  0  0  0  0  0  0  0  0  # atno 17342 bound_to 10162
  139.5936  144.7559  151.3340 LP  0  0  0  0  0  0  0  0  0  0  0  0  # atno 17343 bound_to 10162
  157.5318  130.8063  149.7925 LP  0  0  0  0  0  0  0  0  0  0  0  0  # atno 17370 bound_to 10713
  156.0135  130.3823  150.2187 LP  0  0  0  0  0  0  0  0  0  0  0  0  # atno 17371 bound_to 10713
  140.4497  134.1595  155.7180 LP  0  0  0  0  0  0  0  0  0  0  0  0  # atno 17394 bound_to 11000
  141.1733  133.8565  157.1502 LP  0  0  0  0  0  0  0  0  0  0  0  0  # atno 17395 bound_to 11000

$$$$
