AV-unprocessed.smi:1648|AV-procd|sdf|6633|dock7
  -GOLD-   22720 7333D 1   1.00000     0.00000
 Structure written by MMmdl.
 41 41  0  0  0  0  0  0  0  0  1 V2000
  143.5019  133.2123  151.5757 C   0  0  0  0  0  0  0  0  0  0  0  0
  143.6924  134.7267  151.6797 C   0  0  0  0  0  0  0  0  0  0  0  0
  144.5294  135.2799  150.9702 O   0  0  0  0  0  0  0  0  0  0  0  0
  142.9430  135.4267  152.5494 N   0  0  0  0  0  0  0  0  0  0  0  0
  142.9764  136.8716  152.7943 C   0  0  2  0  0  0  0  0  0  0  0  0
  144.4016  137.2653  153.2272 C   0  0  0  0  0  0  0  0  0  0  0  0
  144.8471  136.9072  154.3186 O   0  0  0  0  0  0  0  0  0  0  0  0
  145.0984  138.0133  152.3576 N   0  0  0  0  0  0  0  0  0  0  0  0
  146.4613  138.4963  152.5557 C   0  0  1  0  0  0  0  0  0  0  0  0
  146.9112  139.3259  151.3380 C   0  0  0  0  0  0  0  0  0  0  0  0
  146.5259  139.2785  153.8827 C   0  0  0  0  0  0  0  0  0  0  0  0
  147.7741  139.9978  154.0542 N   0  0  0  0  0  0  0  0  0  0  0  0
  147.9393  141.3686  154.2047 C   0  0  0  0  0  0  0  0  0  0  0  0
  149.2915  141.5891  154.3381 C   0  0  0  0  0  0  0  0  0  0  0  0
  149.9725  140.3754  154.2785 N   0  0  0  0  0  0  0  0  0  0  0  0
  149.0085  139.4793  154.1121 C   0  0  0  0  0  0  0  0  0  0  0  0
  141.9653  137.2118  153.9293 C   0  0  0  0  0  0  0  0  0  0  0  0
  140.5366  136.7454  153.5857 C   0  0  0  0  0  0  0  0  0  0  0  0
  141.9322  138.7148  154.2777 C   0  0  0  0  0  0  0  0  0  0  0  0
  143.7357  132.7279  152.5239 H   0  0  0  0  0  0  0  0  0  0  0  0
  144.1629  132.7940  150.8157 H   0  0  0  0  0  0  0  0  0  0  0  0
  142.4769  132.9662  151.2978 H   0  0  0  0  0  0  0  0  0  0  0  0
  142.2916  134.9008  153.1139 H   0  0  0  0  0  0  0  0  0  0  0  0
  142.6933  137.4151  151.8911 H   0  0  0  0  0  0  0  0  0  0  0  0
  144.6506  138.2639  151.4879 H   0  0  0  0  0  0  0  0  0  0  0  0
  147.1260  137.6350  152.6454 H   0  0  0  0  0  0  0  0  0  0  0  0
  147.9524  139.6363  151.4281 H   0  0  0  0  0  0  0  0  0  0  0  0
  146.3035  140.2242  151.2254 H   0  0  0  0  0  0  0  0  0  0  0  0
  146.8285  138.7514  150.4148 H   0  0  0  0  0  0  0  0  0  0  0  0
  145.7054  139.9954  153.9406 H   0  0  0  0  0  0  0  0  0  0  0  0
  146.4070  138.5988  154.7279 H   0  0  0  0  0  0  0  0  0  0  0  0
  147.1055  142.0552  154.2014 H   0  0  0  0  0  0  0  0  0  0  0  0
  149.8222  142.5200  154.4727 H   0  0  0  0  0  0  0  0  0  0  0  0
  149.2051  138.4203  154.0276 H   0  0  0  0  0  0  0  0  0  0  0  0
  142.2657  136.6776  154.8327 H   0  0  0  0  0  0  0  0  0  0  0  0
  140.1800  137.2112  152.6665 H   0  0  0  0  0  0  0  0  0  0  0  0
  139.8370  137.0049  154.3809 H   0  0  0  0  0  0  0  0  0  0  0  0
  140.4788  135.6646  153.4555 H   0  0  0  0  0  0  0  0  0  0  0  0
  141.6835  139.3170  153.4033 H   0  0  0  0  0  0  0  0  0  0  0  0
  142.8865  139.0696  154.6670 H   0  0  0  0  0  0  0  0  0  0  0  0
  141.1848  138.9228  155.0442 H   0  0  0  0  0  0  0  0  0  0  0  0
  1  2  1  0  0  0  0
  1 20  1  0  0  0  0
  1 21  1  0  0  0  0
  1 22  1  0  0  0  0
  2  3  2  0  0  0  0
  2  4  1  0  0  0  0
  4  5  1  0  0  0  0
  4 23  1  0  0  0  0
  5  6  1  0  0  0  0
  5 17  1  0  0  0  0
  5 24  1  0  0  0  0
  6  7  2  0  0  0  0
  6  8  1  0  0  0  0
  8  9  1  0  0  0  0
  8 25  1  0  0  0  0
  9 10  1  0  0  0  0
  9 11  1  0  0  0  0
  9 26  1  0  0  0  0
 10 27  1  0  0  0  0
 10 28  1  0  0  0  0
 10 29  1  0  0  0  0
 11 12  1  0  0  0  0
 11 30  1  0  0  0  0
 11 31  1  0  0  0  0
 12 16  1  0  0  0  0
 12 13  1  0  0  0  0
 13 14  2  0  0  0  0
 13 32  1  0  0  0  0
 14 15  1  0  0  0  0
 14 33  1  0  0  0  0
 15 16  2  0  0  0  0
 16 34  1  0  0  0  0
 17 18  1  0  0  0  0
 17 19  1  0  0  0  0
 17 35  1  0  0  0  0
 18 36  1  0  0  0  0
 18 37  1  0  0  0  0
 18 38  1  0  0  0  0
 19 39  1  0  0  0  0
 19 40  1  0  0  0  0
 19 41  1  0  0  0  0
M  END
> <s_m_source_file>
AV-unprocessed.smi

> <i_m_source_file_index>
1648

> <i_lp_mmshare_version>
43012

> <i_f3d_flags>
0

> <s_epik_input>
W0NIM11DKD1PKVtOSF1bQ0BASF0oW0NIXShbQ0gzXSlbQ0gzXSlDKD1PKVtOSF1bQ0BIXShbQ0gzXSlbQ0gyXW4xW2NIXVtjSF1uW2NIXTE=

> <s_epik_cmdline>
J2VwaWtfcHl0aG9uJywgJy1waCcsICc3LjAnLCAnLXRuJywgJzgnLCAnLW1hJywgJzIwMCcsICctbWV0YWxfYmluZGluZycsICctaW1hZScsICc8aW5maWxlLm1hZT4nLCAnLW9tYWUnLCAnPG91dGZpbGUubWFlPic=

> <r_lp_tautomer_probability>
1

> <r_epik_Ionization_Penalty>
0.628885

> <r_epik_Ionization_Penalty_Charging>
0.628884

> <r_epik_Ionization_Penalty_Neutral>
4.35155e-07

> <r_epik_State_Penalty>
0.64556

> <r_epik_Charging_Adjusted_Penalty>
1.27444

> <i_epik_Tot_Q>
0

> <i_epik_Tot_abs_Q>
0

> <r_epik_Metal_State_Penalty>
0.30874

> <b_epik_Metal_Only>
0

> <s_lp_Force_Field>
OPLS_2005

> <r_lp_Energy>
9.63914

> <b_lp_Chiralities_Consistent>
1

> <s_lp_Variant>
AV-unprocessed.smi:1648-7

> <Gold.Version>
5.8.1

> <Gold.Id.Protein>
6NUR|6NUR_protein|mol2

> <Gold.PLP.Fitness>
40.4646

> <Gold.PLP.PLP>
-32.3764

> <Gold.PLP.part.hbond>
-3.0000

> <Gold.PLP.part.metal>
0.0000

> <Gold.PLP.part.buried>
-1.4393

> <Gold.PLP.part.nonpolar>
-27.9795

> <Gold.PLP.part.repulsive>
0.3984

> <Gold.PLP.ligand.clash>
0.0000

> <Gold.PLP.ligand.torsion>
0.2532

> <Gold.PLP.Chemscore.Hbond>
1.8320

> <Gold.PLP.Chemscore.CHOScore>
1.0000

> <Gold.PLP.Chemscore.Metal>
0.0000

> <Gold.Chemscore.Hbonds>
donor molecule, donor type, donor heavy atom, donor atom, acceptor molecule, acceptor atom, score
      L1  H     8    25       P1 10171  1.00
      P1  H  7989  7998       L1    15  0.86
      L1  C    14    33       P1  8028  0.65

> <Gold.PLP.Chemscore.Internal.Correction>
0.0986

> <Gold.Rescore>
     Score         DG    S(hbond)    S(metal)    S(lipo)     H(rot)  DE(clash)    DE(int)     intcor
      9.54     -11.52       1.58        0.00      61.54       2.52       0.48       1.50       ----

> <Gold.Chemscore.Fitness>
9.5361

> <Gold.Chemscore.DG>
-11.5181

> <Gold.Chemscore.ZeroCoef>
-5.4800

> <Gold.Chemscore.Hbond>
1.5848

> <Gold.Chemscore.Metal>
0.0000

> <Gold.Chemscore.Lipo>
61.5409

> <Gold.Chemscore.Internal_Hbond>
0.0000

> <Gold.Chemscore.DEClash>
0.4839

> <Gold.Chemscore.DEInternal>
1.4982

> <Gold.Chemscore.Rot>
2.5216

> <Gold.Chemscore.Internal.Correction>
   9.000000E+99

> <Gold.Chemscore.Hbonds>
donor molecule, donor type, donor heavy atom, donor atom, acceptor molecule, acceptor atom, score
      L1  H     8    25       P1 10171  1.00
      P1  H  7989  7998       L1    15  0.29

> <Gold.Chemscore.Hbond.Weighted>
-5.2931

> <Gold.Chemscore.Metal.Weighted>
-0.0000

> <Gold.Chemscore.Lipo.Weighted>
-7.2003

> <Gold.Chemscore.Internal_Hbond.Weighted>
0.0000

> <Gold.Chemscore.DEClash.Weighted>
0.4839

> <Gold.Chemscore.DEInternal.Weighted>
1.4982

> <Gold.Chemscore.Rot.Weighted>
6.4553

> <Gold.Chemscore.Internal.Correction.Weighted>
   9.000000E+99

> <Gold.Protein.RotatedTorsions>
[ 6907 6896 6895 6894 ] final -152.60 input  -60.11 | X-H torsion
[ 7974 7965 7964 7962 ] final  151.65 input  175.53 | X-H torsion
[ 8008 7997 7996 7995 ] final  -24.43 input   59.86 | X-H torsion
[ 10167 10162 10161 10158 ] final   26.34 input  -65.29 | X-H torsion
[ 10718 10713 10712 10709 ] final -154.31 input   66.30 | X-H torsion
[ 10763 10752 10751 10750 ] final   -0.64 input  -60.55 | X-H torsion
[ 11005 11000 10999 10996 ] final  -24.71 input  -57.11 | X-H torsion

> <Gold.Protein.ActiveResidues>
 VAL166  LYS551  ARG553  GLY616  TRP617  ASP618  TYR619  PRO620  LYS621  CYS622 
 ASP623  PHE694  ASN695  SER759  ASP760  ASP761  ALA762  ILE779  LEU786  VAL792 
 PHE793  MET794  SER795  GLU796  ALA797  LYS798  CYS799  TRP800  GLU811  SER814 

> <Gold.Protein.RotatedAtoms>
  151.2301  133.4455  159.2603 H   0  0  0  0  0  0  0  0  0  0  0  0  # atno 6907 bound_to 6896
  151.0802  134.9853  159.8362 H   0  0  0  0  0  0  0  0  0  0  0  0  # atno 6908 bound_to 6896
  152.5423  134.2242  159.8852 H   0  0  0  0  0  0  0  0  0  0  0  0  # atno 6909 bound_to 6896
  144.8277  139.6565  143.6072 H   0  0  0  0  0  0  0  0  0  0  0  0  # atno 7974 bound_to 7965
  154.4530  140.1954  156.0463 H   0  0  0  0  0  0  0  0  0  0  0  0  # atno 8008 bound_to 7997
  156.0687  140.3287  155.7522 H   0  0  0  0  0  0  0  0  0  0  0  0  # atno 8009 bound_to 7997
  155.5298  140.0577  157.2882 H   0  0  0  0  0  0  0  0  0  0  0  0  # atno 8010 bound_to 7997
  140.5031  144.0283  150.6341 H   0  0  0  0  0  0  0  0  0  0  0  0  # atno 10167 bound_to 10162
  156.4976  130.8376  151.2596 H   0  0  0  0  0  0  0  0  0  0  0  0  # atno 10718 bound_to 10713
  153.3345  135.6977  153.6919 H   0  0  0  0  0  0  0  0  0  0  0  0  # atno 10763 bound_to 10752
  153.5709  135.3516  155.2838 H   0  0  0  0  0  0  0  0  0  0  0  0  # atno 10764 bound_to 10752
  154.8624  135.4272  154.2542 H   0  0  0  0  0  0  0  0  0  0  0  0  # atno 10765 bound_to 10752
  140.8870  133.7614  156.0373 H   0  0  0  0  0  0  0  0  0  0  0  0  # atno 11005 bound_to 11000
  146.2582  139.6350  142.9380 LP  0  0  0  0  0  0  0  0  0  0  0  0  # atno 17320 bound_to 7965
  145.4963  141.0438  143.2565 LP  0  0  0  0  0  0  0  0  0  0  0  0  # atno 17321 bound_to 7965
  140.3584  143.2922  152.0411 LP  0  0  0  0  0  0  0  0  0  0  0  0  # atno 17342 bound_to 10162
  139.4877  144.6321  151.7048 LP  0  0  0  0  0  0  0  0  0  0  0  0  # atno 17343 bound_to 10162
  157.7467  130.9992  150.2882 LP  0  0  0  0  0  0  0  0  0  0  0  0  # atno 17370 bound_to 10713
  156.3365  130.3808  149.7446 LP  0  0  0  0  0  0  0  0  0  0  0  0  # atno 17371 bound_to 10713
  140.8392  134.3086  157.5320 LP  0  0  0  0  0  0  0  0  0  0  0  0  # atno 17394 bound_to 11000
  139.8725  134.9407  156.3776 LP  0  0  0  0  0  0  0  0  0  0  0  0  # atno 17395 bound_to 11000

$$$$
