AV-unprocessed.smi:2032|AV-procd|sdf|8257|dock3
  -GOLD-   2272010533D 1   1.00000     0.00000
 Structure written by MMmdl.
 42 43  0  0  0  0  0  0  0  0  3 V2000
  148.5197  141.0151  153.9276 C   0  0  0  0  0  0  0  0  0  0  0  0
  149.1675  139.6260  153.9097 C   0  0  2  0  0  0  0  0  0  0  0  0
  148.3009  138.5730  154.6244 C   0  0  0  0  0  0  0  0  0  0  0  0
  148.9722  137.2435  154.6681 N   0  3  2  0  0  0  0  0  0  0  0  0
  148.1490  136.1813  155.3390 C   0  0  1  0  0  0  0  0  0  0  0  0
  147.0769  135.6040  154.3811 C   0  0  0  0  0  0  0  0  0  0  0  0
  149.0212  135.0358  155.9174 C   0  0  0  0  0  0  0  0  0  0  0  0
  149.4252  135.2909  157.2952 N   0  0  0  0  0  0  0  0  0  0  0  0
  148.6149  135.7172  158.2722 C   0  0  0  0  0  0  0  0  0  0  0  0
  147.4227  135.9234  158.0342 O   0  0  0  0  0  0  0  0  0  0  0  0
  149.2375  135.8747  159.4617 N   0  5  0  0  0  0  0  0  0  0  0  0
  148.5434  135.7557  160.6051 C   0  0  0  0  0  0  0  0  0  0  0  0
  148.3503  136.7753  161.4495 N   0  0  0  0  0  0  0  0  0  0  0  0
  147.6087  136.4270  162.5799 C   0  0  0  0  0  0  0  0  0  0  0  0
  147.2356  135.1094  162.6007 C   0  0  0  0  0  0  0  0  0  0  0  0
  147.8083  134.2613  161.1928 S   0  0  0  0  0  0  0  0  0  0  0  0
  150.3428  137.3971  155.2330 C   0  0  0  0  0  0  0  0  0  0  0  0
  151.1414  138.4946  154.5047 C   0  0  2  0  0  0  0  0  0  0  0  0
  152.5191  138.7222  155.1375 C   0  0  0  0  0  0  0  0  0  0  0  0
  150.4229  139.7174  154.5660 O   0  0  0  0  0  0  0  0  0  0  0  0
  147.5524  141.0048  153.4247 H   0  0  0  0  0  0  0  0  0  0  0  0
  149.1494  141.7452  153.4188 H   0  0  0  0  0  0  0  0  0  0  0  0
  148.3627  141.3655  154.9481 H   0  0  0  0  0  0  0  0  0  0  0  0
  149.3222  139.3317  152.8699 H   0  0  0  0  0  0  0  0  0  0  0  0
  148.0750  138.8978  155.6416 H   0  0  0  0  0  0  0  0  0  0  0  0
  147.3569  138.5151  154.0863 H   0  0  0  0  0  0  0  0  0  0  0  0
  147.6289  136.6511  156.1757 H   0  0  0  0  0  0  0  0  0  0  0  0
  146.5249  134.7776  154.8277 H   0  0  0  0  0  0  0  0  0  0  0  0
  147.5288  135.2325  153.4609 H   0  0  0  0  0  0  0  0  0  0  0  0
  146.3178  136.3383  154.1160 H   0  0  0  0  0  0  0  0  0  0  0  0
  148.4810  134.0891  155.8620 H   0  0  0  0  0  0  0  0  0  0  0  0
  149.9484  134.9182  155.3581 H   0  0  0  0  0  0  0  0  0  0  0  0
  150.3942  135.1337  157.5304 H   0  0  0  0  0  0  0  0  0  0  0  0
  147.3945  137.1819  163.3218 H   0  0  0  0  0  0  0  0  0  0  0  0
  146.6642  134.5877  163.3533 H   0  0  0  0  0  0  0  0  0  0  0  0
  150.2727  137.6225  156.2984 H   0  0  0  0  0  0  0  0  0  0  0  0
  150.9109  136.4745  155.1305 H   0  0  0  0  0  0  0  0  0  0  0  0
  151.2849  138.2119  153.4602 H   0  0  0  0  0  0  0  0  0  0  0  0
  153.1217  137.8141  155.1058 H   0  0  0  0  0  0  0  0  0  0  0  0
  152.4296  139.0282  156.1802 H   0  0  0  0  0  0  0  0  0  0  0  0
  153.0670  139.5023  154.6082 H   0  0  0  0  0  0  0  0  0  0  0  0
  149.0918  136.9488  153.7094 H   0  0  0  0  0  0  0  0  0  0  0  0
  1  2  1  0  0  0  0
  1 21  1  0  0  0  0
  1 22  1  0  0  0  0
  1 23  1  0  0  0  0
  2 20  1  0  0  0  0
  2  3  1  0  0  0  0
  2 24  1  0  0  0  0
  3  4  1  0  0  0  0
  3 25  1  0  0  0  0
  3 26  1  0  0  0  0
  4  5  1  0  0  0  0
  4 17  1  0  0  0  0
  4 42  1  0  0  0  0
  5  6  1  0  0  0  0
  5  7  1  0  0  0  0
  5 27  1  0  0  0  0
  6 28  1  0  0  0  0
  6 29  1  0  0  0  0
  6 30  1  0  0  0  0
  7  8  1  0  0  0  0
  7 31  1  0  0  0  0
  7 32  1  0  0  0  0
  8  9  1  0  0  0  0
  8 33  1  0  0  0  0
  9 10  2  0  0  0  0
  9 11  1  0  0  0  0
 11 12  1  0  0  0  0
 12 16  1  0  0  0  0
 12 13  2  0  0  0  0
 13 14  1  0  0  0  0
 14 15  2  0  0  0  0
 14 34  1  0  0  0  0
 15 16  1  0  0  0  0
 15 35  1  0  0  0  0
 17 18  1  0  0  0  0
 17 36  1  0  0  0  0
 17 37  1  0  0  0  0
 18 19  1  0  0  0  0
 18 20  1  0  0  0  0
 18 38  1  0  0  0  0
 19 39  1  0  0  0  0
 19 40  1  0  0  0  0
 19 41  1  0  0  0  0
M  CHG  1   4   1
M  CHG  1  11  -1
M  END
> <s_m_source_file>
AV-unprocessed.smi

> <i_m_source_file_index>
2032

> <i_lp_mmshare_version>
43012

> <i_f3d_flags>
0

> <s_epik_input>
W0NIM11bQ0BASF0xW0NIMl1OKFtDSDJdW0NASF0oTzEpW0NIM10pW0NASF0oW0NIM10pW0NIMl1bTkhdQyg9TylbTkhdYzJuW2NIXVtjSF1zMg==

> <s_epik_cmdline>
J2VwaWtfcHl0aG9uJywgJy1waCcsICc3LjAnLCAnLXRuJywgJzgnLCAnLW1hJywgJzIwMCcsICctbWV0YWxfYmluZGluZycsICctaW1hZScsICc8aW5maWxlLm1hZT4nLCAnLW9tYWUnLCAnPG91dGZpbGUubWFlPic=

> <r_lp_tautomer_probability>
0.999

> <r_epik_Ionization_Penalty>
6.71699

> <r_epik_Ionization_Penalty_Charging>
5.88592

> <r_epik_Ionization_Penalty_Neutral>
0.831074

> <r_epik_State_Penalty>
6.08365

> <r_epik_Charging_Adjusted_Penalty>
11.9696

> <i_epik_Tot_Q>
0

> <i_epik_Tot_abs_Q>
2

> <r_epik_Metal_State_Penalty>
2.0947

> <b_epik_Metal_Only>
1

> <s_lp_Force_Field>
OPLS_2005

> <r_lp_Energy>
10.3148

> <b_lp_Chiralities_Consistent>
1

> <s_lp_Variant>
AV-unprocessed.smi:2032-27

> <Gold.Version>
5.8.1

> <Gold.Id.Protein>
6NUR|6NUR_protein|mol2

> <Gold.PLP.Fitness>
46.3779

> <Gold.PLP.PLP>
-31.9422

> <Gold.PLP.part.hbond>
-4.5651

> <Gold.PLP.part.metal>
0.0000

> <Gold.PLP.part.buried>
-0.3639

> <Gold.PLP.part.nonpolar>
-26.5193

> <Gold.PLP.part.repulsive>
0.1660

> <Gold.PLP.ligand.clash>
0.0000

> <Gold.PLP.ligand.torsion>
1.8676

> <Gold.PLP.Chemscore.Hbond>
6.0267

> <Gold.PLP.Chemscore.CHOScore>
0.0000

> <Gold.PLP.Chemscore.Metal>
0.0000

> <Gold.Chemscore.Hbonds>
donor molecule, donor type, donor heavy atom, donor atom, acceptor molecule, acceptor atom, score
      L1  H     4    42       P1  7948  2.00
      P1  H  6896  6909       L1    11  2.00
      P1  H  6931  6943       L1    13  1.00
      P1  H  7989  7998       L1    20  1.00

> <Gold.PLP.Chemscore.Internal.Correction>
0.0909

> <Gold.Rescore>
     Score         DG    S(hbond)    S(metal)    S(lipo)     H(rot)  DE(clash)    DE(int)     intcor
     14.82     -19.31       2.79        0.00      73.07       1.58       1.18       3.31       ----

> <Gold.Chemscore.Fitness>
14.8174

> <Gold.Chemscore.DG>
-19.3105

> <Gold.Chemscore.ZeroCoef>
-5.4800

> <Gold.Chemscore.Hbond>
2.7914

> <Gold.Chemscore.Metal>
0.0000

> <Gold.Chemscore.Lipo>
73.0747

> <Gold.Chemscore.Internal_Hbond>
0.0000

> <Gold.Chemscore.DEClash>
1.1837

> <Gold.Chemscore.DEInternal>
3.3094

> <Gold.Chemscore.Rot>
1.5791

> <Gold.Chemscore.Internal.Correction>
   9.000000E+99

> <Gold.Chemscore.Hbonds>
donor molecule, donor type, donor heavy atom, donor atom, acceptor molecule, acceptor atom, score
      L1  H     4    42       P1  7948  0.98
      P1  H  6896  6909       L1    11  0.49
      P1  H  6931  6943       L1    13  0.35
      P1  H  7989  7998       L1    20  0.18

> <Gold.Chemscore.Hbond.Weighted>
-9.3233

> <Gold.Chemscore.Metal.Weighted>
-0.0000

> <Gold.Chemscore.Lipo.Weighted>
-8.5497

> <Gold.Chemscore.Internal_Hbond.Weighted>
0.0000

> <Gold.Chemscore.DEClash.Weighted>
1.1837

> <Gold.Chemscore.DEInternal.Weighted>
3.3094

> <Gold.Chemscore.Rot.Weighted>
4.0425

> <Gold.Chemscore.Internal.Correction.Weighted>
   9.000000E+99

> <Gold.Protein.RotatedTorsions>
[ 6907 6896 6895 6894 ] final   64.07 input  -60.11 | X-H torsion
[ 7974 7965 7964 7962 ] final  -94.62 input  175.53 | X-H torsion
[ 8008 7997 7996 7995 ] final  -82.43 input   59.86 | X-H torsion
[ 10167 10162 10161 10158 ] final   78.24 input  -65.29 | X-H torsion
[ 10718 10713 10712 10709 ] final  -39.06 input   66.30 | X-H torsion
[ 10763 10752 10751 10750 ] final -151.67 input  -60.55 | X-H torsion
[ 11005 11000 10999 10996 ] final  -24.81 input  -57.11 | X-H torsion

> <Gold.Protein.ActiveResidues>
 VAL166  LYS551  ARG553  GLY616  TRP617  ASP618  TYR619  PRO620  LYS621  CYS622 
 ASP623  PHE694  ASN695  SER759  ASP760  ASP761  ALA762  ILE779  LEU786  VAL792 
 PHE793  MET794  SER795  GLU796  ALA797  LYS798  CYS799  TRP800  GLU811  SER814 

> <Gold.Protein.RotatedAtoms>
  152.4303  134.5790  159.9942 H   0  0  0  0  0  0  0  0  0  0  0  0  # atno 6907 bound_to 6896
  151.5915  133.3360  159.3036 H   0  0  0  0  0  0  0  0  0  0  0  0  # atno 6908 bound_to 6896
  150.8196  134.7432  159.6825 H   0  0  0  0  0  0  0  0  0  0  0  0  # atno 6909 bound_to 6896
  145.3708  140.9505  143.2448 H   0  0  0  0  0  0  0  0  0  0  0  0  # atno 7974 bound_to 7965
  154.6085  140.0633  156.9462 H   0  0  0  0  0  0  0  0  0  0  0  0  # atno 8008 bound_to 7997
  155.2013  140.3315  155.4324 H   0  0  0  0  0  0  0  0  0  0  0  0  # atno 8009 bound_to 7997
  156.2362  140.1864  156.7096 H   0  0  0  0  0  0  0  0  0  0  0  0  # atno 8010 bound_to 7997
  139.9731  144.5880  150.7968 H   0  0  0  0  0  0  0  0  0  0  0  0  # atno 10167 bound_to 10162
  156.2968  130.4235  149.8183 H   0  0  0  0  0  0  0  0  0  0  0  0  # atno 10718 bound_to 10713
  154.8043  135.3254  154.7471 H   0  0  0  0  0  0  0  0  0  0  0  0  # atno 10763 bound_to 10752
  153.8132  135.6894  153.4842 H   0  0  0  0  0  0  0  0  0  0  0  0  # atno 10764 bound_to 10752
  153.1779  135.4598  154.9933 H   0  0  0  0  0  0  0  0  0  0  0  0  # atno 10765 bound_to 10752
  140.8879  133.7608  156.0384 H   0  0  0  0  0  0  0  0  0  0  0  0  # atno 11005 bound_to 11000
  144.8577  139.5224  143.6826 LP  0  0  0  0  0  0  0  0  0  0  0  0  # atno 17320 bound_to 7965
  146.2886  139.7074  142.9177 LP  0  0  0  0  0  0  0  0  0  0  0  0  # atno 17321 bound_to 7965
  140.7515  143.2974  151.3169 LP  0  0  0  0  0  0  0  0  0  0  0  0  # atno 17342 bound_to 10162
  139.6466  144.0439  152.2595 LP  0  0  0  0  0  0  0  0  0  0  0  0  # atno 17343 bound_to 10162
  156.5576  130.8369  151.3319 LP  0  0  0  0  0  0  0  0  0  0  0  0  # atno 17370 bound_to 10713
  157.7357  130.9767  150.2097 LP  0  0  0  0  0  0  0  0  0  0  0  0  # atno 17371 bound_to 10713
  140.8382  134.3098  157.5323 LP  0  0  0  0  0  0  0  0  0  0  0  0  # atno 17394 bound_to 11000
  139.8726  134.9401  156.3761 LP  0  0  0  0  0  0  0  0  0  0  0  0  # atno 17395 bound_to 11000

$$$$
