AV-unprocessed.smi:2061|AV-procd|sdf|8381|dock3
  -GOLD-   2272011 63D 1   1.00000     0.00000
 Structure written by MMmdl.
 45 46  0  0  0  0  0  0  0  0  3 V2000
  146.4081  135.6584  162.6470 C   0  0  0  0  0  0  0  0  0  0  0  0
  147.3243  135.8917  161.4946 C   0  0  0  0  0  0  0  0  0  0  0  0
  147.9620  135.0471  160.6309 C   0  0  0  0  0  0  0  0  0  0  0  0
  148.6839  135.9321  159.7843 C   0  0  0  0  0  0  0  0  0  0  0  0
  149.4676  135.5759  158.7547 N   0  5  0  0  0  0  0  0  0  0  0  0
  148.9354  134.9625  157.6736 C   0  0  0  0  0  0  0  0  0  0  0  0
  148.1028  134.0526  157.6825 O   0  0  0  0  0  0  0  0  0  0  0  0
  149.3912  135.4380  156.5061 N   0  0  0  0  0  0  0  0  0  0  0  0
  148.9758  134.9846  155.1823 C   0  0  0  0  0  0  0  0  0  0  0  0
  147.5411  135.4418  154.8075 C   0  0  1  0  0  0  0  0  0  0  0  0
  147.4423  136.9861  154.8603 C   0  0  0  0  0  0  0  0  0  0  0  0
  147.1451  134.8597  153.4839 N   0  3  1  0  0  0  0  0  0  0  0  0
  146.9361  133.3881  153.5484 C   0  0  0  0  0  0  0  0  0  0  0  0
  146.6519  132.8086  152.1510 C   0  0  1  0  0  0  0  0  0  0  0  0
  146.3801  131.3005  152.1927 C   0  0  0  0  0  0  0  0  0  0  0  0
  145.5023  133.4498  151.6146 O   0  0  0  0  0  0  0  0  0  0  0  0
  145.6941  134.8484  151.4489 C   0  0  1  0  0  0  0  0  0  0  0  0
  144.4383  135.4232  150.7840 C   0  0  0  0  0  0  0  0  0  0  0  0
  145.9737  135.4952  152.8198 C   0  0  0  0  0  0  0  0  0  0  0  0
  148.4862  137.2021  160.0947 N   0  0  0  0  0  0  0  0  0  0  0  0
  147.6213  137.1849  161.1954 O   0  0  0  0  0  0  0  0  0  0  0  0
  145.6226  134.9522  162.3786 H   0  0  0  0  0  0  0  0  0  0  0  0
  145.9329  136.5863  162.9660 H   0  0  0  0  0  0  0  0  0  0  0  0
  146.9555  135.2494  163.4964 H   0  0  0  0  0  0  0  0  0  0  0  0
  147.9229  133.9684  160.6102 H   0  0  0  0  0  0  0  0  0  0  0  0
  150.0757  136.1791  156.5436 H   0  0  0  0  0  0  0  0  0  0  0  0
  149.6882  135.3799  154.4578 H   0  0  0  0  0  0  0  0  0  0  0  0
  149.0844  133.9012  155.1481 H   0  0  0  0  0  0  0  0  0  0  0  0
  146.8420  135.0602  155.5532 H   0  0  0  0  0  0  0  0  0  0  0  0
  147.7613  137.3779  155.8262 H   0  0  0  0  0  0  0  0  0  0  0  0
  146.4184  137.3352  154.7269 H   0  0  0  0  0  0  0  0  0  0  0  0
  148.0670  137.4526  154.0982 H   0  0  0  0  0  0  0  0  0  0  0  0
  147.8083  132.8864  153.9634 H   0  0  0  0  0  0  0  0  0  0  0  0
  146.1020  133.1705  154.2180 H   0  0  0  0  0  0  0  0  0  0  0  0
  147.5066  132.9878  151.4962 H   0  0  0  0  0  0  0  0  0  0  0  0
  147.2371  130.7581  152.5928 H   0  0  0  0  0  0  0  0  0  0  0  0
  146.1801  130.9134  151.1932 H   0  0  0  0  0  0  0  0  0  0  0  0
  145.5167  131.0709  152.8178 H   0  0  0  0  0  0  0  0  0  0  0  0
  146.5435  135.0173  150.7845 H   0  0  0  0  0  0  0  0  0  0  0  0
  144.5372  136.4959  150.6163 H   0  0  0  0  0  0  0  0  0  0  0  0
  143.5545  135.2612  151.4020 H   0  0  0  0  0  0  0  0  0  0  0  0
  144.2588  134.9515  149.8176 H   0  0  0  0  0  0  0  0  0  0  0  0
  145.0988  135.4103  153.4666 H   0  0  0  0  0  0  0  0  0  0  0  0
  146.1549  136.5561  152.6496 H   0  0  0  0  0  0  0  0  0  0  0  0
  147.9285  135.0183  152.8663 H   0  0  0  0  0  0  0  0  0  0  0  0
  1  2  1  0  0  0  0
  1 22  1  0  0  0  0
  1 23  1  0  0  0  0
  1 24  1  0  0  0  0
  2 21  1  0  0  0  0
  2  3  2  0  0  0  0
  3  4  1  0  0  0  0
  3 25  1  0  0  0  0
  4  5  1  0  0  0  0
  4 20  2  0  0  0  0
  5  6  1  0  0  0  0
  6  7  2  0  0  0  0
  6  8  1  0  0  0  0
  8  9  1  0  0  0  0
  8 26  1  0  0  0  0
  9 10  1  0  0  0  0
  9 27  1  0  0  0  0
  9 28  1  0  0  0  0
 10 11  1  0  0  0  0
 10 12  1  0  0  0  0
 10 29  1  0  0  0  0
 11 30  1  0  0  0  0
 11 31  1  0  0  0  0
 11 32  1  0  0  0  0
 12 19  1  0  0  0  0
 12 13  1  0  0  0  0
 12 45  1  0  0  0  0
 13 14  1  0  0  0  0
 13 33  1  0  0  0  0
 13 34  1  0  0  0  0
 14 15  1  0  0  0  0
 14 16  1  0  0  0  0
 14 35  1  0  0  0  0
 15 36  1  0  0  0  0
 15 37  1  0  0  0  0
 15 38  1  0  0  0  0
 16 17  1  0  0  0  0
 17 18  1  0  0  0  0
 17 19  1  0  0  0  0
 17 39  1  0  0  0  0
 18 40  1  0  0  0  0
 18 41  1  0  0  0  0
 18 42  1  0  0  0  0
 19 43  1  0  0  0  0
 19 44  1  0  0  0  0
 20 21  1  0  0  0  0
M  CHG  1   5  -1
M  CHG  1  12   1
M  END
> <s_m_source_file>
AV-unprocessed.smi

> <i_m_source_file_index>
2061

> <i_lp_mmshare_version>
43012

> <i_f3d_flags>
0

> <s_epik_input>
W0NIM11jMVtjSF1jKG5vMSlbTkhdQyg9TylbTkhdW0NIMl1bQ0BIXShbQ0gzXSlOMltDSDJdW0NAQEhdKFtDSDNdKU9bQ0BASF0oW0NIM10pW0NIMl0y

> <s_epik_cmdline>
J2VwaWtfcHl0aG9uJywgJy1waCcsICc3LjAnLCAnLXRuJywgJzgnLCAnLW1hJywgJzIwMCcsICctbWV0YWxfYmluZGluZycsICctaW1hZScsICc8aW5maWxlLm1hZT4nLCAnLW9tYWUnLCAnPG91dGZpbGUubWFlPic=

> <r_epik_Ionization_Penalty>
6.73511

> <r_epik_Ionization_Penalty_Charging>
6.73502

> <r_epik_Ionization_Penalty_Neutral>
9.50841e-05

> <r_epik_State_Penalty>
6.93549

> <r_epik_Charging_Adjusted_Penalty>
13.6705

> <i_epik_Tot_Q>
0

> <i_epik_Tot_abs_Q>
2

> <r_epik_Metal_State_Penalty>
2.87211

> <b_epik_Metal_Only>
1

> <s_lp_Force_Field>
OPLS_2005

> <r_lp_Energy>
8.02842

> <b_lp_Chiralities_Consistent>
1

> <s_lp_Variant>
AV-unprocessed.smi:2061-22

> <Gold.Version>
5.8.1

> <Gold.Id.Protein>
6NUR|6NUR_protein|mol2

> <Gold.PLP.Fitness>
40.0468

> <Gold.PLP.PLP>
-29.1484

> <Gold.PLP.part.hbond>
-5.9746

> <Gold.PLP.part.metal>
0.0000

> <Gold.PLP.part.buried>
-3.5806

> <Gold.PLP.part.nonpolar>
-20.5745

> <Gold.PLP.part.repulsive>
0.1474

> <Gold.PLP.ligand.clash>
0.0000

> <Gold.PLP.ligand.torsion>
1.2769

> <Gold.PLP.Chemscore.Hbond>
4.4560

> <Gold.PLP.Chemscore.CHOScore>
0.0000

> <Gold.PLP.Chemscore.Metal>
0.0000

> <Gold.Chemscore.Hbonds>
donor molecule, donor type, donor heavy atom, donor atom, acceptor molecule, acceptor atom, score
      L1  H    12    45       P1  7948  1.98
      P1  H  6896  6909       L1     5  2.00
      P1  H  6934  6947       L1    21  0.49

> <Gold.PLP.Chemscore.Internal.Correction>
0.0842

> <Gold.Rescore>
     Score         DG    S(hbond)    S(metal)    S(lipo)     H(rot)  DE(clash)    DE(int)     intcor
     13.37     -14.83       2.00        0.00      56.97       1.56       0.05       1.41       ----

> <Gold.Chemscore.Fitness>
13.3699

> <Gold.Chemscore.DG>
-14.8323

> <Gold.Chemscore.ZeroCoef>
-5.4800

> <Gold.Chemscore.Hbond>
1.9964

> <Gold.Chemscore.Metal>
0.0000

> <Gold.Chemscore.Lipo>
56.9672

> <Gold.Chemscore.Internal_Hbond>
0.0000

> <Gold.Chemscore.DEClash>
0.0477

> <Gold.Chemscore.DEInternal>
1.4146

> <Gold.Chemscore.Rot>
1.5550

> <Gold.Chemscore.Internal.Correction>
   9.000000E+99

> <Gold.Chemscore.Hbonds>
donor molecule, donor type, donor heavy atom, donor atom, acceptor molecule, acceptor atom, score
      L1  H    12    45       P1  7948  0.91
      P1  H  6896  6909       L1     5  0.27
      P1  H  6934  6947       L1    21  0.03

> <Gold.Chemscore.Hbond.Weighted>
-6.6680

> <Gold.Chemscore.Metal.Weighted>
-0.0000

> <Gold.Chemscore.Lipo.Weighted>
-6.6652

> <Gold.Chemscore.Internal_Hbond.Weighted>
0.0000

> <Gold.Chemscore.DEClash.Weighted>
0.0477

> <Gold.Chemscore.DEInternal.Weighted>
1.4146

> <Gold.Chemscore.Rot.Weighted>
3.9809

> <Gold.Chemscore.Internal.Correction.Weighted>
   9.000000E+99

> <Gold.Protein.RotatedTorsions>
[ 6907 6896 6895 6894 ] final   47.99 input  -60.11 | X-H torsion
[ 7974 7965 7964 7962 ] final  -72.86 input  175.53 | X-H torsion
[ 8008 7997 7996 7995 ] final -135.35 input   59.86 | X-H torsion
[ 10167 10162 10161 10158 ] final  147.48 input  -65.29 | X-H torsion
[ 10718 10713 10712 10709 ] final   23.75 input   66.30 | X-H torsion
[ 10763 10752 10751 10750 ] final   58.85 input  -60.55 | X-H torsion
[ 11005 11000 10999 10996 ] final  -13.06 input  -57.11 | X-H torsion

> <Gold.Protein.ActiveResidues>
 VAL166  LYS551  ARG553  GLY616  TRP617  ASP618  TYR619  PRO620  LYS621  CYS622 
 ASP623  PHE694  ASN695  SER759  ASP760  ASP761  ALA762  ILE779  LEU786  VAL792 
 PHE793  MET794  SER795  GLU796  ALA797  LYS798  CYS799  TRP800  GLU811  SER814 

> <Gold.Protein.RotatedAtoms>
  152.2744  134.7897  160.0407 H   0  0  0  0  0  0  0  0  0  0  0  0  # atno 6907 bound_to 6896
  151.8498  133.3433  159.3678 H   0  0  0  0  0  0  0  0  0  0  0  0  # atno 6908 bound_to 6896
  150.7164  134.5238  159.5711 H   0  0  0  0  0  0  0  0  0  0  0  0  # atno 6909 bound_to 6896
  145.6596  140.9257  143.0941 H   0  0  0  0  0  0  0  0  0  0  0  0  # atno 7974 bound_to 7965
  155.3771  140.0492  157.3044 H   0  0  0  0  0  0  0  0  0  0  0  0  # atno 8008 bound_to 7997
  154.5101  140.2188  155.9136 H   0  0  0  0  0  0  0  0  0  0  0  0  # atno 8009 bound_to 7997
  156.1572  140.3124  155.8751 H   0  0  0  0  0  0  0  0  0  0  0  0  # atno 8010 bound_to 7997
  139.4889  144.5752  151.6978 H   0  0  0  0  0  0  0  0  0  0  0  0  # atno 10167 bound_to 10162
  157.1704  130.6757  149.6076 H   0  0  0  0  0  0  0  0  0  0  0  0  # atno 10718 bound_to 10713
  152.9880  135.5592  154.5618 H   0  0  0  0  0  0  0  0  0  0  0  0  # atno 10763 bound_to 10752
  154.5036  135.2798  155.1403 H   0  0  0  0  0  0  0  0  0  0  0  0  # atno 10764 bound_to 10752
  154.2823  135.6342  153.5405 H   0  0  0  0  0  0  0  0  0  0  0  0  # atno 10765 bound_to 10752
  140.7721  133.8430  155.9216 H   0  0  0  0  0  0  0  0  0  0  0  0  # atno 11005 bound_to 11000
  144.7094  139.8432  143.7419 LP  0  0  0  0  0  0  0  0  0  0  0  0  # atno 17320 bound_to 7965
  146.1136  139.4144  143.0272 LP  0  0  0  0  0  0  0  0  0  0  0  0  # atno 17321 bound_to 7965
  140.5347  144.0674  150.6066 LP  0  0  0  0  0  0  0  0  0  0  0  0  # atno 17342 bound_to 10162
  140.3676  143.2872  152.0314 LP  0  0  0  0  0  0  0  0  0  0  0  0  # atno 17343 bound_to 10162
  155.9739  130.4681  150.6348 LP  0  0  0  0  0  0  0  0  0  0  0  0  # atno 17370 bound_to 10713
  157.4048  131.0815  151.1275 LP  0  0  0  0  0  0  0  0  0  0  0  0  # atno 17371 bound_to 10713
  140.9563  134.1713  157.4689 LP  0  0  0  0  0  0  0  0  0  0  0  0  # atno 17394 bound_to 11000
  139.8754  134.9928  156.5615 LP  0  0  0  0  0  0  0  0  0  0  0  0  # atno 17395 bound_to 11000

$$$$
