AV-unprocessed.smi:2182|AV-procd|sdf|8863|dock5
  -GOLD-   2272012 53D 1   1.00000     0.00000
 Structure written by MMmdl.
 41 43  0  0  0  0  0  0  0  0  1 V2000
  148.7643  142.7549  152.8213 N   0  0  0  0  0  0  0  0  0  0  0  0
  149.4681  142.1749  153.5339 C   0  0  0  0  0  0  0  0  0  0  0  0
  150.3354  141.4362  154.3911 C   0  0  0  0  0  0  0  0  0  0  0  0
  150.7391  141.9224  155.5829 C   0  0  0  0  0  0  0  0  0  0  0  0
  151.5707  141.2198  156.4273 N   0  0  0  0  0  0  0  0  0  0  0  0
  152.1171  141.8218  157.6109 C   0  0  0  0  0  0  0  0  0  0  0  0
  151.9601  141.1447  158.9588 C   0  0  0  0  0  0  0  0  0  0  0  0
  151.1734  142.3941  158.6458 C   0  0  0  0  0  0  0  0  0  0  0  0
  152.0990  139.9735  156.0267 C   0  0  0  0  0  0  0  0  0  0  0  0
  152.9211  139.3740  156.7249 O   0  0  0  0  0  0  0  0  0  0  0  0
  151.6677  139.4371  154.7888 N   0  0  0  0  0  0  0  0  0  0  0  0
  152.2124  138.1284  154.3665 C   0  0  0  0  0  0  0  0  0  0  0  0
  151.3345  136.9500  154.8119 C   0  0  0  0  0  0  0  0  0  0  0  0
  151.6534  136.2615  155.7822 O   0  0  0  0  0  0  0  0  0  0  0  0
  150.2276  136.7328  154.0860 N   0  0  0  0  0  0  0  0  0  0  0  0
  149.2233  135.7106  154.3609 C   0  0  0  0  0  0  0  0  0  0  0  0
  149.7321  134.3040  153.9992 C   0  0  2  0  0  0  0  0  0  0  0  0
  149.2128  133.7393  152.6779 C   0  0  0  0  0  0  0  0  0  0  0  0
  149.3873  132.2422  152.8575 C   0  0  0  0  0  0  0  0  0  0  0  0
  149.4290  132.0541  154.3780 C   0  0  0  0  0  0  0  0  0  0  0  0
  149.2593  133.3516  154.9377 O   0  0  0  0  0  0  0  0  0  0  0  0
  150.7807  140.1259  153.9221 C   0  0  0  0  0  0  0  0  0  0  0  0
  150.4352  139.6368  152.8454 O   0  0  0  0  0  0  0  0  0  0  0  0
  150.3948  142.8989  155.8922 H   0  0  0  0  0  0  0  0  0  0  0  0
  153.0458  142.3706  157.4639 H   0  0  0  0  0  0  0  0  0  0  0  0
  151.4066  140.2086  159.0049 H   0  0  0  0  0  0  0  0  0  0  0  0
  152.7854  141.2325  159.6624 H   0  0  0  0  0  0  0  0  0  0  0  0
  151.4733  143.3142  159.1432 H   0  0  0  0  0  0  0  0  0  0  0  0
  150.1031  142.2803  158.4831 H   0  0  0  0  0  0  0  0  0  0  0  0
  152.3322  138.1054  153.2817 H   0  0  0  0  0  0  0  0  0  0  0  0
  153.2206  137.9631  154.7484 H   0  0  0  0  0  0  0  0  0  0  0  0
  150.0508  137.3426  153.3010 H   0  0  0  0  0  0  0  0  0  0  0  0
  148.9937  135.7491  155.4260 H   0  0  0  0  0  0  0  0  0  0  0  0
  148.2891  135.9282  153.8401 H   0  0  0  0  0  0  0  0  0  0  0  0
  150.8239  134.2850  154.0074 H   0  0  0  0  0  0  0  0  0  0  0  0
  148.1538  133.9727  152.5595 H   0  0  0  0  0  0  0  0  0  0  0  0
  149.7451  134.1279  151.8090 H   0  0  0  0  0  0  0  0  0  0  0  0
  148.5748  131.6832  152.3921 H   0  0  0  0  0  0  0  0  0  0  0  0
  150.3244  131.9073  152.4111 H   0  0  0  0  0  0  0  0  0  0  0  0
  148.6471  131.3825  154.7338 H   0  0  0  0  0  0  0  0  0  0  0  0
  150.3925  131.6469  154.6880 H   0  0  0  0  0  0  0  0  0  0  0  0
  1  2  3  0  0  0  0
  2  3  1  0  0  0  0
  3 22  1  0  0  0  0
  3  4  2  0  0  0  0
  4  5  1  0  0  0  0
  4 24  1  0  0  0  0
  5  6  1  0  0  0  0
  5  9  1  0  0  0  0
  6  8  1  0  0  0  0
  6  7  1  0  0  0  0
  6 25  1  0  0  0  0
  7  8  1  0  0  0  0
  7 26  1  0  0  0  0
  7 27  1  0  0  0  0
  8 28  1  0  0  0  0
  8 29  1  0  0  0  0
  9 10  2  0  0  0  0
  9 11  1  0  0  0  0
 11 12  1  0  0  0  0
 11 22  1  0  0  0  0
 12 13  1  0  0  0  0
 12 30  1  0  0  0  0
 12 31  1  0  0  0  0
 13 14  2  0  0  0  0
 13 15  1  0  0  0  0
 15 16  1  0  0  0  0
 15 32  1  0  0  0  0
 16 17  1  0  0  0  0
 16 33  1  0  0  0  0
 16 34  1  0  0  0  0
 17 21  1  0  0  0  0
 17 18  1  0  0  0  0
 17 35  1  0  0  0  0
 18 19  1  0  0  0  0
 18 36  1  0  0  0  0
 18 37  1  0  0  0  0
 19 20  1  0  0  0  0
 19 38  1  0  0  0  0
 19 39  1  0  0  0  0
 20 21  1  0  0  0  0
 20 40  1  0  0  0  0
 20 41  1  0  0  0  0
 22 23  2  0  0  0  0
M  END
> <s_m_source_file>
AV-unprocessed.smi

> <i_m_source_file_index>
2182

> <i_lp_mmshare_version>
43012

> <i_f3d_flags>
0

> <s_epik_input>
TiNDYzFbY0hdbihbQ0hdMltDSDJdW0NIMl0yKWMoPU8pbihjMT1PKVtDSDJdQyg9TylbTkhdW0NIMl1bQ0BASF0zW0NIMl1bQ0gyXVtDSDJdTzM=

> <s_epik_cmdline>
J2VwaWtfcHl0aG9uJywgJy1waCcsICc3LjAnLCAnLXRuJywgJzgnLCAnLW1hJywgJzIwMCcsICctbWV0YWxfYmluZGluZycsICctaW1hZScsICc8aW5maWxlLm1hZT4nLCAnLW9tYWUnLCAnPG91dGZpbGUubWFlPic=

> <r_lp_tautomer_probability>
1

> <r_epik_Ionization_Penalty>
2.69429e-08

> <r_epik_Ionization_Penalty_Charging>
8.38654e-11

> <r_epik_Ionization_Penalty_Neutral>
2.6859e-08

> <r_epik_State_Penalty>
-0

> <r_epik_Charging_Adjusted_Penalty>
8.38654e-11

> <i_epik_Tot_Q>
0

> <i_epik_Tot_abs_Q>
0

> <r_epik_Metal_State_Penalty>
-0

> <b_epik_Metal_Only>
0

> <s_lp_Force_Field>
OPLS_2005

> <r_lp_Energy>
43.5175

> <b_lp_Chiralities_Consistent>
1

> <s_lp_Variant>
AV-unprocessed.smi:2182-1

> <Gold.Version>
5.8.1

> <Gold.Id.Protein>
6NUR|6NUR_protein|mol2

> <Gold.PLP.Fitness>
48.1358

> <Gold.PLP.PLP>
-41.0328

> <Gold.PLP.part.hbond>
-3.0000

> <Gold.PLP.part.metal>
0.0000

> <Gold.PLP.part.buried>
-6.7823

> <Gold.PLP.part.nonpolar>
-34.6586

> <Gold.PLP.part.repulsive>
4.5033

> <Gold.PLP.ligand.clash>
0.0000

> <Gold.PLP.ligand.torsion>
1.3671

> <Gold.PLP.Chemscore.Hbond>
2.2033

> <Gold.PLP.Chemscore.CHOScore>
1.0000

> <Gold.PLP.Chemscore.Metal>
0.0000

> <Gold.Chemscore.Hbonds>
donor molecule, donor type, donor heavy atom, donor atom, acceptor molecule, acceptor atom, score
      L1  H    15    32       P1  7948  0.14
      P1  H  7997  8010       L1    10  1.00
      P1  H  8022  8030       L1     1  0.34
      P1  H 10752 10765       L1    14  0.35
      L1  C     4    24       P1  8028  1.00

> <Gold.PLP.Chemscore.Internal.Correction>
0.2271

> <Gold.Rescore>
     Score         DG    S(hbond)    S(metal)    S(lipo)     H(rot)  DE(clash)    DE(int)     intcor
     11.24     -15.09       1.99        0.00      70.70       2.08       1.50       2.36       ----

> <Gold.Chemscore.Fitness>
11.2413

> <Gold.Chemscore.DG>
-15.0949

> <Gold.Chemscore.ZeroCoef>
-5.4800

> <Gold.Chemscore.Hbond>
1.9946

> <Gold.Chemscore.Metal>
0.0000

> <Gold.Chemscore.Lipo>
70.7016

> <Gold.Chemscore.Internal_Hbond>
0.0000

> <Gold.Chemscore.DEClash>
1.4981

> <Gold.Chemscore.DEInternal>
2.3555

> <Gold.Chemscore.Rot>
2.0778

> <Gold.Chemscore.Internal.Correction>
   9.000000E+99

> <Gold.Chemscore.Hbonds>
donor molecule, donor type, donor heavy atom, donor atom, acceptor molecule, acceptor atom, score
      L1  H    15    32       P1  7948  0.04
      P1  H  7997  8010       L1    10  0.34
      P1  H  8022  8030       L1     1  0.22
      P1  H 10752 10765       L1    14  0.01

> <Gold.Chemscore.Hbond.Weighted>
-6.6619

> <Gold.Chemscore.Metal.Weighted>
-0.0000

> <Gold.Chemscore.Lipo.Weighted>
-8.2721

> <Gold.Chemscore.Internal_Hbond.Weighted>
0.0000

> <Gold.Chemscore.DEClash.Weighted>
1.4981

> <Gold.Chemscore.DEInternal.Weighted>
2.3555

> <Gold.Chemscore.Rot.Weighted>
5.3191

> <Gold.Chemscore.Internal.Correction.Weighted>
   9.000000E+99

> <Gold.Protein.RotatedTorsions>
[ 6907 6896 6895 6894 ] final  149.94 input  -60.11 | X-H torsion
[ 7974 7965 7964 7962 ] final   21.16 input  175.53 | X-H torsion
[ 8008 7997 7996 7995 ] final   81.58 input   59.86 | X-H torsion
[ 10167 10162 10161 10158 ] final   61.07 input  -65.29 | X-H torsion
[ 10718 10713 10712 10709 ] final  173.66 input   66.30 | X-H torsion
[ 10763 10752 10751 10750 ] final -173.12 input  -60.55 | X-H torsion
[ 11005 11000 10999 10996 ] final  113.30 input  -57.11 | X-H torsion

> <Gold.Protein.ActiveResidues>
 VAL166  LYS551  ARG553  GLY616  TRP617  ASP618  TYR619  PRO620  LYS621  CYS622 
 ASP623  PHE694  ASN695  SER759  ASP760  ASP761  ALA762  ILE779  LEU786  VAL792 
 PHE793  MET794  SER795  GLU796  ALA797  LYS798  CYS799  TRP800  GLU811  SER814 

> <Gold.Protein.RotatedAtoms>
  152.1211  133.4354  159.4675 H   0  0  0  0  0  0  0  0  0  0  0  0  # atno 6907 bound_to 6896
  150.6872  134.2533  159.4529 H   0  0  0  0  0  0  0  0  0  0  0  0  # atno 6908 bound_to 6896
  152.0410  134.9711  160.0624 H   0  0  0  0  0  0  0  0  0  0  0  0  # atno 6909 bound_to 6896
  146.2082  139.8066  142.8709 H   0  0  0  0  0  0  0  0  0  0  0  0  # atno 7974 bound_to 7965
  155.8990  140.3434  155.6012 H   0  0  0  0  0  0  0  0  0  0  0  0  # atno 8008 bound_to 7997
  155.7522  140.0821  157.2215 H   0  0  0  0  0  0  0  0  0  0  0  0  # atno 8009 bound_to 7997
  154.4041  140.1551  156.2724 H   0  0  0  0  0  0  0  0  0  0  0  0  # atno 8010 bound_to 7997
  140.1588  144.4391  150.6720 H   0  0  0  0  0  0  0  0  0  0  0  0  # atno 10167 bound_to 10162
  156.9611  131.0061  151.2927 H   0  0  0  0  0  0  0  0  0  0  0  0  # atno 10718 bound_to 10713
  154.6115  135.2865  155.0426 H   0  0  0  0  0  0  0  0  0  0  0  0  # atno 10763 bound_to 10752
  154.1654  135.6481  153.5000 H   0  0  0  0  0  0  0  0  0  0  0  0  # atno 10764 bound_to 10752
  153.0197  135.5388  154.6871 H   0  0  0  0  0  0  0  0  0  0  0  0  # atno 10765 bound_to 10752
  139.8949  134.9547  156.6717 H   0  0  0  0  0  0  0  0  0  0  0  0  # atno 11005 bound_to 11000
  145.3240  141.0251  143.3484 LP  0  0  0  0  0  0  0  0  0  0  0  0  # atno 17320 bound_to 7965
  144.8846  139.4857  143.6706 LP  0  0  0  0  0  0  0  0  0  0  0  0  # atno 17321 bound_to 7965
  140.6656  143.2267  151.5750 LP  0  0  0  0  0  0  0  0  0  0  0  0  # atno 17342 bound_to 10162
  139.5391  144.2698  152.1314 LP  0  0  0  0  0  0  0  0  0  0  0  0  # atno 17343 bound_to 10162
  157.5657  130.8276  149.8324 LP  0  0  0  0  0  0  0  0  0  0  0  0  # atno 17370 bound_to 10713
  156.0322  130.3761  150.1657 LP  0  0  0  0  0  0  0  0  0  0  0  0  # atno 17371 bound_to 10713
  140.7368  133.9012  155.8249 LP  0  0  0  0  0  0  0  0  0  0  0  0  # atno 17394 bound_to 11000
  141.0110  134.1021  157.4221 LP  0  0  0  0  0  0  0  0  0  0  0  0  # atno 17395 bound_to 11000

$$$$
