AV-unprocessed.smi:3115|AV-procd|sdf|11858|dock10
  -GOLD-   2272017243D 1   1.00000     0.00000
 Structure written by MMmdl.
 33 34  0  0  0  0  0  0  0  0  2 V2000
  151.6105  145.1015  158.9028 C   0  0  0  0  0  0  0  0  0  0  0  0
  152.2092  143.7073  158.6899 C   0  0  2  0  0  0  0  0  0  0  0  0
  151.4361  142.8990  157.6294 C   0  0  0  0  0  0  0  0  0  0  0  0
  151.9864  141.5531  157.5254 N   0  0  0  0  0  0  0  0  0  0  0  0
  151.4129  140.7909  156.4977 C   0  0  0  0  0  0  0  0  0  0  0  0
  151.9911  139.5478  156.1637 C   0  0  0  0  0  0  0  0  0  0  0  0
  151.4075  138.7829  155.1330 C   0  0  0  0  0  0  0  0  0  0  0  0
  151.9955  137.4451  154.7348 C   0  0  0  0  0  0  0  0  0  0  0  0
  150.9700  136.3910  154.7856 N   0  3  0  0  0  0  0  0  0  0  0  0
  150.2705  139.2919  154.4738 C   0  0  0  0  0  0  0  0  0  0  0  0
  149.7663  140.5435  154.8781 C   0  0  0  0  0  0  0  0  0  0  0  0
  150.3200  141.2804  155.8642 N   0  0  0  0  0  0  0  0  0  0  0  0
  152.0153  140.8647  158.8100 C   0  0  0  0  0  0  0  0  0  0  0  0
  152.7672  141.7168  159.8465 C   0  0  0  0  0  0  0  0  0  0  0  0
  152.1665  143.0063  159.9309 O   0  0  0  0  0  0  0  0  0  0  0  0
  151.6314  145.6826  157.9806 H   0  0  0  0  0  0  0  0  0  0  0  0
  152.1706  145.6549  159.6568 H   0  0  0  0  0  0  0  0  0  0  0  0
  150.5743  145.0393  159.2363 H   0  0  0  0  0  0  0  0  0  0  0  0
  153.2497  143.8200  158.3796 H   0  0  0  0  0  0  0  0  0  0  0  0
  150.3803  142.8455  157.8993 H   0  0  0  0  0  0  0  0  0  0  0  0
  151.4973  143.3953  156.6601 H   0  0  0  0  0  0  0  0  0  0  0  0
  152.8637  139.1898  156.6912 H   0  0  0  0  0  0  0  0  0  0  0  0
  152.4068  137.5020  153.7265 H   0  0  0  0  0  0  0  0  0  0  0  0
  152.8157  137.1844  155.4047 H   0  0  0  0  0  0  0  0  0  0  0  0
  151.3988  135.5127  155.0401 H   0  0  0  0  0  0  0  0  0  0  0  0
  150.5337  136.3042  153.8787 H   0  0  0  0  0  0  0  0  0  0  0  0
  149.7918  138.7402  153.6780 H   0  0  0  0  0  0  0  0  0  0  0  0
  148.8957  140.9637  154.3966 H   0  0  0  0  0  0  0  0  0  0  0  0
  150.9964  140.6798  159.1539 H   0  0  0  0  0  0  0  0  0  0  0  0
  152.5006  139.8943  158.6994 H   0  0  0  0  0  0  0  0  0  0  0  0
  152.7254  141.2404  160.8260 H   0  0  0  0  0  0  0  0  0  0  0  0
  153.8217  141.8116  159.5824 H   0  0  0  0  0  0  0  0  0  0  0  0
  150.2709  136.6372  155.4716 H   0  0  0  0  0  0  0  0  0  0  0  0
  1  2  1  0  0  0  0
  1 16  1  0  0  0  0
  1 17  1  0  0  0  0
  1 18  1  0  0  0  0
  2 15  1  0  0  0  0
  2  3  1  0  0  0  0
  2 19  1  0  0  0  0
  3  4  1  0  0  0  0
  3 20  1  0  0  0  0
  3 21  1  0  0  0  0
  4  5  1  0  0  0  0
  4 13  1  0  0  0  0
  5 12  1  0  0  0  0
  5  6  2  0  0  0  0
  6  7  1  0  0  0  0
  6 22  1  0  0  0  0
  7  8  1  0  0  0  0
  7 10  2  0  0  0  0
  8  9  1  0  0  0  0
  8 23  1  0  0  0  0
  8 24  1  0  0  0  0
  9 25  1  0  0  0  0
  9 26  1  0  0  0  0
  9 33  1  0  0  0  0
 10 11  1  0  0  0  0
 10 27  1  0  0  0  0
 11 12  2  0  0  0  0
 11 28  1  0  0  0  0
 13 14  1  0  0  0  0
 13 29  1  0  0  0  0
 13 30  1  0  0  0  0
 14 15  1  0  0  0  0
 14 31  1  0  0  0  0
 14 32  1  0  0  0  0
M  CHG  1   9   1
M  END
> <s_m_source_file>
AV-unprocessed.smi

> <i_m_source_file_index>
3115

> <i_lp_mmshare_version>
43012

> <i_f3d_flags>
0

> <s_epik_input>
W0NIM11bQ0BASF0xW0NIMl1OKFtDSDJdW0NIMl1PMSljMltjSF1jKFtDSDJdW05IMl0pW2NIXVtjSF1uMg==

> <s_epik_cmdline>
J2VwaWtfcHl0aG9uJywgJy1waCcsICc3LjAnLCAnLXRuJywgJzgnLCAnLW1hJywgJzIwMCcsICctbWV0YWxfYmluZGluZycsICctaW1hZScsICc8aW5maWxlLm1hZT4nLCAnLW9tYWUnLCAnPG91dGZpbGUubWFlPic=

> <r_lp_tautomer_probability>
1

> <r_epik_Ionization_Penalty>
0.0768907

> <r_epik_Ionization_Penalty_Charging>
0.0768864

> <r_epik_Ionization_Penalty_Neutral>
4.339e-06

> <r_epik_State_Penalty>
0.0093217

> <r_epik_Charging_Adjusted_Penalty>
0.0862081

> <i_epik_Tot_Q>
1

> <i_epik_Tot_abs_Q>
1

> <r_epik_Metal_State_Penalty>
0.0096683

> <b_epik_Metal_Only>
0

> <s_lp_Force_Field>
OPLS_2005

> <r_lp_Energy>
14.5686

> <b_lp_Chiralities_Consistent>
1

> <s_lp_Variant>
AV-unprocessed.smi:3115-1

> <Gold.Version>
5.8.1

> <Gold.Id.Protein>
6NUR|6NUR_protein|mol2

> <Gold.PLP.Fitness>
41.6408

> <Gold.PLP.PLP>
-35.7740

> <Gold.PLP.part.hbond>
-1.6501

> <Gold.PLP.part.metal>
0.0000

> <Gold.PLP.part.buried>
-2.4809

> <Gold.PLP.part.nonpolar>
-31.9368

> <Gold.PLP.part.repulsive>
0.1796

> <Gold.PLP.ligand.clash>
0.0000

> <Gold.PLP.ligand.torsion>
0.1159

> <Gold.PLP.Chemscore.Hbond>
2.0000

> <Gold.PLP.Chemscore.CHOScore>
0.0000

> <Gold.PLP.Chemscore.Metal>
0.0000

> <Gold.PLP.Chemscore.Internal.Correction>
0.0986

> <Gold.Rescore>
     Score         DG    S(hbond)    S(metal)    S(lipo)     H(rot)  DE(clash)    DE(int)     intcor
     15.63     -15.81       0.98        0.00      88.77       1.30       0.12       0.06       ----

> <Gold.Chemscore.Fitness>
15.6259

> <Gold.Chemscore.DG>
-15.8103

> <Gold.Chemscore.ZeroCoef>
-5.4800

> <Gold.Chemscore.Hbond>
0.9832

> <Gold.Chemscore.Metal>
0.0000

> <Gold.Chemscore.Lipo>
88.7687

> <Gold.Chemscore.Internal_Hbond>
0.0000

> <Gold.Chemscore.DEClash>
0.1242

> <Gold.Chemscore.DEInternal>
0.0602

> <Gold.Chemscore.Rot>
1.3045

> <Gold.Chemscore.Internal.Correction>
   9.000000E+99

> <Gold.Chemscore.Hbond.Weighted>
-3.2839

> <Gold.Chemscore.Metal.Weighted>
-0.0000

> <Gold.Chemscore.Lipo.Weighted>
-10.3859

> <Gold.Chemscore.Internal_Hbond.Weighted>
0.0000

> <Gold.Chemscore.DEClash.Weighted>
0.1242

> <Gold.Chemscore.DEInternal.Weighted>
0.0602

> <Gold.Chemscore.Rot.Weighted>
3.3395

> <Gold.Chemscore.Internal.Correction.Weighted>
   9.000000E+99

> <Gold.Protein.RotatedTorsions>
[ 6907 6896 6895 6894 ] final -153.55 input  -60.11 | X-H torsion
[ 7974 7965 7964 7962 ] final  -31.81 input  175.53 | X-H torsion
[ 8008 7997 7996 7995 ] final -119.52 input   59.86 | X-H torsion
[ 10167 10162 10161 10158 ] final -119.83 input  -65.29 | X-H torsion
[ 10718 10713 10712 10709 ] final  -97.78 input   66.30 | X-H torsion
[ 10763 10752 10751 10750 ] final   24.61 input  -60.55 | X-H torsion
[ 11005 11000 10999 10996 ] final  154.50 input  -57.11 | X-H torsion

> <Gold.Protein.ActiveResidues>
 VAL166  LYS551  ARG553  GLY616  TRP617  ASP618  TYR619  PRO620  LYS621  CYS622 
 ASP623  PHE694  ASN695  SER759  ASP760  ASP761  ALA762  ILE779  LEU786  VAL792 
 PHE793  MET794  SER795  GLU796  ALA797  LYS798  CYS799  TRP800  GLU811  SER814 

> <Gold.Protein.RotatedAtoms>
  151.2442  133.4384  159.2608 H   0  0  0  0  0  0  0  0  0  0  0  0  # atno 6907 bound_to 6896
  151.0677  134.9778  159.8303 H   0  0  0  0  0  0  0  0  0  0  0  0  # atno 6908 bound_to 6896
  152.5408  134.2389  159.8907 H   0  0  0  0  0  0  0  0  0  0  0  0  # atno 6909 bound_to 6896
  146.1038  140.5714  142.8809 H   0  0  0  0  0  0  0  0  0  0  0  0  # atno 7974 bound_to 7965
  155.1171  140.0398  157.2740 H   0  0  0  0  0  0  0  0  0  0  0  0  # atno 8008 bound_to 7997
  154.6641  140.2597  155.7051 H   0  0  0  0  0  0  0  0  0  0  0  0  # atno 8009 bound_to 7997
  156.2631  140.2811  156.1125 H   0  0  0  0  0  0  0  0  0  0  0  0  # atno 8010 bound_to 7997
  140.0424  143.5140  152.2123 H   0  0  0  0  0  0  0  0  0  0  0  0  # atno 10167 bound_to 10162
  156.0091  130.5209  150.6426 H   0  0  0  0  0  0  0  0  0  0  0  0  # atno 10718 bound_to 10713
  153.0751  135.6601  154.0163 H   0  0  0  0  0  0  0  0  0  0  0  0  # atno 10763 bound_to 10752
  153.9799  135.2956  155.3422 H   0  0  0  0  0  0  0  0  0  0  0  0  # atno 10764 bound_to 10752
  154.7137  135.5194  153.8776 H   0  0  0  0  0  0  0  0  0  0  0  0  # atno 10765 bound_to 10752
  140.1494  134.8685  157.2435 H   0  0  0  0  0  0  0  0  0  0  0  0  # atno 11005 bound_to 11000
  144.7454  140.5054  143.6839 LP  0  0  0  0  0  0  0  0  0  0  0  0  # atno 17320 bound_to 7965
  145.5801  139.1488  143.3240 LP  0  0  0  0  0  0  0  0  0  0  0  0  # atno 17321 bound_to 7965
  139.6005  144.7581  151.3183 LP  0  0  0  0  0  0  0  0  0  0  0  0  # atno 17342 bound_to 10162
  140.7254  143.7018  150.7838 LP  0  0  0  0  0  0  0  0  0  0  0  0  # atno 17343 bound_to 10162
  157.4203  131.0836  151.1137 LP  0  0  0  0  0  0  0  0  0  0  0  0  # atno 17370 bound_to 10713
  157.1741  130.6280  149.5650 LP  0  0  0  0  0  0  0  0  0  0  0  0  # atno 17371 bound_to 10713
  140.2623  134.3557  155.7402 LP  0  0  0  0  0  0  0  0  0  0  0  0  # atno 17394 bound_to 11000
  141.2197  133.7376  156.9098 LP  0  0  0  0  0  0  0  0  0  0  0  0  # atno 17395 bound_to 11000

$$$$
