AV-unprocessed.smi:1769|AV-procd|sdf|7151|dock1
  -GOLD-   22720 8393D 1   1.00000     0.00000
 Structure written by MMmdl.
 41 42  0  0  0  0  0  0  0  0  1 V2000
  148.5106  140.5423  154.2277 C   0  0  0  0  0  0  0  0  0  0  0  0
  149.7221  140.7775  155.1326 C   0  0  0  0  0  0  0  0  0  0  0  0
  149.7287  141.7852  155.8398 O   0  0  0  0  0  0  0  0  0  0  0  0
  150.7357  139.8784  155.1296 N   0  0  0  0  0  0  0  0  0  0  0  0
  150.7493  138.6174  154.3771 C   0  0  0  0  0  0  0  0  0  0  0  0
  150.5998  137.4512  155.3703 C   0  0  0  0  0  0  0  0  0  0  0  0
  151.7025  137.4990  156.4455 C   0  0  0  0  0  0  0  0  0  0  0  0
  151.8021  138.8945  157.1068 C   0  0  1  0  0  0  0  0  0  0  0  0
  152.9965  138.9679  158.0673 C   0  0  0  0  0  0  0  0  0  0  0  0
  154.1312  138.7029  157.6686 O   0  0  0  0  0  0  0  0  0  0  0  0
  152.7279  139.3271  159.3322 N   0  0  0  0  0  0  0  0  0  0  0  0
  153.7177  139.4439  160.3960 C   0  0  0  0  0  0  0  0  0  0  0  0
  154.5331  140.7403  160.2666 C   0  0  0  0  0  0  0  0  0  0  0  0
  153.6859  141.9722  160.5153 C   0  0  0  0  0  0  0  0  0  0  0  0
  153.5204  142.4838  161.8187 C   0  0  0  0  0  0  0  0  0  0  0  0
  152.7284  143.6339  161.9998 C   0  0  0  0  0  0  0  0  0  0  0  0
  152.1359  144.2258  160.8664 C   0  0  0  0  0  0  0  0  0  0  0  0
  152.2882  143.7451  159.6136 N   0  0  0  0  0  0  0  0  0  0  0  0
  153.0481  142.6409  159.4486 C   0  0  0  0  0  0  0  0  0  0  0  0
  151.8981  139.9896  156.0201 C   0  0  0  0  0  0  0  0  0  0  0  0
  148.0330  139.5897  154.4593 H   0  0  0  0  0  0  0  0  0  0  0  0
  148.8065  140.5460  153.1781 H   0  0  0  0  0  0  0  0  0  0  0  0
  147.7680  141.3290  154.3670 H   0  0  0  0  0  0  0  0  0  0  0  0
  149.9772  138.5554  153.6118 H   0  0  0  0  0  0  0  0  0  0  0  0
  151.6958  138.5307  153.8414 H   0  0  0  0  0  0  0  0  0  0  0  0
  149.6202  137.5027  155.8472 H   0  0  0  0  0  0  0  0  0  0  0  0
  150.6374  136.4992  154.8403 H   0  0  0  0  0  0  0  0  0  0  0  0
  151.5139  136.7350  157.2007 H   0  0  0  0  0  0  0  0  0  0  0  0
  152.6543  137.2401  155.9788 H   0  0  0  0  0  0  0  0  0  0  0  0
  150.8882  139.0648  157.6793 H   0  0  0  0  0  0  0  0  0  0  0  0
  151.7693  139.5307  159.5754 H   0  0  0  0  0  0  0  0  0  0  0  0
  153.2283  139.3946  161.3704 H   0  0  0  0  0  0  0  0  0  0  0  0
  154.3807  138.5800  160.3382 H   0  0  0  0  0  0  0  0  0  0  0  0
  155.3649  140.7323  160.9723 H   0  0  0  0  0  0  0  0  0  0  0  0
  154.9746  140.8130  159.2716 H   0  0  0  0  0  0  0  0  0  0  0  0
  153.9925  142.0058  162.6647 H   0  0  0  0  0  0  0  0  0  0  0  0
  152.5792  144.0533  162.9836 H   0  0  0  0  0  0  0  0  0  0  0  0
  151.5236  145.1095  160.9689 H   0  0  0  0  0  0  0  0  0  0  0  0
  153.1524  142.2828  158.4348 H   0  0  0  0  0  0  0  0  0  0  0  0
  152.8091  139.8689  155.4313 H   0  0  0  0  0  0  0  0  0  0  0  0
  151.9762  140.9753  156.4820 H   0  0  0  0  0  0  0  0  0  0  0  0
  1  2  1  0  0  0  0
  1 21  1  0  0  0  0
  1 22  1  0  0  0  0
  1 23  1  0  0  0  0
  2  3  2  0  0  0  0
  2  4  1  0  0  0  0
  4 20  1  0  0  0  0
  4  5  1  0  0  0  0
  5  6  1  0  0  0  0
  5 24  1  0  0  0  0
  5 25  1  0  0  0  0
  6  7  1  0  0  0  0
  6 26  1  0  0  0  0
  6 27  1  0  0  0  0
  7  8  1  0  0  0  0
  7 28  1  0  0  0  0
  7 29  1  0  0  0  0
  8  9  1  0  0  0  0
  8 20  1  0  0  0  0
  8 30  1  0  0  0  0
  9 10  2  0  0  0  0
  9 11  1  0  0  0  0
 11 12  1  0  0  0  0
 11 31  1  0  0  0  0
 12 13  1  0  0  0  0
 12 32  1  0  0  0  0
 12 33  1  0  0  0  0
 13 14  1  0  0  0  0
 13 34  1  0  0  0  0
 13 35  1  0  0  0  0
 14 19  1  0  0  0  0
 14 15  2  0  0  0  0
 15 16  1  0  0  0  0
 15 36  1  0  0  0  0
 16 17  2  0  0  0  0
 16 37  1  0  0  0  0
 17 18  1  0  0  0  0
 17 38  1  0  0  0  0
 18 19  2  0  0  0  0
 19 39  1  0  0  0  0
 20 40  1  0  0  0  0
 20 41  1  0  0  0  0
M  END
> <s_m_source_file>
AV-unprocessed.smi

> <i_m_source_file_index>
1769

> <i_lp_mmshare_version>
43012

> <i_f3d_flags>
0

> <s_epik_input>
W0NIM11DKD1PKU4xW0NIMl1bQ0gyXVtDSDJdW0NASF0oW0NIMl0xKUMoPU8pW05IXVtDSDJdW0NIMl1jMltjSF1bY0hdW2NIXW5bY0hdMg==

> <s_epik_cmdline>
J2VwaWtfcHl0aG9uJywgJy1waCcsICc3LjAnLCAnLXRuJywgJzgnLCAnLW1hJywgJzIwMCcsICctbWV0YWxfYmluZGluZycsICctaW1hZScsICc8aW5maWxlLm1hZT4nLCAnLW9tYWUnLCAnPG91dGZpbGUubWFlPic=

> <r_epik_Ionization_Penalty>
0.0134099

> <r_epik_Ionization_Penalty_Charging>
0

> <r_epik_Ionization_Penalty_Neutral>
0.0134099

> <r_epik_State_Penalty>
0.010434

> <r_epik_Charging_Adjusted_Penalty>
0.010434

> <i_epik_Tot_Q>
0

> <i_epik_Tot_abs_Q>
0

> <r_epik_Metal_State_Penalty>
0.0102025

> <b_epik_Metal_Only>
0

> <s_lp_Force_Field>
OPLS_2005

> <r_lp_Energy>
22.5889

> <b_lp_Chiralities_Consistent>
1

> <s_lp_Variant>
AV-unprocessed.smi:1769-1

> <Gold.Version>
5.8.1

> <Gold.Id.Protein>
6NUR|6NUR_protein|mol2

> <Gold.PLP.Fitness>
45.3426

> <Gold.PLP.PLP>
-43.4466

> <Gold.PLP.part.hbond>
-0.7829

> <Gold.PLP.part.metal>
0.0000

> <Gold.PLP.part.buried>
-3.4622

> <Gold.PLP.part.nonpolar>
-38.3761

> <Gold.PLP.part.repulsive>
0.2465

> <Gold.PLP.ligand.clash>
0.0000

> <Gold.PLP.ligand.torsion>
0.5742

> <Gold.PLP.Chemscore.Hbond>
1.0000

> <Gold.PLP.Chemscore.CHOScore>
0.0000

> <Gold.PLP.Chemscore.Metal>
0.0000

> <Gold.Chemscore.Hbonds>
donor molecule, donor type, donor heavy atom, donor atom, acceptor molecule, acceptor atom, score
      P1  H  7997  8010       L1    10  0.97

> <Gold.PLP.Chemscore.Internal.Correction>
0.0444

> <Gold.Rescore>
     Score         DG    S(hbond)    S(metal)    S(lipo)     H(rot)  DE(clash)    DE(int)     intcor
     16.42     -17.77       0.96        0.00     111.01       1.52       0.76       0.59       ----

> <Gold.Chemscore.Fitness>
16.4163

> <Gold.Chemscore.DG>
-17.7679

> <Gold.Chemscore.ZeroCoef>
-5.4800

> <Gold.Chemscore.Hbond>
0.9558

> <Gold.Chemscore.Metal>
0.0000

> <Gold.Chemscore.Lipo>
111.0083

> <Gold.Chemscore.Internal_Hbond>
0.0000

> <Gold.Chemscore.DEClash>
0.7567

> <Gold.Chemscore.DEInternal>
0.5949

> <Gold.Chemscore.Rot>
1.5205

> <Gold.Chemscore.Internal.Correction>
   9.000000E+99

> <Gold.Chemscore.Hbonds>
donor molecule, donor type, donor heavy atom, donor atom, acceptor molecule, acceptor atom, score
      P1  H  7997  8010       L1    10  0.48

> <Gold.Chemscore.Hbond.Weighted>
-3.1924

> <Gold.Chemscore.Metal.Weighted>
-0.0000

> <Gold.Chemscore.Lipo.Weighted>
-12.9880

> <Gold.Chemscore.Internal_Hbond.Weighted>
0.0000

> <Gold.Chemscore.DEClash.Weighted>
0.7567

> <Gold.Chemscore.DEInternal.Weighted>
0.5949

> <Gold.Chemscore.Rot.Weighted>
3.8926

> <Gold.Chemscore.Internal.Correction.Weighted>
   9.000000E+99

> <Gold.Protein.RotatedTorsions>
[ 6907 6896 6895 6894 ] final   40.39 input  -60.11 | X-H torsion
[ 7974 7965 7964 7962 ] final   -1.62 input  175.53 | X-H torsion
[ 8008 7997 7996 7995 ] final   30.68 input   59.86 | X-H torsion
[ 10167 10162 10161 10158 ] final  -91.46 input  -65.29 | X-H torsion
[ 10718 10713 10712 10709 ] final  -66.99 input   66.30 | X-H torsion
[ 10763 10752 10751 10750 ] final  117.80 input  -60.55 | X-H torsion
[ 11005 11000 10999 10996 ] final -128.91 input  -57.11 | X-H torsion

> <Gold.Protein.ActiveResidues>
 VAL166  LYS551  ARG553  GLY616  TRP617  ASP618  TYR619  PRO620  LYS621  CYS622 
 ASP623  PHE694  ASN695  SER759  ASP760  ASP761  ALA762  ILE779  LEU786  VAL792 
 PHE793  MET794  SER795  GLU796  ALA797  LYS798  CYS799  TRP800  GLU811  SER814 

> <Gold.Protein.RotatedAtoms>
  152.1819  134.8747  160.0525 H   0  0  0  0  0  0  0  0  0  0  0  0  # atno 6907 bound_to 6896
  151.9668  133.3708  159.4064 H   0  0  0  0  0  0  0  0  0  0  0  0  # atno 6908 bound_to 6896
  150.6919  134.4106  159.5204 H   0  0  0  0  0  0  0  0  0  0  0  0  # atno 6909 bound_to 6896
  146.2415  140.1447  142.8335 H   0  0  0  0  0  0  0  0  0  0  0  0  # atno 7974 bound_to 7965
  155.0943  140.3223  155.4565 H   0  0  0  0  0  0  0  0  0  0  0  0  # atno 8008 bound_to 7997
  156.2734  140.2072  156.6016 H   0  0  0  0  0  0  0  0  0  0  0  0  # atno 8009 bound_to 7997
  154.6879  140.0519  157.0320 H   0  0  0  0  0  0  0  0  0  0  0  0  # atno 8010 bound_to 7997
  140.3446  143.2923  151.9796 H   0  0  0  0  0  0  0  0  0  0  0  0  # atno 10167 bound_to 10162
  156.0582  130.4271  150.1789 H   0  0  0  0  0  0  0  0  0  0  0  0  # atno 10718 bound_to 10713
  153.5580  135.3526  155.2787 H   0  0  0  0  0  0  0  0  0  0  0  0  # atno 10763 bound_to 10752
  154.8698  135.4129  154.2863 H   0  0  0  0  0  0  0  0  0  0  0  0  # atno 10764 bound_to 10752
  153.3603  135.7059  153.6787 H   0  0  0  0  0  0  0  0  0  0  0  0  # atno 10765 bound_to 10752
  140.9476  134.1109  157.4092 H   0  0  0  0  0  0  0  0  0  0  0  0  # atno 11005 bound_to 11000
  145.0217  140.8799  143.5163 LP  0  0  0  0  0  0  0  0  0  0  0  0  # atno 17320 bound_to 7965
  145.1497  139.2522  143.5447 LP  0  0  0  0  0  0  0  0  0  0  0  0  # atno 17321 bound_to 7965
  139.4835  144.6127  151.7403 LP  0  0  0  0  0  0  0  0  0  0  0  0  # atno 17342 bound_to 10162
  140.5276  144.0781  150.6043 LP  0  0  0  0  0  0  0  0  0  0  0  0  # atno 17343 bound_to 10162
  156.9862  130.9879  151.3426 LP  0  0  0  0  0  0  0  0  0  0  0  0  # atno 17370 bound_to 10713
  157.5569  130.8220  149.8216 LP  0  0  0  0  0  0  0  0  0  0  0  0  # atno 17371 bound_to 10713
  139.8838  135.0056  156.6325 LP  0  0  0  0  0  0  0  0  0  0  0  0  # atno 17394 bound_to 11000
  140.7647  133.8788  155.8445 LP  0  0  0  0  0  0  0  0  0  0  0  0  # atno 17395 bound_to 11000

$$$$
