AV-unprocessed.smi:1894|AV-procd|sdf|7679|dock4
  -GOLD-   22720 9423D 1   1.00000     0.00000
 Structure written by MMmdl.
 32 34  0  0  0  0  0  0  0  0  1 V2000
  151.7170  140.8206  156.8739 O   0  0  0  0  0  0  0  0  0  0  0  0
  150.9307  141.6967  156.5151 C   0  0  0  0  0  0  0  0  0  0  0  0
  149.9051  141.3992  155.4216 C   0  0  0  0  0  0  0  0  0  0  0  0
  149.9557  140.0026  155.0312 N   0  0  0  0  0  0  0  0  0  0  0  0
  149.0630  139.0242  155.1926 C   0  0  0  0  0  0  0  0  0  0  0  0
  149.4578  137.8544  154.7093 N   0  0  0  0  0  0  0  0  0  0  0  0
  150.6877  138.2085  154.2308 C   0  0  0  0  0  0  0  0  0  0  0  0
  151.0352  139.4846  154.3984 N   0  0  0  0  0  0  0  0  0  0  0  0
  150.9127  142.9372  157.0271 N   0  0  0  0  0  0  0  0  0  0  0  0
  151.8086  143.4472  158.0594 C   0  0  0  0  0  0  0  0  0  0  0  0
  151.8538  142.5540  159.2888 C   0  0  0  0  0  0  0  0  0  0  0  0
  152.9517  142.6885  160.3182 C   0  0  0  0  0  0  0  0  0  0  0  0
  152.8901  141.4639  159.4353 C   0  0  0  0  0  0  0  0  0  0  0  0
  151.4463  144.8678  158.4534 C   0  0  0  0  0  0  0  0  0  0  0  0
  151.9147  145.4570  159.7623 C   0  0  0  0  0  0  0  0  0  0  0  0
  150.4484  145.1545  159.5505 C   0  0  0  0  0  0  0  0  0  0  0  0
  148.9008  141.6264  155.7814 H   0  0  0  0  0  0  0  0  0  0  0  0
  150.0856  142.0301  154.5495 H   0  0  0  0  0  0  0  0  0  0  0  0
  148.1077  139.1708  155.6752 H   0  0  0  0  0  0  0  0  0  0  0  0
  151.3467  137.5045  153.7442 H   0  0  0  0  0  0  0  0  0  0  0  0
  150.2310  143.5858  156.6605 H   0  0  0  0  0  0  0  0  0  0  0  0
  152.8171  143.4831  157.6416 H   0  0  0  0  0  0  0  0  0  0  0  0
  150.8681  142.3231  159.6888 H   0  0  0  0  0  0  0  0  0  0  0  0
  153.7511  143.4004  160.1242 H   0  0  0  0  0  0  0  0  0  0  0  0
  152.6764  142.5698  161.3640 H   0  0  0  0  0  0  0  0  0  0  0  0
  152.5725  140.5284  159.8907 H   0  0  0  0  0  0  0  0  0  0  0  0
  153.6475  141.3710  158.6598 H   0  0  0  0  0  0  0  0  0  0  0  0
  151.4242  145.5565  157.6105 H   0  0  0  0  0  0  0  0  0  0  0  0
  152.4670  144.8100  160.4413 H   0  0  0  0  0  0  0  0  0  0  0  0
  152.2195  146.5015  159.7620 H   0  0  0  0  0  0  0  0  0  0  0  0
  149.7752  145.9973  159.4077 H   0  0  0  0  0  0  0  0  0  0  0  0
  150.0306  144.3114  160.0968 H   0  0  0  0  0  0  0  0  0  0  0  0
  1  2  2  0  0  0  0
  2  3  1  0  0  0  0
  2  9  1  0  0  0  0
  3  4  1  0  0  0  0
  3 17  1  0  0  0  0
  3 18  1  0  0  0  0
  4  8  1  0  0  0  0
  4  5  1  0  0  0  0
  5  6  2  0  0  0  0
  5 19  1  0  0  0  0
  6  7  1  0  0  0  0
  7  8  2  0  0  0  0
  7 20  1  0  0  0  0
  9 10  1  0  0  0  0
  9 21  1  0  0  0  0
 10 11  1  0  0  0  0
 10 14  1  0  0  0  0
 10 22  1  0  0  0  0
 11 13  1  0  0  0  0
 11 12  1  0  0  0  0
 11 23  1  0  0  0  0
 12 13  1  0  0  0  0
 12 24  1  0  0  0  0
 12 25  1  0  0  0  0
 13 26  1  0  0  0  0
 13 27  1  0  0  0  0
 14 16  1  0  0  0  0
 14 15  1  0  0  0  0
 14 28  1  0  0  0  0
 15 16  1  0  0  0  0
 15 29  1  0  0  0  0
 15 30  1  0  0  0  0
 16 31  1  0  0  0  0
 16 32  1  0  0  0  0
M  END
> <s_m_source_file>
AV-unprocessed.smi

> <i_m_source_file_index>
1894

> <i_lp_mmshare_version>
43012

> <i_f3d_flags>
0

> <s_epik_input>
W0NIMl0xW0NIMl1bQ0hdMVtDSF0oW0NIXTJbQ0gyXVtDSDJdMilbTkhdQyg9TylbQ0gyXW4zW2NIXW5bY0hdbjM=

> <s_epik_cmdline>
J2VwaWtfcHl0aG9uJywgJy1waCcsICc3LjAnLCAnLXRuJywgJzgnLCAnLW1hJywgJzIwMCcsICctbWV0YWxfYmluZGluZycsICctaW1hZScsICc8aW5maWxlLm1hZT4nLCAnLW9tYWUnLCAnPG91dGZpbGUubWFlPic=

> <r_lp_tautomer_probability>
1

> <r_epik_Ionization_Penalty>
9.18136e-06

> <r_epik_Ionization_Penalty_Charging>
0

> <r_epik_Ionization_Penalty_Neutral>
9.18136e-06

> <r_epik_State_Penalty>
-0

> <r_epik_Charging_Adjusted_Penalty>
0

> <i_epik_Tot_Q>
0

> <i_epik_Tot_abs_Q>
0

> <r_epik_Metal_State_Penalty>
-0

> <b_epik_Metal_Only>
0

> <s_lp_Force_Field>
OPLS_2005

> <r_lp_Energy>
25.0863

> <b_lp_Chiralities_Consistent>
1

> <s_lp_Variant>
AV-unprocessed.smi:1894-1

> <Gold.Version>
5.8.1

> <Gold.Id.Protein>
6NUR|6NUR_protein|mol2

> <Gold.PLP.Fitness>
46.0567

> <Gold.PLP.PLP>
-38.3630

> <Gold.PLP.part.hbond>
-2.0000

> <Gold.PLP.part.metal>
0.0000

> <Gold.PLP.part.buried>
-5.1716

> <Gold.PLP.part.nonpolar>
-32.1781

> <Gold.PLP.part.repulsive>
0.3506

> <Gold.PLP.ligand.clash>
0.0000

> <Gold.PLP.ligand.torsion>
1.1978

> <Gold.PLP.Chemscore.Hbond>
2.0000

> <Gold.PLP.Chemscore.CHOScore>
0.6509

> <Gold.PLP.Chemscore.Metal>
0.0000

> <Gold.Chemscore.Hbonds>
donor molecule, donor type, donor heavy atom, donor atom, acceptor molecule, acceptor atom, score
      L1  H     9    21       P1  8028  1.00
      P1  H  7989  7998       L1     8  1.00
      L1  C     7    20       P1  7949  0.52

> <Gold.PLP.Chemscore.Internal.Correction>
2.1367

> <Gold.Rescore>
     Score         DG    S(hbond)    S(metal)    S(lipo)     H(rot)  DE(clash)    DE(int)     intcor
     11.39     -15.49       1.82        0.00      88.23       2.50       0.46       3.64       ----

> <Gold.Chemscore.Fitness>
11.3874

> <Gold.Chemscore.DG>
-15.4878

> <Gold.Chemscore.ZeroCoef>
-5.4800

> <Gold.Chemscore.Hbond>
1.8201

> <Gold.Chemscore.Metal>
0.0000

> <Gold.Chemscore.Lipo>
88.2289

> <Gold.Chemscore.Internal_Hbond>
0.0000

> <Gold.Chemscore.DEClash>
0.4603

> <Gold.Chemscore.DEInternal>
3.6402

> <Gold.Chemscore.Rot>
2.4977

> <Gold.Chemscore.Internal.Correction>
   9.000000E+99

> <Gold.Chemscore.Hbonds>
donor molecule, donor type, donor heavy atom, donor atom, acceptor molecule, acceptor atom, score
      L1  H     9    21       P1  8028  0.94
      P1  H  7989  7998       L1     8  0.40

> <Gold.Chemscore.Hbond.Weighted>
-6.0791

> <Gold.Chemscore.Metal.Weighted>
-0.0000

> <Gold.Chemscore.Lipo.Weighted>
-10.3228

> <Gold.Chemscore.Internal_Hbond.Weighted>
0.0000

> <Gold.Chemscore.DEClash.Weighted>
0.4603

> <Gold.Chemscore.DEInternal.Weighted>
3.6402

> <Gold.Chemscore.Rot.Weighted>
6.3941

> <Gold.Chemscore.Internal.Correction.Weighted>
   9.000000E+99

> <Gold.Protein.RotatedTorsions>
[ 6907 6896 6895 6894 ] final -140.68 input  -60.11 | X-H torsion
[ 7974 7965 7964 7962 ] final -138.01 input  175.53 | X-H torsion
[ 8008 7997 7996 7995 ] final   42.98 input   59.86 | X-H torsion
[ 10167 10162 10161 10158 ] final -141.26 input  -65.29 | X-H torsion
[ 10718 10713 10712 10709 ] final  165.82 input   66.30 | X-H torsion
[ 10763 10752 10751 10750 ] final  154.23 input  -60.55 | X-H torsion
[ 11005 11000 10999 10996 ] final   92.46 input  -57.11 | X-H torsion

> <Gold.Protein.ActiveResidues>
 VAL166  LYS551  ARG553  GLY616  TRP617  ASP618  TYR619  PRO620  LYS621  CYS622 
 ASP623  PHE694  ASN695  SER759  ASP760  ASP761  ALA762  ILE779  LEU786  VAL792 
 PHE793  MET794  SER795  GLU796  ALA797  LYS798  CYS799  TRP800  GLU811  SER814 

> <Gold.Protein.RotatedAtoms>
  151.0639  133.5521  159.2631 H   0  0  0  0  0  0  0  0  0  0  0  0  # atno 6907 bound_to 6896
  151.2486  135.0613  159.9063 H   0  0  0  0  0  0  0  0  0  0  0  0  # atno 6908 bound_to 6896
  152.5402  134.0403  159.8118 H   0  0  0  0  0  0  0  0  0  0  0  0  # atno 6909 bound_to 6896
  144.8794  140.6485  143.5216 H   0  0  0  0  0  0  0  0  0  0  0  0  # atno 7974 bound_to 7965
  155.2951  140.3381  155.4250 H   0  0  0  0  0  0  0  0  0  0  0  0  # atno 8008 bound_to 7997
  156.2027  140.1739  156.7904 H   0  0  0  0  0  0  0  0  0  0  0  0  # atno 8009 bound_to 7997
  154.5581  140.0692  156.8759 H   0  0  0  0  0  0  0  0  0  0  0  0  # atno 8010 bound_to 7997
  139.8202  143.7584  152.2666 H   0  0  0  0  0  0  0  0  0  0  0  0  # atno 10167 bound_to 10162
  157.0747  131.0376  151.2598 H   0  0  0  0  0  0  0  0  0  0  0  0  # atno 10718 bound_to 10713
  154.1490  135.2816  155.3140 H   0  0  0  0  0  0  0  0  0  0  0  0  # atno 10763 bound_to 10752
  154.6231  135.5460  153.7601 H   0  0  0  0  0  0  0  0  0  0  0  0  # atno 10764 bound_to 10752
  153.0227  135.6444  154.1635 H   0  0  0  0  0  0  0  0  0  0  0  0  # atno 10765 bound_to 10752
  139.8823  134.8734  156.3576 H   0  0  0  0  0  0  0  0  0  0  0  0  # atno 11005 bound_to 11000
  145.3982  139.1603  143.4192 LP  0  0  0  0  0  0  0  0  0  0  0  0  # atno 17320 bound_to 7965
  146.2984  140.4077  142.8713 LP  0  0  0  0  0  0  0  0  0  0  0  0  # atno 17321 bound_to 7965
  139.7760  144.7461  151.0156 LP  0  0  0  0  0  0  0  0  0  0  0  0  # atno 17342 bound_to 10162
  140.7813  143.4593  151.0300 LP  0  0  0  0  0  0  0  0  0  0  0  0  # atno 17343 bound_to 10162
  157.4849  130.7787  149.7450 LP  0  0  0  0  0  0  0  0  0  0  0  0  # atno 17370 bound_to 10713
  155.9940  130.3920  150.2876 LP  0  0  0  0  0  0  0  0  0  0  0  0  # atno 17371 bound_to 10713
  140.9551  133.7425  156.0325 LP  0  0  0  0  0  0  0  0  0  0  0  0  # atno 17394 bound_to 11000
  140.8058  134.3456  157.5426 LP  0  0  0  0  0  0  0  0  0  0  0  0  # atno 17395 bound_to 11000

$$$$
