AV-unprocessed.smi:3348|AV-procd|sdf|12930|dock4
  -GOLD-   2272019363D 1   1.00000     0.00000
 Structure written by MMmdl.
 46 47  0  0  0  0  0  0  0  0  1 V2000
  151.0818  138.4490  154.5903 C   0  0  0  0  0  0  0  0  0  0  0  0
  150.9793  139.8563  155.2034 C   0  0  1  0  0  0  0  0  0  0  0  0
  149.6704  140.5858  154.8138 C   0  0  0  0  0  0  0  0  0  0  0  0
  148.5057  139.7190  154.8283 N   0  0  0  0  0  0  0  0  0  0  0  0
  148.1629  138.7291  153.9313 C   0  0  0  0  0  0  0  0  0  0  0  0
  146.9868  138.1832  154.3587 C   0  0  0  0  0  0  0  0  0  0  0  0
  146.6877  138.9111  155.5441 C   0  0  0  0  0  0  0  0  0  0  0  0
  147.6001  139.8275  155.8245 N   0  0  0  0  0  0  0  0  0  0  0  0
  151.1320  139.7560  156.6579 N   0  0  0  0  0  0  0  0  0  0  0  0
  150.6756  140.9176  157.4195 C   0  0  0  0  0  0  0  0  0  0  0  0
  151.4361  141.0309  158.7443 C   0  0  0  0  0  0  0  0  0  0  0  0
  152.6993  141.6302  158.4944 O   0  0  0  0  0  0  0  0  0  0  0  0
  152.8080  142.9860  158.9122 C   0  0  1  0  0  0  0  0  0  0  0  0
  151.9592  143.8879  157.9895 C   0  0  0  0  0  0  0  0  0  0  0  0
  151.9285  145.3404  158.4867 C   0  0  0  0  0  0  0  0  0  0  0  0
  151.4267  145.4163  159.9350 C   0  0  0  0  0  0  0  0  0  0  0  0
  152.2773  144.5316  160.8586 C   0  0  0  0  0  0  0  0  0  0  0  0
  152.3137  143.0680  160.3749 C   0  0  2  0  0  0  0  0  0  0  0  0
  153.1726  142.2088  161.3171 C   0  0  0  0  0  0  0  0  0  0  0  0
  151.0969  138.4837  153.5009 H   0  0  0  0  0  0  0  0  0  0  0  0
  150.2420  137.8227  154.8930 H   0  0  0  0  0  0  0  0  0  0  0  0
  151.9992  137.9505  154.9051 H   0  0  0  0  0  0  0  0  0  0  0  0
  151.8157  140.4345  154.8081 H   0  0  0  0  0  0  0  0  0  0  0  0
  149.4856  141.4136  155.5003 H   0  0  0  0  0  0  0  0  0  0  0  0
  149.7457  141.0186  153.8160 H   0  0  0  0  0  0  0  0  0  0  0  0
  148.7760  138.5010  153.0718 H   0  0  0  0  0  0  0  0  0  0  0  0
  146.4262  137.3851  153.8954 H   0  0  0  0  0  0  0  0  0  0  0  0
  145.8409  138.8008  156.2050 H   0  0  0  0  0  0  0  0  0  0  0  0
  152.1048  139.5717  156.8830 H   0  0  0  0  0  0  0  0  0  0  0  0
  150.8047  141.8328  156.8405 H   0  0  0  0  0  0  0  0  0  0  0  0
  149.6119  140.8274  157.6372 H   0  0  0  0  0  0  0  0  0  0  0  0
  150.8692  141.6612  159.4306 H   0  0  0  0  0  0  0  0  0  0  0  0
  151.5362  140.0505  159.2102 H   0  0  0  0  0  0  0  0  0  0  0  0
  153.8515  143.3062  158.8808 H   0  0  0  0  0  0  0  0  0  0  0  0
  152.3460  143.8711  156.9711 H   0  0  0  0  0  0  0  0  0  0  0  0
  150.9407  143.5011  157.9380 H   0  0  0  0  0  0  0  0  0  0  0  0
  152.9283  145.7717  158.4216 H   0  0  0  0  0  0  0  0  0  0  0  0
  151.2889  145.9409  157.8393 H   0  0  0  0  0  0  0  0  0  0  0  0
  151.4507  146.4492  160.2833 H   0  0  0  0  0  0  0  0  0  0  0  0
  150.3844  145.0976  159.9802 H   0  0  0  0  0  0  0  0  0  0  0  0
  153.2921  144.9292  160.9058 H   0  0  0  0  0  0  0  0  0  0  0  0
  151.8804  144.5790  161.8733 H   0  0  0  0  0  0  0  0  0  0  0  0
  151.2947  142.6792  160.4096 H   0  0  0  0  0  0  0  0  0  0  0  0
  154.2116  142.5390  161.3178 H   0  0  0  0  0  0  0  0  0  0  0  0
  153.1576  141.1593  161.0227 H   0  0  0  0  0  0  0  0  0  0  0  0
  152.8052  142.2641  162.3421 H   0  0  0  0  0  0  0  0  0  0  0  0
  1  2  1  0  0  0  0
  1 20  1  0  0  0  0
  1 21  1  0  0  0  0
  1 22  1  0  0  0  0
  2  3  1  0  0  0  0
  2  9  1  0  0  0  0
  2 23  1  0  0  0  0
  3  4  1  0  0  0  0
  3 24  1  0  0  0  0
  3 25  1  0  0  0  0
  4  8  1  0  0  0  0
  4  5  1  0  0  0  0
  5  6  2  0  0  0  0
  5 26  1  0  0  0  0
  6  7  1  0  0  0  0
  6 27  1  0  0  0  0
  7  8  2  0  0  0  0
  7 28  1  0  0  0  0
  9 10  1  0  0  0  0
  9 29  1  0  0  0  0
 10 11  1  0  0  0  0
 10 30  1  0  0  0  0
 10 31  1  0  0  0  0
 11 12  1  0  0  0  0
 11 32  1  0  0  0  0
 11 33  1  0  0  0  0
 12 13  1  0  0  0  0
 13 18  1  0  0  0  0
 13 14  1  0  0  0  0
 13 34  1  0  0  0  0
 14 15  1  0  0  0  0
 14 35  1  0  0  0  0
 14 36  1  0  0  0  0
 15 16  1  0  0  0  0
 15 37  1  0  0  0  0
 15 38  1  0  0  0  0
 16 17  1  0  0  0  0
 16 39  1  0  0  0  0
 16 40  1  0  0  0  0
 17 18  1  0  0  0  0
 17 41  1  0  0  0  0
 17 42  1  0  0  0  0
 18 19  1  0  0  0  0
 18 43  1  0  0  0  0
 19 44  1  0  0  0  0
 19 45  1  0  0  0  0
 19 46  1  0  0  0  0
M  END
> <s_m_source_file>
AV-unprocessed.smi

> <i_m_source_file_index>
3348

> <i_lp_mmshare_version>
43012

> <i_f3d_flags>
0

> <s_epik_input>
bjFbY0hdW2NIXVtjSF1uMVtDSDJdW0NAQEhdKFtDSDNdKVtOSF1bQ0gyXVtDSDJdT1tDQEBIXTJbQ0gyXVtDSDJdW0NIMl1bQ0gyXVtDQEhdMltDSDNd

> <s_epik_cmdline>
J2VwaWtfcHl0aG9uJywgJy1waCcsICc3LjAnLCAnLXRuJywgJzgnLCAnLW1hJywgJzIwMCcsICctbWV0YWxfYmluZGluZycsICctaW1hZScsICc8aW5maWxlLm1hZT4nLCAnLW9tYWUnLCAnPG91dGZpbGUubWFlPic=

> <r_lp_tautomer_probability>
1

> <r_epik_Ionization_Penalty>
2.46945

> <r_epik_Ionization_Penalty_Charging>
0

> <r_epik_Ionization_Penalty_Neutral>
2.46945

> <r_epik_State_Penalty>
2.6322

> <r_epik_Charging_Adjusted_Penalty>
2.6322

> <i_epik_Tot_Q>
0

> <i_epik_Tot_abs_Q>
0

> <r_epik_Metal_State_Penalty>
2.63217

> <b_epik_Metal_Only>
0

> <s_lp_Force_Field>
OPLS_2005

> <r_lp_Energy>
15.3902

> <b_lp_Chiralities_Consistent>
1

> <s_lp_Variant>
AV-unprocessed.smi:3348-16

> <Gold.Version>
5.8.1

> <Gold.Id.Protein>
6NUR|6NUR_protein|mol2

> <Gold.PLP.Fitness>
45.7076

> <Gold.PLP.PLP>
-42.1465

> <Gold.PLP.part.hbond>
0.0000

> <Gold.PLP.part.metal>
0.0000

> <Gold.PLP.part.buried>
-3.5152

> <Gold.PLP.part.nonpolar>
-38.3937

> <Gold.PLP.part.repulsive>
0.0000

> <Gold.PLP.ligand.clash>
0.0000

> <Gold.PLP.ligand.torsion>
1.1825

> <Gold.PLP.Chemscore.Hbond>
0.0000

> <Gold.PLP.Chemscore.CHOScore>
1.8904

> <Gold.PLP.Chemscore.Metal>
0.0000

> <Gold.Chemscore.Hbonds>
donor molecule, donor type, donor heavy atom, donor atom, acceptor molecule, acceptor atom, score
      L1  C     5    26       P1  7948  0.91
      L1  C     5    26       P1  7957  0.88

> <Gold.PLP.Chemscore.Internal.Correction>
0.2548

> <Gold.Rescore>
     Score         DG    S(hbond)    S(metal)    S(lipo)     H(rot)  DE(clash)    DE(int)     intcor
     13.41     -15.80       0.00        0.00     125.92       1.72       0.07       2.32       ----

> <Gold.Chemscore.Fitness>
13.4090

> <Gold.Chemscore.DG>
-15.7995

> <Gold.Chemscore.ZeroCoef>
-5.4800

> <Gold.Chemscore.Hbond>
0.0000

> <Gold.Chemscore.Metal>
0.0000

> <Gold.Chemscore.Lipo>
125.9152

> <Gold.Chemscore.Internal_Hbond>
0.0000

> <Gold.Chemscore.DEClash>
0.0668

> <Gold.Chemscore.DEInternal>
2.3237

> <Gold.Chemscore.Rot>
1.7237

> <Gold.Chemscore.Internal.Correction>
   9.000000E+99

> <Gold.Chemscore.Hbond.Weighted>
-0.0000

> <Gold.Chemscore.Metal.Weighted>
-0.0000

> <Gold.Chemscore.Lipo.Weighted>
-14.7321

> <Gold.Chemscore.Internal_Hbond.Weighted>
0.0000

> <Gold.Chemscore.DEClash.Weighted>
0.0668

> <Gold.Chemscore.DEInternal.Weighted>
2.3237

> <Gold.Chemscore.Rot.Weighted>
4.4126

> <Gold.Chemscore.Internal.Correction.Weighted>
   9.000000E+99

> <Gold.Protein.RotatedTorsions>
[ 6907 6896 6895 6894 ] final  -41.26 input  -60.11 | X-H torsion
[ 7974 7965 7964 7962 ] final -137.94 input  175.53 | X-H torsion
[ 8008 7997 7996 7995 ] final -121.97 input   59.86 | X-H torsion
[ 10167 10162 10161 10158 ] final    1.68 input  -65.29 | X-H torsion
[ 10718 10713 10712 10709 ] final  103.77 input   66.30 | X-H torsion
[ 10763 10752 10751 10750 ] final   -2.05 input  -60.55 | X-H torsion
[ 11005 11000 10999 10996 ] final -175.06 input  -57.11 | X-H torsion

> <Gold.Protein.ActiveResidues>
 VAL166  LYS551  ARG553  GLY616  TRP617  ASP618  TYR619  PRO620  LYS621  CYS622 
 ASP623  PHE694  ASN695  SER759  ASP760  ASP761  ALA762  ILE779  LEU786  VAL792 
 PHE793  MET794  SER795  GLU796  ALA797  LYS798  CYS799  TRP800  GLU811  SER814 

> <Gold.Protein.RotatedAtoms>
  150.9688  134.9064  159.7774 H   0  0  0  0  0  0  0  0  0  0  0  0  # atno 6907 bound_to 6896
  152.5183  134.3570  159.9281 H   0  0  0  0  0  0  0  0  0  0  0  0  # atno 6908 bound_to 6896
  151.3580  133.3859  159.2721 H   0  0  0  0  0  0  0  0  0  0  0  0  # atno 6909 bound_to 6896
  144.8800  140.6493  143.5212 H   0  0  0  0  0  0  0  0  0  0  0  0  # atno 7974 bound_to 7965
  155.1567  140.0405  157.2833 H   0  0  0  0  0  0  0  0  0  0  0  0  # atno 8008 bound_to 7997
  154.6365  140.2537  155.7345 H   0  0  0  0  0  0  0  0  0  0  0  0  # atno 8009 bound_to 7997
  156.2511  140.2864  156.0740 H   0  0  0  0  0  0  0  0  0  0  0  0  # atno 8010 bound_to 7997
  140.6671  143.7149  150.7849 H   0  0  0  0  0  0  0  0  0  0  0  0  # atno 10167 bound_to 10162
  157.6762  131.0787  150.5605 H   0  0  0  0  0  0  0  0  0  0  0  0  # atno 10718 bound_to 10713
  153.3528  135.6986  153.6774 H   0  0  0  0  0  0  0  0  0  0  0  0  # atno 10763 bound_to 10752
  153.5494  135.3557  155.2753 H   0  0  0  0  0  0  0  0  0  0  0  0  # atno 10764 bound_to 10752
  154.8656  135.4223  154.2768 H   0  0  0  0  0  0  0  0  0  0  0  0  # atno 10765 bound_to 10752
  140.4675  134.6196  157.4868 H   0  0  0  0  0  0  0  0  0  0  0  0  # atno 11005 bound_to 11000
  145.3972  139.1605  143.4197 LP  0  0  0  0  0  0  0  0  0  0  0  0  # atno 17320 bound_to 7965
  146.2988  140.4066  142.8712 LP  0  0  0  0  0  0  0  0  0  0  0  0  # atno 17321 bound_to 7965
  140.0828  143.4952  152.2521 LP  0  0  0  0  0  0  0  0  0  0  0  0  # atno 17342 bound_to 10162
  139.5924  144.7555  151.3367 LP  0  0  0  0  0  0  0  0  0  0  0  0  # atno 17343 bound_to 10162
  156.5908  130.4329  149.5937 LP  0  0  0  0  0  0  0  0  0  0  0  0  # atno 17370 bound_to 10713
  156.2585  130.6948  151.1709 LP  0  0  0  0  0  0  0  0  0  0  0  0  # atno 17371 bound_to 10713
  139.9906  134.6992  155.9697 LP  0  0  0  0  0  0  0  0  0  0  0  0  # atno 17394 bound_to 11000
  141.1592  133.6540  156.4263 LP  0  0  0  0  0  0  0  0  0  0  0  0  # atno 17395 bound_to 11000

$$$$
