AV-unprocessed.smi:1452|AV-procd|sdf|5910|dock5
  -GOLD-   22720 5593D 1   1.00000     0.00000
 Structure written by MMmdl.
 40 42  0  0  0  0  0  0  0  0  2 V2000
  152.5457  140.4422  157.3340 O   0  0  0  0  0  0  0  0  0  0  0  0
  151.4733  140.9630  157.6362 C   0  0  0  0  0  0  0  0  0  0  0  0
  151.3125  141.5895  158.8214 N   0  0  0  0  0  0  0  0  0  0  0  0
  152.2062  141.7915  159.9148 C   0  0  0  0  0  0  0  0  0  0  0  0
  153.2880  140.8832  159.9604 C   0  0  0  0  0  0  0  0  0  0  0  0
  154.2386  140.9824  160.9947 C   0  0  0  0  0  0  0  0  0  0  0  0
  154.0828  141.9893  161.9637 C   0  0  0  0  0  0  0  0  0  0  0  0
  152.9784  142.8526  161.8494 C   0  0  0  0  0  0  0  0  0  0  0  0
  152.0676  142.7596  160.8572 N   0  0  0  0  0  0  0  0  0  0  0  0
  150.4088  140.9546  156.8179 N   0  0  0  0  0  0  0  0  0  0  0  0
  150.3654  140.3667  155.4834 C   0  0  1  0  0  0  0  0  0  0  0  0
  150.6985  138.8642  155.4813 C   0  0  0  0  0  0  0  0  0  0  0  0
  149.7521  138.2364  154.4390 C   0  0  0  0  0  0  0  0  0  0  0  0
  149.0258  139.3709  153.8371 N   0  3  1  0  0  0  0  0  0  0  0  0
  147.7090  139.0813  153.2284 C   0  0  0  0  0  0  0  0  0  0  0  0
  147.1515  140.3675  152.5863 C   0  0  0  0  0  0  0  0  0  0  0  0
  147.1241  141.5409  153.5866 C   0  0  0  0  0  0  0  0  0  0  0  0
  148.4987  141.7340  154.2559 C   0  0  0  0  0  0  0  0  0  0  0  0
  148.9592  140.4057  154.8799 C   0  0  2  0  0  0  0  0  0  0  0  0
  150.3871  141.9658  158.9690 H   0  0  0  0  0  0  0  0  0  0  0  0
  153.3944  140.1139  159.2088 H   0  0  0  0  0  0  0  0  0  0  0  0
  155.0716  140.2969  161.0432 H   0  0  0  0  0  0  0  0  0  0  0  0
  154.7906  142.0970  162.7724 H   0  0  0  0  0  0  0  0  0  0  0  0
  152.8212  143.6388  162.5728 H   0  0  0  0  0  0  0  0  0  0  0  0
  149.5652  141.4033  157.1476 H   0  0  0  0  0  0  0  0  0  0  0  0
  151.0647  140.8747  154.8157 H   0  0  0  0  0  0  0  0  0  0  0  0
  151.7466  138.6955  155.2311 H   0  0  0  0  0  0  0  0  0  0  0  0
  150.5197  138.4139  156.4592 H   0  0  0  0  0  0  0  0  0  0  0  0
  150.2884  137.6722  153.6757 H   0  0  0  0  0  0  0  0  0  0  0  0
  149.0513  137.5601  154.9309 H   0  0  0  0  0  0  0  0  0  0  0  0
  147.8174  138.3007  152.4745 H   0  0  0  0  0  0  0  0  0  0  0  0
  147.0226  138.7047  153.9886 H   0  0  0  0  0  0  0  0  0  0  0  0
  147.7701  140.6407  151.7304 H   0  0  0  0  0  0  0  0  0  0  0  0
  146.1497  140.1860  152.1958 H   0  0  0  0  0  0  0  0  0  0  0  0
  146.8197  142.4582  153.0820 H   0  0  0  0  0  0  0  0  0  0  0  0
  146.3726  141.3455  154.3526 H   0  0  0  0  0  0  0  0  0  0  0  0
  149.2271  142.0773  153.5200 H   0  0  0  0  0  0  0  0  0  0  0  0
  148.4335  142.5108  155.0181 H   0  0  0  0  0  0  0  0  0  0  0  0
  148.2364  140.0906  155.6364 H   0  0  0  0  0  0  0  0  0  0  0  0
  149.6208  139.7388  153.1087 H   0  0  0  0  0  0  0  0  0  0  0  0
  1  2  2  0  0  0  0
  2  3  1  0  0  0  0
  2 10  1  0  0  0  0
  3  4  1  0  0  0  0
  3 20  1  0  0  0  0
  4  9  1  0  0  0  0
  4  5  2  0  0  0  0
  5  6  1  0  0  0  0
  5 21  1  0  0  0  0
  6  7  2  0  0  0  0
  6 22  1  0  0  0  0
  7  8  1  0  0  0  0
  7 23  1  0  0  0  0
  8  9  2  0  0  0  0
  8 24  1  0  0  0  0
 10 11  1  0  0  0  0
 10 25  1  0  0  0  0
 11 19  1  0  0  0  0
 11 12  1  0  0  0  0
 11 26  1  0  0  0  0
 12 13  1  0  0  0  0
 12 27  1  0  0  0  0
 12 28  1  0  0  0  0
 13 14  1  0  0  0  0
 13 29  1  0  0  0  0
 13 30  1  0  0  0  0
 14 19  1  0  0  0  0
 14 15  1  0  0  0  0
 14 40  1  0  0  0  0
 15 16  1  0  0  0  0
 15 31  1  0  0  0  0
 15 32  1  0  0  0  0
 16 17  1  0  0  0  0
 16 33  1  0  0  0  0
 16 34  1  0  0  0  0
 17 18  1  0  0  0  0
 17 35  1  0  0  0  0
 17 36  1  0  0  0  0
 18 19  1  0  0  0  0
 18 37  1  0  0  0  0
 18 38  1  0  0  0  0
 19 39  1  0  0  0  0
M  CHG  1  14   1
M  END
> <s_m_source_file>
AV-unprocessed.smi

> <i_m_source_file_index>
1452

> <i_lp_mmshare_version>
43012

> <i_f3d_flags>
0

> <s_epik_input>
W0NIMl0xW0NIMl1bQ0gyXVtDSDJdW0NASF0oTjEyKVtDQEBIXShbQ0gyXVtDSDJdMilbTkhdQyg9TylbTkhdYzNbY0hdW2NIXVtjSF1bY0hdbjM=

> <s_epik_cmdline>
J2VwaWtfcHl0aG9uJywgJy1waCcsICc3LjAnLCAnLXRuJywgJzgnLCAnLW1hJywgJzIwMCcsICctbWV0YWxfYmluZGluZycsICctaW1hZScsICc8aW5maWxlLm1hZT4nLCAnLW9tYWUnLCAnPG91dGZpbGUubWFlPic=

> <r_epik_Ionization_Penalty>
0.00100813

> <r_epik_Ionization_Penalty_Charging>
0.000974069

> <r_epik_Ionization_Penalty_Neutral>
3.40643e-05

> <r_epik_State_Penalty>
0.000633842

> <r_epik_Charging_Adjusted_Penalty>
0.00160791

> <i_epik_Tot_Q>
1

> <i_epik_Tot_abs_Q>
1

> <r_epik_Metal_State_Penalty>
-0

> <b_epik_Metal_Only>
0

> <s_lp_Force_Field>
OPLS_2005

> <r_lp_Energy>
38.162

> <b_lp_Chiralities_Consistent>
1

> <s_lp_Variant>
AV-unprocessed.smi:1452-8

> <Gold.Version>
5.8.1

> <Gold.Id.Protein>
6NUR|6NUR_protein|mol2

> <Gold.PLP.Fitness>
41.7772

> <Gold.PLP.PLP>
-36.5935

> <Gold.PLP.part.hbond>
-2.9906

> <Gold.PLP.part.metal>
0.0000

> <Gold.PLP.part.buried>
0.5988

> <Gold.PLP.part.nonpolar>
-33.9444

> <Gold.PLP.part.repulsive>
0.3361

> <Gold.PLP.ligand.clash>
0.0000

> <Gold.PLP.ligand.torsion>
0.1141

> <Gold.PLP.Chemscore.Hbond>
1.8008

> <Gold.PLP.Chemscore.CHOScore>
0.0000

> <Gold.PLP.Chemscore.Metal>
0.0000

> <Gold.Chemscore.Hbonds>
donor molecule, donor type, donor heavy atom, donor atom, acceptor molecule, acceptor atom, score
      L1  H    14    40       P1  7957  0.80
      P1  H  7997  8009       L1     1  0.90

> <Gold.PLP.Chemscore.Internal.Correction>
0.0096

> <Gold.Rescore>
     Score         DG    S(hbond)    S(metal)    S(lipo)     H(rot)  DE(clash)    DE(int)     intcor
     17.34     -20.32       1.81        0.00      97.02       1.00       1.45       1.53       ----

> <Gold.Chemscore.Fitness>
17.3355

> <Gold.Chemscore.DG>
-20.3219

> <Gold.Chemscore.ZeroCoef>
-5.4800

> <Gold.Chemscore.Hbond>
1.8116

> <Gold.Chemscore.Metal>
0.0000

> <Gold.Chemscore.Lipo>
97.0194

> <Gold.Chemscore.Internal_Hbond>
0.0000

> <Gold.Chemscore.DEClash>
1.4521

> <Gold.Chemscore.DEInternal>
1.5343

> <Gold.Chemscore.Rot>
1.0000

> <Gold.Chemscore.Internal.Correction>
   9.000000E+99

> <Gold.Chemscore.Hbonds>
donor molecule, donor type, donor heavy atom, donor atom, acceptor molecule, acceptor atom, score
      L1  H    14    40       P1  7957  0.78
      P1  H  7997  8009       L1     1  0.86

> <Gold.Chemscore.Hbond.Weighted>
-6.0506

> <Gold.Chemscore.Metal.Weighted>
-0.0000

> <Gold.Chemscore.Lipo.Weighted>
-11.3513

> <Gold.Chemscore.Internal_Hbond.Weighted>
0.0000

> <Gold.Chemscore.DEClash.Weighted>
1.4521

> <Gold.Chemscore.DEInternal.Weighted>
1.5343

> <Gold.Chemscore.Rot.Weighted>
2.5600

> <Gold.Chemscore.Internal.Correction.Weighted>
   9.000000E+99

> <Gold.Protein.RotatedTorsions>
[ 6907 6896 6895 6894 ] final  -54.91 input  -60.11 | X-H torsion
[ 7974 7965 7964 7962 ] final  172.78 input  175.53 | X-H torsion
[ 8008 7997 7996 7995 ] final  179.43 input   59.86 | X-H torsion
[ 10167 10162 10161 10158 ] final -151.28 input  -65.29 | X-H torsion
[ 10718 10713 10712 10709 ] final   87.00 input   66.30 | X-H torsion
[ 10763 10752 10751 10750 ] final  -53.11 input  -60.55 | X-H torsion
[ 11005 11000 10999 10996 ] final -173.95 input  -57.11 | X-H torsion

> <Gold.Protein.ActiveResidues>
 VAL166  LYS551  ARG553  GLY616  TRP617  ASP618  TYR619  PRO620  LYS621  CYS622 
 ASP623  PHE694  ASN695  SER759  ASP760  ASP761  ALA762  ILE779  LEU786  VAL792 
 PHE793  MET794  SER795  GLU796  ALA797  LYS798  CYS799  TRP800  GLU811  SER814 

> <Gold.Protein.RotatedAtoms>
  150.8297  134.7544  159.6842 H   0  0  0  0  0  0  0  0  0  0  0  0  # atno 6907 bound_to 6896
  152.4403  134.5600  159.9901 H   0  0  0  0  0  0  0  0  0  0  0  0  # atno 6908 bound_to 6896
  151.5764  133.3345  159.3035 H   0  0  0  0  0  0  0  0  0  0  0  0  # atno 6909 bound_to 6896
  144.7259  139.9550  143.6433 H   0  0  0  0  0  0  0  0  0  0  0  0  # atno 7974 bound_to 7965
  156.0434  140.1309  157.0130 H   0  0  0  0  0  0  0  0  0  0  0  0  # atno 8008 bound_to 7997
  154.4401  140.1025  156.6341 H   0  0  0  0  0  0  0  0  0  0  0  0  # atno 8009 bound_to 7997
  155.5632  140.3465  155.4498 H   0  0  0  0  0  0  0  0  0  0  0  0  # atno 8010 bound_to 7997
  139.7281  143.8851  152.2526 H   0  0  0  0  0  0  0  0  0  0  0  0  # atno 10167 bound_to 10162
  157.6935  131.0238  150.3057 H   0  0  0  0  0  0  0  0  0  0  0  0  # atno 10718 bound_to 10713
  154.1536  135.6486  153.4969 H   0  0  0  0  0  0  0  0  0  0  0  0  # atno 10763 bound_to 10752
  153.0131  135.5344  154.6783 H   0  0  0  0  0  0  0  0  0  0  0  0  # atno 10764 bound_to 10752
  154.6077  135.2950  155.0437 H   0  0  0  0  0  0  0  0  0  0  0  0  # atno 10765 bound_to 10752
  140.4800  134.6084  157.4915 H   0  0  0  0  0  0  0  0  0  0  0  0  # atno 11005 bound_to 11000
  146.0682  139.3672  143.0539 LP  0  0  0  0  0  0  0  0  0  0  0  0  # atno 17320 bound_to 7965
  145.8003  140.9774  143.1002 LP  0  0  0  0  0  0  0  0  0  0  0  0  # atno 17321 bound_to 7965
  139.8766  144.7040  150.8926 LP  0  0  0  0  0  0  0  0  0  0  0  0  # atno 17342 bound_to 10162
  140.7766  143.3695  151.1676 LP  0  0  0  0  0  0  0  0  0  0  0  0  # atno 17343 bound_to 10162
  156.3566  130.3840  149.7285 LP  0  0  0  0  0  0  0  0  0  0  0  0  # atno 17370 bound_to 10713
  156.4745  130.8012  151.3029 LP  0  0  0  0  0  0  0  0  0  0  0  0  # atno 17371 bound_to 10713
  139.9832  134.7103  155.9821 LP  0  0  0  0  0  0  0  0  0  0  0  0  # atno 17394 bound_to 11000
  141.1536  133.6545  156.4090 LP  0  0  0  0  0  0  0  0  0  0  0  0  # atno 17395 bound_to 11000

$$$$
