AV-unprocessed.smi:1787|AV-procd|sdf|7208|dock4
  -GOLD-   22720 8453D 1   1.00000     0.00000
 Structure written by MMmdl.
 45 47  0  0  0  0  0  0  0  0  2 V2000
  145.3652  137.9072  153.3212 O   0  0  0  0  0  0  0  0  0  0  0  0
  146.3995  137.6544  152.7056 C   0  0  0  0  0  0  0  0  0  0  0  0
  146.5197  136.6268  151.8537 N   0  0  0  0  0  0  0  0  0  0  0  0
  145.4687  135.6643  151.5226 C   0  0  0  0  0  0  0  0  0  0  0  0
  145.8715  134.1788  151.7972 C   0  0  1  0  0  0  0  0  0  0  0  0
  147.0998  134.1564  152.6759 N   0  3  0  0  0  0  0  0  0  0  0  0
  146.8561  134.5999  154.0775 C   0  0  0  0  0  0  0  0  0  0  0  0
  148.1781  134.7402  154.8460 C   0  0  0  0  0  0  0  0  0  0  0  0
  148.8523  133.4911  154.8425 O   0  0  0  0  0  0  0  0  0  0  0  0
  149.1913  133.0870  153.5244 C   0  0  0  0  0  0  0  0  0  0  0  0
  147.9203  132.9124  152.6735 C   0  0  0  0  0  0  0  0  0  0  0  0
  144.6778  133.4194  152.4251 C   0  0  0  0  0  0  0  0  0  0  0  0
  143.6028  133.2114  151.3482 C   0  0  0  0  0  0  0  0  0  0  0  0
  144.4297  133.1142  149.7404 S   0  0  0  0  0  0  0  0  0  0  0  0
  146.0640  133.4375  150.4466 C   0  0  0  0  0  0  0  0  0  0  0  0
  147.5502  138.3436  152.7908 N   0  0  0  0  0  0  0  0  0  0  0  0
  147.8469  139.5054  153.5547 C   0  0  0  0  0  0  0  0  0  0  0  0
  149.1294  139.8368  154.0568 C   0  0  0  0  0  0  0  0  0  0  0  0
  149.2796  141.0158  154.8122 C   0  0  0  0  0  0  0  0  0  0  0  0
  148.1446  141.8166  155.0446 C   0  0  0  0  0  0  0  0  0  0  0  0
  146.9153  141.5077  154.5818 N   0  0  0  0  0  0  0  0  0  0  0  0
  146.7793  140.3773  153.8573 C   0  0  0  0  0  0  0  0  0  0  0  0
  147.4175  136.4849  151.4147 H   0  0  0  0  0  0  0  0  0  0  0  0
  144.6007  135.9339  152.1233 H   0  0  0  0  0  0  0  0  0  0  0  0
  145.1387  135.8118  150.4937 H   0  0  0  0  0  0  0  0  0  0  0  0
  146.3387  135.5574  154.1014 H   0  0  0  0  0  0  0  0  0  0  0  0
  146.2208  133.8797  154.5942 H   0  0  0  0  0  0  0  0  0  0  0  0
  148.8073  135.5168  154.4079 H   0  0  0  0  0  0  0  0  0  0  0  0
  147.9830  135.0319  155.8781 H   0  0  0  0  0  0  0  0  0  0  0  0
  149.8625  133.8187  153.0715 H   0  0  0  0  0  0  0  0  0  0  0  0
  149.7392  132.1459  153.5756 H   0  0  0  0  0  0  0  0  0  0  0  0
  147.3316  132.0728  153.0443 H   0  0  0  0  0  0  0  0  0  0  0  0
  148.2586  132.6653  151.6689 H   0  0  0  0  0  0  0  0  0  0  0  0
  145.0063  132.4411  152.7773 H   0  0  0  0  0  0  0  0  0  0  0  0
  144.2577  133.9375  153.2878 H   0  0  0  0  0  0  0  0  0  0  0  0
  143.0130  132.3138  151.5352 H   0  0  0  0  0  0  0  0  0  0  0  0
  142.9155  134.0576  151.3273 H   0  0  0  0  0  0  0  0  0  0  0  0
  146.7094  133.9620  149.7434 H   0  0  0  0  0  0  0  0  0  0  0  0
  146.4747  132.4390  150.5799 H   0  0  0  0  0  0  0  0  0  0  0  0
  148.3282  137.9684  152.2685 H   0  0  0  0  0  0  0  0  0  0  0  0
  149.9953  139.2153  153.8927 H   0  0  0  0  0  0  0  0  0  0  0  0
  150.2437  141.2986  155.2080 H   0  0  0  0  0  0  0  0  0  0  0  0
  148.2255  142.7263  155.6206 H   0  0  0  0  0  0  0  0  0  0  0  0
  145.7809  140.1625  153.5051 H   0  0  0  0  0  0  0  0  0  0  0  0
  147.7066  134.8558  152.2722 H   0  0  0  0  0  0  0  0  0  0  0  0
  1  2  2  0  0  0  0
  2  3  1  0  0  0  0
  2 16  1  0  0  0  0
  3  4  1  0  0  0  0
  3 23  1  0  0  0  0
  4  5  1  0  0  0  0
  4 24  1  0  0  0  0
  4 25  1  0  0  0  0
  5 15  1  0  0  0  0
  5  6  1  0  0  0  0
  5 12  1  0  0  0  0
  6 11  1  0  0  0  0
  6  7  1  0  0  0  0
  6 45  1  0  0  0  0
  7  8  1  0  0  0  0
  7 26  1  0  0  0  0
  7 27  1  0  0  0  0
  8  9  1  0  0  0  0
  8 28  1  0  0  0  0
  8 29  1  0  0  0  0
  9 10  1  0  0  0  0
 10 11  1  0  0  0  0
 10 30  1  0  0  0  0
 10 31  1  0  0  0  0
 11 32  1  0  0  0  0
 11 33  1  0  0  0  0
 12 13  1  0  0  0  0
 12 34  1  0  0  0  0
 12 35  1  0  0  0  0
 13 14  1  0  0  0  0
 13 36  1  0  0  0  0
 13 37  1  0  0  0  0
 14 15  1  0  0  0  0
 15 38  1  0  0  0  0
 15 39  1  0  0  0  0
 16 17  1  0  0  0  0
 16 40  1  0  0  0  0
 17 22  1  0  0  0  0
 17 18  2  0  0  0  0
 18 19  1  0  0  0  0
 18 41  1  0  0  0  0
 19 20  2  0  0  0  0
 19 42  1  0  0  0  0
 20 21  1  0  0  0  0
 20 43  1  0  0  0  0
 21 22  2  0  0  0  0
 22 44  1  0  0  0  0
M  CHG  1   6   1
M  END
> <s_m_source_file>
AV-unprocessed.smi

> <i_m_source_file_index>
1787

> <i_lp_mmshare_version>
43012

> <i_f3d_flags>
0

> <s_epik_input>
W2NIXTFuW2NIXVtjSF1bY0hdYzFbTkhdQyg9TylbTkhdW0NIMl1bQ0BdMihbQ0gyXVtDSDJdU1tDSDJdMilOM1tDSDJdW0NIMl1PW0NIMl1bQ0gyXTM=

> <s_epik_cmdline>
J2VwaWtfcHl0aG9uJywgJy1waCcsICc3LjAnLCAnLXRuJywgJzgnLCAnLW1hJywgJzIwMCcsICctbWV0YWxfYmluZGluZycsICctaW1hZScsICc8aW5maWxlLm1hZT4nLCAnLW9tYWUnLCAnPG91dGZpbGUubWFlPic=

> <r_epik_Ionization_Penalty>
2.03633

> <r_epik_Ionization_Penalty_Charging>
2.03219

> <r_epik_Ionization_Penalty_Neutral>
0.00414252

> <r_epik_State_Penalty>
2.16328

> <r_epik_Charging_Adjusted_Penalty>
4.19546

> <i_epik_Tot_Q>
1

> <i_epik_Tot_abs_Q>
1

> <r_epik_Metal_State_Penalty>
2.16381

> <b_epik_Metal_Only>
0

> <s_lp_Force_Field>
OPLS_2005

> <r_lp_Energy>
45.3922

> <b_lp_Chiralities_Consistent>
1

> <s_lp_Variant>
AV-unprocessed.smi:1787-3

> <Gold.Version>
5.8.1

> <Gold.Id.Protein>
6NUR|6NUR_protein|mol2

> <Gold.PLP.Fitness>
48.6063

> <Gold.PLP.PLP>
-34.8047

> <Gold.PLP.part.hbond>
-3.5524

> <Gold.PLP.part.metal>
0.0000

> <Gold.PLP.part.buried>
0.9184

> <Gold.PLP.part.nonpolar>
-33.1306

> <Gold.PLP.part.repulsive>
0.5986

> <Gold.PLP.ligand.clash>
0.0000

> <Gold.PLP.ligand.torsion>
1.5120

> <Gold.PLP.Chemscore.Hbond>
3.5680

> <Gold.PLP.Chemscore.CHOScore>
2.0000

> <Gold.PLP.Chemscore.Metal>
0.0000

> <Gold.Chemscore.Hbonds>
donor molecule, donor type, donor heavy atom, donor atom, acceptor molecule, acceptor atom, score
      L1  H     3    23       P1  7948  0.80
      L1  H     6    45       P1  7948  2.00
      L1  H    16    40       P1  7948  0.74
      L1  C    20    43       P1  8028  1.00
      L1  C    22    44       P1 10175  1.00

> <Gold.PLP.Chemscore.Internal.Correction>
0.1217

> <Gold.Rescore>
     Score         DG    S(hbond)    S(metal)    S(lipo)     H(rot)  DE(clash)    DE(int)     intcor
     17.09     -20.32       2.67        0.00      83.03       1.49       0.12       3.12       ----

> <Gold.Chemscore.Fitness>
17.0853

> <Gold.Chemscore.DG>
-20.3225

> <Gold.Chemscore.ZeroCoef>
-5.4800

> <Gold.Chemscore.Hbond>
2.6745

> <Gold.Chemscore.Metal>
0.0000

> <Gold.Chemscore.Lipo>
83.0252

> <Gold.Chemscore.Internal_Hbond>
0.0000

> <Gold.Chemscore.DEClash>
0.1177

> <Gold.Chemscore.DEInternal>
3.1196

> <Gold.Chemscore.Rot>
1.4860

> <Gold.Chemscore.Internal.Correction>
   9.000000E+99

> <Gold.Chemscore.Hbonds>
donor molecule, donor type, donor heavy atom, donor atom, acceptor molecule, acceptor atom, score
      L1  H     3    23       P1  7948  0.77
      L1  H     6    45       P1  7948  0.85
      L1  H    16    40       P1  7948  0.74

> <Gold.Chemscore.Hbond.Weighted>
-8.9328

> <Gold.Chemscore.Metal.Weighted>
-0.0000

> <Gold.Chemscore.Lipo.Weighted>
-9.7139

> <Gold.Chemscore.Internal_Hbond.Weighted>
0.0000

> <Gold.Chemscore.DEClash.Weighted>
0.1177

> <Gold.Chemscore.DEInternal.Weighted>
3.1196

> <Gold.Chemscore.Rot.Weighted>
3.8042

> <Gold.Chemscore.Internal.Correction.Weighted>
   9.000000E+99

> <Gold.Protein.RotatedTorsions>
[ 6907 6896 6895 6894 ] final  -58.47 input  -60.11 | X-H torsion
[ 7974 7965 7964 7962 ] final   51.78 input  175.53 | X-H torsion
[ 8008 7997 7996 7995 ] final  -66.26 input   59.86 | X-H torsion
[ 10167 10162 10161 10158 ] final   78.38 input  -65.29 | X-H torsion
[ 10718 10713 10712 10709 ] final   39.40 input   66.30 | X-H torsion
[ 10763 10752 10751 10750 ] final  167.85 input  -60.55 | X-H torsion
[ 11005 11000 10999 10996 ] final -164.88 input  -57.11 | X-H torsion

> <Gold.Protein.ActiveResidues>
 VAL166  LYS551  ARG553  GLY616  TRP617  ASP618  TYR619  PRO620  LYS621  CYS622 
 ASP623  PHE694  ASN695  SER759  ASP760  ASP761  ALA762  ILE779  LEU786  VAL792 
 PHE793  MET794  SER795  GLU796  ALA797  LYS798  CYS799  TRP800  GLU811  SER814 

> <Gold.Protein.RotatedAtoms>
  150.8004  134.7094  159.6594 H   0  0  0  0  0  0  0  0  0  0  0  0  # atno 6907 bound_to 6896
  152.4120  134.6104  160.0034 H   0  0  0  0  0  0  0  0  0  0  0  0  # atno 6908 bound_to 6896
  151.6344  133.3293  159.3152 H   0  0  0  0  0  0  0  0  0  0  0  0  # atno 6909 bound_to 6896
  145.9879  139.4308  143.0092 H   0  0  0  0  0  0  0  0  0  0  0  0  # atno 7974 bound_to 7965
  154.4723  140.0916  156.7176 H   0  0  0  0  0  0  0  0  0  0  0  0  # atno 8008 bound_to 7997
  155.4690  140.3464  155.4305 H   0  0  0  0  0  0  0  0  0  0  0  0  # atno 8009 bound_to 7997
  156.1060  140.1435  156.9392 H   0  0  0  0  0  0  0  0  0  0  0  0  # atno 8010 bound_to 7997
  139.9715  144.5891  150.7981 H   0  0  0  0  0  0  0  0  0  0  0  0  # atno 10167 bound_to 10162
  157.3701  130.7696  149.7112 H   0  0  0  0  0  0  0  0  0  0  0  0  # atno 10718 bound_to 10713
  154.3600  135.2753  155.2325 H   0  0  0  0  0  0  0  0  0  0  0  0  # atno 10763 bound_to 10752
  154.4517  135.5929  153.6200 H   0  0  0  0  0  0  0  0  0  0  0  0  # atno 10764 bound_to 10752
  152.9844  135.6043  154.3819 H   0  0  0  0  0  0  0  0  0  0  0  0  # atno 10765 bound_to 10752
  140.5819  134.5133  157.5180 H   0  0  0  0  0  0  0  0  0  0  0  0  # atno 11005 bound_to 11000
  145.7674  140.9911  143.1168 LP  0  0  0  0  0  0  0  0  0  0  0  0  # atno 17320 bound_to 7965
  144.6880  139.9405  143.7475 LP  0  0  0  0  0  0  0  0  0  0  0  0  # atno 17321 bound_to 7965
  140.7520  143.2983  151.3148 LP  0  0  0  0  0  0  0  0  0  0  0  0  # atno 17342 bound_to 10162
  139.6477  144.0420  152.2603 LP  0  0  0  0  0  0  0  0  0  0  0  0  # atno 17343 bound_to 10162
  155.9754  130.4090  150.3854 LP  0  0  0  0  0  0  0  0  0  0  0  0  # atno 17370 bound_to 10713
  157.1944  131.0423  151.2683 LP  0  0  0  0  0  0  0  0  0  0  0  0  # atno 17371 bound_to 10713
  139.9313  134.7958  156.0923 LP  0  0  0  0  0  0  0  0  0  0  0  0  # atno 17394 bound_to 11000
  141.0991  133.6684  156.2712 LP  0  0  0  0  0  0  0  0  0  0  0  0  # atno 17395 bound_to 11000

$$$$
