AV-unprocessed.smi:2076|AV-procd|sdf|8457|dock1
  -GOLD-   2272011153D 1   1.00000     0.00000
 Structure written by MMmdl.
 44 45  0  0  0  0  0  0  0  0  1 V2000
  146.2496  128.6704  152.9182 C   0  0  0  0  0  0  0  0  0  0  0  0
  146.0761  130.0655  152.3948 C   0  0  0  0  0  0  0  0  0  0  0  0
  145.0229  130.5805  151.5884 C   0  0  0  0  0  0  0  0  0  0  0  0
  145.3560  131.8915  151.3949 C   0  0  0  0  0  0  0  0  0  0  0  0
  144.6533  132.9597  150.6234 C   0  0  0  0  0  0  0  0  0  0  0  0
  146.5457  132.1070  152.0680 N   0  0  0  0  0  0  0  0  0  0  0  0
  147.3419  133.3219  152.1596 C   0  0  0  0  0  0  0  0  0  0  0  0
  147.7753  133.5796  153.6031 C   0  0  0  0  0  0  0  0  0  0  0  0
  147.5921  132.7212  154.4658 O   0  0  0  0  0  0  0  0  0  0  0  0
  148.3242  134.7781  153.8542 N   0  0  0  0  0  0  0  0  0  0  0  0
  148.6683  135.2840  155.1784 C   0  0  0  0  0  0  0  0  0  0  0  0
  150.1477  135.7589  155.2827 C   0  0  2  0  0  0  0  0  0  0  0  0
  150.8661  134.9330  156.3818 C   0  0  0  0  0  0  0  0  0  0  0  0
  150.2794  137.2206  155.4842 N   0  0  0  0  0  0  0  0  0  0  0  0
  149.6801  137.9992  154.3939 C   0  0  0  0  0  0  0  0  0  0  0  0
  149.8447  139.5174  154.5819 C   0  0  0  0  0  0  0  0  0  0  0  0
  151.2224  139.8390  154.7128 O   0  0  0  0  0  0  0  0  0  0  0  0
  151.8247  139.1656  155.8090 C   0  0  0  0  0  0  0  0  0  0  0  0
  151.6770  137.6452  155.6271 C   0  0  0  0  0  0  0  0  0  0  0  0
  146.9829  130.9849  152.6811 N   0  0  0  0  0  0  0  0  0  0  0  0
  145.5073  127.9950  152.4927 H   0  0  0  0  0  0  0  0  0  0  0  0
  146.1409  128.6428  154.0024 H   0  0  0  0  0  0  0  0  0  0  0  0
  147.2357  128.2762  152.6707 H   0  0  0  0  0  0  0  0  0  0  0  0
  144.1552  130.0639  151.2054 H   0  0  0  0  0  0  0  0  0  0  0  0
  143.7184  132.5867  150.2050 H   0  0  0  0  0  0  0  0  0  0  0  0
  145.2713  133.3131  149.7979 H   0  0  0  0  0  0  0  0  0  0  0  0
  144.4180  133.8114  151.2619 H   0  0  0  0  0  0  0  0  0  0  0  0
  148.2149  133.2258  151.5131 H   0  0  0  0  0  0  0  0  0  0  0  0
  146.7624  134.1693  151.7897 H   0  0  0  0  0  0  0  0  0  0  0  0
  148.4373  135.4160  153.0792 H   0  0  0  0  0  0  0  0  0  0  0  0
  147.9631  136.0826  155.4055 H   0  0  0  0  0  0  0  0  0  0  0  0
  148.4815  134.4908  155.9026 H   0  0  0  0  0  0  0  0  0  0  0  0
  150.6313  135.5099  154.3365 H   0  0  0  0  0  0  0  0  0  0  0  0
  150.7379  133.8590  156.2496 H   0  0  0  0  0  0  0  0  0  0  0  0
  150.4913  135.1875  157.3737 H   0  0  0  0  0  0  0  0  0  0  0  0
  151.9439  135.0870  156.3782 H   0  0  0  0  0  0  0  0  0  0  0  0
  150.1205  137.7025  153.4409 H   0  0  0  0  0  0  0  0  0  0  0  0
  148.6118  137.8063  154.3238 H   0  0  0  0  0  0  0  0  0  0  0  0
  149.4361  140.0507  153.7236 H   0  0  0  0  0  0  0  0  0  0  0  0
  149.2974  139.8598  155.4619 H   0  0  0  0  0  0  0  0  0  0  0  0
  152.8783  139.4400  155.8594 H   0  0  0  0  0  0  0  0  0  0  0  0
  151.3648  139.4898  156.7441 H   0  0  0  0  0  0  0  0  0  0  0  0
  152.1343  137.1762  156.4963 H   0  0  0  0  0  0  0  0  0  0  0  0
  152.2516  137.3277  154.7555 H   0  0  0  0  0  0  0  0  0  0  0  0
  1  2  1  0  0  0  0
  1 21  1  0  0  0  0
  1 22  1  0  0  0  0
  1 23  1  0  0  0  0
  2 20  2  0  0  0  0
  2  3  1  0  0  0  0
  3  4  2  0  0  0  0
  3 24  1  0  0  0  0
  4  5  1  0  0  0  0
  4  6  1  0  0  0  0
  5 25  1  0  0  0  0
  5 26  1  0  0  0  0
  5 27  1  0  0  0  0
  6  7  1  0  0  0  0
  6 20  1  0  0  0  0
  7  8  1  0  0  0  0
  7 28  1  0  0  0  0
  7 29  1  0  0  0  0
  8  9  2  0  0  0  0
  8 10  1  0  0  0  0
 10 11  1  0  0  0  0
 10 30  1  0  0  0  0
 11 12  1  0  0  0  0
 11 31  1  0  0  0  0
 11 32  1  0  0  0  0
 12 13  1  0  0  0  0
 12 14  1  0  0  0  0
 12 33  1  0  0  0  0
 13 34  1  0  0  0  0
 13 35  1  0  0  0  0
 13 36  1  0  0  0  0
 14 19  1  0  0  0  0
 14 15  1  0  0  0  0
 15 16  1  0  0  0  0
 15 37  1  0  0  0  0
 15 38  1  0  0  0  0
 16 17  1  0  0  0  0
 16 39  1  0  0  0  0
 16 40  1  0  0  0  0
 17 18  1  0  0  0  0
 18 19  1  0  0  0  0
 18 41  1  0  0  0  0
 18 42  1  0  0  0  0
 19 43  1  0  0  0  0
 19 44  1  0  0  0  0
M  END
> <s_m_source_file>
AV-unprocessed.smi

> <i_m_source_file_index>
2076

> <i_lp_mmshare_version>
43012

> <i_f3d_flags>
0

> <s_epik_input>
W0NIM11jMVtjSF1jKFtDSDNdKW4objEpW0NIMl1DKD1PKVtOSF1bQ0gyXVtDQEhdKFtDSDNdKU4yW0NIMl1bQ0gyXU9bQ0gyXVtDSDJdMg==

> <s_epik_cmdline>
J2VwaWtfcHl0aG9uJywgJy1waCcsICc3LjAnLCAnLXRuJywgJzgnLCAnLW1hJywgJzIwMCcsICctbWV0YWxfYmluZGluZycsICctaW1hZScsICc8aW5maWxlLm1hZT4nLCAnLW9tYWUnLCAnPG91dGZpbGUubWFlPic=

> <r_lp_tautomer_probability>
1

> <r_epik_Ionization_Penalty>
0.197284

> <r_epik_Ionization_Penalty_Charging>
0

> <r_epik_Ionization_Penalty_Neutral>
0.197284

> <r_epik_State_Penalty>
0.186684

> <r_epik_Charging_Adjusted_Penalty>
0.186684

> <i_epik_Tot_Q>
0

> <i_epik_Tot_abs_Q>
0

> <r_epik_Metal_State_Penalty>
0.186636

> <b_epik_Metal_Only>
0

> <s_lp_Force_Field>
OPLS_2005

> <r_lp_Energy>
25.7273

> <b_lp_Chiralities_Consistent>
1

> <s_lp_Variant>
AV-unprocessed.smi:2076-1

> <Gold.Version>
5.8.1

> <Gold.Id.Protein>
6NUR|6NUR_protein|mol2

> <Gold.PLP.Fitness>
37.2053

> <Gold.PLP.PLP>
-33.2527

> <Gold.PLP.part.hbond>
-1.9120

> <Gold.PLP.part.metal>
0.0000

> <Gold.PLP.part.buried>
-4.0631

> <Gold.PLP.part.nonpolar>
-28.7464

> <Gold.PLP.part.repulsive>
1.1815

> <Gold.PLP.ligand.clash>
0.0000

> <Gold.PLP.ligand.torsion>
1.0254

> <Gold.PLP.Chemscore.Hbond>
1.9913

> <Gold.PLP.Chemscore.CHOScore>
0.0000

> <Gold.PLP.Chemscore.Metal>
0.0000

> <Gold.Chemscore.Hbonds>
donor molecule, donor type, donor heavy atom, donor atom, acceptor molecule, acceptor atom, score
      L1  H    10    30       P1  7948  1.00
      P1  H  7989  7998       L1    17  1.00

> <Gold.PLP.Chemscore.Internal.Correction>
0.0298

> <Gold.Rescore>
     Score         DG    S(hbond)    S(metal)    S(lipo)     H(rot)  DE(clash)    DE(int)     intcor
     14.70     -17.59       1.94        0.00      85.20       1.70       0.01       2.88       ----

> <Gold.Chemscore.Fitness>
14.7015

> <Gold.Chemscore.DG>
-17.5874

> <Gold.Chemscore.ZeroCoef>
-5.4800

> <Gold.Chemscore.Hbond>
1.9428

> <Gold.Chemscore.Metal>
0.0000

> <Gold.Chemscore.Lipo>
85.2031

> <Gold.Chemscore.Internal_Hbond>
0.0000

> <Gold.Chemscore.DEClash>
0.0092

> <Gold.Chemscore.DEInternal>
2.8767

> <Gold.Chemscore.Rot>
1.6993

> <Gold.Chemscore.Internal.Correction>
   9.000000E+99

> <Gold.Chemscore.Hbonds>
donor molecule, donor type, donor heavy atom, donor atom, acceptor molecule, acceptor atom, score
      L1  H    10    30       P1  7948  0.91
      P1  H  7989  7998       L1    17  0.70

> <Gold.Chemscore.Hbond.Weighted>
-6.4888

> <Gold.Chemscore.Metal.Weighted>
-0.0000

> <Gold.Chemscore.Lipo.Weighted>
-9.9688

> <Gold.Chemscore.Internal_Hbond.Weighted>
0.0000

> <Gold.Chemscore.DEClash.Weighted>
0.0092

> <Gold.Chemscore.DEInternal.Weighted>
2.8767

> <Gold.Chemscore.Rot.Weighted>
4.3502

> <Gold.Chemscore.Internal.Correction.Weighted>
   9.000000E+99

> <Gold.Protein.RotatedTorsions>
[ 6907 6896 6895 6894 ] final -158.67 input  -60.11 | X-H torsion
[ 7974 7965 7964 7962 ] final -110.59 input  175.53 | X-H torsion
[ 8008 7997 7996 7995 ] final   24.81 input   59.86 | X-H torsion
[ 10167 10162 10161 10158 ] final  -69.41 input  -65.29 | X-H torsion
[ 10718 10713 10712 10709 ] final   12.16 input   66.30 | X-H torsion
[ 10763 10752 10751 10750 ] final  -43.83 input  -60.55 | X-H torsion
[ 11005 11000 10999 10996 ] final -157.41 input  -57.11 | X-H torsion

> <Gold.Protein.ActiveResidues>
 VAL166  LYS551  ARG553  GLY616  TRP617  ASP618  TYR619  PRO620  LYS621  CYS622 
 ASP623  PHE694  ASN695  SER759  ASP760  ASP761  ALA762  ILE779  LEU786  VAL792 
 PHE793  MET794  SER795  GLU796  ALA797  LYS798  CYS799  TRP800  GLU811  SER814 

> <Gold.Protein.RotatedAtoms>
  151.3218  133.4037  159.2654 H   0  0  0  0  0  0  0  0  0  0  0  0  # atno 6907 bound_to 6896
  151.0028  134.9336  159.7974 H   0  0  0  0  0  0  0  0  0  0  0  0  # atno 6908 bound_to 6896
  152.5280  134.3183  159.9191 H   0  0  0  0  0  0  0  0  0  0  0  0  # atno 6909 bound_to 6896
  145.1664  140.8904  143.3561 H   0  0  0  0  0  0  0  0  0  0  0  0  # atno 7974 bound_to 7965
  155.0020  140.3126  155.4863 H   0  0  0  0  0  0  0  0  0  0  0  0  # atno 8008 bound_to 7997
  156.2923  140.2230  156.5071 H   0  0  0  0  0  0  0  0  0  0  0  0  # atno 8009 bound_to 7997
  154.7610  140.0459  157.0961 H   0  0  0  0  0  0  0  0  0  0  0  0  # atno 8010 bound_to 7997
  140.5433  143.2314  151.7049 H   0  0  0  0  0  0  0  0  0  0  0  0  # atno 10167 bound_to 10162
  157.0061  130.6098  149.5702 H   0  0  0  0  0  0  0  0  0  0  0  0  # atno 10718 bound_to 10713
  154.0021  135.6692  153.4760 H   0  0  0  0  0  0  0  0  0  0  0  0  # atno 10763 bound_to 10752
  153.0658  135.5002  154.8192 H   0  0  0  0  0  0  0  0  0  0  0  0  # atno 10764 bound_to 10752
  154.7046  135.3085  154.9252 H   0  0  0  0  0  0  0  0  0  0  0  0  # atno 10765 bound_to 10752
  140.6649  134.4310  157.5233 H   0  0  0  0  0  0  0  0  0  0  0  0  # atno 11005 bound_to 11000
  145.0278  139.3367  143.6040 LP  0  0  0  0  0  0  0  0  0  0  0  0  # atno 17320 bound_to 7965
  146.3475  139.9603  142.8718 LP  0  0  0  0  0  0  0  0  0  0  0  0  # atno 17321 bound_to 7965
  139.4997  144.3935  152.0255 LP  0  0  0  0  0  0  0  0  0  0  0  0  # atno 17342 bound_to 10162
  140.3046  144.3608  150.6050 LP  0  0  0  0  0  0  0  0  0  0  0  0  # atno 17343 bound_to 10162
  156.0153  130.5247  150.8116 LP  0  0  0  0  0  0  0  0  0  0  0  0  # atno 17370 bound_to 10713
  157.5355  131.0938  150.9898 LP  0  0  0  0  0  0  0  0  0  0  0  0  # atno 17371 bound_to 10713
  139.9001  134.8577  156.1934 LP  0  0  0  0  0  0  0  0  0  0  0  0  # atno 17394 bound_to 11000
  141.0437  133.6924  156.1644 LP  0  0  0  0  0  0  0  0  0  0  0  0  # atno 17395 bound_to 11000

$$$$
