AV-unprocessed.smi:2996|AV-procd|sdf|11411|dock5
  -GOLD-   2272016333D 1   1.00000     0.00000
 Structure written by MMmdl.
 46 47  0  0  0  0  0  0  0  0  1 V2000
  152.9917  138.8688  154.2474 C   0  0  0  0  0  0  0  0  0  0  0  0
  151.5829  138.2835  154.0962 C   0  0  0  0  0  0  0  0  0  0  0  0
  150.5178  139.3342  154.2510 C   0  0  0  0  0  0  0  0  0  0  0  0
  150.8402  140.5538  154.6521 N   0  0  0  0  0  0  0  0  0  0  0  0
  149.6430  141.2848  154.6914 O   0  0  0  0  0  0  0  0  0  0  0  0
  148.6133  140.4805  154.3121 C   0  0  0  0  0  0  0  0  0  0  0  0
  147.2664  141.1219  154.2482 C   0  0  0  0  0  0  0  0  0  0  0  0
  149.1162  139.2343  154.0491 C   0  0  0  0  0  0  0  0  0  0  0  0
  148.4495  138.0667  153.5984 N   0  0  0  0  0  0  0  0  0  0  0  0
  147.3099  137.5468  154.0795 C   0  0  0  0  0  0  0  0  0  0  0  0
  146.6620  138.0129  155.0159 O   0  0  0  0  0  0  0  0  0  0  0  0
  146.9738  136.4254  153.4277 N   0  0  0  0  0  0  0  0  0  0  0  0
  145.8216  135.5832  153.7428 C   0  0  1  0  0  0  0  0  0  0  0  0
  144.9508  135.3455  152.5249 C   0  0  0  0  0  0  0  0  0  0  0  0
  144.2208  134.0404  152.8682 C   0  0  0  0  0  0  0  0  0  0  0  0
  142.8865  134.3004  153.5880 C   0  0  0  0  0  0  0  0  0  0  0  0
  144.0161  133.1454  151.6361 C   0  0  0  0  0  0  0  0  0  0  0  0
  145.0713  133.3573  153.7885 O   0  0  0  0  0  0  0  0  0  0  0  0
  146.1972  134.1472  154.1675 C   0  0  0  0  0  0  0  0  0  0  0  0
  147.4157  133.5616  153.4227 C   0  0  0  0  0  0  0  0  0  0  0  0
  146.3763  134.0152  155.6880 C   0  0  0  0  0  0  0  0  0  0  0  0
  153.7488  138.0919  154.1397 H   0  0  0  0  0  0  0  0  0  0  0  0
  153.1227  139.3292  155.2273 H   0  0  0  0  0  0  0  0  0  0  0  0
  153.1860  139.6295  153.4908 H   0  0  0  0  0  0  0  0  0  0  0  0
  151.4936  137.8019  153.1217 H   0  0  0  0  0  0  0  0  0  0  0  0
  151.4392  137.4945  154.8346 H   0  0  0  0  0  0  0  0  0  0  0  0
  146.6861  140.7270  153.4144 H   0  0  0  0  0  0  0  0  0  0  0  0
  147.3539  142.1999  154.1117 H   0  0  0  0  0  0  0  0  0  0  0  0
  146.7093  140.9448  155.1681 H   0  0  0  0  0  0  0  0  0  0  0  0
  148.9388  137.5189  152.9062 H   0  0  0  0  0  0  0  0  0  0  0  0
  147.5690  136.1161  152.6735 H   0  0  0  0  0  0  0  0  0  0  0  0
  145.2046  136.0531  154.5116 H   0  0  0  0  0  0  0  0  0  0  0  0
  144.2734  136.1755  152.3201 H   0  0  0  0  0  0  0  0  0  0  0  0
  145.5754  135.2094  151.6405 H   0  0  0  0  0  0  0  0  0  0  0  0
  142.1883  134.8352  152.9437 H   0  0  0  0  0  0  0  0  0  0  0  0
  143.0278  134.8960  154.4903 H   0  0  0  0  0  0  0  0  0  0  0  0
  142.4122  133.3646  153.8856 H   0  0  0  0  0  0  0  0  0  0  0  0
  143.3842  133.6346  150.8943 H   0  0  0  0  0  0  0  0  0  0  0  0
  143.5409  132.2028  151.9093 H   0  0  0  0  0  0  0  0  0  0  0  0
  144.9667  132.9057  151.1586 H   0  0  0  0  0  0  0  0  0  0  0  0
  148.3368  134.0811  153.6880 H   0  0  0  0  0  0  0  0  0  0  0  0
  147.2965  133.6259  152.3410 H   0  0  0  0  0  0  0  0  0  0  0  0
  147.5544  132.5090  153.6712 H   0  0  0  0  0  0  0  0  0  0  0  0
  147.2295  134.5962  156.0384 H   0  0  0  0  0  0  0  0  0  0  0  0
  146.5428  132.9768  155.9757 H   0  0  0  0  0  0  0  0  0  0  0  0
  145.4928  134.3657  156.2226 H   0  0  0  0  0  0  0  0  0  0  0  0
  1  2  1  0  0  0  0
  1 22  1  0  0  0  0
  1 23  1  0  0  0  0
  1 24  1  0  0  0  0
  2  3  1  0  0  0  0
  2 25  1  0  0  0  0
  2 26  1  0  0  0  0
  3  8  1  0  0  0  0
  3  4  2  0  0  0  0
  4  5  1  0  0  0  0
  5  6  1  0  0  0  0
  6  7  1  0  0  0  0
  6  8  2  0  0  0  0
  7 27  1  0  0  0  0
  7 28  1  0  0  0  0
  7 29  1  0  0  0  0
  8  9  1  0  0  0  0
  9 10  1  0  0  0  0
  9 30  1  0  0  0  0
 10 11  2  0  0  0  0
 10 12  1  0  0  0  0
 12 13  1  0  0  0  0
 12 31  1  0  0  0  0
 13 19  1  0  0  0  0
 13 14  1  0  0  0  0
 13 32  1  0  0  0  0
 14 15  1  0  0  0  0
 14 33  1  0  0  0  0
 14 34  1  0  0  0  0
 15 16  1  0  0  0  0
 15 17  1  0  0  0  0
 15 18  1  0  0  0  0
 16 35  1  0  0  0  0
 16 36  1  0  0  0  0
 16 37  1  0  0  0  0
 17 38  1  0  0  0  0
 17 39  1  0  0  0  0
 17 40  1  0  0  0  0
 18 19  1  0  0  0  0
 19 20  1  0  0  0  0
 19 21  1  0  0  0  0
 20 41  1  0  0  0  0
 20 42  1  0  0  0  0
 20 43  1  0  0  0  0
 21 44  1  0  0  0  0
 21 45  1  0  0  0  0
 21 46  1  0  0  0  0
M  END
> <s_m_source_file>
AV-unprocessed.smi

> <i_m_source_file_index>
2996

> <i_lp_mmshare_version>
43012

> <i_f3d_flags>
0

> <s_epik_input>
W0NIM11bQ0gyXWMxbm9jKFtDSDNdKWMxW05IXUMoPU8pW05IXVtDQEBIXShDKE8yKShbQ0gzXSlbQ0gzXSlbQ0gyXUMyKFtDSDNdKVtDSDNd

> <s_epik_cmdline>
J2VwaWtfcHl0aG9uJywgJy1waCcsICc3LjAnLCAnLXRuJywgJzgnLCAnLW1hJywgJzIwMCcsICctbWV0YWxfYmluZGluZycsICctaW1hZScsICc8aW5maWxlLm1hZT4nLCAnLW9tYWUnLCAnPG91dGZpbGUubWFlPic=

> <r_lp_tautomer_probability>
1

> <r_epik_Ionization_Penalty>
3.17207e-05

> <r_epik_Ionization_Penalty_Charging>
0

> <r_epik_Ionization_Penalty_Neutral>
3.17207e-05

> <r_epik_State_Penalty>
-0

> <r_epik_Charging_Adjusted_Penalty>
0

> <i_epik_Tot_Q>
0

> <i_epik_Tot_abs_Q>
0

> <r_epik_Metal_State_Penalty>
-0

> <b_epik_Metal_Only>
0

> <s_lp_Force_Field>
OPLS_2005

> <r_lp_Energy>
17.4613

> <b_lp_Chiralities_Consistent>
1

> <s_lp_Variant>
AV-unprocessed.smi:2996-2

> <Gold.Version>
5.8.1

> <Gold.Id.Protein>
6NUR|6NUR_protein|mol2

> <Gold.PLP.Fitness>
39.8287

> <Gold.PLP.PLP>
-32.0380

> <Gold.PLP.part.hbond>
-4.5564

> <Gold.PLP.part.metal>
0.0000

> <Gold.PLP.part.buried>
-0.9315

> <Gold.PLP.part.nonpolar>
-26.6653

> <Gold.PLP.part.repulsive>
0.4762

> <Gold.PLP.ligand.clash>
0.0000

> <Gold.PLP.ligand.torsion>
0.4658

> <Gold.PLP.Chemscore.Hbond>
2.8500

> <Gold.PLP.Chemscore.CHOScore>
0.0000

> <Gold.PLP.Chemscore.Metal>
0.0000

> <Gold.Chemscore.Hbonds>
donor molecule, donor type, donor heavy atom, donor atom, acceptor molecule, acceptor atom, score
      L1  H     9    30       P1  7948  1.00
      L1  H    12    31       P1  7948  1.00
      P1  H  7989  7998       L1     4  0.60

> <Gold.PLP.Chemscore.Internal.Correction>
0.1724

> <Gold.Rescore>
     Score         DG    S(hbond)    S(metal)    S(lipo)     H(rot)  DE(clash)    DE(int)     intcor
     16.83     -17.23       1.93        0.00      70.51       1.16       0.09       0.31       ----

> <Gold.Chemscore.Fitness>
16.8271

> <Gold.Chemscore.DG>
-17.2255

> <Gold.Chemscore.ZeroCoef>
-5.4800

> <Gold.Chemscore.Hbond>
1.9349

> <Gold.Chemscore.Metal>
0.0000

> <Gold.Chemscore.Lipo>
70.5133

> <Gold.Chemscore.Internal_Hbond>
0.0000

> <Gold.Chemscore.DEClash>
0.0872

> <Gold.Chemscore.DEInternal>
0.3112

> <Gold.Chemscore.Rot>
1.1590

> <Gold.Chemscore.Internal.Correction>
   9.000000E+99

> <Gold.Chemscore.Hbonds>
donor molecule, donor type, donor heavy atom, donor atom, acceptor molecule, acceptor atom, score
      L1  H     9    30       P1  7948  0.95
      L1  H    12    31       P1  7948  0.94
      P1  H  7989  7998       L1     4  0.07

> <Gold.Chemscore.Hbond.Weighted>
-6.4625

> <Gold.Chemscore.Metal.Weighted>
-0.0000

> <Gold.Chemscore.Lipo.Weighted>
-8.2501

> <Gold.Chemscore.Internal_Hbond.Weighted>
0.0000

> <Gold.Chemscore.DEClash.Weighted>
0.0872

> <Gold.Chemscore.DEInternal.Weighted>
0.3112

> <Gold.Chemscore.Rot.Weighted>
2.9671

> <Gold.Chemscore.Internal.Correction.Weighted>
   9.000000E+99

> <Gold.Protein.RotatedTorsions>
[ 6907 6896 6895 6894 ] final   51.63 input  -60.11 | X-H torsion
[ 7974 7965 7964 7962 ] final -119.24 input  175.53 | X-H torsion
[ 8008 7997 7996 7995 ] final  -72.05 input   59.86 | X-H torsion
[ 10167 10162 10161 10158 ] final  111.92 input  -65.29 | X-H torsion
[ 10718 10713 10712 10709 ] final   75.37 input   66.30 | X-H torsion
[ 10763 10752 10751 10750 ] final -161.23 input  -60.55 | X-H torsion
[ 11005 11000 10999 10996 ] final  -92.86 input  -57.11 | X-H torsion

> <Gold.Protein.ActiveResidues>
 VAL166  LYS551  ARG553  GLY616  TRP617  ASP618  TYR619  PRO620  LYS621  CYS622 
 ASP623  PHE694  ASN695  SER759  ASP760  ASP761  ALA762  ILE779  LEU786  VAL792 
 PHE793  MET794  SER795  GLU796  ALA797  LYS798  CYS799  TRP800  GLU811  SER814 

> <Gold.Protein.RotatedAtoms>
  152.3147  134.7454  160.0327 H   0  0  0  0  0  0  0  0  0  0  0  0  # atno 6907 bound_to 6896
  151.7922  133.3355  159.3510 H   0  0  0  0  0  0  0  0  0  0  0  0  # atno 6908 bound_to 6896
  150.7338  134.5762  159.5960 H   0  0  0  0  0  0  0  0  0  0  0  0  # atno 6909 bound_to 6896
  145.0647  140.8316  143.4131 H   0  0  0  0  0  0  0  0  0  0  0  0  # atno 7974 bound_to 7965
  154.5135  140.0804  156.8037 H   0  0  0  0  0  0  0  0  0  0  0  0  # atno 8008 bound_to 7997
  155.3731  140.3424  155.4226 H   0  0  0  0  0  0  0  0  0  0  0  0  # atno 8009 bound_to 7997
  156.1601  140.1586  156.8613 H   0  0  0  0  0  0  0  0  0  0  0  0  # atno 8010 bound_to 7997
  139.6575  144.7129  151.1929 H   0  0  0  0  0  0  0  0  0  0  0  0  # atno 10167 bound_to 10162
  157.6631  130.9723  150.1343 H   0  0  0  0  0  0  0  0  0  0  0  0  # atno 10718 bound_to 10713
  154.7321  135.3049  154.8873 H   0  0  0  0  0  0  0  0  0  0  0  0  # atno 10763 bound_to 10752
  153.9713  135.6741  153.4751 H   0  0  0  0  0  0  0  0  0  0  0  0  # atno 10764 bound_to 10752
  153.0928  135.4950  154.8644 H   0  0  0  0  0  0  0  0  0  0  0  0  # atno 10765 bound_to 10752
  141.1511  133.7849  157.0079 H   0  0  0  0  0  0  0  0  0  0  0  0  # atno 11005 bound_to 11000
  145.1365  139.2599  143.5512 LP  0  0  0  0  0  0  0  0  0  0  0  0  # atno 17320 bound_to 7965
  146.3526  140.1031  142.8607 LP  0  0  0  0  0  0  0  0  0  0  0  0  # atno 17321 bound_to 7965
  140.7565  143.6049  150.8663 LP  0  0  0  0  0  0  0  0  0  0  0  0  # atno 17342 bound_to 10162
  139.9703  143.6064  152.2975 LP  0  0  0  0  0  0  0  0  0  0  0  0  # atno 17343 bound_to 10162
  156.2182  130.3672  149.8588 LP  0  0  0  0  0  0  0  0  0  0  0  0  # atno 17370 bound_to 10713
  156.6448  130.8719  151.3520 LP  0  0  0  0  0  0  0  0  0  0  0  0  # atno 17371 bound_to 10713
  140.0897  134.9600  157.1756 LP  0  0  0  0  0  0  0  0  0  0  0  0  # atno 17394 bound_to 11000
  140.3463  134.2648  155.7204 LP  0  0  0  0  0  0  0  0  0  0  0  0  # atno 17395 bound_to 11000

$$$$
