AV-unprocessed.smi:2528|AV-procd|sdf|9948|dock10
  -GOLD-   2272013593D 1   1.00000     0.00000
 Structure written by MMmdl.
 44 46  0  0  0  0  0  0  0  0  2 V2000
  150.2004  140.5020  155.2936 O   0  0  0  0  0  0  0  0  0  0  0  0
  149.5734  141.5190  155.5906 C   0  0  0  0  0  0  0  0  0  0  0  0
  148.5318  141.9770  154.8811 N   0  0  0  0  0  0  0  0  0  0  0  0
  147.9932  141.3490  153.6770 C   0  0  0  0  0  0  0  0  0  0  0  0
  147.8600  139.8165  153.7969 C   0  0  2  0  0  0  0  0  0  0  0  0
  146.7830  139.2108  152.8731 C   0  0  0  0  0  0  0  0  0  0  0  0
  146.7005  137.7443  153.0627 N   0  3  2  0  0  0  0  0  0  0  0  0
  145.7002  137.1144  152.1642 C   0  0  0  0  0  0  0  0  0  0  0  0
  145.7034  135.5855  152.3188 C   0  0  0  0  0  0  0  0  0  0  0  0
  145.4546  135.1863  153.7786 C   0  0  0  0  0  0  0  0  0  0  0  0
  146.4824  135.8688  154.6909 C   0  0  0  0  0  0  0  0  0  0  0  0
  146.4822  137.3983  154.4940 C   0  0  1  0  0  0  0  0  0  0  0  0
  147.5603  138.0709  155.3662 C   0  0  0  0  0  0  0  0  0  0  0  0
  147.5615  139.4749  155.1458 O   0  0  0  0  0  0  0  0  0  0  0  0
  149.8292  142.3099  156.6474 N   0  0  0  0  0  0  0  0  0  0  0  0
  150.8266  142.1443  157.6451 C   0  0  0  0  0  0  0  0  0  0  0  0
  151.2504  143.3378  158.2725 C   0  0  0  0  0  0  0  0  0  0  0  0
  152.2357  143.2800  159.2774 C   0  0  0  0  0  0  0  0  0  0  0  0
  152.7717  142.0286  159.6300 C   0  0  0  0  0  0  0  0  0  0  0  0
  152.2931  140.8890  158.9579 C   0  0  0  0  0  0  0  0  0  0  0  0
  151.3487  140.9419  157.9950 N   0  0  0  0  0  0  0  0  0  0  0  0
  148.0801  142.8242  155.1932 H   0  0  0  0  0  0  0  0  0  0  0  0
  147.0086  141.7818  153.4986 H   0  0  0  0  0  0  0  0  0  0  0  0
  148.5994  141.6101  152.8079 H   0  0  0  0  0  0  0  0  0  0  0  0
  148.8296  139.3841  153.5430 H   0  0  0  0  0  0  0  0  0  0  0  0
  145.8059  139.6500  153.0798 H   0  0  0  0  0  0  0  0  0  0  0  0
  147.0209  139.4317  151.8318 H   0  0  0  0  0  0  0  0  0  0  0  0
  144.7080  137.5108  152.3859 H   0  0  0  0  0  0  0  0  0  0  0  0
  145.9230  137.3771  151.1293 H   0  0  0  0  0  0  0  0  0  0  0  0
  144.9418  135.1431  151.6760 H   0  0  0  0  0  0  0  0  0  0  0  0
  146.6614  135.1842  151.9856 H   0  0  0  0  0  0  0  0  0  0  0  0
  144.4460  135.4774  154.0748 H   0  0  0  0  0  0  0  0  0  0  0  0
  145.5130  134.1029  153.8889 H   0  0  0  0  0  0  0  0  0  0  0  0
  146.2669  135.6259  155.7321 H   0  0  0  0  0  0  0  0  0  0  0  0
  147.4751  135.4684  154.4801 H   0  0  0  0  0  0  0  0  0  0  0  0
  145.5068  137.7886  154.7914 H   0  0  0  0  0  0  0  0  0  0  0  0
  147.3596  137.8864  156.4218 H   0  0  0  0  0  0  0  0  0  0  0  0
  148.5495  137.6609  155.1554 H   0  0  0  0  0  0  0  0  0  0  0  0
  149.2420  143.1236  156.7532 H   0  0  0  0  0  0  0  0  0  0  0  0
  150.8295  144.2916  157.9892 H   0  0  0  0  0  0  0  0  0  0  0  0
  152.5738  144.1809  159.7677 H   0  0  0  0  0  0  0  0  0  0  0  0
  153.5291  141.9440  160.3953 H   0  0  0  0  0  0  0  0  0  0  0  0
  152.6779  139.9091  159.1991 H   0  0  0  0  0  0  0  0  0  0  0  0
  147.6015  137.3660  152.8071 H   0  0  0  0  0  0  0  0  0  0  0  0
  1  2  2  0  0  0  0
  2  3  1  0  0  0  0
  2 15  1  0  0  0  0
  3  4  1  0  0  0  0
  3 22  1  0  0  0  0
  4  5  1  0  0  0  0
  4 23  1  0  0  0  0
  4 24  1  0  0  0  0
  5 14  1  0  0  0  0
  5  6  1  0  0  0  0
  5 25  1  0  0  0  0
  6  7  1  0  0  0  0
  6 26  1  0  0  0  0
  6 27  1  0  0  0  0
  7 12  1  0  0  0  0
  7  8  1  0  0  0  0
  7 44  1  0  0  0  0
  8  9  1  0  0  0  0
  8 28  1  0  0  0  0
  8 29  1  0  0  0  0
  9 10  1  0  0  0  0
  9 30  1  0  0  0  0
  9 31  1  0  0  0  0
 10 11  1  0  0  0  0
 10 32  1  0  0  0  0
 10 33  1  0  0  0  0
 11 12  1  0  0  0  0
 11 34  1  0  0  0  0
 11 35  1  0  0  0  0
 12 13  1  0  0  0  0
 12 36  1  0  0  0  0
 13 14  1  0  0  0  0
 13 37  1  0  0  0  0
 13 38  1  0  0  0  0
 15 16  1  0  0  0  0
 15 39  1  0  0  0  0
 16 21  1  0  0  0  0
 16 17  2  0  0  0  0
 17 18  1  0  0  0  0
 17 40  1  0  0  0  0
 18 19  2  0  0  0  0
 18 41  1  0  0  0  0
 19 20  1  0  0  0  0
 19 42  1  0  0  0  0
 20 21  2  0  0  0  0
 20 43  1  0  0  0  0
M  CHG  1   7   1
M  END
> <s_m_source_file>
AV-unprocessed.smi

> <i_m_source_file_index>
2528

> <i_lp_mmshare_version>
43012

> <i_f3d_flags>
0

> <s_epik_input>
bjFbY0hdW2NIXVtjSF1bY0hdYzFbTkhdQyg9TylbTkhdW0NIMl1bQ0BIXShbQ0gyXTIpT1tDSDJdW0NAQEhdKE4yMylbQ0gyXVtDSDJdW0NIMl1bQ0gyXTM=

> <s_epik_cmdline>
J2VwaWtfcHl0aG9uJywgJy1waCcsICc3LjAnLCAnLXRuJywgJzgnLCAnLW1hJywgJzIwMCcsICctbWV0YWxfYmluZGluZycsICctaW1hZScsICc8aW5maWxlLm1hZT4nLCAnLW9tYWUnLCAnPG91dGZpbGUubWFlPic=

> <r_epik_Ionization_Penalty>
0.0932337

> <r_epik_Ionization_Penalty_Charging>
0.0931942

> <r_epik_Ionization_Penalty_Neutral>
3.9565e-05

> <r_epik_State_Penalty>
0.0834605

> <r_epik_Charging_Adjusted_Penalty>
0.176655

> <i_epik_Tot_Q>
1

> <i_epik_Tot_abs_Q>
1

> <r_epik_Metal_State_Penalty>
0.0834607

> <b_epik_Metal_Only>
0

> <s_lp_Force_Field>
OPLS_2005

> <r_lp_Energy>
24.6959

> <b_lp_Chiralities_Consistent>
1

> <s_lp_Variant>
AV-unprocessed.smi:2528-1

> <Gold.Version>
5.8.1

> <Gold.Id.Protein>
6NUR|6NUR_protein|mol2

> <Gold.PLP.Fitness>
44.9993

> <Gold.PLP.PLP>
-32.0589

> <Gold.PLP.part.hbond>
-4.0000

> <Gold.PLP.part.metal>
0.0000

> <Gold.PLP.part.buried>
-1.9260

> <Gold.PLP.part.nonpolar>
-26.0553

> <Gold.PLP.part.repulsive>
0.4338

> <Gold.PLP.ligand.clash>
0.0000

> <Gold.PLP.ligand.torsion>
0.5500

> <Gold.PLP.Chemscore.Hbond>
4.6795

> <Gold.PLP.Chemscore.CHOScore>
0.0000

> <Gold.PLP.Chemscore.Metal>
0.0000

> <Gold.Chemscore.Hbonds>
donor molecule, donor type, donor heavy atom, donor atom, acceptor molecule, acceptor atom, score
      L1  H     3    22       P1  8028  0.55
      L1  H     7    44       P1  7948  2.00
      L1  H    15    39       P1  8028  0.70
      P1  H  7989  7998       L1     1  0.27

> <Gold.PLP.Chemscore.Internal.Correction>
0.0020

> <Gold.Rescore>
     Score         DG    S(hbond)    S(metal)    S(lipo)     H(rot)  DE(clash)    DE(int)     intcor
     16.03     -22.23       3.24        0.00      78.77       1.29       0.57       5.63       ----

> <Gold.Chemscore.Fitness>
16.0327

> <Gold.Chemscore.DG>
-22.2266

> <Gold.Chemscore.ZeroCoef>
-5.4800

> <Gold.Chemscore.Hbond>
3.2411

> <Gold.Chemscore.Metal>
0.0000

> <Gold.Chemscore.Lipo>
78.7711

> <Gold.Chemscore.Internal_Hbond>
0.0000

> <Gold.Chemscore.DEClash>
0.5676

> <Gold.Chemscore.DEInternal>
5.6263

> <Gold.Chemscore.Rot>
1.2870

> <Gold.Chemscore.Internal.Correction>
   9.000000E+99

> <Gold.Chemscore.Hbonds>
donor molecule, donor type, donor heavy atom, donor atom, acceptor molecule, acceptor atom, score
      L1  H     3    22       P1  8028  0.51
      L1  H     7    44       P1  7948  0.96
      L1  H    15    39       P1  8028  0.68
      P1  H  7989  7998       L1     1  0.20

> <Gold.Chemscore.Hbond.Weighted>
-10.8252

> <Gold.Chemscore.Metal.Weighted>
-0.0000

> <Gold.Chemscore.Lipo.Weighted>
-9.2162

> <Gold.Chemscore.Internal_Hbond.Weighted>
0.0000

> <Gold.Chemscore.DEClash.Weighted>
0.5676

> <Gold.Chemscore.DEInternal.Weighted>
5.6263

> <Gold.Chemscore.Rot.Weighted>
3.2948

> <Gold.Chemscore.Internal.Correction.Weighted>
   9.000000E+99

> <Gold.Protein.RotatedTorsions>
[ 6907 6896 6895 6894 ] final  -94.62 input  -60.11 | X-H torsion
[ 7974 7965 7964 7962 ] final  147.31 input  175.53 | X-H torsion
[ 8008 7997 7996 7995 ] final -144.59 input   59.86 | X-H torsion
[ 10167 10162 10161 10158 ] final   10.60 input  -65.29 | X-H torsion
[ 10718 10713 10712 10709 ] final   53.96 input   66.30 | X-H torsion
[ 10763 10752 10751 10750 ] final   23.34 input  -60.55 | X-H torsion
[ 11005 11000 10999 10996 ] final  176.90 input  -57.11 | X-H torsion

> <Gold.Protein.ActiveResidues>
 VAL166  LYS551  ARG553  GLY616  TRP617  ASP618  TYR619  PRO620  LYS621  CYS622 
 ASP623  PHE694  ASN695  SER759  ASP760  ASP761  ALA762  ILE779  LEU786  VAL792 
 PHE793  MET794  SER795  GLU796  ALA797  LYS798  CYS799  TRP800  GLU811  SER814 

> <Gold.Protein.RotatedAtoms>
  150.6946  134.1784  159.4238 H   0  0  0  0  0  0  0  0  0  0  0  0  # atno 6907 bound_to 6896
  151.9759  135.0050  160.0564 H   0  0  0  0  0  0  0  0  0  0  0  0  # atno 6908 bound_to 6896
  152.1799  133.4665  159.4989 H   0  0  0  0  0  0  0  0  0  0  0  0  # atno 6909 bound_to 6896
  144.8601  139.6013  143.5934 H   0  0  0  0  0  0  0  0  0  0  0  0  # atno 7974 bound_to 7965
  155.5293  140.0598  157.2892 H   0  0  0  0  0  0  0  0  0  0  0  0  # atno 8008 bound_to 7997
  154.4490  140.1938  156.0523 H   0  0  0  0  0  0  0  0  0  0  0  0  # atno 8009 bound_to 7997
  156.0663  140.3266  155.7526 H   0  0  0  0  0  0  0  0  0  0  0  0  # atno 8010 bound_to 7997
  140.6184  143.8258  150.7145 H   0  0  0  0  0  0  0  0  0  0  0  0  # atno 10167 bound_to 10162
  157.5214  130.8567  149.8564 H   0  0  0  0  0  0  0  0  0  0  0  0  # atno 10718 bound_to 10713
  153.0845  135.6629  153.9976 H   0  0  0  0  0  0  0  0  0  0  0  0  # atno 10763 bound_to 10752
  153.9589  135.2976  155.3436 H   0  0  0  0  0  0  0  0  0  0  0  0  # atno 10764 bound_to 10752
  154.7251  135.5147  153.8945 H   0  0  0  0  0  0  0  0  0  0  0  0  # atno 10765 bound_to 10752
  140.3782  134.6969  157.4435 H   0  0  0  0  0  0  0  0  0  0  0  0  # atno 11005 bound_to 11000
  146.2854  139.6990  142.9199 LP  0  0  0  0  0  0  0  0  0  0  0  0  # atno 17320 bound_to 7965
  145.4328  141.0416  143.2901 LP  0  0  0  0  0  0  0  0  0  0  0  0  # atno 17321 bound_to 7965
  140.1842  143.4089  152.1910 LP  0  0  0  0  0  0  0  0  0  0  0  0  # atno 17342 bound_to 10162
  139.5418  144.7263  151.4710 LP  0  0  0  0  0  0  0  0  0  0  0  0  # atno 17343 bound_to 10162
  156.0356  130.3752  150.1569 LP  0  0  0  0  0  0  0  0  0  0  0  0  # atno 17370 bound_to 10713
  156.9757  130.9848  151.3449 LP  0  0  0  0  0  0  0  0  0  0  0  0  # atno 17371 bound_to 10713
  140.0498  134.6146  155.8875 LP  0  0  0  0  0  0  0  0  0  0  0  0  # atno 17394 bound_to 11000
  141.1932  133.6578  156.5537 LP  0  0  0  0  0  0  0  0  0  0  0  0  # atno 17395 bound_to 11000

$$$$
