AV-unprocessed.smi:182|AV-procd|sdf|1455|dock9
  -GOLD-   2262019253D 1   1.00000     0.00000
 Structure written by MMmdl.
 56 59  0  0  0  0  0  0  0  0  1 V2000
  156.6018  141.0832  160.6088 N   0  0  0  0  0  0  0  0  0  0  0  0
  155.5516  140.4428  160.0900 C   0  0  0  0  0  0  0  0  0  0  0  0
  155.6405  139.7646  159.0682 O   0  0  0  0  0  0  0  0  0  0  0  0
  154.2175  140.5990  160.8266 C   0  0  0  0  0  0  0  0  0  0  0  0
  153.5998  142.0038  160.6746 C   0  0  0  0  0  0  0  0  0  0  0  0
  152.9685  142.2620  159.2921 C   0  0  2  0  0  0  0  0  0  0  0  0
  151.8203  143.2852  159.3951 C   0  0  0  0  0  0  0  0  0  0  0  0
  151.1732  143.5199  158.0224 C   0  0  0  0  0  0  0  0  0  0  0  0
  150.7037  142.1946  157.4054 C   0  0  0  0  0  0  0  0  0  0  0  0
  151.8026  141.2321  157.3488 N   0  0  0  0  0  0  0  0  0  0  0  0
  151.5912  140.1797  156.5168 C   0  0  0  0  0  0  0  0  0  0  0  0
  151.3794  140.3949  155.1902 N   0  0  0  0  0  0  0  0  0  0  0  0
  151.1761  139.3671  154.3615 C   0  0  0  0  0  0  0  0  0  0  0  0
  151.1478  138.0633  154.6416 N   0  0  0  0  0  0  0  0  0  0  0  0
  151.3571  137.8379  155.9702 C   0  0  0  0  0  0  0  0  0  0  0  0
  151.5767  138.8293  156.9687 C   0  0  0  0  0  0  0  0  0  0  0  0
  151.7146  138.2227  158.2119 N   0  0  0  0  0  0  0  0  0  0  0  0
  151.5925  136.9479  157.9613 C   0  0  0  0  0  0  0  0  0  0  0  0
  151.4074  136.6255  156.6359 N   0  0  0  0  0  0  0  0  0  0  0  0
  151.2078  135.3145  156.0916 C   0  0  0  0  0  0  0  0  0  0  0  0
  150.9683  135.1072  154.5941 C   0  0  0  0  0  0  0  0  0  0  0  0
  150.0561  133.9007  154.9137 C   0  0  0  0  0  0  0  0  0  0  0  0
  148.7688  133.8024  154.0784 C   0  0  0  0  0  0  0  0  0  0  0  0
  148.1009  135.0462  154.0193 O   0  0  0  0  0  0  0  0  0  0  0  0
  150.7588  132.5284  154.9254 C   0  0  0  0  0  0  0  0  0  0  0  0
  149.9100  131.5181  155.4315 O   0  0  0  0  0  0  0  0  0  0  0  0
  149.8901  134.5641  156.2984 C   0  0  0  0  0  0  0  0  0  0  0  0
  152.4571  140.9629  158.6314 C   0  0  0  0  0  0  0  0  0  0  0  0
  157.5024  141.0129  160.1574 H   0  0  0  0  0  0  0  0  0  0  0  0
  156.4942  141.6366  161.4465 H   0  0  0  0  0  0  0  0  0  0  0  0
  153.5169  139.8513  160.4518 H   0  0  0  0  0  0  0  0  0  0  0  0
  154.3896  140.3704  161.8783 H   0  0  0  0  0  0  0  0  0  0  0  0
  152.8488  142.1656  161.4496 H   0  0  0  0  0  0  0  0  0  0  0  0
  154.3788  142.7479  160.8489 H   0  0  0  0  0  0  0  0  0  0  0  0
  153.7356  142.6916  158.6458 H   0  0  0  0  0  0  0  0  0  0  0  0
  151.0662  142.9264  160.0972 H   0  0  0  0  0  0  0  0  0  0  0  0
  152.1904  144.2310  159.7924 H   0  0  0  0  0  0  0  0  0  0  0  0
  150.3307  144.2051  158.1173 H   0  0  0  0  0  0  0  0  0  0  0  0
  151.8902  143.9995  157.3549 H   0  0  0  0  0  0  0  0  0  0  0  0
  149.8989  141.7701  158.0072 H   0  0  0  0  0  0  0  0  0  0  0  0
  150.2849  142.3870  156.4185 H   0  0  0  0  0  0  0  0  0  0  0  0
  151.0157  139.6264  153.3255 H   0  0  0  0  0  0  0  0  0  0  0  0
  151.6401  136.2031  158.7428 H   0  0  0  0  0  0  0  0  0  0  0  0
  152.0520  134.7141  156.4348 H   0  0  0  0  0  0  0  0  0  0  0  0
  150.4278  135.9398  154.1395 H   0  0  0  0  0  0  0  0  0  0  0  0
  151.8679  134.8722  154.0248 H   0  0  0  0  0  0  0  0  0  0  0  0
  148.9935  133.4988  153.0555 H   0  0  0  0  0  0  0  0  0  0  0  0
  148.0863  133.0513  154.4764 H   0  0  0  0  0  0  0  0  0  0  0  0
  148.2274  135.4142  153.1582 H   0  0  0  0  0  0  0  0  0  0  0  0
  151.0641  132.2328  153.9214 H   0  0  0  0  0  0  0  0  0  0  0  0
  151.6709  132.5516  155.5225 H   0  0  0  0  0  0  0  0  0  0  0  0
  150.4064  130.7172  155.5034 H   0  0  0  0  0  0  0  0  0  0  0  0
  149.8922  133.8719  157.1412 H   0  0  0  0  0  0  0  0  0  0  0  0
  149.0313  135.2364  156.3489 H   0  0  0  0  0  0  0  0  0  0  0  0
  153.2928  140.2812  158.4699 H   0  0  0  0  0  0  0  0  0  0  0  0
  151.7519  140.4585  159.2938 H   0  0  0  0  0  0  0  0  0  0  0  0
  1  2  1  0  0  0  0
  1 29  1  0  0  0  0
  1 30  1  0  0  0  0
  2  3  2  0  0  0  0
  2  4  1  0  0  0  0
  4  5  1  0  0  0  0
  4 31  1  0  0  0  0
  4 32  1  0  0  0  0
  5  6  1  0  0  0  0
  5 33  1  0  0  0  0
  5 34  1  0  0  0  0
  6 28  1  0  0  0  0
  6  7  1  0  0  0  0
  6 35  1  0  0  0  0
  7  8  1  0  0  0  0
  7 36  1  0  0  0  0
  7 37  1  0  0  0  0
  8  9  1  0  0  0  0
  8 38  1  0  0  0  0
  8 39  1  0  0  0  0
  9 10  1  0  0  0  0
  9 40  1  0  0  0  0
  9 41  1  0  0  0  0
 10 11  1  0  0  0  0
 10 28  1  0  0  0  0
 11 16  1  0  0  0  0
 11 12  2  0  0  0  0
 12 13  1  0  0  0  0
 13 14  2  0  0  0  0
 13 42  1  0  0  0  0
 14 15  1  0  0  0  0
 15 19  1  0  0  0  0
 15 16  2  0  0  0  0
 16 17  1  0  0  0  0
 17 18  2  0  0  0  0
 18 19  1  0  0  0  0
 18 43  1  0  0  0  0
 19 20  1  0  0  0  0
 20 27  1  0  0  0  0
 20 21  1  0  0  0  0
 20 44  1  0  0  0  0
 21 22  1  0  0  0  0
 21 45  1  0  0  0  0
 21 46  1  0  0  0  0
 22 23  1  0  0  0  0
 22 25  1  0  0  0  0
 22 27  1  0  0  0  0
 23 24  1  0  0  0  0
 23 47  1  0  0  0  0
 23 48  1  0  0  0  0
 24 49  1  0  0  0  0
 25 26  1  0  0  0  0
 25 50  1  0  0  0  0
 25 51  1  0  0  0  0
 26 52  1  0  0  0  0
 27 53  1  0  0  0  0
 27 54  1  0  0  0  0
 28 55  1  0  0  0  0
 28 56  1  0  0  0  0
M  END
> <s_m_source_file>
AV-unprocessed.smi

> <i_m_source_file_index>
182

> <i_lp_mmshare_version>
43012

> <i_f3d_flags>
0

> <s_epik_input>
W05IMl1DKD1PKVtDSDJdW0NIMl1bQ0BASF0xW0NIMl1bQ0gyXVtDSDJdTihbQ0gyXTEpYyhuW2NIXW4yKWMoYzIzKW5bY0hdbjNbQ0hdKFtDSDJdNClbQ0gyXUM0KFtDSDJdW09IXSlbQ0gyXVtPSF0=

> <s_epik_cmdline>
J2VwaWtfcHl0aG9uJywgJy1waCcsICc3LjAnLCAnLXRuJywgJzgnLCAnLW1hJywgJzIwMCcsICctbWV0YWxfYmluZGluZycsICctaW1hZScsICc8aW5maWxlLm1hZT4nLCAnLW9tYWUnLCAnPG91dGZpbGUubWFlPic=

> <r_lp_tautomer_probability>
1

> <r_epik_Ionization_Penalty>
0.00186057

> <r_epik_Ionization_Penalty_Charging>
0

> <r_epik_Ionization_Penalty_Neutral>
0.00186057

> <r_epik_State_Penalty>
0.00110736

> <r_epik_Charging_Adjusted_Penalty>
0.00110736

> <i_epik_Tot_Q>
0

> <i_epik_Tot_abs_Q>
0

> <r_epik_Metal_State_Penalty>
-0

> <b_epik_Metal_Only>
0

> <s_lp_Force_Field>
OPLS_2005

> <r_lp_Energy>
36.2346

> <b_lp_Chiralities_Consistent>
1

> <s_lp_Variant>
AV-unprocessed.smi:182-1

> <Gold.Version>
5.8.1

> <Gold.Id.Protein>
6NUR|6NUR_protein|mol2

> <Gold.PLP.Fitness>
51.4152

> <Gold.PLP.PLP>
-43.7746

> <Gold.PLP.part.hbond>
-4.0000

> <Gold.PLP.part.metal>
0.0000

> <Gold.PLP.part.buried>
-3.3665

> <Gold.PLP.part.nonpolar>
-36.1292

> <Gold.PLP.part.repulsive>
0.2347

> <Gold.PLP.ligand.clash>
0.0000

> <Gold.PLP.ligand.torsion>
1.1689

> <Gold.PLP.Chemscore.Hbond>
2.0000

> <Gold.PLP.Chemscore.CHOScore>
1.0000

> <Gold.PLP.Chemscore.Metal>
0.0000

> <Gold.Chemscore.Hbonds>
donor molecule, donor type, donor heavy atom, donor atom, acceptor molecule, acceptor atom, score
      L1  H    24    49       P1  7948  1.00
      P1  H  7997  8008       L1     3  1.00
      L1  C    13    42       P1  7957  0.84

> <Gold.PLP.Chemscore.Internal.Correction>
0.9785

> <Gold.Rescore>
     Score         DG    S(hbond)    S(metal)    S(lipo)     H(rot)  DE(clash)    DE(int)     intcor
      6.69     -11.13       1.93        0.00      98.03       4.79       0.49       3.95       ----

> <Gold.Chemscore.Fitness>
6.6865

> <Gold.Chemscore.DG>
-11.1264

> <Gold.Chemscore.ZeroCoef>
-5.4800

> <Gold.Chemscore.Hbond>
1.9297

> <Gold.Chemscore.Metal>
0.0000

> <Gold.Chemscore.Lipo>
98.0290

> <Gold.Chemscore.Internal_Hbond>
0.0000

> <Gold.Chemscore.DEClash>
0.4888

> <Gold.Chemscore.DEInternal>
3.9512

> <Gold.Chemscore.Rot>
4.7922

> <Gold.Chemscore.Internal.Correction>
   9.000000E+99

> <Gold.Chemscore.Hbonds>
donor molecule, donor type, donor heavy atom, donor atom, acceptor molecule, acceptor atom, score
      L1  H    24    49       P1  7948  0.99
      P1  H  7997  8008       L1     3  0.98

> <Gold.Chemscore.Hbond.Weighted>
-6.4451

> <Gold.Chemscore.Metal.Weighted>
-0.0000

> <Gold.Chemscore.Lipo.Weighted>
-11.4694

> <Gold.Chemscore.Internal_Hbond.Weighted>
0.0000

> <Gold.Chemscore.DEClash.Weighted>
0.4888

> <Gold.Chemscore.DEInternal.Weighted>
3.9512

> <Gold.Chemscore.Rot.Weighted>
12.2680

> <Gold.Chemscore.Internal.Correction.Weighted>
   9.000000E+99

> <Gold.Protein.RotatedTorsions>
[ 6907 6896 6895 6894 ] final  154.63 input  -60.11 | X-H torsion
[ 7974 7965 7964 7962 ] final   72.18 input  175.53 | X-H torsion
[ 8008 7997 7996 7995 ] final -150.78 input   59.86 | X-H torsion
[ 10167 10162 10161 10158 ] final  143.14 input  -65.29 | X-H torsion
[ 10718 10713 10712 10709 ] final  -84.54 input   66.30 | X-H torsion
[ 10763 10752 10751 10750 ] final  -79.35 input  -60.55 | X-H torsion
[ 11005 11000 10999 10996 ] final  -66.05 input  -57.11 | X-H torsion

> <Gold.Protein.ActiveResidues>
 VAL166  LYS551  ARG553  GLY616  TRP617  ASP618  TYR619  PRO620  LYS621  CYS622 
 ASP623  PHE694  ASN695  SER759  ASP760  ASP761  ALA762  ILE779  LEU786  VAL792 
 PHE793  MET794  SER795  GLU796  ALA797  LYS798  CYS799  TRP800  GLU811  SER814 

> <Gold.Protein.RotatedAtoms>
  152.0557  133.4039  159.4396 H   0  0  0  0  0  0  0  0  0  0  0  0  # atno 6907 bound_to 6896
  150.6868  134.3257  159.4815 H   0  0  0  0  0  0  0  0  0  0  0  0  # atno 6908 bound_to 6896
  152.1072  134.9299  160.0618 H   0  0  0  0  0  0  0  0  0  0  0  0  # atno 6909 bound_to 6896
  145.7565  139.2782  143.1401 H   0  0  0  0  0  0  0  0  0  0  0  0  # atno 7974 bound_to 7965
  155.6289  140.0689  157.2655 H   0  0  0  0  0  0  0  0  0  0  0  0  # atno 8008 bound_to 7997
  154.4211  140.1771  156.1500 H   0  0  0  0  0  0  0  0  0  0  0  0  # atno 8009 bound_to 7997
  155.9949  140.3341  155.6792 H   0  0  0  0  0  0  0  0  0  0  0  0  # atno 8010 bound_to 7997
  139.4977  144.6060  151.6376 H   0  0  0  0  0  0  0  0  0  0  0  0  # atno 10167 bound_to 10162
  156.0005  130.4701  150.4425 H   0  0  0  0  0  0  0  0  0  0  0  0  # atno 10718 bound_to 10713
  154.5375  135.5698  153.6811 H   0  0  0  0  0  0  0  0  0  0  0  0  # atno 10763 bound_to 10752
  152.9955  135.6219  154.2546 H   0  0  0  0  0  0  0  0  0  0  0  0  # atno 10764 bound_to 10752
  154.2476  135.2860  155.2809 H   0  0  0  0  0  0  0  0  0  0  0  0  # atno 10765 bound_to 10752
  141.1471  133.6692  156.6079 H   0  0  0  0  0  0  0  0  0  0  0  0  # atno 11005 bound_to 11000
  146.0305  140.8262  142.9878 LP  0  0  0  0  0  0  0  0  0  0  0  0  # atno 17320 bound_to 7965
  144.6839  140.2762  143.7299 LP  0  0  0  0  0  0  0  0  0  0  0  0  # atno 17321 bound_to 7965
  140.5722  144.0089  150.6223 LP  0  0  0  0  0  0  0  0  0  0  0  0  # atno 17342 bound_to 10162
  140.3210  143.3137  152.0784 LP  0  0  0  0  0  0  0  0  0  0  0  0  # atno 17343 bound_to 10162
  157.2465  131.0537  151.2405 LP  0  0  0  0  0  0  0  0  0  0  0  0  # atno 17370 bound_to 10713
  157.3570  130.7111  149.6477 LP  0  0  0  0  0  0  0  0  0  0  0  0  # atno 17371 bound_to 10713
  140.3637  134.7665  157.4551 LP  0  0  0  0  0  0  0  0  0  0  0  0  # atno 17394 bound_to 11000
  140.0765  134.5790  155.8586 LP  0  0  0  0  0  0  0  0  0  0  0  0  # atno 17395 bound_to 11000

$$$$
