AV-unprocessed.smi:290|AV-procd|sdf|2241|dock9
  -GOLD-   2262022113D 1   1.00000     0.00000
 Structure written by MMmdl.
 59 62  0  0  0  0  0  0  0  0  2 V2000
  153.0393  140.1814  160.5110 C   0  0  0  0  0  0  0  0  0  0  0  0
  152.6617  141.0451  159.2963 C   0  0  2  0  0  0  0  0  0  0  0  0
  152.2798  142.3492  159.7082 O   0  0  0  0  0  0  0  0  0  0  0  0
  151.5986  142.9436  158.6182 C   0  0  0  0  0  0  0  0  0  0  0  0
  150.6874  141.8211  158.1360 C   0  0  0  0  0  0  0  0  0  0  0  0
  151.4912  140.5455  158.4090 C   0  0  2  0  0  0  0  0  0  0  0  0
  150.6546  139.6396  159.1092 O   0  0  0  0  0  0  0  0  0  0  0  0
  151.9597  139.8631  157.1000 C   0  0  0  0  0  0  0  0  0  0  0  0
  150.8680  139.3669  156.2748 N   0  0  0  0  0  0  0  0  0  0  0  0
  150.5716  138.0505  156.0081 C   0  0  0  0  0  0  0  0  0  0  0  0
  149.5396  137.8604  155.2335 N   0  0  0  0  0  0  0  0  0  0  0  0
  149.0695  139.1404  154.9577 C   0  0  0  0  0  0  0  0  0  0  0  0
  147.9875  139.6714  154.1921 C   0  0  0  0  0  0  0  0  0  0  0  0
  147.0719  138.9345  153.5087 N   0  0  0  0  0  0  0  0  0  0  0  0
  146.4027  139.4512  152.3286 C   0  0  0  0  0  0  0  0  0  0  0  0
  146.1230  138.2161  151.4833 C   0  0  0  0  0  0  0  0  0  0  0  0
  145.9010  137.0958  152.5136 C   0  0  1  0  0  0  0  0  0  0  0  0
  146.1465  135.7367  151.9344 N   0  3  2  0  0  0  0  0  0  0  0  0
  145.2898  135.4871  150.7453 C   0  0  0  0  0  0  0  0  0  0  0  0
  146.0785  134.6216  152.9231 C   0  0  0  0  0  0  0  0  0  0  0  0
  146.9508  133.4038  152.5619 C   0  0  0  0  0  0  0  0  0  0  0  0
  148.3020  133.6576  152.8845 O   0  0  0  0  0  0  0  0  0  0  0  0
  146.8314  137.5058  153.6881 C   0  0  2  0  0  0  0  0  0  0  0  0
  146.1919  137.2410  155.0693 C   0  0  0  0  0  0  0  0  0  0  0  0
  147.8648  141.0239  154.1472 N   0  0  0  0  0  0  0  0  0  0  0  0
  148.7191  141.8079  154.8094 C   0  0  0  0  0  0  0  0  0  0  0  0
  149.7579  141.4540  155.5658 N   0  0  0  0  0  0  0  0  0  0  0  0
  149.9008  140.0991  155.6078 C   0  0  0  0  0  0  0  0  0  0  0  0
  144.8647  137.1493  152.8532 H   0  0  0  0  0  0  0  0  0  0  0  0
  147.7855  136.9893  153.5893 H   0  0  0  0  0  0  0  0  0  0  0  0
  153.3203  139.1732  160.2063 H   0  0  0  0  0  0  0  0  0  0  0  0
  152.2157  140.1046  161.2212 H   0  0  0  0  0  0  0  0  0  0  0  0
  153.8881  140.6139  161.0408 H   0  0  0  0  0  0  0  0  0  0  0  0
  153.5501  141.1775  158.6781 H   0  0  0  0  0  0  0  0  0  0  0  0
  151.0476  143.8338  158.9221 H   0  0  0  0  0  0  0  0  0  0  0  0
  152.3147  143.2265  157.8449 H   0  0  0  0  0  0  0  0  0  0  0  0
  149.7675  141.8389  158.7232 H   0  0  0  0  0  0  0  0  0  0  0  0
  150.4045  141.9423  157.0897 H   0  0  0  0  0  0  0  0  0  0  0  0
  151.1164  138.8210  159.2048 H   0  0  0  0  0  0  0  0  0  0  0  0
  152.5472  140.5601  156.5008 H   0  0  0  0  0  0  0  0  0  0  0  0
  152.6235  139.0286  157.3291 H   0  0  0  0  0  0  0  0  0  0  0  0
  151.1534  137.2304  156.4038 H   0  0  0  0  0  0  0  0  0  0  0  0
  145.4748  139.9385  152.6300 H   0  0  0  0  0  0  0  0  0  0  0  0
  147.0106  140.1727  151.7810 H   0  0  0  0  0  0  0  0  0  0  0  0
  145.2740  138.3684  150.8167 H   0  0  0  0  0  0  0  0  0  0  0  0
  146.9981  137.9942  150.8704 H   0  0  0  0  0  0  0  0  0  0  0  0
  144.2432  135.3843  151.0344 H   0  0  0  0  0  0  0  0  0  0  0  0
  145.5888  134.5858  150.2133 H   0  0  0  0  0  0  0  0  0  0  0  0
  145.3591  136.2928  150.0158 H   0  0  0  0  0  0  0  0  0  0  0  0
  146.4228  134.9614  153.8979 H   0  0  0  0  0  0  0  0  0  0  0  0
  145.0399  134.3112  153.0448 H   0  0  0  0  0  0  0  0  0  0  0  0
  146.6232  132.5401  153.1411 H   0  0  0  0  0  0  0  0  0  0  0  0
  146.8609  133.1166  151.5152 H   0  0  0  0  0  0  0  0  0  0  0  0
  148.5033  134.5533  152.6577 H   0  0  0  0  0  0  0  0  0  0  0  0
  145.9569  136.1901  155.2265 H   0  0  0  0  0  0  0  0  0  0  0  0
  145.2615  137.7988  155.1812 H   0  0  0  0  0  0  0  0  0  0  0  0
  146.8473  137.5456  155.8845 H   0  0  0  0  0  0  0  0  0  0  0  0
  148.5445  142.8700  154.7214 H   0  0  0  0  0  0  0  0  0  0  0  0
  147.1010  135.7458  151.6038 H   0  0  0  0  0  0  0  0  0  0  0  0
  1  2  1  0  0  0  0
  1 31  1  0  0  0  0
  1 32  1  0  0  0  0
  1 33  1  0  0  0  0
  2  6  1  0  0  0  0
  2  3  1  0  0  0  0
  2 34  1  0  0  0  0
  3  4  1  0  0  0  0
  4  5  1  0  0  0  0
  4 35  1  0  0  0  0
  4 36  1  0  0  0  0
  5  6  1  0  0  0  0
  5 37  1  0  0  0  0
  5 38  1  0  0  0  0
  6  7  1  0  0  0  0
  6  8  1  0  0  0  0
  7 39  1  0  0  0  0
  8  9  1  0  0  0  0
  8 40  1  0  0  0  0
  8 41  1  0  0  0  0
  9 28  1  0  0  0  0
  9 10  1  0  0  0  0
 10 11  2  0  0  0  0
 10 42  1  0  0  0  0
 11 12  1  0  0  0  0
 12 28  2  0  0  0  0
 12 13  1  0  0  0  0
 13 14  1  0  0  0  0
 13 25  2  0  0  0  0
 14 23  1  0  0  0  0
 14 15  1  0  0  0  0
 15 16  1  0  0  0  0
 15 43  1  0  0  0  0
 15 44  1  0  0  0  0
 16 17  1  0  0  0  0
 16 45  1  0  0  0  0
 16 46  1  0  0  0  0
 17 29  1  0  0  0  0
 17 18  1  0  0  0  0
 17 23  1  0  0  0  0
 18 19  1  0  0  0  0
 18 20  1  0  0  0  0
 18 59  1  0  0  0  0
 19 47  1  0  0  0  0
 19 48  1  0  0  0  0
 19 49  1  0  0  0  0
 20 21  1  0  0  0  0
 20 50  1  0  0  0  0
 20 51  1  0  0  0  0
 21 22  1  0  0  0  0
 21 52  1  0  0  0  0
 21 53  1  0  0  0  0
 22 54  1  0  0  0  0
 23 30  1  0  0  0  0
 23 24  1  0  0  0  0
 24 55  1  0  0  0  0
 24 56  1  0  0  0  0
 24 57  1  0  0  0  0
 25 26  1  0  0  0  0
 26 27  2  0  0  0  0
 26 58  1  0  0  0  0
 27 28  1  0  0  0  0
M  CHG  1  18   1
M  END
> <s_m_source_file>
AV-unprocessed.smi

> <i_m_source_file_index>
290

> <i_lp_mmshare_version>
43012

> <i_f3d_flags>
0

> <s_epik_input>
W0NIMl0xW0NIMl1PW0NAQEhdKFtDSDNdKVtDQEBdMShbT0hdKVtDSDJdbihbY0hdbjIpYyhjMjMpbltjSF1uYzNONFtDSDJdW0NIMl1bQ0BIXShbQ0BIXTRbQ0gzXSlOKFtDSDNdKVtDSDJdW0NIMl1bT0hd

> <s_epik_cmdline>
J2VwaWtfcHl0aG9uJywgJy1waCcsICc3LjAnLCAnLXRuJywgJzgnLCAnLW1hJywgJzIwMCcsICctbWV0YWxfYmluZGluZycsICctaW1hZScsICc8aW5maWxlLm1hZT4nLCAnLW9tYWUnLCAnPG91dGZpbGUubWFlPic=

> <r_lp_tautomer_probability>
1

> <r_epik_Ionization_Penalty>
0.0036983

> <r_epik_Ionization_Penalty_Charging>
0.0032725

> <r_epik_Ionization_Penalty_Neutral>
0.000425798

> <r_epik_State_Penalty>
-0

> <r_epik_Charging_Adjusted_Penalty>
0.0032725

> <i_epik_Tot_Q>
1

> <i_epik_Tot_abs_Q>
1

> <r_epik_Metal_State_Penalty>
-0

> <b_epik_Metal_Only>
0

> <s_lp_Force_Field>
OPLS_2005

> <r_lp_Energy>
64.4963

> <b_lp_Chiralities_Consistent>
1

> <s_lp_Variant>
AV-unprocessed.smi:290-27

> <Gold.Version>
5.8.1

> <Gold.Id.Protein>
6NUR|6NUR_protein|mol2

> <Gold.PLP.Fitness>
48.7279

> <Gold.PLP.PLP>
-38.1586

> <Gold.PLP.part.hbond>
-3.0000

> <Gold.PLP.part.metal>
0.0000

> <Gold.PLP.part.buried>
7.3123

> <Gold.PLP.part.nonpolar>
-42.0495

> <Gold.PLP.part.repulsive>
0.4822

> <Gold.PLP.ligand.clash>
0.0000

> <Gold.PLP.ligand.torsion>
0.6502

> <Gold.PLP.Chemscore.Hbond>
3.0000

> <Gold.PLP.Chemscore.CHOScore>
0.9024

> <Gold.PLP.Chemscore.Metal>
0.0000

> <Gold.Chemscore.Hbonds>
donor molecule, donor type, donor heavy atom, donor atom, acceptor molecule, acceptor atom, score
      L1  H    18    59       P1  7948  2.00
      L1  H    22    54       P1  7948  0.80
      L1  C    26    58       P1  8028  1.00

> <Gold.PLP.Chemscore.Internal.Correction>
0.1624

> <Gold.Rescore>
     Score         DG    S(hbond)    S(metal)    S(lipo)     H(rot)  DE(clash)    DE(int)     intcor
      7.85     -12.56       1.44        0.00      92.74       3.35       3.74       0.98       ----

> <Gold.Chemscore.Fitness>
7.8463

> <Gold.Chemscore.DG>
-12.5579

> <Gold.Chemscore.ZeroCoef>
-5.4800

> <Gold.Chemscore.Hbond>
1.4394

> <Gold.Chemscore.Metal>
0.0000

> <Gold.Chemscore.Lipo>
92.7424

> <Gold.Chemscore.Internal_Hbond>
0.0000

> <Gold.Chemscore.DEClash>
3.7351

> <Gold.Chemscore.DEInternal>
0.9765

> <Gold.Chemscore.Rot>
3.3518

> <Gold.Chemscore.Internal.Correction>
   9.000000E+99

> <Gold.Chemscore.Hbonds>
donor molecule, donor type, donor heavy atom, donor atom, acceptor molecule, acceptor atom, score
      L1  H    18    59       P1  7948  0.96
      L1  H    22    54       P1  7948  0.12

> <Gold.Chemscore.Hbond.Weighted>
-4.8076

> <Gold.Chemscore.Metal.Weighted>
-0.0000

> <Gold.Chemscore.Lipo.Weighted>
-10.8509

> <Gold.Chemscore.Internal_Hbond.Weighted>
0.0000

> <Gold.Chemscore.DEClash.Weighted>
3.7351

> <Gold.Chemscore.DEInternal.Weighted>
0.9765

> <Gold.Chemscore.Rot.Weighted>
8.5806

> <Gold.Chemscore.Internal.Correction.Weighted>
   9.000000E+99

> <Gold.Protein.RotatedTorsions>
[ 6907 6896 6895 6894 ] final  155.46 input  -60.11 | X-H torsion
[ 7974 7965 7964 7962 ] final  104.17 input  175.53 | X-H torsion
[ 8008 7997 7996 7995 ] final   85.94 input   59.86 | X-H torsion
[ 10167 10162 10161 10158 ] final  -13.58 input  -65.29 | X-H torsion
[ 10718 10713 10712 10709 ] final -100.29 input   66.30 | X-H torsion
[ 10763 10752 10751 10750 ] final  121.68 input  -60.55 | X-H torsion
[ 11005 11000 10999 10996 ] final   54.23 input  -57.11 | X-H torsion

> <Gold.Protein.ActiveResidues>
 VAL166  LYS551  ARG553  GLY616  TRP617  ASP618  TYR619  PRO620  LYS621  CYS622 
 ASP623  PHE694  ASN695  SER759  ASP760  ASP761  ALA762  ILE779  LEU786  VAL792 
 PHE793  MET794  SER795  GLU796  ALA797  LYS798  CYS799  TRP800  GLU811  SER814 

> <Gold.Protein.RotatedAtoms>
  152.0438  133.3989  159.4347 H   0  0  0  0  0  0  0  0  0  0  0  0  # atno 6907 bound_to 6896
  150.6874  134.3384  159.4866 H   0  0  0  0  0  0  0  0  0  0  0  0  # atno 6908 bound_to 6896
  152.1186  134.9222  160.0614 H   0  0  0  0  0  0  0  0  0  0  0  0  # atno 6909 bound_to 6896
  145.3363  139.2473  143.3633 H   0  0  0  0  0  0  0  0  0  0  0  0  # atno 7974 bound_to 7965
  155.9564  140.3397  155.6452 H   0  0  0  0  0  0  0  0  0  0  0  0  # atno 8008 bound_to 7997
  155.6854  140.0742  157.2487 H   0  0  0  0  0  0  0  0  0  0  0  0  # atno 8009 bound_to 7997
  154.4133  140.1667  156.2015 H   0  0  0  0  0  0  0  0  0  0  0  0  # atno 8010 bound_to 7997
  140.7185  143.5411  150.9408 H   0  0  0  0  0  0  0  0  0  0  0  0  # atno 10167 bound_to 10162
  156.0159  130.5321  150.6795 H   0  0  0  0  0  0  0  0  0  0  0  0  # atno 10718 bound_to 10713
  153.6179  135.3418  155.3001 H   0  0  0  0  0  0  0  0  0  0  0  0  # atno 10763 bound_to 10752
  154.8606  135.4266  154.2239 H   0  0  0  0  0  0  0  0  0  0  0  0  # atno 10764 bound_to 10752
  153.3105  135.7031  153.7193 H   0  0  0  0  0  0  0  0  0  0  0  0  # atno 10765 bound_to 10752
  140.0703  134.5479  155.9054 H   0  0  0  0  0  0  0  0  0  0  0  0  # atno 11005 bound_to 11000
  146.3025  140.3951  142.8699 LP  0  0  0  0  0  0  0  0  0  0  0  0  # atno 17320 bound_to 7965
  144.8825  140.7419  143.5978 LP  0  0  0  0  0  0  0  0  0  0  0  0  # atno 17321 bound_to 7965
  139.9133  143.6693  152.3111 LP  0  0  0  0  0  0  0  0  0  0  0  0  # atno 17342 bound_to 10162
  139.7084  144.7624  151.1153 LP  0  0  0  0  0  0  0  0  0  0  0  0  # atno 17343 bound_to 10162
  157.4500  131.0871  151.0855 LP  0  0  0  0  0  0  0  0  0  0  0  0  # atno 17370 bound_to 10713
  157.1374  130.6128  149.5546 LP  0  0  0  0  0  0  0  0  0  0  0  0  # atno 17371 bound_to 10713
  141.2009  133.6615  156.5922 LP  0  0  0  0  0  0  0  0  0  0  0  0  # atno 17394 bound_to 11000
  140.3637  134.7665  157.4551 LP  0  0  0  0  0  0  0  0  0  0  0  0  # atno 17395 bound_to 11000

$$$$
