AV-unprocessed.smi:3303|AV-procd|sdf|12686|dock10
  -GOLD-   2272019 23D 1   1.00000     0.00000
 Structure written by MMmdl.
 44 45  0  0  0  0  0  0  0  0  2 V2000
  152.4534  138.5611  155.3597 C   0  0  0  0  0  0  0  0  0  0  0  0
  151.9939  139.9897  155.7189 C   0  0  1  0  0  0  0  0  0  0  0  0
  150.7291  140.3819  154.9276 C   0  0  0  0  0  0  0  0  0  0  0  0
  149.5274  139.6611  155.4224 N   0  3  2  0  0  0  0  0  0  0  0  0
  148.3472  139.8452  154.5481 C   0  0  0  0  0  0  0  0  0  0  0  0
  149.2545  139.8801  156.8723 C   0  0  2  0  0  0  0  0  0  0  0  0
  148.7467  141.3014  157.1991 C   0  0  0  0  0  0  0  0  0  0  0  0
  150.4907  139.4934  157.7092 C   0  0  0  0  0  0  0  0  0  0  0  0
  151.7615  140.2235  157.2354 C   0  0  1  0  0  0  0  0  0  0  0  0
  152.8842  139.7903  158.0609 N   0  0  0  0  0  0  0  0  0  0  0  0
  152.7155  140.1626  159.4583 C   0  0  0  0  0  0  0  0  0  0  0  0
  153.4596  141.4759  159.7341 C   0  0  0  0  0  0  0  0  0  0  0  0
  152.5543  142.6838  159.5859 C   0  0  0  0  0  0  0  0  0  0  0  0
  152.4056  143.6062  160.6437 C   0  0  0  0  0  0  0  0  0  0  0  0
  151.5610  144.7165  160.4518 C   0  0  0  0  0  0  0  0  0  0  0  0
  150.9019  144.8619  159.2161 C   0  0  0  0  0  0  0  0  0  0  0  0
  151.1182  143.8861  158.2225 C   0  0  0  0  0  0  0  0  0  0  0  0
  151.9264  142.8180  158.3958 N   0  0  0  0  0  0  0  0  0  0  0  0
  151.7170  137.8099  155.6440 H   0  0  0  0  0  0  0  0  0  0  0  0
  153.3929  138.3063  155.8507 H   0  0  0  0  0  0  0  0  0  0  0  0
  152.6199  138.4650  154.2868 H   0  0  0  0  0  0  0  0  0  0  0  0
  152.7843  140.6635  155.3873 H   0  0  0  0  0  0  0  0  0  0  0  0
  150.5651  141.4580  154.9904 H   0  0  0  0  0  0  0  0  0  0  0  0
  150.8766  140.1606  153.8695 H   0  0  0  0  0  0  0  0  0  0  0  0
  148.0715  140.8967  154.4640 H   0  0  0  0  0  0  0  0  0  0  0  0
  147.4895  139.2919  154.9319 H   0  0  0  0  0  0  0  0  0  0  0  0
  148.5586  139.4735  153.5451 H   0  0  0  0  0  0  0  0  0  0  0  0
  148.4574  139.1894  157.1509 H   0  0  0  0  0  0  0  0  0  0  0  0
  148.5690  141.4082  158.2694 H   0  0  0  0  0  0  0  0  0  0  0  0
  147.8016  141.5181  156.7015 H   0  0  0  0  0  0  0  0  0  0  0  0
  149.4585  142.0748  156.9126 H   0  0  0  0  0  0  0  0  0  0  0  0
  150.3046  139.7079  158.7625 H   0  0  0  0  0  0  0  0  0  0  0  0
  150.6399  138.4144  157.6491 H   0  0  0  0  0  0  0  0  0  0  0  0
  151.6146  141.2905  157.4079 H   0  0  0  0  0  0  0  0  0  0  0  0
  152.9725  138.7854  158.0027 H   0  0  0  0  0  0  0  0  0  0  0  0
  151.6588  140.2878  159.6931 H   0  0  0  0  0  0  0  0  0  0  0  0
  153.1051  139.3713  160.1001 H   0  0  0  0  0  0  0  0  0  0  0  0
  153.8773  141.4689  160.7422 H   0  0  0  0  0  0  0  0  0  0  0  0
  154.3050  141.5778  159.0519 H   0  0  0  0  0  0  0  0  0  0  0  0
  152.9268  143.4691  161.5798 H   0  0  0  0  0  0  0  0  0  0  0  0
  151.4223  145.4435  161.2383 H   0  0  0  0  0  0  0  0  0  0  0  0
  150.2473  145.7010  159.0336 H   0  0  0  0  0  0  0  0  0  0  0  0
  150.6297  143.9660  157.2628 H   0  0  0  0  0  0  0  0  0  0  0  0
  149.7597  138.6808  155.3475 H   0  0  0  0  0  0  0  0  0  0  0  0
  1  2  1  0  0  0  0
  1 19  1  0  0  0  0
  1 20  1  0  0  0  0
  1 21  1  0  0  0  0
  2  9  1  0  0  0  0
  2  3  1  0  0  0  0
  2 22  1  0  0  0  0
  3  4  1  0  0  0  0
  3 23  1  0  0  0  0
  3 24  1  0  0  0  0
  4  5  1  0  0  0  0
  4  6  1  0  0  0  0
  4 44  1  0  0  0  0
  5 25  1  0  0  0  0
  5 26  1  0  0  0  0
  5 27  1  0  0  0  0
  6  7  1  0  0  0  0
  6  8  1  0  0  0  0
  6 28  1  0  0  0  0
  7 29  1  0  0  0  0
  7 30  1  0  0  0  0
  7 31  1  0  0  0  0
  8  9  1  0  0  0  0
  8 32  1  0  0  0  0
  8 33  1  0  0  0  0
  9 10  1  0  0  0  0
  9 34  1  0  0  0  0
 10 11  1  0  0  0  0
 10 35  1  0  0  0  0
 11 12  1  0  0  0  0
 11 36  1  0  0  0  0
 11 37  1  0  0  0  0
 12 13  1  0  0  0  0
 12 38  1  0  0  0  0
 12 39  1  0  0  0  0
 13 18  1  0  0  0  0
 13 14  2  0  0  0  0
 14 15  1  0  0  0  0
 14 40  1  0  0  0  0
 15 16  2  0  0  0  0
 15 41  1  0  0  0  0
 16 17  1  0  0  0  0
 16 42  1  0  0  0  0
 17 18  2  0  0  0  0
 17 43  1  0  0  0  0
M  CHG  1   4   1
M  END
> <s_m_source_file>
AV-unprocessed.smi

> <i_m_source_file_index>
3303

> <i_lp_mmshare_version>
43012

> <i_f3d_flags>
0

> <s_epik_input>
W0NIM11bQ0BASF0xW0NIMl1OKFtDSDNdKVtDQEBIXShbQ0gzXSlbQ0gyXVtDQEhdMVtOSF1bQ0gyXVtDSDJdYzJbY0hdW2NIXVtjSF1bY0hdbjI=

> <s_epik_cmdline>
J2VwaWtfcHl0aG9uJywgJy1waCcsICc3LjAnLCAnLXRuJywgJzgnLCAnLW1hJywgJzIwMCcsICctbWV0YWxfYmluZGluZycsICctaW1hZScsICc8aW5maWxlLm1hZT4nLCAnLW9tYWUnLCAnPG91dGZpbGUubWFlPic=

> <r_epik_Ionization_Penalty>
2.31085

> <r_epik_Ionization_Penalty_Charging>
0.000313057

> <r_epik_Ionization_Penalty_Neutral>
2.31054

> <r_epik_State_Penalty>
2.4087

> <r_epik_Charging_Adjusted_Penalty>
2.40902

> <i_epik_Tot_Q>
1

> <i_epik_Tot_abs_Q>
1

> <r_epik_Metal_State_Penalty>
2.30979

> <b_epik_Metal_Only>
0

> <s_lp_Force_Field>
OPLS_2005

> <r_lp_Energy>
26.3275

> <b_lp_Chiralities_Consistent>
1

> <s_lp_Variant>
AV-unprocessed.smi:3303-30

> <Gold.Version>
5.8.1

> <Gold.Id.Protein>
6NUR|6NUR_protein|mol2

> <Gold.PLP.Fitness>
42.1993

> <Gold.PLP.PLP>
-37.3488

> <Gold.PLP.part.hbond>
-1.0000

> <Gold.PLP.part.metal>
0.0000

> <Gold.PLP.part.buried>
-1.6956

> <Gold.PLP.part.nonpolar>
-35.0018

> <Gold.PLP.part.repulsive>
0.0706

> <Gold.PLP.ligand.clash>
0.0000

> <Gold.PLP.ligand.torsion>
0.5012

> <Gold.PLP.Chemscore.Hbond>
0.9500

> <Gold.PLP.Chemscore.CHOScore>
0.9989

> <Gold.PLP.Chemscore.Metal>
0.0000

> <Gold.Chemscore.Hbonds>
donor molecule, donor type, donor heavy atom, donor atom, acceptor molecule, acceptor atom, score
      P1  H  7997  8008       L1    10  0.60
      L1  C    17    43       P1  8028  1.00

> <Gold.PLP.Chemscore.Internal.Correction>
0.0062

> <Gold.Rescore>
     Score         DG    S(hbond)    S(metal)    S(lipo)     H(rot)  DE(clash)    DE(int)     intcor
     14.76     -16.73       0.32        0.00     115.91       1.33       0.14       1.82       ----

> <Gold.Chemscore.Fitness>
14.7574

> <Gold.Chemscore.DG>
-16.7255

> <Gold.Chemscore.ZeroCoef>
-5.4800

> <Gold.Chemscore.Hbond>
0.3240

> <Gold.Chemscore.Metal>
0.0000

> <Gold.Chemscore.Lipo>
115.9063

> <Gold.Chemscore.Internal_Hbond>
0.0000

> <Gold.Chemscore.DEClash>
0.1441

> <Gold.Chemscore.DEInternal>
1.8240

> <Gold.Chemscore.Rot>
1.3272

> <Gold.Chemscore.Internal.Correction>
   9.000000E+99

> <Gold.Chemscore.Hbonds>
donor molecule, donor type, donor heavy atom, donor atom, acceptor molecule, acceptor atom, score
      P1  H  7997  8008       L1    10  0.02

> <Gold.Chemscore.Hbond.Weighted>
-1.0821

> <Gold.Chemscore.Metal.Weighted>
-0.0000

> <Gold.Chemscore.Lipo.Weighted>
-13.5610

> <Gold.Chemscore.Internal_Hbond.Weighted>
0.0000

> <Gold.Chemscore.DEClash.Weighted>
0.1441

> <Gold.Chemscore.DEInternal.Weighted>
1.8240

> <Gold.Chemscore.Rot.Weighted>
3.3976

> <Gold.Chemscore.Internal.Correction.Weighted>
   9.000000E+99

> <Gold.Protein.RotatedTorsions>
[ 6907 6896 6895 6894 ] final  -99.12 input  -60.11 | X-H torsion
[ 7974 7965 7964 7962 ] final   37.16 input  175.53 | X-H torsion
[ 8008 7997 7996 7995 ] final  -78.67 input   59.86 | X-H torsion
[ 10167 10162 10161 10158 ] final  -71.43 input  -65.29 | X-H torsion
[ 10718 10713 10712 10709 ] final  140.13 input   66.30 | X-H torsion
[ 10763 10752 10751 10750 ] final  160.57 input  -60.55 | X-H torsion
[ 11005 11000 10999 10996 ] final  120.37 input  -57.11 | X-H torsion

> <Gold.Protein.ActiveResidues>
 VAL166  LYS551  ARG553  GLY616  TRP617  ASP618  TYR619  PRO620  LYS621  CYS622 
 ASP623  PHE694  ASN695  SER759  ASP760  ASP761  ALA762  ILE779  LEU786  VAL792 
 PHE793  MET794  SER795  GLU796  ALA797  LYS798  CYS799  TRP800  GLU811  SER814 

> <Gold.Protein.RotatedAtoms>
  150.7069  134.1090  159.3992 H   0  0  0  0  0  0  0  0  0  0  0  0  # atno 6907 bound_to 6896
  151.9076  135.0350  160.0521 H   0  0  0  0  0  0  0  0  0  0  0  0  # atno 6908 bound_to 6896
  152.2362  133.5063  159.5281 H   0  0  0  0  0  0  0  0  0  0  0  0  # atno 6909 bound_to 6896
  146.1158  139.5928  142.9322 H   0  0  0  0  0  0  0  0  0  0  0  0  # atno 7974 bound_to 7965
  154.5712  140.0690  156.8967 H   0  0  0  0  0  0  0  0  0  0  0  0  # atno 8008 bound_to 7997
  155.2631  140.3360  155.4253 H   0  0  0  0  0  0  0  0  0  0  0  0  # atno 8009 bound_to 7997
  156.2119  140.1763  156.7660 H   0  0  0  0  0  0  0  0  0  0  0  0  # atno 8010 bound_to 7997
  140.5273  143.2325  151.7324 H   0  0  0  0  0  0  0  0  0  0  0  0  # atno 10167 bound_to 10162
  157.4067  131.1023  151.0497 H   0  0  0  0  0  0  0  0  0  0  0  0  # atno 10718 bound_to 10713
  154.2494  135.2772  155.2822 H   0  0  0  0  0  0  0  0  0  0  0  0  # atno 10763 bound_to 10752
  154.5477  135.5684  153.6898 H   0  0  0  0  0  0  0  0  0  0  0  0  # atno 10764 bound_to 10752
  152.9983  135.6267  154.2641 H   0  0  0  0  0  0  0  0  0  0  0  0  # atno 10765 bound_to 10752
  139.9182  134.9634  156.7796 H   0  0  0  0  0  0  0  0  0  0  0  0  # atno 11005 bound_to 11000
  145.5570  141.0408  143.2247 LP  0  0  0  0  0  0  0  0  0  0  0  0  # atno 17320 bound_to 7965
  144.7552  139.7093  143.7257 LP  0  0  0  0  0  0  0  0  0  0  0  0  # atno 17321 bound_to 7965
  139.4942  144.4166  152.0023 LP  0  0  0  0  0  0  0  0  0  0  0  0  # atno 17342 bound_to 10162
  140.3266  144.3365  150.5997 LP  0  0  0  0  0  0  0  0  0  0  0  0  # atno 17343 bound_to 10162
  157.1476  130.6170  149.5573 LP  0  0  0  0  0  0  0  0  0  0  0  0  # atno 17370 bound_to 10713
  155.9838  130.4860  150.6953 LP  0  0  0  0  0  0  0  0  0  0  0  0  # atno 17371 bound_to 10713
  140.6554  133.9693  155.7777 LP  0  0  0  0  0  0  0  0  0  0  0  0  # atno 17394 bound_to 11000
  141.0679  134.0249  157.3567 LP  0  0  0  0  0  0  0  0  0  0  0  0  # atno 17395 bound_to 11000

$$$$
