AV-unprocessed.smi:2027|AV-procd|sdf|8213|dock1
  -GOLD-   2272010473D 1   1.00000     0.00000
 Structure written by MMmdl.
 50 52  0  0  0  0  0  0  0  0  2 V2000
  152.6410  143.4455  161.6204 C   0  0  0  0  0  0  0  0  0  0  0  0
  152.1352  142.9410  160.2802 C   0  0  0  0  0  0  0  0  0  0  0  0
  152.6796  141.7526  159.7439 C   0  0  0  0  0  0  0  0  0  0  0  0
  152.2358  141.2486  158.5020 C   0  0  0  0  0  0  0  0  0  0  0  0
  152.6252  140.1218  157.7982 N   0  0  0  0  0  0  0  0  0  0  0  0
  151.8494  140.1965  156.7213 C   0  0  0  0  0  0  0  0  0  0  0  0
  151.0049  141.2426  156.6406 N   0  0  0  0  0  0  0  0  0  0  0  0
  150.0735  141.5309  155.5643 C   0  0  0  0  0  0  0  0  0  0  0  0
  149.4641  140.2540  154.9550 C   0  0  2  0  0  0  0  0  0  0  0  0
  150.1569  139.9233  153.7665 O   0  0  0  0  0  0  0  0  0  0  0  0
  147.9717  140.4395  154.6159 C   0  0  0  0  0  0  0  0  0  0  0  0
  147.4210  139.2911  153.8516 N   0  3  2  0  0  0  0  0  0  0  0  0
  147.1761  139.6354  152.4309 C   0  0  0  0  0  0  0  0  0  0  0  0
  146.2377  138.6713  154.5028 C   0  0  0  0  0  0  0  0  0  0  0  0
  145.7449  137.4813  153.7252 C   0  0  0  0  0  0  0  0  0  0  0  0
  145.8363  136.1041  154.0776 C   0  0  0  0  0  0  0  0  0  0  0  0
  145.2999  135.3047  153.1706 N   0  0  0  0  0  0  0  0  0  0  0  0
  144.8555  136.1380  152.2078 N   0  0  0  0  0  0  0  0  0  0  0  0
  144.2048  135.5920  151.0360 C   0  0  0  0  0  0  0  0  0  0  0  0
  145.1119  137.4570  152.5141 C   0  0  0  0  0  0  0  0  0  0  0  0
  151.2235  141.9714  157.8052 C   0  0  0  0  0  0  0  0  0  0  0  0
  150.6745  143.1557  158.3281 C   0  0  0  0  0  0  0  0  0  0  0  0
  151.1298  143.6455  159.5703 C   0  0  0  0  0  0  0  0  0  0  0  0
  150.5306  144.9250  160.1267 C   0  0  0  0  0  0  0  0  0  0  0  0
  153.4315  142.8060  162.0138 H   0  0  0  0  0  0  0  0  0  0  0  0
  151.8316  143.4642  162.3505 H   0  0  0  0  0  0  0  0  0  0  0  0
  153.0447  144.4535  161.5236 H   0  0  0  0  0  0  0  0  0  0  0  0
  153.4456  141.2157  160.2840 H   0  0  0  0  0  0  0  0  0  0  0  0
  151.8997  139.4492  155.9427 H   0  0  0  0  0  0  0  0  0  0  0  0
  149.2844  142.1710  155.9613 H   0  0  0  0  0  0  0  0  0  0  0  0
  150.5901  142.1135  154.8003 H   0  0  0  0  0  0  0  0  0  0  0  0
  149.5971  139.4352  155.6619 H   0  0  0  0  0  0  0  0  0  0  0  0
  149.6068  140.1375  153.0274 H   0  0  0  0  0  0  0  0  0  0  0  0
  147.3831  140.5810  155.5238 H   0  0  0  0  0  0  0  0  0  0  0  0
  147.8625  141.3601  154.0400 H   0  0  0  0  0  0  0  0  0  0  0  0
  146.4058  140.4026  152.3414 H   0  0  0  0  0  0  0  0  0  0  0  0
  146.8577  138.7634  151.8598 H   0  0  0  0  0  0  0  0  0  0  0  0
  148.0867  140.0102  151.9624 H   0  0  0  0  0  0  0  0  0  0  0  0
  146.4912  138.3599  155.5155 H   0  0  0  0  0  0  0  0  0  0  0  0
  145.4559  139.4234  154.6179 H   0  0  0  0  0  0  0  0  0  0  0  0
  146.2711  135.6651  154.9635 H   0  0  0  0  0  0  0  0  0  0  0  0
  143.8498  136.3990  150.3949 H   0  0  0  0  0  0  0  0  0  0  0  0
  143.3548  134.9786  151.3361 H   0  0  0  0  0  0  0  0  0  0  0  0
  144.9101  134.9785  150.4749 H   0  0  0  0  0  0  0  0  0  0  0  0
  144.8248  138.2613  151.8526 H   0  0  0  0  0  0  0  0  0  0  0  0
  149.9101  143.6836  157.7775 H   0  0  0  0  0  0  0  0  0  0  0  0
  149.7547  145.3202  159.4702 H   0  0  0  0  0  0  0  0  0  0  0  0
  151.2991  145.6907  160.2349 H   0  0  0  0  0  0  0  0  0  0  0  0
  150.0812  144.7443  161.1034 H   0  0  0  0  0  0  0  0  0  0  0  0
  148.1520  138.5936  153.8485 H   0  0  0  0  0  0  0  0  0  0  0  0
  1  2  1  0  0  0  0
  1 25  1  0  0  0  0
  1 26  1  0  0  0  0
  1 27  1  0  0  0  0
  2 23  1  0  0  0  0
  2  3  2  0  0  0  0
  3  4  1  0  0  0  0
  3 28  1  0  0  0  0
  4 21  2  0  0  0  0
  4  5  1  0  0  0  0
  5  6  2  0  0  0  0
  6  7  1  0  0  0  0
  6 29  1  0  0  0  0
  7  8  1  0  0  0  0
  7 21  1  0  0  0  0
  8  9  1  0  0  0  0
  8 30  1  0  0  0  0
  8 31  1  0  0  0  0
  9 10  1  0  0  0  0
  9 11  1  0  0  0  0
  9 32  1  0  0  0  0
 10 33  1  0  0  0  0
 11 12  1  0  0  0  0
 11 34  1  0  0  0  0
 11 35  1  0  0  0  0
 12 13  1  0  0  0  0
 12 14  1  0  0  0  0
 12 50  1  0  0  0  0
 13 36  1  0  0  0  0
 13 37  1  0  0  0  0
 13 38  1  0  0  0  0
 14 15  1  0  0  0  0
 14 39  1  0  0  0  0
 14 40  1  0  0  0  0
 15 20  2  0  0  0  0
 15 16  1  0  0  0  0
 16 17  2  0  0  0  0
 16 41  1  0  0  0  0
 17 18  1  0  0  0  0
 18 19  1  0  0  0  0
 18 20  1  0  0  0  0
 19 42  1  0  0  0  0
 19 43  1  0  0  0  0
 19 44  1  0  0  0  0
 20 45  1  0  0  0  0
 21 22  1  0  0  0  0
 22 23  2  0  0  0  0
 22 46  1  0  0  0  0
 23 24  1  0  0  0  0
 24 47  1  0  0  0  0
 24 48  1  0  0  0  0
 24 49  1  0  0  0  0
M  CHG  1  12   1
M  END
> <s_m_source_file>
AV-unprocessed.smi

> <i_m_source_file_index>
2027

> <i_lp_mmshare_version>
43012

> <i_f3d_flags>
0

> <s_epik_input>
W0NIM11jKFtjSF0xKWMoW0NIM10pW2NIXWMoYzEyKW4oW2NIXW4yKVtDSDJdW0NASF0oW09IXSlbQ0gyXU4oW0NIM10pW0NIMl1jM1tjSF1ubihbQ0gzXSlbY0hdMw==

> <s_epik_cmdline>
J2VwaWtfcHl0aG9uJywgJy1waCcsICc3LjAnLCAnLXRuJywgJzgnLCAnLW1hJywgJzIwMCcsICctbWV0YWxfYmluZGluZycsICctaW1hZScsICc8aW5maWxlLm1hZT4nLCAnLW9tYWUnLCAnPG91dGZpbGUubWFlPic=

> <r_lp_tautomer_probability>
1

> <r_epik_Ionization_Penalty>
0.646578

> <r_epik_Ionization_Penalty_Charging>
0.559419

> <r_epik_Ionization_Penalty_Neutral>
0.087159

> <r_epik_State_Penalty>
0.661677

> <r_epik_Charging_Adjusted_Penalty>
1.2211

> <i_epik_Tot_Q>
1

> <i_epik_Tot_abs_Q>
1

> <r_epik_Metal_State_Penalty>
0.649174

> <b_epik_Metal_Only>
0

> <s_lp_Force_Field>
OPLS_2005

> <r_lp_Energy>
10.3354

> <b_lp_Chiralities_Consistent>
1

> <s_lp_Variant>
AV-unprocessed.smi:2027-5

> <Gold.Version>
5.8.1

> <Gold.Id.Protein>
6NUR|6NUR_protein|mol2

> <Gold.PLP.Fitness>
53.7070

> <Gold.PLP.PLP>
-42.9464

> <Gold.PLP.part.hbond>
-3.0000

> <Gold.PLP.part.metal>
0.0000

> <Gold.PLP.part.buried>
-3.5354

> <Gold.PLP.part.nonpolar>
-36.3202

> <Gold.PLP.part.repulsive>
0.0659

> <Gold.PLP.ligand.clash>
0.0000

> <Gold.PLP.ligand.torsion>
1.7562

> <Gold.PLP.Chemscore.Hbond>
2.6320

> <Gold.PLP.Chemscore.CHOScore>
2.0000

> <Gold.PLP.Chemscore.Metal>
0.0000

> <Gold.Chemscore.Hbonds>
donor molecule, donor type, donor heavy atom, donor atom, acceptor molecule, acceptor atom, score
      L1  H    10    33       P1  7957  0.80
      P1  H  7989  7998       L1    10  0.86
      P1  H  7997  8010       L1     5  0.89
      L1  C    20    45       P1 10171  1.00
      L1  C    20    45       P1 10175  0.95

> <Gold.PLP.Chemscore.Internal.Correction>
0.3770

> <Gold.Rescore>
     Score         DG    S(hbond)    S(metal)    S(lipo)     H(rot)  DE(clash)    DE(int)     intcor
     16.96     -19.30       2.04        0.00     114.67       2.50       0.56       1.78       ----

> <Gold.Chemscore.Fitness>
16.9610

> <Gold.Chemscore.DG>
-19.3028

> <Gold.Chemscore.ZeroCoef>
-5.4800

> <Gold.Chemscore.Hbond>
2.0415

> <Gold.Chemscore.Metal>
0.0000

> <Gold.Chemscore.Lipo>
114.6696

> <Gold.Chemscore.Internal_Hbond>
0.0000

> <Gold.Chemscore.DEClash>
0.5628

> <Gold.Chemscore.DEInternal>
1.7790

> <Gold.Chemscore.Rot>
2.5047

> <Gold.Chemscore.Internal.Correction>
   9.000000E+99

> <Gold.Chemscore.Hbonds>
donor molecule, donor type, donor heavy atom, donor atom, acceptor molecule, acceptor atom, score
      L1  H    10    33       P1  7957  0.80
      P1  H  7989  7998       L1    10  0.31
      P1  H  7997  8010       L1     5  0.24

> <Gold.Chemscore.Hbond.Weighted>
-6.8185

> <Gold.Chemscore.Metal.Weighted>
-0.0000

> <Gold.Chemscore.Lipo.Weighted>
-13.4163

> <Gold.Chemscore.Internal_Hbond.Weighted>
0.0000

> <Gold.Chemscore.DEClash.Weighted>
0.5628

> <Gold.Chemscore.DEInternal.Weighted>
1.7790

> <Gold.Chemscore.Rot.Weighted>
6.4120

> <Gold.Chemscore.Internal.Correction.Weighted>
   9.000000E+99

> <Gold.Protein.RotatedTorsions>
[ 6907 6896 6895 6894 ] final  -83.64 input  -60.11 | X-H torsion
[ 7974 7965 7964 7962 ] final   13.82 input  175.53 | X-H torsion
[ 8008 7997 7996 7995 ] final   41.82 input   59.86 | X-H torsion
[ 10167 10162 10161 10158 ] final  152.49 input  -65.29 | X-H torsion
[ 10718 10713 10712 10709 ] final  129.15 input   66.30 | X-H torsion
[ 10763 10752 10751 10750 ] final   73.16 input  -60.55 | X-H torsion
[ 11005 11000 10999 10996 ] final   59.10 input  -57.11 | X-H torsion

> <Gold.Protein.ActiveResidues>
 VAL166  LYS551  ARG553  GLY616  TRP617  ASP618  TYR619  PRO620  LYS621  CYS622 
 ASP623  PHE694  ASN695  SER759  ASP760  ASP761  ALA762  ILE779  LEU786  VAL792 
 PHE793  MET794  SER795  GLU796  ALA797  LYS798  CYS799  TRP800  GLU811  SER814 

> <Gold.Protein.RotatedAtoms>
  150.6883  134.3481  159.4896 H   0  0  0  0  0  0  0  0  0  0  0  0  # atno 6907 bound_to 6896
  152.1325  134.9121  160.0567 H   0  0  0  0  0  0  0  0  0  0  0  0  # atno 6908 bound_to 6896
  152.0285  133.3893  159.4324 H   0  0  0  0  0  0  0  0  0  0  0  0  # atno 6909 bound_to 6896
  146.2320  139.9132  142.8521 H   0  0  0  0  0  0  0  0  0  0  0  0  # atno 7974 bound_to 7965
  155.2760  140.3369  155.4261 H   0  0  0  0  0  0  0  0  0  0  0  0  # atno 8008 bound_to 7997
  156.2111  140.1770  156.7733 H   0  0  0  0  0  0  0  0  0  0  0  0  # atno 8009 bound_to 7997
  154.5688  140.0674  156.8917 H   0  0  0  0  0  0  0  0  0  0  0  0  # atno 8010 bound_to 7997
  139.4832  144.5353  151.7655 H   0  0  0  0  0  0  0  0  0  0  0  0  # atno 10167 bound_to 10162
  157.5180  131.1098  150.9196 H   0  0  0  0  0  0  0  0  0  0  0  0  # atno 10718 bound_to 10713
  153.0504  135.5073  154.7852 H   0  0  0  0  0  0  0  0  0  0  0  0  # atno 10763 bound_to 10752
  154.6719  135.2954  154.9733 H   0  0  0  0  0  0  0  0  0  0  0  0  # atno 10764 bound_to 10752
  154.0549  135.6699  153.4857 H   0  0  0  0  0  0  0  0  0  0  0  0  # atno 10765 bound_to 10752
  140.0328  134.5986  155.9484 H   0  0  0  0  0  0  0  0  0  0  0  0  # atno 11005 bound_to 11000
  145.2209  140.9935  143.4046 LP  0  0  0  0  0  0  0  0  0  0  0  0  # atno 17320 bound_to 7965
  144.9611  139.3979  143.6355 LP  0  0  0  0  0  0  0  0  0  0  0  0  # atno 17321 bound_to 7965
  140.4885  144.1345  150.5945 LP  0  0  0  0  0  0  0  0  0  0  0  0  # atno 17342 bound_to 10162
  140.4198  143.2617  151.9730 LP  0  0  0  0  0  0  0  0  0  0  0  0  # atno 17343 bound_to 10162
  156.9815  130.5529  149.5296 LP  0  0  0  0  0  0  0  0  0  0  0  0  # atno 17370 bound_to 10713
  156.0333  130.5423  150.8591 LP  0  0  0  0  0  0  0  0  0  0  0  0  # atno 17371 bound_to 10713
  141.1841  133.6552  156.5142 LP  0  0  0  0  0  0  0  0  0  0  0  0  # atno 17394 bound_to 11000
  140.4197  134.7199  157.4883 LP  0  0  0  0  0  0  0  0  0  0  0  0  # atno 17395 bound_to 11000

$$$$
