AV-unprocessed.smi:48|AV-procd|sdf|447|dock1
  -GOLD-   2262016313D 1   1.00000     0.00000
 Structure written by MMmdl.
 30 32  0  0  0  0  0  0  0  0  1 V2000
  151.6493  142.4824  158.0924 O   0  0  0  0  0  0  0  0  0  0  0  0
  150.3595  142.0751  157.6885 C   0  0  0  0  0  0  0  0  0  0  0  0
  150.3685  141.6937  156.2005 C   0  0  1  0  0  0  0  0  0  0  0  0
  151.1911  140.5504  156.0019 O   0  0  0  0  0  0  0  0  0  0  0  0
  150.8185  139.9092  154.8218 C   0  0  1  0  0  0  0  0  0  0  0  0
  150.8824  138.4361  155.0618 N   0  0  0  0  0  0  0  0  0  0  0  0
  151.3036  137.4835  154.2050 C   0  0  0  0  0  0  0  0  0  0  0  0
  151.2829  136.2213  154.6314 N   0  0  0  0  0  0  0  0  0  0  0  0
  150.7994  136.3733  155.9205 C   0  0  0  0  0  0  0  0  0  0  0  0
  150.5240  135.4489  156.9573 C   0  0  0  0  0  0  0  0  0  0  0  0
  150.7844  133.7581  156.7323 Cl  0  0  0  0  0  0  0  0  0  0  0  0
  150.0493  135.9223  158.1342 N   0  0  0  0  0  0  0  0  0  0  0  0
  149.8566  137.2387  158.2815 C   0  0  0  0  0  0  0  0  0  0  0  0
  150.0671  138.2227  157.3998 N   0  0  0  0  0  0  0  0  0  0  0  0
  150.5454  137.7435  156.2136 C   0  0  0  0  0  0  0  0  0  0  0  0
  149.3875  140.3548  154.4736 C   0  0  2  0  0  0  0  0  0  0  0  0
  149.3721  141.0972  153.2678 O   0  0  0  0  0  0  0  0  0  0  0  0
  149.0127  141.2081  155.6852 C   0  0  2  0  0  0  0  0  0  0  0  0
  148.1271  142.2693  155.3791 O   0  0  0  0  0  0  0  0  0  0  0  0
  150.7291  142.5151  155.5779 H   0  0  0  0  0  0  0  0  0  0  0  0
  151.5451  140.1006  154.0303 H   0  0  0  0  0  0  0  0  0  0  0  0
  148.7197  139.4988  154.3659 H   0  0  0  0  0  0  0  0  0  0  0  0
  148.5423  140.5746  156.4374 H   0  0  0  0  0  0  0  0  0  0  0  0
  151.9107  141.9592  158.8348 H   0  0  0  0  0  0  0  0  0  0  0  0
  150.0088  141.2491  158.3080 H   0  0  0  0  0  0  0  0  0  0  0  0
  149.6846  142.9150  157.8562 H   0  0  0  0  0  0  0  0  0  0  0  0
  151.6431  137.7294  153.2094 H   0  0  0  0  0  0  0  0  0  0  0  0
  149.4771  137.5496  159.2437 H   0  0  0  0  0  0  0  0  0  0  0  0
  149.1606  140.5127  152.5563 H   0  0  0  0  0  0  0  0  0  0  0  0
  148.5094  143.0765  155.6872 H   0  0  0  0  0  0  0  0  0  0  0  0
  1  2  1  0  0  0  0
  1 24  1  0  0  0  0
  2  3  1  0  0  0  0
  2 25  1  0  0  0  0
  2 26  1  0  0  0  0
  3 20  1  0  0  0  0
  3 18  1  0  0  0  0
  3  4  1  0  0  0  0
  4  5  1  0  0  0  0
  5 21  1  0  0  0  0
  5  6  1  0  0  0  0
  5 16  1  0  0  0  0
  6 15  1  0  0  0  0
  6  7  1  0  0  0  0
  7  8  2  0  0  0  0
  7 27  1  0  0  0  0
  8  9  1  0  0  0  0
  9 15  2  0  0  0  0
  9 10  1  0  0  0  0
 10 11  1  0  0  0  0
 10 12  2  0  0  0  0
 12 13  1  0  0  0  0
 13 14  2  0  0  0  0
 13 28  1  0  0  0  0
 14 15  1  0  0  0  0
 16 22  1  0  0  0  0
 16 17  1  0  0  0  0
 16 18  1  0  0  0  0
 17 29  1  0  0  0  0
 18 23  1  0  0  0  0
 18 19  1  0  0  0  0
 19 30  1  0  0  0  0
M  END
> <s_m_source_file>
AV-unprocessed.smi

> <i_m_source_file_index>
48

> <i_lp_mmshare_version>
43012

> <i_f3d_flags>
0

> <s_epik_input>
W09IXVtDSDJdW0NASF0xT1tDQEhdKFtDQEhdKFtPSF0pW0NAQEhdMVtPSF0pbihbY0hdbjIpYyhjMjMpbltjSF1uYzNDbA==

> <s_epik_cmdline>
J2VwaWtfcHl0aG9uJywgJy1waCcsICc3LjAnLCAnLXRuJywgJzgnLCAnLW1hJywgJzIwMCcsICctbWV0YWxfYmluZGluZycsICctaW1hZScsICc8aW5maWxlLm1hZT4nLCAnLW9tYWUnLCAnPG91dGZpbGUubWFlPic=

> <r_lp_tautomer_probability>
1

> <r_epik_Ionization_Penalty>
3.45505e-06

> <r_epik_Ionization_Penalty_Charging>
0

> <r_epik_Ionization_Penalty_Neutral>
3.45505e-06

> <r_epik_State_Penalty>
-0

> <r_epik_Charging_Adjusted_Penalty>
0

> <i_epik_Tot_Q>
0

> <i_epik_Tot_abs_Q>
0

> <r_epik_Metal_State_Penalty>
-0

> <b_epik_Metal_Only>
0

> <s_epik_Chemistry_Notes>
This compound contains an acetal/aminal-like group ( X-CH(R)-Y where X, Y are N, S, or O) that may be acid/base labile, releasing an aldehyde.

> <s_lp_Force_Field>
OPLS_2005

> <r_lp_Energy>
36.5243

> <b_lp_Chiralities_Consistent>
1

> <s_lp_Variant>
AV-unprocessed.smi:48-1

> <Gold.Version>
5.8.1

> <Gold.Id.Protein>
6NUR|6NUR_protein|mol2

> <Gold.PLP.Fitness>
42.2150

> <Gold.PLP.PLP>
-27.3342

> <Gold.PLP.part.hbond>
-5.4423

> <Gold.PLP.part.metal>
0.0000

> <Gold.PLP.part.buried>
-2.0986

> <Gold.PLP.part.nonpolar>
-21.6173

> <Gold.PLP.part.repulsive>
0.2255

> <Gold.PLP.ligand.clash>
0.0000

> <Gold.PLP.ligand.torsion>
0.6105

> <Gold.PLP.Chemscore.Hbond>
4.6682

> <Gold.PLP.Chemscore.CHOScore>
0.6938

> <Gold.PLP.Chemscore.Metal>
0.0000

> <Gold.Chemscore.Hbonds>
donor molecule, donor type, donor heavy atom, donor atom, acceptor molecule, acceptor atom, score
      L1  H    17    29       P1  7957  0.86
      L1  H    19    30       P1  8028  1.00
      P1  H  6896  6909       L1    12  0.93
      P1  H  7989  7998       L1    17  0.01
      P1  H  8011  8017       L1    17  0.85
      P1  H 10752 10764       L1     8  1.00
      L1  C     7    27       P1  7949  0.70

> <Gold.PLP.Chemscore.Internal.Correction>
0.0159

> <Gold.Rescore>
     Score         DG    S(hbond)    S(metal)    S(lipo)     H(rot)  DE(clash)    DE(int)     intcor
      8.88     -12.04       3.53        0.00      38.47       3.80       1.40       1.77       ----

> <Gold.Chemscore.Fitness>
8.8750

> <Gold.Chemscore.DG>
-12.0413

> <Gold.Chemscore.ZeroCoef>
-5.4800

> <Gold.Chemscore.Hbond>
3.5306

> <Gold.Chemscore.Metal>
0.0000

> <Gold.Chemscore.Lipo>
38.4739

> <Gold.Chemscore.Internal_Hbond>
0.0000

> <Gold.Chemscore.DEClash>
1.4006

> <Gold.Chemscore.DEInternal>
1.7657

> <Gold.Chemscore.Rot>
3.8017

> <Gold.Chemscore.Internal.Correction>
   9.000000E+99

> <Gold.Chemscore.Hbonds>
donor molecule, donor type, donor heavy atom, donor atom, acceptor molecule, acceptor atom, score
      L1  H    17    29       P1  7957  0.79
      L1  H    19    30       P1  8028  0.98
      P1  H  6896  6909       L1    12  0.52
      P1  H  8011  8017       L1    17  0.15
      P1  H 10752 10764       L1     8  0.49

> <Gold.Chemscore.Hbond.Weighted>
-11.7923

> <Gold.Chemscore.Metal.Weighted>
-0.0000

> <Gold.Chemscore.Lipo.Weighted>
-4.5014

> <Gold.Chemscore.Internal_Hbond.Weighted>
0.0000

> <Gold.Chemscore.DEClash.Weighted>
1.4006

> <Gold.Chemscore.DEInternal.Weighted>
1.7657

> <Gold.Chemscore.Rot.Weighted>
9.7324

> <Gold.Chemscore.Internal.Correction.Weighted>
   9.000000E+99

> <Gold.Protein.RotatedTorsions>
[ 6907 6896 6895 6894 ] final   59.16 input  -60.11 | X-H torsion
[ 7974 7965 7964 7962 ] final -148.11 input  175.53 | X-H torsion
[ 8008 7997 7996 7995 ] final   42.57 input   59.86 | X-H torsion
[ 10167 10162 10161 10158 ] final  163.63 input  -65.29 | X-H torsion
[ 10718 10713 10712 10709 ] final  120.03 input   66.30 | X-H torsion
[ 10763 10752 10751 10750 ] final  -72.66 input  -60.55 | X-H torsion
[ 11005 11000 10999 10996 ] final -100.43 input  -57.11 | X-H torsion

> <Gold.Protein.ActiveResidues>
 VAL166  LYS551  ARG553  GLY616  TRP617  ASP618  TYR619  PRO620  LYS621  CYS622 
 ASP623  PHE694  ASN695  SER759  ASP760  ASP761  ALA762  ILE779  LEU786  VAL792 
 PHE793  MET794  SER795  GLU796  ALA797  LYS798  CYS799  TRP800  GLU811  SER814 

> <Gold.Protein.RotatedAtoms>
  152.3890  134.6471  160.0114 H   0  0  0  0  0  0  0  0  0  0  0  0  # atno 6907 bound_to 6896
  151.6711  133.3308  159.3205 H   0  0  0  0  0  0  0  0  0  0  0  0  # atno 6908 bound_to 6896
  150.7810  134.6798  159.6482 H   0  0  0  0  0  0  0  0  0  0  0  0  # atno 6909 bound_to 6896
  144.8050  140.5239  143.5681 H   0  0  0  0  0  0  0  0  0  0  0  0  # atno 7974 bound_to 7965
  155.2883  140.3377  155.4254 H   0  0  0  0  0  0  0  0  0  0  0  0  # atno 8008 bound_to 7997
  156.2058  140.1750  156.7844 H   0  0  0  0  0  0  0  0  0  0  0  0  # atno 8009 bound_to 7997
  154.5618  140.0686  156.8815 H   0  0  0  0  0  0  0  0  0  0  0  0  # atno 8010 bound_to 7997
  139.4876  144.4318  151.9061 H   0  0  0  0  0  0  0  0  0  0  0  0  # atno 10167 bound_to 10162
  157.5920  131.1063  150.7978 H   0  0  0  0  0  0  0  0  0  0  0  0  # atno 10718 bound_to 10713
  154.4488  135.5922  153.6177 H   0  0  0  0  0  0  0  0  0  0  0  0  # atno 10763 bound_to 10752
  152.9811  135.6016  154.3631 H   0  0  0  0  0  0  0  0  0  0  0  0  # atno 10764 bound_to 10752
  154.3490  135.2841  155.2361 H   0  0  0  0  0  0  0  0  0  0  0  0  # atno 10765 bound_to 10752
  141.1271  133.8398  157.1101 H   0  0  0  0  0  0  0  0  0  0  0  0  # atno 11005 bound_to 11000
  145.5460  139.1476  143.3420 LP  0  0  0  0  0  0  0  0  0  0  0  0  # atno 17320 bound_to 7965
  146.2339  140.5599  142.8963 LP  0  0  0  0  0  0  0  0  0  0  0  0  # atno 17321 bound_to 7965
  140.3766  144.2789  150.5913 LP  0  0  0  0  0  0  0  0  0  0  0  0  # atno 17342 bound_to 10162
  140.5271  143.2252  151.8297 LP  0  0  0  0  0  0  0  0  0  0  0  0  # atno 17343 bound_to 10162
  156.8398  130.5044  149.5322 LP  0  0  0  0  0  0  0  0  0  0  0  0  # atno 17370 bound_to 10713
  156.0976  130.5944  150.9840 LP  0  0  0  0  0  0  0  0  0  0  0  0  # atno 17371 bound_to 10713
  140.0280  134.9915  157.0724 LP  0  0  0  0  0  0  0  0  0  0  0  0  # atno 17394 bound_to 11000
  140.4331  134.1759  155.7169 LP  0  0  0  0  0  0  0  0  0  0  0  0  # atno 17395 bound_to 11000

$$$$
