AV-unprocessed.smi:3303|AV-procd|sdf|12670|dock9
  -GOLD-   2272019 03D 1   1.00000     0.00000
 Structure written by MMmdl.
 45 46  0  0  0  0  0  0  0  0  3 V2000
  151.0405  139.5996  154.8713 C   0  0  0  0  0  0  0  0  0  0  0  0
  149.6879  140.3044  154.6655 C   0  0  1  0  0  0  0  0  0  0  0  0
  148.5828  139.2543  154.4017 C   0  0  0  0  0  0  0  0  0  0  0  0
  147.2426  139.8683  154.2168 N   0  3  2  0  0  0  0  0  0  0  0  0
  147.0834  140.5218  152.8925 C   0  0  0  0  0  0  0  0  0  0  0  0
  146.8552  140.6977  155.3940 C   0  0  2  0  0  0  0  0  0  0  0  0
  145.4272  141.2604  155.2881 C   0  0  0  0  0  0  0  0  0  0  0  0
  147.9021  141.7954  155.6727 C   0  0  0  0  0  0  0  0  0  0  0  0
  149.3097  141.2019  155.8679 C   0  0  2  0  0  0  0  0  0  0  0  0
  150.2892  142.2996  156.0393 N   0  3  0  0  0  0  0  0  0  0  0  0
  151.2959  142.0732  157.0958 C   0  0  0  0  0  0  0  0  0  0  0  0
  151.7909  143.4040  157.6779 C   0  0  0  0  0  0  0  0  0  0  0  0
  152.2015  143.2766  159.1322 C   0  0  0  0  0  0  0  0  0  0  0  0
  153.1106  142.2776  159.5405 C   0  0  0  0  0  0  0  0  0  0  0  0
  153.4535  142.2002  160.9044 C   0  0  0  0  0  0  0  0  0  0  0  0
  152.8758  143.1190  161.8017 C   0  0  0  0  0  0  0  0  0  0  0  0
  151.9769  144.0780  161.2938 C   0  0  0  0  0  0  0  0  0  0  0  0
  151.6403  144.1598  159.9880 N   0  0  0  0  0  0  0  0  0  0  0  0
  151.0283  138.9689  155.7609 H   0  0  0  0  0  0  0  0  0  0  0  0
  151.8553  140.3152  154.9821 H   0  0  0  0  0  0  0  0  0  0  0  0
  151.2842  138.9645  154.0191 H   0  0  0  0  0  0  0  0  0  0  0  0
  149.7803  140.9344  153.7795 H   0  0  0  0  0  0  0  0  0  0  0  0
  148.8308  138.6478  153.5295 H   0  0  0  0  0  0  0  0  0  0  0  0
  148.5269  138.5614  155.2429 H   0  0  0  0  0  0  0  0  0  0  0  0
  147.6754  141.4328  152.8096 H   0  0  0  0  0  0  0  0  0  0  0  0
  146.0414  140.7743  152.6982 H   0  0  0  0  0  0  0  0  0  0  0  0
  147.3955  139.8466  152.0950 H   0  0  0  0  0  0  0  0  0  0  0  0
  146.8538  140.0223  156.2514 H   0  0  0  0  0  0  0  0  0  0  0  0
  145.1242  141.7222  156.2282 H   0  0  0  0  0  0  0  0  0  0  0  0
  144.7073  140.4720  155.0657 H   0  0  0  0  0  0  0  0  0  0  0  0
  145.3437  142.0241  154.5143 H   0  0  0  0  0  0  0  0  0  0  0  0
  147.9103  142.5208  154.8580 H   0  0  0  0  0  0  0  0  0  0  0  0
  147.6172  142.3513  156.5670 H   0  0  0  0  0  0  0  0  0  0  0  0
  149.2921  140.5840  156.7680 H   0  0  0  0  0  0  0  0  0  0  0  0
  150.7735  142.4337  155.1630 H   0  0  0  0  0  0  0  0  0  0  0  0
  150.8554  141.4578  157.8816 H   0  0  0  0  0  0  0  0  0  0  0  0
  152.1367  141.5162  156.6798 H   0  0  0  0  0  0  0  0  0  0  0  0
  152.6382  143.7729  157.0984 H   0  0  0  0  0  0  0  0  0  0  0  0
  151.0104  144.1623  157.5975 H   0  0  0  0  0  0  0  0  0  0  0  0
  153.5372  141.5856  158.8291 H   0  0  0  0  0  0  0  0  0  0  0  0
  154.1456  141.4495  161.2562 H   0  0  0  0  0  0  0  0  0  0  0  0
  153.1159  143.0897  162.8543 H   0  0  0  0  0  0  0  0  0  0  0  0
  151.5152  144.7974  161.9538 H   0  0  0  0  0  0  0  0  0  0  0  0
  149.7866  143.1482  156.2589 H   0  0  0  0  0  0  0  0  0  0  0  0
  146.5923  139.0950  154.2010 H   0  0  0  0  0  0  0  0  0  0  0  0
  1  2  1  0  0  0  0
  1 19  1  0  0  0  0
  1 20  1  0  0  0  0
  1 21  1  0  0  0  0
  2  9  1  0  0  0  0
  2  3  1  0  0  0  0
  2 22  1  0  0  0  0
  3  4  1  0  0  0  0
  3 23  1  0  0  0  0
  3 24  1  0  0  0  0
  4  5  1  0  0  0  0
  4  6  1  0  0  0  0
  4 45  1  0  0  0  0
  5 25  1  0  0  0  0
  5 26  1  0  0  0  0
  5 27  1  0  0  0  0
  6  7  1  0  0  0  0
  6  8  1  0  0  0  0
  6 28  1  0  0  0  0
  7 29  1  0  0  0  0
  7 30  1  0  0  0  0
  7 31  1  0  0  0  0
  8  9  1  0  0  0  0
  8 32  1  0  0  0  0
  8 33  1  0  0  0  0
  9 10  1  0  0  0  0
  9 34  1  0  0  0  0
 10 11  1  0  0  0  0
 10 35  1  0  0  0  0
 10 44  1  0  0  0  0
 11 12  1  0  0  0  0
 11 36  1  0  0  0  0
 11 37  1  0  0  0  0
 12 13  1  0  0  0  0
 12 38  1  0  0  0  0
 12 39  1  0  0  0  0
 13 18  1  0  0  0  0
 13 14  2  0  0  0  0
 14 15  1  0  0  0  0
 14 40  1  0  0  0  0
 15 16  2  0  0  0  0
 15 41  1  0  0  0  0
 16 17  1  0  0  0  0
 16 42  1  0  0  0  0
 17 18  2  0  0  0  0
 17 43  1  0  0  0  0
M  CHG  1   4   1
M  CHG  1  10   1
M  END
> <s_m_source_file>
AV-unprocessed.smi

> <i_m_source_file_index>
3303

> <i_lp_mmshare_version>
43012

> <i_f3d_flags>
0

> <s_epik_input>
W0NIM11bQ0BASF0xW0NIMl1OKFtDSDNdKVtDQEBIXShbQ0gzXSlbQ0gyXVtDQEhdMVtOSF1bQ0gyXVtDSDJdYzJbY0hdW2NIXVtjSF1bY0hdbjI=

> <s_epik_cmdline>
J2VwaWtfcHl0aG9uJywgJy1waCcsICc3LjAnLCAnLXRuJywgJzgnLCAnLW1hJywgJzIwMCcsICctbWV0YWxfYmluZGluZycsICctaW1hZScsICc8aW5maWxlLm1hZT4nLCAnLW9tYWUnLCAnPG91dGZpbGUubWFlPic=

> <r_epik_Ionization_Penalty>
0.0769462

> <r_epik_Ionization_Penalty_Charging>
0.0759813

> <r_epik_Ionization_Penalty_Neutral>
0.000964829

> <r_epik_State_Penalty>
0.0654373

> <r_epik_Charging_Adjusted_Penalty>
0.141419

> <i_epik_Tot_Q>
2

> <i_epik_Tot_abs_Q>
2

> <r_epik_Metal_State_Penalty>
0.0656439

> <b_epik_Metal_Only>
0

> <s_lp_Force_Field>
OPLS_2005

> <r_lp_Energy>
31.8581

> <b_lp_Chiralities_Consistent>
1

> <s_lp_Variant>
AV-unprocessed.smi:3303-14

> <Gold.Version>
5.8.1

> <Gold.Id.Protein>
6NUR|6NUR_protein|mol2

> <Gold.PLP.Fitness>
42.6174

> <Gold.PLP.PLP>
-38.6547

> <Gold.PLP.part.hbond>
-1.0000

> <Gold.PLP.part.metal>
0.0000

> <Gold.PLP.part.buried>
-1.3296

> <Gold.PLP.part.nonpolar>
-34.7720

> <Gold.PLP.part.repulsive>
0.1764

> <Gold.PLP.ligand.clash>
0.0000

> <Gold.PLP.ligand.torsion>
0.9961

> <Gold.PLP.Chemscore.Hbond>
1.9840

> <Gold.PLP.Chemscore.CHOScore>
0.0000

> <Gold.PLP.Chemscore.Metal>
0.0000

> <Gold.Chemscore.Hbonds>
donor molecule, donor type, donor heavy atom, donor atom, acceptor molecule, acceptor atom, score
      L1  H    10    44       P1  8028  1.98

> <Gold.PLP.Chemscore.Internal.Correction>
0.0029

> <Gold.Rescore>
     Score         DG    S(hbond)    S(metal)    S(lipo)     H(rot)  DE(clash)    DE(int)     intcor
     18.48     -19.54       1.00        0.00     121.75       1.37       0.10       0.96       ----

> <Gold.Chemscore.Fitness>
18.4758

> <Gold.Chemscore.DG>
-19.5361

> <Gold.Chemscore.ZeroCoef>
-5.4800

> <Gold.Chemscore.Hbond>
0.9968

> <Gold.Chemscore.Metal>
0.0000

> <Gold.Chemscore.Lipo>
121.7540

> <Gold.Chemscore.Internal_Hbond>
0.0000

> <Gold.Chemscore.DEClash>
0.1013

> <Gold.Chemscore.DEInternal>
0.9591

> <Gold.Chemscore.Rot>
1.3744

> <Gold.Chemscore.Internal.Correction>
   9.000000E+99

> <Gold.Chemscore.Hbonds>
donor molecule, donor type, donor heavy atom, donor atom, acceptor molecule, acceptor atom, score
      L1  H    10    44       P1  8028  0.93

> <Gold.Chemscore.Hbond.Weighted>
-3.3294

> <Gold.Chemscore.Metal.Weighted>
-0.0000

> <Gold.Chemscore.Lipo.Weighted>
-14.2452

> <Gold.Chemscore.Internal_Hbond.Weighted>
0.0000

> <Gold.Chemscore.DEClash.Weighted>
0.1013

> <Gold.Chemscore.DEInternal.Weighted>
0.9591

> <Gold.Chemscore.Rot.Weighted>
3.5185

> <Gold.Chemscore.Internal.Correction.Weighted>
   9.000000E+99

> <Gold.Protein.RotatedTorsions>
[ 6907 6896 6895 6894 ] final   69.09 input  -60.11 | X-H torsion
[ 7974 7965 7964 7962 ] final  148.73 input  175.53 | X-H torsion
[ 8008 7997 7996 7995 ] final  150.01 input   59.86 | X-H torsion
[ 10167 10162 10161 10158 ] final  112.89 input  -65.29 | X-H torsion
[ 10718 10713 10712 10709 ] final    5.57 input   66.30 | X-H torsion
[ 10763 10752 10751 10750 ] final -169.95 input  -60.55 | X-H torsion
[ 11005 11000 10999 10996 ] final -109.48 input  -57.11 | X-H torsion

> <Gold.Protein.ActiveResidues>
 VAL166  LYS551  ARG553  GLY616  TRP617  ASP618  TYR619  PRO620  LYS621  CYS622 
 ASP623  PHE694  ASN695  SER759  ASP760  ASP761  ALA762  ILE779  LEU786  VAL792 
 PHE793  MET794  SER795  GLU796  ALA797  LYS798  CYS799  TRP800  GLU811  SER814 

> <Gold.Protein.RotatedAtoms>
  152.4664  134.5066  159.9740 H   0  0  0  0  0  0  0  0  0  0  0  0  # atno 6907 bound_to 6896
  151.5103  133.3480  159.2891 H   0  0  0  0  0  0  0  0  0  0  0  0  # atno 6908 bound_to 6896
  150.8650  134.8040  159.7174 H   0  0  0  0  0  0  0  0  0  0  0  0  # atno 6909 bound_to 6896
  144.8491  139.6191  143.5982 H   0  0  0  0  0  0  0  0  0  0  0  0  # atno 7974 bound_to 7965
  156.2733  140.2086  156.5949 H   0  0  0  0  0  0  0  0  0  0  0  0  # atno 8008 bound_to 7997
  154.6953  140.0526  157.0427 H   0  0  0  0  0  0  0  0  0  0  0  0  # atno 8009 bound_to 7997
  155.0810  140.3186  155.4604 H   0  0  0  0  0  0  0  0  0  0  0  0  # atno 8010 bound_to 7997
  139.6502  144.7128  151.2064 H   0  0  0  0  0  0  0  0  0  0  0  0  # atno 10167 bound_to 10162
  156.9094  130.5750  149.5647 H   0  0  0  0  0  0  0  0  0  0  0  0  # atno 10718 bound_to 10713
  154.6468  135.2906  155.0036 H   0  0  0  0  0  0  0  0  0  0  0  0  # atno 10763 bound_to 10752
  154.1143  135.6558  153.4895 H   0  0  0  0  0  0  0  0  0  0  0  0  # atno 10764 bound_to 10752
  153.0355  135.5272  154.7359 H   0  0  0  0  0  0  0  0  0  0  0  0  # atno 10765 bound_to 10752
  141.0845  133.9162  157.2215 H   0  0  0  0  0  0  0  0  0  0  0  0  # atno 11005 bound_to 11000
  146.2770  139.6778  142.9256 LP  0  0  0  0  0  0  0  0  0  0  0  0  # atno 17320 bound_to 7965
  145.4536  141.0429  143.2791 LP  0  0  0  0  0  0  0  0  0  0  0  0  # atno 17321 bound_to 7965
  140.7534  143.6163  150.8556 LP  0  0  0  0  0  0  0  0  0  0  0  0  # atno 17342 bound_to 10162
  139.9810  143.5951  152.2942 LP  0  0  0  0  0  0  0  0  0  0  0  0  # atno 17343 bound_to 10162
  156.0543  130.5607  150.9058 LP  0  0  0  0  0  0  0  0  0  0  0  0  # atno 17370 bound_to 10713
  157.5977  131.0942  150.9014 LP  0  0  0  0  0  0  0  0  0  0  0  0  # atno 17371 bound_to 10713
  139.9662  135.0141  156.9393 LP  0  0  0  0  0  0  0  0  0  0  0  0  # atno 17394 bound_to 11000
  140.5393  134.0735  155.7337 LP  0  0  0  0  0  0  0  0  0  0  0  0  # atno 17395 bound_to 11000

$$$$
