AV-unprocessed.smi:1230|AV-procd|sdf|5155|dock8
  -GOLD-   22720 4223D 1   1.00000     0.00000
 Structure written by MMmdl.
 38 39  0  0  0  0  0  0  0  0  2 V2000
  153.6631  140.6076  160.2373 C   0  0  0  0  0  0  0  0  0  0  0  0
  152.6091  141.7262  160.2798 C   0  0  1  0  0  0  0  0  0  0  0  0
  153.1077  142.9094  161.1337 C   0  0  0  0  0  0  0  0  0  0  0  0
  152.0777  144.0475  161.1885 C   0  0  0  0  0  0  0  0  0  0  0  0
  151.7062  144.5209  159.7767 C   0  0  0  0  0  0  0  0  0  0  0  0
  151.1946  143.3525  158.9215 C   0  0  0  0  0  0  0  0  0  0  0  0
  152.2193  142.1994  158.8608 C   0  0  2  0  0  0  0  0  0  0  0  0
  151.6476  141.0921  158.1752 O   0  0  0  0  0  0  0  0  0  0  0  0
  150.9911  141.4258  156.9617 C   0  0  0  0  0  0  0  0  0  0  0  0
  151.7859  140.8194  155.7966 C   0  0  0  0  0  0  0  0  0  0  0  0
  151.4135  139.4181  155.5637 N   0  0  0  0  0  0  0  0  0  0  0  0
  150.0589  139.1385  155.3157 C   0  0  0  0  0  0  0  0  0  0  0  0
  149.6265  137.8832  155.0913 C   0  0  0  0  0  0  0  0  0  0  0  0
  148.2582  137.5724  154.8376 C   0  0  0  0  0  0  0  0  0  0  0  0
  147.1558  137.3045  154.6058 N   0  0  0  0  0  0  0  0  0  0  0  0
  150.5995  136.7937  155.1112 C   0  0  0  0  0  0  0  0  0  0  0  0
  150.2336  135.6377  154.9017 O   0  0  0  0  0  0  0  0  0  0  0  0
  151.9001  137.1213  155.3689 N   0  5  0  0  0  0  0  0  0  0  0  0
  152.3275  138.4024  155.5984 C   0  0  0  0  0  0  0  0  0  0  0  0
  153.5055  138.6703  155.8359 O   0  0  0  0  0  0  0  0  0  0  0  0
  154.5815  140.9465  159.7570 H   0  0  0  0  0  0  0  0  0  0  0  0
  153.3001  139.7400  159.6860 H   0  0  0  0  0  0  0  0  0  0  0  0
  153.9181  140.2710  161.2425 H   0  0  0  0  0  0  0  0  0  0  0  0
  151.7161  141.3219  160.7589 H   0  0  0  0  0  0  0  0  0  0  0  0
  153.3282  142.5706  162.1465 H   0  0  0  0  0  0  0  0  0  0  0  0
  154.0453  143.2893  160.7257 H   0  0  0  0  0  0  0  0  0  0  0  0
  151.1817  143.7072  161.7094 H   0  0  0  0  0  0  0  0  0  0  0  0
  152.4750  144.8813  161.7680 H   0  0  0  0  0  0  0  0  0  0  0  0
  150.9461  145.3005  159.8337 H   0  0  0  0  0  0  0  0  0  0  0  0
  152.5772  144.9709  159.2989 H   0  0  0  0  0  0  0  0  0  0  0  0
  150.2557  142.9843  159.3371 H   0  0  0  0  0  0  0  0  0  0  0  0
  150.9653  143.7165  157.9203 H   0  0  0  0  0  0  0  0  0  0  0  0
  153.1227  142.5370  158.3485 H   0  0  0  0  0  0  0  0  0  0  0  0
  149.9696  141.0456  156.9579 H   0  0  0  0  0  0  0  0  0  0  0  0
  150.9398  142.5104  156.8545 H   0  0  0  0  0  0  0  0  0  0  0  0
  151.6133  141.4074  154.8942 H   0  0  0  0  0  0  0  0  0  0  0  0
  152.8564  140.9042  155.9908 H   0  0  0  0  0  0  0  0  0  0  0  0
  149.4025  139.9964  155.3226 H   0  0  0  0  0  0  0  0  0  0  0  0
  1  2  1  0  0  0  0
  1 21  1  0  0  0  0
  1 22  1  0  0  0  0
  1 23  1  0  0  0  0
  2  7  1  0  0  0  0
  2  3  1  0  0  0  0
  2 24  1  0  0  0  0
  3  4  1  0  0  0  0
  3 25  1  0  0  0  0
  3 26  1  0  0  0  0
  4  5  1  0  0  0  0
  4 27  1  0  0  0  0
  4 28  1  0  0  0  0
  5  6  1  0  0  0  0
  5 29  1  0  0  0  0
  5 30  1  0  0  0  0
  6  7  1  0  0  0  0
  6 31  1  0  0  0  0
  6 32  1  0  0  0  0
  7  8  1  0  0  0  0
  7 33  1  0  0  0  0
  8  9  1  0  0  0  0
  9 10  1  0  0  0  0
  9 34  1  0  0  0  0
  9 35  1  0  0  0  0
 10 11  1  0  0  0  0
 10 36  1  0  0  0  0
 10 37  1  0  0  0  0
 11 19  1  0  0  0  0
 11 12  1  0  0  0  0
 12 13  2  0  0  0  0
 12 38  1  0  0  0  0
 13 14  1  0  0  0  0
 13 16  1  0  0  0  0
 14 15  3  0  0  0  0
 16 17  2  0  0  0  0
 16 18  1  0  0  0  0
 18 19  1  0  0  0  0
 19 20  2  0  0  0  0
M  CHG  1  18  -1
M  END
> <s_m_source_file>
AV-unprocessed.smi

> <i_m_source_file_index>
1230

> <i_lp_mmshare_version>
43012

> <i_f3d_flags>
0

> <s_epik_input>
W0NIM11bQ0BASF0xW0NIMl1bQ0gyXVtDSDJdW0NIMl1bQ0BIXTFPW0NIMl1bQ0gyXW4yW2NIXWMoQyNOKWMoPU8pW25IXWMyPU8=

> <s_epik_cmdline>
J2VwaWtfcHl0aG9uJywgJy1waCcsICc3LjAnLCAnLXRuJywgJzgnLCAnLW1hJywgJzIwMCcsICctbWV0YWxfYmluZGluZycsICctaW1hZScsICc8aW5maWxlLm1hZT4nLCAnLW9tYWUnLCAnPG91dGZpbGUubWFlPic=

> <r_epik_Ionization_Penalty>
0.400014

> <r_epik_Ionization_Penalty_Charging>
4.81474e-10

> <r_epik_Ionization_Penalty_Neutral>
0.400014

> <r_epik_State_Penalty>
0.399305

> <r_epik_Charging_Adjusted_Penalty>
0.399305

> <i_epik_Tot_Q>
-1

> <i_epik_Tot_abs_Q>
1

> <r_epik_Metal_State_Penalty>
0.00056968

> <b_epik_Metal_Only>
0

> <s_lp_Force_Field>
OPLS_2005

> <r_lp_Energy>
22.5171

> <b_lp_Chiralities_Consistent>
1

> <s_lp_Variant>
AV-unprocessed.smi:1230-4

> <Gold.Version>
5.8.1

> <Gold.Id.Protein>
6NUR|6NUR_protein|mol2

> <Gold.PLP.Fitness>
44.2791

> <Gold.PLP.PLP>
-36.9413

> <Gold.PLP.part.hbond>
-2.0000

> <Gold.PLP.part.metal>
0.0000

> <Gold.PLP.part.buried>
-5.1772

> <Gold.PLP.part.nonpolar>
-29.9474

> <Gold.PLP.part.repulsive>
0.3188

> <Gold.PLP.ligand.clash>
0.0000

> <Gold.PLP.ligand.torsion>
0.5831

> <Gold.PLP.Chemscore.Hbond>
2.8320

> <Gold.PLP.Chemscore.CHOScore>
0.0000

> <Gold.PLP.Chemscore.Metal>
0.0000

> <Gold.Chemscore.Hbonds>
donor molecule, donor type, donor heavy atom, donor atom, acceptor molecule, acceptor atom, score
      P1  H  7997  8009       L1    20  0.83
      P1  H 10752 10765       L1    18  2.00

> <Gold.PLP.Chemscore.Internal.Correction>
0.0079

> <Gold.Rescore>
     Score         DG    S(hbond)    S(metal)    S(lipo)     H(rot)  DE(clash)    DE(int)     intcor
     15.90     -17.59       1.61        0.00      99.16       1.90       1.09       0.61       ----

> <Gold.Chemscore.Fitness>
15.9004

> <Gold.Chemscore.DG>
-17.5932

> <Gold.Chemscore.ZeroCoef>
-5.4800

> <Gold.Chemscore.Hbond>
1.6083

> <Gold.Chemscore.Metal>
0.0000

> <Gold.Chemscore.Lipo>
99.1567

> <Gold.Chemscore.Internal_Hbond>
0.0000

> <Gold.Chemscore.DEClash>
1.0850

> <Gold.Chemscore.DEInternal>
0.6078

> <Gold.Chemscore.Rot>
1.8984

> <Gold.Chemscore.Internal.Correction>
   9.000000E+99

> <Gold.Chemscore.Hbonds>
donor molecule, donor type, donor heavy atom, donor atom, acceptor molecule, acceptor atom, score
      P1  H  7997  8009       L1    20  0.81
      P1  H 10752 10765       L1    18  0.46

> <Gold.Chemscore.Hbond.Weighted>
-5.3717

> <Gold.Chemscore.Metal.Weighted>
-0.0000

> <Gold.Chemscore.Lipo.Weighted>
-11.6013

> <Gold.Chemscore.Internal_Hbond.Weighted>
0.0000

> <Gold.Chemscore.DEClash.Weighted>
1.0850

> <Gold.Chemscore.DEInternal.Weighted>
0.6078

> <Gold.Chemscore.Rot.Weighted>
4.8598

> <Gold.Chemscore.Internal.Correction.Weighted>
   9.000000E+99

> <Gold.Protein.RotatedTorsions>
[ 6907 6896 6895 6894 ] final -147.50 input  -60.11 | X-H torsion
[ 7974 7965 7964 7962 ] final   29.53 input  175.53 | X-H torsion
[ 8008 7997 7996 7995 ] final -164.39 input   59.86 | X-H torsion
[ 10167 10162 10161 10158 ] final  130.80 input  -65.29 | X-H torsion
[ 10718 10713 10712 10709 ] final  -99.87 input   66.30 | X-H torsion
[ 10763 10752 10751 10750 ] final -175.35 input  -60.55 | X-H torsion
[ 11005 11000 10999 10996 ] final   78.24 input  -57.11 | X-H torsion

> <Gold.Protein.ActiveResidues>
 VAL166  LYS551  ARG553  GLY616  TRP617  ASP618  TYR619  PRO620  LYS621  CYS622 
 ASP623  PHE694  ASN695  SER759  ASP760  ASP761  ALA762  ILE779  LEU786  VAL792 
 PHE793  MET794  SER795  GLU796  ALA797  LYS798  CYS799  TRP800  GLU811  SER814 

> <Gold.Protein.RotatedAtoms>
  151.1566  133.4872  159.2594 H   0  0  0  0  0  0  0  0  0  0  0  0  # atno 6907 bound_to 6896
  151.1498  135.0221  159.8673 H   0  0  0  0  0  0  0  0  0  0  0  0  # atno 6908 bound_to 6896
  152.5463  134.1451  159.8548 H   0  0  0  0  0  0  0  0  0  0  0  0  # atno 6909 bound_to 6896
  146.1666  139.6909  142.8997 H   0  0  0  0  0  0  0  0  0  0  0  0  # atno 7974 bound_to 7965
  155.8350  140.0939  157.1769 H   0  0  0  0  0  0  0  0  0  0  0  0  # atno 8008 bound_to 7997
  154.3980  140.1412  156.3720 H   0  0  0  0  0  0  0  0  0  0  0  0  # atno 8009 bound_to 7997
  155.8125  140.3449  155.5469 H   0  0  0  0  0  0  0  0  0  0  0  0  # atno 8010 bound_to 7997
  139.5413  144.6733  151.4615 H   0  0  0  0  0  0  0  0  0  0  0  0  # atno 10167 bound_to 10162
  156.0146  130.5302  150.6734 H   0  0  0  0  0  0  0  0  0  0  0  0  # atno 10718 bound_to 10713
  154.5854  135.2840  155.0690 H   0  0  0  0  0  0  0  0  0  0  0  0  # atno 10763 bound_to 10752
  154.2010  135.6424  153.5091 H   0  0  0  0  0  0  0  0  0  0  0  0  # atno 10764 bound_to 10752
  153.0102  135.5469  154.6522 H   0  0  0  0  0  0  0  0  0  0  0  0  # atno 10765 bound_to 10752
  139.9221  134.7747  156.1624 H   0  0  0  0  0  0  0  0  0  0  0  0  # atno 11005 bound_to 11000
  145.4451  141.0425  143.2835 LP  0  0  0  0  0  0  0  0  0  0  0  0  # atno 17320 bound_to 7965
  144.8101  139.5978  143.7033 LP  0  0  0  0  0  0  0  0  0  0  0  0  # atno 17321 bound_to 7965
  140.6644  143.8429  150.6925 LP  0  0  0  0  0  0  0  0  0  0  0  0  # atno 17342 bound_to 10162
  140.1834  143.4096  152.1916 LP  0  0  0  0  0  0  0  0  0  0  0  0  # atno 17343 bound_to 10162
  157.4452  131.0866  151.0903 LP  0  0  0  0  0  0  0  0  0  0  0  0  # atno 17370 bound_to 10713
  157.1435  130.6153  149.5562 LP  0  0  0  0  0  0  0  0  0  0  0  0  # atno 17371 bound_to 10713
  141.0750  133.6779  156.2217 LP  0  0  0  0  0  0  0  0  0  0  0  0  # atno 17394 bound_to 11000
  140.6444  134.5132  157.5572 LP  0  0  0  0  0  0  0  0  0  0  0  0  # atno 17395 bound_to 11000

$$$$
