AV-unprocessed.smi:213|AV-procd|sdf|1644|dock7
  -GOLD-   2262020 13D 1   1.00000     0.00000
 Structure written by MMmdl.
 58 61  0  0  0  0  0  0  0  0  1 V2000
  150.4107  139.1156  156.6446 C   0  0  0  0  0  0  0  0  0  0  0  0
  149.5666  140.3883  156.4308 C   0  0  1  0  0  0  0  0  0  0  0  0
  150.4334  141.6652  156.3097 C   0  0  0  0  0  0  0  0  0  0  0  0
  151.1151  142.0945  157.5323 N   0  0  0  0  0  0  0  0  0  0  0  0
  151.6438  143.4460  157.3813 C   0  0  0  0  0  0  0  0  0  0  0  0
  152.3507  143.9363  158.6560 C   0  0  0  0  0  0  0  0  0  0  0  0
  153.3902  143.0268  158.9999 O   0  0  0  0  0  0  0  0  0  0  0  0
  152.9095  141.7034  159.2098 C   0  0  0  0  0  0  0  0  0  0  0  0
  152.1931  141.2001  157.9440 C   0  0  0  0  0  0  0  0  0  0  0  0
  148.7137  140.2231  155.2504 N   0  0  0  0  0  0  0  0  0  0  0  0
  148.5322  141.3124  154.2932 C   0  0  0  0  0  0  0  0  0  0  0  0
  147.9359  139.1177  155.1029 C   0  0  0  0  0  0  0  0  0  0  0  0
  147.8406  138.2668  156.1589 N   0  0  0  0  0  0  0  0  0  0  0  0
  147.0833  137.1692  156.0822 C   0  0  0  0  0  0  0  0  0  0  0  0
  146.3513  136.7315  155.0574 N   0  0  0  0  0  0  0  0  0  0  0  0
  146.4526  137.5686  153.9866 C   0  0  0  0  0  0  0  0  0  0  0  0
  147.2138  138.7716  153.9207 C   0  0  0  0  0  0  0  0  0  0  0  0
  147.0782  139.3350  152.6559 N   0  0  0  0  0  0  0  0  0  0  0  0
  146.2804  138.5238  152.0193 C   0  0  0  0  0  0  0  0  0  0  0  0
  145.8617  137.4319  152.7430 N   0  0  0  0  0  0  0  0  0  0  0  0
  144.9875  136.3675  152.2846 C   0  0  0  0  0  0  0  0  0  0  0  0
  145.7312  135.2645  151.5014 C   0  0  1  0  0  0  0  0  0  0  0  0
  146.8887  134.9322  152.2417 O   0  0  0  0  0  0  0  0  0  0  0  0
  144.9034  133.9829  151.2566 C   0  0  2  0  0  0  0  0  0  0  0  0
  145.7404  132.7355  150.9625 C   0  0  0  0  0  0  0  0  0  0  0  0
  144.7979  131.8410  150.1725 C   0  0  0  0  0  0  0  0  0  0  0  0
  143.6704  132.7810  149.7406 C   0  0  0  0  0  0  0  0  0  0  0  0
  144.1353  134.0819  150.0666 O   0  0  0  0  0  0  0  0  0  0  0  0
  150.9935  139.1571  157.5627 H   0  0  0  0  0  0  0  0  0  0  0  0
  151.1130  138.9519  155.8272 H   0  0  0  0  0  0  0  0  0  0  0  0
  149.7715  138.2345  156.7117 H   0  0  0  0  0  0  0  0  0  0  0  0
  148.9241  140.4776  157.3064 H   0  0  0  0  0  0  0  0  0  0  0  0
  151.1520  141.5532  155.4965 H   0  0  0  0  0  0  0  0  0  0  0  0
  149.7786  142.4818  156.0011 H   0  0  0  0  0  0  0  0  0  0  0  0
  152.3461  143.4765  156.5469 H   0  0  0  0  0  0  0  0  0  0  0  0
  150.8351  144.1343  157.1331 H   0  0  0  0  0  0  0  0  0  0  0  0
  152.7800  144.9252  158.4951 H   0  0  0  0  0  0  0  0  0  0  0  0
  151.6431  144.0235  159.4819 H   0  0  0  0  0  0  0  0  0  0  0  0
  153.7493  141.0527  159.4539 H   0  0  0  0  0  0  0  0  0  0  0  0
  152.2336  141.6879  160.0661 H   0  0  0  0  0  0  0  0  0  0  0  0
  151.7947  140.2094  158.1562 H   0  0  0  0  0  0  0  0  0  0  0  0
  152.9156  141.0899  157.1342 H   0  0  0  0  0  0  0  0  0  0  0  0
  147.4820  141.4222  154.0198 H   0  0  0  0  0  0  0  0  0  0  0  0
  149.1072  141.1204  153.3872 H   0  0  0  0  0  0  0  0  0  0  0  0
  148.8629  142.2637  154.7099 H   0  0  0  0  0  0  0  0  0  0  0  0
  147.0609  136.5539  156.9694 H   0  0  0  0  0  0  0  0  0  0  0  0
  145.9846  138.6958  150.9946 H   0  0  0  0  0  0  0  0  0  0  0  0
  144.4894  135.9410  153.1565 H   0  0  0  0  0  0  0  0  0  0  0  0
  144.2059  136.8086  151.6639 H   0  0  0  0  0  0  0  0  0  0  0  0
  146.0632  135.6630  150.5420 H   0  0  0  0  0  0  0  0  0  0  0  0
  147.5326  135.6116  152.1130 H   0  0  0  0  0  0  0  0  0  0  0  0
  144.2357  133.7928  152.0993 H   0  0  0  0  0  0  0  0  0  0  0  0
  146.5981  132.9976  150.3415 H   0  0  0  0  0  0  0  0  0  0  0  0
  146.1161  132.2576  151.8677 H   0  0  0  0  0  0  0  0  0  0  0  0
  145.3076  131.3997  149.3154 H   0  0  0  0  0  0  0  0  0  0  0  0
  144.4073  131.0293  150.7868 H   0  0  0  0  0  0  0  0  0  0  0  0
  143.4408  132.7020  148.6778 H   0  0  0  0  0  0  0  0  0  0  0  0
  142.7590  132.5737  150.3034 H   0  0  0  0  0  0  0  0  0  0  0  0
  1  2  1  0  0  0  0
  1 29  1  0  0  0  0
  1 30  1  0  0  0  0
  1 31  1  0  0  0  0
  2  3  1  0  0  0  0
  2 10  1  0  0  0  0
  2 32  1  0  0  0  0
  3  4  1  0  0  0  0
  3 33  1  0  0  0  0
  3 34  1  0  0  0  0
  4  9  1  0  0  0  0
  4  5  1  0  0  0  0
  5  6  1  0  0  0  0
  5 35  1  0  0  0  0
  5 36  1  0  0  0  0
  6  7  1  0  0  0  0
  6 37  1  0  0  0  0
  6 38  1  0  0  0  0
  7  8  1  0  0  0  0
  8  9  1  0  0  0  0
  8 39  1  0  0  0  0
  8 40  1  0  0  0  0
  9 41  1  0  0  0  0
  9 42  1  0  0  0  0
 10 11  1  0  0  0  0
 10 12  1  0  0  0  0
 11 43  1  0  0  0  0
 11 44  1  0  0  0  0
 11 45  1  0  0  0  0
 12 17  1  0  0  0  0
 12 13  2  0  0  0  0
 13 14  1  0  0  0  0
 14 15  2  0  0  0  0
 14 46  1  0  0  0  0
 15 16  1  0  0  0  0
 16 20  1  0  0  0  0
 16 17  2  0  0  0  0
 17 18  1  0  0  0  0
 18 19  2  0  0  0  0
 19 20  1  0  0  0  0
 19 47  1  0  0  0  0
 20 21  1  0  0  0  0
 21 22  1  0  0  0  0
 21 48  1  0  0  0  0
 21 49  1  0  0  0  0
 22 23  1  0  0  0  0
 22 24  1  0  0  0  0
 22 50  1  0  0  0  0
 23 51  1  0  0  0  0
 24 28  1  0  0  0  0
 24 25  1  0  0  0  0
 24 52  1  0  0  0  0
 25 26  1  0  0  0  0
 25 53  1  0  0  0  0
 25 54  1  0  0  0  0
 26 27  1  0  0  0  0
 26 55  1  0  0  0  0
 26 56  1  0  0  0  0
 27 28  1  0  0  0  0
 27 57  1  0  0  0  0
 27 58  1  0  0  0  0
M  END
> <s_m_source_file>
AV-unprocessed.smi

> <i_m_source_file_index>
213

> <i_lp_mmshare_version>
43012

> <i_f3d_flags>
0

> <s_epik_input>
W0NIMl0xW0NIMl1PW0NIMl1bQ0gyXU4xW0NIMl1bQ0BASF0oW0NIM10pTihbQ0gzXSljKG5bY0hdbjIpYyhjMjMpbltjSF1uM1tDSDJdW0NASF0oW09IXSlbQ0BASF00W0NIMl1bQ0gyXVtDSDJdTzQ=

> <s_epik_cmdline>
J2VwaWtfcHl0aG9uJywgJy1waCcsICc3LjAnLCAnLXRuJywgJzgnLCAnLW1hJywgJzIwMCcsICctbWV0YWxfYmluZGluZycsICctaW1hZScsICc8aW5maWxlLm1hZT4nLCAnLW9tYWUnLCAnPG91dGZpbGUubWFlPic=

> <r_lp_tautomer_probability>
1

> <r_epik_Ionization_Penalty>
0.423322

> <r_epik_Ionization_Penalty_Charging>
0

> <r_epik_Ionization_Penalty_Neutral>
0.423322

> <r_epik_State_Penalty>
0.569486

> <r_epik_Charging_Adjusted_Penalty>
0.569486

> <i_epik_Tot_Q>
0

> <i_epik_Tot_abs_Q>
0

> <r_epik_Metal_State_Penalty>
0.568671

> <b_epik_Metal_Only>
0

> <s_lp_Force_Field>
OPLS_2005

> <r_lp_Energy>
52.699

> <b_lp_Chiralities_Consistent>
1

> <s_lp_Variant>
AV-unprocessed.smi:213-12

> <Gold.Version>
5.8.1

> <Gold.Id.Protein>
6NUR|6NUR_protein|mol2

> <Gold.PLP.Fitness>
46.0938

> <Gold.PLP.PLP>
-43.4910

> <Gold.PLP.part.hbond>
-0.8546

> <Gold.PLP.part.metal>
0.0000

> <Gold.PLP.part.buried>
-7.7737

> <Gold.PLP.part.nonpolar>
-39.6654

> <Gold.PLP.part.repulsive>
3.5496

> <Gold.PLP.ligand.clash>
0.0052

> <Gold.PLP.ligand.torsion>
1.4067

> <Gold.PLP.Chemscore.Hbond>
1.0000

> <Gold.PLP.Chemscore.CHOScore>
0.7220

> <Gold.PLP.Chemscore.Metal>
0.0000

> <Gold.Chemscore.Hbonds>
donor molecule, donor type, donor heavy atom, donor atom, acceptor molecule, acceptor atom, score
      L1  H    23    51       P1  7948  1.00
      L1  C    19    47       P1 10171  1.00

> <Gold.PLP.Chemscore.Internal.Correction>
0.2553

> <Gold.Rescore>
     Score         DG    S(hbond)    S(metal)    S(lipo)     H(rot)  DE(clash)    DE(int)     intcor
     12.49     -14.88       0.99        0.00     112.03       2.74       1.18       1.21       ----

> <Gold.Chemscore.Fitness>
12.4894

> <Gold.Chemscore.DG>
-14.8822

> <Gold.Chemscore.ZeroCoef>
-5.4800

> <Gold.Chemscore.Hbond>
0.9891

> <Gold.Chemscore.Metal>
0.0000

> <Gold.Chemscore.Lipo>
112.0285

> <Gold.Chemscore.Internal_Hbond>
0.0000

> <Gold.Chemscore.DEClash>
1.1804

> <Gold.Chemscore.DEInternal>
1.2125

> <Gold.Chemscore.Rot>
2.7378

> <Gold.Chemscore.Internal.Correction>
   9.000000E+99

> <Gold.Chemscore.Hbonds>
donor molecule, donor type, donor heavy atom, donor atom, acceptor molecule, acceptor atom, score
      L1  H    23    51       P1  7948  0.93

> <Gold.Chemscore.Hbond.Weighted>
-3.3035

> <Gold.Chemscore.Metal.Weighted>
-0.0000

> <Gold.Chemscore.Lipo.Weighted>
-13.1073

> <Gold.Chemscore.Internal_Hbond.Weighted>
0.0000

> <Gold.Chemscore.DEClash.Weighted>
1.1804

> <Gold.Chemscore.DEInternal.Weighted>
1.2125

> <Gold.Chemscore.Rot.Weighted>
7.0087

> <Gold.Chemscore.Internal.Correction.Weighted>
   9.000000E+99

> <Gold.Protein.RotatedTorsions>
[ 6907 6896 6895 6894 ] final  -37.84 input  -60.11 | X-H torsion
[ 7974 7965 7964 7962 ] final -153.55 input  175.53 | X-H torsion
[ 8008 7997 7996 7995 ] final  -56.95 input   59.86 | X-H torsion
[ 10167 10162 10161 10158 ] final  120.48 input  -65.29 | X-H torsion
[ 10718 10713 10712 10709 ] final  -36.24 input   66.30 | X-H torsion
[ 10763 10752 10751 10750 ] final    9.97 input  -60.55 | X-H torsion
[ 11005 11000 10999 10996 ] final  107.73 input  -57.11 | X-H torsion

> <Gold.Protein.ActiveResidues>
 VAL166  LYS551  ARG553  GLY616  TRP617  ASP618  TYR619  PRO620  LYS621  CYS622 
 ASP623  PHE694  ASN695  SER759  ASP760  ASP761  ALA762  ILE779  LEU786  VAL792 
 PHE793  MET794  SER795  GLU796  ALA797  LYS798  CYS799  TRP800  GLU811  SER814 

> <Gold.Protein.RotatedAtoms>
  151.0098  134.9387  159.8000 H   0  0  0  0  0  0  0  0  0  0  0  0  # atno 6907 bound_to 6896
  152.5299  134.3044  159.9100 H   0  0  0  0  0  0  0  0  0  0  0  0  # atno 6908 bound_to 6896
  151.3050  133.4064  159.2677 H   0  0  0  0  0  0  0  0  0  0  0  0  # atno 6909 bound_to 6896
  144.7735  140.4510  143.5890 H   0  0  0  0  0  0  0  0  0  0  0  0  # atno 7974 bound_to 7965
  154.4249  140.1118  156.5720 H   0  0  0  0  0  0  0  0  0  0  0  0  # atno 8008 bound_to 7997
  155.6202  140.3495  155.4630 H   0  0  0  0  0  0  0  0  0  0  0  0  # atno 8009 bound_to 7997
  156.0030  140.1203  157.0518 H   0  0  0  0  0  0  0  0  0  0  0  0  # atno 8010 bound_to 7997
  139.5979  144.7047  151.3132 H   0  0  0  0  0  0  0  0  0  0  0  0  # atno 10167 bound_to 10162
  156.3292  130.4277  149.7888 H   0  0  0  0  0  0  0  0  0  0  0  0  # atno 10718 bound_to 10713
  153.2083  135.6865  153.8146 H   0  0  0  0  0  0  0  0  0  0  0  0  # atno 10763 bound_to 10752
  153.7387  135.3241  155.3301 H   0  0  0  0  0  0  0  0  0  0  0  0  # atno 10764 bound_to 10752
  154.8208  135.4653  154.0879 H   0  0  0  0  0  0  0  0  0  0  0  0  # atno 10765 bound_to 10752
  139.8832  134.9409  156.5864 H   0  0  0  0  0  0  0  0  0  0  0  0  # atno 11005 bound_to 11000
  145.6255  139.1529  143.2998 LP  0  0  0  0  0  0  0  0  0  0  0  0  # atno 17320 bound_to 7965
  146.1898  140.6362  142.9151 LP  0  0  0  0  0  0  0  0  0  0  0  0  # atno 17321 bound_to 7965
  140.7227  143.7092  150.7783 LP  0  0  0  0  0  0  0  0  0  0  0  0  # atno 17342 bound_to 10162
  140.0662  143.5106  152.2603 LP  0  0  0  0  0  0  0  0  0  0  0  0  # atno 17343 bound_to 10162
  156.5167  130.8196  151.3189 LP  0  0  0  0  0  0  0  0  0  0  0  0  # atno 17370 bound_to 10713
  157.7427  130.9896  150.2536 LP  0  0  0  0  0  0  0  0  0  0  0  0  # atno 17371 bound_to 10713
  140.7988  133.8522  155.8709 LP  0  0  0  0  0  0  0  0  0  0  0  0  # atno 17394 bound_to 11000
  140.9611  134.1654  157.4653 LP  0  0  0  0  0  0  0  0  0  0  0  0  # atno 17395 bound_to 11000

$$$$
