AV-unprocessed.smi:2741|AV-procd|sdf|10559|dock3
  -GOLD-   2272015 13D 1   1.00000     0.00000
 Structure written by MMmdl.
 39 40  0  0  0  0  0  0  0  0  1 V2000
  149.6617  135.5267  158.1705 O   0  0  0  0  0  0  0  0  0  0  0  0
  149.4964  136.6260  158.7007 C   0  0  0  0  0  0  0  0  0  0  0  0
  148.1901  136.9483  159.4385 C   0  0  0  0  0  0  0  0  0  0  0  0
  147.8024  135.8983  160.3953 N   0  0  0  0  0  0  0  0  0  0  0  0
  147.6800  134.5855  159.8984 C   0  0  0  0  0  0  0  0  0  0  0  0
  147.3479  133.5361  160.6746 C   0  0  0  0  0  0  0  0  0  0  0  0
  147.1755  132.1403  160.0960 C   0  0  0  0  0  0  0  0  0  0  0  0
  146.1687  132.1005  159.2230 F   0  0  0  0  0  0  0  0  0  0  0  0
  148.2852  131.7402  159.4738 F   0  0  0  0  0  0  0  0  0  0  0  0
  146.9138  131.2734  161.0731 F   0  0  0  0  0  0  0  0  0  0  0  0
  147.0839  133.8241  162.0710 C   0  0  0  0  0  0  0  0  0  0  0  0
  147.1895  135.0748  162.5608 C   0  0  0  0  0  0  0  0  0  0  0  0
  147.5736  136.2022  161.7085 C   0  0  0  0  0  0  0  0  0  0  0  0
  147.6821  137.3481  162.1467 O   0  0  0  0  0  0  0  0  0  0  0  0
  150.4123  137.6050  158.6658 N   0  0  0  0  0  0  0  0  0  0  0  0
  151.7324  137.4982  158.0542 C   0  0  0  0  0  0  0  0  0  0  0  0
  151.6849  137.7271  156.5303 C   0  0  1  0  0  0  0  0  0  0  0  0
  150.5065  137.0208  155.8343 C   0  0  0  0  0  0  0  0  0  0  0  0
  149.9891  137.9855  154.7552 C   0  0  0  0  0  0  0  0  0  0  0  0
  151.0148  139.1200  154.6918 C   0  0  1  0  0  0  0  0  0  0  0  0
  150.4401  140.3397  154.2721 O   0  0  0  0  0  0  0  0  0  0  0  0
  151.5684  139.1983  156.1122 C   0  0  0  0  0  0  0  0  0  0  0  0
  148.2832  137.9052  159.9561 H   0  0  0  0  0  0  0  0  0  0  0  0
  147.4097  137.1021  158.6923 H   0  0  0  0  0  0  0  0  0  0  0  0
  147.8781  134.4832  158.8413 H   0  0  0  0  0  0  0  0  0  0  0  0
  146.8009  133.0233  162.7384 H   0  0  0  0  0  0  0  0  0  0  0  0
  146.9883  135.2523  163.6072 H   0  0  0  0  0  0  0  0  0  0  0  0
  150.1901  138.4790  159.1200 H   0  0  0  0  0  0  0  0  0  0  0  0
  152.4178  138.2059  158.5233 H   0  0  0  0  0  0  0  0  0  0  0  0
  152.1213  136.5024  158.2697 H   0  0  0  0  0  0  0  0  0  0  0  0
  152.6024  137.3355  156.0876 H   0  0  0  0  0  0  0  0  0  0  0  0
  150.8332  136.0769  155.3968 H   0  0  0  0  0  0  0  0  0  0  0  0
  149.7063  136.7884  156.5378 H   0  0  0  0  0  0  0  0  0  0  0  0
  149.8550  137.4984  153.7889 H   0  0  0  0  0  0  0  0  0  0  0  0
  149.0167  138.3733  155.0629 H   0  0  0  0  0  0  0  0  0  0  0  0
  151.8174  138.8485  154.0045 H   0  0  0  0  0  0  0  0  0  0  0  0
  150.0076  140.1996  153.4437 H   0  0  0  0  0  0  0  0  0  0  0  0
  150.8636  139.7175  156.7641 H   0  0  0  0  0  0  0  0  0  0  0  0
  152.5218  139.7260  156.1606 H   0  0  0  0  0  0  0  0  0  0  0  0
  1  2  2  0  0  0  0
  2  3  1  0  0  0  0
  2 15  1  0  0  0  0
  3  4  1  0  0  0  0
  3 23  1  0  0  0  0
  3 24  1  0  0  0  0
  4 13  1  0  0  0  0
  4  5  1  0  0  0  0
  5  6  2  0  0  0  0
  5 25  1  0  0  0  0
  6  7  1  0  0  0  0
  6 11  1  0  0  0  0
  7  8  1  0  0  0  0
  7  9  1  0  0  0  0
  7 10  1  0  0  0  0
 11 12  2  0  0  0  0
 11 26  1  0  0  0  0
 12 13  1  0  0  0  0
 12 27  1  0  0  0  0
 13 14  2  0  0  0  0
 15 16  1  0  0  0  0
 15 28  1  0  0  0  0
 16 17  1  0  0  0  0
 16 29  1  0  0  0  0
 16 30  1  0  0  0  0
 17 22  1  0  0  0  0
 17 18  1  0  0  0  0
 17 31  1  0  0  0  0
 18 19  1  0  0  0  0
 18 32  1  0  0  0  0
 18 33  1  0  0  0  0
 19 20  1  0  0  0  0
 19 34  1  0  0  0  0
 19 35  1  0  0  0  0
 20 21  1  0  0  0  0
 20 22  1  0  0  0  0
 20 36  1  0  0  0  0
 21 37  1  0  0  0  0
 22 38  1  0  0  0  0
 22 39  1  0  0  0  0
M  END
> <s_m_source_file>
AV-unprocessed.smi

> <i_m_source_file_index>
2741

> <i_lp_mmshare_version>
43012

> <i_f3d_flags>
0

> <s_epik_input>
W09IXVtDQEBIXShbQ0gyXTEpW0NIMl1bQ0gyXVtDQEhdMVtDSDJdW05IXUMoPU8pW0NIMl1uMltjSF1jKEMoRikoRilGKVtjSF1bY0hdYzI9Tw==

> <s_epik_cmdline>
J2VwaWtfcHl0aG9uJywgJy1waCcsICc3LjAnLCAnLXRuJywgJzgnLCAnLW1hJywgJzIwMCcsICctbWV0YWxfYmluZGluZycsICctaW1hZScsICc8aW5maWxlLm1hZT4nLCAnLW9tYWUnLCAnPG91dGZpbGUubWFlPic=

> <r_lp_tautomer_probability>
1

> <r_epik_Ionization_Penalty>
1.17551e-06

> <r_epik_Ionization_Penalty_Charging>
1.78841e-08

> <r_epik_Ionization_Penalty_Neutral>
1.15762e-06

> <r_epik_State_Penalty>
-0

> <r_epik_Charging_Adjusted_Penalty>
1.78841e-08

> <i_epik_Tot_Q>
0

> <i_epik_Tot_abs_Q>
0

> <r_epik_Metal_State_Penalty>
-0

> <b_epik_Metal_Only>
0

> <s_lp_Force_Field>
OPLS_2005

> <r_lp_Energy>
32.8711

> <b_lp_Chiralities_Consistent>
1

> <s_lp_Variant>
AV-unprocessed.smi:2741-2

> <Gold.Version>
5.8.1

> <Gold.Id.Protein>
6NUR|6NUR_protein|mol2

> <Gold.PLP.Fitness>
49.4929

> <Gold.PLP.PLP>
-37.4015

> <Gold.PLP.part.hbond>
-5.0000

> <Gold.PLP.part.metal>
0.0000

> <Gold.PLP.part.buried>
-4.1284

> <Gold.PLP.part.nonpolar>
-28.4286

> <Gold.PLP.part.repulsive>
0.1538

> <Gold.PLP.ligand.clash>
0.2105

> <Gold.PLP.ligand.torsion>
0.5212

> <Gold.PLP.Chemscore.Hbond>
4.4233

> <Gold.PLP.Chemscore.CHOScore>
0.0000

> <Gold.PLP.Chemscore.Metal>
0.0000

> <Gold.Chemscore.Hbonds>
donor molecule, donor type, donor heavy atom, donor atom, acceptor molecule, acceptor atom, score
      L1  H    21    37       P1  7957  0.28
      P1  H  6896  6907       L1     1  1.00
      P1  H  6931  6943       L1    14  0.88
      P1  H  6934  6947       L1    14  0.43
      P1  H  7989  7998       L1    21  0.31

> <Gold.PLP.Chemscore.Internal.Correction>
0.0743

> <Gold.Rescore>
     Score         DG    S(hbond)    S(metal)    S(lipo)     H(rot)  DE(clash)    DE(int)     intcor
     16.53     -18.47       3.50        0.00      65.38       2.48       0.07       1.87       ----

> <Gold.Chemscore.Fitness>
16.5310

> <Gold.Chemscore.DG>
-18.4662

> <Gold.Chemscore.ZeroCoef>
-5.4800

> <Gold.Chemscore.Hbond>
3.4993

> <Gold.Chemscore.Metal>
0.0000

> <Gold.Chemscore.Lipo>
65.3770

> <Gold.Chemscore.Internal_Hbond>
0.0000

> <Gold.Chemscore.DEClash>
0.0664

> <Gold.Chemscore.DEInternal>
1.8688

> <Gold.Chemscore.Rot>
2.4807

> <Gold.Chemscore.Internal.Correction>
   9.000000E+99

> <Gold.Chemscore.Hbonds>
donor molecule, donor type, donor heavy atom, donor atom, acceptor molecule, acceptor atom, score
      L1  H    21    37       P1  7957  0.29
      P1  H  6896  6907       L1     1  0.34
      P1  H  6931  6943       L1    14  0.85
      P1  H  6934  6947       L1    14  0.42

> <Gold.Chemscore.Hbond.Weighted>
-11.6878

> <Gold.Chemscore.Metal.Weighted>
-0.0000

> <Gold.Chemscore.Lipo.Weighted>
-7.6491

> <Gold.Chemscore.Internal_Hbond.Weighted>
0.0000

> <Gold.Chemscore.DEClash.Weighted>
0.0664

> <Gold.Chemscore.DEInternal.Weighted>
1.8688

> <Gold.Chemscore.Rot.Weighted>
6.3507

> <Gold.Chemscore.Internal.Correction.Weighted>
   9.000000E+99

> <Gold.Protein.RotatedTorsions>
[ 6907 6896 6895 6894 ] final  -71.08 input  -60.11 | X-H torsion
[ 7974 7965 7964 7962 ] final -144.88 input  175.53 | X-H torsion
[ 8008 7997 7996 7995 ] final   35.77 input   59.86 | X-H torsion
[ 10167 10162 10161 10158 ] final  -68.95 input  -65.29 | X-H torsion
[ 10718 10713 10712 10709 ] final   -1.50 input   66.30 | X-H torsion
[ 10763 10752 10751 10750 ] final   27.27 input  -60.55 | X-H torsion
[ 11005 11000 10999 10996 ] final   49.34 input  -57.11 | X-H torsion

> <Gold.Protein.ActiveResidues>
 VAL166  LYS551  ARG553  GLY616  TRP617  ASP618  TYR619  PRO620  LYS621  CYS622 
 ASP623  PHE694  ASN695  SER759  ASP760  ASP761  ALA762  ILE779  LEU786  VAL792 
 PHE793  MET794  SER795  GLU796  ALA797  LYS798  CYS799  TRP800  GLU811  SER814 

> <Gold.Protein.RotatedAtoms>
  150.7228  134.5360  159.5723 H   0  0  0  0  0  0  0  0  0  0  0  0  # atno 6907 bound_to 6896
  152.2882  134.7749  160.0392 H   0  0  0  0  0  0  0  0  0  0  0  0  # atno 6908 bound_to 6896
  151.8371  133.3382  159.3668 H   0  0  0  0  0  0  0  0  0  0  0  0  # atno 6909 bound_to 6896
  144.8266  140.5654  143.5543 H   0  0  0  0  0  0  0  0  0  0  0  0  # atno 7974 bound_to 7965
  155.1765  140.3296  155.4383 H   0  0  0  0  0  0  0  0  0  0  0  0  # atno 8008 bound_to 7997
  156.2492  140.1934  156.6816 H   0  0  0  0  0  0  0  0  0  0  0  0  # atno 8009 bound_to 7997
  154.6301  140.0583  156.9708 H   0  0  0  0  0  0  0  0  0  0  0  0  # atno 8010 bound_to 7997
  140.5468  143.2313  151.6987 H   0  0  0  0  0  0  0  0  0  0  0  0  # atno 10167 bound_to 10162
  156.8047  130.5404  149.5717 H   0  0  0  0  0  0  0  0  0  0  0  0  # atno 10718 bound_to 10713
  153.0567  135.6541  154.0560 H   0  0  0  0  0  0  0  0  0  0  0  0  # atno 10763 bound_to 10752
  154.0237  135.2917  155.3379 H   0  0  0  0  0  0  0  0  0  0  0  0  # atno 10764 bound_to 10752
  154.6885  135.5292  153.8427 H   0  0  0  0  0  0  0  0  0  0  0  0  # atno 10765 bound_to 10752
  140.1112  134.4952  155.8676 H   0  0  0  0  0  0  0  0  0  0  0  0  # atno 11005 bound_to 11000
  145.4987  139.1484  143.3669 LP  0  0  0  0  0  0  0  0  0  0  0  0  # atno 17320 bound_to 7965
  146.2571  140.5126  142.8869 LP  0  0  0  0  0  0  0  0  0  0  0  0  # atno 17321 bound_to 7965
  139.5010  144.3882  152.0307 LP  0  0  0  0  0  0  0  0  0  0  0  0  # atno 17342 bound_to 10162
  140.2996  144.3662  150.6064 LP  0  0  0  0  0  0  0  0  0  0  0  0  # atno 17343 bound_to 10162
  156.1080  130.6019  151.0002 LP  0  0  0  0  0  0  0  0  0  0  0  0  # atno 17370 bound_to 10713
  157.6536  131.0893  150.7996 LP  0  0  0  0  0  0  0  0  0  0  0  0  # atno 17371 bound_to 10713
  141.2130  133.6728  156.6708 LP  0  0  0  0  0  0  0  0  0  0  0  0  # atno 17394 bound_to 11000
  140.3088  134.8103  157.4159 LP  0  0  0  0  0  0  0  0  0  0  0  0  # atno 17395 bound_to 11000

$$$$
