AV-unprocessed.smi:2775|AV-procd|sdf|10701|dock6
  -GOLD-   2272015143D 1   1.00000     0.00000
 Structure written by MMmdl.
 43 46  0  0  0  0  0  0  0  0  2 V2000
  150.7344  141.0728  155.7779 C   0  0  0  0  0  0  0  0  0  0  0  0
  149.4646  140.9207  154.9629 C   0  0  0  0  0  0  0  0  0  0  0  0
  148.6826  142.0117  154.8083 N   0  3  0  0  0  0  0  0  0  0  0  0
  147.5347  141.9989  154.0997 C   0  0  0  0  0  0  0  0  0  0  0  0
  147.1005  140.8083  153.4855 C   0  0  0  0  0  0  0  0  0  0  0  0
  147.8743  139.6285  153.6285 C   0  0  0  0  0  0  0  0  0  0  0  0
  147.5263  138.3827  153.0370 N   0  0  0  0  0  0  0  0  0  0  0  0
  146.3151  137.8167  152.8740 C   0  0  0  0  0  0  0  0  0  0  0  0
  145.2508  138.3154  153.2321 O   0  0  0  0  0  0  0  0  0  0  0  0
  146.3552  136.6139  152.2750 N   0  0  0  0  0  0  0  0  0  0  0  0
  145.2228  135.7437  151.9539 C   0  0  1  0  0  0  0  0  0  0  0  0
  145.6551  134.2832  151.7244 C   0  0  2  0  0  0  0  0  0  0  0  0
  145.4678  133.6513  150.3716 C   0  0  0  0  0  0  0  0  0  0  0  0
  144.1510  132.8863  150.5309 C   0  0  0  0  0  0  0  0  0  0  0  0
  143.4877  133.5314  151.6160 O   0  0  0  0  0  0  0  0  0  0  0  0
  144.4751  133.8562  152.5899 C   0  0  2  0  0  0  0  0  0  0  0  0
  144.3951  135.2737  153.1695 C   0  0  0  0  0  0  0  0  0  0  0  0
  144.8236  135.5333  154.6264 C   0  0  0  0  0  0  0  0  0  0  0  0
  143.6982  136.5659  154.7337 C   0  0  0  0  0  0  0  0  0  0  0  0
  143.0424  135.9136  153.5131 C   0  0  0  0  0  0  0  0  0  0  0  0
  149.0804  139.6951  154.3696 C   0  0  0  0  0  0  0  0  0  0  0  0
  150.0774  138.2907  154.5546 Cl  0  0  0  0  0  0  0  0  0  0  0  0
  150.7078  140.4146  156.6468 H   0  0  0  0  0  0  0  0  0  0  0  0
  150.8605  142.0966  156.1323 H   0  0  0  0  0  0  0  0  0  0  0  0
  151.6057  140.8138  155.1760 H   0  0  0  0  0  0  0  0  0  0  0  0
  147.0032  142.9376  154.0408 H   0  0  0  0  0  0  0  0  0  0  0  0
  146.1888  140.8310  152.9094 H   0  0  0  0  0  0  0  0  0  0  0  0
  148.3097  137.8165  152.7440 H   0  0  0  0  0  0  0  0  0  0  0  0
  147.2654  136.2733  151.9996 H   0  0  0  0  0  0  0  0  0  0  0  0
  144.5900  136.1029  151.1394 H   0  0  0  0  0  0  0  0  0  0  0  0
  146.6047  134.0468  152.2084 H   0  0  0  0  0  0  0  0  0  0  0  0
  145.3833  134.4116  149.5945 H   0  0  0  0  0  0  0  0  0  0  0  0
  146.2883  132.9862  150.1011 H   0  0  0  0  0  0  0  0  0  0  0  0
  143.5447  132.8988  149.6249 H   0  0  0  0  0  0  0  0  0  0  0  0
  144.3425  131.8464  150.7996 H   0  0  0  0  0  0  0  0  0  0  0  0
  144.6994  133.0520  153.2918 H   0  0  0  0  0  0  0  0  0  0  0  0
  144.6530  134.6701  155.2714 H   0  0  0  0  0  0  0  0  0  0  0  0
  145.8259  135.9372  154.7690 H   0  0  0  0  0  0  0  0  0  0  0  0
  143.1124  136.5044  155.6511 H   0  0  0  0  0  0  0  0  0  0  0  0
  144.0373  137.5840  154.5400 H   0  0  0  0  0  0  0  0  0  0  0  0
  142.6666  136.6172  152.7700 H   0  0  0  0  0  0  0  0  0  0  0  0
  142.2869  135.1755  153.7865 H   0  0  0  0  0  0  0  0  0  0  0  0
  148.9765  142.8868  155.2430 H   0  0  0  0  0  0  0  0  0  0  0  0
  1  2  1  0  0  0  0
  1 23  1  0  0  0  0
  1 24  1  0  0  0  0
  1 25  1  0  0  0  0
  2 21  1  0  0  0  0
  2  3  2  0  0  0  0
  3  4  1  0  0  0  0
  3 43  1  0  0  0  0
  4  5  2  0  0  0  0
  4 26  1  0  0  0  0
  5  6  1  0  0  0  0
  5 27  1  0  0  0  0
  6  7  1  0  0  0  0
  6 21  2  0  0  0  0
  7  8  1  0  0  0  0
  7 28  1  0  0  0  0
  8  9  2  0  0  0  0
  8 10  1  0  0  0  0
 10 11  1  0  0  0  0
 10 29  1  0  0  0  0
 11 17  1  0  0  0  0
 11 12  1  0  0  0  0
 11 30  1  0  0  0  0
 12 16  1  0  0  0  0
 12 13  1  0  0  0  0
 12 31  1  0  0  0  0
 13 14  1  0  0  0  0
 13 32  1  0  0  0  0
 13 33  1  0  0  0  0
 14 15  1  0  0  0  0
 14 34  1  0  0  0  0
 14 35  1  0  0  0  0
 15 16  1  0  0  0  0
 16 17  1  0  0  0  0
 16 36  1  0  0  0  0
 17 20  1  0  0  0  0
 17 18  1  0  0  0  0
 18 19  1  0  0  0  0
 18 37  1  0  0  0  0
 18 38  1  0  0  0  0
 19 20  1  0  0  0  0
 19 39  1  0  0  0  0
 19 40  1  0  0  0  0
 20 41  1  0  0  0  0
 20 42  1  0  0  0  0
 21 22  1  0  0  0  0
M  CHG  1   3   1
M  END
> <s_m_source_file>
AV-unprocessed.smi

> <i_m_source_file_index>
2775

> <i_lp_mmshare_version>
43012

> <i_f3d_flags>
0

> <s_epik_input>
W0NIM11jMW5bY0hdW2NIXWMoYzFDbClbTkhdQyg9TylbTkhdW0NAQEhdMltDQEhdKFtDSDJdW0NIMl1PMylbQ0BASF0zQzI0W0NIMl1bQ0gyXVtDSDJdNA==

> <s_epik_cmdline>
J2VwaWtfcHl0aG9uJywgJy1waCcsICc3LjAnLCAnLXRuJywgJzgnLCAnLW1hJywgJzIwMCcsICctbWV0YWxfYmluZGluZycsICctaW1hZScsICc8aW5maWxlLm1hZT4nLCAnLW9tYWUnLCAnPG91dGZpbGUubWFlPic=

> <r_epik_Ionization_Penalty>
2.4104

> <r_epik_Ionization_Penalty_Charging>
2.41038

> <r_epik_Ionization_Penalty_Neutral>
1.9872e-05

> <r_epik_State_Penalty>
2.56896

> <r_epik_Charging_Adjusted_Penalty>
4.97934

> <i_epik_Tot_Q>
1

> <i_epik_Tot_abs_Q>
1

> <r_epik_Metal_State_Penalty>
2.57906

> <b_epik_Metal_Only>
0

> <s_lp_Force_Field>
OPLS_2005

> <r_lp_Energy>
60.4294

> <b_lp_Chiralities_Consistent>
1

> <s_lp_Variant>
AV-unprocessed.smi:2775-14

> <Gold.Version>
5.8.1

> <Gold.Id.Protein>
6NUR|6NUR_protein|mol2

> <Gold.PLP.Fitness>
44.6595

> <Gold.PLP.PLP>
-33.3041

> <Gold.PLP.part.hbond>
-3.3212

> <Gold.PLP.part.metal>
0.0000

> <Gold.PLP.part.buried>
-4.4382

> <Gold.PLP.part.nonpolar>
-28.7060

> <Gold.PLP.part.repulsive>
2.9395

> <Gold.PLP.ligand.clash>
0.0000

> <Gold.PLP.ligand.torsion>
0.4079

> <Gold.PLP.Chemscore.Hbond>
3.9920

> <Gold.PLP.Chemscore.CHOScore>
0.0000

> <Gold.PLP.Chemscore.Metal>
0.0000

> <Gold.Chemscore.Hbonds>
donor molecule, donor type, donor heavy atom, donor atom, acceptor molecule, acceptor atom, score
      L1  H     3    43       P1  8028  2.00
      L1  H     7    28       P1  7948  0.99
      L1  H    10    29       P1  7948  1.00

> <Gold.PLP.Chemscore.Internal.Correction>
0.1950

> <Gold.Rescore>
     Score         DG    S(hbond)    S(metal)    S(lipo)     H(rot)  DE(clash)    DE(int)     intcor
     20.18     -22.92       2.92        0.00      87.46       1.00       0.91       1.83       ----

> <Gold.Chemscore.Fitness>
20.1800

> <Gold.Chemscore.DG>
-22.9223

> <Gold.Chemscore.ZeroCoef>
-5.4800

> <Gold.Chemscore.Hbond>
2.9250

> <Gold.Chemscore.Metal>
0.0000

> <Gold.Chemscore.Lipo>
87.4613

> <Gold.Chemscore.Internal_Hbond>
0.0000

> <Gold.Chemscore.DEClash>
0.9140

> <Gold.Chemscore.DEInternal>
1.8283

> <Gold.Chemscore.Rot>
1.0000

> <Gold.Chemscore.Internal.Correction>
   9.000000E+99

> <Gold.Chemscore.Hbonds>
donor molecule, donor type, donor heavy atom, donor atom, acceptor molecule, acceptor atom, score
      L1  H     3    43       P1  8028  0.98
      L1  H     7    28       P1  7948  0.93
      L1  H    10    29       P1  7948  0.99

> <Gold.Chemscore.Hbond.Weighted>
-9.7693

> <Gold.Chemscore.Metal.Weighted>
-0.0000

> <Gold.Chemscore.Lipo.Weighted>
-10.2330

> <Gold.Chemscore.Internal_Hbond.Weighted>
0.0000

> <Gold.Chemscore.DEClash.Weighted>
0.9140

> <Gold.Chemscore.DEInternal.Weighted>
1.8283

> <Gold.Chemscore.Rot.Weighted>
2.5600

> <Gold.Chemscore.Internal.Correction.Weighted>
   9.000000E+99

> <Gold.Protein.RotatedTorsions>
[ 6907 6896 6895 6894 ] final   85.93 input  -60.11 | X-H torsion
[ 7974 7965 7964 7962 ] final  -99.44 input  175.53 | X-H torsion
[ 8008 7997 7996 7995 ] final  -31.71 input   59.86 | X-H torsion
[ 10167 10162 10161 10158 ] final -135.68 input  -65.29 | X-H torsion
[ 10718 10713 10712 10709 ] final -158.91 input   66.30 | X-H torsion
[ 10763 10752 10751 10750 ] final   24.68 input  -60.55 | X-H torsion
[ 11005 11000 10999 10996 ] final   -0.02 input  -57.11 | X-H torsion

> <Gold.Protein.ActiveResidues>
 VAL166  LYS551  ARG553  GLY616  TRP617  ASP618  TYR619  PRO620  LYS621  CYS622 
 ASP623  PHE694  ASN695  SER759  ASP760  ASP761  ALA762  ILE779  LEU786  VAL792 
 PHE793  MET794  SER795  GLU796  ALA797  LYS798  CYS799  TRP800  GLU811  SER814 

> <Gold.Protein.RotatedAtoms>
  152.5384  134.2510  159.8898 H   0  0  0  0  0  0  0  0  0  0  0  0  # atno 6907 bound_to 6896
  151.2473  133.4361  159.2617 H   0  0  0  0  0  0  0  0  0  0  0  0  # atno 6908 bound_to 6896
  151.0571  134.9726  159.8298 H   0  0  0  0  0  0  0  0  0  0  0  0  # atno 6909 bound_to 6896
  145.3075  140.9392  143.2788 H   0  0  0  0  0  0  0  0  0  0  0  0  # atno 7974 bound_to 7965
  154.4204  140.1757  156.1610 H   0  0  0  0  0  0  0  0  0  0  0  0  # atno 8008 bound_to 7997
  155.9838  140.3375  155.6663 H   0  0  0  0  0  0  0  0  0  0  0  0  # atno 8009 bound_to 7997
  155.6465  140.0685  157.2592 H   0  0  0  0  0  0  0  0  0  0  0  0  # atno 8010 bound_to 7997
  139.8755  143.6904  152.2634 H   0  0  0  0  0  0  0  0  0  0  0  0  # atno 10167 bound_to 10162
  156.5608  130.8646  151.2809 H   0  0  0  0  0  0  0  0  0  0  0  0  # atno 10718 bound_to 10713
  153.0746  135.6600  154.0173 H   0  0  0  0  0  0  0  0  0  0  0  0  # atno 10763 bound_to 10752
  153.9810  135.2955  155.3421 H   0  0  0  0  0  0  0  0  0  0  0  0  # atno 10764 bound_to 10752
  154.7131  135.5197  153.8766 H   0  0  0  0  0  0  0  0  0  0  0  0  # atno 10765 bound_to 10752
  140.6316  133.9570  155.8277 H   0  0  0  0  0  0  0  0  0  0  0  0  # atno 11005 bound_to 11000
  144.9043  139.4610  143.6618 LP  0  0  0  0  0  0  0  0  0  0  0  0  # atno 17320 bound_to 7965
  146.3130  139.7814  142.9005 LP  0  0  0  0  0  0  0  0  0  0  0  0  # atno 17321 bound_to 7965
  139.7244  144.7596  151.0902 LP  0  0  0  0  0  0  0  0  0  0  0  0  # atno 17342 bound_to 10162
  140.7753  143.5166  150.9587 LP  0  0  0  0  0  0  0  0  0  0  0  0  # atno 17343 bound_to 10162
  157.7369  130.9786  150.2161 LP  0  0  0  0  0  0  0  0  0  0  0  0  # atno 17370 bound_to 10713
  156.2801  130.3732  149.7944 LP  0  0  0  0  0  0  0  0  0  0  0  0  # atno 17371 bound_to 10713
  141.0671  134.0260  157.3578 LP  0  0  0  0  0  0  0  0  0  0  0  0  # atno 17394 bound_to 11000
  139.9114  135.0190  156.7706 LP  0  0  0  0  0  0  0  0  0  0  0  0  # atno 17395 bound_to 11000

$$$$
