AV-unprocessed.smi:2986|AV-procd|sdf|11384|dock9
  -GOLD-   2272016303D 1   1.00000     0.00000
 Structure written by MMmdl.
 42 44  0  0  0  0  0  0  0  0  3 V2000
  155.4158  138.1248  159.4118 C   0  0  0  0  0  0  0  0  0  0  0  0
  155.3331  139.4345  158.8785 O   0  0  0  0  0  0  0  0  0  0  0  0
  155.0544  140.4095  159.8706 C   0  0  0  0  0  0  0  0  0  0  0  0
  153.6759  140.1447  160.4924 C   0  0  0  0  0  0  0  0  0  0  0  0
  152.5769  140.5031  159.5838 N   0  0  0  0  0  0  0  0  0  0  0  0
  151.5633  139.7400  159.0880 C   0  0  0  0  0  0  0  0  0  0  0  0
  151.2858  138.0307  159.4194 S   0  0  0  0  0  0  0  0  0  0  0  0
  149.6594  137.6614  158.7062 C   0  0  0  0  0  0  0  0  0  0  0  0
  148.7428  136.9380  159.6934 C   0  0  0  0  0  0  0  0  0  0  0  0
  147.9177  137.5928  160.3322 O   0  0  0  0  0  0  0  0  0  0  0  0
  148.9824  135.6046  159.7254 N   0  5  0  0  0  0  0  0  0  0  0  0
  148.0507  134.7727  160.2143 C   0  0  0  0  0  0  0  0  0  0  0  0
  147.5383  134.7784  161.5405 C   0  0  0  0  0  0  0  0  0  0  0  0
  146.6399  133.7493  161.5322 C   0  0  0  0  0  0  0  0  0  0  0  0
  145.7309  133.1882  162.5712 C   0  0  0  0  0  0  0  0  0  0  0  0
  146.6120  133.1567  160.3083 O   0  0  0  0  0  0  0  0  0  0  0  0
  147.5229  133.8135  159.4722 N   0  0  0  0  0  0  0  0  0  0  0  0
  150.8039  140.5332  158.2831 N   0  3  0  0  0  0  0  0  0  0  0  0
  151.3417  141.8207  158.2560 C   0  0  0  0  0  0  0  0  0  0  0  0
  150.9280  142.9656  157.5820 C   0  0  0  0  0  0  0  0  0  0  0  0
  151.7103  144.1249  157.7643 C   0  0  0  0  0  0  0  0  0  0  0  0
  152.8530  144.1171  158.5901 C   0  0  0  0  0  0  0  0  0  0  0  0
  153.2615  142.9513  159.2707 C   0  0  0  0  0  0  0  0  0  0  0  0
  152.4825  141.8089  159.0868 C   0  0  0  0  0  0  0  0  0  0  0  0
  155.6338  137.4172  158.6120 H   0  0  0  0  0  0  0  0  0  0  0  0
  154.4742  137.8284  159.8760 H   0  0  0  0  0  0  0  0  0  0  0  0
  156.2116  138.0501  160.1541 H   0  0  0  0  0  0  0  0  0  0  0  0
  155.8215  140.3824  160.6464 H   0  0  0  0  0  0  0  0  0  0  0  0
  155.0737  141.4066  159.4283 H   0  0  0  0  0  0  0  0  0  0  0  0
  153.5737  139.0864  160.7339 H   0  0  0  0  0  0  0  0  0  0  0  0
  153.5584  140.6847  161.4317 H   0  0  0  0  0  0  0  0  0  0  0  0
  149.2098  138.5893  158.3476 H   0  0  0  0  0  0  0  0  0  0  0  0
  149.7992  137.0244  157.8326 H   0  0  0  0  0  0  0  0  0  0  0  0
  147.7860  135.4345  162.3614 H   0  0  0  0  0  0  0  0  0  0  0  0
  146.0281  133.5186  163.5667 H   0  0  0  0  0  0  0  0  0  0  0  0
  145.7514  132.0984  162.5572 H   0  0  0  0  0  0  0  0  0  0  0  0
  144.7041  133.5109  162.3993 H   0  0  0  0  0  0  0  0  0  0  0  0
  150.0541  142.9728  156.9470 H   0  0  0  0  0  0  0  0  0  0  0  0
  151.4297  145.0379  157.2592 H   0  0  0  0  0  0  0  0  0  0  0  0
  153.4302  145.0236  158.7034 H   0  0  0  0  0  0  0  0  0  0  0  0
  154.1424  142.9560  159.8958 H   0  0  0  0  0  0  0  0  0  0  0  0
  149.9812  140.2122  157.7893 H   0  0  0  0  0  0  0  0  0  0  0  0
  1  2  1  0  0  0  0
  1 25  1  0  0  0  0
  1 26  1  0  0  0  0
  1 27  1  0  0  0  0
  2  3  1  0  0  0  0
  3  4  1  0  0  0  0
  3 28  1  0  0  0  0
  3 29  1  0  0  0  0
  4  5  1  0  0  0  0
  4 30  1  0  0  0  0
  4 31  1  0  0  0  0
  5 24  1  0  0  0  0
  5  6  1  0  0  0  0
  6  7  1  0  0  0  0
  6 18  2  0  0  0  0
  7  8  1  0  0  0  0
  8  9  1  0  0  0  0
  8 32  1  0  0  0  0
  8 33  1  0  0  0  0
  9 10  2  0  0  0  0
  9 11  1  0  0  0  0
 11 12  1  0  0  0  0
 12 17  2  0  0  0  0
 12 13  1  0  0  0  0
 13 14  2  0  0  0  0
 13 34  1  0  0  0  0
 14 15  1  0  0  0  0
 14 16  1  0  0  0  0
 15 35  1  0  0  0  0
 15 36  1  0  0  0  0
 15 37  1  0  0  0  0
 16 17  1  0  0  0  0
 18 19  1  0  0  0  0
 18 42  1  0  0  0  0
 19 24  2  0  0  0  0
 19 20  1  0  0  0  0
 20 21  2  0  0  0  0
 20 38  1  0  0  0  0
 21 22  1  0  0  0  0
 21 39  1  0  0  0  0
 22 23  2  0  0  0  0
 22 40  1  0  0  0  0
 23 24  1  0  0  0  0
 23 41  1  0  0  0  0
M  CHG  1  11  -1
M  CHG  1  18   1
M  END
> <s_m_source_file>
AV-unprocessed.smi

> <i_m_source_file_index>
2986

> <i_lp_mmshare_version>
43012

> <i_f3d_flags>
0

> <s_epik_input>
W2NIXTFbY0hdW2NIXVtjSF1jKGMxMiluKFtDSDJdW0NIMl1PW0NIM10pYyhuMilTW0NIMl1DKD1PKVtOSF1jM1tjSF1jKFtDSDNdKW9uMw==

> <s_epik_cmdline>
J2VwaWtfcHl0aG9uJywgJy1waCcsICc3LjAnLCAnLXRuJywgJzgnLCAnLW1hJywgJzIwMCcsICctbWV0YWxfYmluZGluZycsICctaW1hZScsICc8aW5maWxlLm1hZT4nLCAnLW9tYWUnLCAnPG91dGZpbGUubWFlPic=

> <r_epik_Ionization_Penalty>
5.85337

> <r_epik_Ionization_Penalty_Charging>
5.85335

> <r_epik_Ionization_Penalty_Neutral>
1.96301e-05

> <r_epik_State_Penalty>
6.06575

> <r_epik_Charging_Adjusted_Penalty>
11.9191

> <i_epik_Tot_Q>
0

> <i_epik_Tot_abs_Q>
2

> <r_epik_Metal_State_Penalty>
2.64129

> <b_epik_Metal_Only>
1

> <s_lp_Force_Field>
OPLS_2005

> <r_lp_Energy>
5.16942

> <b_lp_Chiralities_Consistent>
1

> <s_lp_Variant>
AV-unprocessed.smi:2986-4

> <Gold.Version>
5.8.1

> <Gold.Id.Protein>
6NUR|6NUR_protein|mol2

> <Gold.PLP.Fitness>
53.6575

> <Gold.PLP.PLP>
-44.4668

> <Gold.PLP.part.hbond>
-4.0000

> <Gold.PLP.part.metal>
0.0000

> <Gold.PLP.part.buried>
-3.8569

> <Gold.PLP.part.nonpolar>
-37.4607

> <Gold.PLP.part.repulsive>
0.1244

> <Gold.PLP.ligand.clash>
0.0000

> <Gold.PLP.ligand.torsion>
1.4578

> <Gold.PLP.Chemscore.Hbond>
3.9382

> <Gold.PLP.Chemscore.CHOScore>
0.0000

> <Gold.PLP.Chemscore.Metal>
0.0000

> <Gold.Chemscore.Hbonds>
donor molecule, donor type, donor heavy atom, donor atom, acceptor molecule, acceptor atom, score
      P1  H  6896  6907       L1    11  2.00
      P1  H  6931  6943       L1    10  0.53
      P1  H  6934  6947       L1    10  0.69
      P1  H  7997  8008       L1     2  1.00

> <Gold.PLP.Chemscore.Internal.Correction>
0.2915

> <Gold.Rescore>
     Score         DG    S(hbond)    S(metal)    S(lipo)     H(rot)  DE(clash)    DE(int)     intcor
     19.56     -21.92       3.05        0.00     103.32       2.27       0.11       2.25       ----

> <Gold.Chemscore.Fitness>
19.5605

> <Gold.Chemscore.DG>
-21.9219

> <Gold.Chemscore.ZeroCoef>
-5.4800

> <Gold.Chemscore.Hbond>
3.0462

> <Gold.Chemscore.Metal>
0.0000

> <Gold.Chemscore.Lipo>
103.3196

> <Gold.Chemscore.Internal_Hbond>
0.0000

> <Gold.Chemscore.DEClash>
0.1074

> <Gold.Chemscore.DEInternal>
2.2540

> <Gold.Chemscore.Rot>
2.2738

> <Gold.Chemscore.Internal.Correction>
   9.000000E+99

> <Gold.Chemscore.Hbonds>
donor molecule, donor type, donor heavy atom, donor atom, acceptor molecule, acceptor atom, score
      P1  H  6896  6907       L1    11  0.76
      P1  H  6931  6943       L1    10  0.17
      P1  H  6934  6947       L1    10  0.70
      P1  H  7997  8008       L1     2  0.90

> <Gold.Chemscore.Hbond.Weighted>
-10.1743

> <Gold.Chemscore.Metal.Weighted>
-0.0000

> <Gold.Chemscore.Lipo.Weighted>
-12.0884

> <Gold.Chemscore.Internal_Hbond.Weighted>
0.0000

> <Gold.Chemscore.DEClash.Weighted>
0.1074

> <Gold.Chemscore.DEInternal.Weighted>
2.2540

> <Gold.Chemscore.Rot.Weighted>
5.8209

> <Gold.Chemscore.Internal.Correction.Weighted>
   9.000000E+99

> <Gold.Protein.RotatedTorsions>
[ 6907 6896 6895 6894 ] final  -59.41 input  -60.11 | X-H torsion
[ 7974 7965 7964 7962 ] final  -18.67 input  175.53 | X-H torsion
[ 8008 7997 7996 7995 ] final -141.57 input   59.86 | X-H torsion
[ 10167 10162 10161 10158 ] final -143.47 input  -65.29 | X-H torsion
[ 10718 10713 10712 10709 ] final   63.37 input   66.30 | X-H torsion
[ 10763 10752 10751 10750 ] final -160.29 input  -60.55 | X-H torsion
[ 11005 11000 10999 10996 ] final   11.67 input  -57.11 | X-H torsion

> <Gold.Protein.ActiveResidues>
 VAL166  LYS551  ARG553  GLY616  TRP617  ASP618  TYR619  PRO620  LYS621  CYS622 
 ASP623  PHE694  ASN695  SER759  ASP760  ASP761  ALA762  ILE779  LEU786  VAL792 
 PHE793  MET794  SER795  GLU796  ALA797  LYS798  CYS799  TRP800  GLU811  SER814 

> <Gold.Protein.RotatedAtoms>
  150.7932  134.6972  159.6529 H   0  0  0  0  0  0  0  0  0  0  0  0  # atno 6907 bound_to 6896
  152.4041  134.6234  160.0066 H   0  0  0  0  0  0  0  0  0  0  0  0  # atno 6908 bound_to 6896
  151.6496  133.3285  159.3185 H   0  0  0  0  0  0  0  0  0  0  0  0  # atno 6909 bound_to 6896
  146.1880  140.3954  142.8469 H   0  0  0  0  0  0  0  0  0  0  0  0  # atno 7974 bound_to 7965
  155.4799  140.0559  157.2968 H   0  0  0  0  0  0  0  0  0  0  0  0  # atno 8008 bound_to 7997
  154.4664  140.2020  156.0059 H   0  0  0  0  0  0  0  0  0  0  0  0  # atno 8009 bound_to 7997
  156.0982  140.3223  155.7910 H   0  0  0  0  0  0  0  0  0  0  0  0  # atno 8010 bound_to 7997
  139.7990  143.7860  152.2656 H   0  0  0  0  0  0  0  0  0  0  0  0  # atno 10167 bound_to 10162
  157.5967  130.9102  149.9708 H   0  0  0  0  0  0  0  0  0  0  0  0  # atno 10718 bound_to 10713
  154.7402  135.3067  154.8741 H   0  0  0  0  0  0  0  0  0  0  0  0  # atno 10763 bound_to 10752
  153.9557  135.6759  153.4748 H   0  0  0  0  0  0  0  0  0  0  0  0  # atno 10764 bound_to 10752
  153.1002  135.4916  154.8777 H   0  0  0  0  0  0  0  0  0  0  0  0  # atno 10765 bound_to 10752
  140.5006  134.0749  155.7793 H   0  0  0  0  0  0  0  0  0  0  0  0  # atno 11005 bound_to 11000
  144.8434  140.6891  143.6215 LP  0  0  0  0  0  0  0  0  0  0  0  0  # atno 17320 bound_to 7965
  145.3879  139.1623  143.4245 LP  0  0  0  0  0  0  0  0  0  0  0  0  # atno 17321 bound_to 7965
  139.7974  144.7387  150.9871 LP  0  0  0  0  0  0  0  0  0  0  0  0  # atno 17342 bound_to 10162
  140.7820  143.4380  151.0595 LP  0  0  0  0  0  0  0  0  0  0  0  0  # atno 17343 bound_to 10162
  156.1031  130.3654  150.0183 LP  0  0  0  0  0  0  0  0  0  0  0  0  # atno 17370 bound_to 10713
  156.8295  130.9387  151.3638 LP  0  0  0  0  0  0  0  0  0  0  0  0  # atno 17371 bound_to 10713
  141.1437  133.9092  157.2265 LP  0  0  0  0  0  0  0  0  0  0  0  0  # atno 17394 bound_to 11000
  139.9715  135.0126  156.9525 LP  0  0  0  0  0  0  0  0  0  0  0  0  # atno 17395 bound_to 11000

$$$$
