AV-unprocessed.smi:2528|AV-procd|sdf|9957|dock10
  -GOLD-   2272013593D 1   1.00000     0.00000
 Structure written by MMmdl.
 43 45  0  0  0  0  0  0  0  0  1 V2000
  150.5639  136.3770  158.7969 O   0  0  0  0  0  0  0  0  0  0  0  0
  150.6686  136.8419  157.6618 C   0  0  0  0  0  0  0  0  0  0  0  0
  150.9228  138.1341  157.4097 N   0  0  0  0  0  0  0  0  0  0  0  0
  151.1376  139.1676  158.4173 C   0  0  0  0  0  0  0  0  0  0  0  0
  152.2341  140.1616  157.9789 C   0  0  1  0  0  0  0  0  0  0  0  0
  151.7842  141.6345  158.0503 C   0  0  0  0  0  0  0  0  0  0  0  0
  151.7056  142.1410  159.4154 N   0  0  0  0  0  0  0  0  0  0  0  0
  151.3041  143.5473  159.4313 C   0  0  0  0  0  0  0  0  0  0  0  0
  151.1857  144.1105  160.8561 C   0  0  0  0  0  0  0  0  0  0  0  0
  152.5103  143.9299  161.6102 C   0  0  0  0  0  0  0  0  0  0  0  0
  152.9518  142.4599  161.5503 C   0  0  0  0  0  0  0  0  0  0  0  0
  152.9905  141.9511  160.0940 C   0  0  1  0  0  0  0  0  0  0  0  0
  153.4171  140.4714  160.0549 C   0  0  0  0  0  0  0  0  0  0  0  0
  153.4498  139.9959  158.7112 O   0  0  0  0  0  0  0  0  0  0  0  0
  150.5476  136.1398  156.5213 N   0  0  0  0  0  0  0  0  0  0  0  0
  150.2736  134.7544  156.3668 C   0  0  0  0  0  0  0  0  0  0  0  0
  150.2548  134.2930  155.0308 C   0  0  0  0  0  0  0  0  0  0  0  0
  149.9901  132.9344  154.7700 C   0  0  0  0  0  0  0  0  0  0  0  0
  149.7507  132.0705  155.8534 C   0  0  0  0  0  0  0  0  0  0  0  0
  149.7875  132.6102  157.1523 C   0  0  0  0  0  0  0  0  0  0  0  0
  150.0408  133.9118  157.4043 N   0  0  0  0  0  0  0  0  0  0  0  0
  150.9901  138.4242  156.4452 H   0  0  0  0  0  0  0  0  0  0  0  0
  150.1943  139.7015  158.5344 H   0  0  0  0  0  0  0  0  0  0  0  0
  151.3545  138.7328  159.3938 H   0  0  0  0  0  0  0  0  0  0  0  0
  152.4695  139.9440  156.9363 H   0  0  0  0  0  0  0  0  0  0  0  0
  152.4915  142.2411  157.4826 H   0  0  0  0  0  0  0  0  0  0  0  0
  150.8193  141.7483  157.5548 H   0  0  0  0  0  0  0  0  0  0  0  0
  152.0227  144.1437  158.8667 H   0  0  0  0  0  0  0  0  0  0  0  0
  150.3451  143.6596  158.9244 H   0  0  0  0  0  0  0  0  0  0  0  0
  150.9125  145.1655  160.8226 H   0  0  0  0  0  0  0  0  0  0  0  0
  150.3842  143.5965  161.3885 H   0  0  0  0  0  0  0  0  0  0  0  0
  153.2774  144.5612  161.1601 H   0  0  0  0  0  0  0  0  0  0  0  0
  152.4055  144.2530  162.6462 H   0  0  0  0  0  0  0  0  0  0  0  0
  153.9326  142.3507  162.0144 H   0  0  0  0  0  0  0  0  0  0  0  0
  152.2617  141.8506  162.1359 H   0  0  0  0  0  0  0  0  0  0  0  0
  153.7504  142.5259  159.5615 H   0  0  0  0  0  0  0  0  0  0  0  0
  154.4113  140.3517  160.4856 H   0  0  0  0  0  0  0  0  0  0  0  0
  152.7436  139.8610  160.6562 H   0  0  0  0  0  0  0  0  0  0  0  0
  150.6644  136.6572  155.6629 H   0  0  0  0  0  0  0  0  0  0  0  0
  150.4408  134.9705  154.2101 H   0  0  0  0  0  0  0  0  0  0  0  0
  149.9714  132.5625  153.7565 H   0  0  0  0  0  0  0  0  0  0  0  0
  149.5440  131.0225  155.6938 H   0  0  0  0  0  0  0  0  0  0  0  0
  149.6087  131.9812  158.0117 H   0  0  0  0  0  0  0  0  0  0  0  0
  1  2  2  0  0  0  0
  2  3  1  0  0  0  0
  2 15  1  0  0  0  0
  3  4  1  0  0  0  0
  3 22  1  0  0  0  0
  4  5  1  0  0  0  0
  4 23  1  0  0  0  0
  4 24  1  0  0  0  0
  5 14  1  0  0  0  0
  5  6  1  0  0  0  0
  5 25  1  0  0  0  0
  6  7  1  0  0  0  0
  6 26  1  0  0  0  0
  6 27  1  0  0  0  0
  7 12  1  0  0  0  0
  7  8  1  0  0  0  0
  8  9  1  0  0  0  0
  8 28  1  0  0  0  0
  8 29  1  0  0  0  0
  9 10  1  0  0  0  0
  9 30  1  0  0  0  0
  9 31  1  0  0  0  0
 10 11  1  0  0  0  0
 10 32  1  0  0  0  0
 10 33  1  0  0  0  0
 11 12  1  0  0  0  0
 11 34  1  0  0  0  0
 11 35  1  0  0  0  0
 12 13  1  0  0  0  0
 12 36  1  0  0  0  0
 13 14  1  0  0  0  0
 13 37  1  0  0  0  0
 13 38  1  0  0  0  0
 15 16  1  0  0  0  0
 15 39  1  0  0  0  0
 16 21  1  0  0  0  0
 16 17  2  0  0  0  0
 17 18  1  0  0  0  0
 17 40  1  0  0  0  0
 18 19  2  0  0  0  0
 18 41  1  0  0  0  0
 19 20  1  0  0  0  0
 19 42  1  0  0  0  0
 20 21  2  0  0  0  0
 20 43  1  0  0  0  0
M  END
> <s_m_source_file>
AV-unprocessed.smi

> <i_m_source_file_index>
2528

> <i_lp_mmshare_version>
43012

> <i_f3d_flags>
0

> <s_epik_input>
bjFbY0hdW2NIXVtjSF1bY0hdYzFbTkhdQyg9TylbTkhdW0NIMl1bQ0BIXShbQ0gyXTIpT1tDSDJdW0NAQEhdKE4yMylbQ0gyXVtDSDJdW0NIMl1bQ0gyXTM=

> <s_epik_cmdline>
J2VwaWtfcHl0aG9uJywgJy1waCcsICc3LjAnLCAnLXRuJywgJzgnLCAnLW1hJywgJzIwMCcsICctbWV0YWxfYmluZGluZycsICctaW1hZScsICc8aW5maWxlLm1hZT4nLCAnLW9tYWUnLCAnPG91dGZpbGUubWFlPic=

> <r_epik_Ionization_Penalty>
1.14192

> <r_epik_Ionization_Penalty_Charging>
0

> <r_epik_Ionization_Penalty_Neutral>
1.14192

> <r_epik_State_Penalty>
1.20248

> <r_epik_Charging_Adjusted_Penalty>
1.20248

> <i_epik_Tot_Q>
0

> <i_epik_Tot_abs_Q>
0

> <r_epik_Metal_State_Penalty>
1.20248

> <b_epik_Metal_Only>
0

> <s_lp_Force_Field>
OPLS_2005

> <r_lp_Energy>
38.6775

> <b_lp_Chiralities_Consistent>
1

> <s_lp_Variant>
AV-unprocessed.smi:2528-10

> <Gold.Version>
5.8.1

> <Gold.Id.Protein>
6NUR|6NUR_protein|mol2

> <Gold.PLP.Fitness>
41.6002

> <Gold.PLP.PLP>
-35.7169

> <Gold.PLP.part.hbond>
-3.0000

> <Gold.PLP.part.metal>
0.0000

> <Gold.PLP.part.buried>
-5.8462

> <Gold.PLP.part.nonpolar>
-27.3432

> <Gold.PLP.part.repulsive>
0.1101

> <Gold.PLP.ligand.clash>
0.0000

> <Gold.PLP.ligand.torsion>
0.8535

> <Gold.PLP.Chemscore.Hbond>
2.5273

> <Gold.PLP.Chemscore.CHOScore>
0.0000

> <Gold.PLP.Chemscore.Metal>
0.0000

> <Gold.Chemscore.Hbonds>
donor molecule, donor type, donor heavy atom, donor atom, acceptor molecule, acceptor atom, score
      P1  H  6896  6907       L1     1  0.75
      P1  H  6896  6909       L1    21  0.79
      P1  H  7997  8008       L1    14  0.98

> <Gold.PLP.Chemscore.Internal.Correction>
0.0083

> <Gold.Rescore>
     Score         DG    S(hbond)    S(metal)    S(lipo)     H(rot)  DE(clash)    DE(int)     intcor
     17.89     -20.07       1.98        0.00      95.90       1.27       0.03       2.16       ----

> <Gold.Chemscore.Fitness>
17.8860

> <Gold.Chemscore.DG>
-20.0728

> <Gold.Chemscore.ZeroCoef>
-5.4800

> <Gold.Chemscore.Hbond>
1.9827

> <Gold.Chemscore.Metal>
0.0000

> <Gold.Chemscore.Lipo>
95.9027

> <Gold.Chemscore.Internal_Hbond>
0.0000

> <Gold.Chemscore.DEClash>
0.0272

> <Gold.Chemscore.DEInternal>
2.1596

> <Gold.Chemscore.Rot>
1.2696

> <Gold.Chemscore.Internal.Correction>
   9.000000E+99

> <Gold.Chemscore.Hbonds>
donor molecule, donor type, donor heavy atom, donor atom, acceptor molecule, acceptor atom, score
      P1  H  6896  6907       L1     1  0.74
      P1  H  6896  6909       L1    21  0.14
      P1  H  7997  8008       L1    14  0.30

> <Gold.Chemscore.Hbond.Weighted>
-6.6224

> <Gold.Chemscore.Metal.Weighted>
-0.0000

> <Gold.Chemscore.Lipo.Weighted>
-11.2206

> <Gold.Chemscore.Internal_Hbond.Weighted>
0.0000

> <Gold.Chemscore.DEClash.Weighted>
0.0272

> <Gold.Chemscore.DEInternal.Weighted>
2.1596

> <Gold.Chemscore.Rot.Weighted>
3.2502

> <Gold.Chemscore.Internal.Correction.Weighted>
   9.000000E+99

> <Gold.Protein.RotatedTorsions>
[ 6907 6896 6895 6894 ] final  -11.15 input  -60.11 | X-H torsion
[ 7974 7965 7964 7962 ] final  126.76 input  175.53 | X-H torsion
[ 8008 7997 7996 7995 ] final -105.38 input   59.86 | X-H torsion
[ 10167 10162 10161 10158 ] final  163.82 input  -65.29 | X-H torsion
[ 10718 10713 10712 10709 ] final  105.93 input   66.30 | X-H torsion
[ 10763 10752 10751 10750 ] final  108.82 input  -60.55 | X-H torsion
[ 11005 11000 10999 10996 ] final -118.48 input  -57.11 | X-H torsion

> <Gold.Protein.ActiveResidues>
 VAL166  LYS551  ARG553  GLY616  TRP617  ASP618  TYR619  PRO620  LYS621  CYS622 
 ASP623  PHE694  ASN695  SER759  ASP760  ASP761  ALA762  ILE779  LEU786  VAL792 
 PHE793  MET794  SER795  GLU796  ALA797  LYS798  CYS799  TRP800  GLU811  SER814 

> <Gold.Protein.RotatedAtoms>
  151.3907  135.0955  159.9524 H   0  0  0  0  0  0  0  0  0  0  0  0  # atno 6907 bound_to 6896
  152.5080  133.8982  159.7438 H   0  0  0  0  0  0  0  0  0  0  0  0  # atno 6908 bound_to 6896
  150.9435  133.6573  159.2814 H   0  0  0  0  0  0  0  0  0  0  0  0  # atno 6909 bound_to 6896
  145.0581  139.3828  143.5020 H   0  0  0  0  0  0  0  0  0  0  0  0  # atno 7974 bound_to 7965
  154.8990  140.0413  157.1882 H   0  0  0  0  0  0  0  0  0  0  0  0  # atno 8008 bound_to 7997
  154.8463  140.2922  155.5606 H   0  0  0  0  0  0  0  0  0  0  0  0  # atno 8009 bound_to 7997
  156.2994  140.2473  156.3414 H   0  0  0  0  0  0  0  0  0  0  0  0  # atno 8010 bound_to 7997
  139.4879  144.4298  151.9084 H   0  0  0  0  0  0  0  0  0  0  0  0  # atno 10167 bound_to 10162
  157.6687  131.0839  150.5931 H   0  0  0  0  0  0  0  0  0  0  0  0  # atno 10718 bound_to 10713
  153.4260  135.3800  155.2141 H   0  0  0  0  0  0  0  0  0  0  0  0  # atno 10763 bound_to 10752
  154.8747  135.3828  154.4326 H   0  0  0  0  0  0  0  0  0  0  0  0  # atno 10764 bound_to 10752
  153.4853  135.7088  153.5978 H   0  0  0  0  0  0  0  0  0  0  0  0  # atno 10765 bound_to 10752
  141.0283  134.0020  157.3182 H   0  0  0  0  0  0  0  0  0  0  0  0  # atno 11005 bound_to 11000
  146.3522  140.0265  142.8654 LP  0  0  0  0  0  0  0  0  0  0  0  0  # atno 17320 bound_to 7965
  145.1443  140.9588  143.4470 LP  0  0  0  0  0  0  0  0  0  0  0  0  # atno 17321 bound_to 7965
  140.3745  144.2813  150.5916 LP  0  0  0  0  0  0  0  0  0  0  0  0  # atno 17342 bound_to 10162
  140.5289  143.2248  151.8271 LP  0  0  0  0  0  0  0  0  0  0  0  0  # atno 17343 bound_to 10162
  156.6231  130.4411  149.5815 LP  0  0  0  0  0  0  0  0  0  0  0  0  # atno 17370 bound_to 10713
  156.2340  130.6811  151.1491 LP  0  0  0  0  0  0  0  0  0  0  0  0  # atno 17371 bound_to 10713
  139.9190  135.0199  156.7993 LP  0  0  0  0  0  0  0  0  0  0  0  0  # atno 17394 bound_to 11000
  140.6453  133.9781  155.7727 LP  0  0  0  0  0  0  0  0  0  0  0  0  # atno 17395 bound_to 11000

$$$$
