AV-unprocessed.smi:104|AV-procd|sdf|1005|dock10
  -GOLD-   2262018 03D 1   1.00000     0.00000
 Structure written by MMmdl.
 47 49  0  0  0  0  0  0  0  0  1 V2000
  149.8213  133.2698  154.0905 C   0  0  0  0  0  0  0  0  0  0  0  0
  149.0774  134.5958  154.0041 C   0  0  0  0  0  0  0  0  0  0  0  0
  148.6760  135.0363  152.9274 O   0  0  0  0  0  0  0  0  0  0  0  0
  148.9314  135.1796  155.2060 O   0  0  0  0  0  0  0  0  0  0  0  0
  148.2779  136.4358  155.3297 C   0  0  0  0  0  0  0  0  0  0  0  0
  148.5822  137.0777  156.6951 C   0  0  2  0  0  0  0  0  0  0  0  0
  149.9662  136.9666  157.0240 O   0  0  0  0  0  0  0  0  0  0  0  0
  150.1137  136.9141  158.4127 C   0  0  1  0  0  0  0  0  0  0  0  0
  151.0045  138.0226  158.8727 N   0  0  0  0  0  0  0  0  0  0  0  0
  150.8400  139.3785  158.7058 C   0  0  0  0  0  0  0  0  0  0  0  0
  149.3454  140.1147  157.7830 Br  0  0  0  0  0  0  0  0  0  0  0  0
  151.7664  140.1563  159.1913 N   0  0  0  0  0  0  0  0  0  0  0  0
  152.6689  139.2521  159.7366 C   0  0  0  0  0  0  0  0  0  0  0  0
  153.9056  139.3853  160.4167 C   0  0  0  0  0  0  0  0  0  0  0  0
  154.4711  140.5712  160.6813 N   0  0  0  0  0  0  0  0  0  0  0  0
  154.5490  138.2634  160.8159 N   0  0  0  0  0  0  0  0  0  0  0  0
  154.0082  137.0679  160.5619 C   0  0  0  0  0  0  0  0  0  0  0  0
  152.8610  136.7853  159.9392 N   0  0  0  0  0  0  0  0  0  0  0  0
  152.2096  137.9164  159.5393 C   0  0  0  0  0  0  0  0  0  0  0  0
  148.7239  137.0638  159.0275 C   0  0  2  0  0  0  0  0  0  0  0  0
  148.6327  136.3568  160.2573 O   0  0  0  0  0  0  0  0  0  0  0  0
  147.5740  136.5374  161.0620 C   0  0  0  0  0  0  0  0  0  0  0  0
  147.6547  135.6877  162.3227 C   0  0  0  0  0  0  0  0  0  0  0  0
  146.6196  137.2848  160.8484 O   0  0  0  0  0  0  0  0  0  0  0  0
  147.8438  136.5124  157.9140 C   0  0  2  0  0  0  0  0  0  0  0  0
  147.8698  135.0862  157.8733 O   0  0  0  0  0  0  0  0  0  0  0  0
  147.0357  134.3622  158.6419 C   0  0  0  0  0  0  0  0  0  0  0  0
  147.3194  132.8691  158.5562 C   0  0  0  0  0  0  0  0  0  0  0  0
  146.1331  134.8059  159.3515 O   0  0  0  0  0  0  0  0  0  0  0  0
  150.8927  133.4449  154.1870 H   0  0  0  0  0  0  0  0  0  0  0  0
  149.6470  132.6750  153.1934 H   0  0  0  0  0  0  0  0  0  0  0  0
  149.4836  132.6970  154.9543 H   0  0  0  0  0  0  0  0  0  0  0  0
  148.4992  137.1081  154.4999 H   0  0  0  0  0  0  0  0  0  0  0  0
  147.2086  136.2316  155.2736 H   0  0  0  0  0  0  0  0  0  0  0  0
  148.3684  138.1452  156.6281 H   0  0  0  0  0  0  0  0  0  0  0  0
  150.6194  135.9874  158.6836 H   0  0  0  0  0  0  0  0  0  0  0  0
  154.0125  141.4231  160.3919 H   0  0  0  0  0  0  0  0  0  0  0  0
  155.3541  140.6107  161.1695 H   0  0  0  0  0  0  0  0  0  0  0  0
  154.5752  136.2157  160.9068 H   0  0  0  0  0  0  0  0  0  0  0  0
  148.5236  138.1292  159.1580 H   0  0  0  0  0  0  0  0  0  0  0  0
  148.5462  135.9440  162.8954 H   0  0  0  0  0  0  0  0  0  0  0  0
  147.7009  134.6301  162.0627 H   0  0  0  0  0  0  0  0  0  0  0  0
  146.7797  135.8509  162.9521 H   0  0  0  0  0  0  0  0  0  0  0  0
  146.8228  136.8933  157.9672 H   0  0  0  0  0  0  0  0  0  0  0  0
  148.3404  132.6587  158.8747 H   0  0  0  0  0  0  0  0  0  0  0  0
  147.1952  132.5196  157.5311 H   0  0  0  0  0  0  0  0  0  0  0  0
  146.6354  132.3119  159.1969 H   0  0  0  0  0  0  0  0  0  0  0  0
  1  2  1  0  0  0  0
  1 30  1  0  0  0  0
  1 31  1  0  0  0  0
  1 32  1  0  0  0  0
  2  3  2  0  0  0  0
  2  4  1  0  0  0  0
  4  5  1  0  0  0  0
  5  6  1  0  0  0  0
  5 33  1  0  0  0  0
  5 34  1  0  0  0  0
  6 25  1  0  0  0  0
  6  7  1  0  0  0  0
  6 35  1  0  0  0  0
  7  8  1  0  0  0  0
  8  9  1  0  0  0  0
  8 20  1  0  0  0  0
  8 36  1  0  0  0  0
  9 19  1  0  0  0  0
  9 10  1  0  0  0  0
 10 11  1  0  0  0  0
 10 12  2  0  0  0  0
 12 13  1  0  0  0  0
 13 19  2  0  0  0  0
 13 14  1  0  0  0  0
 14 15  1  0  0  0  0
 14 16  2  0  0  0  0
 15 37  1  0  0  0  0
 15 38  1  0  0  0  0
 16 17  1  0  0  0  0
 17 18  2  0  0  0  0
 17 39  1  0  0  0  0
 18 19  1  0  0  0  0
 20 21  1  0  0  0  0
 20 25  1  0  0  0  0
 20 40  1  0  0  0  0
 21 22  1  0  0  0  0
 22 23  1  0  0  0  0
 22 24  2  0  0  0  0
 23 41  1  0  0  0  0
 23 42  1  0  0  0  0
 23 43  1  0  0  0  0
 25 26  1  0  0  0  0
 25 44  1  0  0  0  0
 26 27  1  0  0  0  0
 27 28  1  0  0  0  0
 27 29  2  0  0  0  0
 28 45  1  0  0  0  0
 28 46  1  0  0  0  0
 28 47  1  0  0  0  0
M  END
> <s_m_source_file>
AV-unprocessed.smi

> <i_m_source_file_index>
104

> <i_lp_mmshare_version>
43012

> <i_f3d_flags>
0

> <s_epik_input>
W0NIM11DKD1PKU9bQ0gyXVtDQEBIXTFPW0NASF0oW0NAQEhdKE9DKD1PKVtDSDNdKVtDQEhdMU9DKD1PKVtDSDNdKW4oYyhCciluMiljKGMyMyluW2NIXW5jM1tOSDJd

> <s_epik_cmdline>
J2VwaWtfcHl0aG9uJywgJy1waCcsICc3LjAnLCAnLXRuJywgJzgnLCAnLW1hJywgJzIwMCcsICctbWV0YWxfYmluZGluZycsICctaW1hZScsICc8aW5maWxlLm1hZT4nLCAnLW9tYWUnLCAnPG91dGZpbGUubWFlPic=

> <r_lp_tautomer_probability>
1

> <r_epik_Ionization_Penalty>
7.36622e-05

> <r_epik_Ionization_Penalty_Charging>
0

> <r_epik_Ionization_Penalty_Neutral>
7.36622e-05

> <r_epik_State_Penalty>
-0

> <r_epik_Charging_Adjusted_Penalty>
0

> <i_epik_Tot_Q>
0

> <i_epik_Tot_abs_Q>
0

> <r_epik_Metal_State_Penalty>
-0

> <b_epik_Metal_Only>
0

> <s_epik_Chemistry_Notes>
This compound has an ester and may undergo hydrolysis at high or low pH. This compound contains an acetal/aminal-like group ( X-CH(R)-Y where X, Y are N, S, or O) that may be acid/base labile, releasing an aldehyde.

> <s_lp_Force_Field>
OPLS_2005

> <r_lp_Energy>
18.0917

> <b_lp_Chiralities_Consistent>
1

> <s_lp_Variant>
AV-unprocessed.smi:104-13

> <Gold.Version>
5.8.1

> <Gold.Id.Protein>
6NUR|6NUR_protein|mol2

> <Gold.PLP.Fitness>
36.1642

> <Gold.PLP.PLP>
-30.9183

> <Gold.PLP.part.hbond>
-1.9770

> <Gold.PLP.part.metal>
0.0000

> <Gold.PLP.part.buried>
-6.1641

> <Gold.PLP.part.nonpolar>
-23.5976

> <Gold.PLP.part.repulsive>
0.6907

> <Gold.PLP.ligand.clash>
0.0000

> <Gold.PLP.ligand.torsion>
0.5332

> <Gold.PLP.Chemscore.Hbond>
2.0000

> <Gold.PLP.Chemscore.CHOScore>
0.0000

> <Gold.PLP.Chemscore.Metal>
0.0000

> <Gold.Chemscore.Hbonds>
donor molecule, donor type, donor heavy atom, donor atom, acceptor molecule, acceptor atom, score
      P1  H  6896  6909       L1    18  1.00
      P1  H  6934  6947       L1    24  1.00

> <Gold.PLP.Chemscore.Internal.Correction>
0.3122

> <Gold.Rescore>
     Score         DG    S(hbond)    S(metal)    S(lipo)     H(rot)  DE(clash)    DE(int)     intcor
      3.84      -4.97       1.93        0.00      34.77       4.31       0.02       1.11       ----

> <Gold.Chemscore.Fitness>
3.8357

> <Gold.Chemscore.DG>
-4.9705

> <Gold.Chemscore.ZeroCoef>
-5.4800

> <Gold.Chemscore.Hbond>
1.9306

> <Gold.Chemscore.Metal>
0.0000

> <Gold.Chemscore.Lipo>
34.7704

> <Gold.Chemscore.Internal_Hbond>
0.0000

> <Gold.Chemscore.DEClash>
0.0203

> <Gold.Chemscore.DEInternal>
1.1146

> <Gold.Chemscore.Rot>
4.3070

> <Gold.Chemscore.Internal.Correction>
   9.000000E+99

> <Gold.Chemscore.Hbonds>
donor molecule, donor type, donor heavy atom, donor atom, acceptor molecule, acceptor atom, score
      P1  H  6896  6909       L1    18  0.98
      P1  H  6934  6947       L1    24  0.74

> <Gold.Chemscore.Hbond.Weighted>
-6.4483

> <Gold.Chemscore.Metal.Weighted>
-0.0000

> <Gold.Chemscore.Lipo.Weighted>
-4.0681

> <Gold.Chemscore.Internal_Hbond.Weighted>
0.0000

> <Gold.Chemscore.DEClash.Weighted>
0.0203

> <Gold.Chemscore.DEInternal.Weighted>
1.1146

> <Gold.Chemscore.Rot.Weighted>
11.0259

> <Gold.Chemscore.Internal.Correction.Weighted>
   9.000000E+99

> <Gold.Protein.RotatedTorsions>
[ 6907 6896 6895 6894 ] final  142.90 input  -60.11 | X-H torsion
[ 7974 7965 7964 7962 ] final  -35.55 input  175.53 | X-H torsion
[ 8008 7997 7996 7995 ] final -140.58 input   59.86 | X-H torsion
[ 10167 10162 10161 10158 ] final  175.27 input  -65.29 | X-H torsion
[ 10718 10713 10712 10709 ] final  -32.91 input   66.30 | X-H torsion
[ 10763 10752 10751 10750 ] final   40.06 input  -60.55 | X-H torsion
[ 11005 11000 10999 10996 ] final  138.87 input  -57.11 | X-H torsion

> <Gold.Protein.ActiveResidues>
 VAL166  LYS551  ARG553  GLY616  TRP617  ASP618  TYR619  PRO620  LYS621  CYS622 
 ASP623  PHE694  ASN695  SER759  ASP760  ASP761  ALA762  ILE779  LEU786  VAL792 
 PHE793  MET794  SER795  GLU796  ALA797  LYS798  CYS799  TRP800  GLU811  SER814 

> <Gold.Protein.RotatedAtoms>
  152.2129  133.4925  159.5119 H   0  0  0  0  0  0  0  0  0  0  0  0  # atno 6907 bound_to 6896
  150.6994  134.1443  159.4125 H   0  0  0  0  0  0  0  0  0  0  0  0  # atno 6908 bound_to 6896
  151.9363  135.0234  160.0583 H   0  0  0  0  0  0  0  0  0  0  0  0  # atno 6909 bound_to 6896
  146.0737  140.6173  142.8941 H   0  0  0  0  0  0  0  0  0  0  0  0  # atno 7974 bound_to 7965
  155.4637  140.0547  157.2988 H   0  0  0  0  0  0  0  0  0  0  0  0  # atno 8008 bound_to 7997
  154.4727  140.2047  155.9910 H   0  0  0  0  0  0  0  0  0  0  0  0  # atno 8009 bound_to 7997
  156.1081  140.3208  155.8039 H   0  0  0  0  0  0  0  0  0  0  0  0  # atno 8010 bound_to 7997
  139.5171  144.3051  152.0343 H   0  0  0  0  0  0  0  0  0  0  0  0  # atno 10167 bound_to 10162
  156.3691  130.4336  149.7560 H   0  0  0  0  0  0  0  0  0  0  0  0  # atno 10718 bound_to 10713
  152.9948  135.6202  154.2566 H   0  0  0  0  0  0  0  0  0  0  0  0  # atno 10763 bound_to 10752
  154.2303  135.2792  155.2894 H   0  0  0  0  0  0  0  0  0  0  0  0  # atno 10764 bound_to 10752
  154.5455  135.5748  153.6934 H   0  0  0  0  0  0  0  0  0  0  0  0  # atno 10765 bound_to 10752
  140.0214  134.9395  157.0482 H   0  0  0  0  0  0  0  0  0  0  0  0  # atno 11005 bound_to 11000
  144.7247  140.4488  143.6981 LP  0  0  0  0  0  0  0  0  0  0  0  0  # atno 17320 bound_to 7965
  145.6346  139.1541  143.2950 LP  0  0  0  0  0  0  0  0  0  0  0  0  # atno 17321 bound_to 7965
  140.2497  144.4182  150.6226 LP  0  0  0  0  0  0  0  0  0  0  0  0  # atno 17342 bound_to 10162
  140.6233  143.2178  151.6649 LP  0  0  0  0  0  0  0  0  0  0  0  0  # atno 17343 bound_to 10162
  156.4694  130.7989  151.3008 LP  0  0  0  0  0  0  0  0  0  0  0  0  # atno 17370 bound_to 10713
  157.7482  131.0040  150.3061 LP  0  0  0  0  0  0  0  0  0  0  0  0  # atno 17371 bound_to 10713
  140.4381  134.1710  155.7172 LP  0  0  0  0  0  0  0  0  0  0  0  0  # atno 17394 bound_to 11000
  141.1776  133.8481  157.1368 LP  0  0  0  0  0  0  0  0  0  0  0  0  # atno 17395 bound_to 11000

$$$$
