AV-unprocessed.smi:153|AV-procd|sdf|1255|dock7
  -GOLD-   2262018493D 1   1.00000     0.00000
 Structure written by MMmdl.
 60 63  0  0  0  0  0  0  0  0  2 V2000
  151.2845  144.6064  158.0677 C   0  0  0  0  0  0  0  0  0  0  0  0
  152.1403  143.3379  158.2179 C   0  0  1  0  0  0  0  0  0  0  0  0
  153.3811  143.7120  158.8129 O   0  0  0  0  0  0  0  0  0  0  0  0
  153.8257  142.6659  159.6582 C   0  0  0  0  0  0  0  0  0  0  0  0
  152.5303  142.1838  160.2888 C   0  0  0  0  0  0  0  0  0  0  0  0
  151.5553  142.2088  159.1117 C   0  0  1  0  0  0  0  0  0  0  0  0
  150.2649  142.5190  159.6091 O   0  0  0  0  0  0  0  0  0  0  0  0
  151.4724  140.8681  158.3325 C   0  0  0  0  0  0  0  0  0  0  0  0
  150.5505  140.8827  157.2057 N   0  0  0  0  0  0  0  0  0  0  0  0
  149.9206  141.9848  156.6769 C   0  0  0  0  0  0  0  0  0  0  0  0
  149.1473  141.7435  155.6553 N   0  0  0  0  0  0  0  0  0  0  0  0
  149.2244  140.3660  155.4736 C   0  0  0  0  0  0  0  0  0  0  0  0
  148.6522  139.4388  154.5477 C   0  0  0  0  0  0  0  0  0  0  0  0
  147.8060  139.7625  153.5286 N   0  0  0  0  0  0  0  0  0  0  0  0
  147.1777  141.0779  153.4961 C   0  0  0  0  0  0  0  0  0  0  0  0
  147.8682  138.9991  152.2798 C   0  0  0  0  0  0  0  0  0  0  0  0
  146.4828  138.4979  151.8222 C   0  0  1  0  0  0  0  0  0  0  0  0
  146.6513  137.7291  150.6470 O   0  0  0  0  0  0  0  0  0  0  0  0
  145.8342  137.5858  152.8831 C   0  0  0  0  0  0  0  0  0  0  0  0
  146.2464  136.1647  152.7496 N   0  3  0  0  0  0  0  0  0  0  0  0
  146.4616  135.5116  154.0629 C   0  0  0  0  0  0  0  0  0  0  0  0
  146.9517  134.0664  153.8716 C   0  0  0  0  0  0  0  0  0  0  0  0
  146.0121  133.3446  153.0853 O   0  0  0  0  0  0  0  0  0  0  0  0
  145.8580  133.9096  151.7895 C   0  0  0  0  0  0  0  0  0  0  0  0
  145.3319  135.3499  151.9112 C   0  0  0  0  0  0  0  0  0  0  0  0
  148.9928  138.1312  154.7010 N   0  0  0  0  0  0  0  0  0  0  0  0
  149.8202  137.7468  155.6756 C   0  0  0  0  0  0  0  0  0  0  0  0
  150.4256  138.4960  156.5958 N   0  0  0  0  0  0  0  0  0  0  0  0
  150.1006  139.8116  156.4531 C   0  0  0  0  0  0  0  0  0  0  0  0
  150.3267  144.3841  157.5966 H   0  0  0  0  0  0  0  0  0  0  0  0
  151.7928  145.3444  157.4467 H   0  0  0  0  0  0  0  0  0  0  0  0
  151.0878  145.0697  159.0352 H   0  0  0  0  0  0  0  0  0  0  0  0
  152.3598  142.9491  157.2223 H   0  0  0  0  0  0  0  0  0  0  0  0
  154.2934  141.8792  159.0644 H   0  0  0  0  0  0  0  0  0  0  0  0
  154.5467  143.0221  160.3942 H   0  0  0  0  0  0  0  0  0  0  0  0
  152.6314  141.2188  160.7826 H   0  0  0  0  0  0  0  0  0  0  0  0
  152.2282  142.9051  161.0503 H   0  0  0  0  0  0  0  0  0  0  0  0
  149.6242  142.0490  159.0976 H   0  0  0  0  0  0  0  0  0  0  0  0
  152.4596  140.5883  157.9617 H   0  0  0  0  0  0  0  0  0  0  0  0
  151.1642  140.0643  159.0024 H   0  0  0  0  0  0  0  0  0  0  0  0
  150.0655  142.9825  157.0656 H   0  0  0  0  0  0  0  0  0  0  0  0
  146.7281  141.3186  154.4598 H   0  0  0  0  0  0  0  0  0  0  0  0
  146.3830  141.1098  152.7506 H   0  0  0  0  0  0  0  0  0  0  0  0
  147.9056  141.8489  153.2421 H   0  0  0  0  0  0  0  0  0  0  0  0
  148.3758  139.5455  151.4839 H   0  0  0  0  0  0  0  0  0  0  0  0
  148.5066  138.1369  152.4745 H   0  0  0  0  0  0  0  0  0  0  0  0
  145.8369  139.3488  151.6089 H   0  0  0  0  0  0  0  0  0  0  0  0
  145.8740  137.8185  150.1159 H   0  0  0  0  0  0  0  0  0  0  0  0
  146.1116  137.9543  153.8724 H   0  0  0  0  0  0  0  0  0  0  0  0
  144.7461  137.6489  152.8296 H   0  0  0  0  0  0  0  0  0  0  0  0
  147.1970  136.0725  154.6410 H   0  0  0  0  0  0  0  0  0  0  0  0
  145.5308  135.5190  154.6325 H   0  0  0  0  0  0  0  0  0  0  0  0
  147.9343  134.0465  153.3973 H   0  0  0  0  0  0  0  0  0  0  0  0
  147.0552  133.5739  154.8387 H   0  0  0  0  0  0  0  0  0  0  0  0
  146.8082  133.8859  151.2533 H   0  0  0  0  0  0  0  0  0  0  0  0
  145.1563  133.3003  151.2196 H   0  0  0  0  0  0  0  0  0  0  0  0
  144.3344  135.3448  152.3538 H   0  0  0  0  0  0  0  0  0  0  0  0
  145.2369  135.7798  150.9150 H   0  0  0  0  0  0  0  0  0  0  0  0
  150.0304  136.6883  155.7217 H   0  0  0  0  0  0  0  0  0  0  0  0
  147.1448  136.1742  152.2875 H   0  0  0  0  0  0  0  0  0  0  0  0
  1  2  1  0  0  0  0
  1 30  1  0  0  0  0
  1 31  1  0  0  0  0
  1 32  1  0  0  0  0
  2  6  1  0  0  0  0
  2  3  1  0  0  0  0
  2 33  1  0  0  0  0
  3  4  1  0  0  0  0
  4  5  1  0  0  0  0
  4 34  1  0  0  0  0
  4 35  1  0  0  0  0
  5  6  1  0  0  0  0
  5 36  1  0  0  0  0
  5 37  1  0  0  0  0
  6  7  1  0  0  0  0
  6  8  1  0  0  0  0
  7 38  1  0  0  0  0
  8  9  1  0  0  0  0
  8 39  1  0  0  0  0
  8 40  1  0  0  0  0
  9 29  1  0  0  0  0
  9 10  1  0  0  0  0
 10 11  2  0  0  0  0
 10 41  1  0  0  0  0
 11 12  1  0  0  0  0
 12 29  2  0  0  0  0
 12 13  1  0  0  0  0
 13 14  1  0  0  0  0
 13 26  2  0  0  0  0
 14 15  1  0  0  0  0
 14 16  1  0  0  0  0
 15 42  1  0  0  0  0
 15 43  1  0  0  0  0
 15 44  1  0  0  0  0
 16 17  1  0  0  0  0
 16 45  1  0  0  0  0
 16 46  1  0  0  0  0
 17 18  1  0  0  0  0
 17 19  1  0  0  0  0
 17 47  1  0  0  0  0
 18 48  1  0  0  0  0
 19 20  1  0  0  0  0
 19 49  1  0  0  0  0
 19 50  1  0  0  0  0
 20 25  1  0  0  0  0
 20 21  1  0  0  0  0
 20 60  1  0  0  0  0
 21 22  1  0  0  0  0
 21 51  1  0  0  0  0
 21 52  1  0  0  0  0
 22 23  1  0  0  0  0
 22 53  1  0  0  0  0
 22 54  1  0  0  0  0
 23 24  1  0  0  0  0
 24 25  1  0  0  0  0
 24 55  1  0  0  0  0
 24 56  1  0  0  0  0
 25 57  1  0  0  0  0
 25 58  1  0  0  0  0
 26 27  1  0  0  0  0
 27 28  2  0  0  0  0
 27 59  1  0  0  0  0
 28 29  1  0  0  0  0
M  CHG  1  20   1
M  END
> <s_m_source_file>
AV-unprocessed.smi

> <i_m_source_file_index>
153

> <i_lp_mmshare_version>
43012

> <i_f3d_flags>
0

> <s_epik_input>
W0NIMl0xW0NIMl1PW0NAQEhdKFtDSDNdKVtDQEBdMShbT0hdKVtDSDJdbihbY0hdbjIpYyhjMjMpbltjSF1uYzNOKFtDSDNdKVtDSDJdW0NASF0oW09IXSlbQ0gyXU40W0NIMl1bQ0gyXU9bQ0gyXVtDSDJdNA==

> <s_epik_cmdline>
J2VwaWtfcHl0aG9uJywgJy1waCcsICc3LjAnLCAnLXRuJywgJzgnLCAnLW1hJywgJzIwMCcsICctbWV0YWxfYmluZGluZycsICctaW1hZScsICc8aW5maWxlLm1hZT4nLCAnLW9tYWUnLCAnPG91dGZpbGUubWFlPic=

> <r_lp_tautomer_probability>
1

> <r_epik_Ionization_Penalty>
0.403509

> <r_epik_Ionization_Penalty_Charging>
0.40072

> <r_epik_Ionization_Penalty_Neutral>
0.00278876

> <r_epik_State_Penalty>
0.400058

> <r_epik_Charging_Adjusted_Penalty>
0.800778

> <i_epik_Tot_Q>
1

> <i_epik_Tot_abs_Q>
1

> <r_epik_Metal_State_Penalty>
0.400321

> <b_epik_Metal_Only>
0

> <s_lp_Force_Field>
OPLS_2005

> <r_lp_Energy>
46.896

> <b_lp_Chiralities_Consistent>
1

> <s_lp_Variant>
AV-unprocessed.smi:153-6

> <Gold.Version>
5.8.1

> <Gold.Id.Protein>
6NUR|6NUR_protein|mol2

> <Gold.PLP.Fitness>
50.1436

> <Gold.PLP.PLP>
-38.6448

> <Gold.PLP.part.hbond>
-4.3896

> <Gold.PLP.part.metal>
0.0000

> <Gold.PLP.part.buried>
4.4212

> <Gold.PLP.part.nonpolar>
-40.2108

> <Gold.PLP.part.repulsive>
1.6751

> <Gold.PLP.ligand.clash>
0.0025

> <Gold.PLP.ligand.torsion>
1.2785

> <Gold.PLP.Chemscore.Hbond>
3.9440

> <Gold.PLP.Chemscore.CHOScore>
0.5846

> <Gold.PLP.Chemscore.Metal>
0.0000

> <Gold.Chemscore.Hbonds>
donor molecule, donor type, donor heavy atom, donor atom, acceptor molecule, acceptor atom, score
      L1  H    18    48       P1 10171  0.70
      L1  H    20    60       P1  7948  2.00
      P1  H  7954  7966       L1    18  1.00
      L1  C    10    41       P1  8028  0.65

> <Gold.PLP.Chemscore.Internal.Correction>
0.4726

> <Gold.Rescore>
     Score         DG    S(hbond)    S(metal)    S(lipo)     H(rot)  DE(clash)    DE(int)     intcor
     10.97     -17.82       2.58        0.00     110.86       3.62       3.11       3.74       ----

> <Gold.Chemscore.Fitness>
10.9664

> <Gold.Chemscore.DG>
-17.8152

> <Gold.Chemscore.ZeroCoef>
-5.4800

> <Gold.Chemscore.Hbond>
2.5828

> <Gold.Chemscore.Metal>
0.0000

> <Gold.Chemscore.Lipo>
110.8645

> <Gold.Chemscore.Internal_Hbond>
0.0000

> <Gold.Chemscore.DEClash>
3.1130

> <Gold.Chemscore.DEInternal>
3.7358

> <Gold.Chemscore.Rot>
3.6182

> <Gold.Chemscore.Internal.Correction>
   9.000000E+99

> <Gold.Chemscore.Hbonds>
donor molecule, donor type, donor heavy atom, donor atom, acceptor molecule, acceptor atom, score
      L1  H    18    48       P1 10171  0.68
      L1  H    20    60       P1  7948  1.00
      P1  H  7954  7966       L1    18  0.87

> <Gold.Chemscore.Hbond.Weighted>
-8.6265

> <Gold.Chemscore.Metal.Weighted>
-0.0000

> <Gold.Chemscore.Lipo.Weighted>
-12.9712

> <Gold.Chemscore.Internal_Hbond.Weighted>
0.0000

> <Gold.Chemscore.DEClash.Weighted>
3.1130

> <Gold.Chemscore.DEInternal.Weighted>
3.7358

> <Gold.Chemscore.Rot.Weighted>
9.2625

> <Gold.Chemscore.Internal.Correction.Weighted>
   9.000000E+99

> <Gold.Protein.RotatedTorsions>
[ 6907 6896 6895 6894 ] final -145.20 input  -60.11 | X-H torsion
[ 7974 7965 7964 7962 ] final -100.90 input  175.53 | X-H torsion
[ 8008 7997 7996 7995 ] final  130.28 input   59.86 | X-H torsion
[ 10167 10162 10161 10158 ] final  -57.14 input  -65.29 | X-H torsion
[ 10718 10713 10712 10709 ] final  -99.94 input   66.30 | X-H torsion
[ 10763 10752 10751 10750 ] final  169.14 input  -60.55 | X-H torsion
[ 11005 11000 10999 10996 ] final  163.27 input  -57.11 | X-H torsion

> <Gold.Protein.ActiveResidues>
 VAL166  LYS551  ARG553  GLY616  TRP617  ASP618  TYR619  PRO620  LYS621  CYS622 
 ASP623  PHE694  ASN695  SER759  ASP760  ASP761  ALA762  ILE779  LEU786  VAL792 
 PHE793  MET794  SER795  GLU796  ALA797  LYS798  CYS799  TRP800  GLU811  SER814 

> <Gold.Protein.RotatedAtoms>
  151.1245  133.5080  159.2600 H   0  0  0  0  0  0  0  0  0  0  0  0  # atno 6907 bound_to 6896
  151.1825  135.0366  159.8808 H   0  0  0  0  0  0  0  0  0  0  0  0  # atno 6908 bound_to 6896
  152.5457  134.1095  159.8406 H   0  0  0  0  0  0  0  0  0  0  0  0  # atno 6909 bound_to 6896
  145.2886  140.9346  143.2891 H   0  0  0  0  0  0  0  0  0  0  0  0  # atno 7974 bound_to 7965
  156.2951  140.2600  156.2736 H   0  0  0  0  0  0  0  0  0  0  0  0  # atno 8008 bound_to 7997
  154.9671  140.0391  157.2235 H   0  0  0  0  0  0  0  0  0  0  0  0  # atno 8009 bound_to 7997
  154.7893  140.2809  155.6008 H   0  0  0  0  0  0  0  0  0  0  0  0  # atno 8010 bound_to 7997
  140.6276  143.2445  151.5324 H   0  0  0  0  0  0  0  0  0  0  0  0  # atno 10167 bound_to 10162
  156.0148  130.5305  150.6744 H   0  0  0  0  0  0  0  0  0  0  0  0  # atno 10718 bound_to 10713
  154.3788  135.2753  155.2223 H   0  0  0  0  0  0  0  0  0  0  0  0  # atno 10763 bound_to 10752
  154.4339  135.5970  153.6089 H   0  0  0  0  0  0  0  0  0  0  0  0  # atno 10764 bound_to 10752
  152.9835  135.6002  154.4028 H   0  0  0  0  0  0  0  0  0  0  0  0  # atno 10765 bound_to 10752
  140.2341  134.8101  157.3347 H   0  0  0  0  0  0  0  0  0  0  0  0  # atno 11005 bound_to 11000
  144.9192  139.4433  143.6549 LP  0  0  0  0  0  0  0  0  0  0  0  0  # atno 17320 bound_to 7965
  146.3192  139.8043  142.8959 LP  0  0  0  0  0  0  0  0  0  0  0  0  # atno 17321 bound_to 7965
  139.5494  144.2435  152.1502 LP  0  0  0  0  0  0  0  0  0  0  0  0  # atno 17342 bound_to 10162
  140.1671  144.4971  150.6600 LP  0  0  0  0  0  0  0  0  0  0  0  0  # atno 17343 bound_to 10162
  157.4460  131.0867  151.0895 LP  0  0  0  0  0  0  0  0  0  0  0  0  # atno 17370 bound_to 10713
  157.1425  130.6149  149.5559 LP  0  0  0  0  0  0  0  0  0  0  0  0  # atno 17371 bound_to 10713
  140.1720  134.4597  155.7826 LP  0  0  0  0  0  0  0  0  0  0  0  0  # atno 17394 bound_to 11000
  141.2215  133.6946  156.7723 LP  0  0  0  0  0  0  0  0  0  0  0  0  # atno 17395 bound_to 11000

$$$$
