AV-unprocessed.smi:3133|AV-procd|sdf|11937|dock3
  -GOLD-   2272017323D 1   1.00000     0.00000
 Structure written by MMmdl.
 32 33  0  0  0  0  0  0  0  0  1 V2000
  150.8284  137.9717  158.6834 C   0  0  0  0  0  0  0  0  0  0  0  0
  152.0963  138.2541  157.8514 C   0  0  2  0  0  0  0  0  0  0  0  0
  152.8934  139.4672  158.3612 C   0  0  0  0  0  0  0  0  0  0  0  0
  154.0980  139.3742  158.6002 O   0  0  0  0  0  0  0  0  0  0  0  0
  152.2033  140.6094  158.5132 N   0  0  0  0  0  0  0  0  0  0  0  0
  152.7510  141.8765  158.9865 C   0  0  0  0  0  0  0  0  0  0  0  0
  151.8103  143.0540  158.6814 C   0  0  2  0  0  0  0  0  0  0  0  0
  152.4475  144.4405  158.7949 C   0  0  0  0  0  0  0  0  0  0  0  0
  151.2453  145.3051  159.0956 C   0  0  0  0  0  0  0  0  0  0  0  0
  150.4439  144.3992  160.0245 C   0  0  0  0  0  0  0  0  0  0  0  0
  150.7239  143.0660  159.6049 O   0  0  0  0  0  0  0  0  0  0  0  0
  151.7941  138.3985  156.4320 N   0  0  0  0  0  0  0  0  0  0  0  0
  151.1171  139.3544  155.7918 C   0  0  0  0  0  0  0  0  0  0  0  0
  150.9938  139.1470  154.4883 N   0  0  0  0  0  0  0  0  0  0  0  0
  151.6566  137.9571  154.3834 C   0  0  0  0  0  0  0  0  0  0  0  0
  152.1483  137.4605  155.5183 N   0  0  0  0  0  0  0  0  0  0  0  0
  151.0743  137.8047  159.7326 H   0  0  0  0  0  0  0  0  0  0  0  0
  150.3189  137.0779  158.3225 H   0  0  0  0  0  0  0  0  0  0  0  0
  150.1169  138.7973  158.6379 H   0  0  0  0  0  0  0  0  0  0  0  0
  152.7474  137.3843  157.9528 H   0  0  0  0  0  0  0  0  0  0  0  0
  151.2186  140.5987  158.2909 H   0  0  0  0  0  0  0  0  0  0  0  0
  152.8885  141.7936  160.0647 H   0  0  0  0  0  0  0  0  0  0  0  0
  153.7422  142.0601  158.5685 H   0  0  0  0  0  0  0  0  0  0  0  0
  151.3832  142.9382  157.6840 H   0  0  0  0  0  0  0  0  0  0  0  0
  153.1477  144.4764  159.6306 H   0  0  0  0  0  0  0  0  0  0  0  0
  152.9778  144.7421  157.8913 H   0  0  0  0  0  0  0  0  0  0  0  0
  151.5049  146.2615  159.5502 H   0  0  0  0  0  0  0  0  0  0  0  0
  150.6840  145.4992  158.1805 H   0  0  0  0  0  0  0  0  0  0  0  0
  150.7845  144.5157  161.0541 H   0  0  0  0  0  0  0  0  0  0  0  0
  149.3751  144.6119  159.9947 H   0  0  0  0  0  0  0  0  0  0  0  0
  150.7017  140.2178  156.2904 H   0  0  0  0  0  0  0  0  0  0  0  0
  151.7751  137.4391  153.4431 H   0  0  0  0  0  0  0  0  0  0  0  0
  1  2  1  0  0  0  0
  1 17  1  0  0  0  0
  1 18  1  0  0  0  0
  1 19  1  0  0  0  0
  2  3  1  0  0  0  0
  2 12  1  0  0  0  0
  2 20  1  0  0  0  0
  3  4  2  0  0  0  0
  3  5  1  0  0  0  0
  5  6  1  0  0  0  0
  5 21  1  0  0  0  0
  6  7  1  0  0  0  0
  6 22  1  0  0  0  0
  6 23  1  0  0  0  0
  7 11  1  0  0  0  0
  7  8  1  0  0  0  0
  7 24  1  0  0  0  0
  8  9  1  0  0  0  0
  8 25  1  0  0  0  0
  8 26  1  0  0  0  0
  9 10  1  0  0  0  0
  9 27  1  0  0  0  0
  9 28  1  0  0  0  0
 10 11  1  0  0  0  0
 10 29  1  0  0  0  0
 10 30  1  0  0  0  0
 12 16  1  0  0  0  0
 12 13  1  0  0  0  0
 13 14  2  0  0  0  0
 13 31  1  0  0  0  0
 14 15  1  0  0  0  0
 15 16  2  0  0  0  0
 15 32  1  0  0  0  0
M  END
> <s_m_source_file>
AV-unprocessed.smi

> <i_m_source_file_index>
3133

> <i_lp_mmshare_version>
43012

> <i_f3d_flags>
0

> <s_epik_input>
bjFbY0hdbltjSF1uMVtDQEhdKFtDSDNdKUMoPU8pW05IXVtDSDJdW0NAQEhdMltDSDJdW0NIMl1bQ0gyXU8y

> <s_epik_cmdline>
J2VwaWtfcHl0aG9uJywgJy1waCcsICc3LjAnLCAnLXRuJywgJzgnLCAnLW1hJywgJzIwMCcsICctbWV0YWxfYmluZGluZycsICctaW1hZScsICc8aW5maWxlLm1hZT4nLCAnLW9tYWUnLCAnPG91dGZpbGUubWFlPic=

> <r_lp_tautomer_probability>
1

> <r_epik_Ionization_Penalty>
1.2027e-05

> <r_epik_Ionization_Penalty_Charging>
0

> <r_epik_Ionization_Penalty_Neutral>
1.2027e-05

> <r_epik_State_Penalty>
-0

> <r_epik_Charging_Adjusted_Penalty>
0

> <i_epik_Tot_Q>
0

> <i_epik_Tot_abs_Q>
0

> <r_epik_Metal_State_Penalty>
-0

> <b_epik_Metal_Only>
0

> <s_lp_Force_Field>
OPLS_2005

> <r_lp_Energy>
23.5717

> <b_lp_Chiralities_Consistent>
1

> <s_lp_Variant>
AV-unprocessed.smi:3133-1

> <Gold.Version>
5.8.1

> <Gold.Id.Protein>
6NUR|6NUR_protein|mol2

> <Gold.PLP.Fitness>
40.2674

> <Gold.PLP.PLP>
-30.8261

> <Gold.PLP.part.hbond>
-3.7807

> <Gold.PLP.part.metal>
0.0000

> <Gold.PLP.part.buried>
-4.2065

> <Gold.PLP.part.nonpolar>
-23.0501

> <Gold.PLP.part.repulsive>
0.3244

> <Gold.PLP.ligand.clash>
0.0000

> <Gold.PLP.ligand.torsion>
0.5494

> <Gold.PLP.Chemscore.Hbond>
2.4742

> <Gold.PLP.Chemscore.CHOScore>
1.0000

> <Gold.PLP.Chemscore.Metal>
0.0000

> <Gold.Chemscore.Hbonds>
donor molecule, donor type, donor heavy atom, donor atom, acceptor molecule, acceptor atom, score
      P1  H  7989  7998       L1    14  0.88
      P1  H  7997  8008       L1     4  1.00
      P1  H 10752 10764       L1    16  0.41
      L1  C    15    32       P1  7949  1.00

> <Gold.PLP.Chemscore.Internal.Correction>
0.1174

> <Gold.Rescore>
     Score         DG    S(hbond)    S(metal)    S(lipo)     H(rot)  DE(clash)    DE(int)     intcor
     11.58     -12.00       1.40        0.00      65.07       2.26       0.00       0.41       ----

> <Gold.Chemscore.Fitness>
11.5782

> <Gold.Chemscore.DG>
-11.9951

> <Gold.Chemscore.ZeroCoef>
-5.4800

> <Gold.Chemscore.Hbond>
1.4001

> <Gold.Chemscore.Metal>
0.0000

> <Gold.Chemscore.Lipo>
65.0734

> <Gold.Chemscore.Internal_Hbond>
0.0000

> <Gold.Chemscore.DEClash>
0.0030

> <Gold.Chemscore.DEInternal>
0.4139

> <Gold.Chemscore.Rot>
2.2558

> <Gold.Chemscore.Internal.Correction>
   9.000000E+99

> <Gold.Chemscore.Hbonds>
donor molecule, donor type, donor heavy atom, donor atom, acceptor molecule, acceptor atom, score
      P1  H  7989  7998       L1    14  0.59
      P1  H  7997  8008       L1     4  0.30
      P1  H 10752 10764       L1    16  0.08

> <Gold.Chemscore.Hbond.Weighted>
-4.6763

> <Gold.Chemscore.Metal.Weighted>
-0.0000

> <Gold.Chemscore.Lipo.Weighted>
-7.6136

> <Gold.Chemscore.Internal_Hbond.Weighted>
0.0000

> <Gold.Chemscore.DEClash.Weighted>
0.0030

> <Gold.Chemscore.DEInternal.Weighted>
0.4139

> <Gold.Chemscore.Rot.Weighted>
5.7747

> <Gold.Chemscore.Internal.Correction.Weighted>
   9.000000E+99

> <Gold.Protein.RotatedTorsions>
[ 6907 6896 6895 6894 ] final -139.20 input  -60.11 | X-H torsion
[ 7974 7965 7964 7962 ] final  175.06 input  175.53 | X-H torsion
[ 8008 7997 7996 7995 ] final  -97.65 input   59.86 | X-H torsion
[ 10167 10162 10161 10158 ] final  138.84 input  -65.29 | X-H torsion
[ 10718 10713 10712 10709 ] final -116.38 input   66.30 | X-H torsion
[ 10763 10752 10751 10750 ] final  -52.74 input  -60.55 | X-H torsion
[ 11005 11000 10999 10996 ] final -177.16 input  -57.11 | X-H torsion

> <Gold.Protein.ActiveResidues>
 VAL166  LYS551  ARG553  GLY616  TRP617  ASP618  TYR619  PRO620  LYS621  CYS622 
 ASP623  PHE694  ASN695  SER759  ASP760  ASP761  ALA762  ILE779  LEU786  VAL792 
 PHE793  MET794  SER795  GLU796  ALA797  LYS798  CYS799  TRP800  GLU811  SER814 

> <Gold.Protein.RotatedAtoms>
  151.0447  133.5676  159.2647 H   0  0  0  0  0  0  0  0  0  0  0  0  # atno 6907 bound_to 6896
  151.2709  135.0683  159.9143 H   0  0  0  0  0  0  0  0  0  0  0  0  # atno 6908 bound_to 6896
  152.5371  134.0177  159.8021 H   0  0  0  0  0  0  0  0  0  0  0  0  # atno 6909 bound_to 6896
  144.7209  139.9890  143.6439 H   0  0  0  0  0  0  0  0  0  0  0  0  # atno 7974 bound_to 7965
  154.7905  140.0461  157.1197 H   0  0  0  0  0  0  0  0  0  0  0  0  # atno 8008 bound_to 7997
  154.9596  140.3076  155.5017 H   0  0  0  0  0  0  0  0  0  0  0  0  # atno 8009 bound_to 7997
  156.2949  140.2273  156.4681 H   0  0  0  0  0  0  0  0  0  0  0  0  # atno 8010 bound_to 7997
  139.5097  144.6330  151.5770 H   0  0  0  0  0  0  0  0  0  0  0  0  # atno 10167 bound_to 10162
  156.0960  130.6132  150.9028 H   0  0  0  0  0  0  0  0  0  0  0  0  # atno 10718 bound_to 10713
  154.1476  135.6495  153.4956 H   0  0  0  0  0  0  0  0  0  0  0  0  # atno 10763 bound_to 10752
  153.0147  135.5330  154.6841 H   0  0  0  0  0  0  0  0  0  0  0  0  # atno 10764 bound_to 10752
  154.6120  135.2955  155.0393 H   0  0  0  0  0  0  0  0  0  0  0  0  # atno 10765 bound_to 10752
  140.4440  134.6405  157.4771 H   0  0  0  0  0  0  0  0  0  0  0  0  # atno 11005 bound_to 11000
  146.0427  139.3437  143.0687 LP  0  0  0  0  0  0  0  0  0  0  0  0  # atno 17320 bound_to 7965
  145.8314  140.9628  143.0847 LP  0  0  0  0  0  0  0  0  0  0  0  0  # atno 17321 bound_to 7965
  140.6069  143.9508  150.6425 LP  0  0  0  0  0  0  0  0  0  0  0  0  # atno 17342 bound_to 10162
  140.2738  143.3437  152.1213 LP  0  0  0  0  0  0  0  0  0  0  0  0  # atno 17343 bound_to 10162
  157.6120  131.0935  150.8777 LP  0  0  0  0  0  0  0  0  0  0  0  0  # atno 17370 bound_to 10713
  156.8915  130.5214  149.5286 LP  0  0  0  0  0  0  0  0  0  0  0  0  # atno 17371 bound_to 10713
  140.0051  134.6777  155.9469 LP  0  0  0  0  0  0  0  0  0  0  0  0  # atno 17394 bound_to 11000
  141.1693  133.6537  156.4593 LP  0  0  0  0  0  0  0  0  0  0  0  0  # atno 17395 bound_to 11000

$$$$
