AV-unprocessed.smi:236|AV-procd|sdf|1814|dock8
  -GOLD-   2262020403D 1   1.00000     0.00000
 Structure written by MMmdl.
 58 62  0  0  0  0  0  0  0  0  1 V2000
  143.9167  132.2789  149.8454 C   0  0  0  0  0  0  0  0  0  0  0  0
  144.7249  132.5758  151.1188 C   0  0  1  0  0  0  0  0  0  0  0  0
  145.8218  131.6810  151.2360 O   0  0  0  0  0  0  0  0  0  0  0  0
  146.7170  132.2457  152.1765 C   0  0  0  0  0  0  0  0  0  0  0  0
  146.7608  133.7106  151.7596 C   0  0  0  0  0  0  0  0  0  0  0  0
  145.3438  133.9933  151.2504 C   0  0  1  0  0  0  0  0  0  0  0  0
  145.4485  134.6410  149.9930 O   0  0  0  0  0  0  0  0  0  0  0  0
  144.5541  134.9191  152.2088 C   0  0  0  0  0  0  0  0  0  0  0  0
  145.2578  136.1494  152.5407 N   0  0  0  0  0  0  0  0  0  0  0  0
  145.6679  137.1281  151.6629 C   0  0  0  0  0  0  0  0  0  0  0  0
  146.2767  138.1462  152.2070 N   0  0  0  0  0  0  0  0  0  0  0  0
  146.2956  137.8436  153.5630 C   0  0  0  0  0  0  0  0  0  0  0  0
  146.7935  138.5010  154.7234 C   0  0  0  0  0  0  0  0  0  0  0  0
  147.4207  139.6954  154.7247 N   0  0  0  0  0  0  0  0  0  0  0  0
  147.4649  140.3449  153.4215 C   0  0  0  0  0  0  0  0  0  0  0  0
  148.0641  141.7536  153.5628 C   0  0  0  0  0  0  0  0  0  0  0  0
  149.3433  141.6645  154.1840 O   0  0  0  0  0  0  0  0  0  0  0  0
  149.2742  141.1111  155.4973 C   0  0  2  0  0  0  0  0  0  0  0  0
  150.6826  141.1302  156.1047 C   0  0  0  0  0  0  0  0  0  0  0  0
  151.0220  142.4659  156.4373 O   0  0  0  0  0  0  0  0  0  0  0  0
  150.7922  142.7687  157.8046 C   0  0  0  0  0  0  0  0  0  0  0  0
  152.0061  143.4235  158.4389 C   0  0  0  0  0  0  0  0  0  0  0  0
  151.8572  144.5997  159.3823 C   0  0  0  0  0  0  0  0  0  0  0  0
  152.4543  144.8081  158.0169 C   0  0  0  0  0  0  0  0  0  0  0  0
  148.7159  139.6786  155.3922 C   0  0  0  0  0  0  0  0  0  0  0  0
  146.6348  137.8872  155.9212 N   0  0  0  0  0  0  0  0  0  0  0  0
  146.0256  136.6994  155.9866 C   0  0  0  0  0  0  0  0  0  0  0  0
  145.5114  135.9685  154.9950 N   0  0  0  0  0  0  0  0  0  0  0  0
  145.6674  136.5866  153.7887 C   0  0  0  0  0  0  0  0  0  0  0  0
  143.0809  132.9708  149.7393 H   0  0  0  0  0  0  0  0  0  0  0  0
  143.5072  131.2692  149.8765 H   0  0  0  0  0  0  0  0  0  0  0  0
  144.5351  132.3546  148.9506 H   0  0  0  0  0  0  0  0  0  0  0  0
  144.0898  132.3784  151.9827 H   0  0  0  0  0  0  0  0  0  0  0  0
  146.3128  132.1360  153.1843 H   0  0  0  0  0  0  0  0  0  0  0  0
  147.6959  131.7671  152.1417 H   0  0  0  0  0  0  0  0  0  0  0  0
  147.0690  134.3630  152.5774 H   0  0  0  0  0  0  0  0  0  0  0  0
  147.4951  133.8238  150.9599 H   0  0  0  0  0  0  0  0  0  0  0  0
  145.9306  134.0797  149.4055 H   0  0  0  0  0  0  0  0  0  0  0  0
  143.5941  135.1842  151.7636 H   0  0  0  0  0  0  0  0  0  0  0  0
  144.3223  134.3973  153.1385 H   0  0  0  0  0  0  0  0  0  0  0  0
  145.4940  137.0661  150.5985 H   0  0  0  0  0  0  0  0  0  0  0  0
  148.0702  139.7563  152.7314 H   0  0  0  0  0  0  0  0  0  0  0  0
  146.4601  140.4044  153.0008 H   0  0  0  0  0  0  0  0  0  0  0  0
  148.1758  142.2154  152.5819 H   0  0  0  0  0  0  0  0  0  0  0  0
  147.4077  142.3999  154.1476 H   0  0  0  0  0  0  0  0  0  0  0  0
  148.6096  141.7146  156.1185 H   0  0  0  0  0  0  0  0  0  0  0  0
  150.7022  140.5235  157.0115 H   0  0  0  0  0  0  0  0  0  0  0  0
  151.4061  140.7035  155.4081 H   0  0  0  0  0  0  0  0  0  0  0  0
  149.9398  143.4424  157.9030 H   0  0  0  0  0  0  0  0  0  0  0  0
  150.5601  141.8568  158.3565 H   0  0  0  0  0  0  0  0  0  0  0  0
  152.8010  142.7209  158.6818 H   0  0  0  0  0  0  0  0  0  0  0  0
  150.8581  144.9938  159.5581 H   0  0  0  0  0  0  0  0  0  0  0  0
  152.5306  144.6454  160.2356 H   0  0  0  0  0  0  0  0  0  0  0  0
  153.5251  144.9911  157.9592 H   0  0  0  0  0  0  0  0  0  0  0  0
  151.8527  145.3414  157.2833 H   0  0  0  0  0  0  0  0  0  0  0  0
  148.6106  139.2437  156.3871 H   0  0  0  0  0  0  0  0  0  0  0  0
  149.4113  139.0487  154.8357 H   0  0  0  0  0  0  0  0  0  0  0  0
  145.9370  136.2738  156.9751 H   0  0  0  0  0  0  0  0  0  0  0  0
  1  2  1  0  0  0  0
  1 30  1  0  0  0  0
  1 31  1  0  0  0  0
  1 32  1  0  0  0  0
  2  6  1  0  0  0  0
  2  3  1  0  0  0  0
  2 33  1  0  0  0  0
  3  4  1  0  0  0  0
  4  5  1  0  0  0  0
  4 34  1  0  0  0  0
  4 35  1  0  0  0  0
  5  6  1  0  0  0  0
  5 36  1  0  0  0  0
  5 37  1  0  0  0  0
  6  7  1  0  0  0  0
  6  8  1  0  0  0  0
  7 38  1  0  0  0  0
  8  9  1  0  0  0  0
  8 39  1  0  0  0  0
  8 40  1  0  0  0  0
  9 29  1  0  0  0  0
  9 10  1  0  0  0  0
 10 11  2  0  0  0  0
 10 41  1  0  0  0  0
 11 12  1  0  0  0  0
 12 29  2  0  0  0  0
 12 13  1  0  0  0  0
 13 14  1  0  0  0  0
 13 26  2  0  0  0  0
 14 25  1  0  0  0  0
 14 15  1  0  0  0  0
 15 16  1  0  0  0  0
 15 42  1  0  0  0  0
 15 43  1  0  0  0  0
 16 17  1  0  0  0  0
 16 44  1  0  0  0  0
 16 45  1  0  0  0  0
 17 18  1  0  0  0  0
 18 19  1  0  0  0  0
 18 25  1  0  0  0  0
 18 46  1  0  0  0  0
 19 20  1  0  0  0  0
 19 47  1  0  0  0  0
 19 48  1  0  0  0  0
 20 21  1  0  0  0  0
 21 22  1  0  0  0  0
 21 49  1  0  0  0  0
 21 50  1  0  0  0  0
 22 24  1  0  0  0  0
 22 23  1  0  0  0  0
 22 51  1  0  0  0  0
 23 24  1  0  0  0  0
 23 52  1  0  0  0  0
 23 53  1  0  0  0  0
 24 54  1  0  0  0  0
 24 55  1  0  0  0  0
 25 56  1  0  0  0  0
 25 57  1  0  0  0  0
 26 27  1  0  0  0  0
 27 28  2  0  0  0  0
 27 58  1  0  0  0  0
 28 29  1  0  0  0  0
M  END
> <s_m_source_file>
AV-unprocessed.smi

> <i_m_source_file_index>
236

> <i_lp_mmshare_version>
43012

> <i_f3d_flags>
0

> <s_epik_input>
W0NIMl0xW0NIMl1PW0NAQEhdKFtDSDNdKVtDQEBdMShbT0hdKVtDSDJdbihbY0hdbjIpYyhjMjMpbltjSF1uYzNONFtDSDJdW0NIMl1PW0NASF0oW0NIMl00KVtDSDJdT1tDSDJdW0NIXTVbQ0gyXVtDSDJdNQ==

> <s_epik_cmdline>
J2VwaWtfcHl0aG9uJywgJy1waCcsICc3LjAnLCAnLXRuJywgJzgnLCAnLW1hJywgJzIwMCcsICctbWV0YWxfYmluZGluZycsICctaW1hZScsICc8aW5maWxlLm1hZT4nLCAnLW9tYWUnLCAnPG91dGZpbGUubWFlPic=

> <r_lp_tautomer_probability>
1

> <r_epik_Ionization_Penalty>
7.21838e-05

> <r_epik_Ionization_Penalty_Charging>
0

> <r_epik_Ionization_Penalty_Neutral>
7.21838e-05

> <r_epik_State_Penalty>
-0

> <r_epik_Charging_Adjusted_Penalty>
0

> <i_epik_Tot_Q>
0

> <i_epik_Tot_abs_Q>
0

> <r_epik_Metal_State_Penalty>
-0

> <b_epik_Metal_Only>
0

> <s_lp_Force_Field>
OPLS_2005

> <r_lp_Energy>
47.3448

> <b_lp_Chiralities_Consistent>
1

> <s_lp_Variant>
AV-unprocessed.smi:236-6

> <Gold.Version>
5.8.1

> <Gold.Id.Protein>
6NUR|6NUR_protein|mol2

> <Gold.PLP.Fitness>
48.9680

> <Gold.PLP.PLP>
-45.2078

> <Gold.PLP.part.hbond>
-2.1969

> <Gold.PLP.part.metal>
0.0000

> <Gold.PLP.part.buried>
-4.5379

> <Gold.PLP.part.nonpolar>
-39.1788

> <Gold.PLP.part.repulsive>
0.8166

> <Gold.PLP.ligand.clash>
0.0000

> <Gold.PLP.ligand.torsion>
1.1190

> <Gold.PLP.Chemscore.Hbond>
0.7991

> <Gold.PLP.Chemscore.CHOScore>
0.9251

> <Gold.PLP.Chemscore.Metal>
0.0000

> <Gold.Chemscore.Hbonds>
donor molecule, donor type, donor heavy atom, donor atom, acceptor molecule, acceptor atom, score
      L1  H     7    38       P1  7921  0.29
      L1  C    10    41       P1 10171  0.69

> <Gold.PLP.Chemscore.Internal.Correction>
0.8255

> <Gold.Rescore>
     Score         DG    S(hbond)    S(metal)    S(lipo)     H(rot)  DE(clash)    DE(int)     intcor
     11.36     -15.42       0.91        0.00     121.66       2.87       1.35       2.71       ----

> <Gold.Chemscore.Fitness>
11.3589

> <Gold.Chemscore.DG>
-15.4159

> <Gold.Chemscore.ZeroCoef>
-5.4800

> <Gold.Chemscore.Hbond>
0.9094

> <Gold.Chemscore.Metal>
0.0000

> <Gold.Chemscore.Lipo>
121.6616

> <Gold.Chemscore.Internal_Hbond>
0.0000

> <Gold.Chemscore.DEClash>
1.3461

> <Gold.Chemscore.DEInternal>
2.7109

> <Gold.Chemscore.Rot>
2.8655

> <Gold.Chemscore.Internal.Correction>
   9.000000E+99

> <Gold.Chemscore.Hbonds>
donor molecule, donor type, donor heavy atom, donor atom, acceptor molecule, acceptor atom, score
      L1  H     7    38       P1  7921  0.08

> <Gold.Chemscore.Hbond.Weighted>
-3.0373

> <Gold.Chemscore.Metal.Weighted>
-0.0000

> <Gold.Chemscore.Lipo.Weighted>
-14.2344

> <Gold.Chemscore.Internal_Hbond.Weighted>
0.0000

> <Gold.Chemscore.DEClash.Weighted>
1.3461

> <Gold.Chemscore.DEInternal.Weighted>
2.7109

> <Gold.Chemscore.Rot.Weighted>
7.3358

> <Gold.Chemscore.Internal.Correction.Weighted>
   9.000000E+99

> <Gold.Protein.RotatedTorsions>
[ 6907 6896 6895 6894 ] final  162.75 input  -60.11 | X-H torsion
[ 7974 7965 7964 7962 ] final   98.56 input  175.53 | X-H torsion
[ 8008 7997 7996 7995 ] final   70.12 input   59.86 | X-H torsion
[ 10167 10162 10161 10158 ] final -178.50 input  -65.29 | X-H torsion
[ 10718 10713 10712 10709 ] final  -70.33 input   66.30 | X-H torsion
[ 10763 10752 10751 10750 ] final  137.04 input  -60.55 | X-H torsion
[ 11005 11000 10999 10996 ] final  -44.26 input  -57.11 | X-H torsion

> <Gold.Protein.ActiveResidues>
 VAL166  LYS551  ARG553  GLY616  TRP617  ASP618  TYR619  PRO620  LYS621  CYS622 
 ASP623  PHE694  ASN695  SER759  ASP760  ASP761  ALA762  ILE779  LEU786  VAL792 
 PHE793  MET794  SER795  GLU796  ALA797  LYS798  CYS799  TRP800  GLU811  SER814 

> <Gold.Protein.RotatedAtoms>
  151.9357  133.3623  159.3946 H   0  0  0  0  0  0  0  0  0  0  0  0  # atno 6907 bound_to 6896
  150.7008  134.4492  159.5337 H   0  0  0  0  0  0  0  0  0  0  0  0  # atno 6908 bound_to 6896
  152.2140  134.8475  160.0545 H   0  0  0  0  0  0  0  0  0  0  0  0  # atno 6909 bound_to 6896
  145.4105  139.2334  143.3251 H   0  0  0  0  0  0  0  0  0  0  0  0  # atno 7974 bound_to 7965
  155.7340  140.3491  155.5073 H   0  0  0  0  0  0  0  0  0  0  0  0  # atno 8008 bound_to 7997
  155.9156  140.1058  157.1268 H   0  0  0  0  0  0  0  0  0  0  0  0  # atno 8009 bound_to 7997
  154.4062  140.1259  156.4600 H   0  0  0  0  0  0  0  0  0  0  0  0  # atno 8010 bound_to 7997
  139.5429  144.2312  152.0932 H   0  0  0  0  0  0  0  0  0  0  0  0  # atno 10167 bound_to 10162
  156.0413  130.4329  150.2279 H   0  0  0  0  0  0  0  0  0  0  0  0  # atno 10718 bound_to 10713
  153.8665  135.3061  155.3440 H   0  0  0  0  0  0  0  0  0  0  0  0  # atno 10763 bound_to 10752
  154.7825  135.4828  153.9878 H   0  0  0  0  0  0  0  0  0  0  0  0  # atno 10764 bound_to 10752
  153.1431  135.6828  153.9092 H   0  0  0  0  0  0  0  0  0  0  0  0  # atno 10765 bound_to 10752
  141.0438  133.6769  156.2847 H   0  0  0  0  0  0  0  0  0  0  0  0  # atno 11005 bound_to 11000
  146.2707  140.4815  142.8815 LP  0  0  0  0  0  0  0  0  0  0  0  0  # atno 17320 bound_to 7965
  144.8312  140.6710  143.6289 LP  0  0  0  0  0  0  0  0  0  0  0  0  # atno 17321 bound_to 7965
  140.1794  144.4859  150.6536 LP  0  0  0  0  0  0  0  0  0  0  0  0  # atno 17342 bound_to 10162
  140.6667  143.2270  151.5726 LP  0  0  0  0  0  0  0  0  0  0  0  0  # atno 17343 bound_to 10162
  157.0373  131.0025  151.3294 LP  0  0  0  0  0  0  0  0  0  0  0  0  # atno 17370 bound_to 10713
  157.5234  130.8012  149.7835 LP  0  0  0  0  0  0  0  0  0  0  0  0  # atno 17371 bound_to 10713
  140.6184  134.5387  157.5544 LP  0  0  0  0  0  0  0  0  0  0  0  0  # atno 17394 bound_to 11000
  139.9296  134.7989  156.0968 LP  0  0  0  0  0  0  0  0  0  0  0  0  # atno 17395 bound_to 11000

$$$$
