AV-unprocessed.smi:744|AV-procd|sdf|3569|dock1
  -GOLD-   22720 0563D 1   1.00000     0.00000
 Structure written by MMmdl.
 34 35  0  0  0  0  0  0  0  0  1 V2000
  144.8144  137.5182  153.0279 O   0  0  0  0  0  0  0  0  0  0  0  0
  145.9062  137.1689  152.5779 C   0  0  0  0  0  0  0  0  0  0  0  0
  147.0059  137.9342  152.6331 N   0  0  0  0  0  0  0  0  0  0  0  0
  147.0716  139.2647  153.2289 C   0  0  0  0  0  0  0  0  0  0  0  0
  148.1809  139.3653  154.2976 C   0  0  1  0  0  0  0  0  0  0  0  0
  149.3660  138.4108  154.0972 C   0  0  0  0  0  0  0  0  0  0  0  0
  150.5423  139.0395  154.8596 C   0  0  0  0  0  0  0  0  0  0  0  0
  150.1031  140.4595  155.2513 C   0  0  0  0  0  0  0  0  0  0  0  0
  148.8332  140.7480  154.4439 C   0  0  1  0  0  0  0  0  0  0  0  0
  149.2001  141.2868  153.1870 O   0  0  0  0  0  0  0  0  0  0  0  0
  146.1614  135.9926  151.9784 N   0  0  0  0  0  0  0  0  0  0  0  0
  145.2625  134.9221  151.7255 C   0  0  0  0  0  0  0  0  0  0  0  0
  145.5517  134.1580  150.5721 C   0  0  0  0  0  0  0  0  0  0  0  0
  144.7188  133.0744  150.2322 C   0  0  0  0  0  0  0  0  0  0  0  0
  143.6162  132.7826  151.0548 C   0  0  0  0  0  0  0  0  0  0  0  0
  143.3991  133.5927  152.1845 C   0  0  0  0  0  0  0  0  0  0  0  0
  144.1963  134.6314  152.5124 N   0  0  0  0  0  0  0  0  0  0  0  0
  147.8613  137.5696  152.2401 H   0  0  0  0  0  0  0  0  0  0  0  0
  147.2526  139.9764  152.4231 H   0  0  0  0  0  0  0  0  0  0  0  0
  146.1048  139.5277  153.6611 H   0  0  0  0  0  0  0  0  0  0  0  0
  147.7374  139.1277  155.2664 H   0  0  0  0  0  0  0  0  0  0  0  0
  149.1422  137.4014  154.4445 H   0  0  0  0  0  0  0  0  0  0  0  0
  149.6159  138.3440  153.0374 H   0  0  0  0  0  0  0  0  0  0  0  0
  150.7938  138.4584  155.7476 H   0  0  0  0  0  0  0  0  0  0  0  0
  151.4301  139.0668  154.2269 H   0  0  0  0  0  0  0  0  0  0  0  0
  149.8589  140.4730  156.3143 H   0  0  0  0  0  0  0  0  0  0  0  0
  150.8870  141.2017  155.0941 H   0  0  0  0  0  0  0  0  0  0  0  0
  148.1793  141.4565  154.9535 H   0  0  0  0  0  0  0  0  0  0  0  0
  149.1743  140.5938  152.5450 H   0  0  0  0  0  0  0  0  0  0  0  0
  147.1092  135.8462  151.6643 H   0  0  0  0  0  0  0  0  0  0  0  0
  146.4029  134.3962  149.9506 H   0  0  0  0  0  0  0  0  0  0  0  0
  144.9230  132.4782  149.3550 H   0  0  0  0  0  0  0  0  0  0  0  0
  142.9546  131.9600  150.8265 H   0  0  0  0  0  0  0  0  0  0  0  0
  142.5640  133.4023  152.8424 H   0  0  0  0  0  0  0  0  0  0  0  0
  1  2  2  0  0  0  0
  2  3  1  0  0  0  0
  2 11  1  0  0  0  0
  3  4  1  0  0  0  0
  3 18  1  0  0  0  0
  4  5  1  0  0  0  0
  4 19  1  0  0  0  0
  4 20  1  0  0  0  0
  5  9  1  0  0  0  0
  5  6  1  0  0  0  0
  5 21  1  0  0  0  0
  6  7  1  0  0  0  0
  6 22  1  0  0  0  0
  6 23  1  0  0  0  0
  7  8  1  0  0  0  0
  7 24  1  0  0  0  0
  7 25  1  0  0  0  0
  8  9  1  0  0  0  0
  8 26  1  0  0  0  0
  8 27  1  0  0  0  0
  9 10  1  0  0  0  0
  9 28  1  0  0  0  0
 10 29  1  0  0  0  0
 11 12  1  0  0  0  0
 11 30  1  0  0  0  0
 12 17  1  0  0  0  0
 12 13  2  0  0  0  0
 13 14  1  0  0  0  0
 13 31  1  0  0  0  0
 14 15  2  0  0  0  0
 14 32  1  0  0  0  0
 15 16  1  0  0  0  0
 15 33  1  0  0  0  0
 16 17  2  0  0  0  0
 16 34  1  0  0  0  0
M  END
> <s_m_source_file>
AV-unprocessed.smi

> <i_m_source_file_index>
744

> <i_lp_mmshare_version>
43012

> <i_f3d_flags>
0

> <s_epik_input>
bjFbY0hdW2NIXVtjSF1bY0hdYzFbTkhdQyg9TylbTkhdW0NIMl1bQ0BASF0yW0NIMl1bQ0gyXVtDSDJdW0NASF0yW09IXQ==

> <s_epik_cmdline>
J2VwaWtfcHl0aG9uJywgJy1waCcsICc3LjAnLCAnLXRuJywgJzgnLCAnLW1hJywgJzIwMCcsICctbWV0YWxfYmluZGluZycsICctaW1hZScsICc8aW5maWxlLm1hZT4nLCAnLW9tYWUnLCAnPG91dGZpbGUubWFlPic=

> <r_lp_tautomer_probability>
1

> <r_epik_Ionization_Penalty>
5.04769e-05

> <r_epik_Ionization_Penalty_Charging>
0

> <r_epik_Ionization_Penalty_Neutral>
5.04769e-05

> <r_epik_State_Penalty>
-0

> <r_epik_Charging_Adjusted_Penalty>
0

> <i_epik_Tot_Q>
0

> <i_epik_Tot_abs_Q>
0

> <r_epik_Metal_State_Penalty>
-0

> <b_epik_Metal_Only>
0

> <s_lp_Force_Field>
OPLS_2005

> <r_lp_Energy>
27.3906

> <b_lp_Chiralities_Consistent>
1

> <s_lp_Variant>
AV-unprocessed.smi:744-2

> <Gold.Version>
5.8.1

> <Gold.Id.Protein>
6NUR|6NUR_protein|mol2

> <Gold.PLP.Fitness>
42.9180

> <Gold.PLP.PLP>
-29.6041

> <Gold.PLP.part.hbond>
-4.4330

> <Gold.PLP.part.metal>
0.0000

> <Gold.PLP.part.buried>
-2.1117

> <Gold.PLP.part.nonpolar>
-24.3088

> <Gold.PLP.part.repulsive>
0.3876

> <Gold.PLP.ligand.clash>
0.0000

> <Gold.PLP.ligand.torsion>
0.6165

> <Gold.PLP.Chemscore.Hbond>
3.9760

> <Gold.PLP.Chemscore.CHOScore>
0.8711

> <Gold.PLP.Chemscore.Metal>
0.0000

> <Gold.Chemscore.Hbonds>
donor molecule, donor type, donor heavy atom, donor atom, acceptor molecule, acceptor atom, score
      L1  H     3    18       P1  7948  1.00
      L1  H    10    29       P1  7957  0.98
      L1  H    11    30       P1  7948  1.00
      P1  H  8011  8017       L1    10  0.95
      L1  C    16    34       P1 10957  0.87

> <Gold.PLP.Chemscore.Internal.Correction>
0.0057

> <Gold.Rescore>
     Score         DG    S(hbond)    S(metal)    S(lipo)     H(rot)  DE(clash)    DE(int)     intcor
     17.88     -19.68       3.30        0.00      66.63       1.81       0.04       1.77       ----

> <Gold.Chemscore.Fitness>
17.8776

> <Gold.Chemscore.DG>
-19.6831

> <Gold.Chemscore.ZeroCoef>
-5.4800

> <Gold.Chemscore.Hbond>
3.3018

> <Gold.Chemscore.Metal>
0.0000

> <Gold.Chemscore.Lipo>
66.6337

> <Gold.Chemscore.Internal_Hbond>
0.0000

> <Gold.Chemscore.DEClash>
0.0379

> <Gold.Chemscore.DEInternal>
1.7676

> <Gold.Chemscore.Rot>
1.8052

> <Gold.Chemscore.Internal.Correction>
   9.000000E+99

> <Gold.Chemscore.Hbonds>
donor molecule, donor type, donor heavy atom, donor atom, acceptor molecule, acceptor atom, score
      L1  H     3    18       P1  7948  0.97
      L1  H    10    29       P1  7957  0.89
      L1  H    11    30       P1  7948  0.94
      P1  H  8011  8017       L1    10  0.20

> <Gold.Chemscore.Hbond.Weighted>
-11.0282

> <Gold.Chemscore.Metal.Weighted>
-0.0000

> <Gold.Chemscore.Lipo.Weighted>
-7.7961

> <Gold.Chemscore.Internal_Hbond.Weighted>
0.0000

> <Gold.Chemscore.DEClash.Weighted>
0.0379

> <Gold.Chemscore.DEInternal.Weighted>
1.7676

> <Gold.Chemscore.Rot.Weighted>
4.6212

> <Gold.Chemscore.Internal.Correction.Weighted>
   9.000000E+99

> <Gold.Protein.RotatedTorsions>
[ 6907 6896 6895 6894 ] final   99.36 input  -60.11 | X-H torsion
[ 7974 7965 7964 7962 ] final  129.84 input  175.53 | X-H torsion
[ 8008 7997 7996 7995 ] final  -60.47 input   59.86 | X-H torsion
[ 10167 10162 10161 10158 ] final  -45.50 input  -65.29 | X-H torsion
[ 10718 10713 10712 10709 ] final    2.12 input   66.30 | X-H torsion
[ 10763 10752 10751 10750 ] final -159.89 input  -60.55 | X-H torsion
[ 11005 11000 10999 10996 ] final  -22.96 input  -57.11 | X-H torsion

> <Gold.Protein.ActiveResidues>
 VAL166  LYS551  ARG553  GLY616  TRP617  ASP618  TYR619  PRO620  LYS621  CYS622 
 ASP623  PHE694  ASN695  SER759  ASP760  ASP761  ALA762  ILE779  LEU786  VAL792 
 PHE793  MET794  SER795  GLU796  ALA797  LYS798  CYS799  TRP800  GLU811  SER814 

> <Gold.Protein.RotatedAtoms>
  152.5393  134.0440  159.8079 H   0  0  0  0  0  0  0  0  0  0  0  0  # atno 6907 bound_to 6896
  151.0591  133.5551  159.2643 H   0  0  0  0  0  0  0  0  0  0  0  0  # atno 6908 bound_to 6896
  151.2457  135.0612  159.9096 H   0  0  0  0  0  0  0  0  0  0  0  0  # atno 6909 bound_to 6896
  145.0243  139.4103  143.5181 H   0  0  0  0  0  0  0  0  0  0  0  0  # atno 7974 bound_to 7965
  154.4400  140.1039  156.6278 H   0  0  0  0  0  0  0  0  0  0  0  0  # atno 8008 bound_to 7997
  155.5637  140.3488  155.4479 H   0  0  0  0  0  0  0  0  0  0  0  0  # atno 8009 bound_to 7997
  156.0441  140.1288  157.0113 H   0  0  0  0  0  0  0  0  0  0  0  0  # atno 8010 bound_to 7997
  140.6855  143.2876  151.3648 H   0  0  0  0  0  0  0  0  0  0  0  0  # atno 10167 bound_to 10162
  156.8583  130.5578  149.5664 H   0  0  0  0  0  0  0  0  0  0  0  0  # atno 10718 bound_to 10713
  154.7437  135.3075  154.8683 H   0  0  0  0  0  0  0  0  0  0  0  0  # atno 10763 bound_to 10752
  153.9490  135.6766  153.4748 H   0  0  0  0  0  0  0  0  0  0  0  0  # atno 10764 bound_to 10752
  153.1034  135.4901  154.8834 H   0  0  0  0  0  0  0  0  0  0  0  0  # atno 10765 bound_to 10752
  140.8706  133.7723  156.0182 H   0  0  0  0  0  0  0  0  0  0  0  0  # atno 11005 bound_to 11000
  146.3490  139.9758  142.8701 LP  0  0  0  0  0  0  0  0  0  0  0  0  # atno 17320 bound_to 7965
  145.1854  140.9787  143.4242 LP  0  0  0  0  0  0  0  0  0  0  0  0  # atno 17321 bound_to 7965
  139.6211  144.0905  152.2392 LP  0  0  0  0  0  0  0  0  0  0  0  0  # atno 17342 bound_to 10162
  140.0350  144.6051  150.7457 LP  0  0  0  0  0  0  0  0  0  0  0  0  # atno 17343 bound_to 10162
  156.0790  130.5805  150.9528 LP  0  0  0  0  0  0  0  0  0  0  0  0  # atno 17370 bound_to 10713
  157.6264  131.0925  150.8525 LP  0  0  0  0  0  0  0  0  0  0  0  0  # atno 17371 bound_to 10713
  140.8577  134.2878  157.5248 LP  0  0  0  0  0  0  0  0  0  0  0  0  # atno 17394 bound_to 11000
  139.8712  134.9502  156.4047 LP  0  0  0  0  0  0  0  0  0  0  0  0  # atno 17395 bound_to 11000

$$$$
