AV-unprocessed.smi:156|AV-procd|sdf|1289|dock9
  -GOLD-   2262018573D 1   1.00000     0.00000
 Structure written by MMmdl.
 51 53  0  0  0  0  0  0  0  0  1 V2000
  146.8043  139.5187  155.9925 C   0  0  0  0  0  0  0  0  0  0  0  0
  145.2953  139.7806  155.8111 C   0  0  2  0  0  0  0  0  0  0  0  0
  144.5725  140.1974  157.1249 C   0  0  1  0  0  0  0  0  0  0  0  0
  144.8486  139.2301  158.2918 C   0  0  0  0  0  0  0  0  0  0  0  0
  144.9992  141.9374  157.6570 S   0  0  0  0  0  0  0  0  0  0  0  0
  146.2440  142.4743  156.4083 C   0  0  0  0  0  0  0  0  0  0  0  0
  143.8184  142.8014  157.5098 O   0  0  0  0  0  0  0  0  0  0  0  0
  145.6831  141.8710  158.9577 O   0  0  0  0  0  0  0  0  0  0  0  0
  144.6549  138.6217  155.1753 N   0  0  0  0  0  0  0  0  0  0  0  0
  143.7084  137.7904  155.9141 C   0  0  0  0  0  0  0  0  0  0  0  0
  145.1054  138.1568  153.9791 C   0  0  0  0  0  0  0  0  0  0  0  0
  146.0909  138.8347  153.3325 N   0  0  0  0  0  0  0  0  0  0  0  0
  146.5540  138.4035  152.1563 C   0  0  0  0  0  0  0  0  0  0  0  0
  146.1737  137.3378  151.4513 N   0  0  0  0  0  0  0  0  0  0  0  0
  145.1774  136.6556  152.0849 C   0  0  0  0  0  0  0  0  0  0  0  0
  144.5976  136.9856  153.3438 C   0  0  0  0  0  0  0  0  0  0  0  0
  143.6172  136.0534  153.6639 N   0  0  0  0  0  0  0  0  0  0  0  0
  143.6200  135.2231  152.6580 C   0  0  0  0  0  0  0  0  0  0  0  0
  144.5125  135.5201  151.6529 N   0  0  0  0  0  0  0  0  0  0  0  0
  144.7228  134.7747  150.4188 C   0  0  0  0  0  0  0  0  0  0  0  0
  144.8844  133.2450  150.5995 C   0  0  0  0  0  0  0  0  0  0  0  0
  145.9822  133.0010  151.6444 C   0  0  0  0  0  0  0  0  0  0  0  0
  146.4289  131.6602  151.6190 O   0  0  0  0  0  0  0  0  0  0  0  0
  143.5855  132.4512  150.8215 C   0  0  0  0  0  0  0  0  0  0  0  0
  143.5688  131.9911  149.4541 O   0  0  0  0  0  0  0  0  0  0  0  0
  144.9535  132.3781  149.3299 C   0  0  0  0  0  0  0  0  0  0  0  0
  147.3397  140.4281  156.2639 H   0  0  0  0  0  0  0  0  0  0  0  0
  147.2520  139.1576  155.0659 H   0  0  0  0  0  0  0  0  0  0  0  0
  146.9982  138.7756  156.7658 H   0  0  0  0  0  0  0  0  0  0  0  0
  145.2190  140.6385  155.1445 H   0  0  0  0  0  0  0  0  0  0  0  0
  143.4956  140.1958  156.9543 H   0  0  0  0  0  0  0  0  0  0  0  0
  144.4644  138.2317  158.0859 H   0  0  0  0  0  0  0  0  0  0  0  0
  144.3608  139.5624  159.2081 H   0  0  0  0  0  0  0  0  0  0  0  0
  145.9155  139.1421  158.4959 H   0  0  0  0  0  0  0  0  0  0  0  0
  146.6252  143.4563  156.6869 H   0  0  0  0  0  0  0  0  0  0  0  0
  145.7807  142.5467  155.4251 H   0  0  0  0  0  0  0  0  0  0  0  0
  147.0711  141.7665  156.3761 H   0  0  0  0  0  0  0  0  0  0  0  0
  143.9238  136.7307  155.7732 H   0  0  0  0  0  0  0  0  0  0  0  0
  142.6892  137.9828  155.5795 H   0  0  0  0  0  0  0  0  0  0  0  0
  143.7477  137.9949  156.9833 H   0  0  0  0  0  0  0  0  0  0  0  0
  147.3401  138.9990  151.7162 H   0  0  0  0  0  0  0  0  0  0  0  0
  142.9608  134.3685  152.6220 H   0  0  0  0  0  0  0  0  0  0  0  0
  143.8867  135.0006  149.7564 H   0  0  0  0  0  0  0  0  0  0  0  0
  145.6049  135.1902  149.9299 H   0  0  0  0  0  0  0  0  0  0  0  0
  146.8340  133.6622  151.4820 H   0  0  0  0  0  0  0  0  0  0  0  0
  145.6156  133.2096  152.6502 H   0  0  0  0  0  0  0  0  0  0  0  0
  147.2232  131.6168  151.1086 H   0  0  0  0  0  0  0  0  0  0  0  0
  143.6873  131.6202  151.5217 H   0  0  0  0  0  0  0  0  0  0  0  0
  142.7176  133.0565  151.0786 H   0  0  0  0  0  0  0  0  0  0  0  0
  145.1629  132.9230  148.4112 H   0  0  0  0  0  0  0  0  0  0  0  0
  145.6197  131.5184  149.4210 H   0  0  0  0  0  0  0  0  0  0  0  0
  1  2  1  0  0  0  0
  1 27  1  0  0  0  0
  1 28  1  0  0  0  0
  1 29  1  0  0  0  0
  2  3  1  0  0  0  0
  2  9  1  0  0  0  0
  2 30  1  0  0  0  0
  3  4  1  0  0  0  0
  3  5  1  0  0  0  0
  3 31  1  0  0  0  0
  4 32  1  0  0  0  0
  4 33  1  0  0  0  0
  4 34  1  0  0  0  0
  5  6  1  0  0  0  0
  5  7  2  0  0  0  0
  5  8  2  0  0  0  0
  6 35  1  0  0  0  0
  6 36  1  0  0  0  0
  6 37  1  0  0  0  0
  9 10  1  0  0  0  0
  9 11  1  0  0  0  0
 10 38  1  0  0  0  0
 10 39  1  0  0  0  0
 10 40  1  0  0  0  0
 11 16  1  0  0  0  0
 11 12  2  0  0  0  0
 12 13  1  0  0  0  0
 13 14  2  0  0  0  0
 13 41  1  0  0  0  0
 14 15  1  0  0  0  0
 15 19  1  0  0  0  0
 15 16  2  0  0  0  0
 16 17  1  0  0  0  0
 17 18  2  0  0  0  0
 18 19  1  0  0  0  0
 18 42  1  0  0  0  0
 19 20  1  0  0  0  0
 20 21  1  0  0  0  0
 20 43  1  0  0  0  0
 20 44  1  0  0  0  0
 21 26  1  0  0  0  0
 21 22  1  0  0  0  0
 21 24  1  0  0  0  0
 22 23  1  0  0  0  0
 22 45  1  0  0  0  0
 22 46  1  0  0  0  0
 23 47  1  0  0  0  0
 24 25  1  0  0  0  0
 24 48  1  0  0  0  0
 24 49  1  0  0  0  0
 25 26  1  0  0  0  0
 26 50  1  0  0  0  0
 26 51  1  0  0  0  0
M  END
> <s_m_source_file>
AV-unprocessed.smi

> <i_m_source_file_index>
156

> <i_lp_mmshare_version>
43012

> <i_f3d_flags>
0

> <s_epik_input>
W0NIM11TKD1PKSg9TylbQ0BASF0oW0NIM10pW0NAQEhdKFtDSDNdKU4oW0NIM10pYyhuW2NIXW4xKWMoYzEyKW5bY0hdbjJbQ0gyXUMzKFtDSDJdW09IXSlbQ0gyXU9bQ0gyXTM=

> <s_epik_cmdline>
J2VwaWtfcHl0aG9uJywgJy1waCcsICc3LjAnLCAnLXRuJywgJzgnLCAnLW1hJywgJzIwMCcsICctbWV0YWxfYmluZGluZycsICctaW1hZScsICc8aW5maWxlLm1hZT4nLCAnLW9tYWUnLCAnPG91dGZpbGUubWFlPic=

> <r_lp_tautomer_probability>
1

> <r_epik_Ionization_Penalty>
0.00107697

> <r_epik_Ionization_Penalty_Charging>
0

> <r_epik_Ionization_Penalty_Neutral>
0.00107697

> <r_epik_State_Penalty>
0.000614712

> <r_epik_Charging_Adjusted_Penalty>
0.000614712

> <i_epik_Tot_Q>
0

> <i_epik_Tot_abs_Q>
0

> <r_epik_Metal_State_Penalty>
-0

> <b_epik_Metal_Only>
0

> <s_lp_Force_Field>
OPLS_2005

> <r_lp_Energy>
28.6083

> <b_lp_Chiralities_Consistent>
1

> <s_lp_Variant>
AV-unprocessed.smi:156-3

> <Gold.Version>
5.8.1

> <Gold.Id.Protein>
6NUR|6NUR_protein|mol2

> <Gold.PLP.Fitness>
40.4324

> <Gold.PLP.PLP>
-29.6135

> <Gold.PLP.part.hbond>
-3.0000

> <Gold.PLP.part.metal>
0.0000

> <Gold.PLP.part.buried>
-6.2647

> <Gold.PLP.part.nonpolar>
-23.0406

> <Gold.PLP.part.repulsive>
1.9716

> <Gold.PLP.ligand.clash>
0.0000

> <Gold.PLP.ligand.torsion>
0.9010

> <Gold.PLP.Chemscore.Hbond>
2.8873

> <Gold.PLP.Chemscore.CHOScore>
1.0000

> <Gold.PLP.Chemscore.Metal>
0.0000

> <Gold.Chemscore.Hbonds>
donor molecule, donor type, donor heavy atom, donor atom, acceptor molecule, acceptor atom, score
      L1  H    23    47       P1 10747  0.86
      P1  H  6934  6946       L1     8  0.18
      P1  H 10785 10796       L1    25  0.98
      L1  C    13    41       P1  7957  1.00

> <Gold.PLP.Chemscore.Internal.Correction>
0.9592

> <Gold.Rescore>
     Score         DG    S(hbond)    S(metal)    S(lipo)     H(rot)  DE(clash)    DE(int)     intcor
      7.03     -11.59       2.66        0.00      46.44       3.21       0.93       3.64       ----

> <Gold.Chemscore.Fitness>
7.0316

> <Gold.Chemscore.DG>
-11.5933

> <Gold.Chemscore.ZeroCoef>
-5.4800

> <Gold.Chemscore.Hbond>
2.6649

> <Gold.Chemscore.Metal>
0.0000

> <Gold.Chemscore.Lipo>
46.4442

> <Gold.Chemscore.Internal_Hbond>
0.0000

> <Gold.Chemscore.DEClash>
0.9255

> <Gold.Chemscore.DEInternal>
3.6363

> <Gold.Chemscore.Rot>
3.2115

> <Gold.Chemscore.Internal.Correction>
   9.000000E+99

> <Gold.Chemscore.Hbonds>
donor molecule, donor type, donor heavy atom, donor atom, acceptor molecule, acceptor atom, score
      L1  H    23    47       P1 10747  0.84
      P1  H  6934  6946       L1     8  0.18
      P1  H 10785 10796       L1    25  0.74

> <Gold.Chemscore.Hbond.Weighted>
-8.9009

> <Gold.Chemscore.Metal.Weighted>
-0.0000

> <Gold.Chemscore.Lipo.Weighted>
-5.4340

> <Gold.Chemscore.Internal_Hbond.Weighted>
0.0000

> <Gold.Chemscore.DEClash.Weighted>
0.9255

> <Gold.Chemscore.DEInternal.Weighted>
3.6363

> <Gold.Chemscore.Rot.Weighted>
8.2215

> <Gold.Chemscore.Internal.Correction.Weighted>
   9.000000E+99

> <Gold.Protein.RotatedTorsions>
[ 6907 6896 6895 6894 ] final   73.78 input  -60.11 | X-H torsion
[ 7974 7965 7964 7962 ] final   29.88 input  175.53 | X-H torsion
[ 8008 7997 7996 7995 ] final   31.63 input   59.86 | X-H torsion
[ 10167 10162 10161 10158 ] final   10.97 input  -65.29 | X-H torsion
[ 10718 10713 10712 10709 ] final   72.47 input   66.30 | X-H torsion
[ 10763 10752 10751 10750 ] final -166.64 input  -60.55 | X-H torsion
[ 11005 11000 10999 10996 ] final -132.02 input  -57.11 | X-H torsion

> <Gold.Protein.ActiveResidues>
 VAL166  LYS551  ARG553  GLY616  TRP617  ASP618  TYR619  PRO620  LYS621  CYS622 
 ASP623  PHE694  ASN695  SER759  ASP760  ASP761  ALA762  ILE779  LEU786  VAL792 
 PHE793  MET794  SER795  GLU796  ALA797  LYS798  CYS799  TRP800  GLU811  SER814 

> <Gold.Protein.RotatedAtoms>
  152.4942  134.4370  159.9530 H   0  0  0  0  0  0  0  0  0  0  0  0  # atno 6907 bound_to 6896
  151.4351  133.3653  159.2782 H   0  0  0  0  0  0  0  0  0  0  0  0  # atno 6908 bound_to 6896
  150.9127  134.8567  159.7496 H   0  0  0  0  0  0  0  0  0  0  0  0  # atno 6909 bound_to 6896
  146.1645  139.6862  142.9010 H   0  0  0  0  0  0  0  0  0  0  0  0  # atno 7974 bound_to 7965
  155.1095  140.3237  155.4525 H   0  0  0  0  0  0  0  0  0  0  0  0  # atno 8008 bound_to 7997
  156.2694  140.2046  156.6167 H   0  0  0  0  0  0  0  0  0  0  0  0  # atno 8009 bound_to 7997
  154.6767  140.0530  157.0210 H   0  0  0  0  0  0  0  0  0  0  0  0  # atno 8010 bound_to 7997
  140.6161  143.8304  150.7120 H   0  0  0  0  0  0  0  0  0  0  0  0  # atno 10167 bound_to 10162
  157.6502  130.9580  150.0934 H   0  0  0  0  0  0  0  0  0  0  0  0  # atno 10718 bound_to 10713
  154.6812  135.2955  154.9610 H   0  0  0  0  0  0  0  0  0  0  0  0  # atno 10763 bound_to 10752
  154.0604  135.6632  153.4815 H   0  0  0  0  0  0  0  0  0  0  0  0  # atno 10764 bound_to 10752
  153.0549  135.5151  154.7856 H   0  0  0  0  0  0  0  0  0  0  0  0  # atno 10765 bound_to 10752
  140.9207  134.1448  157.4316 H   0  0  0  0  0  0  0  0  0  0  0  0  # atno 11005 bound_to 11000
  145.4503  141.0428  143.2808 LP  0  0  0  0  0  0  0  0  0  0  0  0  # atno 17320 bound_to 7965
  144.8073  139.6027  143.7045 LP  0  0  0  0  0  0  0  0  0  0  0  0  # atno 17321 bound_to 7965
  140.1884  143.4057  152.1881 LP  0  0  0  0  0  0  0  0  0  0  0  0  # atno 17342 bound_to 10162
  139.5400  144.7247  151.4766 LP  0  0  0  0  0  0  0  0  0  0  0  0  # atno 17343 bound_to 10162
  156.1876  130.3653  149.8952 LP  0  0  0  0  0  0  0  0  0  0  0  0  # atno 17370 bound_to 10713
  156.6888  130.8887  151.3585 LP  0  0  0  0  0  0  0  0  0  0  0  0  # atno 17371 bound_to 10713
  139.8775  134.9970  156.5825 LP  0  0  0  0  0  0  0  0  0  0  0  0  # atno 17394 bound_to 11000
  140.7991  133.8520  155.8711 LP  0  0  0  0  0  0  0  0  0  0  0  0  # atno 17395 bound_to 11000

$$$$
