AV-unprocessed.smi:2855|AV-procd|sdf|10991|dock8
  -GOLD-   2272015443D 1   1.00000     0.00000
 Structure written by MMmdl.
 46 47  0  0  0  0  0  0  0  0  2 V2000
  150.5709  142.4545  158.3977 C   0  0  0  0  0  0  0  0  0  0  0  0
  150.8021  141.0737  157.7682 C   0  0  2  0  0  0  0  0  0  0  0  0
  151.3829  141.1926  156.3443 C   0  0  0  0  0  0  0  0  0  0  0  0
  151.5435  139.8147  155.6743 C   0  0  0  0  0  0  0  0  0  0  0  0
  150.2049  139.0359  155.6124 C   0  0  2  0  0  0  0  0  0  0  0  0
  149.1681  139.6691  154.6180 C   0  0  0  0  0  0  0  0  0  0  0  0
  148.6905  141.0790  155.0191 C   0  0  0  0  0  0  0  0  0  0  0  0
  147.9210  138.7818  154.4276 C   0  0  0  0  0  0  0  0  0  0  0  0
  149.7431  138.8642  157.0928 C   0  0  2  0  0  0  0  0  0  0  0  0
  148.5896  137.9887  157.2772 N   0  0  0  0  0  0  0  0  0  0  0  0
  148.5931  136.8192  157.9352 C   0  0  0  0  0  0  0  0  0  0  0  0
  149.5986  136.3506  158.4711 O   0  0  0  0  0  0  0  0  0  0  0  0
  147.2535  136.0695  157.9590 C   0  0  0  0  0  0  0  0  0  0  0  0
  146.8530  135.6215  159.3025 N   0  0  0  0  0  0  0  0  0  0  0  0
  146.7672  136.5952  160.3133 C   0  0  0  0  0  0  0  0  0  0  0  0
  146.4052  136.2826  161.5721 C   0  0  0  0  0  0  0  0  0  0  0  0
  146.0977  134.8906  161.8762 C   0  0  0  0  0  0  0  0  0  0  0  0
  145.7725  134.5856  163.0219 O   0  0  0  0  0  0  0  0  0  0  0  0
  146.1884  133.9838  160.8594 N   0  5  0  0  0  0  0  0  0  0  0  0
  146.5539  134.3171  159.5825 C   0  0  0  0  0  0  0  0  0  0  0  0
  146.6245  133.4835  158.6786 O   0  0  0  0  0  0  0  0  0  0  0  0
  149.5136  140.2261  157.7752 C   0  0  0  0  0  0  0  0  0  0  0  0
  149.8453  143.0340  157.8258 H   0  0  0  0  0  0  0  0  0  0  0  0
  151.4973  143.0278  158.4378 H   0  0  0  0  0  0  0  0  0  0  0  0
  150.1950  142.3634  159.4169 H   0  0  0  0  0  0  0  0  0  0  0  0
  151.5400  140.5546  158.3819 H   0  0  0  0  0  0  0  0  0  0  0  0
  150.7438  141.8293  155.7324 H   0  0  0  0  0  0  0  0  0  0  0  0
  152.3526  141.6896  156.3847 H   0  0  0  0  0  0  0  0  0  0  0  0
  151.9976  139.9205  154.6907 H   0  0  0  0  0  0  0  0  0  0  0  0
  152.2670  139.2326  156.2469 H   0  0  0  0  0  0  0  0  0  0  0  0
  150.4439  138.0452  155.2236 H   0  0  0  0  0  0  0  0  0  0  0  0
  149.6306  139.7639  153.6364 H   0  0  0  0  0  0  0  0  0  0  0  0
  148.3717  141.1112  156.0614 H   0  0  0  0  0  0  0  0  0  0  0  0
  147.8472  141.4028  154.4084 H   0  0  0  0  0  0  0  0  0  0  0  0
  149.4654  141.8292  154.8720 H   0  0  0  0  0  0  0  0  0  0  0  0
  147.4549  138.5411  155.3836 H   0  0  0  0  0  0  0  0  0  0  0  0
  148.1569  137.8480  153.9188 H   0  0  0  0  0  0  0  0  0  0  0  0
  147.1709  139.2777  153.8108 H   0  0  0  0  0  0  0  0  0  0  0  0
  150.5586  138.3834  157.6375 H   0  0  0  0  0  0  0  0  0  0  0  0
  147.7183  138.2951  156.8695 H   0  0  0  0  0  0  0  0  0  0  0  0
  146.4817  136.7056  157.5223 H   0  0  0  0  0  0  0  0  0  0  0  0
  147.3294  135.2124  157.2882 H   0  0  0  0  0  0  0  0  0  0  0  0
  147.0043  137.6021  160.0022 H   0  0  0  0  0  0  0  0  0  0  0  0
  146.3403  137.0432  162.3362 H   0  0  0  0  0  0  0  0  0  0  0  0
  149.1937  140.0693  158.8064 H   0  0  0  0  0  0  0  0  0  0  0  0
  148.7020  140.7647  157.2857 H   0  0  0  0  0  0  0  0  0  0  0  0
  1  2  1  0  0  0  0
  1 23  1  0  0  0  0
  1 24  1  0  0  0  0
  1 25  1  0  0  0  0
  2 22  1  0  0  0  0
  2  3  1  0  0  0  0
  2 26  1  0  0  0  0
  3  4  1  0  0  0  0
  3 27  1  0  0  0  0
  3 28  1  0  0  0  0
  4  5  1  0  0  0  0
  4 29  1  0  0  0  0
  4 30  1  0  0  0  0
  5  6  1  0  0  0  0
  5  9  1  0  0  0  0
  5 31  1  0  0  0  0
  6  7  1  0  0  0  0
  6  8  1  0  0  0  0
  6 32  1  0  0  0  0
  7 33  1  0  0  0  0
  7 34  1  0  0  0  0
  7 35  1  0  0  0  0
  8 36  1  0  0  0  0
  8 37  1  0  0  0  0
  8 38  1  0  0  0  0
  9 10  1  0  0  0  0
  9 22  1  0  0  0  0
  9 39  1  0  0  0  0
 10 11  1  0  0  0  0
 10 40  1  0  0  0  0
 11 12  2  0  0  0  0
 11 13  1  0  0  0  0
 13 14  1  0  0  0  0
 13 41  1  0  0  0  0
 13 42  1  0  0  0  0
 14 20  1  0  0  0  0
 14 15  1  0  0  0  0
 15 16  2  0  0  0  0
 15 43  1  0  0  0  0
 16 17  1  0  0  0  0
 16 44  1  0  0  0  0
 17 18  2  0  0  0  0
 17 19  1  0  0  0  0
 19 20  1  0  0  0  0
 20 21  2  0  0  0  0
 22 45  1  0  0  0  0
 22 46  1  0  0  0  0
M  CHG  1  19  -1
M  END
> <s_m_source_file>
AV-unprocessed.smi

> <i_m_source_file_index>
2855

> <i_lp_mmshare_version>
43012

> <i_f3d_flags>
0

> <s_epik_input>
W0NIM11bQ0BASF0xW0NIMl1bQ0gyXVtDQEBIXShbQ0hdKFtDSDNdKVtDSDNdKVtDQEhdKFtDSDJdMSlbTkhdQyg9TylbQ0gyXW4yW2NIXVtjSF1jKD1PKVtuSF1jMj1P

> <s_epik_cmdline>
J2VwaWtfcHl0aG9uJywgJy1waCcsICc3LjAnLCAnLXRuJywgJzgnLCAnLW1hJywgJzIwMCcsICctbWV0YWxfYmluZGluZycsICctaW1hZScsICc8aW5maWxlLm1hZT4nLCAnLW9tYWUnLCAnPG91dGZpbGUubWFlPic=

> <r_lp_tautomer_probability>
0.999537

> <r_epik_Ionization_Penalty>
3.12102

> <r_epik_Ionization_Penalty_Charging>
2.9581e-08

> <r_epik_Ionization_Penalty_Neutral>
3.12102

> <r_epik_State_Penalty>
3.12011

> <r_epik_Charging_Adjusted_Penalty>
3.12011

> <i_epik_Tot_Q>
-1

> <i_epik_Tot_abs_Q>
1

> <r_epik_Metal_State_Penalty>
0.463583

> <b_epik_Metal_Only>
1

> <s_lp_Force_Field>
OPLS_2005

> <r_lp_Energy>
28.6833

> <b_lp_Chiralities_Consistent>
1

> <s_lp_Variant>
AV-unprocessed.smi:2855-15

> <Gold.Version>
5.8.1

> <Gold.Id.Protein>
6NUR|6NUR_protein|mol2

> <Gold.PLP.Fitness>
35.1013

> <Gold.PLP.PLP>
-32.5198

> <Gold.PLP.part.hbond>
-3.0000

> <Gold.PLP.part.metal>
0.0000

> <Gold.PLP.part.buried>
-5.1976

> <Gold.PLP.part.nonpolar>
-24.9926

> <Gold.PLP.part.repulsive>
0.1064

> <Gold.PLP.ligand.clash>
0.0000

> <Gold.PLP.ligand.torsion>
0.1618

> <Gold.PLP.Chemscore.Hbond>
0.9440

> <Gold.PLP.Chemscore.CHOScore>
0.0000

> <Gold.PLP.Chemscore.Metal>
0.0000

> <Gold.Chemscore.Hbonds>
donor molecule, donor type, donor heavy atom, donor atom, acceptor molecule, acceptor atom, score
      P1  H  6896  6908       L1    12  0.37

> <Gold.PLP.Chemscore.Internal.Correction>
0.0731

> <Gold.Rescore>
     Score         DG    S(hbond)    S(metal)    S(lipo)     H(rot)  DE(clash)    DE(int)     intcor
      9.10     -11.83       1.00        0.00      65.46       1.81       0.74       1.99       ----

> <Gold.Chemscore.Fitness>
9.0973

> <Gold.Chemscore.DG>
-11.8344

> <Gold.Chemscore.ZeroCoef>
-5.4800

> <Gold.Chemscore.Hbond>
0.9966

> <Gold.Chemscore.Metal>
0.0000

> <Gold.Chemscore.Lipo>
65.4642

> <Gold.Chemscore.Internal_Hbond>
0.0000

> <Gold.Chemscore.DEClash>
0.7439

> <Gold.Chemscore.DEInternal>
1.9933

> <Gold.Chemscore.Rot>
1.8100

> <Gold.Chemscore.Internal.Correction>
   9.000000E+99

> <Gold.Chemscore.Hbonds>
donor molecule, donor type, donor heavy atom, donor atom, acceptor molecule, acceptor atom, score
      P1  H  6896  6908       L1    12  0.37

> <Gold.Chemscore.Hbond.Weighted>
-3.3286

> <Gold.Chemscore.Metal.Weighted>
-0.0000

> <Gold.Chemscore.Lipo.Weighted>
-7.6593

> <Gold.Chemscore.Internal_Hbond.Weighted>
0.0000

> <Gold.Chemscore.DEClash.Weighted>
0.7439

> <Gold.Chemscore.DEInternal.Weighted>
1.9933

> <Gold.Chemscore.Rot.Weighted>
4.6335

> <Gold.Chemscore.Internal.Correction.Weighted>
   9.000000E+99

> <Gold.Protein.RotatedTorsions>
[ 6907 6896 6895 6894 ] final -175.37 input  -60.11 | X-H torsion
[ 7974 7965 7964 7962 ] final -110.73 input  175.53 | X-H torsion
[ 8008 7997 7996 7995 ] final   87.44 input   59.86 | X-H torsion
[ 10167 10162 10161 10158 ] final -156.04 input  -65.29 | X-H torsion
[ 10718 10713 10712 10709 ] final  -10.21 input   66.30 | X-H torsion
[ 10763 10752 10751 10750 ] final   62.95 input  -60.55 | X-H torsion
[ 11005 11000 10999 10996 ] final  174.21 input  -57.11 | X-H torsion

> <Gold.Protein.ActiveResidues>
 VAL166  LYS551  ARG553  GLY616  TRP617  ASP618  TYR619  PRO620  LYS621  CYS622 
 ASP623  PHE694  ASN695  SER759  ASP760  ASP761  ALA762  ILE779  LEU786  VAL792 
 PHE793  MET794  SER795  GLU796  ALA797  LYS798  CYS799  TRP800  GLU811  SER814 

> <Gold.Protein.RotatedAtoms>
  151.5874  133.3370  159.3020 H   0  0  0  0  0  0  0  0  0  0  0  0  # atno 6907 bound_to 6896
  150.8279  134.7522  159.6840 H   0  0  0  0  0  0  0  0  0  0  0  0  # atno 6908 bound_to 6896
  152.4366  134.5680  159.9964 H   0  0  0  0  0  0  0  0  0  0  0  0  # atno 6909 bound_to 6896
  145.1646  140.8895  143.3570 H   0  0  0  0  0  0  0  0  0  0  0  0  # atno 7974 bound_to 7965
  155.9754  140.3382  155.6614 H   0  0  0  0  0  0  0  0  0  0  0  0  # atno 8008 bound_to 7997
  155.6619  140.0717  157.2569 H   0  0  0  0  0  0  0  0  0  0  0  0  # atno 8009 bound_to 7997
  154.4177  140.1707  156.1773 H   0  0  0  0  0  0  0  0  0  0  0  0  # atno 8010 bound_to 7997
  139.6882  143.9465  152.2372 H   0  0  0  0  0  0  0  0  0  0  0  0  # atno 10167 bound_to 10162
  156.6768  130.5025  149.5983 H   0  0  0  0  0  0  0  0  0  0  0  0  # atno 10718 bound_to 10713
  153.0000  135.5447  154.6274 H   0  0  0  0  0  0  0  0  0  0  0  0  # atno 10763 bound_to 10752
  154.5559  135.2830  155.0967 H   0  0  0  0  0  0  0  0  0  0  0  0  # atno 10764 bound_to 10752
  154.2188  135.6454  153.5191 H   0  0  0  0  0  0  0  0  0  0  0  0  # atno 10765 bound_to 10752
  140.3488  134.7213  157.4253 H   0  0  0  0  0  0  0  0  0  0  0  0  # atno 11005 bound_to 11000
  145.0295  139.3353  143.6031 LP  0  0  0  0  0  0  0  0  0  0  0  0  # atno 17320 bound_to 7965
  146.3477  139.9627  142.8715 LP  0  0  0  0  0  0  0  0  0  0  0  0  # atno 17321 bound_to 7965
  139.9273  144.6763  150.8399 LP  0  0  0  0  0  0  0  0  0  0  0  0  # atno 17342 bound_to 10162
  140.7674  143.3333  151.2364 LP  0  0  0  0  0  0  0  0  0  0  0  0  # atno 17343 bound_to 10162
  156.1897  130.6552  151.1047 LP  0  0  0  0  0  0  0  0  0  0  0  0  # atno 17370 bound_to 10713
  157.7058  131.0757  150.6672 LP  0  0  0  0  0  0  0  0  0  0  0  0  # atno 17371 bound_to 10713
  140.0720  134.5849  155.8632 LP  0  0  0  0  0  0  0  0  0  0  0  0  # atno 17394 bound_to 11000
  141.2018  133.6621  156.5970 LP  0  0  0  0  0  0  0  0  0  0  0  0  # atno 17395 bound_to 11000

$$$$
