AV-unprocessed.smi:3071|AV-procd|sdf|11716|dock4
  -GOLD-   2272017113D 1   1.00000     0.00000
 Structure written by MMmdl.
 29 30  0  0  0  0  0  0  0  0  3 V2000
  151.4980  138.8313  154.9637 C   0  0  0  0  0  0  0  0  0  0  0  0
  150.4940  139.9384  155.0016 C   0  0  0  0  0  0  0  0  0  0  0  0
  149.5810  140.1910  154.0565 N   0  3  0  0  0  0  0  0  0  0  0  0
  148.8172  141.2706  154.4071 C   0  0  0  0  0  0  0  0  0  0  0  0
  149.2850  141.6971  155.6223 C   0  0  0  0  0  0  0  0  0  0  0  0
  150.3189  140.8613  155.9633 N   0  0  0  0  0  0  0  0  0  0  0  0
  151.1285  140.9318  157.1884 C   0  0  0  0  0  0  0  0  0  0  0  0
  151.0097  142.2884  157.9094 C   0  0  1  0  0  0  0  0  0  0  0  0
  151.9356  142.4652  159.1171 C   0  0  0  0  0  0  0  0  0  0  0  0
  152.0378  143.9805  159.2439 C   0  0  0  0  0  0  0  0  0  0  0  0
  152.0169  144.4632  157.7911 C   0  0  0  0  0  0  0  0  0  0  0  0
  151.3176  143.4204  157.0121 N   0  3  0  0  0  0  0  0  0  0  0  0
  151.3661  138.2636  154.0420 H   0  0  0  0  0  0  0  0  0  0  0  0
  151.3371  138.1814  155.8241 H   0  0  0  0  0  0  0  0  0  0  0  0
  152.4991  139.2609  154.9935 H   0  0  0  0  0  0  0  0  0  0  0  0
  148.0183  141.6436  153.7825 H   0  0  0  0  0  0  0  0  0  0  0  0
  148.9661  142.5147  156.2526 H   0  0  0  0  0  0  0  0  0  0  0  0
  150.7980  140.1251  157.8442 H   0  0  0  0  0  0  0  0  0  0  0  0
  152.1666  140.7165  156.9323 H   0  0  0  0  0  0  0  0  0  0  0  0
  149.9828  142.4308  158.2485 H   0  0  0  0  0  0  0  0  0  0  0  0
  151.5512  141.9910  160.0208 H   0  0  0  0  0  0  0  0  0  0  0  0
  152.9212  142.0463  158.9074 H   0  0  0  0  0  0  0  0  0  0  0  0
  151.1654  144.3646  159.7750 H   0  0  0  0  0  0  0  0  0  0  0  0
  152.9281  144.3035  159.7847 H   0  0  0  0  0  0  0  0  0  0  0  0
  151.5270  145.4319  157.6867 H   0  0  0  0  0  0  0  0  0  0  0  0
  153.0333  144.5574  157.4068 H   0  0  0  0  0  0  0  0  0  0  0  0
  151.9339  143.1082  156.2749 H   0  0  0  0  0  0  0  0  0  0  0  0
  150.4665  143.7861  156.6090 H   0  0  0  0  0  0  0  0  0  0  0  0
  149.4704  139.6550  153.2046 H   0  0  0  0  0  0  0  0  0  0  0  0
  1  2  1  0  0  0  0
  1 13  1  0  0  0  0
  1 14  1  0  0  0  0
  1 15  1  0  0  0  0
  2  6  1  0  0  0  0
  2  3  2  0  0  0  0
  3  4  1  0  0  0  0
  3 29  1  0  0  0  0
  4  5  2  0  0  0  0
  4 16  1  0  0  0  0
  5  6  1  0  0  0  0
  5 17  1  0  0  0  0
  6  7  1  0  0  0  0
  7  8  1  0  0  0  0
  7 18  1  0  0  0  0
  7 19  1  0  0  0  0
  8 12  1  0  0  0  0
  8  9  1  0  0  0  0
  8 20  1  0  0  0  0
  9 10  1  0  0  0  0
  9 21  1  0  0  0  0
  9 22  1  0  0  0  0
 10 11  1  0  0  0  0
 10 23  1  0  0  0  0
 10 24  1  0  0  0  0
 11 12  1  0  0  0  0
 11 25  1  0  0  0  0
 11 26  1  0  0  0  0
 12 27  1  0  0  0  0
 12 28  1  0  0  0  0
M  CHG  1   3   1
M  CHG  1  12   1
M  END
> <s_m_source_file>
AV-unprocessed.smi

> <i_m_source_file_index>
3071

> <i_lp_mmshare_version>
43012

> <i_f3d_flags>
0

> <s_epik_input>
W0NIM11jMW5bY0hdW2NIXW4xW0NIMl1bQ0BASF0yW0NIMl1bQ0gyXVtDSDJdW05IXTI=

> <s_epik_cmdline>
J2VwaWtfcHl0aG9uJywgJy1waCcsICc3LjAnLCAnLXRuJywgJzgnLCAnLW1hJywgJzIwMCcsICctbWV0YWxfYmluZGluZycsICctaW1hZScsICc8aW5maWxlLm1hZT4nLCAnLW9tYWUnLCAnPG91dGZpbGUubWFlPic=

> <r_lp_tautomer_probability>
1

> <r_epik_Ionization_Penalty>
0.770167

> <r_epik_Ionization_Penalty_Charging>
0.000985251

> <r_epik_Ionization_Penalty_Neutral>
0.769181

> <r_epik_State_Penalty>
0.493256

> <r_epik_Charging_Adjusted_Penalty>
0.494241

> <i_epik_Tot_Q>
2

> <i_epik_Tot_abs_Q>
2

> <r_epik_Metal_State_Penalty>
4.24699

> <b_epik_Metal_Only>
0

> <s_lp_Force_Field>
OPLS_2005

> <r_lp_Energy>
34.2931

> <b_lp_Chiralities_Consistent>
1

> <s_lp_Variant>
AV-unprocessed.smi:3071-4

> <Gold.Version>
5.8.1

> <Gold.Id.Protein>
6NUR|6NUR_protein|mol2

> <Gold.PLP.Fitness>
40.6441

> <Gold.PLP.PLP>
-30.1384

> <Gold.PLP.part.hbond>
-2.0000

> <Gold.PLP.part.metal>
0.0000

> <Gold.PLP.part.buried>
-1.0619

> <Gold.PLP.part.nonpolar>
-27.8188

> <Gold.PLP.part.repulsive>
1.0220

> <Gold.PLP.ligand.clash>
0.0000

> <Gold.PLP.ligand.torsion>
0.2425

> <Gold.PLP.Chemscore.Hbond>
2.7680

> <Gold.PLP.Chemscore.CHOScore>
0.8954

> <Gold.PLP.Chemscore.Metal>
0.0000

> <Gold.Chemscore.Hbonds>
donor molecule, donor type, donor heavy atom, donor atom, acceptor molecule, acceptor atom, score
      L1  H     3    29       P1  7957  0.62
      L1  H    12    28       P1  8028  1.89
      L1  C     5    17       P1  8028  0.93

> <Gold.PLP.Chemscore.Internal.Correction>
0.0004

> <Gold.Rescore>
     Score         DG    S(hbond)    S(metal)    S(lipo)     H(rot)  DE(clash)    DE(int)     intcor
     16.01     -16.58       1.78        0.00      71.45       1.25       0.25       0.32       ----

> <Gold.Chemscore.Fitness>
16.0137

> <Gold.Chemscore.DG>
-16.5835

> <Gold.Chemscore.ZeroCoef>
-5.4800

> <Gold.Chemscore.Hbond>
1.7778

> <Gold.Chemscore.Metal>
0.0000

> <Gold.Chemscore.Lipo>
71.4496

> <Gold.Chemscore.Internal_Hbond>
0.0000

> <Gold.Chemscore.DEClash>
0.2546

> <Gold.Chemscore.DEInternal>
0.3152

> <Gold.Chemscore.Rot>
1.2477

> <Gold.Chemscore.Internal.Correction>
   9.000000E+99

> <Gold.Chemscore.Hbonds>
donor molecule, donor type, donor heavy atom, donor atom, acceptor molecule, acceptor atom, score
      L1  H     3    29       P1  7957  0.60
      L1  H    12    28       P1  8028  0.90

> <Gold.Chemscore.Hbond.Weighted>
-5.9379

> <Gold.Chemscore.Metal.Weighted>
-0.0000

> <Gold.Chemscore.Lipo.Weighted>
-8.3596

> <Gold.Chemscore.Internal_Hbond.Weighted>
0.0000

> <Gold.Chemscore.DEClash.Weighted>
0.2546

> <Gold.Chemscore.DEInternal.Weighted>
0.3152

> <Gold.Chemscore.Rot.Weighted>
3.1941

> <Gold.Chemscore.Internal.Correction.Weighted>
   9.000000E+99

> <Gold.Protein.RotatedTorsions>
[ 6907 6896 6895 6894 ] final -173.95 input  -60.11 | X-H torsion
[ 7974 7965 7964 7962 ] final  128.63 input  175.53 | X-H torsion
[ 8008 7997 7996 7995 ] final  -16.40 input   59.86 | X-H torsion
[ 10167 10162 10161 10158 ] final   66.65 input  -65.29 | X-H torsion
[ 10718 10713 10712 10709 ] final   83.70 input   66.30 | X-H torsion
[ 10763 10752 10751 10750 ] final   -0.81 input  -60.55 | X-H torsion
[ 11005 11000 10999 10996 ] final  -23.45 input  -57.11 | X-H torsion

> <Gold.Protein.ActiveResidues>
 VAL166  LYS551  ARG553  GLY616  TRP617  ASP618  TYR619  PRO620  LYS621  CYS622 
 ASP623  PHE694  ASN695  SER759  ASP760  ASP761  ALA762  ILE779  LEU786  VAL792 
 PHE793  MET794  SER795  GLU796  ALA797  LYS798  CYS799  TRP800  GLU811  SER814 

> <Gold.Protein.RotatedAtoms>
  151.5644  133.3398  159.2977 H   0  0  0  0  0  0  0  0  0  0  0  0  # atno 6907 bound_to 6896
  150.8404  134.7696  159.6938 H   0  0  0  0  0  0  0  0  0  0  0  0  # atno 6908 bound_to 6896
  152.4472  134.5476  159.9909 H   0  0  0  0  0  0  0  0  0  0  0  0  # atno 6909 bound_to 6896
  145.0375  139.3992  143.5119 H   0  0  0  0  0  0  0  0  0  0  0  0  # atno 7974 bound_to 7965
  154.5056  140.2170  155.9258 H   0  0  0  0  0  0  0  0  0  0  0  0  # atno 8008 bound_to 7997
  156.1489  140.3165  155.8582 H   0  0  0  0  0  0  0  0  0  0  0  0  # atno 8009 bound_to 7997
  155.3977  140.0482  157.3029 H   0  0  0  0  0  0  0  0  0  0  0  0  # atno 8010 bound_to 7997
  140.0981  144.4929  150.7055 H   0  0  0  0  0  0  0  0  0  0  0  0  # atno 10167 bound_to 10162
  157.6884  131.0102  150.2562 H   0  0  0  0  0  0  0  0  0  0  0  0  # atno 10718 bound_to 10713
  153.3367  135.6978  153.6902 H   0  0  0  0  0  0  0  0  0  0  0  0  # atno 10763 bound_to 10752
  153.5683  135.3521  155.2828 H   0  0  0  0  0  0  0  0  0  0  0  0  # atno 10764 bound_to 10752
  154.8629  135.4266  154.2569 H   0  0  0  0  0  0  0  0  0  0  0  0  # atno 10765 bound_to 10752
  140.8753  133.7692  156.0236 H   0  0  0  0  0  0  0  0  0  0  0  0  # atno 11005 bound_to 11000
  146.3506  139.9957  142.8681 LP  0  0  0  0  0  0  0  0  0  0  0  0  # atno 17320 bound_to 7965
  145.1691  140.9712  143.4332 LP  0  0  0  0  0  0  0  0  0  0  0  0  # atno 17321 bound_to 7965
  140.6993  143.2424  151.4911 LP  0  0  0  0  0  0  0  0  0  0  0  0  # atno 17342 bound_to 10162
  139.5687  144.1981  152.1804 LP  0  0  0  0  0  0  0  0  0  0  0  0  # atno 17343 bound_to 10162
  156.3150  130.3777  149.7627 LP  0  0  0  0  0  0  0  0  0  0  0  0  # atno 17370 bound_to 10713
  156.5215  130.8217  151.3205 LP  0  0  0  0  0  0  0  0  0  0  0  0  # atno 17371 bound_to 10713
  140.8525  134.2937  157.5269 LP  0  0  0  0  0  0  0  0  0  0  0  0  # atno 17394 bound_to 11000
  139.8715  134.9475  156.3970 LP  0  0  0  0  0  0  0  0  0  0  0  0  # atno 17395 bound_to 11000

$$$$
