AV-unprocessed.smi:1702|AV-procd|sdf|6846|dock2
  -GOLD-   22720 8 23D 1   1.00000     0.00000
 Structure written by MMmdl.
 44 46  0  0  0  0  0  0  0  0  2 V2000
  144.5963  136.7842  151.4964 C   0  0  0  0  0  0  0  0  0  0  0  0
  145.5225  137.5872  152.4201 C   0  0  2  0  0  0  0  0  0  0  0  0
  146.5102  138.4542  151.6219 C   0  0  0  0  0  0  0  0  0  0  0  0
  147.4548  139.2292  152.5558 C   0  0  0  0  0  0  0  0  0  0  0  0
  148.1905  138.3092  153.4612 N   0  3  1  0  0  0  0  0  0  0  0  0
  149.2060  139.0212  154.2787 C   0  0  0  0  0  0  0  0  0  0  0  0
  148.6813  140.3490  154.8720 C   0  0  1  0  0  0  0  0  0  0  0  0
  147.9877  140.0769  156.0732 O   0  0  0  0  0  0  0  0  0  0  0  0
  149.8032  141.3517  155.2060 C   0  0  0  0  0  0  0  0  0  0  0  0
  150.6876  140.8709  156.2520 N   0  0  0  0  0  0  0  0  0  0  0  0
  151.4680  139.7739  156.2087 C   0  0  0  0  0  0  0  0  0  0  0  0
  152.2018  139.5059  157.2849 N   0  0  0  0  0  0  0  0  0  0  0  0
  151.8650  140.5549  158.1227 C   0  0  0  0  0  0  0  0  0  0  0  0
  152.3002  140.8592  159.4321 C   0  0  0  0  0  0  0  0  0  0  0  0
  151.8068  141.9974  160.1031 C   0  0  0  0  0  0  0  0  0  0  0  0
  152.2325  142.2731  161.3586 F   0  0  0  0  0  0  0  0  0  0  0  0
  150.8723  142.8476  159.4751 C   0  0  0  0  0  0  0  0  0  0  0  0
  150.4008  143.9365  160.1271 F   0  0  0  0  0  0  0  0  0  0  0  0
  150.4252  142.5656  158.1702 C   0  0  0  0  0  0  0  0  0  0  0  0
  150.9199  141.4287  157.5050 C   0  0  0  0  0  0  0  0  0  0  0  0
  147.2558  137.4846  154.2729 C   0  0  0  0  0  0  0  0  0  0  0  0
  146.3089  136.6724  153.3738 C   0  0  0  0  0  0  0  0  0  0  0  0
  145.1626  136.1029  150.8606 H   0  0  0  0  0  0  0  0  0  0  0  0
  144.0209  137.4448  150.8469 H   0  0  0  0  0  0  0  0  0  0  0  0
  143.8869  136.1895  152.0724 H   0  0  0  0  0  0  0  0  0  0  0  0
  144.8978  138.2493  153.0217 H   0  0  0  0  0  0  0  0  0  0  0  0
  147.0973  137.8254  150.9506 H   0  0  0  0  0  0  0  0  0  0  0  0
  145.9647  139.1552  150.9891 H   0  0  0  0  0  0  0  0  0  0  0  0
  148.1631  139.7976  151.9520 H   0  0  0  0  0  0  0  0  0  0  0  0
  146.8911  139.9517  153.1484 H   0  0  0  0  0  0  0  0  0  0  0  0
  149.5326  138.3845  155.1025 H   0  0  0  0  0  0  0  0  0  0  0  0
  150.0883  139.1874  153.6598 H   0  0  0  0  0  0  0  0  0  0  0  0
  147.9869  140.8318  154.1854 H   0  0  0  0  0  0  0  0  0  0  0  0
  147.4326  140.8124  156.2828 H   0  0  0  0  0  0  0  0  0  0  0  0
  150.4069  141.5528  154.3195 H   0  0  0  0  0  0  0  0  0  0  0  0
  149.3823  142.3088  155.5171 H   0  0  0  0  0  0  0  0  0  0  0  0
  151.4947  139.1329  155.3394 H   0  0  0  0  0  0  0  0  0  0  0  0
  153.0149  140.2152  159.9229 H   0  0  0  0  0  0  0  0  0  0  0  0
  149.7098  143.2156  157.6889 H   0  0  0  0  0  0  0  0  0  0  0  0
  147.8084  136.7970  154.9117 H   0  0  0  0  0  0  0  0  0  0  0  0
  146.6780  138.1317  154.9349 H   0  0  0  0  0  0  0  0  0  0  0  0
  145.6188  136.0985  153.9933 H   0  0  0  0  0  0  0  0  0  0  0  0
  146.8861  135.9456  152.8001 H   0  0  0  0  0  0  0  0  0  0  0  0
  148.7000  137.6771  152.8606 H   0  0  0  0  0  0  0  0  0  0  0  0
  1  2  1  0  0  0  0
  1 23  1  0  0  0  0
  1 24  1  0  0  0  0
  1 25  1  0  0  0  0
  2 22  1  0  0  0  0
  2  3  1  0  0  0  0
  2 26  1  0  0  0  0
  3  4  1  0  0  0  0
  3 27  1  0  0  0  0
  3 28  1  0  0  0  0
  4  5  1  0  0  0  0
  4 29  1  0  0  0  0
  4 30  1  0  0  0  0
  5  6  1  0  0  0  0
  5 21  1  0  0  0  0
  5 44  1  0  0  0  0
  6  7  1  0  0  0  0
  6 31  1  0  0  0  0
  6 32  1  0  0  0  0
  7  8  1  0  0  0  0
  7  9  1  0  0  0  0
  7 33  1  0  0  0  0
  8 34  1  0  0  0  0
  9 10  1  0  0  0  0
  9 35  1  0  0  0  0
  9 36  1  0  0  0  0
 10 20  1  0  0  0  0
 10 11  1  0  0  0  0
 11 12  2  0  0  0  0
 11 37  1  0  0  0  0
 12 13  1  0  0  0  0
 13 20  2  0  0  0  0
 13 14  1  0  0  0  0
 14 15  2  0  0  0  0
 14 38  1  0  0  0  0
 15 16  1  0  0  0  0
 15 17  1  0  0  0  0
 17 18  1  0  0  0  0
 17 19  2  0  0  0  0
 19 20  1  0  0  0  0
 19 39  1  0  0  0  0
 21 22  1  0  0  0  0
 21 40  1  0  0  0  0
 21 41  1  0  0  0  0
 22 42  1  0  0  0  0
 22 43  1  0  0  0  0
M  CHG  1   5   1
M  END
> <s_m_source_file>
AV-unprocessed.smi

> <i_m_source_file_index>
1702

> <i_lp_mmshare_version>
43012

> <i_f3d_flags>
0

> <s_epik_input>
W0NIM11bQ0hdMVtDSDJdW0NIMl1OKFtDSDJdW0NIMl0xKVtDSDJdW0NASF0oW09IXSlbQ0gyXW4oW2NIXW4yKWMoYzIzKVtjSF1jKEYpYyhGKVtjSF0z

> <s_epik_cmdline>
J2VwaWtfcHl0aG9uJywgJy1waCcsICc3LjAnLCAnLXRuJywgJzgnLCAnLW1hJywgJzIwMCcsICctbWV0YWxfYmluZGluZycsICctaW1hZScsICc8aW5maWxlLm1hZT4nLCAnLW9tYWUnLCAnPG91dGZpbGUubWFlPic=

> <r_epik_Ionization_Penalty>
0.0135195

> <r_epik_Ionization_Penalty_Charging>
0.00181365

> <r_epik_Ionization_Penalty_Neutral>
0.0117059

> <r_epik_State_Penalty>
0.00902283

> <r_epik_Charging_Adjusted_Penalty>
0.0108365

> <i_epik_Tot_Q>
1

> <i_epik_Tot_abs_Q>
1

> <r_epik_Metal_State_Penalty>
9.09181e-06

> <b_epik_Metal_Only>
0

> <s_lp_Force_Field>
OPLS_2005

> <r_lp_Energy>
23.1307

> <b_lp_Chiralities_Consistent>
1

> <s_lp_Variant>
AV-unprocessed.smi:1702-2

> <Gold.Version>
5.8.1

> <Gold.Id.Protein>
6NUR|6NUR_protein|mol2

> <Gold.PLP.Fitness>
51.0289

> <Gold.PLP.PLP>
-42.8654

> <Gold.PLP.part.hbond>
-2.0000

> <Gold.PLP.part.metal>
0.0000

> <Gold.PLP.part.buried>
-2.9120

> <Gold.PLP.part.nonpolar>
-37.6119

> <Gold.PLP.part.repulsive>
0.0146

> <Gold.PLP.ligand.clash>
0.0000

> <Gold.PLP.ligand.torsion>
0.4543

> <Gold.PLP.Chemscore.Hbond>
3.0000

> <Gold.PLP.Chemscore.CHOScore>
0.0000

> <Gold.PLP.Chemscore.Metal>
0.0000

> <Gold.Chemscore.Hbonds>
donor molecule, donor type, donor heavy atom, donor atom, acceptor molecule, acceptor atom, score
      L1  H     5    44       P1  7948  2.00
      P1  H  7997  8010       L1    12  0.23

> <Gold.PLP.Chemscore.Internal.Correction>
0.0720

> <Gold.Rescore>
     Score         DG    S(hbond)    S(metal)    S(lipo)     H(rot)  DE(clash)    DE(int)     intcor
     16.00     -16.77       1.77        0.00      95.61       2.26       0.04       0.73       ----

> <Gold.Chemscore.Fitness>
16.0044

> <Gold.Chemscore.DG>
-16.7716

> <Gold.Chemscore.ZeroCoef>
-5.4800

> <Gold.Chemscore.Hbond>
1.7650

> <Gold.Chemscore.Metal>
0.0000

> <Gold.Chemscore.Lipo>
95.6146

> <Gold.Chemscore.Internal_Hbond>
0.0000

> <Gold.Chemscore.DEClash>
0.0370

> <Gold.Chemscore.DEInternal>
0.7303

> <Gold.Chemscore.Rot>
2.2619

> <Gold.Chemscore.Internal.Correction>
   9.000000E+99

> <Gold.Chemscore.Hbonds>
donor molecule, donor type, donor heavy atom, donor atom, acceptor molecule, acceptor atom, score
      L1  H     5    44       P1  7948  0.99
      P1  H  7997  8010       L1    12  0.03

> <Gold.Chemscore.Hbond.Weighted>
-5.8952

> <Gold.Chemscore.Metal.Weighted>
-0.0000

> <Gold.Chemscore.Lipo.Weighted>
-11.1869

> <Gold.Chemscore.Internal_Hbond.Weighted>
0.0000

> <Gold.Chemscore.DEClash.Weighted>
0.0370

> <Gold.Chemscore.DEInternal.Weighted>
0.7303

> <Gold.Chemscore.Rot.Weighted>
5.7904

> <Gold.Chemscore.Internal.Correction.Weighted>
   9.000000E+99

> <Gold.Protein.RotatedTorsions>
[ 6907 6896 6895 6894 ] final  -24.95 input  -60.11 | X-H torsion
[ 7974 7965 7964 7962 ] final   25.05 input  175.53 | X-H torsion
[ 8008 7997 7996 7995 ] final   62.22 input   59.86 | X-H torsion
[ 10167 10162 10161 10158 ] final  -68.93 input  -65.29 | X-H torsion
[ 10718 10713 10712 10709 ] final -143.29 input   66.30 | X-H torsion
[ 10763 10752 10751 10750 ] final  -96.25 input  -60.55 | X-H torsion
[ 11005 11000 10999 10996 ] final -153.64 input  -57.11 | X-H torsion

> <Gold.Protein.ActiveResidues>
 VAL166  LYS551  ARG553  GLY616  TRP617  ASP618  TYR619  PRO620  LYS621  CYS622 
 ASP623  PHE694  ASN695  SER759  ASP760  ASP761  ALA762  ILE779  LEU786  VAL792 
 PHE793  MET794  SER795  GLU796  ALA797  LYS798  CYS799  TRP800  GLU811  SER814 

> <Gold.Protein.RotatedAtoms>
  151.1821  135.0365  159.8796 H   0  0  0  0  0  0  0  0  0  0  0  0  # atno 6907 bound_to 6896
  152.5444  134.1051  159.8344 H   0  0  0  0  0  0  0  0  0  0  0  0  # atno 6908 bound_to 6896
  151.1169  133.5085  159.2636 H   0  0  0  0  0  0  0  0  0  0  0  0  # atno 6909 bound_to 6896
  146.1908  139.7520  142.8833 H   0  0  0  0  0  0  0  0  0  0  0  0  # atno 7974 bound_to 7965
  155.6109  140.3495  155.4622 H   0  0  0  0  0  0  0  0  0  0  0  0  # atno 8008 bound_to 7997
  156.0155  140.1242  157.0435 H   0  0  0  0  0  0  0  0  0  0  0  0  # atno 8009 bound_to 7997
  154.4296  140.1073  156.5875 H   0  0  0  0  0  0  0  0  0  0  0  0  # atno 8010 bound_to 7997
  140.5469  143.2313  151.6984 H   0  0  0  0  0  0  0  0  0  0  0  0  # atno 10167 bound_to 10162
  156.3562  130.7714  151.1874 H   0  0  0  0  0  0  0  0  0  0  0  0  # atno 10718 bound_to 10713
  154.7222  135.5090  153.8830 H   0  0  0  0  0  0  0  0  0  0  0  0  # atno 10763 bound_to 10752
  153.0873  135.6649  153.9933 H   0  0  0  0  0  0  0  0  0  0  0  0  # atno 10764 bound_to 10752
  153.9753  135.3034  155.3404 H   0  0  0  0  0  0  0  0  0  0  0  0  # atno 10765 bound_to 10752
  140.7059  134.3886  157.5204 H   0  0  0  0  0  0  0  0  0  0  0  0  # atno 11005 bound_to 11000
  145.3799  141.0356  143.3183 LP  0  0  0  0  0  0  0  0  0  0  0  0  # atno 17320 bound_to 7965
  144.8483  139.5362  143.6868 LP  0  0  0  0  0  0  0  0  0  0  0  0  # atno 17321 bound_to 7965
  139.5011  144.3880  152.0309 LP  0  0  0  0  0  0  0  0  0  0  0  0  # atno 17342 bound_to 10162
  140.2993  144.3665  150.6065 LP  0  0  0  0  0  0  0  0  0  0  0  0  # atno 17343 bound_to 10162
  157.7467  131.0413  150.4641 LP  0  0  0  0  0  0  0  0  0  0  0  0  # atno 17370 bound_to 10713
  156.4844  130.4081  149.6443 LP  0  0  0  0  0  0  0  0  0  0  0  0  # atno 17371 bound_to 10713
  139.8884  134.8857  156.2475 LP  0  0  0  0  0  0  0  0  0  0  0  0  # atno 17394 bound_to 11000
  141.0125  133.7087  156.1134 LP  0  0  0  0  0  0  0  0  0  0  0  0  # atno 17395 bound_to 11000

$$$$
