AV-unprocessed.smi:1033|AV-procd|sdf|4499|dock7
  -GOLD-   22720 2493D 1   1.00000     0.00000
 Structure written by MMmdl.
 57 59  0  0  0  0  0  0  0  0  3 V2000
  152.5535  144.1558  159.6184 C   0  0  0  0  0  0  0  0  0  0  0  0
  151.9248  143.0652  158.7679 C   0  0  0  0  0  0  0  0  0  0  0  0
  151.0395  143.4428  157.7337 C   0  0  0  0  0  0  0  0  0  0  0  0
  150.4708  142.4222  156.9815 C   0  0  0  0  0  0  0  0  0  0  0  0
  149.5671  142.4668  155.9186 N   0  3  0  0  0  0  0  0  0  0  0  0
  149.2859  141.2000  155.5069 C   0  0  0  0  0  0  0  0  0  0  0  0
  149.9902  140.3446  156.2979 N   0  0  0  0  0  0  0  0  0  0  0  0
  150.0300  138.8743  156.2735 C   0  0  0  0  0  0  0  0  0  0  0  0
  150.3034  138.2950  154.8674 C   0  0  1  0  0  0  0  0  0  0  0  0
  151.3159  139.0808  154.2763 O   0  0  0  0  0  0  0  0  0  0  0  0
  150.7784  136.8231  154.8404 C   0  0  0  0  0  0  0  0  0  0  0  0
  149.7245  135.8678  154.4178 N   0  3  0  0  0  0  0  0  0  0  0  0
  148.4758  135.9963  155.2089 C   0  0  0  0  0  0  0  0  0  0  0  0
  147.3866  135.0831  154.6138 C   0  0  0  0  0  0  0  0  0  0  0  0
  147.7725  133.6719  154.5781 N   0  0  0  0  0  0  0  0  0  0  0  0
  147.8034  133.0634  155.9175 C   0  0  0  0  0  0  0  0  0  0  0  0
  146.4426  132.6742  156.5384 C   0  0  2  0  0  0  0  0  0  0  0  0
  146.4247  132.3793  158.0442 C   0  0  0  0  0  0  0  0  0  0  0  0
  145.8931  131.5842  155.8286 O   0  0  0  0  0  0  0  0  0  0  0  0
  149.0262  133.5615  153.8219 C   0  0  0  0  0  0  0  0  0  0  0  0
  150.1645  134.4500  154.3676 C   0  0  0  0  0  0  0  0  0  0  0  0
  150.7593  141.0642  157.2220 C   0  0  0  0  0  0  0  0  0  0  0  0
  151.6398  140.6764  158.2300 C   0  0  0  0  0  0  0  0  0  0  0  0
  152.2211  141.6995  159.0124 C   0  0  0  0  0  0  0  0  0  0  0  0
  153.1699  141.3045  160.1311 C   0  0  0  0  0  0  0  0  0  0  0  0
  152.2057  145.1452  159.3200 H   0  0  0  0  0  0  0  0  0  0  0  0
  153.6392  144.1407  159.5196 H   0  0  0  0  0  0  0  0  0  0  0  0
  152.2987  144.0170  160.6694 H   0  0  0  0  0  0  0  0  0  0  0  0
  150.8109  144.4812  157.5410 H   0  0  0  0  0  0  0  0  0  0  0  0
  148.6193  140.9236  154.7021 H   0  0  0  0  0  0  0  0  0  0  0  0
  150.8318  138.5799  156.9528 H   0  0  0  0  0  0  0  0  0  0  0  0
  149.1132  138.4688  156.7000 H   0  0  0  0  0  0  0  0  0  0  0  0
  149.4205  138.4242  154.2424 H   0  0  0  0  0  0  0  0  0  0  0  0
  152.0682  139.0945  154.8484 H   0  0  0  0  0  0  0  0  0  0  0  0
  151.6364  136.7101  154.1757 H   0  0  0  0  0  0  0  0  0  0  0  0
  151.1289  136.5571  155.8389 H   0  0  0  0  0  0  0  0  0  0  0  0
  148.6668  135.7506  156.2548 H   0  0  0  0  0  0  0  0  0  0  0  0
  148.1284  137.0298  155.1837 H   0  0  0  0  0  0  0  0  0  0  0  0
  146.4568  135.2010  155.1718 H   0  0  0  0  0  0  0  0  0  0  0  0
  147.1621  135.4156  153.5996 H   0  0  0  0  0  0  0  0  0  0  0  0
  148.4668  132.1995  155.9295 H   0  0  0  0  0  0  0  0  0  0  0  0
  148.2578  133.7716  156.6124 H   0  0  0  0  0  0  0  0  0  0  0  0
  145.7697  133.5159  156.3711 H   0  0  0  0  0  0  0  0  0  0  0  0
  146.9232  133.1680  158.6079 H   0  0  0  0  0  0  0  0  0  0  0  0
  146.9033  131.4289  158.2784 H   0  0  0  0  0  0  0  0  0  0  0  0
  145.3991  132.3141  158.4089 H   0  0  0  0  0  0  0  0  0  0  0  0
  144.9970  131.7892  155.6091 H   0  0  0  0  0  0  0  0  0  0  0  0
  149.3684  132.5319  153.7763 H   0  0  0  0  0  0  0  0  0  0  0  0
  148.8340  133.8454  152.7862 H   0  0  0  0  0  0  0  0  0  0  0  0
  151.0281  134.3470  153.7122 H   0  0  0  0  0  0  0  0  0  0  0  0
  150.4850  134.1212  155.3564 H   0  0  0  0  0  0  0  0  0  0  0  0
  151.8672  139.6389  158.4246 H   0  0  0  0  0  0  0  0  0  0  0  0
  153.3148  140.2246  160.1702 H   0  0  0  0  0  0  0  0  0  0  0  0
  152.7756  141.6228  161.0965 H   0  0  0  0  0  0  0  0  0  0  0  0
  154.1473  141.7654  159.9866 H   0  0  0  0  0  0  0  0  0  0  0  0
  149.4787  136.1259  153.4730 H   0  0  0  0  0  0  0  0  0  0  0  0
  149.1734  143.2999  155.4989 H   0  0  0  0  0  0  0  0  0  0  0  0
  1  2  1  0  0  0  0
  1 26  1  0  0  0  0
  1 27  1  0  0  0  0
  1 28  1  0  0  0  0
  2 24  1  0  0  0  0
  2  3  2  0  0  0  0
  3  4  1  0  0  0  0
  3 29  1  0  0  0  0
  4 22  2  0  0  0  0
  4  5  1  0  0  0  0
  5  6  2  0  0  0  0
  5 57  1  0  0  0  0
  6  7  1  0  0  0  0
  6 30  1  0  0  0  0
  7  8  1  0  0  0  0
  7 22  1  0  0  0  0
  8  9  1  0  0  0  0
  8 31  1  0  0  0  0
  8 32  1  0  0  0  0
  9 10  1  0  0  0  0
  9 11  1  0  0  0  0
  9 33  1  0  0  0  0
 10 34  1  0  0  0  0
 11 12  1  0  0  0  0
 11 35  1  0  0  0  0
 11 36  1  0  0  0  0
 12 21  1  0  0  0  0
 12 13  1  0  0  0  0
 12 56  1  0  0  0  0
 13 14  1  0  0  0  0
 13 37  1  0  0  0  0
 13 38  1  0  0  0  0
 14 15  1  0  0  0  0
 14 39  1  0  0  0  0
 14 40  1  0  0  0  0
 15 16  1  0  0  0  0
 15 20  1  0  0  0  0
 16 17  1  0  0  0  0
 16 41  1  0  0  0  0
 16 42  1  0  0  0  0
 17 18  1  0  0  0  0
 17 19  1  0  0  0  0
 17 43  1  0  0  0  0
 18 44  1  0  0  0  0
 18 45  1  0  0  0  0
 18 46  1  0  0  0  0
 19 47  1  0  0  0  0
 20 21  1  0  0  0  0
 20 48  1  0  0  0  0
 20 49  1  0  0  0  0
 21 50  1  0  0  0  0
 21 51  1  0  0  0  0
 22 23  1  0  0  0  0
 23 24  2  0  0  0  0
 23 52  1  0  0  0  0
 24 25  1  0  0  0  0
 25 53  1  0  0  0  0
 25 54  1  0  0  0  0
 25 55  1  0  0  0  0
M  CHG  1   5   1
M  CHG  1  12   1
M  END
> <s_m_source_file>
AV-unprocessed.smi

> <i_m_source_file_index>
1033

> <i_lp_mmshare_version>
43012

> <i_f3d_flags>
0

> <s_epik_input>
W0NIM11jKFtjSF0xKWMoW0NIM10pW2NIXWMoYzEyKW4oW2NIXW4yKVtDSDJdW0NASF0oW09IXSlbQ0gyXU4zW0NIMl1bQ0gyXU4oW0NIMl1bQ0gyXTMpW0NIMl1bQ0BIXShbQ0gzXSlbT0hd

> <s_epik_cmdline>
J2VwaWtfcHl0aG9uJywgJy1waCcsICc3LjAnLCAnLXRuJywgJzgnLCAnLW1hJywgJzIwMCcsICctbWV0YWxfYmluZGluZycsICctaW1hZScsICc8aW5maWxlLm1hZT4nLCAnLW9tYWUnLCAnPG91dGZpbGUubWFlPic=

> <r_epik_Ionization_Penalty>
1.22049

> <r_epik_Ionization_Penalty_Charging>
1.17952

> <r_epik_Ionization_Penalty_Neutral>
0.0409743

> <r_epik_State_Penalty>
1.61468

> <r_epik_Charging_Adjusted_Penalty>
2.7942

> <i_epik_Tot_Q>
2

> <i_epik_Tot_abs_Q>
2

> <r_epik_Metal_State_Penalty>
5.63169

> <b_epik_Metal_Only>
0

> <s_lp_Force_Field>
OPLS_2005

> <r_lp_Energy>
50.4079

> <b_lp_Chiralities_Consistent>
1

> <s_lp_Variant>
AV-unprocessed.smi:1033-10

> <Gold.Version>
5.8.1

> <Gold.Id.Protein>
6NUR|6NUR_protein|mol2

> <Gold.PLP.Fitness>
53.1962

> <Gold.PLP.PLP>
-37.6545

> <Gold.PLP.part.hbond>
-4.0001

> <Gold.PLP.part.metal>
0.0000

> <Gold.PLP.part.buried>
-3.4176

> <Gold.PLP.part.nonpolar>
-30.5168

> <Gold.PLP.part.repulsive>
0.2328

> <Gold.PLP.ligand.clash>
0.0000

> <Gold.PLP.ligand.torsion>
1.1311

> <Gold.PLP.Chemscore.Hbond>
5.8775

> <Gold.PLP.Chemscore.CHOScore>
0.0000

> <Gold.PLP.Chemscore.Metal>
0.0000

> <Gold.Chemscore.Hbonds>
donor molecule, donor type, donor heavy atom, donor atom, acceptor molecule, acceptor atom, score
      L1  H     5    57       P1  8028  1.53
      L1  H    12    56       P1  7948  2.00
      P1  H  7989  7998       L1    10  0.80

> <Gold.PLP.Chemscore.Internal.Correction>
0.1714

> <Gold.Rescore>
     Score         DG    S(hbond)    S(metal)    S(lipo)     H(rot)  DE(clash)    DE(int)     intcor
     18.62     -19.87       3.09        0.00     103.63       3.15       0.22       1.03       ----

> <Gold.Chemscore.Fitness>
18.6221

> <Gold.Chemscore.DG>
-19.8686

> <Gold.Chemscore.ZeroCoef>
-5.4800

> <Gold.Chemscore.Hbond>
3.0908

> <Gold.Chemscore.Metal>
0.0000

> <Gold.Chemscore.Lipo>
103.6334

> <Gold.Chemscore.Internal_Hbond>
0.0000

> <Gold.Chemscore.DEClash>
0.2181

> <Gold.Chemscore.DEInternal>
1.0284

> <Gold.Chemscore.Rot>
3.1483

> <Gold.Chemscore.Internal.Correction>
   9.000000E+99

> <Gold.Chemscore.Hbonds>
donor molecule, donor type, donor heavy atom, donor atom, acceptor molecule, acceptor atom, score
      L1  H     5    57       P1  8028  0.73
      L1  H    12    56       P1  7948  0.50
      L1  H    19    47       P1 10957  0.03
      P1  H  7989  7998       L1    10  0.11

> <Gold.Chemscore.Hbond.Weighted>
-10.3232

> <Gold.Chemscore.Metal.Weighted>
-0.0000

> <Gold.Chemscore.Lipo.Weighted>
-12.1251

> <Gold.Chemscore.Internal_Hbond.Weighted>
0.0000

> <Gold.Chemscore.DEClash.Weighted>
0.2181

> <Gold.Chemscore.DEInternal.Weighted>
1.0284

> <Gold.Chemscore.Rot.Weighted>
8.0597

> <Gold.Chemscore.Internal.Correction.Weighted>
   9.000000E+99

> <Gold.Protein.RotatedTorsions>
[ 6907 6896 6895 6894 ] final    7.25 input  -60.11 | X-H torsion
[ 7974 7965 7964 7962 ] final   44.34 input  175.53 | X-H torsion
[ 8008 7997 7996 7995 ] final -174.90 input   59.86 | X-H torsion
[ 10167 10162 10161 10158 ] final -119.01 input  -65.29 | X-H torsion
[ 10718 10713 10712 10709 ] final  166.27 input   66.30 | X-H torsion
[ 10763 10752 10751 10750 ] final  -89.70 input  -60.55 | X-H torsion
[ 11005 11000 10999 10996 ] final   68.72 input  -57.11 | X-H torsion

> <Gold.Protein.ActiveResidues>
 VAL166  LYS551  ARG553  GLY616  TRP617  ASP618  TYR619  PRO620  LYS621  CYS622 
 ASP623  PHE694  ASN695  SER759  ASP760  ASP761  ALA762  ILE779  LEU786  VAL792 
 PHE793  MET794  SER795  GLU796  ALA797  LYS798  CYS799  TRP800  GLU811  SER814 

> <Gold.Protein.RotatedAtoms>
  151.6868  135.0953  160.0226 H   0  0  0  0  0  0  0  0  0  0  0  0  # atno 6907 bound_to 6896
  152.3802  133.6532  159.6164 H   0  0  0  0  0  0  0  0  0  0  0  0  # atno 6908 bound_to 6896
  150.7741  133.9043  159.3391 H   0  0  0  0  0  0  0  0  0  0  0  0  # atno 6909 bound_to 6896
  146.0577  139.5086  142.9678 H   0  0  0  0  0  0  0  0  0  0  0  0  # atno 7974 bound_to 7965
  155.9759  140.1172  157.0770 H   0  0  0  0  0  0  0  0  0  0  0  0  # atno 8008 bound_to 7997
  154.4169  140.1154  156.5437 H   0  0  0  0  0  0  0  0  0  0  0  0  # atno 8009 bound_to 7997
  155.6535  140.3473  155.4759 H   0  0  0  0  0  0  0  0  0  0  0  0  # atno 8010 bound_to 7997
  140.0513  143.5057  152.2080 H   0  0  0  0  0  0  0  0  0  0  0  0  # atno 10167 bound_to 10162
  157.0682  131.0359  151.2621 H   0  0  0  0  0  0  0  0  0  0  0  0  # atno 10718 bound_to 10713
  154.6580  135.5331  153.7983 H   0  0  0  0  0  0  0  0  0  0  0  0  # atno 10763 bound_to 10752
  153.0425  135.6499  154.0915 H   0  0  0  0  0  0  0  0  0  0  0  0  # atno 10764 bound_to 10752
  154.0827  135.2946  155.3267 H   0  0  0  0  0  0  0  0  0  0  0  0  # atno 10765 bound_to 10752
  139.9695  134.6924  156.0476 H   0  0  0  0  0  0  0  0  0  0  0  0  # atno 11005 bound_to 11000
  145.6615  141.0239  143.1706 LP  0  0  0  0  0  0  0  0  0  0  0  0  # atno 17320 bound_to 7965
  144.7157  139.8206  143.7399 LP  0  0  0  0  0  0  0  0  0  0  0  0  # atno 17321 bound_to 7965
  139.5951  144.7564  151.3305 LP  0  0  0  0  0  0  0  0  0  0  0  0  # atno 17342 bound_to 10162
  140.7215  143.7121  150.7761 LP  0  0  0  0  0  0  0  0  0  0  0  0  # atno 17343 bound_to 10162
  157.4899  130.7816  149.7498 LP  0  0  0  0  0  0  0  0  0  0  0  0  # atno 17370 bound_to 10713
  155.9958  130.3909  150.2804 LP  0  0  0  0  0  0  0  0  0  0  0  0  # atno 17371 bound_to 10713
  141.1375  133.6572  156.3634 LP  0  0  0  0  0  0  0  0  0  0  0  0  # atno 17394 bound_to 11000
  140.5324  134.6200  157.5354 LP  0  0  0  0  0  0  0  0  0  0  0  0  # atno 17395 bound_to 11000

$$$$
