AV-unprocessed.smi:424|AV-procd|sdf|2539|dock7
  -GOLD-   2262022503D 1   1.00000     0.00000
 Structure written by MMmdl.
 34 35  0  0  0  0  0  0  0  0  1 V2000
  145.8890  137.8028  152.3917 C   0  0  0  0  0  0  0  0  0  0  0  0
  146.7541  139.0543  152.1708 C   0  0  0  0  0  0  0  0  0  0  0  0
  147.3113  139.6583  153.4649 C   0  0  0  0  0  0  0  0  0  0  0  0
  146.5512  139.9925  154.3738 O   0  0  0  0  0  0  0  0  0  0  0  0
  148.6492  139.8000  153.4958 N   0  0  0  0  0  0  0  0  0  0  0  0
  149.4724  140.3064  154.5388 C   0  0  0  0  0  0  0  0  0  0  0  0
  150.7491  139.7978  154.8737 C   0  0  0  0  0  0  0  0  0  0  0  0
  151.4731  140.4046  155.9180 C   0  0  0  0  0  0  0  0  0  0  0  0
  150.9118  141.5088  156.6016 C   0  0  0  0  0  0  0  0  0  0  0  0
  151.6230  142.1329  157.6496 N   0  0  0  0  0  0  0  0  0  0  0  0
  151.7813  141.3441  158.8689 C   0  0  0  0  0  0  0  0  0  0  0  0
  152.8238  141.9930  159.7960 C   0  0  0  0  0  0  0  0  0  0  0  0
  152.4679  143.3476  160.0526 O   0  0  0  0  0  0  0  0  0  0  0  0
  152.4335  144.1205  158.8577 C   0  0  0  0  0  0  0  0  0  0  0  0
  151.3700  143.5501  157.9043 C   0  0  0  0  0  0  0  0  0  0  0  0
  149.6953  142.0038  156.2661 N   0  0  0  0  0  0  0  0  0  0  0  0
  149.0042  141.4188  155.2657 C   0  0  0  0  0  0  0  0  0  0  0  0
  145.5358  137.4067  151.4395 H   0  0  0  0  0  0  0  0  0  0  0  0
  145.0115  138.0269  152.9993 H   0  0  0  0  0  0  0  0  0  0  0  0
  146.4514  137.0112  152.8887 H   0  0  0  0  0  0  0  0  0  0  0  0
  147.5890  138.8047  151.5147 H   0  0  0  0  0  0  0  0  0  0  0  0
  146.1675  139.8157  151.6560 H   0  0  0  0  0  0  0  0  0  0  0  0
  149.1353  139.5543  152.6456 H   0  0  0  0  0  0  0  0  0  0  0  0
  151.1978  138.9718  154.3450 H   0  0  0  0  0  0  0  0  0  0  0  0
  152.4549  140.0301  156.1659 H   0  0  0  0  0  0  0  0  0  0  0  0
  150.8173  141.2850  159.3760 H   0  0  0  0  0  0  0  0  0  0  0  0
  152.0883  140.3220  158.6528 H   0  0  0  0  0  0  0  0  0  0  0  0
  152.8712  141.4537  160.7421 H   0  0  0  0  0  0  0  0  0  0  0  0
  153.8198  141.9456  159.3529 H   0  0  0  0  0  0  0  0  0  0  0  0
  152.1969  145.1544  159.1091 H   0  0  0  0  0  0  0  0  0  0  0  0
  153.4174  144.1248  158.3854 H   0  0  0  0  0  0  0  0  0  0  0  0
  151.3857  144.1117  156.9694 H   0  0  0  0  0  0  0  0  0  0  0  0
  150.3769  143.6670  158.3402 H   0  0  0  0  0  0  0  0  0  0  0  0
  148.0422  141.8559  155.0405 H   0  0  0  0  0  0  0  0  0  0  0  0
  1  2  1  0  0  0  0
  1 18  1  0  0  0  0
  1 19  1  0  0  0  0
  1 20  1  0  0  0  0
  2  3  1  0  0  0  0
  2 21  1  0  0  0  0
  2 22  1  0  0  0  0
  3  4  2  0  0  0  0
  3  5  1  0  0  0  0
  5  6  1  0  0  0  0
  5 23  1  0  0  0  0
  6 17  1  0  0  0  0
  6  7  2  0  0  0  0
  7  8  1  0  0  0  0
  7 24  1  0  0  0  0
  8  9  2  0  0  0  0
  8 25  1  0  0  0  0
  9 10  1  0  0  0  0
  9 16  1  0  0  0  0
 10 15  1  0  0  0  0
 10 11  1  0  0  0  0
 11 12  1  0  0  0  0
 11 26  1  0  0  0  0
 11 27  1  0  0  0  0
 12 13  1  0  0  0  0
 12 28  1  0  0  0  0
 12 29  1  0  0  0  0
 13 14  1  0  0  0  0
 14 15  1  0  0  0  0
 14 30  1  0  0  0  0
 14 31  1  0  0  0  0
 15 32  1  0  0  0  0
 15 33  1  0  0  0  0
 16 17  2  0  0  0  0
 17 34  1  0  0  0  0
M  END
> <s_m_source_file>
AV-unprocessed.smi

> <i_m_source_file_index>
424

> <i_lp_mmshare_version>
43012

> <i_f3d_flags>
0

> <s_epik_input>
W0NIM11bQ0gyXUMoPU8pW05IXWMxW2NIXVtjSF1jKG5bY0hdMSlOMltDSDJdW0NIMl1PW0NIMl1bQ0gyXTI=

> <s_epik_cmdline>
J2VwaWtfcHl0aG9uJywgJy1waCcsICc3LjAnLCAnLXRuJywgJzgnLCAnLW1hJywgJzIwMCcsICctbWV0YWxfYmluZGluZycsICctaW1hZScsICc8aW5maWxlLm1hZT4nLCAnLW9tYWUnLCAnPG91dGZpbGUubWFlPic=

> <r_lp_tautomer_probability>
1

> <r_epik_Ionization_Penalty>
0.000622595

> <r_epik_Ionization_Penalty_Charging>
0

> <r_epik_Ionization_Penalty_Neutral>
0.000622595

> <r_epik_State_Penalty>
0.000387388

> <r_epik_Charging_Adjusted_Penalty>
0.000387388

> <i_epik_Tot_Q>
0

> <i_epik_Tot_abs_Q>
0

> <r_epik_Metal_State_Penalty>
-0

> <b_epik_Metal_Only>
0

> <s_lp_Force_Field>
OPLS_2005

> <r_lp_Energy>
21.9993

> <b_lp_Chiralities_Consistent>
1

> <s_lp_Variant>
AV-unprocessed.smi:424-1

> <Gold.Version>
5.8.1

> <Gold.Id.Protein>
6NUR|6NUR_protein|mol2

> <Gold.PLP.Fitness>
37.2185

> <Gold.PLP.PLP>
-35.7278

> <Gold.PLP.part.hbond>
-0.9878

> <Gold.PLP.part.metal>
0.0000

> <Gold.PLP.part.buried>
-1.9043

> <Gold.PLP.part.nonpolar>
-34.0504

> <Gold.PLP.part.repulsive>
1.7351

> <Gold.PLP.ligand.clash>
0.0000

> <Gold.PLP.ligand.torsion>
0.7503

> <Gold.PLP.Chemscore.Hbond>
0.8800

> <Gold.PLP.Chemscore.CHOScore>
0.0000

> <Gold.PLP.Chemscore.Metal>
0.0000

> <Gold.Chemscore.Hbonds>
donor molecule, donor type, donor heavy atom, donor atom, acceptor molecule, acceptor atom, score
      L1  H     5    23       P1  7957  0.94

> <Gold.PLP.Chemscore.Internal.Correction>
0.3514

> <Gold.Rescore>
     Score         DG    S(hbond)    S(metal)    S(lipo)     H(rot)  DE(clash)    DE(int)     intcor
     13.52     -15.41       0.89        0.00      85.29       1.18       0.18       1.71       ----

> <Gold.Chemscore.Fitness>
13.5225

> <Gold.Chemscore.DG>
-15.4094

> <Gold.Chemscore.ZeroCoef>
-5.4800

> <Gold.Chemscore.Hbond>
0.8933

> <Gold.Chemscore.Metal>
0.0000

> <Gold.Chemscore.Lipo>
85.2900

> <Gold.Chemscore.Internal_Hbond>
0.0000

> <Gold.Chemscore.DEClash>
0.1786

> <Gold.Chemscore.DEInternal>
1.7084

> <Gold.Chemscore.Rot>
1.1848

> <Gold.Chemscore.Internal.Correction>
   9.000000E+99

> <Gold.Chemscore.Hbonds>
donor molecule, donor type, donor heavy atom, donor atom, acceptor molecule, acceptor atom, score
      L1  H     5    23       P1  7957  0.90

> <Gold.Chemscore.Hbond.Weighted>
-2.9835

> <Gold.Chemscore.Metal.Weighted>
-0.0000

> <Gold.Chemscore.Lipo.Weighted>
-9.9789

> <Gold.Chemscore.Internal_Hbond.Weighted>
0.0000

> <Gold.Chemscore.DEClash.Weighted>
0.1786

> <Gold.Chemscore.DEInternal.Weighted>
1.7084

> <Gold.Chemscore.Rot.Weighted>
3.0331

> <Gold.Chemscore.Internal.Correction.Weighted>
   9.000000E+99

> <Gold.Protein.RotatedTorsions>
[ 6907 6896 6895 6894 ] final  133.49 input  -60.11 | X-H torsion
[ 7974 7965 7964 7962 ] final  -29.79 input  175.53 | X-H torsion
[ 8008 7997 7996 7995 ] final   12.84 input   59.86 | X-H torsion
[ 10167 10162 10161 10158 ] final   82.27 input  -65.29 | X-H torsion
[ 10718 10713 10712 10709 ] final -172.43 input   66.30 | X-H torsion
[ 10763 10752 10751 10750 ] final   58.16 input  -60.55 | X-H torsion
[ 11005 11000 10999 10996 ] final   30.45 input  -57.11 | X-H torsion

> <Gold.Protein.ActiveResidues>
 VAL166  LYS551  ARG553  GLY616  TRP617  ASP618  TYR619  PRO620  LYS621  CYS622 
 ASP623  PHE694  ASN695  SER759  ASP760  ASP761  ALA762  ILE779  LEU786  VAL792 
 PHE793  MET794  SER795  GLU796  ALA797  LYS798  CYS799  TRP800  GLU811  SER814 

> <Gold.Protein.RotatedAtoms>
  152.3213  133.5857  159.5746 H   0  0  0  0  0  0  0  0  0  0  0  0  # atno 6907 bound_to 6896
  150.7373  134.0006  159.3646 H   0  0  0  0  0  0  0  0  0  0  0  0  # atno 6908 bound_to 6896
  151.7890  135.0741  160.0435 H   0  0  0  0  0  0  0  0  0  0  0  0  # atno 6909 bound_to 6896
  146.1190  140.5458  142.8744 H   0  0  0  0  0  0  0  0  0  0  0  0  # atno 7974 bound_to 7965
  154.8262  140.2892  155.5753 H   0  0  0  0  0  0  0  0  0  0  0  0  # atno 8008 bound_to 7997
  156.3002  140.2540  156.3109 H   0  0  0  0  0  0  0  0  0  0  0  0  # atno 8009 bound_to 7997
  154.9282  140.0384  157.2023 H   0  0  0  0  0  0  0  0  0  0  0  0  # atno 8010 bound_to 7997
  139.9305  144.6155  150.8349 H   0  0  0  0  0  0  0  0  0  0  0  0  # atno 10167 bound_to 10162
  156.7555  130.9394  151.3116 H   0  0  0  0  0  0  0  0  0  0  0  0  # atno 10718 bound_to 10713
  152.9865  135.5616  154.5507 H   0  0  0  0  0  0  0  0  0  0  0  0  # atno 10763 bound_to 10752
  154.4945  135.2794  155.1472 H   0  0  0  0  0  0  0  0  0  0  0  0  # atno 10764 bound_to 10752
  154.2928  135.6323  153.5445 H   0  0  0  0  0  0  0  0  0  0  0  0  # atno 10765 bound_to 10752
  140.2943  134.2829  155.7768 H   0  0  0  0  0  0  0  0  0  0  0  0  # atno 11005 bound_to 11000
  144.7580  140.5353  143.6755 LP  0  0  0  0  0  0  0  0  0  0  0  0  # atno 17320 bound_to 7965
  145.5505  139.1476  143.3397 LP  0  0  0  0  0  0  0  0  0  0  0  0  # atno 17321 bound_to 7965
  140.7638  143.3234  151.2571 LP  0  0  0  0  0  0  0  0  0  0  0  0  # atno 17342 bound_to 10162
  139.6786  143.9894  152.2795 LP  0  0  0  0  0  0  0  0  0  0  0  0  # atno 17343 bound_to 10162
  157.6758  130.9093  150.0147 LP  0  0  0  0  0  0  0  0  0  0  0  0  # atno 17370 bound_to 10713
  156.1373  130.3642  149.9636 LP  0  0  0  0  0  0  0  0  0  0  0  0  # atno 17371 bound_to 10713
  141.2140  133.7605  156.9671 LP  0  0  0  0  0  0  0  0  0  0  0  0  # atno 17394 bound_to 11000
  140.1167  134.9443  157.2144 LP  0  0  0  0  0  0  0  0  0  0  0  0  # atno 17395 bound_to 11000

$$$$
