AV-unprocessed.smi:2751|AV-procd|sdf|10595|dock6
  -GOLD-   2272015 43D 1   1.00000     0.00000
 Structure written by MMmdl.
 34 35  0  0  0  0  0  0  0  0  1 V2000
  146.7145  138.7841  154.1656 O   0  0  0  0  0  0  0  0  0  0  0  0
  147.6108  138.8536  153.3240 C   0  0  0  0  0  0  0  0  0  0  0  0
  147.4857  138.3955  152.0699 N   0  0  0  0  0  0  0  0  0  0  0  0
  146.2863  137.7718  151.5229 C   0  0  0  0  0  0  0  0  0  0  0  0
  145.9188  136.4848  152.2812 C   0  0  0  0  0  0  0  0  0  0  0  0
  145.8125  135.2607  151.3582 C   0  0  2  0  0  0  0  0  0  0  0  0
  144.4136  135.1355  150.7239 C   0  0  0  0  0  0  0  0  0  0  0  0
  144.3226  133.8677  149.8672 C   0  0  0  0  0  0  0  0  0  0  0  0
  144.7459  132.6514  150.6974 C   0  0  0  0  0  0  0  0  0  0  0  0
  146.1191  132.8975  151.3424 C   0  0  0  0  0  0  0  0  0  0  0  0
  146.0816  134.0877  152.1243 O   0  0  0  0  0  0  0  0  0  0  0  0
  148.8258  139.3890  153.5296 N   0  0  0  0  0  0  0  0  0  0  0  0
  149.3175  139.9817  154.7199 C   0  0  0  0  0  0  0  0  0  0  0  0
  148.5887  140.4778  155.7210 N   0  0  0  0  0  0  0  0  0  0  0  0
  149.5222  140.9393  156.6377 C   0  0  0  0  0  0  0  0  0  0  0  0
  150.7739  140.6937  156.1344 C   0  0  0  0  0  0  0  0  0  0  0  0
  150.6592  140.0830  154.9143 O   0  0  0  0  0  0  0  0  0  0  0  0
  148.2733  138.4909  151.4453 H   0  0  0  0  0  0  0  0  0  0  0  0
  145.4548  138.4783  151.5413 H   0  0  0  0  0  0  0  0  0  0  0  0
  146.4757  137.5458  150.4733 H   0  0  0  0  0  0  0  0  0  0  0  0
  146.6550  136.2925  153.0630 H   0  0  0  0  0  0  0  0  0  0  0  0
  144.9638  136.6288  152.7884 H   0  0  0  0  0  0  0  0  0  0  0  0
  146.5599  135.3527  150.5678 H   0  0  0  0  0  0  0  0  0  0  0  0
  143.6553  135.1014  151.5073 H   0  0  0  0  0  0  0  0  0  0  0  0
  144.1943  136.0125  150.1139 H   0  0  0  0  0  0  0  0  0  0  0  0
  143.3095  133.7362  149.4865 H   0  0  0  0  0  0  0  0  0  0  0  0
  144.9753  133.9646  148.9986 H   0  0  0  0  0  0  0  0  0  0  0  0
  144.0062  132.4641  151.4768 H   0  0  0  0  0  0  0  0  0  0  0  0
  144.7758  131.7587  150.0723 H   0  0  0  0  0  0  0  0  0  0  0  0
  146.3857  132.0604  151.9876 H   0  0  0  0  0  0  0  0  0  0  0  0
  146.8984  132.9739  150.5827 H   0  0  0  0  0  0  0  0  0  0  0  0
  149.4652  139.3808  152.7488 H   0  0  0  0  0  0  0  0  0  0  0  0
  149.2255  141.4029  157.5669 H   0  0  0  0  0  0  0  0  0  0  0  0
  151.7757  140.8779  156.4929 H   0  0  0  0  0  0  0  0  0  0  0  0
  1  2  2  0  0  0  0
  2  3  1  0  0  0  0
  2 12  1  0  0  0  0
  3  4  1  0  0  0  0
  3 18  1  0  0  0  0
  4  5  1  0  0  0  0
  4 19  1  0  0  0  0
  4 20  1  0  0  0  0
  5  6  1  0  0  0  0
  5 21  1  0  0  0  0
  5 22  1  0  0  0  0
  6 11  1  0  0  0  0
  6  7  1  0  0  0  0
  6 23  1  0  0  0  0
  7  8  1  0  0  0  0
  7 24  1  0  0  0  0
  7 25  1  0  0  0  0
  8  9  1  0  0  0  0
  8 26  1  0  0  0  0
  8 27  1  0  0  0  0
  9 10  1  0  0  0  0
  9 28  1  0  0  0  0
  9 29  1  0  0  0  0
 10 11  1  0  0  0  0
 10 30  1  0  0  0  0
 10 31  1  0  0  0  0
 12 13  1  0  0  0  0
 12 32  1  0  0  0  0
 13 17  1  0  0  0  0
 13 14  2  0  0  0  0
 14 15  1  0  0  0  0
 15 16  2  0  0  0  0
 15 33  1  0  0  0  0
 16 17  1  0  0  0  0
 16 34  1  0  0  0  0
M  END
> <s_m_source_file>
AV-unprocessed.smi

> <i_m_source_file_index>
2751

> <i_lp_mmshare_version>
43012

> <i_f3d_flags>
0

> <s_epik_input>
bzFbY0hdW2NIXW5jMVtOSF1DKD1PKVtOSF1bQ0gyXVtDSDJdW0NAQEhdMltDSDJdW0NIMl1bQ0gyXVtDSDJdTzI=

> <s_epik_cmdline>
J2VwaWtfcHl0aG9uJywgJy1waCcsICc3LjAnLCAnLXRuJywgJzgnLCAnLW1hJywgJzIwMCcsICctbWV0YWxfYmluZGluZycsICctaW1hZScsICc8aW5maWxlLm1hZT4nLCAnLW9tYWUnLCAnPG91dGZpbGUubWFlPic=

> <r_lp_tautomer_probability>
0.785861

> <r_epik_Ionization_Penalty>
4.88827e-05

> <r_epik_Ionization_Penalty_Charging>
0

> <r_epik_Ionization_Penalty_Neutral>
4.88827e-05

> <r_epik_State_Penalty>
0.0434822

> <r_epik_Charging_Adjusted_Penalty>
0.0434822

> <i_epik_Tot_Q>
0

> <i_epik_Tot_abs_Q>
0

> <r_epik_Metal_State_Penalty>
0.0598982

> <b_epik_Metal_Only>
0

> <s_lp_Force_Field>
OPLS_2005

> <r_lp_Energy>
7.87484

> <b_lp_Chiralities_Consistent>
1

> <s_lp_Variant>
AV-unprocessed.smi:2751-1

> <Gold.Version>
5.8.1

> <Gold.Id.Protein>
6NUR|6NUR_protein|mol2

> <Gold.PLP.Fitness>
35.8726

> <Gold.PLP.PLP>
-29.2222

> <Gold.PLP.part.hbond>
-3.7885

> <Gold.PLP.part.metal>
0.0000

> <Gold.PLP.part.buried>
-0.3821

> <Gold.PLP.part.nonpolar>
-25.2834

> <Gold.PLP.part.repulsive>
0.6311

> <Gold.PLP.ligand.clash>
0.0000

> <Gold.PLP.ligand.torsion>
0.7686

> <Gold.PLP.Chemscore.Hbond>
2.7280

> <Gold.PLP.Chemscore.CHOScore>
0.0000

> <Gold.PLP.Chemscore.Metal>
0.0000

> <Gold.Chemscore.Hbonds>
donor molecule, donor type, donor heavy atom, donor atom, acceptor molecule, acceptor atom, score
      L1  H     3    18       P1  7957  0.62
      L1  H    12    32       P1  7957  0.80
      P1  H  7989  7998       L1    17  1.00

> <Gold.PLP.Chemscore.Internal.Correction>
0.0036

> <Gold.Rescore>
     Score         DG    S(hbond)    S(metal)    S(lipo)     H(rot)  DE(clash)    DE(int)     intcor
     13.79     -17.17       2.82        0.00      55.11       1.63       0.26       3.12       ----

> <Gold.Chemscore.Fitness>
13.7905

> <Gold.Chemscore.DG>
-17.1686

> <Gold.Chemscore.ZeroCoef>
-5.4800

> <Gold.Chemscore.Hbond>
2.8206

> <Gold.Chemscore.Metal>
0.0000

> <Gold.Chemscore.Lipo>
55.1094

> <Gold.Chemscore.Internal_Hbond>
0.0000

> <Gold.Chemscore.DEClash>
0.2584

> <Gold.Chemscore.DEInternal>
3.1198

> <Gold.Chemscore.Rot>
1.6328

> <Gold.Chemscore.Internal.Correction>
   9.000000E+99

> <Gold.Chemscore.Hbonds>
donor molecule, donor type, donor heavy atom, donor atom, acceptor molecule, acceptor atom, score
      L1  H     3    18       P1  7957  0.13
      L1  H    12    32       P1  7957  0.80
      P1  H  7989  7998       L1    17  0.84

> <Gold.Chemscore.Hbond.Weighted>
-9.4207

> <Gold.Chemscore.Metal.Weighted>
-0.0000

> <Gold.Chemscore.Lipo.Weighted>
-6.4478

> <Gold.Chemscore.Internal_Hbond.Weighted>
0.0000

> <Gold.Chemscore.DEClash.Weighted>
0.2584

> <Gold.Chemscore.DEInternal.Weighted>
3.1198

> <Gold.Chemscore.Rot.Weighted>
4.1799

> <Gold.Chemscore.Internal.Correction.Weighted>
   9.000000E+99

> <Gold.Protein.RotatedTorsions>
[ 6907 6896 6895 6894 ] final    6.80 input  -60.11 | X-H torsion
[ 7974 7965 7964 7962 ] final  -84.77 input  175.53 | X-H torsion
[ 8008 7997 7996 7995 ] final   95.26 input   59.86 | X-H torsion
[ 10167 10162 10161 10158 ] final  123.39 input  -65.29 | X-H torsion
[ 10718 10713 10712 10709 ] final  -14.10 input   66.30 | X-H torsion
[ 10763 10752 10751 10750 ] final    0.37 input  -60.55 | X-H torsion
[ 11005 11000 10999 10996 ] final  -71.42 input  -57.11 | X-H torsion

> <Gold.Protein.ActiveResidues>
 VAL166  LYS551  ARG553  GLY616  TRP617  ASP618  TYR619  PRO620  LYS621  CYS622 
 ASP623  PHE694  ASN695  SER759  ASP760  ASP761  ALA762  ILE779  LEU786  VAL792 
 PHE793  MET794  SER795  GLU796  ALA797  LYS798  CYS799  TRP800  GLU811  SER814 

> <Gold.Protein.RotatedAtoms>
  151.6796  135.0964  160.0213 H   0  0  0  0  0  0  0  0  0  0  0  0  # atno 6907 bound_to 6896
  152.3843  133.6585  159.6195 H   0  0  0  0  0  0  0  0  0  0  0  0  # atno 6908 bound_to 6896
  150.7772  133.8978  159.3373 H   0  0  0  0  0  0  0  0  0  0  0  0  # atno 6909 bound_to 6896
  145.5022  140.9546  143.1753 H   0  0  0  0  0  0  0  0  0  0  0  0  # atno 7974 bound_to 7965
  156.0670  140.3289  155.7529 H   0  0  0  0  0  0  0  0  0  0  0  0  # atno 8008 bound_to 7997
  155.5366  140.0598  157.2896 H   0  0  0  0  0  0  0  0  0  0  0  0  # atno 8009 bound_to 7997
  154.4510  140.1918  156.0537 H   0  0  0  0  0  0  0  0  0  0  0  0  # atno 8010 bound_to 7997
  139.5802  144.6982  151.3548 H   0  0  0  0  0  0  0  0  0  0  0  0  # atno 10167 bound_to 10162
  156.6208  130.4875  149.6165 H   0  0  0  0  0  0  0  0  0  0  0  0  # atno 10718 bound_to 10713
  153.3216  135.6969  153.7026 H   0  0  0  0  0  0  0  0  0  0  0  0  # atno 10763 bound_to 10752
  153.5863  135.3488  155.2895 H   0  0  0  0  0  0  0  0  0  0  0  0  # atno 10764 bound_to 10752
  154.8599  135.4307  154.2381 H   0  0  0  0  0  0  0  0  0  0  0  0  # atno 10765 bound_to 10752
  141.1592  133.6817  156.6904 H   0  0  0  0  0  0  0  0  0  0  0  0  # atno 11005 bound_to 11000
  144.7773  139.6601  143.7169 LP  0  0  0  0  0  0  0  0  0  0  0  0  # atno 17320 bound_to 7965
  146.2219  139.5651  142.9613 LP  0  0  0  0  0  0  0  0  0  0  0  0  # atno 17321 bound_to 7965
  140.7081  143.7461  150.7518 LP  0  0  0  0  0  0  0  0  0  0  0  0  # atno 17342 bound_to 10162
  140.0992  143.4804  152.2435 LP  0  0  0  0  0  0  0  0  0  0  0  0  # atno 17343 bound_to 10162
  156.2313  130.6796  151.1466 LP  0  0  0  0  0  0  0  0  0  0  0  0  # atno 17370 bound_to 10713
  157.7228  131.0670  150.6062 LP  0  0  0  0  0  0  0  0  0  0  0  0  # atno 17371 bound_to 10713
  140.3035  134.8144  157.4117 LP  0  0  0  0  0  0  0  0  0  0  0  0  # atno 17394 bound_to 11000
  140.1241  134.5181  155.8159 LP  0  0  0  0  0  0  0  0  0  0  0  0  # atno 17395 bound_to 11000

$$$$
