AV-unprocessed.smi:2524|AV-procd|sdf|9925|dock1
  -GOLD-   2272013563D 1   1.00000     0.00000
 Structure written by MMmdl.
 36 37  0  0  0  0  0  0  0  0  3 V2000
  152.1314  143.5668  161.4190 C   0  0  0  0  0  0  0  0  0  0  0  0
  153.0269  142.6567  161.0076 C   0  0  0  0  0  0  0  0  0  0  0  0
  152.9290  141.8838  159.7091 C   0  0  0  0  0  0  0  0  0  0  0  0
  151.5069  141.3685  159.4569 C   0  0  0  0  0  0  0  0  0  0  0  0
  151.5183  139.9317  158.2931 S   0  0  0  0  0  0  0  0  0  0  0  0
  152.8935  139.8299  157.7757 O   0  0  0  0  0  0  0  0  0  0  0  0
  151.0293  138.7925  159.0844 O   0  0  0  0  0  0  0  0  0  0  0  0
  150.4252  140.3838  157.1778 N   0  5  0  0  0  0  0  0  0  0  0  0
  150.7801  140.4779  155.7668 C   0  0  0  0  0  0  0  0  0  0  0  0
  150.2045  139.3173  154.9286 C   0  0  0  0  0  0  0  0  0  0  0  0
  148.8699  139.7034  154.3329 C   0  0  0  0  0  0  0  0  0  0  0  0
  148.5344  141.0622  154.1128 C   0  0  0  0  0  0  0  0  0  0  0  0
  147.2778  141.3943  153.5676 C   0  0  0  0  0  0  0  0  0  0  0  0
  146.3973  140.4168  153.2644 N   0  3  0  0  0  0  0  0  0  0  0  0
  146.6640  139.1083  153.4621 C   0  0  0  0  0  0  0  0  0  0  0  0
  147.9056  138.7192  154.0039 C   0  0  0  0  0  0  0  0  0  0  0  0
  151.0993  138.3912  154.1171 C   0  0  0  0  0  0  0  0  0  0  0  0
  150.3916  137.8651  155.3429 C   0  0  0  0  0  0  0  0  0  0  0  0
  151.2609  143.8053  160.8256 H   0  0  0  0  0  0  0  0  0  0  0  0
  152.2585  144.0856  162.3576 H   0  0  0  0  0  0  0  0  0  0  0  0
  153.8858  142.4438  161.6270 H   0  0  0  0  0  0  0  0  0  0  0  0
  153.2472  142.5167  158.8797 H   0  0  0  0  0  0  0  0  0  0  0  0
  153.6281  141.0484  159.7539 H   0  0  0  0  0  0  0  0  0  0  0  0
  151.0430  141.0445  160.3887 H   0  0  0  0  0  0  0  0  0  0  0  0
  150.8884  142.1580  159.0309 H   0  0  0  0  0  0  0  0  0  0  0  0
  150.4202  141.4085  155.3260 H   0  0  0  0  0  0  0  0  0  0  0  0
  151.8625  140.4865  155.6345 H   0  0  0  0  0  0  0  0  0  0  0  0
  149.2402  141.8432  154.3566 H   0  0  0  0  0  0  0  0  0  0  0  0
  146.9534  142.4049  153.3670 H   0  0  0  0  0  0  0  0  0  0  0  0
  145.8823  138.4167  153.1839 H   0  0  0  0  0  0  0  0  0  0  0  0
  148.1207  137.6724  154.1633 H   0  0  0  0  0  0  0  0  0  0  0  0
  150.7340  138.0477  153.1514 H   0  0  0  0  0  0  0  0  0  0  0  0
  152.1829  138.4759  154.1879 H   0  0  0  0  0  0  0  0  0  0  0  0
  151.0229  137.6183  156.1955 H   0  0  0  0  0  0  0  0  0  0  0  0
  149.5647  137.1774  155.1764 H   0  0  0  0  0  0  0  0  0  0  0  0
  145.4928  140.6778  152.8708 H   0  0  0  0  0  0  0  0  0  0  0  0
  1  2  2  0  0  0  0
  1 19  1  0  0  0  0
  1 20  1  0  0  0  0
  2  3  1  0  0  0  0
  2 21  1  0  0  0  0
  3  4  1  0  0  0  0
  3 22  1  0  0  0  0
  3 23  1  0  0  0  0
  4  5  1  0  0  0  0
  4 24  1  0  0  0  0
  4 25  1  0  0  0  0
  5  6  2  0  0  0  0
  5  7  2  0  0  0  0
  5  8  1  0  0  0  0
  8  9  1  0  0  0  0
  9 10  1  0  0  0  0
  9 26  1  0  0  0  0
  9 27  1  0  0  0  0
 10 18  1  0  0  0  0
 10 11  1  0  0  0  0
 10 17  1  0  0  0  0
 11 16  1  0  0  0  0
 11 12  2  0  0  0  0
 12 13  1  0  0  0  0
 12 28  1  0  0  0  0
 13 14  2  0  0  0  0
 13 29  1  0  0  0  0
 14 15  1  0  0  0  0
 14 36  1  0  0  0  0
 15 16  2  0  0  0  0
 15 30  1  0  0  0  0
 16 31  1  0  0  0  0
 17 18  1  0  0  0  0
 17 32  1  0  0  0  0
 17 33  1  0  0  0  0
 18 34  1  0  0  0  0
 18 35  1  0  0  0  0
M  CHG  1   8  -1
M  CHG  1  14   1
M  END
> <s_m_source_file>
AV-unprocessed.smi

> <i_m_source_file_index>
2524

> <i_lp_mmshare_version>
43012

> <i_f3d_flags>
0

> <s_epik_input>
W0NIMl09W0NIXVtDSDJdW0NIMl1TKD1PKSg9TylbTkhdW0NIMl1DMShbQ0gyXVtDSDJdMSljMltjSF1bY0hdbltjSF1bY0hdMg==

> <s_epik_cmdline>
J2VwaWtfcHl0aG9uJywgJy1waCcsICc3LjAnLCAnLXRuJywgJzgnLCAnLW1hJywgJzIwMCcsICctbWV0YWxfYmluZGluZycsICctaW1hZScsICc8aW5maWxlLm1hZT4nLCAnLW9tYWUnLCAnPG91dGZpbGUubWFlPic=

> <r_epik_Ionization_Penalty>
7.77019

> <r_epik_Ionization_Penalty_Charging>
7.77019

> <r_epik_Ionization_Penalty_Neutral>
0

> <r_epik_State_Penalty>
8.15763

> <r_epik_Charging_Adjusted_Penalty>
15.9278

> <i_epik_Tot_Q>
0

> <i_epik_Tot_abs_Q>
2

> <r_epik_Metal_State_Penalty>
4.11642

> <b_epik_Metal_Only>
1

> <s_lp_Force_Field>
OPLS_2005

> <r_lp_Energy>
17.0566

> <b_lp_Chiralities_Consistent>
1

> <s_lp_Variant>
AV-unprocessed.smi:2524-4

> <Gold.Version>
5.8.1

> <Gold.Id.Protein>
6NUR|6NUR_protein|mol2

> <Gold.PLP.Fitness>
45.5562

> <Gold.PLP.PLP>
-37.9900

> <Gold.PLP.part.hbond>
-2.0000

> <Gold.PLP.part.metal>
0.0000

> <Gold.PLP.part.buried>
-6.0606

> <Gold.PLP.part.nonpolar>
-30.6643

> <Gold.PLP.part.repulsive>
0.0129

> <Gold.PLP.ligand.clash>
0.0000

> <Gold.PLP.ligand.torsion>
1.9549

> <Gold.PLP.Chemscore.Hbond>
3.0000

> <Gold.PLP.Chemscore.CHOScore>
0.0000

> <Gold.PLP.Chemscore.Metal>
0.0000

> <Gold.Chemscore.Hbonds>
donor molecule, donor type, donor heavy atom, donor atom, acceptor molecule, acceptor atom, score
      L1  H    14    36       P1 10175  2.00
      P1  H  7997  8010       L1     6  1.00

> <Gold.PLP.Chemscore.Internal.Correction>
2.4761

> <Gold.Rescore>
     Score         DG    S(hbond)    S(metal)    S(lipo)     H(rot)  DE(clash)    DE(int)     intcor
     17.44     -19.08       1.98        0.00      97.00       1.70       0.01       1.63       ----

> <Gold.Chemscore.Fitness>
17.4412

> <Gold.Chemscore.DG>
-19.0789

> <Gold.Chemscore.ZeroCoef>
-5.4800

> <Gold.Chemscore.Hbond>
1.9782

> <Gold.Chemscore.Metal>
0.0000

> <Gold.Chemscore.Lipo>
96.9976

> <Gold.Chemscore.Internal_Hbond>
0.0000

> <Gold.Chemscore.DEClash>
0.0124

> <Gold.Chemscore.DEInternal>
1.6253

> <Gold.Chemscore.Rot>
1.7020

> <Gold.Chemscore.Internal.Correction>
   9.000000E+99

> <Gold.Chemscore.Hbonds>
donor molecule, donor type, donor heavy atom, donor atom, acceptor molecule, acceptor atom, score
      L1  H    14    36       P1 10175  0.60
      P1  H  7997  8010       L1     6  0.99

> <Gold.Chemscore.Hbond.Weighted>
-6.6073

> <Gold.Chemscore.Metal.Weighted>
-0.0000

> <Gold.Chemscore.Lipo.Weighted>
-11.3487

> <Gold.Chemscore.Internal_Hbond.Weighted>
0.0000

> <Gold.Chemscore.DEClash.Weighted>
0.0124

> <Gold.Chemscore.DEInternal.Weighted>
1.6253

> <Gold.Chemscore.Rot.Weighted>
4.3572

> <Gold.Chemscore.Internal.Correction.Weighted>
   9.000000E+99

> <Gold.Protein.RotatedTorsions>
[ 6907 6896 6895 6894 ] final -145.25 input  -60.11 | X-H torsion
[ 7974 7965 7964 7962 ] final  -40.30 input  175.53 | X-H torsion
[ 8008 7997 7996 7995 ] final   41.19 input   59.86 | X-H torsion
[ 10167 10162 10161 10158 ] final    4.29 input  -65.29 | X-H torsion
[ 10718 10713 10712 10709 ] final  132.07 input   66.30 | X-H torsion
[ 10763 10752 10751 10750 ] final -130.59 input  -60.55 | X-H torsion
[ 11005 11000 10999 10996 ] final  156.71 input  -57.11 | X-H torsion

> <Gold.Protein.ActiveResidues>
 VAL166  LYS551  ARG553  GLY616  TRP617  ASP618  TYR619  PRO620  LYS621  CYS622 
 ASP623  PHE694  ASN695  SER759  ASP760  ASP761  ALA762  ILE779  LEU786  VAL792 
 PHE793  MET794  SER795  GLU796  ALA797  LYS798  CYS799  TRP800  GLU811  SER814 

> <Gold.Protein.RotatedAtoms>
  151.1252  133.5075  159.2600 H   0  0  0  0  0  0  0  0  0  0  0  0  # atno 6907 bound_to 6896
  151.1817  135.0363  159.8805 H   0  0  0  0  0  0  0  0  0  0  0  0  # atno 6908 bound_to 6896
  152.5457  134.1103  159.8409 H   0  0  0  0  0  0  0  0  0  0  0  0  # atno 6909 bound_to 6896
  146.0317  140.6723  142.9129 H   0  0  0  0  0  0  0  0  0  0  0  0  # atno 7974 bound_to 7965
  155.2656  140.3362  155.4269 H   0  0  0  0  0  0  0  0  0  0  0  0  # atno 8008 bound_to 7997
  156.2155  140.1787  156.7640 H   0  0  0  0  0  0  0  0  0  0  0  0  # atno 8009 bound_to 7997
  154.5748  140.0664  156.9002 H   0  0  0  0  0  0  0  0  0  0  0  0  # atno 8010 bound_to 7997
  140.6542  143.7468  150.7626 H   0  0  0  0  0  0  0  0  0  0  0  0  # atno 10167 bound_to 10162
  157.4907  131.1090  150.9561 H   0  0  0  0  0  0  0  0  0  0  0  0  # atno 10718 bound_to 10713
  154.8755  135.3857  154.4108 H   0  0  0  0  0  0  0  0  0  0  0  0  # atno 10763 bound_to 10752
  153.4822  135.7030  153.5936 H   0  0  0  0  0  0  0  0  0  0  0  0  # atno 10764 bound_to 10752
  153.4347  135.3870  155.2159 H   0  0  0  0  0  0  0  0  0  0  0  0  # atno 10765 bound_to 10752
  140.1701  134.8549  157.2680 H   0  0  0  0  0  0  0  0  0  0  0  0  # atno 11005 bound_to 11000
  144.7033  140.3748  143.7138 LP  0  0  0  0  0  0  0  0  0  0  0  0  # atno 17320 bound_to 7965
  145.7030  139.1666  143.2582 LP  0  0  0  0  0  0  0  0  0  0  0  0  # atno 17321 bound_to 7965
  140.1125  143.4686  152.2362 LP  0  0  0  0  0  0  0  0  0  0  0  0  # atno 17342 bound_to 10162
  139.5762  144.7488  151.3759 LP  0  0  0  0  0  0  0  0  0  0  0  0  # atno 17343 bound_to 10162
  157.0263  130.5694  149.5337 LP  0  0  0  0  0  0  0  0  0  0  0  0  # atno 17370 bound_to 10713
  156.0172  130.5266  150.8168 LP  0  0  0  0  0  0  0  0  0  0  0  0  # atno 17371 bound_to 10713
  140.2387  134.3821  155.7490 LP  0  0  0  0  0  0  0  0  0  0  0  0  # atno 17394 bound_to 11000
  141.2217  133.7254  156.8755 LP  0  0  0  0  0  0  0  0  0  0  0  0  # atno 17395 bound_to 11000

$$$$
