AV-unprocessed.smi:1734|AV-procd|sdf|6987|dock4
  -GOLD-   22720 8203D 1   1.00000     0.00000
 Structure written by MMmdl.
 51 53  0  0  0  0  0  0  0  0  2 V2000
  147.0176  132.7872  152.2457 C   0  0  0  0  0  0  0  0  0  0  0  0
  145.8311  132.9806  151.3152 C   0  0  0  0  0  0  0  0  0  0  0  0
  145.1353  131.8489  150.8396 C   0  0  0  0  0  0  0  0  0  0  0  0
  144.0396  132.0296  149.9785 C   0  0  0  0  0  0  0  0  0  0  0  0
  143.6829  133.3430  149.6282 C   0  0  0  0  0  0  0  0  0  0  0  0
  144.3418  134.4303  150.0786 N   0  0  0  0  0  0  0  0  0  0  0  0
  145.4030  134.2731  150.9094 C   0  0  0  0  0  0  0  0  0  0  0  0
  146.1470  135.3735  151.4207 N   0  0  0  0  0  0  0  0  0  0  0  0
  145.6871  136.5000  151.9926 C   0  0  0  0  0  0  0  0  0  0  0  0
  144.5014  136.7797  152.1728 O   0  0  0  0  0  0  0  0  0  0  0  0
  146.6951  137.2998  152.3691 N   0  0  0  0  0  0  0  0  0  0  0  0
  146.5285  138.5783  153.0508 C   0  0  0  0  0  0  0  0  0  0  0  0
  147.8739  139.2741  153.4071 C   0  0  1  0  0  0  0  0  0  0  0  0
  147.7036  140.5843  154.2278 C   0  0  1  0  0  0  0  0  0  0  0  0
  146.8954  141.6613  153.5214 C   0  0  0  0  0  0  0  0  0  0  0  0
  146.5248  142.5929  154.6685 C   0  0  0  0  0  0  0  0  0  0  0  0
  146.3536  141.7471  155.7982 O   0  0  0  0  0  0  0  0  0  0  0  0
  146.9006  140.4600  155.5300 C   0  0  0  0  0  0  0  0  0  0  0  0
  148.8075  138.3461  154.1136 N   0  3  0  0  0  0  0  0  0  0  0  0
  150.1450  138.8959  154.4516 C   0  0  0  0  0  0  0  0  0  0  0  0
  151.0447  137.7771  155.0020 C   0  0  0  0  0  0  0  0  0  0  0  0
  150.4271  137.1862  156.1395 O   0  0  0  0  0  0  0  0  0  0  0  0
  149.1741  136.5908  155.8219 C   0  0  0  0  0  0  0  0  0  0  0  0
  148.2099  137.6634  155.2875 C   0  0  0  0  0  0  0  0  0  0  0  0
  147.1860  131.7314  152.4599 H   0  0  0  0  0  0  0  0  0  0  0  0
  146.8478  133.2982  153.1940 H   0  0  0  0  0  0  0  0  0  0  0  0
  147.9256  133.1868  151.7929 H   0  0  0  0  0  0  0  0  0  0  0  0
  145.4351  130.8523  151.1288 H   0  0  0  0  0  0  0  0  0  0  0  0
  143.4872  131.1837  149.5967 H   0  0  0  0  0  0  0  0  0  0  0  0
  142.8471  133.5262  148.9691 H   0  0  0  0  0  0  0  0  0  0  0  0
  147.1497  135.2848  151.3490 H   0  0  0  0  0  0  0  0  0  0  0  0
  147.6407  136.9995  152.1814 H   0  0  0  0  0  0  0  0  0  0  0  0
  145.9360  139.2155  152.3943 H   0  0  0  0  0  0  0  0  0  0  0  0
  145.9224  138.4135  153.9421 H   0  0  0  0  0  0  0  0  0  0  0  0
  148.3714  139.5535  152.4772 H   0  0  0  0  0  0  0  0  0  0  0  0
  148.6830  140.9969  154.4738 H   0  0  0  0  0  0  0  0  0  0  0  0
  147.4511  142.1730  152.7350 H   0  0  0  0  0  0  0  0  0  0  0  0
  145.9930  141.2352  153.0801 H   0  0  0  0  0  0  0  0  0  0  0  0
  147.3405  143.2872  154.8737 H   0  0  0  0  0  0  0  0  0  0  0  0
  145.6259  143.1748  154.4631 H   0  0  0  0  0  0  0  0  0  0  0  0
  146.0726  139.7598  155.4121 H   0  0  0  0  0  0  0  0  0  0  0  0
  147.5115  140.1245  156.3681 H   0  0  0  0  0  0  0  0  0  0  0  0
  150.6121  139.3371  153.5718 H   0  0  0  0  0  0  0  0  0  0  0  0
  150.0532  139.6843  155.1996 H   0  0  0  0  0  0  0  0  0  0  0  0
  151.2351  137.0192  154.2400 H   0  0  0  0  0  0  0  0  0  0  0  0
  152.0128  138.1829  155.2965 H   0  0  0  0  0  0  0  0  0  0  0  0
  149.3125  135.7919  155.0915 H   0  0  0  0  0  0  0  0  0  0  0  0
  148.7635  136.1314  156.7213 H   0  0  0  0  0  0  0  0  0  0  0  0
  147.9924  138.3859  156.0745 H   0  0  0  0  0  0  0  0  0  0  0  0
  147.2641  137.1970  155.0096 H   0  0  0  0  0  0  0  0  0  0  0  0
  148.9803  137.6062  153.4481 H   0  0  0  0  0  0  0  0  0  0  0  0
  1  2  1  0  0  0  0
  1 25  1  0  0  0  0
  1 26  1  0  0  0  0
  1 27  1  0  0  0  0
  2  7  1  0  0  0  0
  2  3  2  0  0  0  0
  3  4  1  0  0  0  0
  3 28  1  0  0  0  0
  4  5  2  0  0  0  0
  4 29  1  0  0  0  0
  5  6  1  0  0  0  0
  5 30  1  0  0  0  0
  6  7  2  0  0  0  0
  7  8  1  0  0  0  0
  8  9  1  0  0  0  0
  8 31  1  0  0  0  0
  9 10  2  0  0  0  0
  9 11  1  0  0  0  0
 11 12  1  0  0  0  0
 11 32  1  0  0  0  0
 12 13  1  0  0  0  0
 12 33  1  0  0  0  0
 12 34  1  0  0  0  0
 13 14  1  0  0  0  0
 13 19  1  0  0  0  0
 13 35  1  0  0  0  0
 14 18  1  0  0  0  0
 14 15  1  0  0  0  0
 14 36  1  0  0  0  0
 15 16  1  0  0  0  0
 15 37  1  0  0  0  0
 15 38  1  0  0  0  0
 16 17  1  0  0  0  0
 16 39  1  0  0  0  0
 16 40  1  0  0  0  0
 17 18  1  0  0  0  0
 18 41  1  0  0  0  0
 18 42  1  0  0  0  0
 19 24  1  0  0  0  0
 19 20  1  0  0  0  0
 19 51  1  0  0  0  0
 20 21  1  0  0  0  0
 20 43  1  0  0  0  0
 20 44  1  0  0  0  0
 21 22  1  0  0  0  0
 21 45  1  0  0  0  0
 21 46  1  0  0  0  0
 22 23  1  0  0  0  0
 23 24  1  0  0  0  0
 23 47  1  0  0  0  0
 23 48  1  0  0  0  0
 24 49  1  0  0  0  0
 24 50  1  0  0  0  0
M  CHG  1  19   1
M  END
> <s_m_source_file>
AV-unprocessed.smi

> <i_m_source_file_index>
1734

> <i_lp_mmshare_version>
43012

> <i_f3d_flags>
0

> <s_epik_input>
W0NIM11jMVtjSF1bY0hdW2NIXW5jMVtOSF1DKD1PKVtOSF1bQ0gyXVtDQEhdKFtDQEBIXTJbQ0gyXVtDSDJdT1tDSDJdMilOM1tDSDJdW0NIMl1PW0NIMl1bQ0gyXTM=

> <s_epik_cmdline>
J2VwaWtfcHl0aG9uJywgJy1waCcsICc3LjAnLCAnLXRuJywgJzgnLCAnLW1hJywgJzIwMCcsICctbWV0YWxfYmluZGluZycsICctaW1hZScsICc8aW5maWxlLm1hZT4nLCAnLW9tYWUnLCAnPG91dGZpbGUubWFlPic=

> <r_epik_Ionization_Penalty>
0.983302

> <r_epik_Ionization_Penalty_Charging>
0.98326

> <r_epik_Ionization_Penalty_Neutral>
4.21967e-05

> <r_epik_State_Penalty>
1.0303

> <r_epik_Charging_Adjusted_Penalty>
2.01356

> <i_epik_Tot_Q>
1

> <i_epik_Tot_abs_Q>
1

> <r_epik_Metal_State_Penalty>
1.03031

> <b_epik_Metal_Only>
0

> <s_lp_Force_Field>
OPLS_2005

> <r_lp_Energy>
38.82

> <b_lp_Chiralities_Consistent>
1

> <s_lp_Variant>
AV-unprocessed.smi:1734-8

> <Gold.Version>
5.8.1

> <Gold.Id.Protein>
6NUR|6NUR_protein|mol2

> <Gold.PLP.Fitness>
50.7351

> <Gold.PLP.PLP>
-36.6780

> <Gold.PLP.part.hbond>
-3.2454

> <Gold.PLP.part.metal>
0.0000

> <Gold.PLP.part.buried>
-3.0188

> <Gold.PLP.part.nonpolar>
-31.4565

> <Gold.PLP.part.repulsive>
0.6518

> <Gold.PLP.ligand.clash>
0.0000

> <Gold.PLP.ligand.torsion>
0.5781

> <Gold.PLP.Chemscore.Hbond>
3.8713

> <Gold.PLP.Chemscore.CHOScore>
1.0000

> <Gold.PLP.Chemscore.Metal>
0.0000

> <Gold.Chemscore.Hbonds>
donor molecule, donor type, donor heavy atom, donor atom, acceptor molecule, acceptor atom, score
      L1  H     8    31       P1  7948  0.84
      L1  H    11    32       P1  7948  1.00
      L1  H    19    51       P1  7948  1.76
      L1  C     5    30       P1 10186  0.92

> <Gold.PLP.Chemscore.Internal.Correction>
0.5996

> <Gold.Rescore>
     Score         DG    S(hbond)    S(metal)    S(lipo)     H(rot)  DE(clash)    DE(int)     intcor
     18.73     -20.77       2.58        0.00      94.28       1.70       1.43       0.61       ----

> <Gold.Chemscore.Fitness>
18.7332

> <Gold.Chemscore.DG>
-20.7727

> <Gold.Chemscore.ZeroCoef>
-5.4800

> <Gold.Chemscore.Hbond>
2.5781

> <Gold.Chemscore.Metal>
0.0000

> <Gold.Chemscore.Lipo>
94.2775

> <Gold.Chemscore.Internal_Hbond>
0.0000

> <Gold.Chemscore.DEClash>
1.4293

> <Gold.Chemscore.DEInternal>
0.6102

> <Gold.Chemscore.Rot>
1.6986

> <Gold.Chemscore.Internal.Correction>
   9.000000E+99

> <Gold.Chemscore.Hbonds>
donor molecule, donor type, donor heavy atom, donor atom, acceptor molecule, acceptor atom, score
      L1  H     8    31       P1  7948  0.69
      L1  H    11    32       P1  7948  0.94
      L1  H    19    51       P1  7948  0.86

> <Gold.Chemscore.Hbond.Weighted>
-8.6107

> <Gold.Chemscore.Metal.Weighted>
-0.0000

> <Gold.Chemscore.Lipo.Weighted>
-11.0305

> <Gold.Chemscore.Internal_Hbond.Weighted>
0.0000

> <Gold.Chemscore.DEClash.Weighted>
1.4293

> <Gold.Chemscore.DEInternal.Weighted>
0.6102

> <Gold.Chemscore.Rot.Weighted>
4.3485

> <Gold.Chemscore.Internal.Correction.Weighted>
   9.000000E+99

> <Gold.Protein.RotatedTorsions>
[ 6907 6896 6895 6894 ] final  107.11 input  -60.11 | X-H torsion
[ 7974 7965 7964 7962 ] final -102.63 input  175.53 | X-H torsion
[ 8008 7997 7996 7995 ] final   37.35 input   59.86 | X-H torsion
[ 10167 10162 10161 10158 ] final -144.02 input  -65.29 | X-H torsion
[ 10718 10713 10712 10709 ] final    2.55 input   66.30 | X-H torsion
[ 10763 10752 10751 10750 ] final   51.58 input  -60.55 | X-H torsion
[ 11005 11000 10999 10996 ] final  -30.23 input  -57.11 | X-H torsion

> <Gold.Protein.ActiveResidues>
 VAL166  LYS551  ARG553  GLY616  TRP617  ASP618  TYR619  PRO620  LYS621  CYS622 
 ASP623  PHE694  ASN695  SER759  ASP760  ASP761  ALA762  ILE779  LEU786  VAL792 
 PHE793  MET794  SER795  GLU796  ALA797  LYS798  CYS799  TRP800  GLU811  SER814 

> <Gold.Protein.RotatedAtoms>
  152.5167  133.9282  159.7567 H   0  0  0  0  0  0  0  0  0  0  0  0  # atno 6907 bound_to 6896
  150.9639  133.6408  159.2756 H   0  0  0  0  0  0  0  0  0  0  0  0  # atno 6908 bound_to 6896
  151.3643  135.0915  159.9497 H   0  0  0  0  0  0  0  0  0  0  0  0  # atno 6909 bound_to 6896
  145.2663  140.9285  143.3012 H   0  0  0  0  0  0  0  0  0  0  0  0  # atno 7974 bound_to 7965
  155.2023  140.3317  155.4341 H   0  0  0  0  0  0  0  0  0  0  0  0  # atno 8008 bound_to 7997
  156.2402  140.1891  156.7059 H   0  0  0  0  0  0  0  0  0  0  0  0  # atno 8009 bound_to 7997
  154.6133  140.0606  156.9507 H   0  0  0  0  0  0  0  0  0  0  0  0  # atno 8010 bound_to 7997
  139.7938  143.7929  152.2652 H   0  0  0  0  0  0  0  0  0  0  0  0  # atno 10167 bound_to 10162
  156.8647  130.5599  149.5661 H   0  0  0  0  0  0  0  0  0  0  0  0  # atno 10718 bound_to 10713
  152.9786  135.5841  154.4439 H   0  0  0  0  0  0  0  0  0  0  0  0  # atno 10763 bound_to 10752
  154.4036  135.2769  155.2083 H   0  0  0  0  0  0  0  0  0  0  0  0  # atno 10764 bound_to 10752
  154.3903  135.6127  153.5893 H   0  0  0  0  0  0  0  0  0  0  0  0  # atno 10765 bound_to 10752
  140.9365  133.7305  156.1013 H   0  0  0  0  0  0  0  0  0  0  0  0  # atno 11005 bound_to 11000
  144.9374  139.4228  143.6465 LP  0  0  0  0  0  0  0  0  0  0  0  0  # atno 17320 bound_to 7965
  146.3260  139.8316  142.8907 LP  0  0  0  0  0  0  0  0  0  0  0  0  # atno 17321 bound_to 7965
  139.8028  144.7367  150.9802 LP  0  0  0  0  0  0  0  0  0  0  0  0  # atno 17342 bound_to 10162
  140.7820  143.4328  151.0669 LP  0  0  0  0  0  0  0  0  0  0  0  0  # atno 17343 bound_to 10162
  156.0758  130.5780  150.9471 LP  0  0  0  0  0  0  0  0  0  0  0  0  # atno 17370 bound_to 10713
  157.6230  131.0928  150.8586 LP  0  0  0  0  0  0  0  0  0  0  0  0  # atno 17371 bound_to 10713
  140.7792  134.3745  157.5491 LP  0  0  0  0  0  0  0  0  0  0  0  0  # atno 17394 bound_to 11000
  139.8809  134.9071  156.2937 LP  0  0  0  0  0  0  0  0  0  0  0  0  # atno 17395 bound_to 11000

$$$$
