AV-unprocessed.smi:21|AV-procd|sdf|162|dock9
  -GOLD-   2262015403D 1   1.00000     0.00000
 Structure written by MMmdl.
 61 64  0  0  0  0  0  0  0  0  1 V2000
  149.7406  144.6869  160.2160 C   0  0  0  0  0  0  0  0  0  0  0  0
  150.7688  145.4665  159.6265 O   0  0  0  0  0  0  0  0  0  0  0  0
  151.8952  144.7020  159.2212 C   0  0  2  0  0  0  0  0  0  0  0  0
  151.5307  143.5596  158.2546 C   0  0  0  0  0  0  0  0  0  0  0  0
  151.9370  142.2771  158.9974 C   0  0  1  0  0  0  0  0  0  0  0  0
  152.3585  141.1250  158.0581 C   0  0  0  0  0  0  0  0  0  0  0  0
  151.2224  140.4063  157.4809 N   0  0  0  0  0  0  0  0  0  0  0  0
  149.9270  140.5248  158.1490 C   0  0  0  0  0  0  0  0  0  0  0  0
  151.4112  139.3977  156.5783 C   0  0  0  0  0  0  0  0  0  0  0  0
  152.5011  139.4598  155.7648 N   0  0  0  0  0  0  0  0  0  0  0  0
  152.7377  138.5139  154.8533 C   0  0  0  0  0  0  0  0  0  0  0  0
  152.0252  137.4210  154.5851 N   0  0  0  0  0  0  0  0  0  0  0  0
  150.9351  137.3344  155.3978 C   0  0  0  0  0  0  0  0  0  0  0  0
  150.5529  138.2651  156.4094 C   0  0  0  0  0  0  0  0  0  0  0  0
  149.3821  137.8204  157.0168 N   0  0  0  0  0  0  0  0  0  0  0  0
  149.0866  136.7113  156.3990 C   0  0  0  0  0  0  0  0  0  0  0  0
  149.9790  136.3341  155.4240 N   0  0  0  0  0  0  0  0  0  0  0  0
  149.8988  135.1525  154.5837 C   0  0  0  0  0  0  0  0  0  0  0  0
  150.1197  133.8110  155.3311 C   0  0  2  0  0  0  0  0  0  0  0  0
  151.3764  133.9266  156.2248 C   0  0  0  0  0  0  0  0  0  0  0  0
  151.1385  134.7359  157.3589 O   0  0  0  0  0  0  0  0  0  0  0  0
  150.1559  132.5584  154.4064 C   0  0  1  0  0  0  0  0  0  0  0  0
  150.2184  131.2274  155.1401 C   0  0  0  0  0  0  0  0  0  0  0  0
  149.7750  130.2468  154.0653 C   0  0  0  0  0  0  0  0  0  0  0  0
  148.7396  130.9309  153.3782 O   0  0  0  0  0  0  0  0  0  0  0  0
  148.9122  132.3372  153.5281 C   0  0  0  0  0  0  0  0  0  0  0  0
  152.9670  142.6990  159.9326 N   0  0  0  0  0  0  0  0  0  0  0  0
  153.2131  141.7458  161.0066 C   0  0  0  0  0  0  0  0  0  0  0  0
  152.4815  143.9703  160.4315 C   0  0  0  0  0  0  0  0  0  0  0  0
  152.6632  145.3407  158.7808 H   0  0  0  0  0  0  0  0  0  0  0  0
  151.0697  141.9579  159.5778 H   0  0  0  0  0  0  0  0  0  0  0  0
  148.9103  145.3340  160.4987 H   0  0  0  0  0  0  0  0  0  0  0  0
  150.0858  144.1750  161.1146 H   0  0  0  0  0  0  0  0  0  0  0  0
  149.3606  143.9427  159.5150 H   0  0  0  0  0  0  0  0  0  0  0  0
  150.4711  143.5414  157.9974 H   0  0  0  0  0  0  0  0  0  0  0  0
  152.0949  143.6727  157.3280 H   0  0  0  0  0  0  0  0  0  0  0  0
  152.9672  141.5343  157.2512 H   0  0  0  0  0  0  0  0  0  0  0  0
  153.0154  140.4181  158.5607 H   0  0  0  0  0  0  0  0  0  0  0  0
  149.1229  140.6183  157.4181 H   0  0  0  0  0  0  0  0  0  0  0  0
  149.8897  141.4056  158.7900 H   0  0  0  0  0  0  0  0  0  0  0  0
  149.7318  139.6508  158.7714 H   0  0  0  0  0  0  0  0  0  0  0  0
  153.6253  138.6536  154.2539 H   0  0  0  0  0  0  0  0  0  0  0  0
  148.2127  136.1280  156.6506 H   0  0  0  0  0  0  0  0  0  0  0  0
  148.9286  135.1502  154.0855 H   0  0  0  0  0  0  0  0  0  0  0  0
  150.6455  135.2669  153.7971 H   0  0  0  0  0  0  0  0  0  0  0  0
  149.2837  133.6781  156.0187 H   0  0  0  0  0  0  0  0  0  0  0  0
  151.6942  132.9398  156.5631 H   0  0  0  0  0  0  0  0  0  0  0  0
  152.2184  134.3390  155.6689 H   0  0  0  0  0  0  0  0  0  0  0  0
  151.0261  135.6296  157.0728 H   0  0  0  0  0  0  0  0  0  0  0  0
  151.0296  132.6198  153.7553 H   0  0  0  0  0  0  0  0  0  0  0  0
  151.2108  130.9955  155.5278 H   0  0  0  0  0  0  0  0  0  0  0  0
  149.5116  131.2124  155.9712 H   0  0  0  0  0  0  0  0  0  0  0  0
  150.5910  130.0448  153.3699 H   0  0  0  0  0  0  0  0  0  0  0  0
  149.4287  129.2976  154.4741 H   0  0  0  0  0  0  0  0  0  0  0  0
  148.0136  132.7368  153.9991 H   0  0  0  0  0  0  0  0  0  0  0  0
  149.0163  132.8029  152.5489 H   0  0  0  0  0  0  0  0  0  0  0  0
  153.9542  142.1381  161.7036 H   0  0  0  0  0  0  0  0  0  0  0  0
  153.5971  140.8043  160.6148 H   0  0  0  0  0  0  0  0  0  0  0  0
  152.3007  141.5346  161.5659 H   0  0  0  0  0  0  0  0  0  0  0  0
  153.2727  144.5412  160.9185 H   0  0  0  0  0  0  0  0  0  0  0  0
  151.6946  143.8006  161.1688 H   0  0  0  0  0  0  0  0  0  0  0  0
  1  2  1  0  0  0  0
  1 32  1  0  0  0  0
  1 33  1  0  0  0  0
  1 34  1  0  0  0  0
  2  3  1  0  0  0  0
  3 30  1  0  0  0  0
  3 29  1  0  0  0  0
  3  4  1  0  0  0  0
  4  5  1  0  0  0  0
  4 35  1  0  0  0  0
  4 36  1  0  0  0  0
  5 31  1  0  0  0  0
  5  6  1  0  0  0  0
  5 27  1  0  0  0  0
  6  7  1  0  0  0  0
  6 37  1  0  0  0  0
  6 38  1  0  0  0  0
  7  8  1  0  0  0  0
  7  9  1  0  0  0  0
  8 39  1  0  0  0  0
  8 40  1  0  0  0  0
  8 41  1  0  0  0  0
  9 14  1  0  0  0  0
  9 10  2  0  0  0  0
 10 11  1  0  0  0  0
 11 12  2  0  0  0  0
 11 42  1  0  0  0  0
 12 13  1  0  0  0  0
 13 17  1  0  0  0  0
 13 14  2  0  0  0  0
 14 15  1  0  0  0  0
 15 16  2  0  0  0  0
 16 17  1  0  0  0  0
 16 43  1  0  0  0  0
 17 18  1  0  0  0  0
 18 19  1  0  0  0  0
 18 44  1  0  0  0  0
 18 45  1  0  0  0  0
 19 20  1  0  0  0  0
 19 22  1  0  0  0  0
 19 46  1  0  0  0  0
 20 21  1  0  0  0  0
 20 47  1  0  0  0  0
 20 48  1  0  0  0  0
 21 49  1  0  0  0  0
 22 26  1  0  0  0  0
 22 23  1  0  0  0  0
 22 50  1  0  0  0  0
 23 24  1  0  0  0  0
 23 51  1  0  0  0  0
 23 52  1  0  0  0  0
 24 25  1  0  0  0  0
 24 53  1  0  0  0  0
 24 54  1  0  0  0  0
 25 26  1  0  0  0  0
 26 55  1  0  0  0  0
 26 56  1  0  0  0  0
 27 28  1  0  0  0  0
 27 29  1  0  0  0  0
 28 57  1  0  0  0  0
 28 58  1  0  0  0  0
 28 59  1  0  0  0  0
 29 60  1  0  0  0  0
 29 61  1  0  0  0  0
M  END
> <s_m_source_file>
AV-unprocessed.smi

> <i_m_source_file_index>
21

> <i_lp_mmshare_version>
43012

> <i_f3d_flags>
0

> <s_epik_input>
W0NIM11PW0NASF0xW0NIMl1bQ0BIXShOKFtDSDNdKVtDSDJdMSlbQ0gyXU4oW0NIM10pYyhuW2NIXW4yKWMoYzIzKW5bY0hdbjNbQ0gyXVtDQEhdKFtDSDJdW09IXSlbQ0BASF00W0NIMl1bQ0gyXU9bQ0gyXTQ=

> <s_epik_cmdline>
J2VwaWtfcHl0aG9uJywgJy1waCcsICc3LjAnLCAnLXRuJywgJzgnLCAnLW1hJywgJzIwMCcsICctbWV0YWxfYmluZGluZycsICctaW1hZScsICc8aW5maWxlLm1hZT4nLCAnLW9tYWUnLCAnPG91dGZpbGUubWFlPic=

> <r_lp_tautomer_probability>
1

> <r_epik_Ionization_Penalty>
2.17574

> <r_epik_Ionization_Penalty_Charging>
0

> <r_epik_Ionization_Penalty_Neutral>
2.17574

> <r_epik_State_Penalty>
2.31336

> <r_epik_Charging_Adjusted_Penalty>
2.31336

> <i_epik_Tot_Q>
0

> <i_epik_Tot_abs_Q>
0

> <r_epik_Metal_State_Penalty>
2.31025

> <b_epik_Metal_Only>
0

> <s_lp_Force_Field>
OPLS_2005

> <r_lp_Energy>
68.3176

> <b_lp_Chiralities_Consistent>
1

> <s_lp_Variant>
AV-unprocessed.smi:21-42

> <Gold.Version>
5.8.1

> <Gold.Id.Protein>
6NUR|6NUR_protein|mol2

> <Gold.PLP.Fitness>
56.3989

> <Gold.PLP.PLP>
-50.5700

> <Gold.PLP.part.hbond>
-4.5949

> <Gold.PLP.part.metal>
0.0000

> <Gold.PLP.part.buried>
-7.4814

> <Gold.PLP.part.nonpolar>
-40.1645

> <Gold.PLP.part.repulsive>
0.4098

> <Gold.PLP.ligand.clash>
0.0000

> <Gold.PLP.ligand.torsion>
0.8412

> <Gold.PLP.Chemscore.Hbond>
2.2800

> <Gold.PLP.Chemscore.CHOScore>
0.0000

> <Gold.PLP.Chemscore.Metal>
0.0000

> <Gold.Chemscore.Hbonds>
donor molecule, donor type, donor heavy atom, donor atom, acceptor molecule, acceptor atom, score
      P1  H  6896  6909       L1    21  0.17
      P1  H  7997  8008       L1    10  1.00
      P1  H 10752 10764       L1    12  0.85

> <Gold.PLP.Chemscore.Internal.Correction>
0.6713

> <Gold.Rescore>
     Score         DG    S(hbond)    S(metal)    S(lipo)     H(rot)  DE(clash)    DE(int)     intcor
     15.02     -18.46       2.18        0.00     114.48       3.00       0.14       3.30       ----

> <Gold.Chemscore.Fitness>
15.0186

> <Gold.Chemscore.DG>
-18.4551

> <Gold.Chemscore.ZeroCoef>
-5.4800

> <Gold.Chemscore.Hbond>
2.1762

> <Gold.Chemscore.Metal>
0.0000

> <Gold.Chemscore.Lipo>
114.4842

> <Gold.Chemscore.Internal_Hbond>
0.0000

> <Gold.Chemscore.DEClash>
0.1361

> <Gold.Chemscore.DEInternal>
3.3004

> <Gold.Chemscore.Rot>
3.0031

> <Gold.Chemscore.Internal.Correction>
   9.000000E+99

> <Gold.Chemscore.Hbonds>
donor molecule, donor type, donor heavy atom, donor atom, acceptor molecule, acceptor atom, score
      P1  H  6896  6909       L1    21  0.17
      P1  H  7997  8008       L1    10  0.47
      P1  H 10752 10764       L1    12  0.63

> <Gold.Chemscore.Hbond.Weighted>
-7.2684

> <Gold.Chemscore.Metal.Weighted>
-0.0000

> <Gold.Chemscore.Lipo.Weighted>
-13.3946

> <Gold.Chemscore.Internal_Hbond.Weighted>
0.0000

> <Gold.Chemscore.DEClash.Weighted>
0.1361

> <Gold.Chemscore.DEInternal.Weighted>
3.3004

> <Gold.Chemscore.Rot.Weighted>
7.6880

> <Gold.Chemscore.Internal.Correction.Weighted>
   9.000000E+99

> <Gold.Protein.RotatedTorsions>
[ 6907 6896 6895 6894 ] final   22.72 input  -60.11 | X-H torsion
[ 7974 7965 7964 7962 ] final   94.41 input  175.53 | X-H torsion
[ 8008 7997 7996 7995 ] final  -41.09 input   59.86 | X-H torsion
[ 10167 10162 10161 10158 ] final   51.90 input  -65.29 | X-H torsion
[ 10718 10713 10712 10709 ] final -141.62 input   66.30 | X-H torsion
[ 10763 10752 10751 10750 ] final  -69.10 input  -60.55 | X-H torsion
[ 11005 11000 10999 10996 ] final -171.09 input  -57.11 | X-H torsion

> <Gold.Protein.ActiveResidues>
 VAL166  LYS551  ARG553  GLY616  TRP617  ASP618  TYR619  PRO620  LYS621  CYS622 
 ASP623  PHE694  ASN695  SER759  ASP760  ASP761  ALA762  ILE779  LEU786  VAL792 
 PHE793  MET794  SER795  GLU796  ALA797  LYS798  CYS799  TRP800  GLU811  SER814 

> <Gold.Protein.RotatedAtoms>
  151.9314  135.0255  160.0529 H   0  0  0  0  0  0  0  0  0  0  0  0  # atno 6907 bound_to 6896
  152.2115  133.4910  159.5121 H   0  0  0  0  0  0  0  0  0  0  0  0  # atno 6908 bound_to 6896
  150.6977  134.1377  159.4136 H   0  0  0  0  0  0  0  0  0  0  0  0  # atno 6909 bound_to 6896
  145.4659  139.2284  143.2961 H   0  0  0  0  0  0  0  0  0  0  0  0  # atno 7974 bound_to 7965
  154.4006  140.1508  156.3134 H   0  0  0  0  0  0  0  0  0  0  0  0  # atno 8008 bound_to 7997
  155.8595  140.3454  155.5725 H   0  0  0  0  0  0  0  0  0  0  0  0  # atno 8009 bound_to 7997
  155.7896  140.0855  157.2007 H   0  0  0  0  0  0  0  0  0  0  0  0  # atno 8010 bound_to 7997
  140.2570  144.3415  150.6330 H   0  0  0  0  0  0  0  0  0  0  0  0  # atno 10167 bound_to 10162
  156.3362  130.7613  151.1741 H   0  0  0  0  0  0  0  0  0  0  0  0  # atno 10718 bound_to 10713
  154.3985  135.6036  153.5884 H   0  0  0  0  0  0  0  0  0  0  0  0  # atno 10763 bound_to 10752
  152.9788  135.5901  154.4212 H   0  0  0  0  0  0  0  0  0  0  0  0  # atno 10764 bound_to 10752
  154.4007  135.2843  155.2076 H   0  0  0  0  0  0  0  0  0  0  0  0  # atno 10765 bound_to 10752
  140.5122  134.5791  157.5022 H   0  0  0  0  0  0  0  0  0  0  0  0  # atno 11005 bound_to 11000
  146.2424  140.5433  142.8928 LP  0  0  0  0  0  0  0  0  0  0  0  0  # atno 17320 bound_to 7965
  144.7974  140.6149  143.6501 LP  0  0  0  0  0  0  0  0  0  0  0  0  # atno 17321 bound_to 7965
  140.5996  143.2167  151.7098 LP  0  0  0  0  0  0  0  0  0  0  0  0  # atno 17342 bound_to 10162
  139.5028  144.3814  152.0372 LP  0  0  0  0  0  0  0  0  0  0  0  0  # atno 17343 bound_to 10162
  157.7439  131.0467  150.4908 LP  0  0  0  0  0  0  0  0  0  0  0  0  # atno 17370 bound_to 10713
  156.5081  130.4133  149.6316 LP  0  0  0  0  0  0  0  0  0  0  0  0  # atno 17371 bound_to 10713
  139.9652  134.7384  156.0152 LP  0  0  0  0  0  0  0  0  0  0  0  0  # atno 17394 bound_to 11000
  141.1379  133.6571  156.3647 LP  0  0  0  0  0  0  0  0  0  0  0  0  # atno 17395 bound_to 11000

$$$$
