AV-unprocessed.smi:2441|AV-procd|sdf|9621|dock5
  -GOLD-   2272013253D 1   1.00000     0.00000
 Structure written by MMmdl.
 40 41  0  0  0  0  0  0  0  0  1 V2000
  148.7068  140.4664  154.3835 C   0  0  0  0  0  0  0  0  0  0  0  0
  147.3340  141.0912  154.6870 C   0  0  2  0  0  0  0  0  0  0  0  0
  147.0686  142.3328  153.8103 C   0  0  0  0  0  0  0  0  0  0  0  0
  145.6762  142.9272  154.0765 C   0  0  0  0  0  0  0  0  0  0  0  0
  145.4813  143.2567  155.5640 C   0  0  0  0  0  0  0  0  0  0  0  0
  145.7439  142.0246  156.4473 C   0  0  0  0  0  0  0  0  0  0  0  0
  147.1339  141.4080  156.1908 C   0  0  2  0  0  0  0  0  0  0  0  0
  148.1768  142.3032  156.6970 N   0  0  0  0  0  0  0  0  0  0  0  0
  148.9685  142.0816  157.7564 C   0  0  0  0  0  0  0  0  0  0  0  0
  148.9152  141.0620  158.4434 O   0  0  0  0  0  0  0  0  0  0  0  0
  149.7951  143.1247  157.9568 N   0  0  0  0  0  0  0  0  0  0  0  0
  150.7879  143.3050  158.9360 C   0  0  0  0  0  0  0  0  0  0  0  0
  150.9849  144.4523  159.6331 C   0  0  0  0  0  0  0  0  0  0  0  0
  152.0260  144.5458  160.6277 C   0  0  0  0  0  0  0  0  0  0  0  0
  152.7874  143.4668  160.8547 C   0  0  0  0  0  0  0  0  0  0  0  0
  152.5951  142.2644  160.1556 N   0  0  0  0  0  0  0  0  0  0  0  0
  153.5030  141.1695  160.5101 C   0  0  0  0  0  0  0  0  0  0  0  0
  151.6283  142.1195  159.1987 C   0  0  0  0  0  0  0  0  0  0  0  0
  151.4750  141.0562  158.5931 O   0  0  0  0  0  0  0  0  0  0  0  0
  149.5205  141.1687  154.5659 H   0  0  0  0  0  0  0  0  0  0  0  0
  148.7712  140.1525  153.3415 H   0  0  0  0  0  0  0  0  0  0  0  0
  148.8815  139.5860  155.0025 H   0  0  0  0  0  0  0  0  0  0  0  0
  146.5862  140.3433  154.4180 H   0  0  0  0  0  0  0  0  0  0  0  0
  147.8313  143.0903  153.9958 H   0  0  0  0  0  0  0  0  0  0  0  0
  147.1524  142.0671  152.7559 H   0  0  0  0  0  0  0  0  0  0  0  0
  145.5353  143.8262  153.4758 H   0  0  0  0  0  0  0  0  0  0  0  0
  144.9108  142.2186  153.7575 H   0  0  0  0  0  0  0  0  0  0  0  0
  146.1510  144.0683  155.8512 H   0  0  0  0  0  0  0  0  0  0  0  0
  144.4680  143.6224  155.7322 H   0  0  0  0  0  0  0  0  0  0  0  0
  145.6368  142.2895  157.5001 H   0  0  0  0  0  0  0  0  0  0  0  0
  144.9782  141.2744  156.2456 H   0  0  0  0  0  0  0  0  0  0  0  0
  147.1719  140.4636  156.7365 H   0  0  0  0  0  0  0  0  0  0  0  0
  148.2980  143.1714  156.1966 H   0  0  0  0  0  0  0  0  0  0  0  0
  149.6694  143.9161  157.3423 H   0  0  0  0  0  0  0  0  0  0  0  0
  150.3692  145.3240  159.4838 H   0  0  0  0  0  0  0  0  0  0  0  0
  152.1878  145.4629  161.1747 H   0  0  0  0  0  0  0  0  0  0  0  0
  153.5888  143.4504  161.5798 H   0  0  0  0  0  0  0  0  0  0  0  0
  153.2749  140.2213  160.0222 H   0  0  0  0  0  0  0  0  0  0  0  0
  153.4720  140.9905  161.5857 H   0  0  0  0  0  0  0  0  0  0  0  0
  154.5268  141.4353  160.2448 H   0  0  0  0  0  0  0  0  0  0  0  0
  1  2  1  0  0  0  0
  1 20  1  0  0  0  0
  1 21  1  0  0  0  0
  1 22  1  0  0  0  0
  2  7  1  0  0  0  0
  2  3  1  0  0  0  0
  2 23  1  0  0  0  0
  3  4  1  0  0  0  0
  3 24  1  0  0  0  0
  3 25  1  0  0  0  0
  4  5  1  0  0  0  0
  4 26  1  0  0  0  0
  4 27  1  0  0  0  0
  5  6  1  0  0  0  0
  5 28  1  0  0  0  0
  5 29  1  0  0  0  0
  6  7  1  0  0  0  0
  6 30  1  0  0  0  0
  6 31  1  0  0  0  0
  7  8  1  0  0  0  0
  7 32  1  0  0  0  0
  8  9  1  0  0  0  0
  8 33  1  0  0  0  0
  9 10  2  0  0  0  0
  9 11  1  0  0  0  0
 11 12  1  0  0  0  0
 11 34  1  0  0  0  0
 12 18  1  0  0  0  0
 12 13  2  0  0  0  0
 13 14  1  0  0  0  0
 13 35  1  0  0  0  0
 14 15  2  0  0  0  0
 14 36  1  0  0  0  0
 15 16  1  0  0  0  0
 15 37  1  0  0  0  0
 16 17  1  0  0  0  0
 16 18  1  0  0  0  0
 17 38  1  0  0  0  0
 17 39  1  0  0  0  0
 17 40  1  0  0  0  0
 18 19  2  0  0  0  0
M  END
> <s_m_source_file>
AV-unprocessed.smi

> <i_m_source_file_index>
2441

> <i_lp_mmshare_version>
43012

> <i_f3d_flags>
0

> <s_epik_input>
W0NIM11bQ0BASF0xW0NIMl1bQ0gyXVtDSDJdW0NIMl1bQ0BIXTFbTkhdQyg9TylbTkhdYzJbY0hdW2NIXVtjSF1uKFtDSDNdKWMyPU8=

> <s_epik_cmdline>
J2VwaWtfcHl0aG9uJywgJy1waCcsICc3LjAnLCAnLXRuJywgJzgnLCAnLW1hJywgJzIwMCcsICctbWV0YWxfYmluZGluZycsICctaW1hZScsICc8aW5maWxlLm1hZT4nLCAnLW9tYWUnLCAnPG91dGZpbGUubWFlPic=

> <r_lp_tautomer_probability>
1

> <r_epik_Ionization_Penalty>
2.64999e-05

> <r_epik_Ionization_Penalty_Charging>
5.09663e-06

> <r_epik_Ionization_Penalty_Neutral>
2.14032e-05

> <r_epik_State_Penalty>
-0

> <r_epik_Charging_Adjusted_Penalty>
5.09663e-06

> <i_epik_Tot_Q>
0

> <i_epik_Tot_abs_Q>
0

> <r_epik_Metal_State_Penalty>
-0

> <b_epik_Metal_Only>
0

> <s_lp_Force_Field>
OPLS_2005

> <r_lp_Energy>
23.2252

> <b_lp_Chiralities_Consistent>
1

> <s_lp_Variant>
AV-unprocessed.smi:2441-3

> <Gold.Version>
5.8.1

> <Gold.Id.Protein>
6NUR|6NUR_protein|mol2

> <Gold.PLP.Fitness>
44.6042

> <Gold.PLP.PLP>
-39.5799

> <Gold.PLP.part.hbond>
-2.5369

> <Gold.PLP.part.metal>
0.0000

> <Gold.PLP.part.buried>
-6.3004

> <Gold.PLP.part.nonpolar>
-30.9066

> <Gold.PLP.part.repulsive>
0.0744

> <Gold.PLP.ligand.clash>
0.0000

> <Gold.PLP.ligand.torsion>
0.4075

> <Gold.PLP.Chemscore.Hbond>
1.9440

> <Gold.PLP.Chemscore.CHOScore>
0.0000

> <Gold.PLP.Chemscore.Metal>
0.0000

> <Gold.Chemscore.Hbonds>
donor molecule, donor type, donor heavy atom, donor atom, acceptor molecule, acceptor atom, score
      L1  H     8    33       P1  8028  1.00
      L1  H    11    34       P1  8028  1.00

> <Gold.PLP.Chemscore.Internal.Correction>
0.0072

> <Gold.Rescore>
     Score         DG    S(hbond)    S(metal)    S(lipo)     H(rot)  DE(clash)    DE(int)     intcor
     16.35     -20.01       1.89        0.00      92.07       1.00       0.58       3.08       ----

> <Gold.Chemscore.Fitness>
16.3523

> <Gold.Chemscore.DG>
-20.0073

> <Gold.Chemscore.ZeroCoef>
-5.4800

> <Gold.Chemscore.Hbond>
1.8907

> <Gold.Chemscore.Metal>
0.0000

> <Gold.Chemscore.Lipo>
92.0729

> <Gold.Chemscore.Internal_Hbond>
0.0000

> <Gold.Chemscore.DEClash>
0.5751

> <Gold.Chemscore.DEInternal>
3.0799

> <Gold.Chemscore.Rot>
1.0000

> <Gold.Chemscore.Internal.Correction>
   9.000000E+99

> <Gold.Chemscore.Hbonds>
donor molecule, donor type, donor heavy atom, donor atom, acceptor molecule, acceptor atom, score
      L1  H     8    33       P1  8028  0.70
      L1  H    11    34       P1  8028  0.55

> <Gold.Chemscore.Hbond.Weighted>
-6.3148

> <Gold.Chemscore.Metal.Weighted>
-0.0000

> <Gold.Chemscore.Lipo.Weighted>
-10.7725

> <Gold.Chemscore.Internal_Hbond.Weighted>
0.0000

> <Gold.Chemscore.DEClash.Weighted>
0.5751

> <Gold.Chemscore.DEInternal.Weighted>
3.0799

> <Gold.Chemscore.Rot.Weighted>
2.5600

> <Gold.Chemscore.Internal.Correction.Weighted>
   9.000000E+99

> <Gold.Protein.RotatedTorsions>
[ 6907 6896 6895 6894 ] final -107.86 input  -60.11 | X-H torsion
[ 7974 7965 7964 7962 ] final  132.62 input  175.53 | X-H torsion
[ 8008 7997 7996 7995 ] final -157.45 input   59.86 | X-H torsion
[ 10167 10162 10161 10158 ] final   27.28 input  -65.29 | X-H torsion
[ 10718 10713 10712 10709 ] final    3.89 input   66.30 | X-H torsion
[ 10763 10752 10751 10750 ] final  -76.24 input  -60.55 | X-H torsion
[ 11005 11000 10999 10996 ] final  -61.01 input  -57.11 | X-H torsion

> <Gold.Protein.ActiveResidues>
 VAL166  LYS551  ARG553  GLY616  TRP617  ASP618  TYR619  PRO620  LYS621  CYS622 
 ASP623  PHE694  ASN695  SER759  ASP760  ASP761  ALA762  ILE779  LEU786  VAL792 
 PHE793  MET794  SER795  GLU796  ALA797  LYS798  CYS799  TRP800  GLU811  SER814 

> <Gold.Protein.RotatedAtoms>
  150.7468  133.9764  159.3561 H   0  0  0  0  0  0  0  0  0  0  0  0  # atno 6907 bound_to 6896
  151.7701  135.0786  160.0368 H   0  0  0  0  0  0  0  0  0  0  0  0  # atno 6908 bound_to 6896
  152.3344  133.5958  159.5868 H   0  0  0  0  0  0  0  0  0  0  0  0  # atno 6909 bound_to 6896
  144.9949  139.4369  143.5321 H   0  0  0  0  0  0  0  0  0  0  0  0  # atno 7974 bound_to 7965
  155.7326  140.0804  157.2282 H   0  0  0  0  0  0  0  0  0  0  0  0  # atno 8008 bound_to 7997
  154.4031  140.1592  156.2580 H   0  0  0  0  0  0  0  0  0  0  0  0  # atno 8009 bound_to 7997
  155.9095  140.3405  155.6090 H   0  0  0  0  0  0  0  0  0  0  0  0  # atno 8010 bound_to 7997
  140.4952  144.0403  150.6311 H   0  0  0  0  0  0  0  0  0  0  0  0  # atno 10167 bound_to 10162
  156.8845  130.5665  149.5652 H   0  0  0  0  0  0  0  0  0  0  0  0  # atno 10718 bound_to 10713
  154.4973  135.5804  153.6504 H   0  0  0  0  0  0  0  0  0  0  0  0  # atno 10763 bound_to 10752
  152.9872  135.6127  154.3048 H   0  0  0  0  0  0  0  0  0  0  0  0  # atno 10764 bound_to 10752
  154.2953  135.2848  155.2615 H   0  0  0  0  0  0  0  0  0  0  0  0  # atno 10765 bound_to 10752
  141.1308  133.6626  156.5310 H   0  0  0  0  0  0  0  0  0  0  0  0  # atno 11005 bound_to 11000
  146.3439  139.9303  142.8754 LP  0  0  0  0  0  0  0  0  0  0  0  0  # atno 17320 bound_to 7965
  145.2233  140.9944  143.4033 LP  0  0  0  0  0  0  0  0  0  0  0  0  # atno 17321 bound_to 7965
  140.3684  143.2868  152.0306 LP  0  0  0  0  0  0  0  0  0  0  0  0  # atno 17342 bound_to 10162
  139.4860  144.6249  151.7183 LP  0  0  0  0  0  0  0  0  0  0  0  0  # atno 17343 bound_to 10162
  156.0660  130.5703  150.9290 LP  0  0  0  0  0  0  0  0  0  0  0  0  # atno 17370 bound_to 10713
  157.6121  131.0935  150.8777 LP  0  0  0  0  0  0  0  0  0  0  0  0  # atno 17371 bound_to 10713
  140.4216  134.7182  157.4893 LP  0  0  0  0  0  0  0  0  0  0  0  0  # atno 17394 bound_to 11000
  140.0356  134.6342  155.9048 LP  0  0  0  0  0  0  0  0  0  0  0  0  # atno 17395 bound_to 11000

$$$$
