AV-unprocessed.smi:3348|AV-procd|sdf|12925|dock1
  -GOLD-   2272019353D 1   1.00000     0.00000
 Structure written by MMmdl.
 46 47  0  0  0  0  0  0  0  0  1 V2000
  146.0027  135.1020  153.1785 C   0  0  0  0  0  0  0  0  0  0  0  0
  145.4670  136.1879  152.2351 C   0  0  2  0  0  0  0  0  0  0  0  0
  145.3437  135.6225  150.7989 C   0  0  0  0  0  0  0  0  0  0  0  0
  145.2343  134.1769  150.7320 N   0  0  0  0  0  0  0  0  0  0  0  0
  144.1138  133.4151  150.4721 C   0  0  0  0  0  0  0  0  0  0  0  0
  144.4959  132.1051  150.5107 C   0  0  0  0  0  0  0  0  0  0  0  0
  145.8886  132.1680  150.7965 C   0  0  0  0  0  0  0  0  0  0  0  0
  146.3288  133.4095  150.9246 N   0  0  0  0  0  0  0  0  0  0  0  0
  146.3610  137.3485  152.2915 N   0  0  0  0  0  0  0  0  0  0  0  0
  146.3719  138.0710  153.5639 C   0  0  0  0  0  0  0  0  0  0  0  0
  147.2899  139.2931  153.4899 C   0  0  0  0  0  0  0  0  0  0  0  0
  148.4907  138.9657  154.1727 O   0  0  0  0  0  0  0  0  0  0  0  0
  149.5418  139.9159  154.0440 C   0  0  1  0  0  0  0  0  0  0  0  0
  149.0681  141.3206  154.4760 C   0  0  0  0  0  0  0  0  0  0  0  0
  148.6964  141.3589  155.9672 C   0  0  0  0  0  0  0  0  0  0  0  0
  149.8668  140.8861  156.8424 C   0  0  0  0  0  0  0  0  0  0  0  0
  150.3511  139.4895  156.4209 C   0  0  0  0  0  0  0  0  0  0  0  0
  150.7220  139.4453  154.9244 C   0  0  1  0  0  0  0  0  0  0  0  0
  151.2394  138.0600  154.5059 C   0  0  0  0  0  0  0  0  0  0  0  0
  145.3435  134.2333  153.1916 H   0  0  0  0  0  0  0  0  0  0  0  0
  146.0762  135.4707  154.2022 H   0  0  0  0  0  0  0  0  0  0  0  0
  146.9937  134.7627  152.8742 H   0  0  0  0  0  0  0  0  0  0  0  0
  144.4776  136.4687  152.5994 H   0  0  0  0  0  0  0  0  0  0  0  0
  144.4801  136.0588  150.2946 H   0  0  0  0  0  0  0  0  0  0  0  0
  146.2161  135.9109  150.2110 H   0  0  0  0  0  0  0  0  0  0  0  0
  143.1481  133.8637  150.2925 H   0  0  0  0  0  0  0  0  0  0  0  0
  143.8749  131.2349  150.3584 H   0  0  0  0  0  0  0  0  0  0  0  0
  146.5884  131.3540  150.9142 H   0  0  0  0  0  0  0  0  0  0  0  0
  147.3076  137.0632  152.0617 H   0  0  0  0  0  0  0  0  0  0  0  0
  145.3772  138.3909  153.8637 H   0  0  0  0  0  0  0  0  0  0  0  0
  146.7248  137.4022  154.3494 H   0  0  0  0  0  0  0  0  0  0  0  0
  147.5162  139.5123  152.4457 H   0  0  0  0  0  0  0  0  0  0  0  0
  146.8022  140.1714  153.9129 H   0  0  0  0  0  0  0  0  0  0  0  0
  149.8773  139.9489  153.0059 H   0  0  0  0  0  0  0  0  0  0  0  0
  149.8672  142.0391  154.2896 H   0  0  0  0  0  0  0  0  0  0  0  0
  148.2245  141.6534  153.8724 H   0  0  0  0  0  0  0  0  0  0  0  0
  148.4047  142.3700  156.2519 H   0  0  0  0  0  0  0  0  0  0  0  0
  147.8262  140.7253  156.1446 H   0  0  0  0  0  0  0  0  0  0  0  0
  150.6906  141.5966  156.7644 H   0  0  0  0  0  0  0  0  0  0  0  0
  149.5664  140.8753  157.8906 H   0  0  0  0  0  0  0  0  0  0  0  0
  151.2121  139.2057  157.0271 H   0  0  0  0  0  0  0  0  0  0  0  0
  149.5729  138.7551  156.6320 H   0  0  0  0  0  0  0  0  0  0  0  0
  151.5424  140.1483  154.7711 H   0  0  0  0  0  0  0  0  0  0  0  0
  150.4823  137.2892  154.6524 H   0  0  0  0  0  0  0  0  0  0  0  0
  152.1158  137.7767  155.0892 H   0  0  0  0  0  0  0  0  0  0  0  0
  151.5257  138.0493  153.4542 H   0  0  0  0  0  0  0  0  0  0  0  0
  1  2  1  0  0  0  0
  1 20  1  0  0  0  0
  1 21  1  0  0  0  0
  1 22  1  0  0  0  0
  2  3  1  0  0  0  0
  2  9  1  0  0  0  0
  2 23  1  0  0  0  0
  3  4  1  0  0  0  0
  3 24  1  0  0  0  0
  3 25  1  0  0  0  0
  4  8  1  0  0  0  0
  4  5  1  0  0  0  0
  5  6  2  0  0  0  0
  5 26  1  0  0  0  0
  6  7  1  0  0  0  0
  6 27  1  0  0  0  0
  7  8  2  0  0  0  0
  7 28  1  0  0  0  0
  9 10  1  0  0  0  0
  9 29  1  0  0  0  0
 10 11  1  0  0  0  0
 10 30  1  0  0  0  0
 10 31  1  0  0  0  0
 11 12  1  0  0  0  0
 11 32  1  0  0  0  0
 11 33  1  0  0  0  0
 12 13  1  0  0  0  0
 13 18  1  0  0  0  0
 13 14  1  0  0  0  0
 13 34  1  0  0  0  0
 14 15  1  0  0  0  0
 14 35  1  0  0  0  0
 14 36  1  0  0  0  0
 15 16  1  0  0  0  0
 15 37  1  0  0  0  0
 15 38  1  0  0  0  0
 16 17  1  0  0  0  0
 16 39  1  0  0  0  0
 16 40  1  0  0  0  0
 17 18  1  0  0  0  0
 17 41  1  0  0  0  0
 17 42  1  0  0  0  0
 18 19  1  0  0  0  0
 18 43  1  0  0  0  0
 19 44  1  0  0  0  0
 19 45  1  0  0  0  0
 19 46  1  0  0  0  0
M  END
> <s_m_source_file>
AV-unprocessed.smi

> <i_m_source_file_index>
3348

> <i_lp_mmshare_version>
43012

> <i_f3d_flags>
0

> <s_epik_input>
bjFbY0hdW2NIXVtjSF1uMVtDSDJdW0NAQEhdKFtDSDNdKVtOSF1bQ0gyXVtDSDJdT1tDQEBIXTJbQ0gyXVtDSDJdW0NIMl1bQ0gyXVtDQEhdMltDSDNd

> <s_epik_cmdline>
J2VwaWtfcHl0aG9uJywgJy1waCcsICc3LjAnLCAnLXRuJywgJzgnLCAnLW1hJywgJzIwMCcsICctbWV0YWxfYmluZGluZycsICctaW1hZScsICc8aW5maWxlLm1hZT4nLCAnLW9tYWUnLCAnPG91dGZpbGUubWFlPic=

> <r_lp_tautomer_probability>
1

> <r_epik_Ionization_Penalty>
2.46945

> <r_epik_Ionization_Penalty_Charging>
0

> <r_epik_Ionization_Penalty_Neutral>
2.46945

> <r_epik_State_Penalty>
2.6322

> <r_epik_Charging_Adjusted_Penalty>
2.6322

> <i_epik_Tot_Q>
0

> <i_epik_Tot_abs_Q>
0

> <r_epik_Metal_State_Penalty>
2.63217

> <b_epik_Metal_Only>
0

> <s_lp_Force_Field>
OPLS_2005

> <r_lp_Energy>
18.1509

> <b_lp_Chiralities_Consistent>
1

> <s_lp_Variant>
AV-unprocessed.smi:3348-11

> <Gold.Version>
5.8.1

> <Gold.Id.Protein>
6NUR|6NUR_protein|mol2

> <Gold.PLP.Fitness>
41.8642

> <Gold.PLP.PLP>
-34.4363

> <Gold.PLP.part.hbond>
-1.0000

> <Gold.PLP.part.metal>
0.0000

> <Gold.PLP.part.buried>
-2.1785

> <Gold.PLP.part.nonpolar>
-31.8143

> <Gold.PLP.part.repulsive>
0.3724

> <Gold.PLP.ligand.clash>
0.0000

> <Gold.PLP.ligand.torsion>
1.0733

> <Gold.PLP.Chemscore.Hbond>
1.0000

> <Gold.PLP.Chemscore.CHOScore>
2.0000

> <Gold.PLP.Chemscore.Metal>
0.0000

> <Gold.Chemscore.Hbonds>
donor molecule, donor type, donor heavy atom, donor atom, acceptor molecule, acceptor atom, score
      L1  H     9    29       P1  7948  1.00
      L1  C     5    26       P1 10186  1.00
      L1  C     7    28       P1 10747  1.00

> <Gold.PLP.Chemscore.Internal.Correction>
0.5746

> <Gold.Rescore>
     Score         DG    S(hbond)    S(metal)    S(lipo)     H(rot)  DE(clash)    DE(int)     intcor
     13.02     -15.89       1.00        0.00      98.15       1.72       0.55       2.32       ----

> <Gold.Chemscore.Fitness>
13.0213

> <Gold.Chemscore.DG>
-15.8898

> <Gold.Chemscore.ZeroCoef>
-5.4800

> <Gold.Chemscore.Hbond>
0.9997

> <Gold.Chemscore.Metal>
0.0000

> <Gold.Chemscore.Lipo>
98.1486

> <Gold.Chemscore.Internal_Hbond>
0.0000

> <Gold.Chemscore.DEClash>
0.5501

> <Gold.Chemscore.DEInternal>
2.3183

> <Gold.Chemscore.Rot>
1.7237

> <Gold.Chemscore.Internal.Correction>
   9.000000E+99

> <Gold.Chemscore.Hbonds>
donor molecule, donor type, donor heavy atom, donor atom, acceptor molecule, acceptor atom, score
      L1  H     9    29       P1  7948  1.00

> <Gold.Chemscore.Hbond.Weighted>
-3.3390

> <Gold.Chemscore.Metal.Weighted>
-0.0000

> <Gold.Chemscore.Lipo.Weighted>
-11.4834

> <Gold.Chemscore.Internal_Hbond.Weighted>
0.0000

> <Gold.Chemscore.DEClash.Weighted>
0.5501

> <Gold.Chemscore.DEInternal.Weighted>
2.3183

> <Gold.Chemscore.Rot.Weighted>
4.4126

> <Gold.Chemscore.Internal.Correction.Weighted>
   9.000000E+99

> <Gold.Protein.RotatedTorsions>
[ 6907 6896 6895 6894 ] final  -24.61 input  -60.11 | X-H torsion
[ 7974 7965 7964 7962 ] final   53.13 input  175.53 | X-H torsion
[ 8008 7997 7996 7995 ] final   45.64 input   59.86 | X-H torsion
[ 10167 10162 10161 10158 ] final  149.07 input  -65.29 | X-H torsion
[ 10718 10713 10712 10709 ] final   56.73 input   66.30 | X-H torsion
[ 10763 10752 10751 10750 ] final   93.10 input  -60.55 | X-H torsion
[ 11005 11000 10999 10996 ] final   64.76 input  -57.11 | X-H torsion

> <Gold.Protein.ActiveResidues>
 VAL166  LYS551  ARG553  GLY616  TRP617  ASP618  TYR619  PRO620  LYS621  CYS622 
 ASP623  PHE694  ASN695  SER759  ASP760  ASP761  ALA762  ILE779  LEU786  VAL792 
 PHE793  MET794  SER795  GLU796  ALA797  LYS798  CYS799  TRP800  GLU811  SER814 

> <Gold.Protein.RotatedAtoms>
  151.1870  135.0386  159.8816 H   0  0  0  0  0  0  0  0  0  0  0  0  # atno 6907 bound_to 6896
  152.5441  134.0999  159.8323 H   0  0  0  0  0  0  0  0  0  0  0  0  # atno 6908 bound_to 6896
  151.1123  133.5117  159.2637 H   0  0  0  0  0  0  0  0  0  0  0  0  # atno 6909 bound_to 6896
  145.9743  139.4179  143.0171 H   0  0  0  0  0  0  0  0  0  0  0  0  # atno 7974 bound_to 7965
  155.3393  140.3407  155.4239 H   0  0  0  0  0  0  0  0  0  0  0  0  # atno 8008 bound_to 7997
  156.1822  140.1668  156.8289 H   0  0  0  0  0  0  0  0  0  0  0  0  # atno 8009 bound_to 7997
  154.5346  140.0738  156.8387 H   0  0  0  0  0  0  0  0  0  0  0  0  # atno 8010 bound_to 7997
  139.4866  144.5630  151.7196 H   0  0  0  0  0  0  0  0  0  0  0  0  # atno 10167 bound_to 10162
  157.5455  130.8728  149.8885 H   0  0  0  0  0  0  0  0  0  0  0  0  # atno 10718 bound_to 10713
  153.2265  135.4338  155.0547 H   0  0  0  0  0  0  0  0  0  0  0  0  # atno 10763 bound_to 10752
  154.8276  135.3369  154.6851 H   0  0  0  0  0  0  0  0  0  0  0  0  # atno 10764 bound_to 10752
  153.7280  135.7013  153.5052 H   0  0  0  0  0  0  0  0  0  0  0  0  # atno 10765 bound_to 10752
  139.9938  134.6550  156.0045 H   0  0  0  0  0  0  0  0  0  0  0  0  # atno 11005 bound_to 11000
  145.7861  140.9835  143.1073 LP  0  0  0  0  0  0  0  0  0  0  0  0  # atno 17320 bound_to 7965
  144.6844  139.9625  143.7480 LP  0  0  0  0  0  0  0  0  0  0  0  0  # atno 17321 bound_to 7965
  140.5203  144.0889  150.6020 LP  0  0  0  0  0  0  0  0  0  0  0  0  # atno 17342 bound_to 10162
  140.3845  143.2785  152.0132 LP  0  0  0  0  0  0  0  0  0  0  0  0  # atno 17343 bound_to 10162
  156.0532  130.3713  150.1152 LP  0  0  0  0  0  0  0  0  0  0  0  0  # atno 17370 bound_to 10713
  156.9329  130.9719  151.3530 LP  0  0  0  0  0  0  0  0  0  0  0  0  # atno 17371 bound_to 10713
  141.1587  133.6540  156.4248 LP  0  0  0  0  0  0  0  0  0  0  0  0  # atno 17394 bound_to 11000
  140.4857  134.6622  157.5190 LP  0  0  0  0  0  0  0  0  0  0  0  0  # atno 17395 bound_to 11000

$$$$
