AV-unprocessed.smi:2570|AV-procd|sdf|10106|dock3
  -GOLD-   2272014123D 1   1.00000     0.00000
 Structure written by MMmdl.
 32 33  0  0  0  0  0  0  0  0  1 V2000
  145.9789  143.1059  154.5679 C   0  0  0  0  0  0  0  0  0  0  0  0
  146.5099  142.3645  155.6647 O   0  0  0  0  0  0  0  0  0  0  0  0
  147.6937  141.6822  155.4428 C   0  0  0  0  0  0  0  0  0  0  0  0
  147.7253  140.6778  154.4005 C   0  0  0  0  0  0  0  0  0  0  0  0
  148.8747  140.0063  154.1725 C   0  0  0  0  0  0  0  0  0  0  0  0
  150.0859  140.2666  154.9500 C   0  0  0  0  0  0  0  0  0  0  0  0
  151.1471  139.6708  154.7653 O   0  0  0  0  0  0  0  0  0  0  0  0
  149.9313  141.2318  155.9048 N   0  0  0  0  0  0  0  0  0  0  0  0
  151.0412  141.6233  156.7823 C   0  0  0  0  0  0  0  0  0  0  0  0
  150.7269  142.8978  157.5971 C   0  0  2  0  0  0  0  0  0  0  0  0
  151.1574  144.0309  156.8682 O   0  0  0  0  0  0  0  0  0  0  0  0
  151.3676  142.8426  158.9783 C   0  0  0  0  0  0  0  0  0  0  0  0
  152.0093  141.6566  159.3972 C   0  0  0  0  0  0  0  0  0  0  0  0
  152.6143  141.5830  160.6666 C   0  0  0  0  0  0  0  0  0  0  0  0
  152.5836  142.6961  161.5274 C   0  0  0  0  0  0  0  0  0  0  0  0
  153.1639  142.6250  162.7486 F   0  0  0  0  0  0  0  0  0  0  0  0
  151.9505  143.8840  161.1157 C   0  0  0  0  0  0  0  0  0  0  0  0
  151.3459  143.9611  159.8457 C   0  0  0  0  0  0  0  0  0  0  0  0
  150.7500  145.1174  159.4668 F   0  0  0  0  0  0  0  0  0  0  0  0
  148.7573  141.9255  156.1415 N   0  0  0  0  0  0  0  0  0  0  0  0
  145.0512  143.5864  154.8783 H   0  0  0  0  0  0  0  0  0  0  0  0
  145.7431  142.4624  153.7184 H   0  0  0  0  0  0  0  0  0  0  0  0
  146.6604  143.8935  154.2418 H   0  0  0  0  0  0  0  0  0  0  0  0
  146.8373  140.4774  153.8194 H   0  0  0  0  0  0  0  0  0  0  0  0
  148.9025  139.2564  153.3956 H   0  0  0  0  0  0  0  0  0  0  0  0
  151.2408  140.7960  157.4660 H   0  0  0  0  0  0  0  0  0  0  0  0
  151.9648  141.7482  156.2136 H   0  0  0  0  0  0  0  0  0  0  0  0
  149.6491  142.9957  157.7307 H   0  0  0  0  0  0  0  0  0  0  0  0
  150.4739  144.2757  156.2633 H   0  0  0  0  0  0  0  0  0  0  0  0
  152.0422  140.7962  158.7449 H   0  0  0  0  0  0  0  0  0  0  0  0
  153.1029  140.6718  160.9794 H   0  0  0  0  0  0  0  0  0  0  0  0
  151.9300  144.7395  161.7747 H   0  0  0  0  0  0  0  0  0  0  0  0
  1  2  1  0  0  0  0
  1 21  1  0  0  0  0
  1 22  1  0  0  0  0
  1 23  1  0  0  0  0
  2  3  1  0  0  0  0
  3 20  2  0  0  0  0
  3  4  1  0  0  0  0
  4  5  2  0  0  0  0
  4 24  1  0  0  0  0
  5  6  1  0  0  0  0
  5 25  1  0  0  0  0
  6  7  2  0  0  0  0
  6  8  1  0  0  0  0
  8  9  1  0  0  0  0
  8 20  1  0  0  0  0
  9 10  1  0  0  0  0
  9 26  1  0  0  0  0
  9 27  1  0  0  0  0
 10 11  1  0  0  0  0
 10 12  1  0  0  0  0
 10 28  1  0  0  0  0
 11 29  1  0  0  0  0
 12 18  1  0  0  0  0
 12 13  2  0  0  0  0
 13 14  1  0  0  0  0
 13 30  1  0  0  0  0
 14 15  2  0  0  0  0
 14 31  1  0  0  0  0
 15 16  1  0  0  0  0
 15 17  1  0  0  0  0
 17 18  2  0  0  0  0
 17 32  1  0  0  0  0
 18 19  1  0  0  0  0
M  END
> <s_m_source_file>
AV-unprocessed.smi

> <i_m_source_file_index>
2570

> <i_lp_mmshare_version>
43012

> <i_f3d_flags>
0

> <s_epik_input>
W0NIM11PYzFbY0hdW2NIXWMoPU8pbihuMSlbQ0gyXVtDQEhdKFtPSF0pYzJbY0hdW2NIXWMoRilbY0hdYzJG

> <s_epik_cmdline>
J2VwaWtfcHl0aG9uJywgJy1waCcsICc3LjAnLCAnLXRuJywgJzgnLCAnLW1hJywgJzIwMCcsICctbWV0YWxfYmluZGluZycsICctaW1hZScsICc8aW5maWxlLm1hZT4nLCAnLW9tYWUnLCAnPG91dGZpbGUubWFlPic=

> <r_lp_tautomer_probability>
1

> <r_epik_Ionization_Penalty>
6.40224e-06

> <r_epik_Ionization_Penalty_Charging>
4.38647e-06

> <r_epik_Ionization_Penalty_Neutral>
2.01577e-06

> <r_epik_State_Penalty>
-0

> <r_epik_Charging_Adjusted_Penalty>
4.38647e-06

> <i_epik_Tot_Q>
0

> <i_epik_Tot_abs_Q>
0

> <r_epik_Metal_State_Penalty>
-0

> <b_epik_Metal_Only>
0

> <s_lp_Force_Field>
OPLS_2005

> <r_lp_Energy>
30.8929

> <b_lp_Chiralities_Consistent>
1

> <s_lp_Variant>
AV-unprocessed.smi:2570-1

> <Gold.Version>
5.8.1

> <Gold.Id.Protein>
6NUR|6NUR_protein|mol2

> <Gold.PLP.Fitness>
49.5221

> <Gold.PLP.PLP>
-45.8568

> <Gold.PLP.part.hbond>
-2.0000

> <Gold.PLP.part.metal>
0.0000

> <Gold.PLP.part.buried>
-5.4668

> <Gold.PLP.part.nonpolar>
-40.7655

> <Gold.PLP.part.repulsive>
2.2395

> <Gold.PLP.ligand.clash>
0.0000

> <Gold.PLP.ligand.torsion>
0.6557

> <Gold.PLP.Chemscore.Hbond>
1.6500

> <Gold.PLP.Chemscore.CHOScore>
0.0000

> <Gold.PLP.Chemscore.Metal>
0.0000

> <Gold.Chemscore.Hbonds>
donor molecule, donor type, donor heavy atom, donor atom, acceptor molecule, acceptor atom, score
      L1  H    11    29       P1  8028  1.00
      P1  H  7989  7998       L1     7  0.55

> <Gold.PLP.Chemscore.Internal.Correction>
0.0266

> <Gold.Rescore>
     Score         DG    S(hbond)    S(metal)    S(lipo)     H(rot)  DE(clash)    DE(int)     intcor
     12.56     -15.38       1.72        0.00      89.23       2.45       0.16       2.66       ----

> <Gold.Chemscore.Fitness>
12.5580

> <Gold.Chemscore.DG>
-15.3823

> <Gold.Chemscore.ZeroCoef>
-5.4800

> <Gold.Chemscore.Hbond>
1.7193

> <Gold.Chemscore.Metal>
0.0000

> <Gold.Chemscore.Lipo>
89.2321

> <Gold.Chemscore.Internal_Hbond>
0.0000

> <Gold.Chemscore.DEClash>
0.1596

> <Gold.Chemscore.DEInternal>
2.6647

> <Gold.Chemscore.Rot>
2.4533

> <Gold.Chemscore.Internal.Correction>
   9.000000E+99

> <Gold.Chemscore.Hbonds>
donor molecule, donor type, donor heavy atom, donor atom, acceptor molecule, acceptor atom, score
      L1  H    11    29       P1  8028  1.00
      P1  H  7989  7998       L1     7  0.03

> <Gold.Chemscore.Hbond.Weighted>
-5.7425

> <Gold.Chemscore.Metal.Weighted>
-0.0000

> <Gold.Chemscore.Lipo.Weighted>
-10.4402

> <Gold.Chemscore.Internal_Hbond.Weighted>
0.0000

> <Gold.Chemscore.DEClash.Weighted>
0.1596

> <Gold.Chemscore.DEInternal.Weighted>
2.6647

> <Gold.Chemscore.Rot.Weighted>
6.2804

> <Gold.Chemscore.Internal.Correction.Weighted>
   9.000000E+99

> <Gold.Protein.RotatedTorsions>
[ 6907 6896 6895 6894 ] final -151.79 input  -60.11 | X-H torsion
[ 7974 7965 7964 7962 ] final -142.16 input  175.53 | X-H torsion
[ 8008 7997 7996 7995 ] final   37.94 input   59.86 | X-H torsion
[ 10167 10162 10161 10158 ] final  -65.04 input  -65.29 | X-H torsion
[ 10718 10713 10712 10709 ] final  152.91 input   66.30 | X-H torsion
[ 10763 10752 10751 10750 ] final   42.92 input  -60.55 | X-H torsion
[ 11005 11000 10999 10996 ] final  -38.34 input  -57.11 | X-H torsion

> <Gold.Protein.ActiveResidues>
 VAL166  LYS551  ARG553  GLY616  TRP617  ASP618  TYR619  PRO620  LYS621  CYS622 
 ASP623  PHE694  ASN695  SER759  ASP760  ASP761  ALA762  ILE779  LEU786  VAL792 
 PHE793  MET794  SER795  GLU796  ALA797  LYS798  CYS799  TRP800  GLU811  SER814 

> <Gold.Protein.RotatedAtoms>
  151.2183  133.4517  159.2599 H   0  0  0  0  0  0  0  0  0  0  0  0  # atno 6907 bound_to 6896
  151.0910  134.9916  159.8412 H   0  0  0  0  0  0  0  0  0  0  0  0  # atno 6908 bound_to 6896
  152.5434  134.2116  159.8805 H   0  0  0  0  0  0  0  0  0  0  0  0  # atno 6909 bound_to 6896
  144.8464  140.5992  143.5418 H   0  0  0  0  0  0  0  0  0  0  0  0  # atno 7974 bound_to 7965
  155.2119  140.3324  155.4327 H   0  0  0  0  0  0  0  0  0  0  0  0  # atno 8008 bound_to 7997
  156.2367  140.1875  156.7149 H   0  0  0  0  0  0  0  0  0  0  0  0  # atno 8009 bound_to 7997
  154.6072  140.0614  156.9432 H   0  0  0  0  0  0  0  0  0  0  0  0  # atno 8010 bound_to 7997
  140.5758  143.2322  151.6445 H   0  0  0  0  0  0  0  0  0  0  0  0  # atno 10167 bound_to 10162
  157.2516  131.0780  151.1726 H   0  0  0  0  0  0  0  0  0  0  0  0  # atno 10718 bound_to 10713
  152.9872  135.6117  154.3027 H   0  0  0  0  0  0  0  0  0  0  0  0  # atno 10763 bound_to 10752
  154.2747  135.2778  155.2725 H   0  0  0  0  0  0  0  0  0  0  0  0  # atno 10764 bound_to 10752
  154.5091  135.5846  153.6647 H   0  0  0  0  0  0  0  0  0  0  0  0  # atno 10765 bound_to 10752
  141.0020  133.6950  156.2041 H   0  0  0  0  0  0  0  0  0  0  0  0  # atno 11005 bound_to 11000
  145.4588  139.1515  143.3878 LP  0  0  0  0  0  0  0  0  0  0  0  0  # atno 17320 bound_to 7965
  146.2748  140.4717  142.8800 LP  0  0  0  0  0  0  0  0  0  0  0  0  # atno 17321 bound_to 7965
  139.5142  144.3418  152.0733 LP  0  0  0  0  0  0  0  0  0  0  0  0  # atno 17342 bound_to 10162
  140.2562  144.4116  150.6203 LP  0  0  0  0  0  0  0  0  0  0  0  0  # atno 17343 bound_to 10162
  157.3272  130.6966  149.6303 LP  0  0  0  0  0  0  0  0  0  0  0  0  # atno 17370 bound_to 10713
  155.9666  130.4318  150.4936 LP  0  0  0  0  0  0  0  0  0  0  0  0  # atno 17371 bound_to 10713
  140.6873  134.4703  157.5589 LP  0  0  0  0  0  0  0  0  0  0  0  0  # atno 17394 bound_to 11000
  139.9044  134.8483  156.1765 LP  0  0  0  0  0  0  0  0  0  0  0  0  # atno 17395 bound_to 11000

$$$$
