AV-unprocessed.smi:148|AV-procd|sdf|1204|dock7
  -GOLD-   2262018373D 1   1.00000     0.00000
 Structure written by MMmdl.
 63 67  0  0  0  0  0  0  0  0  1 V2000
  145.4690  141.7013  154.4739 O   0  0  0  0  0  0  0  0  0  0  0  0
  144.6748  142.8199  154.8111 C   0  0  0  0  0  0  0  0  0  0  0  0
  145.1810  143.5054  156.1043 C   0  0  2  0  0  0  0  0  0  0  0  0
  145.3930  142.5043  157.2676 C   0  0  0  0  0  0  0  0  0  0  0  0
  146.7460  142.5252  157.7947 N   0  0  0  0  0  0  0  0  0  0  0  0
  147.1358  142.9823  159.0335 C   0  0  0  0  0  0  0  0  0  0  0  0
  148.4170  142.9172  159.2737 N   0  0  0  0  0  0  0  0  0  0  0  0
  148.9474  142.3692  158.1131 C   0  0  0  0  0  0  0  0  0  0  0  0
  150.2631  142.0552  157.6826 C   0  0  0  0  0  0  0  0  0  0  0  0
  151.3462  142.2936  158.4562 N   0  0  0  0  0  0  0  0  0  0  0  0
  151.3031  143.6450  159.0199 C   0  0  0  0  0  0  0  0  0  0  0  0
  152.6608  144.0474  159.6040 C   0  0  0  0  0  0  0  0  0  0  0  0
  153.1052  143.0162  160.6426 C   0  0  0  0  0  0  0  0  0  0  0  0
  153.1276  141.6170  160.0135 C   0  0  0  0  0  0  0  0  0  0  0  0
  151.7653  141.2198  159.3836 C   0  0  2  0  0  0  0  0  0  0  0  0
  151.8217  139.7964  158.7228 C   0  0  2  0  0  0  0  0  0  0  0  0
  150.4842  139.0138  158.7889 C   0  0  0  0  0  0  0  0  0  0  0  0
  150.8006  137.5498  159.1167 C   0  0  0  0  0  0  0  0  0  0  0  0
  152.3078  137.4190  158.9540 C   0  0  0  0  0  0  0  0  0  0  0  0
  152.8311  138.8005  159.3374 C   0  0  1  0  0  0  0  0  0  0  0  0
  154.1423  138.9627  158.8337 O   0  0  0  0  0  0  0  0  0  0  0  0
  150.4175  141.5129  156.4456 N   0  0  0  0  0  0  0  0  0  0  0  0
  149.3478  141.3043  155.6719 C   0  0  0  0  0  0  0  0  0  0  0  0
  148.0647  141.5643  155.9332 N   0  0  0  0  0  0  0  0  0  0  0  0
  147.9100  142.1026  157.1772 C   0  0  0  0  0  0  0  0  0  0  0  0
  144.2855  144.6953  156.5335 C   0  0  2  0  0  0  0  0  0  0  0  0
  144.6292  145.3026  157.8823 C   0  0  0  0  0  0  0  0  0  0  0  0
  143.3567  146.0698  158.2196 C   0  0  0  0  0  0  0  0  0  0  0  0
  142.2941  145.2963  157.6755 O   0  0  0  0  0  0  0  0  0  0  0  0
  142.8106  144.3390  156.7552 C   0  0  0  0  0  0  0  0  0  0  0  0
  145.0237  141.2069  153.8027 H   0  0  0  0  0  0  0  0  0  0  0  0
  144.6758  143.5148  153.9713 H   0  0  0  0  0  0  0  0  0  0  0  0
  143.6417  142.4925  154.9239 H   0  0  0  0  0  0  0  0  0  0  0  0
  146.1621  143.9171  155.8632 H   0  0  0  0  0  0  0  0  0  0  0  0
  144.7160  142.7251  158.0930 H   0  0  0  0  0  0  0  0  0  0  0  0
  145.1593  141.4901  156.9417 H   0  0  0  0  0  0  0  0  0  0  0  0
  146.4346  143.3786  159.7537 H   0  0  0  0  0  0  0  0  0  0  0  0
  151.0136  144.3622  158.2498 H   0  0  0  0  0  0  0  0  0  0  0  0
  150.5422  143.6908  159.8006 H   0  0  0  0  0  0  0  0  0  0  0  0
  153.4012  144.1134  158.8057 H   0  0  0  0  0  0  0  0  0  0  0  0
  152.5980  145.0371  160.0568 H   0  0  0  0  0  0  0  0  0  0  0  0
  154.0924  143.2716  161.0287 H   0  0  0  0  0  0  0  0  0  0  0  0
  152.4225  143.0277  161.4935 H   0  0  0  0  0  0  0  0  0  0  0  0
  153.9069  141.5815  159.2510 H   0  0  0  0  0  0  0  0  0  0  0  0
  153.4168  140.9112  160.7910 H   0  0  0  0  0  0  0  0  0  0  0  0
  151.0367  141.1877  160.1950 H   0  0  0  0  0  0  0  0  0  0  0  0
  152.0915  139.9099  157.6712 H   0  0  0  0  0  0  0  0  0  0  0  0
  149.8162  139.4164  159.5506 H   0  0  0  0  0  0  0  0  0  0  0  0
  149.9586  139.0731  157.8363 H   0  0  0  0  0  0  0  0  0  0  0  0
  150.5251  137.3385  160.1508 H   0  0  0  0  0  0  0  0  0  0  0  0
  150.2541  136.8523  158.4812 H   0  0  0  0  0  0  0  0  0  0  0  0
  152.7301  136.6212  159.5659 H   0  0  0  0  0  0  0  0  0  0  0  0
  152.5420  137.2012  157.9105 H   0  0  0  0  0  0  0  0  0  0  0  0
  152.8382  138.8892  160.4246 H   0  0  0  0  0  0  0  0  0  0  0  0
  154.5187  138.1068  158.6961 H   0  0  0  0  0  0  0  0  0  0  0  0
  149.5493  140.8728  154.7026 H   0  0  0  0  0  0  0  0  0  0  0  0
  144.3380  145.4827  155.7797 H   0  0  0  0  0  0  0  0  0  0  0  0
  144.8020  144.5196  158.6220 H   0  0  0  0  0  0  0  0  0  0  0  0
  145.5076  145.9476  157.8537 H   0  0  0  0  0  0  0  0  0  0  0  0
  143.2323  146.2253  159.2914 H   0  0  0  0  0  0  0  0  0  0  0  0
  143.3615  147.0458  157.7327 H   0  0  0  0  0  0  0  0  0  0  0  0
  142.2386  144.3439  155.8271 H   0  0  0  0  0  0  0  0  0  0  0  0
  142.7123  143.3501  157.2053 H   0  0  0  0  0  0  0  0  0  0  0  0
  1  2  1  0  0  0  0
  1 31  1  0  0  0  0
  2  3  1  0  0  0  0
  2 32  1  0  0  0  0
  2 33  1  0  0  0  0
  3  4  1  0  0  0  0
  3 26  1  0  0  0  0
  3 34  1  0  0  0  0
  4  5  1  0  0  0  0
  4 35  1  0  0  0  0
  4 36  1  0  0  0  0
  5 25  1  0  0  0  0
  5  6  1  0  0  0  0
  6  7  2  0  0  0  0
  6 37  1  0  0  0  0
  7  8  1  0  0  0  0
  8 25  2  0  0  0  0
  8  9  1  0  0  0  0
  9 10  1  0  0  0  0
  9 22  2  0  0  0  0
 10 15  1  0  0  0  0
 10 11  1  0  0  0  0
 11 12  1  0  0  0  0
 11 38  1  0  0  0  0
 11 39  1  0  0  0  0
 12 13  1  0  0  0  0
 12 40  1  0  0  0  0
 12 41  1  0  0  0  0
 13 14  1  0  0  0  0
 13 42  1  0  0  0  0
 13 43  1  0  0  0  0
 14 15  1  0  0  0  0
 14 44  1  0  0  0  0
 14 45  1  0  0  0  0
 15 16  1  0  0  0  0
 15 46  1  0  0  0  0
 16 20  1  0  0  0  0
 16 17  1  0  0  0  0
 16 47  1  0  0  0  0
 17 18  1  0  0  0  0
 17 48  1  0  0  0  0
 17 49  1  0  0  0  0
 18 19  1  0  0  0  0
 18 50  1  0  0  0  0
 18 51  1  0  0  0  0
 19 20  1  0  0  0  0
 19 52  1  0  0  0  0
 19 53  1  0  0  0  0
 20 21  1  0  0  0  0
 20 54  1  0  0  0  0
 21 55  1  0  0  0  0
 22 23  1  0  0  0  0
 23 24  2  0  0  0  0
 23 56  1  0  0  0  0
 24 25  1  0  0  0  0
 26 30  1  0  0  0  0
 26 27  1  0  0  0  0
 26 57  1  0  0  0  0
 27 28  1  0  0  0  0
 27 58  1  0  0  0  0
 27 59  1  0  0  0  0
 28 29  1  0  0  0  0
 28 60  1  0  0  0  0
 28 61  1  0  0  0  0
 29 30  1  0  0  0  0
 30 62  1  0  0  0  0
 30 63  1  0  0  0  0
M  END
> <s_m_source_file>
AV-unprocessed.smi

> <i_m_source_file_index>
148

> <i_lp_mmshare_version>
43012

> <i_f3d_flags>
0

> <s_epik_input>
W0NIMl0xT1tDSDJdW0NIMl1bQ0BIXTFbQ0BIXShbQ0gyXVtPSF0pW0NIMl1uKFtjSF1uMiljKGMyMyluW2NIXW5jM040W0NIMl1bQ0gyXVtDSDJdW0NIMl1bQ0BIXTRbQ0BASF01W0NIMl1bQ0gyXVtDSDJdW0NASF01W09IXQ==

> <s_epik_cmdline>
J2VwaWtfcHl0aG9uJywgJy1waCcsICc3LjAnLCAnLXRuJywgJzgnLCAnLW1hJywgJzIwMCcsICctbWV0YWxfYmluZGluZycsICctaW1hZScsICc8aW5maWxlLm1hZT4nLCAnLW9tYWUnLCAnPG91dGZpbGUubWFlPic=

> <r_lp_tautomer_probability>
1

> <r_epik_Ionization_Penalty>
0.00556303

> <r_epik_Ionization_Penalty_Charging>
0

> <r_epik_Ionization_Penalty_Neutral>
0.00556303

> <r_epik_State_Penalty>
0.00401767

> <r_epik_Charging_Adjusted_Penalty>
0.00401767

> <i_epik_Tot_Q>
0

> <i_epik_Tot_abs_Q>
0

> <r_epik_Metal_State_Penalty>
-0

> <b_epik_Metal_Only>
0

> <s_lp_Force_Field>
OPLS_2005

> <r_lp_Energy>
68.5956

> <b_lp_Chiralities_Consistent>
1

> <s_lp_Variant>
AV-unprocessed.smi:148-3

> <Gold.Version>
5.8.1

> <Gold.Id.Protein>
6NUR|6NUR_protein|mol2

> <Gold.PLP.Fitness>
45.4653

> <Gold.PLP.PLP>
-42.6784

> <Gold.PLP.part.hbond>
-3.0000

> <Gold.PLP.part.metal>
0.0000

> <Gold.PLP.part.buried>
-7.7371

> <Gold.PLP.part.nonpolar>
-33.6116

> <Gold.PLP.part.repulsive>
0.3483

> <Gold.PLP.ligand.clash>
0.0000

> <Gold.PLP.ligand.torsion>
2.1867

> <Gold.PLP.Chemscore.Hbond>
2.1825

> <Gold.PLP.Chemscore.CHOScore>
0.0000

> <Gold.PLP.Chemscore.Metal>
0.0000

> <Gold.Chemscore.Hbonds>
donor molecule, donor type, donor heavy atom, donor atom, acceptor molecule, acceptor atom, score
      L1  H     1    31       P1 10175  1.00
      P1  H  6933  6944       L1     7  0.24
      P1  H  7997  8010       L1    21  0.99

> <Gold.PLP.Chemscore.Internal.Correction>
0.6127

> <Gold.Rescore>
     Score         DG    S(hbond)    S(metal)    S(lipo)     H(rot)  DE(clash)    DE(int)     intcor
     12.15     -14.69       1.76        0.00     101.17       3.32       0.06       2.48       ----

> <Gold.Chemscore.Fitness>
12.1518

> <Gold.Chemscore.DG>
-14.6894

> <Gold.Chemscore.ZeroCoef>
-5.4800

> <Gold.Chemscore.Hbond>
1.7581

> <Gold.Chemscore.Metal>
0.0000

> <Gold.Chemscore.Lipo>
101.1736

> <Gold.Chemscore.Internal_Hbond>
0.0000

> <Gold.Chemscore.DEClash>
0.0575

> <Gold.Chemscore.DEInternal>
2.4801

> <Gold.Chemscore.Rot>
3.3203

> <Gold.Chemscore.Internal.Correction>
   9.000000E+99

> <Gold.Chemscore.Hbonds>
donor molecule, donor type, donor heavy atom, donor atom, acceptor molecule, acceptor atom, score
      L1  H     1    31       P1 10175  0.53
      P1  H  6933  6944       L1     7  0.11
      P1  H  7997  8010       L1    21  0.32

> <Gold.Chemscore.Hbond.Weighted>
-5.8721

> <Gold.Chemscore.Metal.Weighted>
-0.0000

> <Gold.Chemscore.Lipo.Weighted>
-11.8373

> <Gold.Chemscore.Internal_Hbond.Weighted>
0.0000

> <Gold.Chemscore.DEClash.Weighted>
0.0575

> <Gold.Chemscore.DEInternal.Weighted>
2.4801

> <Gold.Chemscore.Rot.Weighted>
8.5000

> <Gold.Chemscore.Internal.Correction.Weighted>
   9.000000E+99

> <Gold.Protein.RotatedTorsions>
[ 6907 6896 6895 6894 ] final  104.51 input  -60.11 | X-H torsion
[ 7974 7965 7964 7962 ] final -152.13 input  175.53 | X-H torsion
[ 8008 7997 7996 7995 ] final   13.28 input   59.86 | X-H torsion
[ 10167 10162 10161 10158 ] final  -89.71 input  -65.29 | X-H torsion
[ 10718 10713 10712 10709 ] final  157.25 input   66.30 | X-H torsion
[ 10763 10752 10751 10750 ] final   56.65 input  -60.55 | X-H torsion
[ 11005 11000 10999 10996 ] final  120.68 input  -57.11 | X-H torsion

> <Gold.Protein.ActiveResidues>
 VAL166  LYS551  ARG553  GLY616  TRP617  ASP618  TYR619  PRO620  LYS621  CYS622 
 ASP623  PHE694  ASN695  SER759  ASP760  ASP761  ALA762  ILE779  LEU786  VAL792 
 PHE793  MET794  SER795  GLU796  ALA797  LYS798  CYS799  TRP800  GLU811  SER814 

> <Gold.Protein.RotatedAtoms>
  152.5262  133.9666  159.7741 H   0  0  0  0  0  0  0  0  0  0  0  0  # atno 6907 bound_to 6896
  150.9946  133.6108  159.2710 H   0  0  0  0  0  0  0  0  0  0  0  0  # atno 6908 bound_to 6896
  151.3239  135.0831  159.9368 H   0  0  0  0  0  0  0  0  0  0  0  0  # atno 6909 bound_to 6896
  144.7811  140.4704  143.5838 H   0  0  0  0  0  0  0  0  0  0  0  0  # atno 7974 bound_to 7965
  154.8323  140.2901  155.5714 H   0  0  0  0  0  0  0  0  0  0  0  0  # atno 8008 bound_to 7997
  156.3006  140.2529  156.3181 H   0  0  0  0  0  0  0  0  0  0  0  0  # atno 8009 bound_to 7997
  154.9218  140.0385  157.1991 H   0  0  0  0  0  0  0  0  0  0  0  0  # atno 8010 bound_to 7997
  140.3621  143.2836  151.9602 H   0  0  0  0  0  0  0  0  0  0  0  0  # atno 10167 bound_to 10162
  157.1940  131.0661  151.2063 H   0  0  0  0  0  0  0  0  0  0  0  0  # atno 10718 bound_to 10713
  152.9835  135.5669  154.5262 H   0  0  0  0  0  0  0  0  0  0  0  0  # atno 10763 bound_to 10752
  154.4742  135.2786  155.1622 H   0  0  0  0  0  0  0  0  0  0  0  0  # atno 10764 bound_to 10752
  154.3157  135.6279  153.5538 H   0  0  0  0  0  0  0  0  0  0  0  0  # atno 10765 bound_to 10752
  139.9195  134.9636  156.7843 H   0  0  0  0  0  0  0  0  0  0  0  0  # atno 11005 bound_to 11000
  145.6048  139.1507  143.3109 LP  0  0  0  0  0  0  0  0  0  0  0  0  # atno 17320 bound_to 7965
  146.2019  140.6167  142.9098 LP  0  0  0  0  0  0  0  0  0  0  0  0  # atno 17321 bound_to 7965
  139.4813  144.5983  151.7651 LP  0  0  0  0  0  0  0  0  0  0  0  0  # atno 17342 bound_to 10162
  140.5116  144.1016  150.5997 LP  0  0  0  0  0  0  0  0  0  0  0  0  # atno 17343 bound_to 10162
  157.3832  130.7242  149.6645 LP  0  0  0  0  0  0  0  0  0  0  0  0  # atno 17370 bound_to 10713
  155.9708  130.4166  150.4241 LP  0  0  0  0  0  0  0  0  0  0  0  0  # atno 17371 bound_to 10713
  140.6519  133.9724  155.7759 LP  0  0  0  0  0  0  0  0  0  0  0  0  # atno 17394 bound_to 11000
  141.0702  134.0216  157.3536 LP  0  0  0  0  0  0  0  0  0  0  0  0  # atno 17395 bound_to 11000

$$$$
