AV-unprocessed.smi:1805|AV-procd|sdf|7297|dock6
  -GOLD-   22720 8553D 1   1.00000     0.00000
 Structure written by MMmdl.
 29 30  0  0  0  0  0  0  0  0  1 V2000
  149.2617  145.1096  162.3111 O   0  0  0  0  0  0  0  0  0  0  0  0
  148.7361  145.3501  161.2241 C   0  0  0  0  0  0  0  0  0  0  0  0
  149.4107  145.3997  160.0669 N   0  0  0  0  0  0  0  0  0  0  0  0
  150.8476  145.1938  159.9238 C   0  0  0  0  0  0  0  0  0  0  0  0
  151.2424  143.7418  160.2391 C   0  0  2  0  0  0  0  0  0  0  0  0
  152.6366  143.6010  160.8486 C   0  0  0  0  0  0  0  0  0  0  0  0
  153.0612  142.1924  160.4603 C   0  0  0  0  0  0  0  0  0  0  0  0
  152.0430  141.7738  159.3963 C   0  0  0  0  0  0  0  0  0  0  0  0
  151.3560  142.9686  159.0550 O   0  0  0  0  0  0  0  0  0  0  0  0
  147.4288  145.5943  161.0362 N   0  0  0  0  0  0  0  0  0  0  0  0
  146.4070  145.6159  162.0189 C   0  0  0  0  0  0  0  0  0  0  0  0
  146.5527  145.1360  163.3488 C   0  0  0  0  0  0  0  0  0  0  0  0
  145.4333  145.2858  164.0425 N   0  0  0  0  0  0  0  0  0  0  0  0
  144.5745  145.8569  163.1680 N   0  0  0  0  0  0  0  0  0  0  0  0
  145.1236  146.0761  161.9238 C   0  0  0  0  0  0  0  0  0  0  0  0
  143.6275  146.0889  163.4320 H   0  0  0  0  0  0  0  0  0  0  0  0
  148.8948  145.6036  159.2237 H   0  0  0  0  0  0  0  0  0  0  0  0
  151.1866  145.4806  158.9268 H   0  0  0  0  0  0  0  0  0  0  0  0
  151.3457  145.8655  160.6233 H   0  0  0  0  0  0  0  0  0  0  0  0
  150.5042  143.2797  160.8975 H   0  0  0  0  0  0  0  0  0  0  0  0
  153.3202  144.3224  160.3985 H   0  0  0  0  0  0  0  0  0  0  0  0
  152.6404  143.7636  161.9267 H   0  0  0  0  0  0  0  0  0  0  0  0
  154.0773  142.1912  160.0645 H   0  0  0  0  0  0  0  0  0  0  0  0
  153.0318  141.5122  161.3122 H   0  0  0  0  0  0  0  0  0  0  0  0
  152.5113  141.3243  158.5203 H   0  0  0  0  0  0  0  0  0  0  0  0
  151.3310  141.0570  159.8078 H   0  0  0  0  0  0  0  0  0  0  0  0
  147.1321  145.7803  160.0894 H   0  0  0  0  0  0  0  0  0  0  0  0
  147.4156  144.6933  163.8243 H   0  0  0  0  0  0  0  0  0  0  0  0
  144.5650  146.5250  161.1159 H   0  0  0  0  0  0  0  0  0  0  0  0
  1  2  2  0  0  0  0
  2  3  1  0  0  0  0
  2 10  1  0  0  0  0
  3  4  1  0  0  0  0
  3 17  1  0  0  0  0
  4  5  1  0  0  0  0
  4 18  1  0  0  0  0
  4 19  1  0  0  0  0
  5  9  1  0  0  0  0
  5  6  1  0  0  0  0
  5 20  1  0  0  0  0
  6  7  1  0  0  0  0
  6 21  1  0  0  0  0
  6 22  1  0  0  0  0
  7  8  1  0  0  0  0
  7 23  1  0  0  0  0
  7 24  1  0  0  0  0
  8  9  1  0  0  0  0
  8 25  1  0  0  0  0
  8 26  1  0  0  0  0
 10 11  1  0  0  0  0
 10 27  1  0  0  0  0
 11 15  2  0  0  0  0
 11 12  1  0  0  0  0
 12 13  2  0  0  0  0
 12 28  1  0  0  0  0
 13 14  1  0  0  0  0
 14 16  1  0  0  0  0
 14 15  1  0  0  0  0
 15 29  1  0  0  0  0
M  END
> <s_m_source_file>
AV-unprocessed.smi

> <i_m_source_file_index>
1805

> <i_lp_mmshare_version>
43012

> <i_f3d_flags>
0

> <s_epik_input>
W2NIXTFbbkhdbltjSF1jMVtOSF1DKD1PKVtOSF1bQ0gyXVtDQEBIXTJbQ0gyXVtDSDJdW0NIMl1PMg==

> <s_epik_cmdline>
J2VwaWtfcHl0aG9uJywgJy1waCcsICc3LjAnLCAnLXRuJywgJzgnLCAnLW1hJywgJzIwMCcsICctbWV0YWxfYmluZGluZycsICctaW1hZScsICc8aW5maWxlLm1hZT4nLCAnLW9tYWUnLCAnPG91dGZpbGUubWFlPic=

> <r_lp_tautomer_probability>
1

> <r_epik_Ionization_Penalty>
4.81496e-05

> <r_epik_Ionization_Penalty_Charging>
0

> <r_epik_Ionization_Penalty_Neutral>
4.81496e-05

> <r_epik_State_Penalty>
-0

> <r_epik_Charging_Adjusted_Penalty>
0

> <i_epik_Tot_Q>
0

> <i_epik_Tot_abs_Q>
0

> <r_epik_Metal_State_Penalty>
-0

> <b_epik_Metal_Only>
0

> <s_lp_Force_Field>
OPLS_2005

> <r_lp_Energy>
19.369

> <b_lp_Chiralities_Consistent>
1

> <s_lp_Variant>
AV-unprocessed.smi:1805-1

> <Gold.Version>
5.8.1

> <Gold.Id.Protein>
6NUR|6NUR_protein|mol2

> <Gold.PLP.Fitness>
38.5275

> <Gold.PLP.PLP>
-31.4445

> <Gold.PLP.part.hbond>
-4.0000

> <Gold.PLP.part.metal>
0.0000

> <Gold.PLP.part.buried>
-7.7617

> <Gold.PLP.part.nonpolar>
-21.6021

> <Gold.PLP.part.repulsive>
0.9129

> <Gold.PLP.ligand.clash>
0.0000

> <Gold.PLP.ligand.torsion>
0.5181

> <Gold.PLP.Chemscore.Hbond>
2.7040

> <Gold.PLP.Chemscore.CHOScore>
0.0000

> <Gold.PLP.Chemscore.Metal>
0.0000

> <Gold.Chemscore.Hbonds>
donor molecule, donor type, donor heavy atom, donor atom, acceptor molecule, acceptor atom, score
      L1  H     3    17       P1  8029  0.55

> <Gold.PLP.Chemscore.Internal.Correction>
0.0072

> <Gold.Rescore>
     Score         DG    S(hbond)    S(metal)    S(lipo)     H(rot)  DE(clash)    DE(int)     intcor
     17.90     -19.38       2.87        0.00      66.07       1.33       0.05       1.42       ----

> <Gold.Chemscore.Fitness>
17.9020

> <Gold.Chemscore.DG>
-19.3775

> <Gold.Chemscore.ZeroCoef>
-5.4800

> <Gold.Chemscore.Hbond>
2.8663

> <Gold.Chemscore.Metal>
0.0000

> <Gold.Chemscore.Lipo>
66.0706

> <Gold.Chemscore.Internal_Hbond>
0.0000

> <Gold.Chemscore.DEClash>
0.0526

> <Gold.Chemscore.DEInternal>
1.4229

> <Gold.Chemscore.Rot>
1.3306

> <Gold.Chemscore.Internal.Correction>
   9.000000E+99

> <Gold.Chemscore.Hbonds>
donor molecule, donor type, donor heavy atom, donor atom, acceptor molecule, acceptor atom, score
      L1  H     3    17       P1  8029  0.56

> <Gold.Chemscore.Hbond.Weighted>
-9.5735

> <Gold.Chemscore.Metal.Weighted>
-0.0000

> <Gold.Chemscore.Lipo.Weighted>
-7.7303

> <Gold.Chemscore.Internal_Hbond.Weighted>
0.0000

> <Gold.Chemscore.DEClash.Weighted>
0.0526

> <Gold.Chemscore.DEInternal.Weighted>
1.4229

> <Gold.Chemscore.Rot.Weighted>
3.4063

> <Gold.Chemscore.Internal.Correction.Weighted>
   9.000000E+99

> <Gold.Protein.RotatedTorsions>
[ 6907 6896 6895 6894 ] final   -5.57 input  -60.11 | X-H torsion
[ 7974 7965 7964 7962 ] final  166.51 input  175.53 | X-H torsion
[ 8008 7997 7996 7995 ] final  -26.20 input   59.86 | X-H torsion
[ 10167 10162 10161 10158 ] final  -54.72 input  -65.29 | X-H torsion
[ 10718 10713 10712 10709 ] final   31.30 input   66.30 | X-H torsion
[ 10763 10752 10751 10750 ] final  -81.87 input  -60.55 | X-H torsion
[ 11005 11000 10999 10996 ] final -144.96 input  -57.11 | X-H torsion

> <Gold.Protein.ActiveResidues>
 VAL166  LYS551  ARG553  GLY616  TRP617  ASP618  TYR619  PRO620  LYS621  CYS622 
 ASP623  PHE694  ASN695  SER759  ASP760  ASP761  ALA762  ILE779  LEU786  VAL792 
 PHE793  MET794  SER795  GLU796  ALA797  LYS798  CYS799  TRP800  GLU811  SER814 

> <Gold.Protein.RotatedAtoms>
  151.4795  135.1051  159.9773 H   0  0  0  0  0  0  0  0  0  0  0  0  # atno 6907 bound_to 6896
  152.4785  133.8192  159.7055 H   0  0  0  0  0  0  0  0  0  0  0  0  # atno 6908 bound_to 6896
  150.8839  133.7272  159.2950 H   0  0  0  0  0  0  0  0  0  0  0  0  # atno 6909 bound_to 6896
  144.7459  139.8626  143.6382 H   0  0  0  0  0  0  0  0  0  0  0  0  # atno 7974 bound_to 7965
  154.4437  140.1906  156.0739 H   0  0  0  0  0  0  0  0  0  0  0  0  # atno 8008 bound_to 7997
  156.0490  140.3311  155.7303 H   0  0  0  0  0  0  0  0  0  0  0  0  # atno 8009 bound_to 7997
  155.5585  140.0601  157.2825 H   0  0  0  0  0  0  0  0  0  0  0  0  # atno 8010 bound_to 7997
  140.6415  143.2510  151.4976 H   0  0  0  0  0  0  0  0  0  0  0  0  # atno 10167 bound_to 10162
  157.2707  130.7207  149.6503 H   0  0  0  0  0  0  0  0  0  0  0  0  # atno 10718 bound_to 10713
  154.5688  135.5611  153.7075 H   0  0  0  0  0  0  0  0  0  0  0  0  # atno 10763 bound_to 10752
  153.0042  135.6292  154.2143 H   0  0  0  0  0  0  0  0  0  0  0  0  # atno 10764 bound_to 10752
  154.2082  135.2875  155.2947 H   0  0  0  0  0  0  0  0  0  0  0  0  # atno 10765 bound_to 10752
  140.7971  134.2900  157.4992 H   0  0  0  0  0  0  0  0  0  0  0  0  # atno 11005 bound_to 11000
  146.1337  139.4378  143.0152 LP  0  0  0  0  0  0  0  0  0  0  0  0  # atno 17320 bound_to 7965
  145.7124  141.0102  143.1446 LP  0  0  0  0  0  0  0  0  0  0  0  0  # atno 17321 bound_to 7965
  139.5624  144.2124  152.1712 LP  0  0  0  0  0  0  0  0  0  0  0  0  # atno 17342 bound_to 10162
  140.1395  144.5215  150.6752 LP  0  0  0  0  0  0  0  0  0  0  0  0  # atno 17343 bound_to 10162
  155.9663  130.4368  150.5150 LP  0  0  0  0  0  0  0  0  0  0  0  0  # atno 17370 bound_to 10713
  157.3074  131.0657  151.2025 LP  0  0  0  0  0  0  0  0  0  0  0  0  # atno 17371 bound_to 10713
  139.8725  134.9408  156.3779 LP  0  0  0  0  0  0  0  0  0  0  0  0  # atno 17394 bound_to 11000
  140.9332  133.7565  156.0051 LP  0  0  0  0  0  0  0  0  0  0  0  0  # atno 17395 bound_to 11000

$$$$
