AV-unprocessed.smi:1897|AV-procd|sdf|7691|dock6
  -GOLD-   22720 9433D 1   1.00000     0.00000
 Structure written by MMmdl.
 39 41  0  0  0  0  0  0  0  0  2 V2000
  151.8675  130.8361  157.0137 C   0  0  0  0  0  0  0  0  0  0  0  0
  151.1102  132.0297  156.5409 C   0  0  0  0  0  0  0  0  0  0  0  0
  151.1362  133.2030  157.1841 N   0  0  0  0  0  0  0  0  0  0  0  0
  150.3547  134.1628  156.5578 N   0  0  0  0  0  0  0  0  0  0  0  0
  149.7502  133.6837  155.4606 C   0  0  0  0  0  0  0  0  0  0  0  0
  148.8950  134.4434  154.6092 N   0  0  0  0  0  0  0  0  0  0  0  0
  147.7681  134.1128  153.9428 C   0  0  0  0  0  0  0  0  0  0  0  0
  147.3003  132.9777  154.0131 O   0  0  0  0  0  0  0  0  0  0  0  0
  147.1979  135.0872  153.2150 N   0  0  0  0  0  0  0  0  0  0  0  0
  145.9867  134.9528  152.4127 C   0  0  1  0  0  0  0  0  0  0  0  0
  145.5993  136.2418  151.6981 C   0  0  0  0  0  0  0  0  0  0  0  0
  144.6750  135.7313  150.5915 C   0  0  0  0  0  0  0  0  0  0  0  0
  145.2026  134.4037  150.2007 N   0  3  2  0  0  0  0  0  0  0  0  0
  144.1652  133.4174  149.8117 C   0  0  0  0  0  0  0  0  0  0  0  0
  144.8108  132.0785  149.4087 C   0  0  0  0  0  0  0  0  0  0  0  0
  145.8263  131.5589  150.4480 C   0  0  0  0  0  0  0  0  0  0  0  0
  145.9352  132.4798  151.6733 C   0  0  0  0  0  0  0  0  0  0  0  0
  146.1533  133.9522  151.2566 C   0  0  2  0  0  0  0  0  0  0  0  0
  150.1080  132.0038  155.0949 S   0  0  0  0  0  0  0  0  0  0  0  0
  152.8206  131.1390  157.4483 H   0  0  0  0  0  0  0  0  0  0  0  0
  152.0645  130.1591  156.1822 H   0  0  0  0  0  0  0  0  0  0  0  0
  151.2896  130.3038  157.7694 H   0  0  0  0  0  0  0  0  0  0  0  0
  149.1688  135.4101  154.5061 H   0  0  0  0  0  0  0  0  0  0  0  0
  147.6459  135.9929  153.2151 H   0  0  0  0  0  0  0  0  0  0  0  0
  145.1451  134.6556  153.0421 H   0  0  0  0  0  0  0  0  0  0  0  0
  145.1143  136.9644  152.3551 H   0  0  0  0  0  0  0  0  0  0  0  0
  146.4792  136.7167  151.2607 H   0  0  0  0  0  0  0  0  0  0  0  0
  143.6638  135.6275  150.9887 H   0  0  0  0  0  0  0  0  0  0  0  0
  144.6296  136.4091  149.7388 H   0  0  0  0  0  0  0  0  0  0  0  0
  143.4717  133.2654  150.6406 H   0  0  0  0  0  0  0  0  0  0  0  0
  143.5793  133.8144  148.9820 H   0  0  0  0  0  0  0  0  0  0  0  0
  144.0309  131.3337  149.2462 H   0  0  0  0  0  0  0  0  0  0  0  0
  145.3154  132.1972  148.4489 H   0  0  0  0  0  0  0  0  0  0  0  0
  145.5569  130.5510  150.7660 H   0  0  0  0  0  0  0  0  0  0  0  0
  146.8068  131.4742  149.9777 H   0  0  0  0  0  0  0  0  0  0  0  0
  145.0271  132.3902  152.2711 H   0  0  0  0  0  0  0  0  0  0  0  0
  146.7512  132.1459  152.3147 H   0  0  0  0  0  0  0  0  0  0  0  0
  147.1512  134.0565  150.8270 H   0  0  0  0  0  0  0  0  0  0  0  0
  145.7704  134.5529  149.3787 H   0  0  0  0  0  0  0  0  0  0  0  0
  1  2  1  0  0  0  0
  1 20  1  0  0  0  0
  1 21  1  0  0  0  0
  1 22  1  0  0  0  0
  2 19  1  0  0  0  0
  2  3  2  0  0  0  0
  3  4  1  0  0  0  0
  4  5  2  0  0  0  0
  5  6  1  0  0  0  0
  5 19  1  0  0  0  0
  6  7  1  0  0  0  0
  6 23  1  0  0  0  0
  7  8  2  0  0  0  0
  7  9  1  0  0  0  0
  9 10  1  0  0  0  0
  9 24  1  0  0  0  0
 10 18  1  0  0  0  0
 10 11  1  0  0  0  0
 10 25  1  0  0  0  0
 11 12  1  0  0  0  0
 11 26  1  0  0  0  0
 11 27  1  0  0  0  0
 12 13  1  0  0  0  0
 12 28  1  0  0  0  0
 12 29  1  0  0  0  0
 13 18  1  0  0  0  0
 13 14  1  0  0  0  0
 13 39  1  0  0  0  0
 14 15  1  0  0  0  0
 14 30  1  0  0  0  0
 14 31  1  0  0  0  0
 15 16  1  0  0  0  0
 15 32  1  0  0  0  0
 15 33  1  0  0  0  0
 16 17  1  0  0  0  0
 16 34  1  0  0  0  0
 16 35  1  0  0  0  0
 17 18  1  0  0  0  0
 17 36  1  0  0  0  0
 17 37  1  0  0  0  0
 18 38  1  0  0  0  0
M  CHG  1  13   1
M  END
> <s_m_source_file>
AV-unprocessed.smi

> <i_m_source_file_index>
1897

> <i_lp_mmshare_version>
43012

> <i_f3d_flags>
0

> <s_epik_input>
W0NIM11jMW5uYyhzMSlbTkhdQyg9TylbTkhdW0NASF0oW0NIMl1bQ0gyXTIpW0NAQEhdKE4yMylbQ0gyXVtDSDJdW0NIMl1bQ0gyXTM=

> <s_epik_cmdline>
J2VwaWtfcHl0aG9uJywgJy1waCcsICc3LjAnLCAnLXRuJywgJzgnLCAnLW1hJywgJzIwMCcsICctbWV0YWxfYmluZGluZycsICctaW1hZScsICc8aW5maWxlLm1hZT4nLCAnLW9tYWUnLCAnPG91dGZpbGUubWFlPic=

> <r_lp_tautomer_probability>
1

> <r_epik_Ionization_Penalty>
0.00228891

> <r_epik_Ionization_Penalty_Charging>
0.00107044

> <r_epik_Ionization_Penalty_Neutral>
0.00121847

> <r_epik_State_Penalty>
-0

> <r_epik_Charging_Adjusted_Penalty>
0.00107044

> <i_epik_Tot_Q>
1

> <i_epik_Tot_abs_Q>
1

> <r_epik_Metal_State_Penalty>
0.304057

> <b_epik_Metal_Only>
0

> <s_lp_Force_Field>
OPLS_2005

> <r_lp_Energy>
41.04

> <b_lp_Chiralities_Consistent>
1

> <s_lp_Variant>
AV-unprocessed.smi:1897-8

> <Gold.Version>
5.8.1

> <Gold.Id.Protein>
6NUR|6NUR_protein|mol2

> <Gold.PLP.Fitness>
36.1756

> <Gold.PLP.PLP>
-30.3854

> <Gold.PLP.part.hbond>
-3.1028

> <Gold.PLP.part.metal>
0.0000

> <Gold.PLP.part.buried>
-1.8804

> <Gold.PLP.part.nonpolar>
-25.9201

> <Gold.PLP.part.repulsive>
0.1338

> <Gold.PLP.ligand.clash>
0.0000

> <Gold.PLP.ligand.torsion>
0.2889

> <Gold.PLP.Chemscore.Hbond>
2.1200

> <Gold.PLP.Chemscore.CHOScore>
0.0000

> <Gold.PLP.Chemscore.Metal>
0.0000

> <Gold.Chemscore.Hbonds>
donor molecule, donor type, donor heavy atom, donor atom, acceptor molecule, acceptor atom, score
      L1  H     9    24       P1  7948  0.29
      L1  H    13    39       P1  7921  1.00
      P1  H  6896  6907       L1     3  0.83

> <Gold.PLP.Chemscore.Internal.Correction>
0.0080

> <Gold.Rescore>
     Score         DG    S(hbond)    S(metal)    S(lipo)     H(rot)  DE(clash)    DE(int)     intcor
     17.58     -19.59       2.36        0.00      75.23       1.00       0.22       1.79       ----

> <Gold.Chemscore.Fitness>
17.5791

> <Gold.Chemscore.DG>
-19.5931

> <Gold.Chemscore.ZeroCoef>
-5.4800

> <Gold.Chemscore.Hbond>
2.3565

> <Gold.Chemscore.Metal>
0.0000

> <Gold.Chemscore.Lipo>
75.2332

> <Gold.Chemscore.Internal_Hbond>
0.0000

> <Gold.Chemscore.DEClash>
0.2199

> <Gold.Chemscore.DEInternal>
1.7941

> <Gold.Chemscore.Rot>
1.0000

> <Gold.Chemscore.Internal.Correction>
   9.000000E+99

> <Gold.Chemscore.Hbonds>
donor molecule, donor type, donor heavy atom, donor atom, acceptor molecule, acceptor atom, score
      L1  H     9    24       P1  7948  0.28
      L1  H    13    39       P1  7921  0.81
      P1  H  6896  6907       L1     3  0.67

> <Gold.Chemscore.Hbond.Weighted>
-7.8708

> <Gold.Chemscore.Metal.Weighted>
-0.0000

> <Gold.Chemscore.Lipo.Weighted>
-8.8023

> <Gold.Chemscore.Internal_Hbond.Weighted>
0.0000

> <Gold.Chemscore.DEClash.Weighted>
0.2199

> <Gold.Chemscore.DEInternal.Weighted>
1.7941

> <Gold.Chemscore.Rot.Weighted>
2.5600

> <Gold.Chemscore.Internal.Correction.Weighted>
   9.000000E+99

> <Gold.Protein.RotatedTorsions>
[ 6907 6896 6895 6894 ] final -154.35 input  -60.11 | X-H torsion
[ 7974 7965 7964 7962 ] final -177.27 input  175.53 | X-H torsion
[ 8008 7997 7996 7995 ] final   90.74 input   59.86 | X-H torsion
[ 10167 10162 10161 10158 ] final -120.22 input  -65.29 | X-H torsion
[ 10718 10713 10712 10709 ] final   -3.38 input   66.30 | X-H torsion
[ 10763 10752 10751 10750 ] final   61.14 input  -60.55 | X-H torsion
[ 11005 11000 10999 10996 ] final  133.70 input  -57.11 | X-H torsion

> <Gold.Protein.ActiveResidues>
 VAL166  LYS551  ARG553  GLY616  TRP617  ASP618  TYR619  PRO620  LYS621  CYS622 
 ASP623  PHE694  ASN695  SER759  ASP760  ASP761  ALA762  ILE779  LEU786  VAL792 
 PHE793  MET794  SER795  GLU796  ALA797  LYS798  CYS799  TRP800  GLU811  SER814 

> <Gold.Protein.RotatedAtoms>
  151.2561  133.4325  159.2613 H   0  0  0  0  0  0  0  0  0  0  0  0  # atno 6907 bound_to 6896
  151.0573  134.9713  159.8252 H   0  0  0  0  0  0  0  0  0  0  0  0  # atno 6908 bound_to 6896
  152.5392  134.2513  159.8952 H   0  0  0  0  0  0  0  0  0  0  0  0  # atno 6909 bound_to 6896
  144.7127  140.1044  143.6414 H   0  0  0  0  0  0  0  0  0  0  0  0  # atno 7974 bound_to 7965
  156.0155  140.3346  155.6985 H   0  0  0  0  0  0  0  0  0  0  0  0  # atno 8008 bound_to 7997
  155.6097  140.0664  157.2727 H   0  0  0  0  0  0  0  0  0  0  0  0  # atno 8009 bound_to 7997
  154.4297  140.1795  156.1247 H   0  0  0  0  0  0  0  0  0  0  0  0  # atno 8010 bound_to 7997
  140.0382  143.5180  152.2143 H   0  0  0  0  0  0  0  0  0  0  0  0  # atno 10167 bound_to 10162
  156.7768  130.5318  149.5757 H   0  0  0  0  0  0  0  0  0  0  0  0  # atno 10718 bound_to 10713
  152.9941  135.5511  154.5986 H   0  0  0  0  0  0  0  0  0  0  0  0  # atno 10763 bound_to 10752
  154.5332  135.2815  155.1163 H   0  0  0  0  0  0  0  0  0  0  0  0  # atno 10764 bound_to 10752
  154.2470  135.6406  153.5279 H   0  0  0  0  0  0  0  0  0  0  0  0  # atno 10765 bound_to 10752
  139.9868  134.9529  156.9763 H   0  0  0  0  0  0  0  0  0  0  0  0  # atno 11005 bound_to 11000
  145.9509  139.2733  143.1213 LP  0  0  0  0  0  0  0  0  0  0  0  0  # atno 17320 bound_to 7965
  145.9324  140.9039  143.0349 LP  0  0  0  0  0  0  0  0  0  0  0  0  # atno 17321 bound_to 7965
  139.6031  144.7588  151.3125 LP  0  0  0  0  0  0  0  0  0  0  0  0  # atno 17342 bound_to 10162
  140.7272  143.6970  150.7876 LP  0  0  0  0  0  0  0  0  0  0  0  0  # atno 17343 bound_to 10162
  156.1243  130.6132  151.0240 LP  0  0  0  0  0  0  0  0  0  0  0  0  # atno 17370 bound_to 10713
  157.6665  131.0870  150.7716 LP  0  0  0  0  0  0  0  0  0  0  0  0  # atno 17371 bound_to 10713
  140.4986  134.1120  155.7246 LP  0  0  0  0  0  0  0  0  0  0  0  0  # atno 17394 bound_to 11000
  141.1532  133.8931  157.2045 LP  0  0  0  0  0  0  0  0  0  0  0  0  # atno 17395 bound_to 11000

$$$$
