AV-unprocessed.smi:37|AV-procd|sdf|328|dock7
  -GOLD-   2262016153D 1   1.00000     0.00000
 Structure written by MMmdl.
 43 44  0  0  0  0  0  0  0  0  2 V2000
  151.9821  131.8678  156.2164 C   0  0  0  0  0  0  0  0  0  0  0  0
  150.5182  131.6528  155.8075 C   0  0  0  0  0  0  0  0  0  0  0  0
  149.5485  132.3836  156.7334 C   0  0  0  0  0  0  0  0  0  0  0  0
  149.5715  132.2144  157.9527 O   0  0  0  0  0  0  0  0  0  0  0  0
  148.7112  133.1900  156.0663 O   0  0  0  0  0  0  0  0  0  0  0  0
  147.7474  133.9544  156.7716 C   0  0  0  0  0  0  0  0  0  0  0  0
  148.4376  134.7766  157.8680 C   0  0  1  0  0  0  0  0  0  0  0  0
  149.6323  135.3469  157.3459 O   0  0  0  0  0  0  0  0  0  0  0  0
  149.8095  136.5979  157.9242 C   0  0  1  0  0  0  0  0  0  0  0  0
  150.6950  137.4509  157.0464 N   0  0  0  0  0  0  0  0  0  0  0  0
  150.4815  138.8138  156.9163 C   0  0  0  0  0  0  0  0  0  0  0  0
  151.2808  139.5738  156.1405 C   0  0  0  0  0  0  0  0  0  0  0  0
  151.0536  140.8947  156.0380 F   0  0  0  0  0  0  0  0  0  0  0  0
  152.3912  138.9539  155.4198 C   0  0  0  0  0  0  0  0  0  0  0  0
  153.1143  139.6521  154.7110 O   0  0  0  0  0  0  0  0  0  0  0  0
  152.5781  137.6102  155.5685 N   0  5  0  0  0  0  0  0  0  0  0  0
  151.7741  136.8372  156.3560 C   0  0  0  0  0  0  0  0  0  0  0  0
  151.9364  135.6257  156.5040 O   0  0  0  0  0  0  0  0  0  0  0  0
  148.4042  137.1837  158.0995 C   0  0  1  0  0  0  0  0  0  0  0  0
  147.6924  137.9820  156.4128 Br  0  0  0  0  0  0  0  0  0  0  0  0
  147.5929  135.9369  158.4313 C   0  0  2  0  0  0  0  0  0  0  0  0
  147.4837  135.7826  159.8418 O   0  0  0  0  0  0  0  0  0  0  0  0
  146.7481  136.6460  160.5666 C   0  0  0  0  0  0  0  0  0  0  0  0
  146.3797  137.7631  160.2038 O   0  0  0  0  0  0  0  0  0  0  0  0
  146.4065  136.1079  161.9542 C   0  0  0  0  0  0  0  0  0  0  0  0
  147.6598  135.8093  162.7884 C   0  0  0  0  0  0  0  0  0  0  0  0
  152.6506  131.3194  155.5527 H   0  0  0  0  0  0  0  0  0  0  0  0
  152.1651  131.5175  157.2328 H   0  0  0  0  0  0  0  0  0  0  0  0
  152.2635  132.9200  156.1679 H   0  0  0  0  0  0  0  0  0  0  0  0
  150.3607  132.0028  154.7871 H   0  0  0  0  0  0  0  0  0  0  0  0
  150.2828  130.5883  155.8172 H   0  0  0  0  0  0  0  0  0  0  0  0
  147.2254  134.6144  156.0778 H   0  0  0  0  0  0  0  0  0  0  0  0
  147.0033  133.2948  157.2202 H   0  0  0  0  0  0  0  0  0  0  0  0
  148.7258  134.1023  158.6762 H   0  0  0  0  0  0  0  0  0  0  0  0
  150.3434  136.4695  158.8680 H   0  0  0  0  0  0  0  0  0  0  0  0
  149.6722  139.2920  157.4472 H   0  0  0  0  0  0  0  0  0  0  0  0
  148.3888  137.9537  158.8716 H   0  0  0  0  0  0  0  0  0  0  0  0
  146.6021  135.9686  157.9751 H   0  0  0  0  0  0  0  0  0  0  0  0
  145.7787  136.8355  162.4687 H   0  0  0  0  0  0  0  0  0  0  0  0
  145.8124  135.2005  161.8429 H   0  0  0  0  0  0  0  0  0  0  0  0
  147.3851  135.3827  163.7533 H   0  0  0  0  0  0  0  0  0  0  0  0
  148.2372  136.7142  162.9814 H   0  0  0  0  0  0  0  0  0  0  0  0
  148.3109  135.0944  162.2844 H   0  0  0  0  0  0  0  0  0  0  0  0
  1  2  1  0  0  0  0
  1 27  1  0  0  0  0
  1 28  1  0  0  0  0
  1 29  1  0  0  0  0
  2  3  1  0  0  0  0
  2 30  1  0  0  0  0
  2 31  1  0  0  0  0
  3  4  2  0  0  0  0
  3  5  1  0  0  0  0
  5  6  1  0  0  0  0
  6  7  1  0  0  0  0
  6 32  1  0  0  0  0
  6 33  1  0  0  0  0
  7 21  1  0  0  0  0
  7  8  1  0  0  0  0
  7 34  1  0  0  0  0
  8  9  1  0  0  0  0
  9 10  1  0  0  0  0
  9 19  1  0  0  0  0
  9 35  1  0  0  0  0
 10 17  1  0  0  0  0
 10 11  1  0  0  0  0
 11 12  2  0  0  0  0
 11 36  1  0  0  0  0
 12 13  1  0  0  0  0
 12 14  1  0  0  0  0
 14 15  2  0  0  0  0
 14 16  1  0  0  0  0
 16 17  1  0  0  0  0
 17 18  2  0  0  0  0
 19 20  1  0  0  0  0
 19 21  1  0  0  0  0
 19 37  1  0  0  0  0
 21 22  1  0  0  0  0
 21 38  1  0  0  0  0
 22 23  1  0  0  0  0
 23 24  2  0  0  0  0
 23 25  1  0  0  0  0
 25 26  1  0  0  0  0
 25 39  1  0  0  0  0
 25 40  1  0  0  0  0
 26 41  1  0  0  0  0
 26 42  1  0  0  0  0
 26 43  1  0  0  0  0
M  CHG  1  16  -1
M  END
> <s_m_source_file>
AV-unprocessed.smi

> <i_m_source_file_index>
37

> <i_lp_mmshare_version>
43012

> <i_f3d_flags>
0

> <s_epik_input>
W0NIM11bQ0gyXUMoPU8pT1tDSDJdW0NAQEhdMU9bQ0BASF0objJbY0hdYyhGKWMoPU8pW25IXWMyPU8pW0NAQEhdKEJyKVtDQEhdMU9DKD1PKVtDSDJdW0NIM10=

> <s_epik_cmdline>
J2VwaWtfcHl0aG9uJywgJy1waCcsICc3LjAnLCAnLXRuJywgJzgnLCAnLW1hJywgJzIwMCcsICctbWV0YWxfYmluZGluZycsICctaW1hZScsICc8aW5maWxlLm1hZT4nLCAnLW9tYWUnLCAnPG91dGZpbGUubWFlPic=

> <r_epik_Ionization_Penalty>
1.08158

> <r_epik_Ionization_Penalty_Charging>
9.05154e-09

> <r_epik_Ionization_Penalty_Neutral>
1.08158

> <r_epik_State_Penalty>
1.13706

> <r_epik_Charging_Adjusted_Penalty>
1.13706

> <i_epik_Tot_Q>
-1

> <i_epik_Tot_abs_Q>
1

> <r_epik_Metal_State_Penalty>
0.00343535

> <b_epik_Metal_Only>
0

> <s_epik_Chemistry_Notes>
This compound has an ester and may undergo hydrolysis at high or low pH. This compound contains an acetal/aminal-like group ( X-CH(R)-Y where X, Y are N, S, or O) that may be acid/base labile, releasing an aldehyde.

> <s_lp_Force_Field>
OPLS_2005

> <r_lp_Energy>
31.9934

> <b_lp_Chiralities_Consistent>
1

> <s_lp_Variant>
AV-unprocessed.smi:37-26

> <Gold.Version>
5.8.1

> <Gold.Id.Protein>
6NUR|6NUR_protein|mol2

> <Gold.PLP.Fitness>
39.4762

> <Gold.PLP.PLP>
-31.8007

> <Gold.PLP.part.hbond>
-6.5534

> <Gold.PLP.part.metal>
0.0000

> <Gold.PLP.part.buried>
-4.6358

> <Gold.PLP.part.nonpolar>
-21.0985

> <Gold.PLP.part.repulsive>
0.0392

> <Gold.PLP.ligand.clash>
2.7688

> <Gold.PLP.ligand.torsion>
1.1263

> <Gold.PLP.Chemscore.Hbond>
4.1802

> <Gold.PLP.Chemscore.CHOScore>
0.0000

> <Gold.PLP.Chemscore.Metal>
0.0000

> <Gold.Chemscore.Hbonds>
donor molecule, donor type, donor heavy atom, donor atom, acceptor molecule, acceptor atom, score
      P1  H  6896  6908       L1     4  0.21
      P1  H  6934  6947       L1    24  1.00
      P1  H  7989  7998       L1    15  0.17
      P1  H  7997  8009       L1    15  1.00
      P1  H 10752 10764       L1    18  0.85

> <Gold.PLP.Chemscore.Internal.Correction>
0.1564

> <Gold.Rescore>
     Score         DG    S(hbond)    S(metal)    S(lipo)     H(rot)  DE(clash)    DE(int)     intcor
      6.86     -14.10       3.49        0.00      45.40       3.27       0.04       7.20       ----

> <Gold.Chemscore.Fitness>
6.8591

> <Gold.Chemscore.DG>
-14.0990

> <Gold.Chemscore.ZeroCoef>
-5.4800

> <Gold.Chemscore.Hbond>
3.4941

> <Gold.Chemscore.Metal>
0.0000

> <Gold.Chemscore.Lipo>
45.4022

> <Gold.Chemscore.Internal_Hbond>
0.0000

> <Gold.Chemscore.DEClash>
0.0383

> <Gold.Chemscore.DEInternal>
7.2017

> <Gold.Chemscore.Rot>
3.2669

> <Gold.Chemscore.Internal.Correction>
   9.000000E+99

> <Gold.Chemscore.Hbonds>
donor molecule, donor type, donor heavy atom, donor atom, acceptor molecule, acceptor atom, score
      P1  H  6896  6908       L1     4  0.20
      P1  H  6934  6947       L1    24  0.92
      P1  H  7989  7998       L1    15  0.09
      P1  H  7997  8009       L1    15  0.86
      P1  H 10752 10764       L1    18  0.21

> <Gold.Chemscore.Hbond.Weighted>
-11.6703

> <Gold.Chemscore.Metal.Weighted>
-0.0000

> <Gold.Chemscore.Lipo.Weighted>
-5.3121

> <Gold.Chemscore.Internal_Hbond.Weighted>
0.0000

> <Gold.Chemscore.DEClash.Weighted>
0.0383

> <Gold.Chemscore.DEInternal.Weighted>
7.2017

> <Gold.Chemscore.Rot.Weighted>
8.3634

> <Gold.Chemscore.Internal.Correction.Weighted>
   9.000000E+99

> <Gold.Protein.RotatedTorsions>
[ 6907 6896 6895 6894 ] final   92.32 input  -60.11 | X-H torsion
[ 7974 7965 7964 7962 ] final  -13.24 input  175.53 | X-H torsion
[ 8008 7997 7996 7995 ] final -111.73 input   59.86 | X-H torsion
[ 10167 10162 10161 10158 ] final  167.43 input  -65.29 | X-H torsion
[ 10718 10713 10712 10709 ] final   34.50 input   66.30 | X-H torsion
[ 10763 10752 10751 10750 ] final    1.99 input  -60.55 | X-H torsion
[ 11005 11000 10999 10996 ] final   23.04 input  -57.11 | X-H torsion

> <Gold.Protein.ActiveResidues>
 VAL166  LYS551  ARG553  GLY616  TRP617  ASP618  TYR619  PRO620  LYS621  CYS622 
 ASP623  PHE694  ASN695  SER759  ASP760  ASP761  ALA762  ILE779  LEU786  VAL792 
 PHE793  MET794  SER795  GLU796  ALA797  LYS798  CYS799  TRP800  GLU811  SER814 

> <Gold.Protein.RotatedAtoms>
  152.5452  134.1520  159.8522 H   0  0  0  0  0  0  0  0  0  0  0  0  # atno 6907 bound_to 6896
  151.1546  133.4878  159.2602 H   0  0  0  0  0  0  0  0  0  0  0  0  # atno 6908 bound_to 6896
  151.1436  135.0203  159.8692 H   0  0  0  0  0  0  0  0  0  0  0  0  # atno 6909 bound_to 6896
  146.2122  140.3174  142.8387 H   0  0  0  0  0  0  0  0  0  0  0  0  # atno 7974 bound_to 7965
  154.9944  140.0395  157.2333 H   0  0  0  0  0  0  0  0  0  0  0  0  # atno 8008 bound_to 7997
  154.7600  140.2782  155.6199 H   0  0  0  0  0  0  0  0  0  0  0  0  # atno 8009 bound_to 7997
  156.2902  140.2630  156.2376 H   0  0  0  0  0  0  0  0  0  0  0  0  # atno 8010 bound_to 7997
  139.4945  144.3922  151.9504 H   0  0  0  0  0  0  0  0  0  0  0  0  # atno 10167 bound_to 10162
  157.3112  130.7400  149.6726 H   0  0  0  0  0  0  0  0  0  0  0  0  # atno 10718 bound_to 10713
  153.3012  135.6956  153.7202 H   0  0  0  0  0  0  0  0  0  0  0  0  # atno 10763 bound_to 10752
  153.6115  135.3443  155.2981 H   0  0  0  0  0  0  0  0  0  0  0  0  # atno 10764 bound_to 10752
  154.8551  135.4364  154.2123 H   0  0  0  0  0  0  0  0  0  0  0  0  # atno 10765 bound_to 10752
  140.3739  134.1993  155.7665 H   0  0  0  0  0  0  0  0  0  0  0  0  # atno 11005 bound_to 11000
  144.8945  140.7565  143.5906 LP  0  0  0  0  0  0  0  0  0  0  0  0  # atno 17320 bound_to 7965
  145.3097  139.1822  143.4645 LP  0  0  0  0  0  0  0  0  0  0  0  0  # atno 17321 bound_to 7965
  140.3360  144.3260  150.5977 LP  0  0  0  0  0  0  0  0  0  0  0  0  # atno 17342 bound_to 10162
  140.5606  143.2193  151.7772 LP  0  0  0  0  0  0  0  0  0  0  0  0  # atno 17343 bound_to 10162
  155.9678  130.4251  150.4638 LP  0  0  0  0  0  0  0  0  0  0  0  0  # atno 17370 bound_to 10713
  157.2636  131.0572  151.2304 LP  0  0  0  0  0  0  0  0  0  0  0  0  # atno 17371 bound_to 10713
  141.1945  133.8126  157.0752 LP  0  0  0  0  0  0  0  0  0  0  0  0  # atno 17394 bound_to 11000
  140.0530  134.9795  157.1171 LP  0  0  0  0  0  0  0  0  0  0  0  0  # atno 17395 bound_to 11000

$$$$
