AV-unprocessed.smi:218|AV-procd|sdf|1674|dock5
  -GOLD-   2262020 93D 1   1.00000     0.00000
 Structure written by MMmdl.
 54 57  0  0  0  0  0  0  0  0  1 V2000
  150.9086  142.8856  158.3315 C   0  0  0  0  0  0  0  0  0  0  0  0
  150.9280  141.3887  157.9994 C   0  0  0  0  0  0  0  0  0  0  0  0
  151.8236  140.6132  158.9811 C   0  0  0  0  0  0  0  0  0  0  0  0
  151.4295  141.2653  156.6668 O   0  0  0  0  0  0  0  0  0  0  0  0
  151.4706  140.0284  156.0519 C   0  0  0  0  0  0  0  0  0  0  0  0
  150.2612  139.3217  155.8903 C   0  0  0  0  0  0  0  0  0  0  0  0
  150.2885  138.0554  155.2701 C   0  0  0  0  0  0  0  0  0  0  0  0
  149.0111  137.2575  155.0740 C   0  0  0  0  0  0  0  0  0  0  0  0
  147.8681  138.0410  154.6180 N   0  0  0  0  0  0  0  0  0  0  0  0
  146.9200  137.4842  153.8317 C   0  0  0  0  0  0  0  0  0  0  0  0
  146.0430  138.2540  153.1354 N   0  0  0  0  0  0  0  0  0  0  0  0
  145.1170  137.6793  152.3624 C   0  0  0  0  0  0  0  0  0  0  0  0
  144.9024  136.3803  152.1449 N   0  0  0  0  0  0  0  0  0  0  0  0
  145.7835  135.6017  152.8373 C   0  0  0  0  0  0  0  0  0  0  0  0
  146.8159  136.0758  153.6941 C   0  0  0  0  0  0  0  0  0  0  0  0
  147.5187  135.0020  154.2246 N   0  0  0  0  0  0  0  0  0  0  0  0
  146.9316  133.9556  153.7094 C   0  0  0  0  0  0  0  0  0  0  0  0
  145.8731  134.2242  152.8698 N   0  0  0  0  0  0  0  0  0  0  0  0
  145.0066  133.2355  152.1526 C   0  0  2  0  0  0  0  0  0  0  0  0
  145.3609  131.9524  152.5627 O   0  0  0  0  0  0  0  0  0  0  0  0
  145.2171  131.0594  151.4645 C   0  0  2  0  0  0  0  0  0  0  0  0
  145.9994  129.7562  151.7040 C   0  0  0  0  0  0  0  0  0  0  0  0
  147.2474  130.0442  152.2970 O   0  0  0  0  0  0  0  0  0  0  0  0
  145.6793  131.9018  150.2660 C   0  0  2  0  0  0  0  0  0  0  0  0
  147.0893  131.8613  150.1269 O   0  0  0  0  0  0  0  0  0  0  0  0
  145.1603  133.2948  150.6177 C   0  0  2  0  0  0  0  0  0  0  0  0
  145.9691  134.3474  150.1162 O   0  0  0  0  0  0  0  0  0  0  0  0
  151.5278  137.5428  154.8384 C   0  0  0  0  0  0  0  0  0  0  0  0
  152.6824  138.3226  155.0414 C   0  0  0  0  0  0  0  0  0  0  0  0
  152.6633  139.5347  155.6353 N   0  0  0  0  0  0  0  0  0  0  0  0
  143.9929  133.4680  152.4817 H   0  0  0  0  0  0  0  0  0  0  0  0
  144.1551  130.8409  151.3352 H   0  0  0  0  0  0  0  0  0  0  0  0
  145.2447  131.5415  149.3331 H   0  0  0  0  0  0  0  0  0  0  0  0
  144.1573  133.4142  150.2062 H   0  0  0  0  0  0  0  0  0  0  0  0
  150.5355  143.0597  159.3413 H   0  0  0  0  0  0  0  0  0  0  0  0
  150.2626  143.4291  157.6415 H   0  0  0  0  0  0  0  0  0  0  0  0
  151.9071  143.3186  158.2636 H   0  0  0  0  0  0  0  0  0  0  0  0
  149.8999  141.0300  158.0695 H   0  0  0  0  0  0  0  0  0  0  0  0
  151.4702  140.7290  160.0061 H   0  0  0  0  0  0  0  0  0  0  0  0
  152.8525  140.9717  158.9412 H   0  0  0  0  0  0  0  0  0  0  0  0
  151.8377  139.5462  158.7604 H   0  0  0  0  0  0  0  0  0  0  0  0
  149.3303  139.7465  156.2362 H   0  0  0  0  0  0  0  0  0  0  0  0
  149.1878  136.4332  154.3819 H   0  0  0  0  0  0  0  0  0  0  0  0
  148.7472  136.8014  156.0283 H   0  0  0  0  0  0  0  0  0  0  0  0
  147.9148  139.0330  154.8012 H   0  0  0  0  0  0  0  0  0  0  0  0
  144.4539  138.3557  151.8437 H   0  0  0  0  0  0  0  0  0  0  0  0
  147.2534  132.9495  153.9356 H   0  0  0  0  0  0  0  0  0  0  0  0
  145.4533  129.1110  152.3927 H   0  0  0  0  0  0  0  0  0  0  0  0
  146.1406  129.1994  150.7769 H   0  0  0  0  0  0  0  0  0  0  0  0
  147.8149  130.4073  151.6342 H   0  0  0  0  0  0  0  0  0  0  0  0
  147.4018  131.0511  150.5002 H   0  0  0  0  0  0  0  0  0  0  0  0
  146.2492  134.1203  149.2427 H   0  0  0  0  0  0  0  0  0  0  0  0
  151.5942  136.5783  154.3570 H   0  0  0  0  0  0  0  0  0  0  0  0
  153.6480  137.9620  154.7195 H   0  0  0  0  0  0  0  0  0  0  0  0
  1  2  1  0  0  0  0
  1 35  1  0  0  0  0
  1 36  1  0  0  0  0
  1 37  1  0  0  0  0
  2  3  1  0  0  0  0
  2  4  1  0  0  0  0
  2 38  1  0  0  0  0
  3 39  1  0  0  0  0
  3 40  1  0  0  0  0
  3 41  1  0  0  0  0
  4  5  1  0  0  0  0
  5 30  1  0  0  0  0
  5  6  2  0  0  0  0
  6  7  1  0  0  0  0
  6 42  1  0  0  0  0
  7  8  1  0  0  0  0
  7 28  2  0  0  0  0
  8  9  1  0  0  0  0
  8 43  1  0  0  0  0
  8 44  1  0  0  0  0
  9 10  1  0  0  0  0
  9 45  1  0  0  0  0
 10 15  1  0  0  0  0
 10 11  2  0  0  0  0
 11 12  1  0  0  0  0
 12 13  2  0  0  0  0
 12 46  1  0  0  0  0
 13 14  1  0  0  0  0
 14 18  1  0  0  0  0
 14 15  2  0  0  0  0
 15 16  1  0  0  0  0
 16 17  2  0  0  0  0
 17 18  1  0  0  0  0
 17 47  1  0  0  0  0
 18 19  1  0  0  0  0
 19 31  1  0  0  0  0
 19 26  1  0  0  0  0
 19 20  1  0  0  0  0
 20 21  1  0  0  0  0
 21 32  1  0  0  0  0
 21 22  1  0  0  0  0
 21 24  1  0  0  0  0
 22 23  1  0  0  0  0
 22 48  1  0  0  0  0
 22 49  1  0  0  0  0
 23 50  1  0  0  0  0
 24 33  1  0  0  0  0
 24 25  1  0  0  0  0
 24 26  1  0  0  0  0
 25 51  1  0  0  0  0
 26 34  1  0  0  0  0
 26 27  1  0  0  0  0
 27 52  1  0  0  0  0
 28 29  1  0  0  0  0
 28 53  1  0  0  0  0
 29 30  2  0  0  0  0
 29 54  1  0  0  0  0
M  END
> <s_m_source_file>
AV-unprocessed.smi

> <i_m_source_file_index>
218

> <i_lp_mmshare_version>
43012

> <i_f3d_flags>
0

> <s_epik_input>
W0NIM11bQ0hdKFtDSDNdKU9jMVtjSF1jKFtjSF1bY0hdbjEpW0NIMl1bTkhdYyhuW2NIXW4yKWMoYzIzKW5bY0hdbjNbQ0BASF00T1tDQEhdKFtDSDJdW09IXSlbQ0BASF0oW09IXSlbQ0BIXTRbT0hd

> <s_epik_cmdline>
J2VwaWtfcHl0aG9uJywgJy1waCcsICc3LjAnLCAnLXRuJywgJzgnLCAnLW1hJywgJzIwMCcsICctbWV0YWxfYmluZGluZycsICctaW1hZScsICc8aW5maWxlLm1hZT4nLCAnLW9tYWUnLCAnPG91dGZpbGUubWFlPic=

> <r_lp_tautomer_probability>
1

> <r_epik_Ionization_Penalty>
0.00457014

> <r_epik_Ionization_Penalty_Charging>
0

> <r_epik_Ionization_Penalty_Neutral>
0.00457014

> <r_epik_State_Penalty>
-0

> <r_epik_Charging_Adjusted_Penalty>
0

> <i_epik_Tot_Q>
0

> <i_epik_Tot_abs_Q>
0

> <r_epik_Metal_State_Penalty>
-0

> <b_epik_Metal_Only>
0

> <s_epik_Chemistry_Notes>
This compound contains an acetal/aminal-like group ( X-CH(R)-Y where X, Y are N, S, or O) that may be acid/base labile, releasing an aldehyde.

> <s_lp_Force_Field>
OPLS_2005

> <r_lp_Energy>
51.9748

> <b_lp_Chiralities_Consistent>
1

> <s_lp_Variant>
AV-unprocessed.smi:218-13

> <Gold.Version>
5.8.1

> <Gold.Id.Protein>
6NUR|6NUR_protein|mol2

> <Gold.PLP.Fitness>
54.7339

> <Gold.PLP.PLP>
-39.9819

> <Gold.PLP.part.hbond>
-4.1071

> <Gold.PLP.part.metal>
0.0000

> <Gold.PLP.part.buried>
-4.5932

> <Gold.PLP.part.nonpolar>
-31.8395

> <Gold.PLP.part.repulsive>
1.6907

> <Gold.PLP.ligand.clash>
0.0000

> <Gold.PLP.ligand.torsion>
0.7036

> <Gold.PLP.Chemscore.Hbond>
3.5371

> <Gold.PLP.Chemscore.CHOScore>
1.8115

> <Gold.PLP.Chemscore.Metal>
0.0000

> <Gold.Chemscore.Hbonds>
donor molecule, donor type, donor heavy atom, donor atom, acceptor molecule, acceptor atom, score
      L1  H    23    50       P1 10747  1.00
      L1  H    25    51       P1 10747  0.24
      L1  H    27    52       P1  7921  0.46
      P1  H  7997  8008       L1    30  1.00
      L1  C    12    46       P1 10171  1.00
      L1  C    12    46       P1 10175  1.00

> <Gold.PLP.Chemscore.Internal.Correction>
0.1133

> <Gold.Rescore>
     Score         DG    S(hbond)    S(metal)    S(lipo)     H(rot)  DE(clash)    DE(int)     intcor
     10.23     -15.27       3.58        0.00      88.64       4.90       1.42       3.62       ----

> <Gold.Chemscore.Fitness>
10.2350

> <Gold.Chemscore.DG>
-15.2736

> <Gold.Chemscore.ZeroCoef>
-5.4800

> <Gold.Chemscore.Hbond>
3.5850

> <Gold.Chemscore.Metal>
0.0000

> <Gold.Chemscore.Lipo>
88.6437

> <Gold.Chemscore.Internal_Hbond>
0.0000

> <Gold.Chemscore.DEClash>
1.4176

> <Gold.Chemscore.DEInternal>
3.6211

> <Gold.Chemscore.Rot>
4.9029

> <Gold.Chemscore.Internal.Correction>
   9.000000E+99

> <Gold.Chemscore.Hbonds>
donor molecule, donor type, donor heavy atom, donor atom, acceptor molecule, acceptor atom, score
      L1  H    23    50       P1 10747  1.00
      L1  H    25    51       P1 10747  0.24
      L1  H    27    52       P1  7921  0.03
      P1  H  7997  8008       L1    30  0.85

> <Gold.Chemscore.Hbond.Weighted>
-11.9739

> <Gold.Chemscore.Metal.Weighted>
-0.0000

> <Gold.Chemscore.Lipo.Weighted>
-10.3713

> <Gold.Chemscore.Internal_Hbond.Weighted>
0.0000

> <Gold.Chemscore.DEClash.Weighted>
1.4176

> <Gold.Chemscore.DEInternal.Weighted>
3.6211

> <Gold.Chemscore.Rot.Weighted>
12.5515

> <Gold.Chemscore.Internal.Correction.Weighted>
   9.000000E+99

> <Gold.Protein.RotatedTorsions>
[ 6907 6896 6895 6894 ] final  -56.49 input  -60.11 | X-H torsion
[ 7974 7965 7964 7962 ] final -158.65 input  175.53 | X-H torsion
[ 8008 7997 7996 7995 ] final  -27.40 input   59.86 | X-H torsion
[ 10167 10162 10161 10158 ] final   69.60 input  -65.29 | X-H torsion
[ 10718 10713 10712 10709 ] final  105.87 input   66.30 | X-H torsion
[ 10763 10752 10751 10750 ] final   31.89 input  -60.55 | X-H torsion
[ 11005 11000 10999 10996 ] final  127.44 input  -57.11 | X-H torsion

> <Gold.Protein.ActiveResidues>
 VAL166  LYS551  ARG553  GLY616  TRP617  ASP618  TYR619  PRO620  LYS621  CYS622 
 ASP623  PHE694  ASN695  SER759  ASP760  ASP761  ALA762  ILE779  LEU786  VAL792 
 PHE793  MET794  SER795  GLU796  ALA797  LYS798  CYS799  TRP800  GLU811  SER814 

> <Gold.Protein.RotatedAtoms>
  150.8163  134.7347  159.6732 H   0  0  0  0  0  0  0  0  0  0  0  0  # atno 6907 bound_to 6896
  152.4282  134.5825  159.9961 H   0  0  0  0  0  0  0  0  0  0  0  0  # atno 6908 bound_to 6896
  151.6021  133.3318  159.3085 H   0  0  0  0  0  0  0  0  0  0  0  0  # atno 6909 bound_to 6896
  144.7497  140.3797  143.6058 H   0  0  0  0  0  0  0  0  0  0  0  0  # atno 7974 bound_to 7965
  154.4379  140.1873  156.0926 H   0  0  0  0  0  0  0  0  0  0  0  0  # atno 8008 bound_to 7997
  156.0354  140.3326  155.7159 H   0  0  0  0  0  0  0  0  0  0  0  0  # atno 8009 bound_to 7997
  155.5778  140.0619  157.2781 H   0  0  0  0  0  0  0  0  0  0  0  0  # atno 8010 bound_to 7997
  140.0660  144.5192  150.7260 H   0  0  0  0  0  0  0  0  0  0  0  0  # atno 10167 bound_to 10162
  157.6689  131.0838  150.5922 H   0  0  0  0  0  0  0  0  0  0  0  0  # atno 10718 bound_to 10713
  153.0291  135.6427  154.1270 H   0  0  0  0  0  0  0  0  0  0  0  0  # atno 10763 bound_to 10752
  154.0995  135.2860  155.3256 H   0  0  0  0  0  0  0  0  0  0  0  0  # atno 10764 bound_to 10752
  154.6409  135.5460  153.7851 H   0  0  0  0  0  0  0  0  0  0  0  0  # atno 10765 bound_to 10752
  139.9507  134.9622  156.8855 H   0  0  0  0  0  0  0  0  0  0  0  0  # atno 11005 bound_to 11000
  145.6990  139.1657  143.2603 LP  0  0  0  0  0  0  0  0  0  0  0  0  # atno 17320 bound_to 7965
  146.1429  140.7033  142.9358 LP  0  0  0  0  0  0  0  0  0  0  0  0  # atno 17321 bound_to 7965
  140.7149  143.2536  151.4467 LP  0  0  0  0  0  0  0  0  0  0  0  0  # atno 17342 bound_to 10162
  139.5864  144.1594  152.2035 LP  0  0  0  0  0  0  0  0  0  0  0  0  # atno 17343 bound_to 10162
  156.6223  130.4409  149.5818 LP  0  0  0  0  0  0  0  0  0  0  0  0  # atno 17370 bound_to 10713
  156.2346  130.6815  151.1497 LP  0  0  0  0  0  0  0  0  0  0  0  0  # atno 17371 bound_to 10713
  140.5725  134.0430  155.7435 LP  0  0  0  0  0  0  0  0  0  0  0  0  # atno 17394 bound_to 11000
  141.1170  133.9524  157.2804 LP  0  0  0  0  0  0  0  0  0  0  0  0  # atno 17395 bound_to 11000

$$$$
