AV-unprocessed.smi:2154|AV-procd|sdf|8776|dock5
  -GOLD-   2272011553D 1   1.00000     0.00000
 Structure written by MMmdl.
 31 32  0  0  0  0  0  0  0  0  2 V2000
  152.6817  142.7927  160.4026 C   0  0  0  0  0  0  0  0  0  0  0  0
  152.8603  143.6211  159.1460 C   0  0  2  0  0  0  0  0  0  0  0  0
  151.8709  144.7068  158.7935 C   0  0  0  0  0  0  0  0  0  0  0  0
  151.9603  143.4651  157.9356 C   0  0  2  0  0  0  0  0  0  0  0  0
  150.8279  142.4528  157.9008 C   0  0  0  0  0  0  0  0  0  0  0  0
  150.6452  141.7806  156.6215 N   0  0  0  0  0  0  0  0  0  0  0  0
  151.3792  140.7460  156.1858 C   0  0  0  0  0  0  0  0  0  0  0  0
  152.2891  140.2397  156.8441 O   0  0  0  0  0  0  0  0  0  0  0  0
  151.0022  140.1851  154.8078 C   0  0  0  0  0  0  0  0  0  0  0  0
  150.6970  138.7455  154.8365 N   0  0  0  0  0  0  0  0  0  0  0  0
  149.3439  138.3639  154.8584 C   0  0  0  0  0  0  0  0  0  0  0  0
  148.9710  137.0702  154.8885 C   0  0  0  0  0  0  0  0  0  0  0  0
  150.0134  136.0514  154.8978 C   0  0  0  0  0  0  0  0  0  0  0  0
  149.6913  134.8650  154.9203 O   0  0  0  0  0  0  0  0  0  0  0  0
  151.3124  136.4721  154.8806 N   0  5  0  0  0  0  0  0  0  0  0  0
  151.6766  137.7917  154.8527 C   0  0  0  0  0  0  0  0  0  0  0  0
  152.8550  138.1498  154.8400 O   0  0  0  0  0  0  0  0  0  0  0  0
  151.6298  142.7086  160.6751 H   0  0  0  0  0  0  0  0  0  0  0  0
  153.2120  143.2587  161.2329 H   0  0  0  0  0  0  0  0  0  0  0  0
  153.0847  141.7914  160.2517 H   0  0  0  0  0  0  0  0  0  0  0  0
  153.9035  143.8346  158.9210 H   0  0  0  0  0  0  0  0  0  0  0  0
  150.9933  144.8200  159.4273 H   0  0  0  0  0  0  0  0  0  0  0  0
  152.2640  145.6321  158.3772 H   0  0  0  0  0  0  0  0  0  0  0  0
  152.4655  143.5764  156.9778 H   0  0  0  0  0  0  0  0  0  0  0  0
  151.0350  141.6861  158.6475 H   0  0  0  0  0  0  0  0  0  0  0  0
  149.8914  142.9268  158.1986 H   0  0  0  0  0  0  0  0  0  0  0  0
  149.9157  142.1320  156.0184 H   0  0  0  0  0  0  0  0  0  0  0  0
  150.1451  140.7483  154.4366 H   0  0  0  0  0  0  0  0  0  0  0  0
  151.8050  140.3832  154.0949 H   0  0  0  0  0  0  0  0  0  0  0  0
  148.6359  139.1795  154.8562 H   0  0  0  0  0  0  0  0  0  0  0  0
  147.9270  136.7941  154.9081 H   0  0  0  0  0  0  0  0  0  0  0  0
  1  2  1  0  0  0  0
  1 18  1  0  0  0  0
  1 19  1  0  0  0  0
  1 20  1  0  0  0  0
  2  4  1  0  0  0  0
  2  3  1  0  0  0  0
  2 21  1  0  0  0  0
  3  4  1  0  0  0  0
  3 22  1  0  0  0  0
  3 23  1  0  0  0  0
  4  5  1  0  0  0  0
  4 24  1  0  0  0  0
  5  6  1  0  0  0  0
  5 25  1  0  0  0  0
  5 26  1  0  0  0  0
  6  7  1  0  0  0  0
  6 27  1  0  0  0  0
  7  8  2  0  0  0  0
  7  9  1  0  0  0  0
  9 10  1  0  0  0  0
  9 28  1  0  0  0  0
  9 29  1  0  0  0  0
 10 16  1  0  0  0  0
 10 11  1  0  0  0  0
 11 12  2  0  0  0  0
 11 30  1  0  0  0  0
 12 13  1  0  0  0  0
 12 31  1  0  0  0  0
 13 14  2  0  0  0  0
 13 15  1  0  0  0  0
 15 16  1  0  0  0  0
 16 17  2  0  0  0  0
M  CHG  1  15  -1
M  END
> <s_m_source_file>
AV-unprocessed.smi

> <i_m_source_file_index>
2154

> <i_lp_mmshare_version>
43012

> <i_f3d_flags>
0

> <s_epik_input>
W0NIM11bQ0BASF0xW0NIMl1bQ0BIXTFbQ0gyXVtOSF1DKD1PKVtDSDJdbjJbY0hdW2NIXWMoPU8pW25IXWMyPU8=

> <s_epik_cmdline>
J2VwaWtfcHl0aG9uJywgJy1waCcsICc3LjAnLCAnLXRuJywgJzgnLCAnLW1hJywgJzIwMCcsICctbWV0YWxfYmluZGluZycsICctaW1hZScsICc8aW5maWxlLm1hZT4nLCAnLW9tYWUnLCAnPG91dGZpbGUubWFlPic=

> <r_lp_tautomer_probability>
0.999537

> <r_epik_Ionization_Penalty>
3.12283

> <r_epik_Ionization_Penalty_Charging>
2.83566e-08

> <r_epik_Ionization_Penalty_Neutral>
3.12283

> <r_epik_State_Penalty>
3.12192

> <r_epik_Charging_Adjusted_Penalty>
3.12192

> <i_epik_Tot_Q>
-1

> <i_epik_Tot_abs_Q>
1

> <r_epik_Metal_State_Penalty>
0.463748

> <b_epik_Metal_Only>
1

> <s_lp_Force_Field>
OPLS_2005

> <r_lp_Energy>
24.9188

> <b_lp_Chiralities_Consistent>
1

> <s_lp_Variant>
AV-unprocessed.smi:2154-7

> <Gold.Version>
5.8.1

> <Gold.Id.Protein>
6NUR|6NUR_protein|mol2

> <Gold.PLP.Fitness>
41.4520

> <Gold.PLP.PLP>
-33.7734

> <Gold.PLP.part.hbond>
-2.5690

> <Gold.PLP.part.metal>
0.0000

> <Gold.PLP.part.buried>
-2.7768

> <Gold.PLP.part.nonpolar>
-29.0876

> <Gold.PLP.part.repulsive>
0.3604

> <Gold.PLP.ligand.clash>
0.0000

> <Gold.PLP.ligand.torsion>
0.9320

> <Gold.PLP.Chemscore.Hbond>
3.0000

> <Gold.PLP.Chemscore.CHOScore>
0.0000

> <Gold.PLP.Chemscore.Metal>
0.0000

> <Gold.Chemscore.Hbonds>
donor molecule, donor type, donor heavy atom, donor atom, acceptor molecule, acceptor atom, score
      P1  H  7997  8009       L1     8  0.86
      P1  H 10752 10764       L1    15  2.00

> <Gold.PLP.Chemscore.Internal.Correction>
0.5426

> <Gold.Rescore>
     Score         DG    S(hbond)    S(metal)    S(lipo)     H(rot)  DE(clash)    DE(int)     intcor
     11.88     -15.42       1.88        0.00      74.25       1.96       1.38       2.16       ----

> <Gold.Chemscore.Fitness>
11.8816

> <Gold.Chemscore.DG>
-15.4224

> <Gold.Chemscore.ZeroCoef>
-5.4800

> <Gold.Chemscore.Hbond>
1.8789

> <Gold.Chemscore.Metal>
0.0000

> <Gold.Chemscore.Lipo>
74.2470

> <Gold.Chemscore.Internal_Hbond>
0.0000

> <Gold.Chemscore.DEClash>
1.3786

> <Gold.Chemscore.DEInternal>
2.1623

> <Gold.Chemscore.Rot>
1.9609

> <Gold.Chemscore.Internal.Correction>
   9.000000E+99

> <Gold.Chemscore.Hbonds>
donor molecule, donor type, donor heavy atom, donor atom, acceptor molecule, acceptor atom, score
      P1  H  7997  8009       L1     8  0.81
      P1  H 10752 10764       L1    15  0.35

> <Gold.Chemscore.Hbond.Weighted>
-6.2755

> <Gold.Chemscore.Metal.Weighted>
-0.0000

> <Gold.Chemscore.Lipo.Weighted>
-8.6869

> <Gold.Chemscore.Internal_Hbond.Weighted>
0.0000

> <Gold.Chemscore.DEClash.Weighted>
1.3786

> <Gold.Chemscore.DEInternal.Weighted>
2.1623

> <Gold.Chemscore.Rot.Weighted>
5.0200

> <Gold.Chemscore.Internal.Correction.Weighted>
   9.000000E+99

> <Gold.Protein.RotatedTorsions>
[ 6907 6896 6895 6894 ] final  -53.20 input  -60.11 | X-H torsion
[ 7974 7965 7964 7962 ] final -179.53 input  175.53 | X-H torsion
[ 8008 7997 7996 7995 ] final -167.58 input   59.86 | X-H torsion
[ 10167 10162 10161 10158 ] final  -79.19 input  -65.29 | X-H torsion
[ 10718 10713 10712 10709 ] final  -38.98 input   66.30 | X-H torsion
[ 10763 10752 10751 10750 ] final  -69.23 input  -60.55 | X-H torsion
[ 11005 11000 10999 10996 ] final   83.20 input  -57.11 | X-H torsion

> <Gold.Protein.ActiveResidues>
 VAL166  LYS551  ARG553  GLY616  TRP617  ASP618  TYR619  PRO620  LYS621  CYS622 
 ASP623  PHE694  ASN695  SER759  ASP760  ASP761  ALA762  ILE779  LEU786  VAL792 
 PHE793  MET794  SER795  GLU796  ALA797  LYS798  CYS799  TRP800  GLU811  SER814 

> <Gold.Protein.RotatedAtoms>
  150.8448  134.7753  159.6961 H   0  0  0  0  0  0  0  0  0  0  0  0  # atno 6907 bound_to 6896
  152.4527  134.5354  159.9833 H   0  0  0  0  0  0  0  0  0  0  0  0  # atno 6908 bound_to 6896
  151.5487  133.3383  159.2984 H   0  0  0  0  0  0  0  0  0  0  0  0  # atno 6909 bound_to 6896
  144.7137  140.0704  143.6429 H   0  0  0  0  0  0  0  0  0  0  0  0  # atno 7974 bound_to 7965
  155.8796  140.1007  157.1494 H   0  0  0  0  0  0  0  0  0  0  0  0  # atno 8008 bound_to 7997
  154.4004  140.1331  156.4243 H   0  0  0  0  0  0  0  0  0  0  0  0  # atno 8009 bound_to 7997
  155.7658  140.3462  155.5223 H   0  0  0  0  0  0  0  0  0  0  0  0  # atno 8010 bound_to 7997
  140.4615  143.2452  151.8341 H   0  0  0  0  0  0  0  0  0  0  0  0  # atno 10167 bound_to 10162
  156.2976  130.4236  149.8176 H   0  0  0  0  0  0  0  0  0  0  0  0  # atno 10718 bound_to 10713
  154.4004  135.6032  153.5894 H   0  0  0  0  0  0  0  0  0  0  0  0  # atno 10763 bound_to 10752
  152.9788  135.5905  154.4191 H   0  0  0  0  0  0  0  0  0  0  0  0  # atno 10764 bound_to 10752
  154.3989  135.2842  155.2087 H   0  0  0  0  0  0  0  0  0  0  0  0  # atno 10765 bound_to 10752
  139.9039  134.8127  156.2277 H   0  0  0  0  0  0  0  0  0  0  0  0  # atno 11005 bound_to 11000
  145.9788  139.2925  143.1054 LP  0  0  0  0  0  0  0  0  0  0  0  0  # atno 17320 bound_to 7965
  145.9034  140.9228  143.0491 LP  0  0  0  0  0  0  0  0  0  0  0  0  # atno 17321 bound_to 7965
  139.4807  144.5001  151.9071 LP  0  0  0  0  0  0  0  0  0  0  0  0  # atno 17342 bound_to 10162
  140.4087  144.2397  150.5889 LP  0  0  0  0  0  0  0  0  0  0  0  0  # atno 17343 bound_to 10162
  156.5566  130.8365  151.3316 LP  0  0  0  0  0  0  0  0  0  0  0  0  # atno 17370 bound_to 10713
  157.7359  130.9770  150.2109 LP  0  0  0  0  0  0  0  0  0  0  0  0  # atno 17371 bound_to 10713
  141.0366  133.6960  156.1522 LP  0  0  0  0  0  0  0  0  0  0  0  0  # atno 17394 bound_to 11000
  140.7018  134.4555  157.5586 LP  0  0  0  0  0  0  0  0  0  0  0  0  # atno 17395 bound_to 11000

$$$$
