AV-unprocessed.smi:171|AV-procd|sdf|1414|dock10
  -GOLD-   2262019173D 1   1.00000     0.00000
 Structure written by MMmdl.
 56 59  0  0  0  0  0  0  0  0  1 V2000
  147.7256  136.1825  162.8778 C   0  0  0  0  0  0  0  0  0  0  0  0
  146.7489  135.1850  162.2329 C   0  0  0  0  0  0  0  0  0  0  0  0
  147.2970  133.7539  162.3529 C   0  0  0  0  0  0  0  0  0  0  0  0
  146.4293  135.5316  160.7539 C   0  0  0  0  0  0  0  0  0  0  0  0
  146.2218  137.0389  160.4238 C   0  0  2  0  0  0  0  0  0  0  0  0
  145.1286  137.7012  161.2934 C   0  0  0  0  0  0  0  0  0  0  0  0
  145.1105  137.5056  162.5073 O   0  0  0  0  0  0  0  0  0  0  0  0
  144.2287  138.5107  160.7090 N   0  0  0  0  0  0  0  0  0  0  0  0
  144.1589  138.8094  159.2815 C   0  0  0  0  0  0  0  0  0  0  0  0
  145.4880  138.5386  158.5627 C   0  0  0  0  0  0  0  0  0  0  0  0
  146.0218  137.2491  158.9801 N   0  0  0  0  0  0  0  0  0  0  0  0
  146.9987  136.8010  158.1603 C   0  0  0  0  0  0  0  0  0  0  0  0
  146.6965  135.9666  157.1318 N   0  0  0  0  0  0  0  0  0  0  0  0
  147.6643  135.5476  156.3104 C   0  0  0  0  0  0  0  0  0  0  0  0
  148.9668  135.8410  156.3358 N   0  0  0  0  0  0  0  0  0  0  0  0
  149.2681  136.6758  157.3721 C   0  0  0  0  0  0  0  0  0  0  0  0
  148.3526  137.1880  158.3314 C   0  0  0  0  0  0  0  0  0  0  0  0
  149.0157  137.9963  159.2450 N   0  0  0  0  0  0  0  0  0  0  0  0
  150.2559  137.9750  158.8400 C   0  0  0  0  0  0  0  0  0  0  0  0
  150.4943  137.2191  157.7135 N   0  0  0  0  0  0  0  0  0  0  0  0
  151.7693  137.0386  157.0377 C   0  0  0  0  0  0  0  0  0  0  0  0
  151.8229  137.7118  155.6406 C   0  0  1  0  0  0  0  0  0  0  0  0
  153.0244  137.3113  155.0031 O   0  0  0  0  0  0  0  0  0  0  0  0
  150.6619  137.3173  154.7302 C   0  0  0  0  0  0  0  0  0  0  0  0
  150.4829  138.5421  153.8469 C   0  0  0  0  0  0  0  0  0  0  0  0
  150.6906  139.6057  154.7585 O   0  0  0  0  0  0  0  0  0  0  0  0
  151.7730  139.2662  155.6210 C   0  0  1  0  0  0  0  0  0  0  0  0
  151.5409  139.9711  156.9665 C   0  0  0  0  0  0  0  0  0  0  0  0
  148.6718  136.2184  162.3369 H   0  0  0  0  0  0  0  0  0  0  0  0
  147.9446  135.9034  163.9086 H   0  0  0  0  0  0  0  0  0  0  0  0
  147.3158  137.1910  162.9017 H   0  0  0  0  0  0  0  0  0  0  0  0
  145.8295  135.2101  162.8167 H   0  0  0  0  0  0  0  0  0  0  0  0
  148.2261  133.6365  161.7941 H   0  0  0  0  0  0  0  0  0  0  0  0
  146.5820  133.0248  161.9698 H   0  0  0  0  0  0  0  0  0  0  0  0
  147.4975  133.4947  163.3928 H   0  0  0  0  0  0  0  0  0  0  0  0
  147.1966  135.1066  160.1056 H   0  0  0  0  0  0  0  0  0  0  0  0
  145.5218  135.0043  160.4572 H   0  0  0  0  0  0  0  0  0  0  0  0
  147.1380  137.5607  160.7054 H   0  0  0  0  0  0  0  0  0  0  0  0
  143.5323  138.9424  161.2993 H   0  0  0  0  0  0  0  0  0  0  0  0
  143.3744  138.1869  158.8497 H   0  0  0  0  0  0  0  0  0  0  0  0
  143.8540  139.8465  159.1406 H   0  0  0  0  0  0  0  0  0  0  0  0
  145.3367  138.5693  157.4821 H   0  0  0  0  0  0  0  0  0  0  0  0
  146.2107  139.3193  158.8069 H   0  0  0  0  0  0  0  0  0  0  0  0
  147.3494  134.8875  155.5156 H   0  0  0  0  0  0  0  0  0  0  0  0
  151.0345  138.5233  159.3498 H   0  0  0  0  0  0  0  0  0  0  0  0
  152.5456  137.4435  157.6875 H   0  0  0  0  0  0  0  0  0  0  0  0
  151.9619  135.9684  156.9535 H   0  0  0  0  0  0  0  0  0  0  0  0
  153.3392  138.0306  154.4773 H   0  0  0  0  0  0  0  0  0  0  0  0
  150.8339  136.3998  154.1651 H   0  0  0  0  0  0  0  0  0  0  0  0
  149.7546  137.1787  155.3194 H   0  0  0  0  0  0  0  0  0  0  0  0
  151.2363  138.5756  153.0585 H   0  0  0  0  0  0  0  0  0  0  0  0
  149.4954  138.5917  153.3882 H   0  0  0  0  0  0  0  0  0  0  0  0
  152.6845  139.6694  155.1755 H   0  0  0  0  0  0  0  0  0  0  0  0
  152.3444  139.7587  157.6720 H   0  0  0  0  0  0  0  0  0  0  0  0
  150.5971  139.6684  157.4206 H   0  0  0  0  0  0  0  0  0  0  0  0
  151.5047  141.0522  156.8311 H   0  0  0  0  0  0  0  0  0  0  0  0
  1  2  1  0  0  0  0
  1 29  1  0  0  0  0
  1 30  1  0  0  0  0
  1 31  1  0  0  0  0
  2  3  1  0  0  0  0
  2  4  1  0  0  0  0
  2 32  1  0  0  0  0
  3 33  1  0  0  0  0
  3 34  1  0  0  0  0
  3 35  1  0  0  0  0
  4  5  1  0  0  0  0
  4 36  1  0  0  0  0
  4 37  1  0  0  0  0
  5 11  1  0  0  0  0
  5  6  1  0  0  0  0
  5 38  1  0  0  0  0
  6  7  2  0  0  0  0
  6  8  1  0  0  0  0
  8  9  1  0  0  0  0
  8 39  1  0  0  0  0
  9 10  1  0  0  0  0
  9 40  1  0  0  0  0
  9 41  1  0  0  0  0
 10 11  1  0  0  0  0
 10 42  1  0  0  0  0
 10 43  1  0  0  0  0
 11 12  1  0  0  0  0
 12 17  1  0  0  0  0
 12 13  2  0  0  0  0
 13 14  1  0  0  0  0
 14 15  2  0  0  0  0
 14 44  1  0  0  0  0
 15 16  1  0  0  0  0
 16 20  1  0  0  0  0
 16 17  2  0  0  0  0
 17 18  1  0  0  0  0
 18 19  2  0  0  0  0
 19 20  1  0  0  0  0
 19 45  1  0  0  0  0
 20 21  1  0  0  0  0
 21 22  1  0  0  0  0
 21 46  1  0  0  0  0
 21 47  1  0  0  0  0
 22 27  1  0  0  0  0
 22 23  1  0  0  0  0
 22 24  1  0  0  0  0
 23 48  1  0  0  0  0
 24 25  1  0  0  0  0
 24 49  1  0  0  0  0
 24 50  1  0  0  0  0
 25 26  1  0  0  0  0
 25 51  1  0  0  0  0
 25 52  1  0  0  0  0
 26 27  1  0  0  0  0
 27 28  1  0  0  0  0
 27 53  1  0  0  0  0
 28 54  1  0  0  0  0
 28 55  1  0  0  0  0
 28 56  1  0  0  0  0
M  END
> <s_m_source_file>
AV-unprocessed.smi

> <i_m_source_file_index>
171

> <i_lp_mmshare_version>
43012

> <i_f3d_flags>
0

> <s_epik_input>
W0NIM11bQ0hdKFtDSDNdKVtDSDJdW0NAQEhdMUMoPU8pW05IXVtDSDJdW0NIMl1OMWMobltjSF1uMiljKGMyMyluW2NIXW4zW0NIMl1bQ0BAXTQoW09IXSlbQ0gyXVtDSDJdT1tDQEhdNFtDSDNd

> <s_epik_cmdline>
J2VwaWtfcHl0aG9uJywgJy1waCcsICc3LjAnLCAnLXRuJywgJzgnLCAnLW1hJywgJzIwMCcsICctbWV0YWxfYmluZGluZycsICctaW1hZScsICc8aW5maWxlLm1hZT4nLCAnLW9tYWUnLCAnPG91dGZpbGUubWFlPic=

> <r_lp_tautomer_probability>
1

> <r_epik_Ionization_Penalty>
0.000670584

> <r_epik_Ionization_Penalty_Charging>
0

> <r_epik_Ionization_Penalty_Neutral>
0.000670584

> <r_epik_State_Penalty>
0.000304767

> <r_epik_Charging_Adjusted_Penalty>
0.000304767

> <i_epik_Tot_Q>
0

> <i_epik_Tot_abs_Q>
0

> <r_epik_Metal_State_Penalty>
-0

> <b_epik_Metal_Only>
0

> <s_lp_Force_Field>
OPLS_2005

> <r_lp_Energy>
42.1077

> <b_lp_Chiralities_Consistent>
1

> <s_lp_Variant>
AV-unprocessed.smi:171-1

> <Gold.Version>
5.8.1

> <Gold.Id.Protein>
6NUR|6NUR_protein|mol2

> <Gold.PLP.Fitness>
36.1159

> <Gold.PLP.PLP>
-33.6863

> <Gold.PLP.part.hbond>
-3.8268

> <Gold.PLP.part.metal>
0.0000

> <Gold.PLP.part.buried>
-5.5445

> <Gold.PLP.part.nonpolar>
-25.5370

> <Gold.PLP.part.repulsive>
0.2777

> <Gold.PLP.ligand.clash>
0.0000

> <Gold.PLP.ligand.torsion>
0.6668

> <Gold.PLP.Chemscore.Hbond>
1.1060

> <Gold.PLP.Chemscore.CHOScore>
0.0000

> <Gold.PLP.Chemscore.Metal>
0.0000

> <Gold.Chemscore.Hbonds>
donor molecule, donor type, donor heavy atom, donor atom, acceptor molecule, acceptor atom, score
      P1  H  7989  7998       L1    26  0.90
      P1  H 10752 10765       L1    23  0.29

> <Gold.PLP.Chemscore.Internal.Correction>
0.4451

> <Gold.Rescore>
     Score         DG    S(hbond)    S(metal)    S(lipo)     H(rot)  DE(clash)    DE(int)     intcor
      5.40      -9.34       0.51        0.00      75.53       2.61       0.02       3.92       ----

> <Gold.Chemscore.Fitness>
5.3992

> <Gold.Chemscore.DG>
-9.3421

> <Gold.Chemscore.ZeroCoef>
-5.4800

> <Gold.Chemscore.Hbond>
0.5090

> <Gold.Chemscore.Metal>
0.0000

> <Gold.Chemscore.Lipo>
75.5291

> <Gold.Chemscore.Internal_Hbond>
0.0000

> <Gold.Chemscore.DEClash>
0.0240

> <Gold.Chemscore.DEInternal>
3.9188

> <Gold.Chemscore.Rot>
2.6074

> <Gold.Chemscore.Internal.Correction>
   9.000000E+99

> <Gold.Chemscore.Hbonds>
donor molecule, donor type, donor heavy atom, donor atom, acceptor molecule, acceptor atom, score
      P1  H  7989  7998       L1    26  0.04
      P1  H 10752 10765       L1    23  0.22

> <Gold.Chemscore.Hbond.Weighted>
-1.7000

> <Gold.Chemscore.Metal.Weighted>
-0.0000

> <Gold.Chemscore.Lipo.Weighted>
-8.8369

> <Gold.Chemscore.Internal_Hbond.Weighted>
0.0000

> <Gold.Chemscore.DEClash.Weighted>
0.0240

> <Gold.Chemscore.DEInternal.Weighted>
3.9188

> <Gold.Chemscore.Rot.Weighted>
6.6748

> <Gold.Chemscore.Internal.Correction.Weighted>
   9.000000E+99

> <Gold.Protein.RotatedTorsions>
[ 6907 6896 6895 6894 ] final -120.12 input  -60.11 | X-H torsion
[ 7974 7965 7964 7962 ] final   44.28 input  175.53 | X-H torsion
[ 8008 7997 7996 7995 ] final   54.11 input   59.86 | X-H torsion
[ 10167 10162 10161 10158 ] final   69.17 input  -65.29 | X-H torsion
[ 10718 10713 10712 10709 ] final  139.65 input   66.30 | X-H torsion
[ 10763 10752 10751 10750 ] final -168.54 input  -60.55 | X-H torsion
[ 11005 11000 10999 10996 ] final  -53.26 input  -57.11 | X-H torsion

> <Gold.Protein.ActiveResidues>
 VAL166  LYS551  ARG553  GLY616  TRP617  ASP618  TYR619  PRO620  LYS621  CYS622 
 ASP623  PHE694  ASN695  SER759  ASP760  ASP761  ALA762  ILE779  LEU786  VAL792 
 PHE793  MET794  SER795  GLU796  ALA797  LYS798  CYS799  TRP800  GLU811  SER814 

> <Gold.Protein.RotatedAtoms>
  150.8365  133.8005  159.3077 H   0  0  0  0  0  0  0  0  0  0  0  0  # atno 6907 bound_to 6896
  151.5719  135.1060  160.0007 H   0  0  0  0  0  0  0  0  0  0  0  0  # atno 6908 bound_to 6896
  152.4436  133.7453  159.6720 H   0  0  0  0  0  0  0  0  0  0  0  0  # atno 6909 bound_to 6896
  146.0583  139.5093  142.9675 H   0  0  0  0  0  0  0  0  0  0  0  0  # atno 7974 bound_to 7965
  155.4793  140.3468  155.4337 H   0  0  0  0  0  0  0  0  0  0  0  0  # atno 8008 bound_to 7997
  156.1049  140.1445  156.9446 H   0  0  0  0  0  0  0  0  0  0  0  0  # atno 8009 bound_to 7997
  154.4718  140.0898  156.7141 H   0  0  0  0  0  0  0  0  0  0  0  0  # atno 8010 bound_to 7997
  140.0707  144.5155  150.7229 H   0  0  0  0  0  0  0  0  0  0  0  0  # atno 10167 bound_to 10162
  157.4121  131.1029  151.0443 H   0  0  0  0  0  0  0  0  0  0  0  0  # atno 10718 bound_to 10713
  154.6618  135.2926  154.9856 H   0  0  0  0  0  0  0  0  0  0  0  0  # atno 10763 bound_to 10752
  154.0913  135.6590  153.4857 H   0  0  0  0  0  0  0  0  0  0  0  0  # atno 10764 bound_to 10752
  153.0434  135.5221  154.7573 H   0  0  0  0  0  0  0  0  0  0  0  0  # atno 10765 bound_to 10752
  141.0967  133.6623  156.4146 H   0  0  0  0  0  0  0  0  0  0  0  0  # atno 11005 bound_to 11000
  145.6606  141.0241  143.1711 LP  0  0  0  0  0  0  0  0  0  0  0  0  # atno 17320 bound_to 7965
  144.7160  139.8196  143.7398 LP  0  0  0  0  0  0  0  0  0  0  0  0  # atno 17321 bound_to 7965
  140.7127  143.2518  151.4532 LP  0  0  0  0  0  0  0  0  0  0  0  0  # atno 17342 bound_to 10162
  139.5838  144.1651  152.2002 LP  0  0  0  0  0  0  0  0  0  0  0  0  # atno 17343 bound_to 10162
  157.1404  130.6140  149.5553 LP  0  0  0  0  0  0  0  0  0  0  0  0  # atno 17370 bound_to 10713
  155.9854  130.4883  150.7028 LP  0  0  0  0  0  0  0  0  0  0  0  0  # atno 17371 bound_to 10713
  140.5123  134.6383  157.5289 LP  0  0  0  0  0  0  0  0  0  0  0  0  # atno 17394 bound_to 11000
  139.9805  134.7144  155.9868 LP  0  0  0  0  0  0  0  0  0  0  0  0  # atno 17395 bound_to 11000

$$$$
