AV-unprocessed.smi:196|AV-procd|sdf|1539|dock10
  -GOLD-   2262019393D 1   1.00000     0.00000
 Structure written by MMmdl.
 47 50  0  0  0  0  0  0  0  0  1 V2000
  151.1636  139.2427  157.5775 C   0  0  0  0  0  0  0  0  0  0  0  0
  151.5677  139.5621  156.1296 C   0  0  1  0  0  0  0  0  0  0  0  0
  152.9747  139.3641  156.0192 O   0  0  0  0  0  0  0  0  0  0  0  0
  153.2791  138.9680  154.6940 C   0  0  0  0  0  0  0  0  0  0  0  0
  152.1398  138.0143  154.3687 C   0  0  0  0  0  0  0  0  0  0  0  0
  150.9301  138.6881  155.0125 C   0  0  2  0  0  0  0  0  0  0  0  0
  150.3634  139.5641  154.0527 O   0  0  0  0  0  0  0  0  0  0  0  0
  149.8298  137.6904  155.4616 C   0  0  0  0  0  0  0  0  0  0  0  0
  150.3602  136.4316  155.9626 N   0  0  0  0  0  0  0  0  0  0  0  0
  151.1623  136.2562  157.0683 C   0  0  0  0  0  0  0  0  0  0  0  0
  151.5179  135.0238  157.3099 N   0  0  0  0  0  0  0  0  0  0  0  0
  150.9037  134.2932  156.3009 C   0  0  0  0  0  0  0  0  0  0  0  0
  150.8672  132.9129  155.9681 C   0  0  0  0  0  0  0  0  0  0  0  0
  151.5596  131.9963  156.6966 N   0  0  0  0  0  0  0  0  0  0  0  0
  152.4112  131.1769  155.8412 C   0  0  0  0  0  0  0  0  0  0  0  0
  151.6485  129.8635  155.6045 C   0  0  2  0  0  0  0  0  0  0  0  0
  151.1235  129.8333  154.3790 F   0  0  0  0  0  0  0  0  0  0  0  0
  150.5336  129.8508  156.6590 C   0  0  0  0  0  0  0  0  0  0  0  0
  150.8844  131.0330  157.5786 C   0  0  2  0  0  0  0  0  0  0  0  0
  149.7338  131.5595  158.4626 C   0  0  0  0  0  0  0  0  0  0  0  0
  149.1858  130.6967  159.3219 N   0  0  0  0  0  0  0  0  0  0  0  0
  149.3711  132.7336  158.4102 O   0  0  0  0  0  0  0  0  0  0  0  0
  150.1524  132.5504  154.8690 N   0  0  0  0  0  0  0  0  0  0  0  0
  149.4983  133.4734  154.1579 C   0  0  0  0  0  0  0  0  0  0  0  0
  149.4363  134.7916  154.3572 N   0  0  0  0  0  0  0  0  0  0  0  0
  150.1663  135.1613  155.4482 C   0  0  0  0  0  0  0  0  0  0  0  0
  152.3097  129.0010  155.6930 H   0  0  0  0  0  0  0  0  0  0  0  0
  151.6485  130.6947  158.2811 H   0  0  0  0  0  0  0  0  0  0  0  0
  150.0940  139.3834  157.7335 H   0  0  0  0  0  0  0  0  0  0  0  0
  151.6827  139.9017  158.2737 H   0  0  0  0  0  0  0  0  0  0  0  0
  151.4179  138.2179  157.8486 H   0  0  0  0  0  0  0  0  0  0  0  0
  151.3691  140.6194  155.9440 H   0  0  0  0  0  0  0  0  0  0  0  0
  153.2678  139.8372  154.0347 H   0  0  0  0  0  0  0  0  0  0  0  0
  154.2589  138.4946  154.6290 H   0  0  0  0  0  0  0  0  0  0  0  0
  152.0264  137.8286  153.2995 H   0  0  0  0  0  0  0  0  0  0  0  0
  152.3378  137.0570  154.8525 H   0  0  0  0  0  0  0  0  0  0  0  0
  149.5787  139.1656  153.7083 H   0  0  0  0  0  0  0  0  0  0  0  0
  149.2203  138.1257  156.2538 H   0  0  0  0  0  0  0  0  0  0  0  0
  149.1525  137.4711  154.6351 H   0  0  0  0  0  0  0  0  0  0  0  0
  151.4834  137.0781  157.6914 H   0  0  0  0  0  0  0  0  0  0  0  0
  152.6894  131.6610  154.9025 H   0  0  0  0  0  0  0  0  0  0  0  0
  153.3395  130.9814  156.3798 H   0  0  0  0  0  0  0  0  0  0  0  0
  149.5590  129.9924  156.1892 H   0  0  0  0  0  0  0  0  0  0  0  0
  150.5013  128.9062  157.2026 H   0  0  0  0  0  0  0  0  0  0  0  0
  148.4329  130.9945  159.9247 H   0  0  0  0  0  0  0  0  0  0  0  0
  149.5311  129.7489  159.3674 H   0  0  0  0  0  0  0  0  0  0  0  0
  148.9477  133.1031  153.3058 H   0  0  0  0  0  0  0  0  0  0  0  0
  1  2  1  0  0  0  0
  1 29  1  0  0  0  0
  1 30  1  0  0  0  0
  1 31  1  0  0  0  0
  2  6  1  0  0  0  0
  2  3  1  0  0  0  0
  2 32  1  0  0  0  0
  3  4  1  0  0  0  0
  4  5  1  0  0  0  0
  4 33  1  0  0  0  0
  4 34  1  0  0  0  0
  5  6  1  0  0  0  0
  5 35  1  0  0  0  0
  5 36  1  0  0  0  0
  6  7  1  0  0  0  0
  6  8  1  0  0  0  0
  7 37  1  0  0  0  0
  8  9  1  0  0  0  0
  8 38  1  0  0  0  0
  8 39  1  0  0  0  0
  9 26  1  0  0  0  0
  9 10  1  0  0  0  0
 10 11  2  0  0  0  0
 10 40  1  0  0  0  0
 11 12  1  0  0  0  0
 12 26  2  0  0  0  0
 12 13  1  0  0  0  0
 13 14  1  0  0  0  0
 13 23  2  0  0  0  0
 14 19  1  0  0  0  0
 14 15  1  0  0  0  0
 15 16  1  0  0  0  0
 15 41  1  0  0  0  0
 15 42  1  0  0  0  0
 16 27  1  0  0  0  0
 16 17  1  0  0  0  0
 16 18  1  0  0  0  0
 18 19  1  0  0  0  0
 18 43  1  0  0  0  0
 18 44  1  0  0  0  0
 19 28  1  0  0  0  0
 19 20  1  0  0  0  0
 20 21  1  0  0  0  0
 20 22  2  0  0  0  0
 21 45  1  0  0  0  0
 21 46  1  0  0  0  0
 23 24  1  0  0  0  0
 24 25  2  0  0  0  0
 24 47  1  0  0  0  0
 25 26  1  0  0  0  0
M  END
> <s_m_source_file>
AV-unprocessed.smi

> <i_m_source_file_index>
196

> <i_lp_mmshare_version>
43012

> <i_f3d_flags>
0

> <s_epik_input>
W0NIMl0xW0NIMl1PW0NAQEhdKFtDSDNdKVtDQEBdMShbT0hdKVtDSDJdbihbY0hdbjIpYyhjMjMpbltjSF1uYzNONFtDSDJdW0NASF0oRilbQ0gyXVtDQEhdNEMoPU8pW05IMl0=

> <s_epik_cmdline>
J2VwaWtfcHl0aG9uJywgJy1waCcsICc3LjAnLCAnLXRuJywgJzgnLCAnLW1hJywgJzIwMCcsICctbWV0YWxfYmluZGluZycsICctaW1hZScsICc8aW5maWxlLm1hZT4nLCAnLW9tYWUnLCAnPG91dGZpbGUubWFlPic=

> <r_lp_tautomer_probability>
1

> <r_epik_Ionization_Penalty>
0.000857933

> <r_epik_Ionization_Penalty_Charging>
0

> <r_epik_Ionization_Penalty_Neutral>
0.000857933

> <r_epik_State_Penalty>
0.000462053

> <r_epik_Charging_Adjusted_Penalty>
0.000462053

> <i_epik_Tot_Q>
0

> <i_epik_Tot_abs_Q>
0

> <r_epik_Metal_State_Penalty>
-0

> <b_epik_Metal_Only>
0

> <s_lp_Force_Field>
OPLS_2005

> <r_lp_Energy>
50.8061

> <b_lp_Chiralities_Consistent>
1

> <s_lp_Variant>
AV-unprocessed.smi:196-12

> <Gold.Version>
5.8.1

> <Gold.Id.Protein>
6NUR|6NUR_protein|mol2

> <Gold.PLP.Fitness>
42.5312

> <Gold.PLP.PLP>
-34.7120

> <Gold.PLP.part.hbond>
-4.9836

> <Gold.PLP.part.metal>
0.0000

> <Gold.PLP.part.buried>
-6.4276

> <Gold.PLP.part.nonpolar>
-25.3243

> <Gold.PLP.part.repulsive>
1.8053

> <Gold.PLP.ligand.clash>
0.0000

> <Gold.PLP.ligand.torsion>
0.6214

> <Gold.PLP.Chemscore.Hbond>
3.0000

> <Gold.PLP.Chemscore.CHOScore>
0.0000

> <Gold.PLP.Chemscore.Metal>
0.0000

> <Gold.Chemscore.Hbonds>
donor molecule, donor type, donor heavy atom, donor atom, acceptor molecule, acceptor atom, score
      P1  H  6896  6907       L1    22  1.00
      P1  H  7989  7998       L1     7  1.00
      P1  H  7997  8009       L1     3  0.50

> <Gold.PLP.Chemscore.Internal.Correction>
0.0621

> <Gold.Rescore>
     Score         DG    S(hbond)    S(metal)    S(lipo)     H(rot)  DE(clash)    DE(int)     intcor
     10.43     -13.58       2.62        0.00      61.02       3.04       0.07       3.08       ----

> <Gold.Chemscore.Fitness>
10.4302

> <Gold.Chemscore.DG>
-13.5792

> <Gold.Chemscore.ZeroCoef>
-5.4800

> <Gold.Chemscore.Hbond>
2.6185

> <Gold.Chemscore.Metal>
0.0000

> <Gold.Chemscore.Lipo>
61.0177

> <Gold.Chemscore.Internal_Hbond>
0.0000

> <Gold.Chemscore.DEClash>
0.0693

> <Gold.Chemscore.DEInternal>
3.0797

> <Gold.Chemscore.Rot>
3.0413

> <Gold.Chemscore.Internal.Correction>
   9.000000E+99

> <Gold.Chemscore.Hbonds>
donor molecule, donor type, donor heavy atom, donor atom, acceptor molecule, acceptor atom, score
      P1  H  6896  6907       L1    22  0.55
      P1  H  7989  7998       L1     7  0.77
      P1  H  7997  8009       L1     3  0.02

> <Gold.Chemscore.Hbond.Weighted>
-8.7458

> <Gold.Chemscore.Metal.Weighted>
-0.0000

> <Gold.Chemscore.Lipo.Weighted>
-7.1391

> <Gold.Chemscore.Internal_Hbond.Weighted>
0.0000

> <Gold.Chemscore.DEClash.Weighted>
0.0693

> <Gold.Chemscore.DEInternal.Weighted>
3.0797

> <Gold.Chemscore.Rot.Weighted>
7.7856

> <Gold.Chemscore.Internal.Correction.Weighted>
   9.000000E+99

> <Gold.Protein.RotatedTorsions>
[ 6907 6896 6895 6894 ] final -120.14 input  -60.11 | X-H torsion
[ 7974 7965 7964 7962 ] final -168.56 input  175.53 | X-H torsion
[ 8008 7997 7996 7995 ] final -147.53 input   59.86 | X-H torsion
[ 10167 10162 10161 10158 ] final -154.74 input  -65.29 | X-H torsion
[ 10718 10713 10712 10709 ] final   36.19 input   66.30 | X-H torsion
[ 10763 10752 10751 10750 ] final   52.34 input  -60.55 | X-H torsion
[ 11005 11000 10999 10996 ] final -143.83 input  -57.11 | X-H torsion

> <Gold.Protein.ActiveResidues>
 VAL166  LYS551  ARG553  GLY616  TRP617  ASP618  TYR619  PRO620  LYS621  CYS622 
 ASP623  PHE694  ASN695  SER759  ASP760  ASP761  ALA762  ILE779  LEU786  VAL792 
 PHE793  MET794  SER795  GLU796  ALA797  LYS798  CYS799  TRP800  GLU811  SER814 

> <Gold.Protein.RotatedAtoms>
  150.8367  133.8002  159.3076 H   0  0  0  0  0  0  0  0  0  0  0  0  # atno 6907 bound_to 6896
  151.5716  135.1060  160.0006 H   0  0  0  0  0  0  0  0  0  0  0  0  # atno 6908 bound_to 6896
  152.4438  133.7456  159.6721 H   0  0  0  0  0  0  0  0  0  0  0  0  # atno 6909 bound_to 6896
  144.7201  140.2351  143.6299 H   0  0  0  0  0  0  0  0  0  0  0  0  # atno 7974 bound_to 7965
  155.5770  140.0639  157.2792 H   0  0  0  0  0  0  0  0  0  0  0  0  # atno 8008 bound_to 7997
  154.4344  140.1859  156.0983 H   0  0  0  0  0  0  0  0  0  0  0  0  # atno 8009 bound_to 7997
  156.0334  140.3304  155.7168 H   0  0  0  0  0  0  0  0  0  0  0  0  # atno 8010 bound_to 7997
  139.6988  143.9297  152.2419 H   0  0  0  0  0  0  0  0  0  0  0  0  # atno 10167 bound_to 10162
  157.3318  130.7502  149.6852 H   0  0  0  0  0  0  0  0  0  0  0  0  # atno 10718 bound_to 10713
  152.9788  135.5816  154.4562 H   0  0  0  0  0  0  0  0  0  0  0  0  # atno 10763 bound_to 10752
  154.4144  135.2770  155.2018 H   0  0  0  0  0  0  0  0  0  0  0  0  # atno 10764 bound_to 10752
  154.3794  135.6150  153.5836 H   0  0  0  0  0  0  0  0  0  0  0  0  # atno 10765 bound_to 10752
  140.8085  134.2772  157.4950 H   0  0  0  0  0  0  0  0  0  0  0  0  # atno 11005 bound_to 11000
  145.8373  139.2113  143.1848 LP  0  0  0  0  0  0  0  0  0  0  0  0  # atno 17320 bound_to 7965
  146.0378  140.8195  142.9844 LP  0  0  0  0  0  0  0  0  0  0  0  0  # atno 17321 bound_to 7965
  139.9133  144.6843  150.8538 LP  0  0  0  0  0  0  0  0  0  0  0  0  # atno 17342 bound_to 10162
  140.7704  143.3427  151.2174 LP  0  0  0  0  0  0  0  0  0  0  0  0  # atno 17343 bound_to 10162
  155.9697  130.4193  150.4368 LP  0  0  0  0  0  0  0  0  0  0  0  0  # atno 17370 bound_to 10713
  157.2401  131.0523  151.2441 LP  0  0  0  0  0  0  0  0  0  0  0  0  # atno 17371 bound_to 10713
  139.8716  134.9470  156.3954 LP  0  0  0  0  0  0  0  0  0  0  0  0  # atno 17394 bound_to 11000
  140.9222  133.7637  155.9920 LP  0  0  0  0  0  0  0  0  0  0  0  0  # atno 17395 bound_to 11000

$$$$
