AV-unprocessed.smi:1586|AV-procd|sdf|6374|dock9
  -GOLD-   22720 7 03D 1   1.00000     0.00000
 Structure written by MMmdl.
 47 48  0  0  0  0  0  0  0  0  2 V2000
  145.0272  143.5742  156.0582 C   0  0  0  0  0  0  0  0  0  0  0  0
  145.6323  142.7158  154.9383 C   0  0  0  0  0  0  0  0  0  0  0  0
  147.0786  142.4517  155.1403 N   0  3  0  0  0  0  0  0  0  0  0  0
  147.6726  141.6834  154.0198 C   0  0  0  0  0  0  0  0  0  0  0  0
  149.1857  141.4813  154.2447 C   0  0  0  0  0  0  0  0  0  0  0  0
  149.4613  140.7600  155.4948 N   0  0  0  0  0  0  0  0  0  0  0  0
  149.0490  139.3390  155.5097 C   0  0  1  0  0  0  0  0  0  0  0  0
  149.1064  138.7189  154.0963 C   0  0  0  0  0  0  0  0  0  0  0  0
  149.9083  138.4933  156.4812 C   0  0  0  0  0  0  0  0  0  0  0  0
  149.1038  137.5161  157.2064 N   0  0  0  0  0  0  0  0  0  0  0  0
  148.9393  137.5025  158.5351 C   0  0  0  0  0  0  0  0  0  0  0  0
  149.4671  138.3191  159.2899 O   0  0  0  0  0  0  0  0  0  0  0  0
  148.1395  136.4915  158.9137 N   0  0  0  0  0  0  0  0  0  0  0  0
  147.6996  136.1565  160.2199 C   0  0  0  0  0  0  0  0  0  0  0  0
  147.2753  134.8702  160.6636 C   0  0  0  0  0  0  0  0  0  0  0  0
  146.9704  135.0855  161.9780 C   0  0  0  0  0  0  0  0  0  0  0  0
  146.4674  134.1949  163.0618 C   0  0  0  0  0  0  0  0  0  0  0  0
  147.1920  136.3859  162.3094 O   0  0  0  0  0  0  0  0  0  0  0  0
  147.6607  137.0637  161.1781 N   0  0  0  0  0  0  0  0  0  0  0  0
  148.9128  141.5819  156.5828 C   0  0  0  0  0  0  0  0  0  0  0  0
  147.3910  141.7986  156.4369 C   0  0  0  0  0  0  0  0  0  0  0  0
  143.9917  143.8264  155.8287 H   0  0  0  0  0  0  0  0  0  0  0  0
  145.5745  144.5098  156.1782 H   0  0  0  0  0  0  0  0  0  0  0  0
  145.0276  143.0564  157.0170 H   0  0  0  0  0  0  0  0  0  0  0  0
  145.0889  141.7748  154.8384 H   0  0  0  0  0  0  0  0  0  0  0  0
  145.4974  143.2516  153.9976 H   0  0  0  0  0  0  0  0  0  0  0  0
  147.1585  140.7286  153.9014 H   0  0  0  0  0  0  0  0  0  0  0  0
  147.5238  142.2337  153.0902 H   0  0  0  0  0  0  0  0  0  0  0  0
  149.6380  140.9792  153.3910 H   0  0  0  0  0  0  0  0  0  0  0  0
  149.6752  142.4552  154.2907 H   0  0  0  0  0  0  0  0  0  0  0  0
  148.0171  139.2664  155.8503 H   0  0  0  0  0  0  0  0  0  0  0  0
  148.9421  137.6418  154.1368 H   0  0  0  0  0  0  0  0  0  0  0  0
  150.0743  138.8838  153.6212 H   0  0  0  0  0  0  0  0  0  0  0  0
  148.3333  139.1188  153.4410 H   0  0  0  0  0  0  0  0  0  0  0  0
  150.7234  137.9879  155.9634 H   0  0  0  0  0  0  0  0  0  0  0  0
  150.3935  139.1565  157.1996 H   0  0  0  0  0  0  0  0  0  0  0  0
  148.6406  136.8080  156.6557 H   0  0  0  0  0  0  0  0  0  0  0  0
  147.8016  135.8879  158.1787 H   0  0  0  0  0  0  0  0  0  0  0  0
  147.2024  133.9378  160.1248 H   0  0  0  0  0  0  0  0  0  0  0  0
  146.1179  133.2455  162.6559 H   0  0  0  0  0  0  0  0  0  0  0  0
  145.6370  134.6610  163.5927 H   0  0  0  0  0  0  0  0  0  0  0  0
  147.2559  133.9838  163.7842 H   0  0  0  0  0  0  0  0  0  0  0  0
  149.1475  141.1558  157.5566 H   0  0  0  0  0  0  0  0  0  0  0  0
  149.4149  142.5505  156.5705 H   0  0  0  0  0  0  0  0  0  0  0  0
  147.0517  142.4302  157.2570 H   0  0  0  0  0  0  0  0  0  0  0  0
  146.8486  140.8570  156.5278 H   0  0  0  0  0  0  0  0  0  0  0  0
  147.5430  143.3487  155.1427 H   0  0  0  0  0  0  0  0  0  0  0  0
  1  2  1  0  0  0  0
  1 22  1  0  0  0  0
  1 23  1  0  0  0  0
  1 24  1  0  0  0  0
  2  3  1  0  0  0  0
  2 25  1  0  0  0  0
  2 26  1  0  0  0  0
  3 21  1  0  0  0  0
  3  4  1  0  0  0  0
  3 47  1  0  0  0  0
  4  5  1  0  0  0  0
  4 27  1  0  0  0  0
  4 28  1  0  0  0  0
  5  6  1  0  0  0  0
  5 29  1  0  0  0  0
  5 30  1  0  0  0  0
  6  7  1  0  0  0  0
  6 20  1  0  0  0  0
  7  8  1  0  0  0  0
  7  9  1  0  0  0  0
  7 31  1  0  0  0  0
  8 32  1  0  0  0  0
  8 33  1  0  0  0  0
  8 34  1  0  0  0  0
  9 10  1  0  0  0  0
  9 35  1  0  0  0  0
  9 36  1  0  0  0  0
 10 11  1  0  0  0  0
 10 37  1  0  0  0  0
 11 12  2  0  0  0  0
 11 13  1  0  0  0  0
 13 14  1  0  0  0  0
 13 38  1  0  0  0  0
 14 19  2  0  0  0  0
 14 15  1  0  0  0  0
 15 16  2  0  0  0  0
 15 39  1  0  0  0  0
 16 17  1  0  0  0  0
 16 18  1  0  0  0  0
 17 40  1  0  0  0  0
 17 41  1  0  0  0  0
 17 42  1  0  0  0  0
 18 19  1  0  0  0  0
 20 21  1  0  0  0  0
 20 43  1  0  0  0  0
 20 44  1  0  0  0  0
 21 45  1  0  0  0  0
 21 46  1  0  0  0  0
M  CHG  1   3   1
M  END
> <s_m_source_file>
AV-unprocessed.smi

> <i_m_source_file_index>
1586

> <i_lp_mmshare_version>
43012

> <i_f3d_flags>
0

> <s_epik_input>
W0NIM11bQ0gyXU4xW0NIMl1bQ0gyXU4oW0NIMl1bQ0gyXTEpW0NASF0oW0NIM10pW0NIMl1bTkhdQyg9TylbTkhdYzJbY0hdYyhbQ0gzXSlvbjI=

> <s_epik_cmdline>
J2VwaWtfcHl0aG9uJywgJy1waCcsICc3LjAnLCAnLXRuJywgJzgnLCAnLW1hJywgJzIwMCcsICctbWV0YWxfYmluZGluZycsICctaW1hZScsICc8aW5maWxlLm1hZT4nLCAnLW9tYWUnLCAnPG91dGZpbGUubWFlPic=

> <r_epik_Ionization_Penalty>
0.0459786

> <r_epik_Ionization_Penalty_Charging>
0.0453654

> <r_epik_Ionization_Penalty_Neutral>
0.000613264

> <r_epik_State_Penalty>
0.163057

> <r_epik_Charging_Adjusted_Penalty>
0.208422

> <i_epik_Tot_Q>
1

> <i_epik_Tot_abs_Q>
1

> <r_epik_Metal_State_Penalty>
0.17399

> <b_epik_Metal_Only>
0

> <s_lp_Force_Field>
OPLS_2005

> <r_lp_Energy>
25.6668

> <b_lp_Chiralities_Consistent>
1

> <s_lp_Variant>
AV-unprocessed.smi:1586-2

> <Gold.Version>
5.8.1

> <Gold.Id.Protein>
6NUR|6NUR_protein|mol2

> <Gold.PLP.Fitness>
36.7761

> <Gold.PLP.PLP>
-27.6219

> <Gold.PLP.part.hbond>
-4.7325

> <Gold.PLP.part.metal>
0.0000

> <Gold.PLP.part.buried>
0.8615

> <Gold.PLP.part.nonpolar>
-24.4260

> <Gold.PLP.part.repulsive>
0.2969

> <Gold.PLP.ligand.clash>
0.0000

> <Gold.PLP.ligand.torsion>
1.2555

> <Gold.PLP.Chemscore.Hbond>
3.8723

> <Gold.PLP.Chemscore.CHOScore>
0.0000

> <Gold.PLP.Chemscore.Metal>
0.0000

> <Gold.Chemscore.Hbonds>
donor molecule, donor type, donor heavy atom, donor atom, acceptor molecule, acceptor atom, score
      L1  H     3    47       P1  8028  1.90
      P1  H  6931  6943       L1    19  0.99
      P1  H  6934  6947       L1    19  0.90

> <Gold.PLP.Chemscore.Internal.Correction>
0.0483

> <Gold.Rescore>
     Score         DG    S(hbond)    S(metal)    S(lipo)     H(rot)  DE(clash)    DE(int)     intcor
     11.84     -14.71       1.94        0.00      62.05       1.76       0.46       2.41       ----

> <Gold.Chemscore.Fitness>
11.8363

> <Gold.Chemscore.DG>
-14.7087

> <Gold.Chemscore.ZeroCoef>
-5.4800

> <Gold.Chemscore.Hbond>
1.9413

> <Gold.Chemscore.Metal>
0.0000

> <Gold.Chemscore.Lipo>
62.0483

> <Gold.Chemscore.Internal_Hbond>
0.0000

> <Gold.Chemscore.DEClash>
0.4599

> <Gold.Chemscore.DEInternal>
2.4125

> <Gold.Chemscore.Rot>
1.7637

> <Gold.Chemscore.Internal.Correction>
   9.000000E+99

> <Gold.Chemscore.Hbonds>
donor molecule, donor type, donor heavy atom, donor atom, acceptor molecule, acceptor atom, score
      L1  H     3    47       P1  8028  0.21
      P1  H  6931  6943       L1    19  0.37
      P1  H  6934  6947       L1    19  0.80

> <Gold.Chemscore.Hbond.Weighted>
-6.4840

> <Gold.Chemscore.Metal.Weighted>
-0.0000

> <Gold.Chemscore.Lipo.Weighted>
-7.2597

> <Gold.Chemscore.Internal_Hbond.Weighted>
0.0000

> <Gold.Chemscore.DEClash.Weighted>
0.4599

> <Gold.Chemscore.DEInternal.Weighted>
2.4125

> <Gold.Chemscore.Rot.Weighted>
4.5150

> <Gold.Chemscore.Internal.Correction.Weighted>
   9.000000E+99

> <Gold.Protein.RotatedTorsions>
[ 6907 6896 6895 6894 ] final   37.67 input  -60.11 | X-H torsion
[ 7974 7965 7964 7962 ] final  -62.08 input  175.53 | X-H torsion
[ 8008 7997 7996 7995 ] final  -13.28 input   59.86 | X-H torsion
[ 10167 10162 10161 10158 ] final -176.55 input  -65.29 | X-H torsion
[ 10718 10713 10712 10709 ] final   67.79 input   66.30 | X-H torsion
[ 10763 10752 10751 10750 ] final   53.27 input  -60.55 | X-H torsion
[ 11005 11000 10999 10996 ] final  -19.58 input  -57.11 | X-H torsion

> <Gold.Protein.ActiveResidues>
 VAL166  LYS551  ARG553  GLY616  TRP617  ASP618  TYR619  PRO620  LYS621  CYS622 
 ASP623  PHE694  ASN695  SER759  ASP760  ASP761  ALA762  ILE779  LEU786  VAL792 
 PHE793  MET794  SER795  GLU796  ALA797  LYS798  CYS799  TRP800  GLU811  SER814 

> <Gold.Protein.RotatedAtoms>
  152.1462  134.9024  160.0550 H   0  0  0  0  0  0  0  0  0  0  0  0  # atno 6907 bound_to 6896
  152.0073  133.3843  159.4214 H   0  0  0  0  0  0  0  0  0  0  0  0  # atno 6908 bound_to 6896
  150.6870  134.3690  159.5028 H   0  0  0  0  0  0  0  0  0  0  0  0  # atno 6909 bound_to 6896
  145.7956  140.8684  143.0258 H   0  0  0  0  0  0  0  0  0  0  0  0  # atno 7974 bound_to 7965
  154.5306  140.2254  155.8811 H   0  0  0  0  0  0  0  0  0  0  0  0  # atno 8008 bound_to 7997
  156.1759  140.3111  155.9023 H   0  0  0  0  0  0  0  0  0  0  0  0  # atno 8009 bound_to 7997
  155.3459  140.0453  157.3036 H   0  0  0  0  0  0  0  0  0  0  0  0  # atno 8010 bound_to 7997
  139.5524  144.2075  152.1101 H   0  0  0  0  0  0  0  0  0  0  0  0  # atno 10167 bound_to 10162
  157.6251  130.9339  150.0290 H   0  0  0  0  0  0  0  0  0  0  0  0  # atno 10718 bound_to 10713
  152.9794  135.5784  154.4714 H   0  0  0  0  0  0  0  0  0  0  0  0  # atno 10763 bound_to 10752
  154.4276  135.2773  155.1936 H   0  0  0  0  0  0  0  0  0  0  0  0  # atno 10764 bound_to 10752
  154.3658  135.6178  153.5768 H   0  0  0  0  0  0  0  0  0  0  0  0  # atno 10765 bound_to 10752
  140.8380  133.7947  155.9830 H   0  0  0  0  0  0  0  0  0  0  0  0  # atno 11005 bound_to 11000
  144.6775  140.0186  143.7484 LP  0  0  0  0  0  0  0  0  0  0  0  0  # atno 17320 bound_to 7965
  145.9931  139.3031  143.0973 LP  0  0  0  0  0  0  0  0  0  0  0  0  # atno 17321 bound_to 7965
  140.1573  144.5059  150.6653 LP  0  0  0  0  0  0  0  0  0  0  0  0  # atno 17342 bound_to 10162
  140.6790  143.2318  151.5434 LP  0  0  0  0  0  0  0  0  0  0  0  0  # atno 17343 bound_to 10162
  156.1418  130.3642  149.9570 LP  0  0  0  0  0  0  0  0  0  0  0  0  # atno 17370 bound_to 10713
  156.7609  130.9150  151.3641 LP  0  0  0  0  0  0  0  0  0  0  0  0  # atno 17371 bound_to 10713
  140.8926  134.2477  157.5086 LP  0  0  0  0  0  0  0  0  0  0  0  0  # atno 17394 bound_to 11000
  139.8703  134.9668  156.4577 LP  0  0  0  0  0  0  0  0  0  0  0  0  # atno 17395 bound_to 11000

$$$$
