AV-unprocessed.smi:1572|AV-procd|sdf|6329|dock4
  -GOLD-   22720 6543D 1   1.00000     0.00000
 Structure written by MMmdl.
 42 43  0  0  0  0  0  0  0  0  1 V2000
  146.4088  142.6519  154.1354 C   0  0  0  0  0  0  0  0  0  0  0  0
  147.1888  141.5453  154.6678 N   0  0  0  0  0  0  0  0  0  0  0  0
  148.3017  141.1991  153.7888 C   0  0  0  0  0  0  0  0  0  0  0  0
  149.1146  140.0167  154.3480 C   0  0  0  0  0  0  0  0  0  0  0  0
  149.6527  140.3062  155.6872 N   0  0  0  0  0  0  0  0  0  0  0  0
  150.5565  139.2573  156.2384 C   0  0  0  0  0  0  0  0  0  0  0  0
  151.8463  139.0691  155.4032 C   0  0  0  0  0  0  0  0  0  0  0  0
  150.9972  139.6044  157.6834 C   0  0  0  0  0  0  0  0  0  0  0  0
  149.8502  137.8713  156.3100 C   0  0  0  0  0  0  0  0  0  0  0  0
  148.9079  137.7744  157.4250 N   0  0  0  0  0  0  0  0  0  0  0  0
  149.0098  136.9356  158.4660 C   0  0  0  0  0  0  0  0  0  0  0  0
  149.9168  136.1125  158.5915 O   0  0  0  0  0  0  0  0  0  0  0  0
  148.0054  137.1244  159.3399 N   0  0  0  0  0  0  0  0  0  0  0  0
  147.7638  136.4449  160.5631 C   0  0  0  0  0  0  0  0  0  0  0  0
  147.4928  137.0684  161.7208 N   0  0  0  0  0  0  0  0  0  0  0  0
  147.2998  136.1701  162.7623 N   0  0  0  0  0  0  0  0  0  0  0  0
  147.4320  134.9062  162.3498 C   0  0  0  0  0  0  0  0  0  0  0  0
  147.8064  134.6894  160.6486 S   0  0  0  0  0  0  0  0  0  0  0  0
  148.5254  140.6702  156.5619 C   0  0  0  0  0  0  0  0  0  0  0  0
  147.7169  141.8502  155.9935 C   0  0  0  0  0  0  0  0  0  0  0  0
  146.0020  142.4011  153.1552 H   0  0  0  0  0  0  0  0  0  0  0  0
  147.0184  143.5504  154.0312 H   0  0  0  0  0  0  0  0  0  0  0  0
  145.5704  142.8842  154.7929 H   0  0  0  0  0  0  0  0  0  0  0  0
  147.9222  140.9389  152.8000 H   0  0  0  0  0  0  0  0  0  0  0  0
  148.9561  142.0620  153.6546 H   0  0  0  0  0  0  0  0  0  0  0  0
  148.4819  139.1295  154.3743 H   0  0  0  0  0  0  0  0  0  0  0  0
  149.9186  139.8108  153.6438 H   0  0  0  0  0  0  0  0  0  0  0  0
  152.4867  138.3028  155.8417 H   0  0  0  0  0  0  0  0  0  0  0  0
  152.4407  139.9808  155.3505 H   0  0  0  0  0  0  0  0  0  0  0  0
  151.6339  138.7524  154.3824 H   0  0  0  0  0  0  0  0  0  0  0  0
  151.5008  138.7629  158.1609 H   0  0  0  0  0  0  0  0  0  0  0  0
  150.1471  139.8725  158.3119 H   0  0  0  0  0  0  0  0  0  0  0  0
  151.7016  140.4356  157.7122 H   0  0  0  0  0  0  0  0  0  0  0  0
  149.3018  137.6625  155.3920 H   0  0  0  0  0  0  0  0  0  0  0  0
  150.5933  137.0736  156.3648 H   0  0  0  0  0  0  0  0  0  0  0  0
  148.1341  138.4225  157.4132 H   0  0  0  0  0  0  0  0  0  0  0  0
  147.3376  137.8436  159.1054 H   0  0  0  0  0  0  0  0  0  0  0  0
  147.3085  134.0957  163.0526 H   0  0  0  0  0  0  0  0  0  0  0  0
  147.8603  139.8177  156.7008 H   0  0  0  0  0  0  0  0  0  0  0  0
  148.8774  140.9607  157.5497 H   0  0  0  0  0  0  0  0  0  0  0  0
  148.3474  142.7398  155.9510 H   0  0  0  0  0  0  0  0  0  0  0  0
  146.8952  142.0825  156.6719 H   0  0  0  0  0  0  0  0  0  0  0  0
  1  2  1  0  0  0  0
  1 21  1  0  0  0  0
  1 22  1  0  0  0  0
  1 23  1  0  0  0  0
  2 20  1  0  0  0  0
  2  3  1  0  0  0  0
  3  4  1  0  0  0  0
  3 24  1  0  0  0  0
  3 25  1  0  0  0  0
  4  5  1  0  0  0  0
  4 26  1  0  0  0  0
  4 27  1  0  0  0  0
  5  6  1  0  0  0  0
  5 19  1  0  0  0  0
  6  7  1  0  0  0  0
  6  8  1  0  0  0  0
  6  9  1  0  0  0  0
  7 28  1  0  0  0  0
  7 29  1  0  0  0  0
  7 30  1  0  0  0  0
  8 31  1  0  0  0  0
  8 32  1  0  0  0  0
  8 33  1  0  0  0  0
  9 10  1  0  0  0  0
  9 34  1  0  0  0  0
  9 35  1  0  0  0  0
 10 11  1  0  0  0  0
 10 36  1  0  0  0  0
 11 12  2  0  0  0  0
 11 13  1  0  0  0  0
 13 14  1  0  0  0  0
 13 37  1  0  0  0  0
 14 18  1  0  0  0  0
 14 15  2  0  0  0  0
 15 16  1  0  0  0  0
 16 17  2  0  0  0  0
 17 18  1  0  0  0  0
 17 38  1  0  0  0  0
 19 20  1  0  0  0  0
 19 39  1  0  0  0  0
 19 40  1  0  0  0  0
 20 41  1  0  0  0  0
 20 42  1  0  0  0  0
M  END
> <s_m_source_file>
AV-unprocessed.smi

> <i_m_source_file_index>
1572

> <i_lp_mmshare_version>
43012

> <i_f3d_flags>
0

> <s_epik_input>
W0NIM11OMVtDSDJdW0NIMl1OKFtDSDJdW0NIMl0xKUMoW0NIM10pKFtDSDNdKVtDSDJdW05IXUMoPU8pW05IXWMybm5bY0hdczI=

> <s_epik_cmdline>
J2VwaWtfcHl0aG9uJywgJy1waCcsICc3LjAnLCAnLXRuJywgJzgnLCAnLW1hJywgJzIwMCcsICctbWV0YWxfYmluZGluZycsICctaW1hZScsICc8aW5maWxlLm1hZT4nLCAnLW9tYWUnLCAnPG91dGZpbGUubWFlPic=

> <r_lp_tautomer_probability>
1

> <r_epik_Ionization_Penalty>
3.01909

> <r_epik_Ionization_Penalty_Charging>
0

> <r_epik_Ionization_Penalty_Neutral>
3.01909

> <r_epik_State_Penalty>
2.1369

> <r_epik_Charging_Adjusted_Penalty>
2.1369

> <i_epik_Tot_Q>
0

> <i_epik_Tot_abs_Q>
0

> <r_epik_Metal_State_Penalty>
2.47072

> <b_epik_Metal_Only>
0

> <s_lp_Force_Field>
OPLS_2005

> <r_lp_Energy>
48.823

> <b_lp_Chiralities_Consistent>
1

> <s_lp_Variant>
AV-unprocessed.smi:1572-3

> <Gold.Version>
5.8.1

> <Gold.Id.Protein>
6NUR|6NUR_protein|mol2

> <Gold.PLP.Fitness>
35.9153

> <Gold.PLP.PLP>
-28.9367

> <Gold.PLP.part.hbond>
-3.0000

> <Gold.PLP.part.metal>
0.0000

> <Gold.PLP.part.buried>
-2.4953

> <Gold.PLP.part.nonpolar>
-23.4964

> <Gold.PLP.part.repulsive>
0.4002

> <Gold.PLP.ligand.clash>
0.0000

> <Gold.PLP.ligand.torsion>
0.7166

> <Gold.PLP.Chemscore.Hbond>
2.7847

> <Gold.PLP.Chemscore.CHOScore>
0.0000

> <Gold.PLP.Chemscore.Metal>
0.0000

> <Gold.Chemscore.Hbonds>
donor molecule, donor type, donor heavy atom, donor atom, acceptor molecule, acceptor atom, score
      P1  H  6896  6909       L1    12  1.00
      P1  H  6931  6943       L1    15  1.00
      P1  H  6934  6947       L1    15  0.55

> <Gold.PLP.Chemscore.Internal.Correction>
0.0577

> <Gold.Rescore>
     Score         DG    S(hbond)    S(metal)    S(lipo)     H(rot)  DE(clash)    DE(int)     intcor
     13.67     -14.69       1.85        0.00      62.23       1.66       0.15       0.87       ----

> <Gold.Chemscore.Fitness>
13.6714

> <Gold.Chemscore.DG>
-14.6852

> <Gold.Chemscore.ZeroCoef>
-5.4800

> <Gold.Chemscore.Hbond>
1.8477

> <Gold.Chemscore.Metal>
0.0000

> <Gold.Chemscore.Lipo>
62.2285

> <Gold.Chemscore.Internal_Hbond>
0.0000

> <Gold.Chemscore.DEClash>
0.1483

> <Gold.Chemscore.DEInternal>
0.8655

> <Gold.Chemscore.Rot>
1.6590

> <Gold.Chemscore.Internal.Correction>
   9.000000E+99

> <Gold.Chemscore.Hbonds>
donor molecule, donor type, donor heavy atom, donor atom, acceptor molecule, acceptor atom, score
      P1  H  6896  6909       L1    12  0.99
      P1  H  6931  6943       L1    15  0.29
      P1  H  6934  6947       L1    15  0.11

> <Gold.Chemscore.Hbond.Weighted>
-6.1714

> <Gold.Chemscore.Metal.Weighted>
-0.0000

> <Gold.Chemscore.Lipo.Weighted>
-7.2807

> <Gold.Chemscore.Internal_Hbond.Weighted>
0.0000

> <Gold.Chemscore.DEClash.Weighted>
0.1483

> <Gold.Chemscore.DEInternal.Weighted>
0.8655

> <Gold.Chemscore.Rot.Weighted>
4.2469

> <Gold.Chemscore.Internal.Correction.Weighted>
   9.000000E+99

> <Gold.Protein.RotatedTorsions>
[ 6907 6896 6895 6894 ] final   64.29 input  -60.11 | X-H torsion
[ 7974 7965 7964 7962 ] final  -37.90 input  175.53 | X-H torsion
[ 8008 7997 7996 7995 ] final  -27.18 input   59.86 | X-H torsion
[ 10167 10162 10161 10158 ] final -147.53 input  -65.29 | X-H torsion
[ 10718 10713 10712 10709 ] final    9.57 input   66.30 | X-H torsion
[ 10763 10752 10751 10750 ] final -173.90 input  -60.55 | X-H torsion
[ 11005 11000 10999 10996 ] final   19.65 input  -57.11 | X-H torsion

> <Gold.Protein.ActiveResidues>
 VAL166  LYS551  ARG553  GLY616  TRP617  ASP618  TYR619  PRO620  LYS621  CYS622 
 ASP623  PHE694  ASN695  SER759  ASP760  ASP761  ALA762  ILE779  LEU786  VAL792 
 PHE793  MET794  SER795  GLU796  ALA797  LYS798  CYS799  TRP800  GLU811  SER814 

> <Gold.Protein.RotatedAtoms>
  152.4320  134.5760  159.9934 H   0  0  0  0  0  0  0  0  0  0  0  0  # atno 6907 bound_to 6896
  151.5881  133.3364  159.3030 H   0  0  0  0  0  0  0  0  0  0  0  0  # atno 6908 bound_to 6896
  150.8213  134.7458  159.6840 H   0  0  0  0  0  0  0  0  0  0  0  0  # atno 6909 bound_to 6896
  146.0534  140.6450  142.9031 H   0  0  0  0  0  0  0  0  0  0  0  0  # atno 7974 bound_to 7965
  154.4389  140.1879  156.0891 H   0  0  0  0  0  0  0  0  0  0  0  0  # atno 8008 bound_to 7997
  156.0379  140.3323  155.7185 H   0  0  0  0  0  0  0  0  0  0  0  0  # atno 8009 bound_to 7997
  155.5742  140.0615  157.2790 H   0  0  0  0  0  0  0  0  0  0  0  0  # atno 8010 bound_to 7997
  139.7613  143.8372  152.2607 H   0  0  0  0  0  0  0  0  0  0  0  0  # atno 10167 bound_to 10162
  156.9683  130.5959  149.5667 H   0  0  0  0  0  0  0  0  0  0  0  0  # atno 10718 bound_to 10713
  154.6025  135.2856  155.0520 H   0  0  0  0  0  0  0  0  0  0  0  0  # atno 10763 bound_to 10752
  154.1779  135.6461  153.5030 H   0  0  0  0  0  0  0  0  0  0  0  0  # atno 10764 bound_to 10752
  153.0162  135.5416  154.6749 H   0  0  0  0  0  0  0  0  0  0  0  0  # atno 10765 bound_to 10752
  140.4114  134.1614  155.7667 H   0  0  0  0  0  0  0  0  0  0  0  0  # atno 11005 bound_to 11000
  144.7135  140.4125  143.7062 LP  0  0  0  0  0  0  0  0  0  0  0  0  # atno 17320 bound_to 7965
  145.6685  139.1594  143.2768 LP  0  0  0  0  0  0  0  0  0  0  0  0  # atno 17321 bound_to 7965
  139.8379  144.7223  150.9367 LP  0  0  0  0  0  0  0  0  0  0  0  0  # atno 17342 bound_to 10162
  140.7807  143.4010  151.1149 LP  0  0  0  0  0  0  0  0  0  0  0  0  # atno 17343 bound_to 10162
  156.0293  130.5385  150.8492 LP  0  0  0  0  0  0  0  0  0  0  0  0  # atno 17370 bound_to 10713
  157.5610  131.0946  150.9559 LP  0  0  0  0  0  0  0  0  0  0  0  0  # atno 17371 bound_to 10713
  141.1820  133.8394  157.1225 LP  0  0  0  0  0  0  0  0  0  0  0  0  # atno 17394 bound_to 11000
  140.0265  134.9921  157.0696 LP  0  0  0  0  0  0  0  0  0  0  0  0  # atno 17395 bound_to 11000

$$$$
