AV-unprocessed.smi:1033|AV-procd|sdf|4503|dock9
  -GOLD-   22720 2503D 1   1.00000     0.00000
 Structure written by MMmdl.
 57 59  0  0  0  0  0  0  0  0  3 V2000
  152.5462  143.5647  160.2435 C   0  0  0  0  0  0  0  0  0  0  0  0
  152.1132  142.6382  159.1199 C   0  0  0  0  0  0  0  0  0  0  0  0
  151.2313  143.1386  158.1351 C   0  0  0  0  0  0  0  0  0  0  0  0
  150.8542  142.2677  157.1199 C   0  0  0  0  0  0  0  0  0  0  0  0
  150.0120  142.4515  156.0208 N   0  3  0  0  0  0  0  0  0  0  0  0
  149.9500  141.2987  155.2980 C   0  0  0  0  0  0  0  0  0  0  0  0
  150.7396  140.3822  155.9209 N   0  0  0  0  0  0  0  0  0  0  0  0
  151.0247  138.9858  155.5665 C   0  0  0  0  0  0  0  0  0  0  0  0
  150.2858  138.5274  154.2942 C   0  0  1  0  0  0  0  0  0  0  0  0
  150.9234  137.3736  153.7822 O   0  0  0  0  0  0  0  0  0  0  0  0
  148.8134  138.1837  154.5927 C   0  0  0  0  0  0  0  0  0  0  0  0
  147.8651  139.2970  154.4607 N   0  0  0  0  0  0  0  0  0  0  0  0
  147.4388  139.5112  153.0780 C   0  0  0  0  0  0  0  0  0  0  0  0
  146.4940  138.4104  152.5539 C   0  0  0  0  0  0  0  0  0  0  0  0
  145.2960  138.2959  153.4249 N   0  3  0  0  0  0  0  0  0  0  0  0
  144.3239  137.2925  152.9203 C   0  0  0  0  0  0  0  0  0  0  0  0
  142.9338  137.4290  153.5722 C   0  0  2  0  0  0  0  0  0  0  0  0
  142.1367  136.1199  153.5078 C   0  0  0  0  0  0  0  0  0  0  0  0
  142.1966  138.4265  152.8943 O   0  0  0  0  0  0  0  0  0  0  0  0
  145.6955  138.0813  154.8419 C   0  0  0  0  0  0  0  0  0  0  0  0
  146.6675  139.1884  155.2993 C   0  0  0  0  0  0  0  0  0  0  0  0
  151.3237  140.9413  157.0616 C   0  0  0  0  0  0  0  0  0  0  0  0
  152.1919  140.4313  158.0236 C   0  0  0  0  0  0  0  0  0  0  0  0
  152.5862  141.3012  159.0652 C   0  0  0  0  0  0  0  0  0  0  0  0
  153.5321  140.7732  160.1305 C   0  0  0  0  0  0  0  0  0  0  0  0
  152.1079  144.5571  160.1343 H   0  0  0  0  0  0  0  0  0  0  0  0
  153.6305  143.6789  160.2495 H   0  0  0  0  0  0  0  0  0  0  0  0
  152.2338  143.1669  161.2094 H   0  0  0  0  0  0  0  0  0  0  0  0
  150.8661  144.1546  158.1708 H   0  0  0  0  0  0  0  0  0  0  0  0
  149.3759  141.1387  154.3967 H   0  0  0  0  0  0  0  0  0  0  0  0
  152.1036  138.8970  155.4314 H   0  0  0  0  0  0  0  0  0  0  0  0
  150.7665  138.3554  156.4183 H   0  0  0  0  0  0  0  0  0  0  0  0
  150.3573  139.3176  153.5487 H   0  0  0  0  0  0  0  0  0  0  0  0
  150.2744  136.8419  153.3465 H   0  0  0  0  0  0  0  0  0  0  0  0
  148.5154  137.3772  153.9210 H   0  0  0  0  0  0  0  0  0  0  0  0
  148.7481  137.7611  155.5947 H   0  0  0  0  0  0  0  0  0  0  0  0
  146.9309  140.4742  153.0081 H   0  0  0  0  0  0  0  0  0  0  0  0
  148.3118  139.5904  152.4288 H   0  0  0  0  0  0  0  0  0  0  0  0
  146.1834  138.6598  151.5387 H   0  0  0  0  0  0  0  0  0  0  0  0
  147.0076  137.4495  152.4975 H   0  0  0  0  0  0  0  0  0  0  0  0
  144.2124  137.4004  151.8401 H   0  0  0  0  0  0  0  0  0  0  0  0
  144.7268  136.2918  153.0843 H   0  0  0  0  0  0  0  0  0  0  0  0
  143.0243  137.7216  154.6176 H   0  0  0  0  0  0  0  0  0  0  0  0
  142.6563  135.3193  154.0351 H   0  0  0  0  0  0  0  0  0  0  0  0
  141.9845  135.7948  152.4778 H   0  0  0  0  0  0  0  0  0  0  0  0
  141.1553  136.2338  153.9698 H   0  0  0  0  0  0  0  0  0  0  0  0
  142.7890  139.1120  152.6236 H   0  0  0  0  0  0  0  0  0  0  0  0
  144.8178  138.1007  155.4864 H   0  0  0  0  0  0  0  0  0  0  0  0
  146.1453  137.0951  154.9607 H   0  0  0  0  0  0  0  0  0  0  0  0
  146.9376  139.0370  156.3430 H   0  0  0  0  0  0  0  0  0  0  0  0
  146.1384  140.1422  155.2778 H   0  0  0  0  0  0  0  0  0  0  0  0
  152.5517  139.4141  157.9806 H   0  0  0  0  0  0  0  0  0  0  0  0
  153.7882  139.7280  159.9540 H   0  0  0  0  0  0  0  0  0  0  0  0
  153.0742  140.8413  161.1176 H   0  0  0  0  0  0  0  0  0  0  0  0
  154.4589  141.3470  160.1376 H   0  0  0  0  0  0  0  0  0  0  0  0
  144.8310  139.1919  153.3817 H   0  0  0  0  0  0  0  0  0  0  0  0
  149.5143  143.2986  155.7792 H   0  0  0  0  0  0  0  0  0  0  0  0
  1  2  1  0  0  0  0
  1 26  1  0  0  0  0
  1 27  1  0  0  0  0
  1 28  1  0  0  0  0
  2 24  1  0  0  0  0
  2  3  2  0  0  0  0
  3  4  1  0  0  0  0
  3 29  1  0  0  0  0
  4 22  2  0  0  0  0
  4  5  1  0  0  0  0
  5  6  2  0  0  0  0
  5 57  1  0  0  0  0
  6  7  1  0  0  0  0
  6 30  1  0  0  0  0
  7  8  1  0  0  0  0
  7 22  1  0  0  0  0
  8  9  1  0  0  0  0
  8 31  1  0  0  0  0
  8 32  1  0  0  0  0
  9 10  1  0  0  0  0
  9 11  1  0  0  0  0
  9 33  1  0  0  0  0
 10 34  1  0  0  0  0
 11 12  1  0  0  0  0
 11 35  1  0  0  0  0
 11 36  1  0  0  0  0
 12 21  1  0  0  0  0
 12 13  1  0  0  0  0
 13 14  1  0  0  0  0
 13 37  1  0  0  0  0
 13 38  1  0  0  0  0
 14 15  1  0  0  0  0
 14 39  1  0  0  0  0
 14 40  1  0  0  0  0
 15 16  1  0  0  0  0
 15 20  1  0  0  0  0
 15 56  1  0  0  0  0
 16 17  1  0  0  0  0
 16 41  1  0  0  0  0
 16 42  1  0  0  0  0
 17 18  1  0  0  0  0
 17 19  1  0  0  0  0
 17 43  1  0  0  0  0
 18 44  1  0  0  0  0
 18 45  1  0  0  0  0
 18 46  1  0  0  0  0
 19 47  1  0  0  0  0
 20 21  1  0  0  0  0
 20 48  1  0  0  0  0
 20 49  1  0  0  0  0
 21 50  1  0  0  0  0
 21 51  1  0  0  0  0
 22 23  1  0  0  0  0
 23 24  2  0  0  0  0
 23 52  1  0  0  0  0
 24 25  1  0  0  0  0
 25 53  1  0  0  0  0
 25 54  1  0  0  0  0
 25 55  1  0  0  0  0
M  CHG  1   5   1
M  CHG  1  15   1
M  END
> <s_m_source_file>
AV-unprocessed.smi

> <i_m_source_file_index>
1033

> <i_lp_mmshare_version>
43012

> <i_f3d_flags>
0

> <s_epik_input>
W0NIM11jKFtjSF0xKWMoW0NIM10pW2NIXWMoYzEyKW4oW2NIXW4yKVtDSDJdW0NASF0oW09IXSlbQ0gyXU4zW0NIMl1bQ0gyXU4oW0NIMl1bQ0gyXTMpW0NIMl1bQ0BIXShbQ0gzXSlbT0hd

> <s_epik_cmdline>
J2VwaWtfcHl0aG9uJywgJy1waCcsICc3LjAnLCAnLXRuJywgJzgnLCAnLW1hJywgJzIwMCcsICctbWV0YWxfYmluZGluZycsICctaW1hZScsICc8aW5maWxlLm1hZT4nLCAnLW9tYWUnLCAnPG91dGZpbGUubWFlPic=

> <r_epik_Ionization_Penalty>
1.28617

> <r_epik_Ionization_Penalty_Charging>
1.23646

> <r_epik_Ionization_Penalty_Neutral>
0.0497112

> <r_epik_State_Penalty>
1.79157

> <r_epik_Charging_Adjusted_Penalty>
3.02803

> <i_epik_Tot_Q>
2

> <i_epik_Tot_abs_Q>
2

> <r_epik_Metal_State_Penalty>
5.81739

> <b_epik_Metal_Only>
0

> <s_lp_Force_Field>
OPLS_2005

> <r_lp_Energy>
41.025

> <b_lp_Chiralities_Consistent>
1

> <s_lp_Variant>
AV-unprocessed.smi:1033-14

> <Gold.Version>
5.8.1

> <Gold.Id.Protein>
6NUR|6NUR_protein|mol2

> <Gold.PLP.Fitness>
60.7289

> <Gold.PLP.PLP>
-46.2207

> <Gold.PLP.part.hbond>
-4.8745

> <Gold.PLP.part.metal>
0.0000

> <Gold.PLP.part.buried>
-3.8941

> <Gold.PLP.part.nonpolar>
-39.0712

> <Gold.PLP.part.repulsive>
0.2522

> <Gold.PLP.ligand.clash>
0.0000

> <Gold.PLP.ligand.torsion>
1.1537

> <Gold.PLP.Chemscore.Hbond>
5.5452

> <Gold.PLP.Chemscore.CHOScore>
0.0000

> <Gold.PLP.Chemscore.Metal>
0.0000

> <Gold.Chemscore.Hbonds>
donor molecule, donor type, donor heavy atom, donor atom, acceptor molecule, acceptor atom, score
      L1  H     5    57       P1  8028  2.00
      L1  H    10    34       P1  7948  0.55
      L1  H    15    56       P1 10175  2.00
      L1  H    19    47       P1 10175  1.00

> <Gold.PLP.Chemscore.Internal.Correction>
0.1801

> <Gold.Rescore>
     Score         DG    S(hbond)    S(metal)    S(lipo)     H(rot)  DE(clash)    DE(int)     intcor
     18.92     -20.67       2.94        0.00     114.79       3.15       0.49       1.26       ----

> <Gold.Chemscore.Fitness>
18.9197

> <Gold.Chemscore.DG>
-20.6727

> <Gold.Chemscore.ZeroCoef>
-5.4800

> <Gold.Chemscore.Hbond>
2.9408

> <Gold.Chemscore.Metal>
0.0000

> <Gold.Chemscore.Lipo>
114.7885

> <Gold.Chemscore.Internal_Hbond>
0.0000

> <Gold.Chemscore.DEClash>
0.4886

> <Gold.Chemscore.DEInternal>
1.2643

> <Gold.Chemscore.Rot>
3.1483

> <Gold.Chemscore.Internal.Correction>
   9.000000E+99

> <Gold.Chemscore.Hbonds>
donor molecule, donor type, donor heavy atom, donor atom, acceptor molecule, acceptor atom, score
      L1  H     5    57       P1  8028  0.96
      L1  H    10    34       P1  7948  0.03
      L1  H    15    56       P1 10175  0.95
      L1  H    19    47       P1 10175  0.96

> <Gold.Chemscore.Hbond.Weighted>
-9.8221

> <Gold.Chemscore.Metal.Weighted>
-0.0000

> <Gold.Chemscore.Lipo.Weighted>
-13.4303

> <Gold.Chemscore.Internal_Hbond.Weighted>
0.0000

> <Gold.Chemscore.DEClash.Weighted>
0.4886

> <Gold.Chemscore.DEInternal.Weighted>
1.2643

> <Gold.Chemscore.Rot.Weighted>
8.0597

> <Gold.Chemscore.Internal.Correction.Weighted>
   9.000000E+99

> <Gold.Protein.RotatedTorsions>
[ 6907 6896 6895 6894 ] final   66.08 input  -60.11 | X-H torsion
[ 7974 7965 7964 7962 ] final  155.52 input  175.53 | X-H torsion
[ 8008 7997 7996 7995 ] final   39.07 input   59.86 | X-H torsion
[ 10167 10162 10161 10158 ] final -109.84 input  -65.29 | X-H torsion
[ 10718 10713 10712 10709 ] final  130.30 input   66.30 | X-H torsion
[ 10763 10752 10751 10750 ] final -178.00 input  -60.55 | X-H torsion
[ 11005 11000 10999 10996 ] final    8.81 input  -57.11 | X-H torsion

> <Gold.Protein.ActiveResidues>
 VAL166  LYS551  ARG553  GLY616  TRP617  ASP618  TYR619  PRO620  LYS621  CYS622 
 ASP623  PHE694  ASN695  SER759  ASP760  ASP761  ALA762  ILE779  LEU786  VAL792 
 PHE793  MET794  SER795  GLU796  ALA797  LYS798  CYS799  TRP800  GLU811  SER814 

> <Gold.Protein.RotatedAtoms>
  152.4455  134.5503  159.9864 H   0  0  0  0  0  0  0  0  0  0  0  0  # atno 6907 bound_to 6896
  151.5589  133.3400  159.2975 H   0  0  0  0  0  0  0  0  0  0  0  0  # atno 6908 bound_to 6896
  150.8370  134.7680  159.6965 H   0  0  0  0  0  0  0  0  0  0  0  0  # atno 6909 bound_to 6896
  144.8020  139.7079  143.6178 H   0  0  0  0  0  0  0  0  0  0  0  0  # atno 7974 bound_to 7965
  155.2305  140.3338  155.4304 H   0  0  0  0  0  0  0  0  0  0  0  0  # atno 8008 bound_to 7997
  156.2297  140.1845  156.7321 H   0  0  0  0  0  0  0  0  0  0  0  0  # atno 8009 bound_to 7997
  154.5957  140.0631  156.9285 H   0  0  0  0  0  0  0  0  0  0  0  0  # atno 8010 bound_to 7997
  140.1509  143.4200  152.1495 H   0  0  0  0  0  0  0  0  0  0  0  0  # atno 10167 bound_to 10162
  157.5074  131.1096  150.9341 H   0  0  0  0  0  0  0  0  0  0  0  0  # atno 10718 bound_to 10713
  154.5531  135.2814  155.0990 H   0  0  0  0  0  0  0  0  0  0  0  0  # atno 10763 bound_to 10752
  154.2428  135.6354  153.5217 H   0  0  0  0  0  0  0  0  0  0  0  0  # atno 10764 bound_to 10752
  153.0008  135.5564  154.6103 H   0  0  0  0  0  0  0  0  0  0  0  0  # atno 10765 bound_to 10752
  140.5328  134.0450  155.7879 H   0  0  0  0  0  0  0  0  0  0  0  0  # atno 11005 bound_to 11000
  146.2303  139.5801  142.9559 LP  0  0  0  0  0  0  0  0  0  0  0  0  # atno 17320 bound_to 7965
  145.5531  141.0411  143.2268 LP  0  0  0  0  0  0  0  0  0  0  0  0  # atno 17321 bound_to 7965
  139.5426  144.7270  151.4685 LP  0  0  0  0  0  0  0  0  0  0  0  0  # atno 17342 bound_to 10162
  140.6703  143.8309  150.6991 LP  0  0  0  0  0  0  0  0  0  0  0  0  # atno 17343 bound_to 10162
  156.9992  130.5593  149.5310 LP  0  0  0  0  0  0  0  0  0  0  0  0  # atno 17370 bound_to 10713
  156.0267  130.5361  150.8426 LP  0  0  0  0  0  0  0  0  0  0  0  0  # atno 17371 bound_to 10713
  141.1272  133.9363  157.2611 LP  0  0  0  0  0  0  0  0  0  0  0  0  # atno 17394 bound_to 11000
  139.9545  135.0168  156.9089 LP  0  0  0  0  0  0  0  0  0  0  0  0  # atno 17395 bound_to 11000

$$$$
