AV-unprocessed.smi:532|AV-procd|sdf|2851|dock6
  -GOLD-   2262023343D 1   1.00000     0.00000
 Structure written by MMmdl.
 48 50  0  0  0  0  0  0  0  0  2 V2000
  152.9515  138.7616  154.5692 C   0  0  0  0  0  0  0  0  0  0  0  0
  152.8668  139.2888  155.8802 O   0  0  0  0  0  0  0  0  0  0  0  0
  151.5296  139.4946  156.3028 C   0  0  0  0  0  0  0  0  0  0  0  0
  151.0578  140.8971  155.8889 C   0  0  0  0  0  0  0  0  0  0  0  0
  149.8611  141.3245  156.6103 N   0  0  0  0  0  0  0  0  0  0  0  0
  149.7887  142.1098  157.7154 C   0  0  0  0  0  0  0  0  0  0  0  0
  150.9360  142.6207  158.3132 N   0  0  0  0  0  0  0  0  0  0  0  0
  151.1981  144.0440  158.5014 C   0  0  0  0  0  0  0  0  0  0  0  0
  151.6685  144.3513  159.9360 C   0  0  2  0  0  0  0  0  0  0  0  0
  151.9005  145.8541  160.1395 C   0  0  0  0  0  0  0  0  0  0  0  0
  152.9289  143.5299  160.2572 C   0  0  0  0  0  0  0  0  0  0  0  0
  152.6833  142.0356  159.9817 C   0  0  2  0  0  0  0  0  0  0  0  0
  153.9478  141.2012  160.2251 C   0  0  0  0  0  0  0  0  0  0  0  0
  152.1484  141.8429  158.5486 C   0  0  0  0  0  0  0  0  0  0  0  0
  148.5537  142.3527  158.1558 N   0  0  0  0  0  0  0  0  0  0  0  0
  147.7661  141.6563  157.2497 C   0  0  0  0  0  0  0  0  0  0  0  0
  148.5276  141.0362  156.3080 C   0  0  0  0  0  0  0  0  0  0  0  0
  147.9734  140.2311  155.1983 C   0  0  0  0  0  0  0  0  0  0  0  0
  148.7109  139.6983  154.3714 O   0  0  0  0  0  0  0  0  0  0  0  0
  146.6040  140.1796  155.2321 N   0  5  0  0  0  0  0  0  0  0  0  0
  145.7929  140.7899  156.1651 C   0  0  0  0  0  0  0  0  0  0  0  0
  144.5656  140.6970  156.1192 O   0  0  0  0  0  0  0  0  0  0  0  0
  146.3523  141.5252  157.1773 N   0  0  0  0  0  0  0  0  0  0  0  0
  145.5148  142.1837  158.1837 C   0  0  0  0  0  0  0  0  0  0  0  0
  153.9983  138.6174  154.3020 H   0  0  0  0  0  0  0  0  0  0  0  0
  152.5086  139.4431  153.8419 H   0  0  0  0  0  0  0  0  0  0  0  0
  152.4485  137.7964  154.4981 H   0  0  0  0  0  0  0  0  0  0  0  0
  150.8777  138.7443  155.8535 H   0  0  0  0  0  0  0  0  0  0  0  0
  151.4646  139.3735  157.3846 H   0  0  0  0  0  0  0  0  0  0  0  0
  151.8587  141.6167  156.0520 H   0  0  0  0  0  0  0  0  0  0  0  0
  150.8530  140.9294  154.8191 H   0  0  0  0  0  0  0  0  0  0  0  0
  151.9500  144.3644  157.7789 H   0  0  0  0  0  0  0  0  0  0  0  0
  150.2938  144.6084  158.2728 H   0  0  0  0  0  0  0  0  0  0  0  0
  150.8815  144.0448  160.6263 H   0  0  0  0  0  0  0  0  0  0  0  0
  152.6742  146.2308  159.4696 H   0  0  0  0  0  0  0  0  0  0  0  0
  152.2109  146.0687  161.1624 H   0  0  0  0  0  0  0  0  0  0  0  0
  150.9884  146.4192  159.9464 H   0  0  0  0  0  0  0  0  0  0  0  0
  153.7626  143.8836  159.6486 H   0  0  0  0  0  0  0  0  0  0  0  0
  153.2175  143.6772  161.2986 H   0  0  0  0  0  0  0  0  0  0  0  0
  151.9198  141.6841  160.6773 H   0  0  0  0  0  0  0  0  0  0  0  0
  154.7543  141.4987  159.5543 H   0  0  0  0  0  0  0  0  0  0  0  0
  153.7542  140.1405  160.0631 H   0  0  0  0  0  0  0  0  0  0  0  0
  154.3040  141.3188  161.2488 H   0  0  0  0  0  0  0  0  0  0  0  0
  151.9319  140.7882  158.3733 H   0  0  0  0  0  0  0  0  0  0  0  0
  152.9042  142.1316  157.8170 H   0  0  0  0  0  0  0  0  0  0  0  0
  144.8771  141.4567  158.6890 H   0  0  0  0  0  0  0  0  0  0  0  0
  144.8743  142.9317  157.7144 H   0  0  0  0  0  0  0  0  0  0  0  0
  146.0996  142.6892  158.9518 H   0  0  0  0  0  0  0  0  0  0  0  0
  1  2  1  0  0  0  0
  1 25  1  0  0  0  0
  1 26  1  0  0  0  0
  1 27  1  0  0  0  0
  2  3  1  0  0  0  0
  3  4  1  0  0  0  0
  3 28  1  0  0  0  0
  3 29  1  0  0  0  0
  4  5  1  0  0  0  0
  4 30  1  0  0  0  0
  4 31  1  0  0  0  0
  5 17  1  0  0  0  0
  5  6  1  0  0  0  0
  6  7  1  0  0  0  0
  6 15  2  0  0  0  0
  7 14  1  0  0  0  0
  7  8  1  0  0  0  0
  8  9  1  0  0  0  0
  8 32  1  0  0  0  0
  8 33  1  0  0  0  0
  9 10  1  0  0  0  0
  9 11  1  0  0  0  0
  9 34  1  0  0  0  0
 10 35  1  0  0  0  0
 10 36  1  0  0  0  0
 10 37  1  0  0  0  0
 11 12  1  0  0  0  0
 11 38  1  0  0  0  0
 11 39  1  0  0  0  0
 12 13  1  0  0  0  0
 12 14  1  0  0  0  0
 12 40  1  0  0  0  0
 13 41  1  0  0  0  0
 13 42  1  0  0  0  0
 13 43  1  0  0  0  0
 14 44  1  0  0  0  0
 14 45  1  0  0  0  0
 15 16  1  0  0  0  0
 16 23  1  0  0  0  0
 16 17  2  0  0  0  0
 17 18  1  0  0  0  0
 18 19  2  0  0  0  0
 18 20  1  0  0  0  0
 20 21  1  0  0  0  0
 21 22  2  0  0  0  0
 21 23  1  0  0  0  0
 23 24  1  0  0  0  0
 24 46  1  0  0  0  0
 24 47  1  0  0  0  0
 24 48  1  0  0  0  0
M  CHG  1  20  -1
M  END
> <s_m_source_file>
AV-unprocessed.smi

> <i_m_source_file_index>
532

> <i_lp_mmshare_version>
43012

> <i_f3d_flags>
0

> <s_epik_input>
W0NIM11uMWMoPU8pW25IXWMoPU8pYyhjMTIpbihbQ0gyXVtDSDJdT1tDSDNdKWMobjIpTjNbQ0gyXVtDQEBIXShbQ0gzXSlbQ0gyXVtDQEBIXShbQ0gzXSlbQ0gyXTM=

> <s_epik_cmdline>
J2VwaWtfcHl0aG9uJywgJy1waCcsICc3LjAnLCAnLXRuJywgJzgnLCAnLW1hJywgJzIwMCcsICctbWV0YWxfYmluZGluZycsICctaW1hZScsICc8aW5maWxlLm1hZT4nLCAnLW9tYWUnLCAnPG91dGZpbGUubWFlPic=

> <r_lp_tautomer_probability>
1

> <r_epik_Ionization_Penalty>
5.12128

> <r_epik_Ionization_Penalty_Charging>
0.0789629

> <r_epik_Ionization_Penalty_Neutral>
5.04232

> <r_epik_State_Penalty>
5.03111

> <r_epik_Charging_Adjusted_Penalty>
5.11007

> <i_epik_Tot_Q>
-1

> <i_epik_Tot_abs_Q>
1

> <r_epik_Metal_State_Penalty>
1.14201

> <b_epik_Metal_Only>
1

> <s_lp_Force_Field>
OPLS_2005

> <r_lp_Energy>
42.9177

> <b_lp_Chiralities_Consistent>
1

> <s_lp_Variant>
AV-unprocessed.smi:532-4

> <Gold.Version>
5.8.1

> <Gold.Id.Protein>
6NUR|6NUR_protein|mol2

> <Gold.PLP.Fitness>
44.4395

> <Gold.PLP.PLP>
-43.4222

> <Gold.PLP.part.hbond>
-1.0000

> <Gold.PLP.part.metal>
0.0000

> <Gold.PLP.part.buried>
-6.4591

> <Gold.PLP.part.nonpolar>
-36.5450

> <Gold.PLP.part.repulsive>
0.4486

> <Gold.PLP.ligand.clash>
0.0000

> <Gold.PLP.ligand.torsion>
1.4733

> <Gold.PLP.Chemscore.Hbond>
1.0000

> <Gold.PLP.Chemscore.CHOScore>
0.0000

> <Gold.PLP.Chemscore.Metal>
0.0000

> <Gold.Chemscore.Hbonds>
donor molecule, donor type, donor heavy atom, donor atom, acceptor molecule, acceptor atom, score
      P1  H  7997  8009       L1     2  1.00

> <Gold.PLP.Chemscore.Internal.Correction>
0.9639

> <Gold.Rescore>
     Score         DG    S(hbond)    S(metal)    S(lipo)     H(rot)  DE(clash)    DE(int)     intcor
     13.90     -16.22       0.78        0.00     100.39       1.41       0.00       2.32       ----

> <Gold.Chemscore.Fitness>
13.9036

> <Gold.Chemscore.DG>
-16.2239

> <Gold.Chemscore.ZeroCoef>
-5.4800

> <Gold.Chemscore.Hbond>
0.7845

> <Gold.Chemscore.Metal>
0.0000

> <Gold.Chemscore.Lipo>
100.3859

> <Gold.Chemscore.Internal_Hbond>
0.0000

> <Gold.Chemscore.DEClash>
0.0000

> <Gold.Chemscore.DEInternal>
2.3203

> <Gold.Chemscore.Rot>
1.4147

> <Gold.Chemscore.Internal.Correction>
   9.000000E+99

> <Gold.Chemscore.Hbonds>
donor molecule, donor type, donor heavy atom, donor atom, acceptor molecule, acceptor atom, score
      P1  H  7997  8009       L1     2  0.55

> <Gold.Chemscore.Hbond.Weighted>
-2.6204

> <Gold.Chemscore.Metal.Weighted>
-0.0000

> <Gold.Chemscore.Lipo.Weighted>
-11.7452

> <Gold.Chemscore.Internal_Hbond.Weighted>
0.0000

> <Gold.Chemscore.DEClash.Weighted>
0.0000

> <Gold.Chemscore.DEInternal.Weighted>
2.3203

> <Gold.Chemscore.Rot.Weighted>
3.6216

> <Gold.Chemscore.Internal.Correction.Weighted>
   9.000000E+99

> <Gold.Protein.RotatedTorsions>
[ 6907 6896 6895 6894 ] final  -51.94 input  -60.11 | X-H torsion
[ 7974 7965 7964 7962 ] final   81.05 input  175.53 | X-H torsion
[ 8008 7997 7996 7995 ] final -151.27 input   59.86 | X-H torsion
[ 10167 10162 10161 10158 ] final  129.58 input  -65.29 | X-H torsion
[ 10718 10713 10712 10709 ] final  145.78 input   66.30 | X-H torsion
[ 10763 10752 10751 10750 ] final  118.72 input  -60.55 | X-H torsion
[ 11005 11000 10999 10996 ] final -156.48 input  -57.11 | X-H torsion

> <Gold.Protein.ActiveResidues>
 VAL166  LYS551  ARG553  GLY616  TRP617  ASP618  TYR619  PRO620  LYS621  CYS622 
 ASP623  PHE694  ASN695  SER759  ASP760  ASP761  ALA762  ILE779  LEU786  VAL792 
 PHE793  MET794  SER795  GLU796  ALA797  LYS798  CYS799  TRP800  GLU811  SER814 

> <Gold.Protein.RotatedAtoms>
  150.8564  134.7904  159.7048 H   0  0  0  0  0  0  0  0  0  0  0  0  # atno 6907 bound_to 6896
  152.4614  134.5171  159.9781 H   0  0  0  0  0  0  0  0  0  0  0  0  # atno 6908 bound_to 6896
  151.5283  133.3415  159.2949 H   0  0  0  0  0  0  0  0  0  0  0  0  # atno 6909 bound_to 6896
  145.6433  139.2430  143.2018 H   0  0  0  0  0  0  0  0  0  0  0  0  # atno 7974 bound_to 7965
  155.6367  140.0697  157.2632 H   0  0  0  0  0  0  0  0  0  0  0  0  # atno 8008 bound_to 7997
  154.4193  140.1758  156.1578 H   0  0  0  0  0  0  0  0  0  0  0  0  # atno 8009 bound_to 7997
  155.9889  140.3347  155.6737 H   0  0  0  0  0  0  0  0  0  0  0  0  # atno 8010 bound_to 7997
  139.5471  144.6782  151.4440 H   0  0  0  0  0  0  0  0  0  0  0  0  # atno 10167 bound_to 10162
  157.3411  131.0936  151.1081 H   0  0  0  0  0  0  0  0  0  0  0  0  # atno 10718 bound_to 10713
  153.5720  135.3500  155.2841 H   0  0  0  0  0  0  0  0  0  0  0  0  # atno 10763 bound_to 10752
  154.8680  135.4161  154.2714 H   0  0  0  0  0  0  0  0  0  0  0  0  # atno 10764 bound_to 10752
  153.3482  135.7053  153.6880 H   0  0  0  0  0  0  0  0  0  0  0  0  # atno 10765 bound_to 10752
  140.6751  134.4205  157.5230 H   0  0  0  0  0  0  0  0  0  0  0  0  # atno 11005 bound_to 11000
  146.1263  140.7243  142.9433 LP  0  0  0  0  0  0  0  0  0  0  0  0  # atno 17320 bound_to 7965
  144.7149  140.4175  143.7052 LP  0  0  0  0  0  0  0  0  0  0  0  0  # atno 17321 bound_to 7965
  140.6722  143.8268  150.7014 LP  0  0  0  0  0  0  0  0  0  0  0  0  # atno 17342 bound_to 10162
  140.1696  143.4206  152.2010 LP  0  0  0  0  0  0  0  0  0  0  0  0  # atno 17343 bound_to 10162
  157.2293  130.6517  149.5843 LP  0  0  0  0  0  0  0  0  0  0  0  0  # atno 17370 bound_to 10713
  155.9708  130.4604  150.6071 LP  0  0  0  0  0  0  0  0  0  0  0  0  # atno 17371 bound_to 10713
  139.8969  134.8648  156.2067 LP  0  0  0  0  0  0  0  0  0  0  0  0  # atno 17394 bound_to 11000
  141.0362  133.6962  156.1516 LP  0  0  0  0  0  0  0  0  0  0  0  0  # atno 17395 bound_to 11000

$$$$
