AV-unprocessed.smi:1144|AV-procd|sdf|4879|dock2
  -GOLD-   22720 3453D 1   1.00000     0.00000
 Structure written by MMmdl.
 35 36  0  0  0  0  0  0  0  0  2 V2000
  144.4958  143.0918  154.7384 C   0  0  0  0  0  0  0  0  0  0  0  0
  145.2841  141.8476  154.6120 N   0  3  2  0  0  0  0  0  0  0  0  0
  144.9495  140.8522  155.6557 C   0  0  0  0  0  0  0  0  0  0  0  0
  145.7770  139.5721  155.4558 C   0  0  0  0  0  0  0  0  0  0  0  0
  147.1613  139.8986  155.4575 O   0  0  0  0  0  0  0  0  0  0  0  0
  147.5152  140.7752  154.3914 C   0  0  2  0  0  0  0  0  0  0  0  0
  149.0332  140.9965  154.4344 C   0  0  0  0  0  0  0  0  0  0  0  0
  149.4064  141.9649  155.4545 N   0  0  0  0  0  0  0  0  0  0  0  0
  150.3485  141.7262  156.4366 C   0  0  0  0  0  0  0  0  0  0  0  0
  150.7320  140.4547  156.5670 N   0  0  0  0  0  0  0  0  0  0  0  0
  151.6474  140.1850  157.5229 C   0  0  0  0  0  0  0  0  0  0  0  0
  152.1799  141.1954  158.3477 C   0  0  0  0  0  0  0  0  0  0  0  0
  151.7035  142.5059  158.1196 C   0  0  0  0  0  0  0  0  0  0  0  0
  152.1908  143.6974  158.9302 C   0  0  0  0  0  0  0  0  0  0  0  0
  153.0883  143.3326  159.8468 F   0  0  0  0  0  0  0  0  0  0  0  0
  152.7546  144.5917  158.1182 F   0  0  0  0  0  0  0  0  0  0  0  0
  151.1597  144.2705  159.5514 F   0  0  0  0  0  0  0  0  0  0  0  0
  150.7848  142.7634  157.1598 N   0  0  0  0  0  0  0  0  0  0  0  0
  146.7434  142.0980  154.5689 C   0  0  0  0  0  0  0  0  0  0  0  0
  144.7096  143.5978  155.6809 H   0  0  0  0  0  0  0  0  0  0  0  0
  143.4276  142.8754  154.7008 H   0  0  0  0  0  0  0  0  0  0  0  0
  144.7261  143.7773  153.9221 H   0  0  0  0  0  0  0  0  0  0  0  0
  145.1482  141.2737  156.6425 H   0  0  0  0  0  0  0  0  0  0  0  0
  143.8853  140.6174  155.6150 H   0  0  0  0  0  0  0  0  0  0  0  0
  145.5786  138.8666  156.2627 H   0  0  0  0  0  0  0  0  0  0  0  0
  145.5078  139.0732  154.5233 H   0  0  0  0  0  0  0  0  0  0  0  0
  147.2451  140.3220  153.4352 H   0  0  0  0  0  0  0  0  0  0  0  0
  149.5359  140.0543  154.6562 H   0  0  0  0  0  0  0  0  0  0  0  0
  149.3943  141.3323  153.4615 H   0  0  0  0  0  0  0  0  0  0  0  0
  149.0539  142.9076  155.3742 H   0  0  0  0  0  0  0  0  0  0  0  0
  151.9567  139.1559  157.6307 H   0  0  0  0  0  0  0  0  0  0  0  0
  152.9114  140.9695  159.1093 H   0  0  0  0  0  0  0  0  0  0  0  0
  146.9723  142.7753  153.7450 H   0  0  0  0  0  0  0  0  0  0  0  0
  147.0554  142.5954  155.4889 H   0  0  0  0  0  0  0  0  0  0  0  0
  145.0336  141.4340  153.7252 H   0  0  0  0  0  0  0  0  0  0  0  0
  1  2  1  0  0  0  0
  1 20  1  0  0  0  0
  1 21  1  0  0  0  0
  1 22  1  0  0  0  0
  2 19  1  0  0  0  0
  2  3  1  0  0  0  0
  2 35  1  0  0  0  0
  3  4  1  0  0  0  0
  3 23  1  0  0  0  0
  3 24  1  0  0  0  0
  4  5  1  0  0  0  0
  4 25  1  0  0  0  0
  4 26  1  0  0  0  0
  5  6  1  0  0  0  0
  6  7  1  0  0  0  0
  6 19  1  0  0  0  0
  6 27  1  0  0  0  0
  7  8  1  0  0  0  0
  7 28  1  0  0  0  0
  7 29  1  0  0  0  0
  8  9  1  0  0  0  0
  8 30  1  0  0  0  0
  9 18  1  0  0  0  0
  9 10  2  0  0  0  0
 10 11  1  0  0  0  0
 11 12  2  0  0  0  0
 11 31  1  0  0  0  0
 12 13  1  0  0  0  0
 12 32  1  0  0  0  0
 13 14  1  0  0  0  0
 13 18  2  0  0  0  0
 14 15  1  0  0  0  0
 14 16  1  0  0  0  0
 14 17  1  0  0  0  0
 19 33  1  0  0  0  0
 19 34  1  0  0  0  0
M  CHG  1   2   1
M  END
> <s_m_source_file>
AV-unprocessed.smi

> <i_m_source_file_index>
1144

> <i_lp_mmshare_version>
43012

> <i_f3d_flags>
0

> <s_epik_input>
W0NIM11OMVtDSDJdW0NIMl1PW0NASF0oW0NIMl0xKVtDSDJdW05IXWMybltjSF1bY0hdYyhuMilDKEYpKEYpRg==

> <s_epik_cmdline>
J2VwaWtfcHl0aG9uJywgJy1waCcsICc3LjAnLCAnLXRuJywgJzgnLCAnLW1hJywgJzIwMCcsICctbWV0YWxfYmluZGluZycsICctaW1hZScsICc8aW5maWxlLm1hZT4nLCAnLW9tYWUnLCAnPG91dGZpbGUubWFlPic=

> <r_lp_tautomer_probability>
1

> <r_epik_Ionization_Penalty>
0.178506

> <r_epik_Ionization_Penalty_Charging>
0.178504

> <r_epik_Ionization_Penalty_Neutral>
2.47225e-06

> <r_epik_State_Penalty>
0.167974

> <r_epik_Charging_Adjusted_Penalty>
0.346478

> <i_epik_Tot_Q>
1

> <i_epik_Tot_abs_Q>
1

> <r_epik_Metal_State_Penalty>
0.167974

> <b_epik_Metal_Only>
0

> <s_lp_Force_Field>
OPLS_2005

> <r_lp_Energy>
9.23753

> <b_lp_Chiralities_Consistent>
1

> <s_lp_Variant>
AV-unprocessed.smi:1144-4

> <Gold.Version>
5.8.1

> <Gold.Id.Protein>
6NUR|6NUR_protein|mol2

> <Gold.PLP.Fitness>
45.0785

> <Gold.PLP.PLP>
-36.6917

> <Gold.PLP.part.hbond>
-2.0000

> <Gold.PLP.part.metal>
0.0000

> <Gold.PLP.part.buried>
-5.9398

> <Gold.PLP.part.nonpolar>
-31.2041

> <Gold.PLP.part.repulsive>
0.9807

> <Gold.PLP.ligand.clash>
0.0000

> <Gold.PLP.ligand.torsion>
0.2352

> <Gold.PLP.Chemscore.Hbond>
2.9500

> <Gold.PLP.Chemscore.CHOScore>
0.0000

> <Gold.PLP.Chemscore.Metal>
0.0000

> <Gold.Chemscore.Hbonds>
donor molecule, donor type, donor heavy atom, donor atom, acceptor molecule, acceptor atom, score
      L1  H     2    35       P1 10175  1.89
      L1  H     8    30       P1  8028  1.00

> <Gold.PLP.Chemscore.Internal.Correction>
0.0072

> <Gold.Rescore>
     Score         DG    S(hbond)    S(metal)    S(lipo)     H(rot)  DE(clash)    DE(int)     intcor
     14.52     -14.85       1.76        0.00      59.03       1.34       0.16       0.17       ----

> <Gold.Chemscore.Fitness>
14.5168

> <Gold.Chemscore.DG>
-14.8491

> <Gold.Chemscore.ZeroCoef>
-5.4800

> <Gold.Chemscore.Hbond>
1.7627

> <Gold.Chemscore.Metal>
0.0000

> <Gold.Chemscore.Lipo>
59.0307

> <Gold.Chemscore.Internal_Hbond>
0.0000

> <Gold.Chemscore.DEClash>
0.1602

> <Gold.Chemscore.DEInternal>
0.1721

> <Gold.Chemscore.Rot>
1.3379

> <Gold.Chemscore.Internal.Correction>
   9.000000E+99

> <Gold.Chemscore.Hbonds>
donor molecule, donor type, donor heavy atom, donor atom, acceptor molecule, acceptor atom, score
      L1  H     2    35       P1 10175  0.22
      L1  H     8    30       P1  8028  1.00

> <Gold.Chemscore.Hbond.Weighted>
-5.8875

> <Gold.Chemscore.Metal.Weighted>
-0.0000

> <Gold.Chemscore.Lipo.Weighted>
-6.9066

> <Gold.Chemscore.Internal_Hbond.Weighted>
0.0000

> <Gold.Chemscore.DEClash.Weighted>
0.1602

> <Gold.Chemscore.DEInternal.Weighted>
0.1721

> <Gold.Chemscore.Rot.Weighted>
3.4250

> <Gold.Chemscore.Internal.Correction.Weighted>
   9.000000E+99

> <Gold.Protein.RotatedTorsions>
[ 6907 6896 6895 6894 ] final   81.62 input  -60.11 | X-H torsion
[ 7974 7965 7964 7962 ] final   -2.34 input  175.53 | X-H torsion
[ 8008 7997 7996 7995 ] final    8.60 input   59.86 | X-H torsion
[ 10167 10162 10161 10158 ] final -176.27 input  -65.29 | X-H torsion
[ 10718 10713 10712 10709 ] final  -28.66 input   66.30 | X-H torsion
[ 10763 10752 10751 10750 ] final   92.96 input  -60.55 | X-H torsion
[ 11005 11000 10999 10996 ] final  -71.58 input  -57.11 | X-H torsion

> <Gold.Protein.ActiveResidues>
 VAL166  LYS551  ARG553  GLY616  TRP617  ASP618  TYR619  PRO620  LYS621  CYS622 
 ASP623  PHE694  ASN695  SER759  ASP760  ASP761  ALA762  ILE779  LEU786  VAL792 
 PHE793  MET794  SER795  GLU796  ALA797  LYS798  CYS799  TRP800  GLU811  SER814 

> <Gold.Protein.RotatedAtoms>
  152.5274  134.3176  159.9136 H   0  0  0  0  0  0  0  0  0  0  0  0  # atno 6907 bound_to 6896
  151.3125  133.4068  159.2655 H   0  0  0  0  0  0  0  0  0  0  0  0  # atno 6908 bound_to 6896
  151.0026  134.9351  159.8020 H   0  0  0  0  0  0  0  0  0  0  0  0  # atno 6909 bound_to 6896
  146.2406  140.1556  142.8333 H   0  0  0  0  0  0  0  0  0  0  0  0  # atno 7974 bound_to 7965
  154.7690  140.2798  155.6153 H   0  0  0  0  0  0  0  0  0  0  0  0  # atno 8008 bound_to 7997
  156.2930  140.2645  156.2415 H   0  0  0  0  0  0  0  0  0  0  0  0  # atno 8009 bound_to 7997
  154.9923  140.0373  157.2314 H   0  0  0  0  0  0  0  0  0  0  0  0  # atno 8010 bound_to 7997
  139.5538  144.2040  152.1124 H   0  0  0  0  0  0  0  0  0  0  0  0  # atno 10167 bound_to 10162
  156.4224  130.4429  149.7175 H   0  0  0  0  0  0  0  0  0  0  0  0  # atno 10718 bound_to 10713
  153.2249  135.4343  155.0531 H   0  0  0  0  0  0  0  0  0  0  0  0  # atno 10763 bound_to 10752
  154.8268  135.3365  154.6872 H   0  0  0  0  0  0  0  0  0  0  0  0  # atno 10764 bound_to 10752
  153.7302  135.7011  153.5047 H   0  0  0  0  0  0  0  0  0  0  0  0  # atno 10765 bound_to 10752
  141.1594  133.6821  156.6927 H   0  0  0  0  0  0  0  0  0  0  0  0  # atno 11005 bound_to 11000
  145.0132  140.8731  143.5212 LP  0  0  0  0  0  0  0  0  0  0  0  0  # atno 17320 bound_to 7965
  145.1593  139.2468  143.5400 LP  0  0  0  0  0  0  0  0  0  0  0  0  # atno 17321 bound_to 7965
  140.1541  144.5087  150.6670 LP  0  0  0  0  0  0  0  0  0  0  0  0  # atno 17342 bound_to 10162
  140.6807  143.2325  151.5391 LP  0  0  0  0  0  0  0  0  0  0  0  0  # atno 17343 bound_to 10162
  156.4110  130.7722  151.2735 LP  0  0  0  0  0  0  0  0  0  0  0  0  # atno 17370 bound_to 10713
  157.7508  131.0211  150.3737 LP  0  0  0  0  0  0  0  0  0  0  0  0  # atno 17371 bound_to 10713
  140.3018  134.8157  157.4104 LP  0  0  0  0  0  0  0  0  0  0  0  0  # atno 17394 bound_to 11000
  140.1255  134.5164  155.8148 LP  0  0  0  0  0  0  0  0  0  0  0  0  # atno 17395 bound_to 11000

$$$$
