AV-unprocessed.smi:72|AV-procd|sdf|708|dock2
  -GOLD-   2262017 33D 1   1.00000     0.00000
 Structure written by MMmdl.
 30 31  0  0  0  0  0  0  0  0  2 V2000
  149.8297  144.4258  158.8683 N   0  0  0  0  0  0  0  0  0  0  0  0
  150.2274  143.2049  158.3647 C   0  0  0  0  0  0  0  0  0  0  0  0
  149.7983  142.8624  157.0958 N   0  3  0  0  0  0  0  0  0  0  0  0
  150.1012  141.7226  156.4595 C   0  0  0  0  0  0  0  0  0  0  0  0
  150.8858  140.8440  157.0548 N   0  0  0  0  0  0  0  0  0  0  0  0
  151.2577  139.5307  156.4039 C   0  0  1  0  0  0  0  0  0  0  0  0
  150.1109  138.7416  156.3342 O   0  0  0  0  0  0  0  0  0  0  0  0
  149.4853  138.9352  155.0701 C   0  0  2  0  0  0  0  0  0  0  0  0
  148.4322  137.8487  154.7930 C   0  0  0  0  0  0  0  0  0  0  0  0
  147.9073  138.0169  153.4932 O   0  0  0  0  0  0  0  0  0  0  0  0
  150.6945  138.9551  154.1300 C   0  0  2  0  0  0  0  0  0  0  0  0
  151.1163  137.6327  153.8355 O   0  0  0  0  0  0  0  0  0  0  0  0
  151.7260  139.7392  154.9449 C   0  0  2  0  0  0  0  0  0  0  0  0
  153.0507  139.2986  154.7144 O   0  0  0  0  0  0  0  0  0  0  0  0
  151.3367  141.0889  158.3784 C   0  0  0  0  0  0  0  0  0  0  0  0
  152.0175  140.2518  158.9687 O   0  0  0  0  0  0  0  0  0  0  0  0
  150.9697  142.3120  158.9581 N   0  0  0  0  0  0  0  0  0  0  0  0
  151.9961  139.0768  157.0674 H   0  0  0  0  0  0  0  0  0  0  0  0
  149.0175  139.9214  155.0394 H   0  0  0  0  0  0  0  0  0  0  0  0
  150.4631  139.4533  153.1878 H   0  0  0  0  0  0  0  0  0  0  0  0
  151.6573  140.7968  154.6860 H   0  0  0  0  0  0  0  0  0  0  0  0
  150.0897  144.7558  159.7870 H   0  0  0  0  0  0  0  0  0  0  0  0
  149.2452  145.0803  158.3681 H   0  0  0  0  0  0  0  0  0  0  0  0
  149.6829  141.5532  155.4761 H   0  0  0  0  0  0  0  0  0  0  0  0
  148.8912  136.8605  154.8359 H   0  0  0  0  0  0  0  0  0  0  0  0
  147.6298  137.8700  155.5311 H   0  0  0  0  0  0  0  0  0  0  0  0
  148.1280  137.2544  152.9799 H   0  0  0  0  0  0  0  0  0  0  0  0
  150.4556  137.2211  153.2990 H   0  0  0  0  0  0  0  0  0  0  0  0
  153.1534  139.1271  153.7905 H   0  0  0  0  0  0  0  0  0  0  0  0
  149.2040  143.5231  156.6157 H   0  0  0  0  0  0  0  0  0  0  0  0
  1  2  1  0  0  0  0
  1 22  1  0  0  0  0
  1 23  1  0  0  0  0
  2 17  2  0  0  0  0
  2  3  1  0  0  0  0
  3  4  2  0  0  0  0
  3 30  1  0  0  0  0
  4  5  1  0  0  0  0
  4 24  1  0  0  0  0
  5  6  1  0  0  0  0
  5 15  1  0  0  0  0
  6 18  1  0  0  0  0
  6 13  1  0  0  0  0
  6  7  1  0  0  0  0
  7  8  1  0  0  0  0
  8 19  1  0  0  0  0
  8  9  1  0  0  0  0
  8 11  1  0  0  0  0
  9 10  1  0  0  0  0
  9 25  1  0  0  0  0
  9 26  1  0  0  0  0
 10 27  1  0  0  0  0
 11 20  1  0  0  0  0
 11 12  1  0  0  0  0
 11 13  1  0  0  0  0
 12 28  1  0  0  0  0
 13 21  1  0  0  0  0
 13 14  1  0  0  0  0
 14 29  1  0  0  0  0
 15 16  2  0  0  0  0
 15 17  1  0  0  0  0
M  CHG  1   3   1
M  END
> <s_m_source_file>
AV-unprocessed.smi

> <i_m_source_file_index>
72

> <i_lp_mmshare_version>
43012

> <i_f3d_flags>
0

> <s_epik_input>
W05IMl1jMW5bY0hdbihjKD1PKW4xKVtDQEBIXTJPW0NASF0oW0NIMl1bT0hdKVtDQEBIXShbT0hdKVtDQEhdMltPSF0=

> <s_epik_cmdline>
J2VwaWtfcHl0aG9uJywgJy1waCcsICc3LjAnLCAnLXRuJywgJzgnLCAnLW1hJywgJzIwMCcsICctbWV0YWxfYmluZGluZycsICctaW1hZScsICc8aW5maWxlLm1hZT4nLCAnLW9tYWUnLCAnPG91dGZpbGUubWFlPic=

> <r_lp_tautomer_probability>
4.77166e-05

> <r_epik_Ionization_Penalty>
0.104979

> <r_epik_Ionization_Penalty_Charging>
0.0999619

> <r_epik_Ionization_Penalty_Neutral>
0.00501745

> <r_epik_State_Penalty>
2.51541

> <r_epik_Charging_Adjusted_Penalty>
2.61537

> <i_epik_Tot_Q>
1

> <i_epik_Tot_abs_Q>
1

> <r_epik_Metal_State_Penalty>
3.53763

> <b_epik_Metal_Only>
0

> <s_epik_Chemistry_Notes>
This compound contains an acetal/aminal-like group ( X-CH(R)-Y where X, Y are N, S, or O) that may be acid/base labile, releasing an aldehyde.

> <s_lp_Force_Field>
OPLS_2005

> <r_lp_Energy>
33.6404

> <b_lp_Chiralities_Consistent>
1

> <s_lp_Variant>
AV-unprocessed.smi:72-46

> <Gold.Version>
5.8.1

> <Gold.Id.Protein>
6NUR|6NUR_protein|mol2

> <Gold.PLP.Fitness>
39.1552

> <Gold.PLP.PLP>
-23.8972

> <Gold.PLP.part.hbond>
-6.4171

> <Gold.PLP.part.metal>
0.0000

> <Gold.PLP.part.buried>
-1.7606

> <Gold.PLP.part.nonpolar>
-15.5529

> <Gold.PLP.part.repulsive>
0.1731

> <Gold.PLP.ligand.clash>
0.0000

> <Gold.PLP.ligand.torsion>
0.2641

> <Gold.PLP.Chemscore.Hbond>
5.2504

> <Gold.PLP.Chemscore.CHOScore>
0.0000

> <Gold.PLP.Chemscore.Metal>
0.0000

> <Gold.Chemscore.Hbonds>
donor molecule, donor type, donor heavy atom, donor atom, acceptor molecule, acceptor atom, score
      L1  H     1    23       P1  8029  1.00
      L1  H     3    30       P1  8028  2.00
      L1  H    10    27       P1  7948  1.00
      L1  H    12    28       P1  7948  0.23
      P1  H  7997  8009       L1    14  1.00

> <Gold.PLP.Chemscore.Internal.Correction>
0.0348

> <Gold.Rescore>
     Score         DG    S(hbond)    S(metal)    S(lipo)     H(rot)  DE(clash)    DE(int)     intcor
      9.15      -9.94       3.67        0.00      22.57       4.08       0.29       0.49       ----

> <Gold.Chemscore.Fitness>
9.1544

> <Gold.Chemscore.DG>
-9.9364

> <Gold.Chemscore.ZeroCoef>
-5.4800

> <Gold.Chemscore.Hbond>
3.6697

> <Gold.Chemscore.Metal>
0.0000

> <Gold.Chemscore.Lipo>
22.5655

> <Gold.Chemscore.Internal_Hbond>
0.0000

> <Gold.Chemscore.DEClash>
0.2946

> <Gold.Chemscore.DEInternal>
0.4873

> <Gold.Chemscore.Rot>
4.0783

> <Gold.Chemscore.Internal.Correction>
   9.000000E+99

> <Gold.Chemscore.Hbonds>
donor molecule, donor type, donor heavy atom, donor atom, acceptor molecule, acceptor atom, score
      L1  H     1    23       P1  8029  0.70
      L1  H     3    30       P1  8028  0.92
      L1  H    10    27       P1  7948  0.99
      L1  H    12    28       P1  7948  0.01
      P1  H  7997  8009       L1    14  0.86

> <Gold.Chemscore.Hbond.Weighted>
-12.2566

> <Gold.Chemscore.Metal.Weighted>
-0.0000

> <Gold.Chemscore.Lipo.Weighted>
-2.6402

> <Gold.Chemscore.Internal_Hbond.Weighted>
0.0000

> <Gold.Chemscore.DEClash.Weighted>
0.2946

> <Gold.Chemscore.DEInternal.Weighted>
0.4873

> <Gold.Chemscore.Rot.Weighted>
10.4404

> <Gold.Chemscore.Internal.Correction.Weighted>
   9.000000E+99

> <Gold.Protein.RotatedTorsions>
[ 6907 6896 6895 6894 ] final   30.36 input  -60.11 | X-H torsion
[ 7974 7965 7964 7962 ] final  140.39 input  175.53 | X-H torsion
[ 8008 7997 7996 7995 ] final -132.85 input   59.86 | X-H torsion
[ 10167 10162 10161 10158 ] final -176.59 input  -65.29 | X-H torsion
[ 10718 10713 10712 10709 ] final  148.71 input   66.30 | X-H torsion
[ 10763 10752 10751 10750 ] final  -99.38 input  -60.55 | X-H torsion
[ 11005 11000 10999 10996 ] final  145.19 input  -57.11 | X-H torsion

> <Gold.Protein.ActiveResidues>
 VAL166  LYS551  ARG553  GLY616  TRP617  ASP618  TYR619  PRO620  LYS621  CYS622 
 ASP623  PHE694  ASN695  SER759  ASP760  ASP761  ALA762  ILE779  LEU786  VAL792 
 PHE793  MET794  SER795  GLU796  ALA797  LYS798  CYS799  TRP800  GLU811  SER814 

> <Gold.Protein.RotatedAtoms>
  152.0449  134.9689  160.0574 H   0  0  0  0  0  0  0  0  0  0  0  0  # atno 6907 bound_to 6896
  152.1113  133.4297  159.4640 H   0  0  0  0  0  0  0  0  0  0  0  0  # atno 6908 bound_to 6896
  150.6843  134.2564  159.4575 H   0  0  0  0  0  0  0  0  0  0  0  0  # atno 6909 bound_to 6896
  144.9191  139.5191  143.5672 H   0  0  0  0  0  0  0  0  0  0  0  0  # atno 7974 bound_to 7965
  155.3357  140.0469  157.3044 H   0  0  0  0  0  0  0  0  0  0  0  0  # atno 8008 bound_to 7997
  154.5304  140.2255  155.8780 H   0  0  0  0  0  0  0  0  0  0  0  0  # atno 8009 bound_to 7997
  156.1783  140.3080  155.9106 H   0  0  0  0  0  0  0  0  0  0  0  0  # atno 8010 bound_to 7997
  139.5522  144.2080  152.1097 H   0  0  0  0  0  0  0  0  0  0  0  0  # atno 10167 bound_to 10162
  157.3052  131.0878  151.1359 H   0  0  0  0  0  0  0  0  0  0  0  0  # atno 10718 bound_to 10713
  154.7493  135.4974  153.9261 H   0  0  0  0  0  0  0  0  0  0  0  0  # atno 10763 bound_to 10752
  153.1126  135.6713  153.9481 H   0  0  0  0  0  0  0  0  0  0  0  0  # atno 10764 bound_to 10752
  153.9236  135.3085  155.3426 H   0  0  0  0  0  0  0  0  0  0  0  0  # atno 10765 bound_to 10752
  140.0692  134.9161  157.1316 H   0  0  0  0  0  0  0  0  0  0  0  0  # atno 11005 bound_to 11000
  146.3196  139.8057  142.8956 LP  0  0  0  0  0  0  0  0  0  0  0  0  # atno 17320 bound_to 7965
  145.3326  141.0270  143.3438 LP  0  0  0  0  0  0  0  0  0  0  0  0  # atno 17321 bound_to 7965
  140.1577  144.5055  150.6650 LP  0  0  0  0  0  0  0  0  0  0  0  0  # atno 17342 bound_to 10162
  140.6787  143.2317  151.5440 LP  0  0  0  0  0  0  0  0  0  0  0  0  # atno 17343 bound_to 10162
  157.2702  130.6701  149.6016 LP  0  0  0  0  0  0  0  0  0  0  0  0  # atno 17370 bound_to 10713
  155.9674  130.4481  150.5607 LP  0  0  0  0  0  0  0  0  0  0  0  0  # atno 17371 bound_to 10713
  140.3652  134.2450  155.7183 LP  0  0  0  0  0  0  0  0  0  0  0  0  # atno 17394 bound_to 11000
  141.2005  133.7986  157.0486 LP  0  0  0  0  0  0  0  0  0  0  0  0  # atno 17395 bound_to 11000

$$$$
