AV-unprocessed.smi:1590|AV-procd|sdf|6395|dock1
  -GOLD-   22720 7 33D 1   1.00000     0.00000
 Structure written by MMmdl.
 35 36  0  0  0  0  0  0  0  0  1 V2000
  152.1551  141.1403  158.1574 C   0  0  0  0  0  0  0  0  0  0  0  0
  151.1967  141.7704  157.1360 C   0  0  0  0  0  0  0  0  0  0  0  0
  149.9700  142.4104  157.8012 C   0  0  0  0  0  0  0  0  0  0  0  0
  150.8064  140.8020  156.0618 C   0  0  0  0  0  0  0  0  0  0  0  0
  151.7097  140.1455  155.3220 N   0  0  0  0  0  0  0  0  0  0  0  0
  151.1195  139.3055  154.3884 N   0  0  0  0  0  0  0  0  0  0  0  0
  149.7818  139.3548  154.4462 C   0  0  0  0  0  0  0  0  0  0  0  0
  148.9273  138.5880  153.6108 N   0  0  0  0  0  0  0  0  0  0  0  0
  147.6133  138.7586  153.3820 C   0  0  0  0  0  0  0  0  0  0  0  0
  146.9038  139.6158  153.9092 O   0  0  0  0  0  0  0  0  0  0  0  0
  147.1547  137.8626  152.4965 N   0  0  0  0  0  0  0  0  0  0  0  0
  145.7753  137.7765  152.0316 C   0  0  0  0  0  0  0  0  0  0  0  0
  145.3057  136.3270  151.9405 C   0  0  0  0  0  0  0  0  0  0  0  0
  145.6666  135.4804  150.7100 C   0  0  0  0  0  0  0  0  0  0  0  0
  144.2993  134.8025  150.8303 C   0  0  0  0  0  0  0  0  0  0  0  0
  143.8339  136.0291  151.6194 C   0  0  0  0  0  0  0  0  0  0  0  0
  149.1286  140.4454  155.6560 S   0  0  0  0  0  0  0  0  0  0  0  0
  153.0485  140.7514  157.6680 H   0  0  0  0  0  0  0  0  0  0  0  0
  151.6828  140.3170  158.6940 H   0  0  0  0  0  0  0  0  0  0  0  0
  152.4775  141.8739  158.8965 H   0  0  0  0  0  0  0  0  0  0  0  0
  151.7465  142.5782  156.6505 H   0  0  0  0  0  0  0  0  0  0  0  0
  149.3418  142.9117  157.0640 H   0  0  0  0  0  0  0  0  0  0  0  0
  150.2683  143.1548  158.5398 H   0  0  0  0  0  0  0  0  0  0  0  0
  149.3579  141.6653  158.3104 H   0  0  0  0  0  0  0  0  0  0  0  0
  149.3726  137.8277  153.1186 H   0  0  0  0  0  0  0  0  0  0  0  0
  147.8055  137.1918  152.1147 H   0  0  0  0  0  0  0  0  0  0  0  0
  145.1209  138.3524  152.6878 H   0  0  0  0  0  0  0  0  0  0  0  0
  145.7206  138.2553  151.0535 H   0  0  0  0  0  0  0  0  0  0  0  0
  145.5797  135.7716  152.8403 H   0  0  0  0  0  0  0  0  0  0  0  0
  145.7624  136.0738  149.7992 H   0  0  0  0  0  0  0  0  0  0  0  0
  146.5203  134.8164  150.8490 H   0  0  0  0  0  0  0  0  0  0  0  0
  143.7822  134.6453  149.8833 H   0  0  0  0  0  0  0  0  0  0  0  0
  144.3272  133.8946  151.4349 H   0  0  0  0  0  0  0  0  0  0  0  0
  143.2146  135.8063  152.4887 H   0  0  0  0  0  0  0  0  0  0  0  0
  143.3761  136.7890  150.9837 H   0  0  0  0  0  0  0  0  0  0  0  0
  1  2  1  0  0  0  0
  1 18  1  0  0  0  0
  1 19  1  0  0  0  0
  1 20  1  0  0  0  0
  2  3  1  0  0  0  0
  2  4  1  0  0  0  0
  2 21  1  0  0  0  0
  3 22  1  0  0  0  0
  3 23  1  0  0  0  0
  3 24  1  0  0  0  0
  4 17  1  0  0  0  0
  4  5  2  0  0  0  0
  5  6  1  0  0  0  0
  6  7  2  0  0  0  0
  7  8  1  0  0  0  0
  7 17  1  0  0  0  0
  8  9  1  0  0  0  0
  8 25  1  0  0  0  0
  9 10  2  0  0  0  0
  9 11  1  0  0  0  0
 11 12  1  0  0  0  0
 11 26  1  0  0  0  0
 12 13  1  0  0  0  0
 12 27  1  0  0  0  0
 12 28  1  0  0  0  0
 13 16  1  0  0  0  0
 13 14  1  0  0  0  0
 13 29  1  0  0  0  0
 14 15  1  0  0  0  0
 14 30  1  0  0  0  0
 14 31  1  0  0  0  0
 15 16  1  0  0  0  0
 15 32  1  0  0  0  0
 15 33  1  0  0  0  0
 16 34  1  0  0  0  0
 16 35  1  0  0  0  0
M  END
> <s_m_source_file>
AV-unprocessed.smi

> <i_m_source_file_index>
1590

> <i_lp_mmshare_version>
43012

> <i_f3d_flags>
0

> <s_epik_input>
W0NIM11bQ0hdKFtDSDNdKWMxbm5jKHMxKVtOSF1DKD1PKVtOSF1bQ0gyXVtDSF0yW0NIMl1bQ0gyXVtDSDJdMg==

> <s_epik_cmdline>
J2VwaWtfcHl0aG9uJywgJy1waCcsICc3LjAnLCAnLXRuJywgJzgnLCAnLW1hJywgJzIwMCcsICctbWV0YWxfYmluZGluZycsICctaW1hZScsICc8aW5maWxlLm1hZT4nLCAnLW9tYWUnLCAnPG91dGZpbGUubWFlPic=

> <r_lp_tautomer_probability>
1

> <r_epik_Ionization_Penalty>
0.000374979

> <r_epik_Ionization_Penalty_Charging>
0

> <r_epik_Ionization_Penalty_Neutral>
0.000374979

> <r_epik_State_Penalty>
-0

> <r_epik_Charging_Adjusted_Penalty>
0

> <i_epik_Tot_Q>
0

> <i_epik_Tot_abs_Q>
0

> <r_epik_Metal_State_Penalty>
0.186879

> <b_epik_Metal_Only>
0

> <s_lp_Force_Field>
OPLS_2005

> <r_lp_Energy>
5.08701

> <b_lp_Chiralities_Consistent>
1

> <s_lp_Variant>
AV-unprocessed.smi:1590-1

> <Gold.Version>
5.8.1

> <Gold.Id.Protein>
6NUR|6NUR_protein|mol2

> <Gold.PLP.Fitness>
34.6041

> <Gold.PLP.PLP>
-29.7070

> <Gold.PLP.part.hbond>
-4.9940

> <Gold.PLP.part.metal>
0.0000

> <Gold.PLP.part.buried>
-2.8827

> <Gold.PLP.part.nonpolar>
-22.0115

> <Gold.PLP.part.repulsive>
0.4229

> <Gold.PLP.ligand.clash>
0.0000

> <Gold.PLP.ligand.torsion>
0.3383

> <Gold.PLP.Chemscore.Hbond>
1.8151

> <Gold.PLP.Chemscore.CHOScore>
0.0000

> <Gold.PLP.Chemscore.Metal>
0.0000

> <Gold.Chemscore.Hbonds>
donor molecule, donor type, donor heavy atom, donor atom, acceptor molecule, acceptor atom, score
      L1  H     8    25       P1  7948  0.84
      L1  H    11    26       P1  7948  0.93

> <Gold.PLP.Chemscore.Internal.Correction>
0.1283

> <Gold.Rescore>
     Score         DG    S(hbond)    S(metal)    S(lipo)     H(rot)  DE(clash)    DE(int)     intcor
     13.10     -14.67       1.73        0.00      59.37       1.39       0.14       1.43       ----

> <Gold.Chemscore.Fitness>
13.1010

> <Gold.Chemscore.DG>
-14.6675

> <Gold.Chemscore.ZeroCoef>
-5.4800

> <Gold.Chemscore.Hbond>
1.7349

> <Gold.Chemscore.Metal>
0.0000

> <Gold.Chemscore.Lipo>
59.3650

> <Gold.Chemscore.Internal_Hbond>
0.0000

> <Gold.Chemscore.DEClash>
0.1410

> <Gold.Chemscore.DEInternal>
1.4255

> <Gold.Chemscore.Rot>
1.3879

> <Gold.Chemscore.Internal.Correction>
   9.000000E+99

> <Gold.Chemscore.Hbonds>
donor molecule, donor type, donor heavy atom, donor atom, acceptor molecule, acceptor atom, score
      L1  H     8    25       P1  7948  0.73
      L1  H    11    26       P1  7948  0.89

> <Gold.Chemscore.Hbond.Weighted>
-5.7947

> <Gold.Chemscore.Metal.Weighted>
-0.0000

> <Gold.Chemscore.Lipo.Weighted>
-6.9457

> <Gold.Chemscore.Internal_Hbond.Weighted>
0.0000

> <Gold.Chemscore.DEClash.Weighted>
0.1410

> <Gold.Chemscore.DEInternal.Weighted>
1.4255

> <Gold.Chemscore.Rot.Weighted>
3.5529

> <Gold.Chemscore.Internal.Correction.Weighted>
   9.000000E+99

> <Gold.Protein.RotatedTorsions>
[ 6907 6896 6895 6894 ] final -150.12 input  -60.11 | X-H torsion
[ 7974 7965 7964 7962 ] final   20.24 input  175.53 | X-H torsion
[ 8008 7997 7996 7995 ] final   17.02 input   59.86 | X-H torsion
[ 10167 10162 10161 10158 ] final    1.67 input  -65.29 | X-H torsion
[ 10718 10713 10712 10709 ] final  143.24 input   66.30 | X-H torsion
[ 10763 10752 10751 10750 ] final  -82.99 input  -60.55 | X-H torsion
[ 11005 11000 10999 10996 ] final   25.27 input  -57.11 | X-H torsion

> <Gold.Protein.ActiveResidues>
 VAL166  LYS551  ARG553  GLY616  TRP617  ASP618  TYR619  PRO620  LYS621  CYS622 
 ASP623  PHE694  ASN695  SER759  ASP760  ASP761  ALA762  ILE779  LEU786  VAL792 
 PHE793  MET794  SER795  GLU796  ALA797  LYS798  CYS799  TRP800  GLU811  SER814 

> <Gold.Protein.RotatedAtoms>
  151.1939  133.4651  159.2595 H   0  0  0  0  0  0  0  0  0  0  0  0  # atno 6907 bound_to 6896
  151.1136  135.0040  159.8516 H   0  0  0  0  0  0  0  0  0  0  0  0  # atno 6908 bound_to 6896
  152.5452  134.1856  159.8706 H   0  0  0  0  0  0  0  0  0  0  0  0  # atno 6909 bound_to 6896
  146.2119  139.8198  142.8682 H   0  0  0  0  0  0  0  0  0  0  0  0  # atno 7974 bound_to 7965
  154.8853  140.2979  155.5401 H   0  0  0  0  0  0  0  0  0  0  0  0  # atno 8008 bound_to 7997
  156.3021  140.2434  156.3796 H   0  0  0  0  0  0  0  0  0  0  0  0  # atno 8009 bound_to 7997
  154.8674  140.0403  157.1692 H   0  0  0  0  0  0  0  0  0  0  0  0  # atno 8010 bound_to 7997
  140.6672  143.7148  150.7849 H   0  0  0  0  0  0  0  0  0  0  0  0  # atno 10167 bound_to 10162
  157.3712  131.0979  151.0826 H   0  0  0  0  0  0  0  0  0  0  0  0  # atno 10718 bound_to 10713
  154.5823  135.5572  153.7197 H   0  0  0  0  0  0  0  0  0  0  0  0  # atno 10763 bound_to 10752
  153.0086  135.6323  154.1965 H   0  0  0  0  0  0  0  0  0  0  0  0  # atno 10764 bound_to 10752
  154.1905  135.2882  155.3003 H   0  0  0  0  0  0  0  0  0  0  0  0  # atno 10765 bound_to 10752
  140.3497  134.2242  155.7681 H   0  0  0  0  0  0  0  0  0  0  0  0  # atno 11005 bound_to 11000
  145.3108  141.0219  143.3555 LP  0  0  0  0  0  0  0  0  0  0  0  0  # atno 17320 bound_to 7965
  144.8937  139.4740  143.6665 LP  0  0  0  0  0  0  0  0  0  0  0  0  # atno 17321 bound_to 7965
  140.0827  143.4953  152.2521 LP  0  0  0  0  0  0  0  0  0  0  0  0  # atno 17342 bound_to 10162
  139.5925  144.7555  151.3366 LP  0  0  0  0  0  0  0  0  0  0  0  0  # atno 17343 bound_to 10162
  157.1930  130.6360  149.5711 LP  0  0  0  0  0  0  0  0  0  0  0  0  # atno 17370 bound_to 10713
  155.9756  130.4716  150.6470 LP  0  0  0  0  0  0  0  0  0  0  0  0  # atno 17371 bound_to 10713
  141.2015  133.7960  157.0435 LP  0  0  0  0  0  0  0  0  0  0  0  0  # atno 17394 bound_to 11000
  140.0713  134.9700  157.1472 LP  0  0  0  0  0  0  0  0  0  0  0  0  # atno 17395 bound_to 11000

$$$$
