AV-unprocessed.smi:3311|AV-procd|sdf|12724|dock6
  -GOLD-   2272019 63D 1   1.00000     0.00000
 Structure written by MMmdl.
 43 44  0  0  0  0  0  0  0  0  1 V2000
  146.8089  138.9587  151.3006 C   0  0  0  0  0  0  0  0  0  0  0  0
  146.3930  138.2630  152.6153 C   0  0  1  0  0  0  0  0  0  0  0  0
  146.3098  136.8072  152.4498 N   0  0  0  0  0  0  0  0  0  0  0  0
  145.3169  136.3216  151.4884 C   0  0  0  0  0  0  0  0  0  0  0  0
  145.1322  134.7886  151.5576 C   0  0  0  0  0  0  0  0  0  0  0  0
  144.6450  134.4876  152.8536 O   0  0  0  0  0  0  0  0  0  0  0  0
  144.1440  134.2573  150.4875 C   0  0  0  0  0  0  0  0  0  0  0  0
  144.0661  132.7204  150.4506 C   0  0  0  0  0  0  0  0  0  0  0  0
  145.4539  132.0917  150.2672 C   0  0  0  0  0  0  0  0  0  0  0  0
  146.4166  132.5627  151.3655 C   0  0  0  0  0  0  0  0  0  0  0  0
  146.5090  134.0988  151.4051 C   0  0  0  0  0  0  0  0  0  0  0  0
  147.3256  138.5937  153.8122 C   0  0  2  0  0  0  0  0  0  0  0  0
  146.9227  137.8445  155.0957 C   0  0  0  0  0  0  0  0  0  0  0  0
  147.4573  140.0293  154.0531 N   0  0  0  0  0  0  0  0  0  0  0  0
  146.4735  140.9916  154.1848 C   0  0  0  0  0  0  0  0  0  0  0  0
  147.0947  142.1942  154.3637 C   0  0  0  0  0  0  0  0  0  0  0  0
  148.4782  141.8690  154.3163 C   0  0  0  0  0  0  0  0  0  0  0  0
  148.6911  140.5777  154.1247 N   0  0  0  0  0  0  0  0  0  0  0  0
  146.9805  140.0241  151.4511 H   0  0  0  0  0  0  0  0  0  0  0  0
  146.0336  138.8761  150.5396 H   0  0  0  0  0  0  0  0  0  0  0  0
  147.7232  138.5308  150.8882 H   0  0  0  0  0  0  0  0  0  0  0  0
  145.3983  138.6261  152.8761 H   0  0  0  0  0  0  0  0  0  0  0  0
  147.2239  136.4361  152.2087 H   0  0  0  0  0  0  0  0  0  0  0  0
  144.3612  136.8097  151.6837 H   0  0  0  0  0  0  0  0  0  0  0  0
  145.6003  136.5951  150.4720 H   0  0  0  0  0  0  0  0  0  0  0  0
  145.3818  134.2851  153.4094 H   0  0  0  0  0  0  0  0  0  0  0  0
  143.1433  134.6582  150.6532 H   0  0  0  0  0  0  0  0  0  0  0  0
  144.4543  134.6162  149.5053 H   0  0  0  0  0  0  0  0  0  0  0  0
  143.6163  132.3518  151.3731 H   0  0  0  0  0  0  0  0  0  0  0  0
  143.4071  132.4039  149.6417 H   0  0  0  0  0  0  0  0  0  0  0  0
  145.3751  131.0043  150.2815 H   0  0  0  0  0  0  0  0  0  0  0  0
  145.8531  132.3611  149.2886 H   0  0  0  0  0  0  0  0  0  0  0  0
  146.0838  132.1854  152.3330 H   0  0  0  0  0  0  0  0  0  0  0  0
  147.4063  132.1381  151.1956 H   0  0  0  0  0  0  0  0  0  0  0  0
  146.9794  134.4387  150.4814 H   0  0  0  0  0  0  0  0  0  0  0  0
  147.1772  134.4048  152.2115 H   0  0  0  0  0  0  0  0  0  0  0  0
  148.3219  138.2209  153.5645 H   0  0  0  0  0  0  0  0  0  0  0  0
  146.9254  136.7664  154.9334 H   0  0  0  0  0  0  0  0  0  0  0  0
  145.9264  138.1212  155.4396 H   0  0  0  0  0  0  0  0  0  0  0  0
  147.6226  138.0533  155.9053 H   0  0  0  0  0  0  0  0  0  0  0  0
  145.4227  140.7476  154.1380 H   0  0  0  0  0  0  0  0  0  0  0  0
  146.6313  143.1595  154.5019 H   0  0  0  0  0  0  0  0  0  0  0  0
  149.3284  142.5282  154.4112 H   0  0  0  0  0  0  0  0  0  0  0  0
  1  2  1  0  0  0  0
  1 19  1  0  0  0  0
  1 20  1  0  0  0  0
  1 21  1  0  0  0  0
  2  3  1  0  0  0  0
  2 12  1  0  0  0  0
  2 22  1  0  0  0  0
  3  4  1  0  0  0  0
  3 23  1  0  0  0  0
  4  5  1  0  0  0  0
  4 24  1  0  0  0  0
  4 25  1  0  0  0  0
  5 11  1  0  0  0  0
  5  6  1  0  0  0  0
  5  7  1  0  0  0  0
  6 26  1  0  0  0  0
  7  8  1  0  0  0  0
  7 27  1  0  0  0  0
  7 28  1  0  0  0  0
  8  9  1  0  0  0  0
  8 29  1  0  0  0  0
  8 30  1  0  0  0  0
  9 10  1  0  0  0  0
  9 31  1  0  0  0  0
  9 32  1  0  0  0  0
 10 11  1  0  0  0  0
 10 33  1  0  0  0  0
 10 34  1  0  0  0  0
 11 35  1  0  0  0  0
 11 36  1  0  0  0  0
 12 13  1  0  0  0  0
 12 14  1  0  0  0  0
 12 37  1  0  0  0  0
 13 38  1  0  0  0  0
 13 39  1  0  0  0  0
 13 40  1  0  0  0  0
 14 18  1  0  0  0  0
 14 15  1  0  0  0  0
 15 16  2  0  0  0  0
 15 41  1  0  0  0  0
 16 17  1  0  0  0  0
 16 42  1  0  0  0  0
 17 18  2  0  0  0  0
 17 43  1  0  0  0  0
M  END
> <s_m_source_file>
AV-unprocessed.smi

> <i_m_source_file_index>
3311

> <i_lp_mmshare_version>
43012

> <i_f3d_flags>
0

> <s_epik_input>
bjFbY0hdW2NIXVtjSF1uMVtDQEBIXShbQ0gzXSlbQ0BIXShbQ0gzXSlbTkhdW0NIMl1DMihbT0hdKVtDSDJdW0NIMl1bQ0gyXVtDSDJdW0NIMl0y

> <s_epik_cmdline>
J2VwaWtfcHl0aG9uJywgJy1waCcsICc3LjAnLCAnLXRuJywgJzgnLCAnLW1hJywgJzIwMCcsICctbWV0YWxfYmluZGluZycsICctaW1hZScsICc8aW5maWxlLm1hZT4nLCAnLW9tYWUnLCAnPG91dGZpbGUubWFlPic=

> <r_lp_tautomer_probability>
1

> <r_epik_Ionization_Penalty>
2.222

> <r_epik_Ionization_Penalty_Charging>
0

> <r_epik_Ionization_Penalty_Neutral>
2.222

> <r_epik_State_Penalty>
2.36562

> <r_epik_Charging_Adjusted_Penalty>
2.36562

> <i_epik_Tot_Q>
0

> <i_epik_Tot_abs_Q>
0

> <r_epik_Metal_State_Penalty>
2.36435

> <b_epik_Metal_Only>
0

> <s_lp_Force_Field>
OPLS_2005

> <r_lp_Energy>
28.1428

> <b_lp_Chiralities_Consistent>
1

> <s_lp_Variant>
AV-unprocessed.smi:3311-6

> <Gold.Version>
5.8.1

> <Gold.Id.Protein>
6NUR|6NUR_protein|mol2

> <Gold.PLP.Fitness>
40.7366

> <Gold.PLP.PLP>
-33.1740

> <Gold.PLP.part.hbond>
-1.0000

> <Gold.PLP.part.metal>
0.0000

> <Gold.PLP.part.buried>
-0.2390

> <Gold.PLP.part.nonpolar>
-31.7084

> <Gold.PLP.part.repulsive>
0.1266

> <Gold.PLP.ligand.clash>
0.0000

> <Gold.PLP.ligand.torsion>
0.3582

> <Gold.PLP.Chemscore.Hbond>
1.0000

> <Gold.PLP.Chemscore.CHOScore>
1.7103

> <Gold.PLP.Chemscore.Metal>
0.0000

> <Gold.Chemscore.Hbonds>
donor molecule, donor type, donor heavy atom, donor atom, acceptor molecule, acceptor atom, score
      L1  H     3    23       P1  7948  1.00
      L1  C    15    41       P1 10175  1.00
      L1  C    17    43       P1  8028  0.69

> <Gold.PLP.Chemscore.Internal.Correction>
0.1480

> <Gold.Rescore>
     Score         DG    S(hbond)    S(metal)    S(lipo)     H(rot)  DE(clash)    DE(int)     intcor
     13.81     -14.47       1.00        0.00      93.58       2.07       0.08       0.58       ----

> <Gold.Chemscore.Fitness>
13.8114

> <Gold.Chemscore.DG>
-14.4679

> <Gold.Chemscore.ZeroCoef>
-5.4800

> <Gold.Chemscore.Hbond>
0.9986

> <Gold.Chemscore.Metal>
0.0000

> <Gold.Chemscore.Lipo>
93.5760

> <Gold.Chemscore.Internal_Hbond>
0.0000

> <Gold.Chemscore.DEClash>
0.0813

> <Gold.Chemscore.DEInternal>
0.5752

> <Gold.Chemscore.Rot>
2.0686

> <Gold.Chemscore.Internal.Correction>
   9.000000E+99

> <Gold.Chemscore.Hbonds>
donor molecule, donor type, donor heavy atom, donor atom, acceptor molecule, acceptor atom, score
      L1  H     3    23       P1  7948  1.00

> <Gold.Chemscore.Hbond.Weighted>
-3.3352

> <Gold.Chemscore.Metal.Weighted>
-0.0000

> <Gold.Chemscore.Lipo.Weighted>
-10.9484

> <Gold.Chemscore.Internal_Hbond.Weighted>
0.0000

> <Gold.Chemscore.DEClash.Weighted>
0.0813

> <Gold.Chemscore.DEInternal.Weighted>
0.5752

> <Gold.Chemscore.Rot.Weighted>
5.2957

> <Gold.Chemscore.Internal.Correction.Weighted>
   9.000000E+99

> <Gold.Protein.RotatedTorsions>
[ 6907 6896 6895 6894 ] final   47.88 input  -60.11 | X-H torsion
[ 7974 7965 7964 7962 ] final -117.57 input  175.53 | X-H torsion
[ 8008 7997 7996 7995 ] final  -20.65 input   59.86 | X-H torsion
[ 10167 10162 10161 10158 ] final   40.58 input  -65.29 | X-H torsion
[ 10718 10713 10712 10709 ] final  -99.58 input   66.30 | X-H torsion
[ 10763 10752 10751 10750 ] final  122.00 input  -60.55 | X-H torsion
[ 11005 11000 10999 10996 ] final  -77.52 input  -57.11 | X-H torsion

> <Gold.Protein.ActiveResidues>
 VAL166  LYS551  ARG553  GLY616  TRP617  ASP618  TYR619  PRO620  LYS621  CYS622 
 ASP623  PHE694  ASN695  SER759  ASP760  ASP761  ALA762  ILE779  LEU786  VAL792 
 PHE793  MET794  SER795  GLU796  ALA797  LYS798  CYS799  TRP800  GLU811  SER814 

> <Gold.Protein.RotatedAtoms>
  152.2732  134.7910  160.0410 H   0  0  0  0  0  0  0  0  0  0  0  0  # atno 6907 bound_to 6896
  151.8515  133.3435  159.3683 H   0  0  0  0  0  0  0  0  0  0  0  0  # atno 6908 bound_to 6896
  150.7160  134.5222  159.5703 H   0  0  0  0  0  0  0  0  0  0  0  0  # atno 6909 bound_to 6896
  145.0837  140.8443  143.4024 H   0  0  0  0  0  0  0  0  0  0  0  0  # atno 7974 bound_to 7965
  154.4756  140.2056  155.9887 H   0  0  0  0  0  0  0  0  0  0  0  0  # atno 8008 bound_to 7997
  156.1083  140.3233  155.8007 H   0  0  0  0  0  0  0  0  0  0  0  0  # atno 8009 bound_to 7997
  155.4679  140.0529  157.2974 H   0  0  0  0  0  0  0  0  0  0  0  0  # atno 8010 bound_to 7997
  140.3727  144.2083  150.6132 H   0  0  0  0  0  0  0  0  0  0  0  0  # atno 10167 bound_to 10162
  156.0138  130.5289  150.6692 H   0  0  0  0  0  0  0  0  0  0  0  0  # atno 10718 bound_to 10713
  153.6228  135.3410  155.3016 H   0  0  0  0  0  0  0  0  0  0  0  0  # atno 10763 bound_to 10752
  154.8596  135.4277  154.2189 H   0  0  0  0  0  0  0  0  0  0  0  0  # atno 10764 bound_to 10752
  153.3066  135.7028  153.7227 H   0  0  0  0  0  0  0  0  0  0  0  0  # atno 10765 bound_to 10752
  141.1660  133.7026  156.7833 H   0  0  0  0  0  0  0  0  0  0  0  0  # atno 11005 bound_to 11000
  145.1148  139.2733  143.5619 LP  0  0  0  0  0  0  0  0  0  0  0  0  # atno 17320 bound_to 7965
  146.3531  140.0754  142.8621 LP  0  0  0  0  0  0  0  0  0  0  0  0  # atno 17321 bound_to 7965
  140.5017  143.2316  151.8669 LP  0  0  0  0  0  0  0  0  0  0  0  0  # atno 17342 bound_to 10162
  139.4802  144.5052  151.9007 LP  0  0  0  0  0  0  0  0  0  0  0  0  # atno 17343 bound_to 10162
  157.4418  131.0862  151.0936 LP  0  0  0  0  0  0  0  0  0  0  0  0  # atno 17370 bound_to 10713
  157.1478  130.6171  149.5573 LP  0  0  0  0  0  0  0  0  0  0  0  0  # atno 17371 bound_to 10713
  140.2379  134.8636  157.3543 LP  0  0  0  0  0  0  0  0  0  0  0  0  # atno 17394 bound_to 11000
  140.1825  134.4471  155.7763 LP  0  0  0  0  0  0  0  0  0  0  0  0  # atno 17395 bound_to 11000

$$$$
