AV-unprocessed.smi:50|AV-procd|sdf|491|dock4
  -GOLD-   2262016353D 1   1.00000     0.00000
 Structure written by MMmdl.
 44 45  0  0  0  0  0  0  0  0  2 V2000
  143.9337  134.9491  151.2757 C   0  0  0  0  0  0  0  0  0  0  0  0
  144.6203  133.8993  150.3818 C   0  0  0  0  0  0  0  0  0  0  0  0
  143.9080  132.5425  150.5480 C   0  0  0  0  0  0  0  0  0  0  0  0
  146.1484  133.8248  150.6524 C   0  0  2  0  0  0  0  0  0  0  0  0
  146.7980  132.8022  149.8091 N   0  3  0  0  0  0  0  0  0  0  0  0
  146.4927  133.4768  152.1111 C   0  0  0  0  0  0  0  0  0  0  0  0
  145.6611  133.2031  152.9787 O   0  0  0  0  0  0  0  0  0  0  0  0
  147.8205  133.5373  152.3037 O   0  0  0  0  0  0  0  0  0  0  0  0
  148.4287  132.7168  153.2880 C   0  0  0  0  0  0  0  0  0  0  0  0
  148.2203  133.3403  154.6707 C   0  0  0  0  0  0  0  0  0  0  0  0
  148.6569  134.6896  154.6371 O   0  0  0  0  0  0  0  0  0  0  0  0
  148.7370  135.2708  155.8970 C   0  0  0  0  0  0  0  0  0  0  0  0
  149.8474  136.2063  155.8846 N   0  0  0  0  0  0  0  0  0  0  0  0
  151.0820  136.0709  156.4700 C   0  0  0  0  0  0  0  0  0  0  0  0
  151.8716  137.0921  156.2867 N   0  0  0  0  0  0  0  0  0  0  0  0
  151.1098  137.9806  155.5334 C   0  0  0  0  0  0  0  0  0  0  0  0
  151.4397  139.2835  155.0289 C   0  0  0  0  0  0  0  0  0  0  0  0
  152.4929  139.9049  155.1537 O   0  0  0  0  0  0  0  0  0  0  0  0
  150.3792  139.8579  154.3165 N   0  0  0  0  0  0  0  0  0  0  0  0
  149.1465  139.2410  154.1166 C   0  0  0  0  0  0  0  0  0  0  0  0
  148.2351  139.9268  153.4144 N   0  0  0  0  0  0  0  0  0  0  0  0
  148.8458  138.0401  154.5783 N   0  0  0  0  0  0  0  0  0  0  0  0
  149.8604  137.4469  155.2816 C   0  0  0  0  0  0  0  0  0  0  0  0
  146.5991  134.7859  150.4016 H   0  0  0  0  0  0  0  0  0  0  0  0
  150.5340  140.7781  153.9313 H   0  0  0  0  0  0  0  0  0  0  0  0
  144.0606  134.7120  152.3326 H   0  0  0  0  0  0  0  0  0  0  0  0
  142.8628  134.9955  151.0750 H   0  0  0  0  0  0  0  0  0  0  0  0
  144.3298  135.9506  151.1080 H   0  0  0  0  0  0  0  0  0  0  0  0
  144.4740  134.2141  149.3472 H   0  0  0  0  0  0  0  0  0  0  0  0
  144.0711  132.1293  151.5439 H   0  0  0  0  0  0  0  0  0  0  0  0
  144.2523  131.8083  149.8197 H   0  0  0  0  0  0  0  0  0  0  0  0
  142.8316  132.6448  150.4057 H   0  0  0  0  0  0  0  0  0  0  0  0
  146.1782  132.0117  149.7042 H   0  0  0  0  0  0  0  0  0  0  0  0
  147.6598  132.5031  150.2424 H   0  0  0  0  0  0  0  0  0  0  0  0
  147.9686  131.7280  153.2623 H   0  0  0  0  0  0  0  0  0  0  0  0
  149.4919  132.5906  153.0787 H   0  0  0  0  0  0  0  0  0  0  0  0
  147.1727  133.2731  154.9689 H   0  0  0  0  0  0  0  0  0  0  0  0
  148.8069  132.7874  155.4060 H   0  0  0  0  0  0  0  0  0  0  0  0
  147.8111  135.7992  156.1305 H   0  0  0  0  0  0  0  0  0  0  0  0
  148.9317  134.5174  156.6617 H   0  0  0  0  0  0  0  0  0  0  0  0
  151.3780  135.1960  157.0303 H   0  0  0  0  0  0  0  0  0  0  0  0
  148.4629  140.8449  153.0609 H   0  0  0  0  0  0  0  0  0  0  0  0
  147.3238  139.5300  153.2368 H   0  0  0  0  0  0  0  0  0  0  0  0
  146.9945  133.1962  148.9000 H   0  0  0  0  0  0  0  0  0  0  0  0
  1  2  1  0  0  0  0
  1 26  1  0  0  0  0
  1 27  1  0  0  0  0
  1 28  1  0  0  0  0
  2  3  1  0  0  0  0
  2  4  1  0  0  0  0
  2 29  1  0  0  0  0
  3 30  1  0  0  0  0
  3 31  1  0  0  0  0
  3 32  1  0  0  0  0
  4 24  1  0  0  0  0
  4  5  1  0  0  0  0
  4  6  1  0  0  0  0
  5 33  1  0  0  0  0
  5 34  1  0  0  0  0
  5 44  1  0  0  0  0
  6  7  2  0  0  0  0
  6  8  1  0  0  0  0
  8  9  1  0  0  0  0
  9 10  1  0  0  0  0
  9 35  1  0  0  0  0
  9 36  1  0  0  0  0
 10 11  1  0  0  0  0
 10 37  1  0  0  0  0
 10 38  1  0  0  0  0
 11 12  1  0  0  0  0
 12 13  1  0  0  0  0
 12 39  1  0  0  0  0
 12 40  1  0  0  0  0
 13 23  1  0  0  0  0
 13 14  1  0  0  0  0
 14 15  2  0  0  0  0
 14 41  1  0  0  0  0
 15 16  1  0  0  0  0
 16 23  2  0  0  0  0
 16 17  1  0  0  0  0
 17 18  2  0  0  0  0
 17 19  1  0  0  0  0
 19 25  1  0  0  0  0
 19 20  1  0  0  0  0
 20 21  1  0  0  0  0
 20 22  2  0  0  0  0
 21 42  1  0  0  0  0
 21 43  1  0  0  0  0
 22 23  1  0  0  0  0
M  CHG  1   5   1
M  END
> <s_m_source_file>
AV-unprocessed.smi

> <i_m_source_file_index>
50

> <i_lp_mmshare_version>
43012

> <i_f3d_flags>
0

> <s_epik_input>
W0NIM11bQ0hdKFtDSDNdKVtDQEhdKFtOSDJdKUMoPU8pT1tDSDJdW0NIMl1PW0NIMl1uKFtjSF1uMSljKGMxMiluYyhbTkgyXSlbbkhdYzI9Tw==

> <s_epik_cmdline>
J2VwaWtfcHl0aG9uJywgJy1waCcsICc3LjAnLCAnLXRuJywgJzgnLCAnLW1hJywgJzIwMCcsICctbWV0YWxfYmluZGluZycsICctaW1hZScsICc8aW5maWxlLm1hZT4nLCAnLW9tYWUnLCAnPG91dGZpbGUubWFlPic=

> <r_lp_tautomer_probability>
0.99994

> <r_epik_Ionization_Penalty>
0.217551

> <r_epik_Ionization_Penalty_Charging>
0.217477

> <r_epik_Ionization_Penalty_Neutral>
7.42487e-05

> <r_epik_State_Penalty>
0.206211

> <r_epik_Charging_Adjusted_Penalty>
0.423688

> <i_epik_Tot_Q>
1

> <i_epik_Tot_abs_Q>
1

> <r_epik_Metal_State_Penalty>
0.526339

> <b_epik_Metal_Only>
0

> <s_epik_Chemistry_Notes>
This compound has an ester and may undergo hydrolysis at high or low pH. This compound contains an acetal/aminal-like group ( X-CH(R)-Y where X, Y are N, S, or O) that may be acid/base labile, releasing an aldehyde.

> <s_lp_Force_Field>
OPLS_2005

> <r_lp_Energy>
8.83135

> <b_lp_Chiralities_Consistent>
1

> <s_lp_Variant>
AV-unprocessed.smi:50-1

> <Gold.Version>
5.8.1

> <Gold.Id.Protein>
6NUR|6NUR_protein|mol2

> <Gold.PLP.Fitness>
40.7956

> <Gold.PLP.PLP>
-33.6360

> <Gold.PLP.part.hbond>
-4.2633

> <Gold.PLP.part.metal>
0.0000

> <Gold.PLP.part.buried>
-7.2444

> <Gold.PLP.part.nonpolar>
-24.4419

> <Gold.PLP.part.repulsive>
2.0231

> <Gold.PLP.ligand.clash>
0.0000

> <Gold.PLP.ligand.torsion>
0.9424

> <Gold.PLP.Chemscore.Hbond>
2.9175

> <Gold.PLP.Chemscore.CHOScore>
0.0000

> <Gold.PLP.Chemscore.Metal>
0.0000

> <Gold.Chemscore.Hbonds>
donor molecule, donor type, donor heavy atom, donor atom, acceptor molecule, acceptor atom, score
      L1  H     5    34       P1 10747  0.68
      P1  H  7997  8009       L1    18  0.65
      P1  H 10752 10763       L1    15  0.01

> <Gold.PLP.Chemscore.Internal.Correction>
0.2920

> <Gold.Rescore>
     Score         DG    S(hbond)    S(metal)    S(lipo)     H(rot)  DE(clash)    DE(int)     intcor
      2.77      -4.92       1.94        0.00      46.10       4.86       0.03       2.12       ----

> <Gold.Chemscore.Fitness>
2.7722

> <Gold.Chemscore.DG>
-4.9173

> <Gold.Chemscore.ZeroCoef>
-5.4800

> <Gold.Chemscore.Hbond>
1.9394

> <Gold.Chemscore.Metal>
0.0000

> <Gold.Chemscore.Lipo>
46.1033

> <Gold.Chemscore.Internal_Hbond>
0.0000

> <Gold.Chemscore.DEClash>
0.0285

> <Gold.Chemscore.DEInternal>
2.1166

> <Gold.Chemscore.Rot>
4.8571

> <Gold.Chemscore.Internal.Correction>
   9.000000E+99

> <Gold.Chemscore.Hbonds>
donor molecule, donor type, donor heavy atom, donor atom, acceptor molecule, acceptor atom, score
      L1  H     5    34       P1 10747  0.65
      P1  H  7997  8009       L1    18  0.62

> <Gold.Chemscore.Hbond.Weighted>
-6.4775

> <Gold.Chemscore.Metal.Weighted>
-0.0000

> <Gold.Chemscore.Lipo.Weighted>
-5.3941

> <Gold.Chemscore.Internal_Hbond.Weighted>
0.0000

> <Gold.Chemscore.DEClash.Weighted>
0.0285

> <Gold.Chemscore.DEInternal.Weighted>
2.1166

> <Gold.Chemscore.Rot.Weighted>
12.4343

> <Gold.Chemscore.Internal.Correction.Weighted>
   9.000000E+99

> <Gold.Protein.RotatedTorsions>
[ 6907 6896 6895 6894 ] final    7.01 input  -60.11 | X-H torsion
[ 7974 7965 7964 7962 ] final  -34.84 input  175.53 | X-H torsion
[ 8008 7997 7996 7995 ] final -122.95 input   59.86 | X-H torsion
[ 10167 10162 10161 10158 ] final -106.13 input  -65.29 | X-H torsion
[ 10718 10713 10712 10709 ] final   21.31 input   66.30 | X-H torsion
[ 10763 10752 10751 10750 ] final   83.93 input  -60.55 | X-H torsion
[ 11005 11000 10999 10996 ] final  -49.06 input  -57.11 | X-H torsion

> <Gold.Protein.ActiveResidues>
 VAL166  LYS551  ARG553  GLY616  TRP617  ASP618  TYR619  PRO620  LYS621  CYS622 
 ASP623  PHE694  ASN695  SER759  ASP760  ASP761  ALA762  ILE779  LEU786  VAL792 
 PHE793  MET794  SER795  GLU796  ALA797  LYS798  CYS799  TRP800  GLU811  SER814 

> <Gold.Protein.RotatedAtoms>
  151.6830  135.0959  160.0219 H   0  0  0  0  0  0  0  0  0  0  0  0  # atno 6907 bound_to 6896
  152.3824  133.6560  159.6180 H   0  0  0  0  0  0  0  0  0  0  0  0  # atno 6908 bound_to 6896
  150.7758  133.9008  159.3382 H   0  0  0  0  0  0  0  0  0  0  0  0  # atno 6909 bound_to 6896
  146.0796  140.6087  142.8914 H   0  0  0  0  0  0  0  0  0  0  0  0  # atno 7974 bound_to 7965
  155.1725  140.0408  157.2866 H   0  0  0  0  0  0  0  0  0  0  0  0  # atno 8008 bound_to 7997
  154.6259  140.2512  155.7464 H   0  0  0  0  0  0  0  0  0  0  0  0  # atno 8009 bound_to 7997
  156.2459  140.2885  156.0589 H   0  0  0  0  0  0  0  0  0  0  0  0  # atno 8010 bound_to 7997
  140.1910  143.3892  152.1206 H   0  0  0  0  0  0  0  0  0  0  0  0  # atno 10167 bound_to 10162
  157.1367  130.6614  149.5968 H   0  0  0  0  0  0  0  0  0  0  0  0  # atno 10718 bound_to 10713
  153.1335  135.4673  154.9386 H   0  0  0  0  0  0  0  0  0  0  0  0  # atno 10763 bound_to 10752
  154.7685  135.3152  154.8239 H   0  0  0  0  0  0  0  0  0  0  0  0  # atno 10764 bound_to 10752
  153.8776  135.6897  153.4823 H   0  0  0  0  0  0  0  0  0  0  0  0  # atno 10765 bound_to 10752
  141.0737  133.6672  156.3531 H   0  0  0  0  0  0  0  0  0  0  0  0  # atno 11005 bound_to 11000
  144.7284  140.4597  143.6956 LP  0  0  0  0  0  0  0  0  0  0  0  0  # atno 17320 bound_to 7965
  145.6243  139.1528  143.3005 LP  0  0  0  0  0  0  0  0  0  0  0  0  # atno 17321 bound_to 7965
  139.5256  144.7097  151.5243 LP  0  0  0  0  0  0  0  0  0  0  0  0  # atno 17342 bound_to 10162
  140.6455  143.8802  150.6733 LP  0  0  0  0  0  0  0  0  0  0  0  0  # atno 17343 bound_to 10162
  155.9797  130.4792  150.6729 LP  0  0  0  0  0  0  0  0  0  0  0  0  # atno 17370 bound_to 10713
  157.4344  131.0853  151.1006 LP  0  0  0  0  0  0  0  0  0  0  0  0  # atno 17371 bound_to 10713
  140.5619  134.5926  157.5435 LP  0  0  0  0  0  0  0  0  0  0  0  0  # atno 17394 bound_to 11000
  139.9550  134.7551  156.0363 LP  0  0  0  0  0  0  0  0  0  0  0  0  # atno 17395 bound_to 11000

$$$$
