AV-unprocessed.smi:2035|AV-procd|sdf|8271|dock1
  -GOLD-   2272010543D 1   1.00000     0.00000
 Structure written by MMmdl.
 35 36  0  0  0  0  0  0  0  0  2 V2000
  150.6795  140.9471  158.5330 O   0  0  0  0  0  0  0  0  0  0  0  0
  151.0028  141.6914  157.6074 C   0  0  0  0  0  0  0  0  0  0  0  0
  151.4422  142.9541  157.7465 N   0  0  0  0  0  0  0  0  0  0  0  0
  151.6333  143.6895  158.9472 C   0  0  0  0  0  0  0  0  0  0  0  0
  151.5781  145.0988  158.8705 C   0  0  0  0  0  0  0  0  0  0  0  0
  151.7512  145.8659  160.0406 C   0  0  0  0  0  0  0  0  0  0  0  0
  151.9560  145.2497  161.2246 N   0  3  0  0  0  0  0  0  0  0  0  0
  151.9990  143.9058  161.3505 C   0  0  0  0  0  0  0  0  0  0  0  0
  151.8333  143.0865  160.2150 C   0  0  0  0  0  0  0  0  0  0  0  0
  150.9820  141.3232  156.3183 N   0  0  0  0  0  0  0  0  0  0  0  0
  150.5766  140.0120  155.8117 C   0  0  2  0  0  0  0  0  0  0  0  0
  151.8005  139.0650  155.7103 C   0  0  0  0  0  0  0  0  0  0  0  0
  151.6864  137.9150  154.6880 C   0  0  0  0  0  0  0  0  0  0  0  0
  150.4373  137.0219  154.8306 C   0  0  0  0  0  0  0  0  0  0  0  0
  149.0652  137.7367  154.8025 C   0  0  0  0  0  0  0  0  0  0  0  0
  149.0703  139.0284  154.1166 N   0  0  0  0  0  0  0  0  0  0  0  0
  149.7226  140.1272  154.5342 C   0  0  0  0  0  0  0  0  0  0  0  0
  149.6613  141.1863  153.9110 O   0  0  0  0  0  0  0  0  0  0  0  0
  151.7517  143.4112  156.9012 H   0  0  0  0  0  0  0  0  0  0  0  0
  151.4134  145.5916  157.9230 H   0  0  0  0  0  0  0  0  0  0  0  0
  151.7311  146.9457  160.0647 H   0  0  0  0  0  0  0  0  0  0  0  0
  152.1580  143.5279  162.3499 H   0  0  0  0  0  0  0  0  0  0  0  0
  151.8514  142.0143  160.3387 H   0  0  0  0  0  0  0  0  0  0  0  0
  151.2608  142.0008  155.6234 H   0  0  0  0  0  0  0  0  0  0  0  0
  149.9038  139.5954  156.5625 H   0  0  0  0  0  0  0  0  0  0  0  0
  152.6858  139.6465  155.4486 H   0  0  0  0  0  0  0  0  0  0  0  0
  152.0061  138.6481  156.6970 H   0  0  0  0  0  0  0  0  0  0  0  0
  151.7233  138.3240  153.6776 H   0  0  0  0  0  0  0  0  0  0  0  0
  152.5746  137.2880  154.7699 H   0  0  0  0  0  0  0  0  0  0  0  0
  150.4613  136.2936  154.0192 H   0  0  0  0  0  0  0  0  0  0  0  0
  150.5107  136.4365  155.7476 H   0  0  0  0  0  0  0  0  0  0  0  0
  148.3304  137.0932  154.3182 H   0  0  0  0  0  0  0  0  0  0  0  0
  148.6961  137.8756  155.8192 H   0  0  0  0  0  0  0  0  0  0  0  0
  148.5229  139.0982  153.2708 H   0  0  0  0  0  0  0  0  0  0  0  0
  152.0781  145.8229  162.0600 H   0  0  0  0  0  0  0  0  0  0  0  0
  1  2  2  0  0  0  0
  2  3  1  0  0  0  0
  2 10  1  0  0  0  0
  3  4  1  0  0  0  0
  3 19  1  0  0  0  0
  4  9  1  0  0  0  0
  4  5  2  0  0  0  0
  5  6  1  0  0  0  0
  5 20  1  0  0  0  0
  6  7  2  0  0  0  0
  6 21  1  0  0  0  0
  7  8  1  0  0  0  0
  7 35  1  0  0  0  0
  8  9  2  0  0  0  0
  8 22  1  0  0  0  0
  9 23  1  0  0  0  0
 10 11  1  0  0  0  0
 10 24  1  0  0  0  0
 11 17  1  0  0  0  0
 11 12  1  0  0  0  0
 11 25  1  0  0  0  0
 12 13  1  0  0  0  0
 12 26  1  0  0  0  0
 12 27  1  0  0  0  0
 13 14  1  0  0  0  0
 13 28  1  0  0  0  0
 13 29  1  0  0  0  0
 14 15  1  0  0  0  0
 14 30  1  0  0  0  0
 14 31  1  0  0  0  0
 15 16  1  0  0  0  0
 15 32  1  0  0  0  0
 15 33  1  0  0  0  0
 16 17  1  0  0  0  0
 16 34  1  0  0  0  0
 17 18  2  0  0  0  0
M  CHG  1   7   1
M  END
> <s_m_source_file>
AV-unprocessed.smi

> <i_m_source_file_index>
2035

> <i_lp_mmshare_version>
43012

> <i_f3d_flags>
0

> <s_epik_input>
W2NIXTFbY0hdbltjSF1bY0hdYzFbTkhdQyg9TylbTkhdW0NAQEhdMltDSDJdW0NIMl1bQ0gyXVtDSDJdW05IXUMyPU8=

> <s_epik_cmdline>
J2VwaWtfcHl0aG9uJywgJy1waCcsICc3LjAnLCAnLXRuJywgJzgnLCAnLW1hJywgJzIwMCcsICctbWV0YWxfYmluZGluZycsICctaW1hZScsICc8aW5maWxlLm1hZT4nLCAnLW9tYWUnLCAnPG91dGZpbGUubWFlPic=

> <r_epik_Ionization_Penalty>
1.10339

> <r_epik_Ionization_Penalty_Charging>
1.10337

> <r_epik_Ionization_Penalty_Neutral>
1.85869e-05

> <r_epik_State_Penalty>
1.16071

> <r_epik_Charging_Adjusted_Penalty>
2.26408

> <i_epik_Tot_Q>
1

> <i_epik_Tot_abs_Q>
1

> <r_epik_Metal_State_Penalty>
1.24751

> <b_epik_Metal_Only>
0

> <s_lp_Force_Field>
OPLS_2005

> <r_lp_Energy>
25.3939

> <b_lp_Chiralities_Consistent>
1

> <s_lp_Variant>
AV-unprocessed.smi:2035-3

> <Gold.Version>
5.8.1

> <Gold.Id.Protein>
6NUR|6NUR_protein|mol2

> <Gold.PLP.Fitness>
40.9574

> <Gold.PLP.PLP>
-39.2882

> <Gold.PLP.part.hbond>
-3.7053

> <Gold.PLP.part.metal>
0.0000

> <Gold.PLP.part.buried>
-1.5846

> <Gold.PLP.part.nonpolar>
-35.0896

> <Gold.PLP.part.repulsive>
1.3788

> <Gold.PLP.ligand.clash>
0.0000

> <Gold.PLP.ligand.torsion>
0.4397

> <Gold.PLP.Chemscore.Hbond>
0.8320

> <Gold.PLP.Chemscore.CHOScore>
0.0000

> <Gold.PLP.Chemscore.Metal>
0.0000

> <Gold.Chemscore.Hbonds>
donor molecule, donor type, donor heavy atom, donor atom, acceptor molecule, acceptor atom, score
      P1  H  7989  7998       L1    18  0.12
      P1  H  8011  8017       L1    18  0.83

> <Gold.PLP.Chemscore.Internal.Correction>
0.0527

> <Gold.Rescore>
     Score         DG    S(hbond)    S(metal)    S(lipo)     H(rot)  DE(clash)    DE(int)     intcor
     12.49     -16.36       0.75        0.00      93.59       1.00       2.27       1.60       ----

> <Gold.Chemscore.Fitness>
12.4875

> <Gold.Chemscore.DG>
-16.3613

> <Gold.Chemscore.ZeroCoef>
-5.4800

> <Gold.Chemscore.Hbond>
0.7459

> <Gold.Chemscore.Metal>
0.0000

> <Gold.Chemscore.Lipo>
93.5898

> <Gold.Chemscore.Internal_Hbond>
0.0000

> <Gold.Chemscore.DEClash>
2.2740

> <Gold.Chemscore.DEInternal>
1.5998

> <Gold.Chemscore.Rot>
1.0000

> <Gold.Chemscore.Internal.Correction>
   9.000000E+99

> <Gold.Chemscore.Hbonds>
donor molecule, donor type, donor heavy atom, donor atom, acceptor molecule, acceptor atom, score
      P1  H  8011  8017       L1    18  0.78

> <Gold.Chemscore.Hbond.Weighted>
-2.4912

> <Gold.Chemscore.Metal.Weighted>
-0.0000

> <Gold.Chemscore.Lipo.Weighted>
-10.9500

> <Gold.Chemscore.Internal_Hbond.Weighted>
0.0000

> <Gold.Chemscore.DEClash.Weighted>
2.2740

> <Gold.Chemscore.DEInternal.Weighted>
1.5998

> <Gold.Chemscore.Rot.Weighted>
2.5600

> <Gold.Chemscore.Internal.Correction.Weighted>
   9.000000E+99

> <Gold.Protein.RotatedTorsions>
[ 6907 6896 6895 6894 ] final   26.53 input  -60.11 | X-H torsion
[ 7974 7965 7964 7962 ] final  154.28 input  175.53 | X-H torsion
[ 8008 7997 7996 7995 ] final   35.25 input   59.86 | X-H torsion
[ 10167 10162 10161 10158 ] final   62.58 input  -65.29 | X-H torsion
[ 10718 10713 10712 10709 ] final -114.18 input   66.30 | X-H torsion
[ 10763 10752 10751 10750 ] final  -34.42 input  -60.55 | X-H torsion
[ 11005 11000 10999 10996 ] final  129.12 input  -57.11 | X-H torsion

> <Gold.Protein.ActiveResidues>
 VAL166  LYS551  ARG553  GLY616  TRP617  ASP618  TYR619  PRO620  LYS621  CYS622 
 ASP623  PHE694  ASN695  SER759  ASP760  ASP761  ALA762  ILE779  LEU786  VAL792 
 PHE793  MET794  SER795  GLU796  ALA797  LYS798  CYS799  TRP800  GLU811  SER814 

> <Gold.Protein.RotatedAtoms>
  151.9888  134.9990  160.0560 H   0  0  0  0  0  0  0  0  0  0  0  0  # atno 6907 bound_to 6896
  152.1628  133.4588  159.4878 H   0  0  0  0  0  0  0  0  0  0  0  0  # atno 6908 bound_to 6896
  150.6890  134.1968  159.4349 H   0  0  0  0  0  0  0  0  0  0  0  0  # atno 6909 bound_to 6896
  144.8099  139.6913  143.6146 H   0  0  0  0  0  0  0  0  0  0  0  0  # atno 7974 bound_to 7965
  155.1681  140.3289  155.4398 H   0  0  0  0  0  0  0  0  0  0  0  0  # atno 8008 bound_to 7997
  156.2519  140.1948  156.6736 H   0  0  0  0  0  0  0  0  0  0  0  0  # atno 8009 bound_to 7997
  154.6357  140.0576  156.9772 H   0  0  0  0  0  0  0  0  0  0  0  0  # atno 8010 bound_to 7997
  140.1424  144.4541  150.6804 H   0  0  0  0  0  0  0  0  0  0  0  0  # atno 10167 bound_to 10162
  156.0814  130.6013  150.8741 H   0  0  0  0  0  0  0  0  0  0  0  0  # atno 10718 bound_to 10713
  153.8465  135.6853  153.4797 H   0  0  0  0  0  0  0  0  0  0  0  0  # atno 10763 bound_to 10752
  153.1423  135.4652  154.9511 H   0  0  0  0  0  0  0  0  0  0  0  0  # atno 10764 bound_to 10752
  154.7822  135.3272  154.7913 H   0  0  0  0  0  0  0  0  0  0  0  0  # atno 10765 bound_to 10752
  139.9598  134.9605  156.9102 H   0  0  0  0  0  0  0  0  0  0  0  0  # atno 11005 bound_to 11000
  146.2396  139.5974  142.9501 LP  0  0  0  0  0  0  0  0  0  0  0  0  # atno 17320 bound_to 7965
  145.5350  141.0424  143.2362 LP  0  0  0  0  0  0  0  0  0  0  0  0  # atno 17321 bound_to 7965
  140.6752  143.2302  151.5524 LP  0  0  0  0  0  0  0  0  0  0  0  0  # atno 17342 bound_to 10162
  139.5466  144.2506  152.1453 LP  0  0  0  0  0  0  0  0  0  0  0  0  # atno 17343 bound_to 10162
  157.5932  131.0944  150.9085 LP  0  0  0  0  0  0  0  0  0  0  0  0  # atno 17370 bound_to 10713
  156.9257  130.5331  149.5279 LP  0  0  0  0  0  0  0  0  0  0  0  0  # atno 17371 bound_to 10713
  140.5526  134.0612  155.7374 LP  0  0  0  0  0  0  0  0  0  0  0  0  # atno 17394 bound_to 11000
  141.1274  133.9360  157.2607 LP  0  0  0  0  0  0  0  0  0  0  0  0  # atno 17395 bound_to 11000

$$$$
