AV-unprocessed.smi:2943|AV-procd|sdf|11269|dock9
  -GOLD-   2272016163D 1   1.00000     0.00000
 Structure written by MMmdl.
 36 38  0  0  0  0  0  0  0  0  1 V2000
  152.3443  138.2133  155.9332 C   0  0  0  0  0  0  0  0  0  0  0  0
  151.3988  139.3331  156.2539 C   0  0  0  0  0  0  0  0  0  0  0  0
  151.4499  140.1558  157.3560 C   0  0  0  0  0  0  0  0  0  0  0  0
  152.4390  140.1351  158.4815 C   0  0  0  0  0  0  0  0  0  0  0  0
  150.4085  141.0848  157.3036 N   0  0  0  0  0  0  0  0  0  0  0  0
  150.1380  142.1234  158.2885 C   0  0  0  0  0  0  0  0  0  0  0  0
  151.3948  142.9439  158.6241 C   0  0  1  0  0  0  0  0  0  0  0  0
  151.7184  144.0257  157.5945 C   0  0  0  0  0  0  0  0  0  0  0  0
  152.4910  145.0213  158.4288 C   0  0  0  0  0  0  0  0  0  0  0  0
  151.7293  144.9684  159.7490 C   0  0  0  0  0  0  0  0  0  0  0  0
  151.2507  143.6318  159.8656 O   0  0  0  0  0  0  0  0  0  0  0  0
  149.6623  140.8558  156.1568 C   0  0  0  0  0  0  0  0  0  0  0  0
  148.5577  141.5448  155.7392 N   0  0  0  0  0  0  0  0  0  0  0  0
  148.0723  141.0620  154.5929 C   0  0  0  0  0  0  0  0  0  0  0  0
  148.5260  140.0430  153.8578 N   0  0  0  0  0  0  0  0  0  0  0  0
  149.6206  139.3685  154.2763 C   0  0  0  0  0  0  0  0  0  0  0  0
  150.0587  138.3113  153.4819 N   0  0  0  0  0  0  0  0  0  0  0  0
  150.2617  139.7559  155.4827 C   0  0  0  0  0  0  0  0  0  0  0  0
  153.3427  138.4025  156.3272 H   0  0  0  0  0  0  0  0  0  0  0  0
  152.4515  138.0756  154.8578 H   0  0  0  0  0  0  0  0  0  0  0  0
  151.9932  137.2717  156.3552 H   0  0  0  0  0  0  0  0  0  0  0  0
  152.9947  139.1985  158.5087 H   0  0  0  0  0  0  0  0  0  0  0  0
  151.9454  140.2413  159.4468 H   0  0  0  0  0  0  0  0  0  0  0  0
  153.1578  140.9480  158.3774 H   0  0  0  0  0  0  0  0  0  0  0  0
  149.3455  142.7730  157.9170 H   0  0  0  0  0  0  0  0  0  0  0  0
  149.7446  141.6531  159.1906 H   0  0  0  0  0  0  0  0  0  0  0  0
  152.2578  142.2845  158.7232 H   0  0  0  0  0  0  0  0  0  0  0  0
  152.2850  143.6468  156.7435 H   0  0  0  0  0  0  0  0  0  0  0  0
  150.8042  144.4882  157.2194 H   0  0  0  0  0  0  0  0  0  0  0  0
  153.5166  144.6775  158.5698 H   0  0  0  0  0  0  0  0  0  0  0  0
  152.5199  146.0199  157.9917 H   0  0  0  0  0  0  0  0  0  0  0  0
  152.3496  145.2466  160.6012 H   0  0  0  0  0  0  0  0  0  0  0  0
  150.8707  145.6405  159.7202 H   0  0  0  0  0  0  0  0  0  0  0  0
  147.1959  141.5625  154.2082 H   0  0  0  0  0  0  0  0  0  0  0  0
  149.5799  138.0587  152.6295 H   0  0  0  0  0  0  0  0  0  0  0  0
  150.8708  137.7661  153.7330 H   0  0  0  0  0  0  0  0  0  0  0  0
  1  2  1  0  0  0  0
  1 19  1  0  0  0  0
  1 20  1  0  0  0  0
  1 21  1  0  0  0  0
  2 18  1  0  0  0  0
  2  3  2  0  0  0  0
  3  4  1  0  0  0  0
  3  5  1  0  0  0  0
  4 22  1  0  0  0  0
  4 23  1  0  0  0  0
  4 24  1  0  0  0  0
  5  6  1  0  0  0  0
  5 12  1  0  0  0  0
  6  7  1  0  0  0  0
  6 25  1  0  0  0  0
  6 26  1  0  0  0  0
  7 11  1  0  0  0  0
  7  8  1  0  0  0  0
  7 27  1  0  0  0  0
  8  9  1  0  0  0  0
  8 28  1  0  0  0  0
  8 29  1  0  0  0  0
  9 10  1  0  0  0  0
  9 30  1  0  0  0  0
  9 31  1  0  0  0  0
 10 11  1  0  0  0  0
 10 32  1  0  0  0  0
 10 33  1  0  0  0  0
 12 18  1  0  0  0  0
 12 13  2  0  0  0  0
 13 14  1  0  0  0  0
 14 15  2  0  0  0  0
 14 34  1  0  0  0  0
 15 16  1  0  0  0  0
 16 17  1  0  0  0  0
 16 18  2  0  0  0  0
 17 35  1  0  0  0  0
 17 36  1  0  0  0  0
M  END
> <s_m_source_file>
AV-unprocessed.smi

> <i_m_source_file_index>
2943

> <i_lp_mmshare_version>
43012

> <i_f3d_flags>
0

> <s_epik_input>
bjFbY0hdbmMoW05IMl0pYyhjMTIpYyhbQ0gzXSljKFtDSDNdKW4yW0NIMl1bQ0BASF0zW0NIMl1bQ0gyXVtDSDJdTzM=

> <s_epik_cmdline>
J2VwaWtfcHl0aG9uJywgJy1waCcsICc3LjAnLCAnLXRuJywgJzgnLCAnLW1hJywgJzIwMCcsICctbWV0YWxfYmluZGluZycsICctaW1hZScsICc8aW5maWxlLm1hZT4nLCAnLW9tYWUnLCAnPG91dGZpbGUubWFlPic=

> <r_epik_Ionization_Penalty>
0.0115167

> <r_epik_Ionization_Penalty_Charging>
0

> <r_epik_Ionization_Penalty_Neutral>
0.0115167

> <r_epik_State_Penalty>
0.00863248

> <r_epik_Charging_Adjusted_Penalty>
0.00863248

> <i_epik_Tot_Q>
0

> <i_epik_Tot_abs_Q>
0

> <r_epik_Metal_State_Penalty>
0.00847169

> <b_epik_Metal_Only>
0

> <s_lp_Force_Field>
OPLS_2005

> <r_lp_Energy>
17.4582

> <b_lp_Chiralities_Consistent>
1

> <s_lp_Variant>
AV-unprocessed.smi:2943-2

> <Gold.Version>
5.8.1

> <Gold.Id.Protein>
6NUR|6NUR_protein|mol2

> <Gold.PLP.Fitness>
36.2355

> <Gold.PLP.PLP>
-34.9621

> <Gold.PLP.part.hbond>
-2.2519

> <Gold.PLP.part.metal>
0.0000

> <Gold.PLP.part.buried>
-6.0667

> <Gold.PLP.part.nonpolar>
-29.5617

> <Gold.PLP.part.repulsive>
1.7490

> <Gold.PLP.ligand.clash>
0.0000

> <Gold.PLP.ligand.torsion>
0.2839

> <Gold.PLP.Chemscore.Hbond>
0.6136

> <Gold.PLP.Chemscore.CHOScore>
0.0000

> <Gold.PLP.Chemscore.Metal>
0.0000

> <Gold.Chemscore.Hbonds>
donor molecule, donor type, donor heavy atom, donor atom, acceptor molecule, acceptor atom, score
      L1  H    17    35       P1  7948  0.66

> <Gold.PLP.Chemscore.Internal.Correction>
0.0004

> <Gold.Rescore>
     Score         DG    S(hbond)    S(metal)    S(lipo)     H(rot)  DE(clash)    DE(int)     intcor
     13.51     -14.92       0.85        0.00      83.90       1.26       0.13       1.28       ----

> <Gold.Chemscore.Fitness>
13.5099

> <Gold.Chemscore.DG>
-14.9196

> <Gold.Chemscore.ZeroCoef>
-5.4800

> <Gold.Chemscore.Hbond>
0.8535

> <Gold.Chemscore.Metal>
0.0000

> <Gold.Chemscore.Lipo>
83.8992

> <Gold.Chemscore.Internal_Hbond>
0.0000

> <Gold.Chemscore.DEClash>
0.1257

> <Gold.Chemscore.DEInternal>
1.2839

> <Gold.Chemscore.Rot>
1.2607

> <Gold.Chemscore.Internal.Correction>
   9.000000E+99

> <Gold.Chemscore.Hbonds>
donor molecule, donor type, donor heavy atom, donor atom, acceptor molecule, acceptor atom, score
      L1  H    17    35       P1  7948  0.40

> <Gold.Chemscore.Hbond.Weighted>
-2.8508

> <Gold.Chemscore.Metal.Weighted>
-0.0000

> <Gold.Chemscore.Lipo.Weighted>
-9.8162

> <Gold.Chemscore.Internal_Hbond.Weighted>
0.0000

> <Gold.Chemscore.DEClash.Weighted>
0.1257

> <Gold.Chemscore.DEInternal.Weighted>
1.2839

> <Gold.Chemscore.Rot.Weighted>
3.2274

> <Gold.Chemscore.Internal.Correction.Weighted>
   9.000000E+99

> <Gold.Protein.RotatedTorsions>
[ 6907 6896 6895 6894 ] final  -40.32 input  -60.11 | X-H torsion
[ 7974 7965 7964 7962 ] final -109.06 input  175.53 | X-H torsion
[ 8008 7997 7996 7995 ] final -165.08 input   59.86 | X-H torsion
[ 10167 10162 10161 10158 ] final  -84.88 input  -65.29 | X-H torsion
[ 10718 10713 10712 10709 ] final   42.50 input   66.30 | X-H torsion
[ 10763 10752 10751 10750 ] final  175.09 input  -60.55 | X-H torsion
[ 11005 11000 10999 10996 ] final   92.13 input  -57.11 | X-H torsion

> <Gold.Protein.ActiveResidues>
 VAL166  LYS551  ARG553  GLY616  TRP617  ASP618  TYR619  PRO620  LYS621  CYS622 
 ASP623  PHE694  ASN695  SER759  ASP760  ASP761  ALA762  ILE779  LEU786  VAL792 
 PHE793  MET794  SER795  GLU796  ALA797  LYS798  CYS799  TRP800  GLU811  SER814 

> <Gold.Protein.RotatedAtoms>
  150.9798  134.9155  159.7837 H   0  0  0  0  0  0  0  0  0  0  0  0  # atno 6907 bound_to 6896
  152.5218  134.3426  159.9232 H   0  0  0  0  0  0  0  0  0  0  0  0  # atno 6908 bound_to 6896
  151.3433  133.3913  159.2708 H   0  0  0  0  0  0  0  0  0  0  0  0  # atno 6909 bound_to 6896
  145.1852  140.8989  143.3457 H   0  0  0  0  0  0  0  0  0  0  0  0  # atno 7974 bound_to 7965
  155.8447  140.0954  157.1712 H   0  0  0  0  0  0  0  0  0  0  0  0  # atno 8008 bound_to 7997
  154.3983  140.1394  156.3833 H   0  0  0  0  0  0  0  0  0  0  0  0  # atno 8009 bound_to 7997
  155.8026  140.3452  155.5414 H   0  0  0  0  0  0  0  0  0  0  0  0  # atno 8010 bound_to 7997
  140.4090  143.2630  151.9042 H   0  0  0  0  0  0  0  0  0  0  0  0  # atno 10167 bound_to 10162
  157.4055  130.7884  149.7385 H   0  0  0  0  0  0  0  0  0  0  0  0  # atno 10718 bound_to 10713
  154.4628  135.2768  155.1700 H   0  0  0  0  0  0  0  0  0  0  0  0  # atno 10763 bound_to 10752
  154.3481  135.6156  153.5633 H   0  0  0  0  0  0  0  0  0  0  0  0  # atno 10764 bound_to 10752
  152.9856  135.5805  154.4994 H   0  0  0  0  0  0  0  0  0  0  0  0  # atno 10765 bound_to 10752
  139.8828  134.8715  156.3528 H   0  0  0  0  0  0  0  0  0  0  0  0  # atno 11005 bound_to 11000
  145.0096  139.3522  143.6126 LP  0  0  0  0  0  0  0  0  0  0  0  0  # atno 17320 bound_to 7965
  146.3446  139.9353  142.8748 LP  0  0  0  0  0  0  0  0  0  0  0  0  # atno 17321 bound_to 7965
  139.4783  144.5556  151.8319 LP  0  0  0  0  0  0  0  0  0  0  0  0  # atno 17342 bound_to 10162
  140.4658  144.1657  150.5911 LP  0  0  0  0  0  0  0  0  0  0  0  0  # atno 17343 bound_to 10162
  155.9835  130.3999  150.3358 LP  0  0  0  0  0  0  0  0  0  0  0  0  # atno 17370 bound_to 10713
  157.1491  131.0316  151.2893 LP  0  0  0  0  0  0  0  0  0  0  0  0  # atno 17371 bound_to 10713
  140.9583  133.7405  156.0365 LP  0  0  0  0  0  0  0  0  0  0  0  0  # atno 17394 bound_to 11000
  140.8021  134.3496  157.5436 LP  0  0  0  0  0  0  0  0  0  0  0  0  # atno 17395 bound_to 11000

$$$$
