AV-unprocessed.smi:2591|AV-procd|sdf|10158|dock8
  -GOLD-   2272014173D 1   1.00000     0.00000
 Structure written by MMmdl.
 34 35  0  0  0  0  0  0  0  0  1 V2000
  147.1926  141.7118  153.7935 C   0  0  0  0  0  0  0  0  0  0  0  0
  148.2565  140.7192  153.7969 N   0  0  0  0  0  0  0  0  0  0  0  0
  147.7353  139.3706  153.9723 C   0  0  0  0  0  0  0  0  0  0  0  0
  148.8633  138.3254  153.9792 C   0  0  0  0  0  0  0  0  0  0  0  0
  149.8098  138.6494  154.9934 O   0  0  0  0  0  0  0  0  0  0  0  0
  150.3818  139.9490  154.8363 C   0  0  2  0  0  0  0  0  0  0  0  0
  151.4044  140.1804  155.9583 C   0  0  0  0  0  0  0  0  0  0  0  0
  152.4880  139.5944  155.9373 O   0  0  0  0  0  0  0  0  0  0  0  0
  151.0177  141.0253  156.9333 N   0  0  0  0  0  0  0  0  0  0  0  0
  151.7344  141.4224  158.0930 C   0  0  0  0  0  0  0  0  0  0  0  0
  151.3972  142.6983  158.5971 C   0  0  0  0  0  0  0  0  0  0  0  0
  152.0428  143.1875  159.7533 C   0  0  0  0  0  0  0  0  0  0  0  0
  151.7026  144.5588  160.3162 C   0  0  0  0  0  0  0  0  0  0  0  0
  152.2096  144.7085  161.5402 F   0  0  0  0  0  0  0  0  0  0  0  0
  152.2130  145.4988  159.5218 F   0  0  0  0  0  0  0  0  0  0  0  0
  150.3815  144.7271  160.3876 F   0  0  0  0  0  0  0  0  0  0  0  0
  153.0241  142.3793  160.3625 C   0  0  0  0  0  0  0  0  0  0  0  0
  153.3023  141.1233  159.7941 C   0  0  0  0  0  0  0  0  0  0  0  0
  152.6770  140.6554  158.6944 N   0  0  0  0  0  0  0  0  0  0  0  0
  149.2474  140.9996  154.8280 C   0  0  0  0  0  0  0  0  0  0  0  0
  146.4764  141.5081  152.9970 H   0  0  0  0  0  0  0  0  0  0  0  0
  147.5979  142.7106  153.6281 H   0  0  0  0  0  0  0  0  0  0  0  0
  146.6546  141.7163  154.7425 H   0  0  0  0  0  0  0  0  0  0  0  0
  147.1792  139.3073  154.9091 H   0  0  0  0  0  0  0  0  0  0  0  0
  147.0299  139.1390  153.1737 H   0  0  0  0  0  0  0  0  0  0  0  0
  148.4589  137.3320  154.1728 H   0  0  0  0  0  0  0  0  0  0  0  0
  149.3596  138.2862  153.0084 H   0  0  0  0  0  0  0  0  0  0  0  0
  150.9206  139.9859  153.8876 H   0  0  0  0  0  0  0  0  0  0  0  0
  150.0997  141.4319  156.8274 H   0  0  0  0  0  0  0  0  0  0  0  0
  150.6471  143.2974  158.1011 H   0  0  0  0  0  0  0  0  0  0  0  0
  153.5551  142.7104  161.2430 H   0  0  0  0  0  0  0  0  0  0  0  0
  154.0480  140.4771  160.2330 H   0  0  0  0  0  0  0  0  0  0  0  0
  149.6683  141.9926  154.6644 H   0  0  0  0  0  0  0  0  0  0  0  0
  148.7633  141.0233  155.8061 H   0  0  0  0  0  0  0  0  0  0  0  0
  1  2  1  0  0  0  0
  1 21  1  0  0  0  0
  1 22  1  0  0  0  0
  1 23  1  0  0  0  0
  2 20  1  0  0  0  0
  2  3  1  0  0  0  0
  3  4  1  0  0  0  0
  3 24  1  0  0  0  0
  3 25  1  0  0  0  0
  4  5  1  0  0  0  0
  4 26  1  0  0  0  0
  4 27  1  0  0  0  0
  5  6  1  0  0  0  0
  6  7  1  0  0  0  0
  6 20  1  0  0  0  0
  6 28  1  0  0  0  0
  7  8  2  0  0  0  0
  7  9  1  0  0  0  0
  9 10  1  0  0  0  0
  9 29  1  0  0  0  0
 10 19  1  0  0  0  0
 10 11  2  0  0  0  0
 11 12  1  0  0  0  0
 11 30  1  0  0  0  0
 12 13  1  0  0  0  0
 12 17  2  0  0  0  0
 13 14  1  0  0  0  0
 13 15  1  0  0  0  0
 13 16  1  0  0  0  0
 17 18  1  0  0  0  0
 17 31  1  0  0  0  0
 18 19  2  0  0  0  0
 18 32  1  0  0  0  0
 20 33  1  0  0  0  0
 20 34  1  0  0  0  0
M  END
> <s_m_source_file>
AV-unprocessed.smi

> <i_m_source_file_index>
2591

> <i_lp_mmshare_version>
43012

> <i_f3d_flags>
0

> <s_epik_input>
W0NIM11OMVtDSDJdW0NIMl1PW0NASF0oW0NIMl0xKUMoPU8pW05IXWMyW2NIXWMoQyhGKShGKUYpW2NIXVtjSF1uMg==

> <s_epik_cmdline>
J2VwaWtfcHl0aG9uJywgJy1waCcsICc3LjAnLCAnLXRuJywgJzgnLCAnLW1hJywgJzIwMCcsICctbWV0YWxfYmluZGluZycsICctaW1hZScsICc8aW5maWxlLm1hZT4nLCAnLW9tYWUnLCAnPG91dGZpbGUubWFlPic=

> <r_epik_Ionization_Penalty>
0.526245

> <r_epik_Ionization_Penalty_Charging>
0

> <r_epik_Ionization_Penalty_Neutral>
0.526245

> <r_epik_State_Penalty>
0.534659

> <r_epik_Charging_Adjusted_Penalty>
0.534659

> <i_epik_Tot_Q>
0

> <i_epik_Tot_abs_Q>
0

> <r_epik_Metal_State_Penalty>
0.534657

> <b_epik_Metal_Only>
0

> <s_lp_Force_Field>
OPLS_2005

> <r_lp_Energy>
21.9247

> <b_lp_Chiralities_Consistent>
1

> <s_lp_Variant>
AV-unprocessed.smi:2591-6

> <Gold.Version>
5.8.1

> <Gold.Id.Protein>
6NUR|6NUR_protein|mol2

> <Gold.PLP.Fitness>
42.3954

> <Gold.PLP.PLP>
-40.8004

> <Gold.PLP.part.hbond>
-1.0000

> <Gold.PLP.part.metal>
0.0000

> <Gold.PLP.part.buried>
-2.6497

> <Gold.PLP.part.nonpolar>
-36.7116

> <Gold.PLP.part.repulsive>
0.9376

> <Gold.PLP.ligand.clash>
0.5753

> <Gold.PLP.ligand.torsion>
0.9597

> <Gold.PLP.Chemscore.Hbond>
1.0000

> <Gold.PLP.Chemscore.CHOScore>
0.0000

> <Gold.PLP.Chemscore.Metal>
0.0000

> <Gold.Chemscore.Hbonds>
donor molecule, donor type, donor heavy atom, donor atom, acceptor molecule, acceptor atom, score
      P1  H  7997  8009       L1     8  1.00

> <Gold.PLP.Chemscore.Internal.Correction>
1.0897

> <Gold.Rescore>
     Score         DG    S(hbond)    S(metal)    S(lipo)     H(rot)  DE(clash)    DE(int)     intcor
     13.30     -15.90       0.99        0.00      82.62       1.00       0.54       2.06       ----

> <Gold.Chemscore.Fitness>
13.3027

> <Gold.Chemscore.DG>
-15.8991

> <Gold.Chemscore.ZeroCoef>
-5.4800

> <Gold.Chemscore.Hbond>
0.9918

> <Gold.Chemscore.Metal>
0.0000

> <Gold.Chemscore.Lipo>
82.6201

> <Gold.Chemscore.Internal_Hbond>
0.0000

> <Gold.Chemscore.DEClash>
0.5350

> <Gold.Chemscore.DEInternal>
2.0614

> <Gold.Chemscore.Rot>
1.0000

> <Gold.Chemscore.Internal.Correction>
   9.000000E+99

> <Gold.Chemscore.Hbonds>
donor molecule, donor type, donor heavy atom, donor atom, acceptor molecule, acceptor atom, score
      P1  H  7997  8009       L1     8  0.99

> <Gold.Chemscore.Hbond.Weighted>
-3.3125

> <Gold.Chemscore.Metal.Weighted>
-0.0000

> <Gold.Chemscore.Lipo.Weighted>
-9.6666

> <Gold.Chemscore.Internal_Hbond.Weighted>
0.0000

> <Gold.Chemscore.DEClash.Weighted>
0.5350

> <Gold.Chemscore.DEInternal.Weighted>
2.0614

> <Gold.Chemscore.Rot.Weighted>
2.5600

> <Gold.Chemscore.Internal.Correction.Weighted>
   9.000000E+99

> <Gold.Protein.RotatedTorsions>
[ 6907 6896 6895 6894 ] final  -27.93 input  -60.11 | X-H torsion
[ 7974 7965 7964 7962 ] final   37.81 input  175.53 | X-H torsion
[ 8008 7997 7996 7995 ] final -152.84 input   59.86 | X-H torsion
[ 10167 10162 10161 10158 ] final    9.64 input  -65.29 | X-H torsion
[ 10718 10713 10712 10709 ] final    1.37 input   66.30 | X-H torsion
[ 10763 10752 10751 10750 ] final   29.34 input  -60.55 | X-H torsion
[ 11005 11000 10999 10996 ] final   -4.76 input  -57.11 | X-H torsion

> <Gold.Protein.ActiveResidues>
 VAL166  LYS551  ARG553  GLY616  TRP617  ASP618  TYR619  PRO620  LYS621  CYS622 
 ASP623  PHE694  ASN695  SER759  ASP760  ASP761  ALA762  ILE779  LEU786  VAL792 
 PHE793  MET794  SER795  GLU796  ALA797  LYS798  CYS799  TRP800  GLU811  SER814 

> <Gold.Protein.RotatedAtoms>
  151.1400  135.0174  159.8621 H   0  0  0  0  0  0  0  0  0  0  0  0  # atno 6907 bound_to 6896
  152.5452  134.1510  159.8528 H   0  0  0  0  0  0  0  0  0  0  0  0  # atno 6908 bound_to 6896
  151.1585  133.4815  159.2627 H   0  0  0  0  0  0  0  0  0  0  0  0  # atno 6909 bound_to 6896
  146.1109  139.5848  142.9353 H   0  0  0  0  0  0  0  0  0  0  0  0  # atno 7974 bound_to 7965
  155.6614  140.0723  157.2553 H   0  0  0  0  0  0  0  0  0  0  0  0  # atno 8008 bound_to 7997
  154.4142  140.1715  156.1831 H   0  0  0  0  0  0  0  0  0  0  0  0  # atno 8009 bound_to 7997
  155.9694  140.3363  155.6565 H   0  0  0  0  0  0  0  0  0  0  0  0  # atno 8010 bound_to 7997
  140.6243  143.8136  150.7213 H   0  0  0  0  0  0  0  0  0  0  0  0  # atno 10167 bound_to 10162
  156.8472  130.5541  149.5672 H   0  0  0  0  0  0  0  0  0  0  0  0  # atno 10718 bound_to 10713
  153.0436  135.6491  154.0875 H   0  0  0  0  0  0  0  0  0  0  0  0  # atno 10763 bound_to 10752
  154.0577  135.2890  155.3331 H   0  0  0  0  0  0  0  0  0  0  0  0  # atno 10764 bound_to 10752
  154.6678  135.5367  153.8165 H   0  0  0  0  0  0  0  0  0  0  0  0  # atno 10765 bound_to 10752
  140.6838  133.9131  155.8572 H   0  0  0  0  0  0  0  0  0  0  0  0  # atno 11005 bound_to 11000
  145.5665  141.0399  143.2197 LP  0  0  0  0  0  0  0  0  0  0  0  0  # atno 17320 bound_to 7965
  144.7511  139.7192  143.7273 LP  0  0  0  0  0  0  0  0  0  0  0  0  # atno 17321 bound_to 7965
  140.1733  143.4176  152.1985 LP  0  0  0  0  0  0  0  0  0  0  0  0  # atno 17342 bound_to 10162
  139.5466  144.7303  151.4565 LP  0  0  0  0  0  0  0  0  0  0  0  0  # atno 17343 bound_to 10162
  156.0848  130.5849  150.9628 LP  0  0  0  0  0  0  0  0  0  0  0  0  # atno 17370 bound_to 10713
  157.6323  131.0920  150.8416 LP  0  0  0  0  0  0  0  0  0  0  0  0  # atno 17371 bound_to 10713
  141.0296  134.0774  157.4029 LP  0  0  0  0  0  0  0  0  0  0  0  0  # atno 17394 bound_to 11000
  139.8944  135.0135  156.6947 LP  0  0  0  0  0  0  0  0  0  0  0  0  # atno 17395 bound_to 11000

$$$$
