AV-unprocessed.smi:2061|AV-procd|sdf|8385|dock9
  -GOLD-   2272011 63D 1   1.00000     0.00000
 Structure written by MMmdl.
 45 46  0  0  0  0  0  0  0  0  3 V2000
  149.2313  140.7960  154.9367 C   0  0  0  0  0  0  0  0  0  0  0  0
  150.0873  139.5924  155.1379 C   0  0  0  0  0  0  0  0  0  0  0  0
  149.7985  138.2716  155.3328 C   0  0  0  0  0  0  0  0  0  0  0  0
  151.0823  137.6705  155.4400 C   0  0  0  0  0  0  0  0  0  0  0  0
  151.3284  136.3678  155.6476 N   0  5  0  0  0  0  0  0  0  0  0  0
  150.3115  135.5184  155.9171 C   0  0  0  0  0  0  0  0  0  0  0  0
  150.1066  134.9384  156.9858 O   0  0  0  0  0  0  0  0  0  0  0  0
  149.4883  135.3195  154.8771 N   0  0  0  0  0  0  0  0  0  0  0  0
  148.3087  134.4576  154.8580 C   0  0  0  0  0  0  0  0  0  0  0  0
  148.3159  133.4464  153.6817 C   0  0  1  0  0  0  0  0  0  0  0  0
  148.0862  132.0022  154.1918 C   0  0  0  0  0  0  0  0  0  0  0  0
  147.3267  133.8760  152.6389 N   0  3  1  0  0  0  0  0  0  0  0  0
  146.9932  132.7856  151.6847 C   0  0  0  0  0  0  0  0  0  0  0  0
  146.1175  133.3096  150.5347 C   0  0  1  0  0  0  0  0  0  0  0  0
  145.7092  132.1924  149.5682 C   0  0  0  0  0  0  0  0  0  0  0  0
  144.9289  133.8770  151.0731 O   0  0  0  0  0  0  0  0  0  0  0  0
  145.1480  134.9430  151.9940 C   0  0  2  0  0  0  0  0  0  0  0  0
  145.6308  136.2263  151.2940 C   0  0  0  0  0  0  0  0  0  0  0  0
  146.0671  134.4872  153.1459 C   0  0  0  0  0  0  0  0  0  0  0  0
  152.0632  138.5516  155.3392 N   0  0  0  0  0  0  0  0  0  0  0  0
  151.4336  139.7859  155.1387 O   0  0  0  0  0  0  0  0  0  0  0  0
  148.6389  140.9999  155.8285 H   0  0  0  0  0  0  0  0  0  0  0  0
  148.5467  140.6462  154.1019 H   0  0  0  0  0  0  0  0  0  0  0  0
  149.8355  141.6781  154.7230 H   0  0  0  0  0  0  0  0  0  0  0  0
  148.8250  137.8075  155.3842 H   0  0  0  0  0  0  0  0  0  0  0  0
  149.7012  135.8174  154.0249 H   0  0  0  0  0  0  0  0  0  0  0  0
  148.1933  133.9275  155.8048 H   0  0  0  0  0  0  0  0  0  0  0  0
  147.4563  135.1308  154.7932 H   0  0  0  0  0  0  0  0  0  0  0  0
  149.3064  133.4576  153.2234 H   0  0  0  0  0  0  0  0  0  0  0  0
  148.8223  131.7168  154.9425 H   0  0  0  0  0  0  0  0  0  0  0  0
  148.1885  131.2634  153.3972 H   0  0  0  0  0  0  0  0  0  0  0  0
  147.0996  131.8906  154.6428 H   0  0  0  0  0  0  0  0  0  0  0  0
  147.8935  132.3457  151.2601 H   0  0  0  0  0  0  0  0  0  0  0  0
  146.4755  131.9852  152.2162 H   0  0  0  0  0  0  0  0  0  0  0  0
  146.6665  134.0612  149.9669 H   0  0  0  0  0  0  0  0  0  0  0  0
  146.5842  131.7260  149.1147 H   0  0  0  0  0  0  0  0  0  0  0  0
  145.0870  132.5826  148.7623 H   0  0  0  0  0  0  0  0  0  0  0  0
  145.1418  131.4142  150.0795 H   0  0  0  0  0  0  0  0  0  0  0  0
  144.1719  135.1716  152.4232 H   0  0  0  0  0  0  0  0  0  0  0  0
  145.6545  137.0620  151.9937 H   0  0  0  0  0  0  0  0  0  0  0  0
  144.9605  136.5002  150.4788 H   0  0  0  0  0  0  0  0  0  0  0  0
  146.6344  136.1223  150.8826 H   0  0  0  0  0  0  0  0  0  0  0  0
  145.5450  133.7585  153.7683 H   0  0  0  0  0  0  0  0  0  0  0  0
  146.2707  135.3573  153.7692 H   0  0  0  0  0  0  0  0  0  0  0  0
  147.7864  134.6017  152.1076 H   0  0  0  0  0  0  0  0  0  0  0  0
  1  2  1  0  0  0  0
  1 22  1  0  0  0  0
  1 23  1  0  0  0  0
  1 24  1  0  0  0  0
  2 21  1  0  0  0  0
  2  3  2  0  0  0  0
  3  4  1  0  0  0  0
  3 25  1  0  0  0  0
  4  5  1  0  0  0  0
  4 20  2  0  0  0  0
  5  6  1  0  0  0  0
  6  7  2  0  0  0  0
  6  8  1  0  0  0  0
  8  9  1  0  0  0  0
  8 26  1  0  0  0  0
  9 10  1  0  0  0  0
  9 27  1  0  0  0  0
  9 28  1  0  0  0  0
 10 11  1  0  0  0  0
 10 12  1  0  0  0  0
 10 29  1  0  0  0  0
 11 30  1  0  0  0  0
 11 31  1  0  0  0  0
 11 32  1  0  0  0  0
 12 19  1  0  0  0  0
 12 13  1  0  0  0  0
 12 45  1  0  0  0  0
 13 14  1  0  0  0  0
 13 33  1  0  0  0  0
 13 34  1  0  0  0  0
 14 15  1  0  0  0  0
 14 16  1  0  0  0  0
 14 35  1  0  0  0  0
 15 36  1  0  0  0  0
 15 37  1  0  0  0  0
 15 38  1  0  0  0  0
 16 17  1  0  0  0  0
 17 18  1  0  0  0  0
 17 19  1  0  0  0  0
 17 39  1  0  0  0  0
 18 40  1  0  0  0  0
 18 41  1  0  0  0  0
 18 42  1  0  0  0  0
 19 43  1  0  0  0  0
 19 44  1  0  0  0  0
 20 21  1  0  0  0  0
M  CHG  1   5  -1
M  CHG  1  12   1
M  END
> <s_m_source_file>
AV-unprocessed.smi

> <i_m_source_file_index>
2061

> <i_lp_mmshare_version>
43012

> <i_f3d_flags>
0

> <s_epik_input>
W0NIM11jMVtjSF1jKG5vMSlbTkhdQyg9TylbTkhdW0NIMl1bQ0BIXShbQ0gzXSlOMltDSDJdW0NAQEhdKFtDSDNdKU9bQ0BASF0oW0NIM10pW0NIMl0y

> <s_epik_cmdline>
J2VwaWtfcHl0aG9uJywgJy1waCcsICc3LjAnLCAnLXRuJywgJzgnLCAnLW1hJywgJzIwMCcsICctbWV0YWxfYmluZGluZycsICctaW1hZScsICc8aW5maWxlLm1hZT4nLCAnLW9tYWUnLCAnPG91dGZpbGUubWFlPic=

> <r_epik_Ionization_Penalty>
6.73511

> <r_epik_Ionization_Penalty_Charging>
6.73502

> <r_epik_Ionization_Penalty_Neutral>
9.50841e-05

> <r_epik_State_Penalty>
6.93549

> <r_epik_Charging_Adjusted_Penalty>
13.6705

> <i_epik_Tot_Q>
0

> <i_epik_Tot_abs_Q>
2

> <r_epik_Metal_State_Penalty>
2.87211

> <b_epik_Metal_Only>
1

> <s_lp_Force_Field>
OPLS_2005

> <r_lp_Energy>
11.2627

> <b_lp_Chiralities_Consistent>
1

> <s_lp_Variant>
AV-unprocessed.smi:2061-26

> <Gold.Version>
5.8.1

> <Gold.Id.Protein>
6NUR|6NUR_protein|mol2

> <Gold.PLP.Fitness>
49.7800

> <Gold.PLP.PLP>
-36.1155

> <Gold.PLP.part.hbond>
-3.9250

> <Gold.PLP.part.metal>
0.0000

> <Gold.PLP.part.buried>
-4.1127

> <Gold.PLP.part.nonpolar>
-29.3002

> <Gold.PLP.part.repulsive>
0.3876

> <Gold.PLP.ligand.clash>
0.0000

> <Gold.PLP.ligand.torsion>
1.8300

> <Gold.PLP.Chemscore.Hbond>
5.7433

> <Gold.PLP.Chemscore.CHOScore>
0.0000

> <Gold.PLP.Chemscore.Metal>
0.0000

> <Gold.Chemscore.Hbonds>
donor molecule, donor type, donor heavy atom, donor atom, acceptor molecule, acceptor atom, score
      L1  H     8    26       P1  7948  0.31
      L1  H    12    45       P1  7948  2.00
      P1  H  7989  7998       L1    21  1.00
      P1  H 10752 10764       L1     5  1.95

> <Gold.PLP.Chemscore.Internal.Correction>
0.0945

> <Gold.Rescore>
     Score         DG    S(hbond)    S(metal)    S(lipo)     H(rot)  DE(clash)    DE(int)     intcor
     17.29     -19.06       2.96        0.00      65.59       1.56       0.05       1.72       ----

> <Gold.Chemscore.Fitness>
17.2885

> <Gold.Chemscore.DG>
-19.0577

> <Gold.Chemscore.ZeroCoef>
-5.4800

> <Gold.Chemscore.Hbond>
2.9593

> <Gold.Chemscore.Metal>
0.0000

> <Gold.Chemscore.Lipo>
65.5934

> <Gold.Chemscore.Internal_Hbond>
0.0000

> <Gold.Chemscore.DEClash>
0.0467

> <Gold.Chemscore.DEInternal>
1.7225

> <Gold.Chemscore.Rot>
1.5550

> <Gold.Chemscore.Internal.Correction>
   9.000000E+99

> <Gold.Chemscore.Hbonds>
donor molecule, donor type, donor heavy atom, donor atom, acceptor molecule, acceptor atom, score
      L1  H     8    26       P1  7948  0.09
      L1  H    12    45       P1  7948  0.43
      P1  H  7989  7998       L1    21  0.29
      P1  H 10752 10764       L1     5  0.83

> <Gold.Chemscore.Hbond.Weighted>
-9.8841

> <Gold.Chemscore.Metal.Weighted>
-0.0000

> <Gold.Chemscore.Lipo.Weighted>
-7.6744

> <Gold.Chemscore.Internal_Hbond.Weighted>
0.0000

> <Gold.Chemscore.DEClash.Weighted>
0.0467

> <Gold.Chemscore.DEInternal.Weighted>
1.7225

> <Gold.Chemscore.Rot.Weighted>
3.9809

> <Gold.Chemscore.Internal.Correction.Weighted>
   9.000000E+99

> <Gold.Protein.RotatedTorsions>
[ 6907 6896 6895 6894 ] final  -43.44 input  -60.11 | X-H torsion
[ 7974 7965 7964 7962 ] final  120.75 input  175.53 | X-H torsion
[ 8008 7997 7996 7995 ] final -100.86 input   59.86 | X-H torsion
[ 10167 10162 10161 10158 ] final -159.59 input  -65.29 | X-H torsion
[ 10718 10713 10712 10709 ] final   -9.93 input   66.30 | X-H torsion
[ 10763 10752 10751 10750 ] final  -46.80 input  -60.55 | X-H torsion
[ 11005 11000 10999 10996 ] final   53.01 input  -57.11 | X-H torsion

> <Gold.Protein.ActiveResidues>
 VAL166  LYS551  ARG553  GLY616  TRP617  ASP618  TYR619  PRO620  LYS621  CYS622 
 ASP623  PHE694  ASN695  SER759  ASP760  ASP761  ALA762  ILE779  LEU786  VAL792 
 PHE793  MET794  SER795  GLU796  ALA797  LYS798  CYS799  TRP800  GLU811  SER814 

> <Gold.Protein.RotatedAtoms>
  150.9439  134.8845  159.7629 H   0  0  0  0  0  0  0  0  0  0  0  0  # atno 6907 bound_to 6896
  152.5091  134.3903  159.9391 H   0  0  0  0  0  0  0  0  0  0  0  0  # atno 6908 bound_to 6896
  151.3922  133.3745  159.2757 H   0  0  0  0  0  0  0  0  0  0  0  0  # atno 6909 bound_to 6896
  145.1275  139.3349  143.4682 H   0  0  0  0  0  0  0  0  0  0  0  0  # atno 7974 bound_to 7965
  154.8345  140.0438  157.1500 H   0  0  0  0  0  0  0  0  0  0  0  0  # atno 8008 bound_to 7997
  154.9115  140.3014  155.5243 H   0  0  0  0  0  0  0  0  0  0  0  0  # atno 8009 bound_to 7997
  156.2989  140.2357  156.4155 H   0  0  0  0  0  0  0  0  0  0  0  0  # atno 8010 bound_to 7997
  139.6603  143.9924  152.2221 H   0  0  0  0  0  0  0  0  0  0  0  0  # atno 10167 bound_to 10162
  156.6809  130.5037  149.5971 H   0  0  0  0  0  0  0  0  0  0  0  0  # atno 10718 bound_to 10713
  154.0510  135.6631  153.4800 H   0  0  0  0  0  0  0  0  0  0  0  0  # atno 10763 bound_to 10752
  153.0464  135.5112  154.7751 H   0  0  0  0  0  0  0  0  0  0  0  0  # atno 10764 bound_to 10752
  154.6757  135.3036  154.9648 H   0  0  0  0  0  0  0  0  0  0  0  0  # atno 10765 bound_to 10752
  140.0802  134.5349  155.8954 H   0  0  0  0  0  0  0  0  0  0  0  0  # atno 11005 bound_to 11000
  146.3516  140.1260  142.8598 LP  0  0  0  0  0  0  0  0  0  0  0  0  # atno 17320 bound_to 7965
  145.0672  140.9130  143.4903 LP  0  0  0  0  0  0  0  0  0  0  0  0  # atno 17321 bound_to 7965
  139.9661  144.6525  150.8033 LP  0  0  0  0  0  0  0  0  0  0  0  0  # atno 17342 bound_to 10162
  140.7577  143.3092  151.2886 LP  0  0  0  0  0  0  0  0  0  0  0  0  # atno 17343 bound_to 10162
  156.1868  130.6534  151.1016 LP  0  0  0  0  0  0  0  0  0  0  0  0  # atno 17370 bound_to 10713
  157.7044  131.0763  150.6716 LP  0  0  0  0  0  0  0  0  0  0  0  0  # atno 17371 bound_to 10713
  141.2044  133.6639  156.6118 LP  0  0  0  0  0  0  0  0  0  0  0  0  # atno 17394 bound_to 11000
  140.3499  134.7777  157.4459 LP  0  0  0  0  0  0  0  0  0  0  0  0  # atno 17395 bound_to 11000

$$$$
