AV-unprocessed.smi:1762|AV-procd|sdf|7113|dock8
  -GOLD-   22720 8343D 1   1.00000     0.00000
 Structure written by MMmdl.
 53 54  0  0  0  0  0  0  0  0  2 V2000
  146.0745  136.2050  155.4469 C   0  0  0  0  0  0  0  0  0  0  0  0
  146.8318  136.9958  154.3743 C   0  0  2  0  0  0  0  0  0  0  0  0
  148.1174  137.6341  154.9276 C   0  0  0  0  0  0  0  0  0  0  0  0
  148.8015  138.4494  153.8841 N   0  3  2  0  0  0  0  0  0  0  0  0
  150.1424  138.9662  154.3272 C   0  0  1  0  0  0  0  0  0  0  0  0
  150.0299  139.7040  155.6791 C   0  0  0  0  0  0  0  0  0  0  0  0
  149.7936  139.0730  156.7103 O   0  0  0  0  0  0  0  0  0  0  0  0
  150.2014  141.0345  155.6572 N   0  0  0  0  0  0  0  0  0  0  0  0
  150.1493  141.9000  156.8282 C   0  0  0  0  0  0  0  0  0  0  0  0
  151.4319  142.7363  156.9366 C   0  0  0  0  0  0  0  0  0  0  0  0
  151.6608  143.2567  158.3432 C   0  0  0  0  0  0  0  0  0  0  0  0
  151.4985  144.6267  158.6401 C   0  0  0  0  0  0  0  0  0  0  0  0
  151.7156  145.0566  159.9636 C   0  0  0  0  0  0  0  0  0  0  0  0
  152.0823  144.1046  160.9344 C   0  0  0  0  0  0  0  0  0  0  0  0
  152.2173  142.7596  160.5365 C   0  0  0  0  0  0  0  0  0  0  0  0
  152.0126  142.3372  159.2701 N   0  0  0  0  0  0  0  0  0  0  0  0
  151.2671  137.8768  154.3868 C   0  0  0  0  0  0  0  0  0  0  0  0
  150.9615  136.7105  155.3502 C   0  0  0  0  0  0  0  0  0  0  0  0
  152.6635  138.4569  154.6869 C   0  0  0  0  0  0  0  0  0  0  0  0
  147.8505  139.4815  153.3843 C   0  0  0  0  0  0  0  0  0  0  0  0
  146.5358  138.8486  152.8863 C   0  0  1  0  0  0  0  0  0  0  0  0
  146.6826  138.1138  151.5413 C   0  0  0  0  0  0  0  0  0  0  0  0
  145.9670  138.0194  153.8961 O   0  0  0  0  0  0  0  0  0  0  0  0
  146.6887  135.3984  155.8479 H   0  0  0  0  0  0  0  0  0  0  0  0
  145.1693  135.7584  155.0346 H   0  0  0  0  0  0  0  0  0  0  0  0
  145.7801  136.8469  156.2779 H   0  0  0  0  0  0  0  0  0  0  0  0
  147.0816  136.3099  153.5648 H   0  0  0  0  0  0  0  0  0  0  0  0
  147.8852  138.2664  155.7865 H   0  0  0  0  0  0  0  0  0  0  0  0
  148.7611  136.8350  155.2941 H   0  0  0  0  0  0  0  0  0  0  0  0
  150.4492  139.6972  153.5763 H   0  0  0  0  0  0  0  0  0  0  0  0
  150.3924  141.4778  154.7701 H   0  0  0  0  0  0  0  0  0  0  0  0
  149.2789  142.5523  156.7466 H   0  0  0  0  0  0  0  0  0  0  0  0
  150.0224  141.3051  157.7345 H   0  0  0  0  0  0  0  0  0  0  0  0
  152.2941  142.1382  156.6372 H   0  0  0  0  0  0  0  0  0  0  0  0
  151.3885  143.5791  156.2454 H   0  0  0  0  0  0  0  0  0  0  0  0
  151.2130  145.3329  157.8743 H   0  0  0  0  0  0  0  0  0  0  0  0
  151.6015  146.0972  160.2292 H   0  0  0  0  0  0  0  0  0  0  0  0
  152.2558  144.3979  161.9592 H   0  0  0  0  0  0  0  0  0  0  0  0
  152.4968  142.0024  161.2541 H   0  0  0  0  0  0  0  0  0  0  0  0
  151.3758  137.4561  153.3884 H   0  0  0  0  0  0  0  0  0  0  0  0
  150.9649  137.0355  156.3907 H   0  0  0  0  0  0  0  0  0  0  0  0
  151.7115  135.9248  155.2556 H   0  0  0  0  0  0  0  0  0  0  0  0
  149.9914  136.2561  155.1507 H   0  0  0  0  0  0  0  0  0  0  0  0
  152.7462  138.8228  155.7106 H   0  0  0  0  0  0  0  0  0  0  0  0
  152.9008  139.2819  154.0147 H   0  0  0  0  0  0  0  0  0  0  0  0
  153.4350  137.6978  154.5546 H   0  0  0  0  0  0  0  0  0  0  0  0
  147.6410  140.1897  154.1875 H   0  0  0  0  0  0  0  0  0  0  0  0
  148.2648  140.0535  152.5567 H   0  0  0  0  0  0  0  0  0  0  0  0
  145.8211  139.6561  152.7249 H   0  0  0  0  0  0  0  0  0  0  0  0
  146.9856  138.8050  150.7545 H   0  0  0  0  0  0  0  0  0  0  0  0
  145.7363  137.6653  151.2381 H   0  0  0  0  0  0  0  0  0  0  0  0
  147.4314  137.3228  151.5796 H   0  0  0  0  0  0  0  0  0  0  0  0
  148.9872  137.8318  153.1064 H   0  0  0  0  0  0  0  0  0  0  0  0
  1  2  1  0  0  0  0
  1 24  1  0  0  0  0
  1 25  1  0  0  0  0
  1 26  1  0  0  0  0
  2 23  1  0  0  0  0
  2  3  1  0  0  0  0
  2 27  1  0  0  0  0
  3  4  1  0  0  0  0
  3 28  1  0  0  0  0
  3 29  1  0  0  0  0
  4  5  1  0  0  0  0
  4 20  1  0  0  0  0
  4 53  1  0  0  0  0
  5  6  1  0  0  0  0
  5 17  1  0  0  0  0
  5 30  1  0  0  0  0
  6  7  2  0  0  0  0
  6  8  1  0  0  0  0
  8  9  1  0  0  0  0
  8 31  1  0  0  0  0
  9 10  1  0  0  0  0
  9 32  1  0  0  0  0
  9 33  1  0  0  0  0
 10 11  1  0  0  0  0
 10 34  1  0  0  0  0
 10 35  1  0  0  0  0
 11 16  1  0  0  0  0
 11 12  2  0  0  0  0
 12 13  1  0  0  0  0
 12 36  1  0  0  0  0
 13 14  2  0  0  0  0
 13 37  1  0  0  0  0
 14 15  1  0  0  0  0
 14 38  1  0  0  0  0
 15 16  2  0  0  0  0
 15 39  1  0  0  0  0
 17 18  1  0  0  0  0
 17 19  1  0  0  0  0
 17 40  1  0  0  0  0
 18 41  1  0  0  0  0
 18 42  1  0  0  0  0
 18 43  1  0  0  0  0
 19 44  1  0  0  0  0
 19 45  1  0  0  0  0
 19 46  1  0  0  0  0
 20 21  1  0  0  0  0
 20 47  1  0  0  0  0
 20 48  1  0  0  0  0
 21 22  1  0  0  0  0
 21 23  1  0  0  0  0
 21 49  1  0  0  0  0
 22 50  1  0  0  0  0
 22 51  1  0  0  0  0
 22 52  1  0  0  0  0
M  CHG  1   4   1
M  END
> <s_m_source_file>
AV-unprocessed.smi

> <i_m_source_file_index>
1762

> <i_lp_mmshare_version>
43012

> <i_f3d_flags>
0

> <s_epik_input>
W0NIM11bQ0BASF0xW0NIMl1OKFtDSDJdW0NASF0oTzEpW0NIM10pW0NAQEhdKFtDSF0oW0NIM10pW0NIM10pQyg9TylbTkhdW0NIMl1bQ0gyXWMyW2NIXVtjSF1bY0hdW2NIXW4y

> <s_epik_cmdline>
J2VwaWtfcHl0aG9uJywgJy1waCcsICc3LjAnLCAnLXRuJywgJzgnLCAnLW1hJywgJzIwMCcsICctbWV0YWxfYmluZGluZycsICctaW1hZScsICc8aW5maWxlLm1hZT4nLCAnLW9tYWUnLCAnPG91dGZpbGUubWFlPic=

> <r_epik_Ionization_Penalty>
2.27005

> <r_epik_Ionization_Penalty_Charging>
2.24983

> <r_epik_Ionization_Penalty_Neutral>
0.0202209

> <r_epik_State_Penalty>
2.40228

> <r_epik_Charging_Adjusted_Penalty>
4.65211

> <i_epik_Tot_Q>
1

> <i_epik_Tot_abs_Q>
1

> <r_epik_Metal_State_Penalty>
2.40762

> <b_epik_Metal_Only>
0

> <s_lp_Force_Field>
OPLS_2005

> <r_lp_Energy>
25.3597

> <b_lp_Chiralities_Consistent>
1

> <s_lp_Variant>
AV-unprocessed.smi:1762-15

> <Gold.Version>
5.8.1

> <Gold.Id.Protein>
6NUR|6NUR_protein|mol2

> <Gold.PLP.Fitness>
47.6712

> <Gold.PLP.PLP>
-42.5576

> <Gold.PLP.part.hbond>
-1.0536

> <Gold.PLP.part.metal>
0.0000

> <Gold.PLP.part.buried>
-3.8304

> <Gold.PLP.part.nonpolar>
-40.1240

> <Gold.PLP.part.repulsive>
0.2644

> <Gold.PLP.ligand.clash>
0.0000

> <Gold.PLP.ligand.torsion>
0.5361

> <Gold.PLP.Chemscore.Hbond>
2.0000

> <Gold.PLP.Chemscore.CHOScore>
0.0000

> <Gold.PLP.Chemscore.Metal>
0.0000

> <Gold.Chemscore.Hbonds>
donor molecule, donor type, donor heavy atom, donor atom, acceptor molecule, acceptor atom, score
      L1  H     4    53       P1  7948  2.00

> <Gold.PLP.Chemscore.Internal.Correction>
0.1858

> <Gold.Rescore>
     Score         DG    S(hbond)    S(metal)    S(lipo)     H(rot)  DE(clash)    DE(int)     intcor
     15.87     -19.52       1.00        0.00     127.93       1.66       0.41       3.24       ----

> <Gold.Chemscore.Fitness>
15.8702

> <Gold.Chemscore.DG>
-19.5177

> <Gold.Chemscore.ZeroCoef>
-5.4800

> <Gold.Chemscore.Hbond>
0.9966

> <Gold.Chemscore.Metal>
0.0000

> <Gold.Chemscore.Lipo>
127.9297

> <Gold.Chemscore.Internal_Hbond>
0.0000

> <Gold.Chemscore.DEClash>
0.4117

> <Gold.Chemscore.DEInternal>
3.2358

> <Gold.Chemscore.Rot>
1.6635

> <Gold.Chemscore.Internal.Correction>
   9.000000E+99

> <Gold.Chemscore.Hbonds>
donor molecule, donor type, donor heavy atom, donor atom, acceptor molecule, acceptor atom, score
      L1  H     4    53       P1  7948  0.96

> <Gold.Chemscore.Hbond.Weighted>
-3.3286

> <Gold.Chemscore.Metal.Weighted>
-0.0000

> <Gold.Chemscore.Lipo.Weighted>
-14.9678

> <Gold.Chemscore.Internal_Hbond.Weighted>
0.0000

> <Gold.Chemscore.DEClash.Weighted>
0.4117

> <Gold.Chemscore.DEInternal.Weighted>
3.2358

> <Gold.Chemscore.Rot.Weighted>
4.2586

> <Gold.Chemscore.Internal.Correction.Weighted>
   9.000000E+99

> <Gold.Protein.RotatedTorsions>
[ 6907 6896 6895 6894 ] final  -51.50 input  -60.11 | X-H torsion
[ 7974 7965 7964 7962 ] final   49.20 input  175.53 | X-H torsion
[ 8008 7997 7996 7995 ] final   40.65 input   59.86 | X-H torsion
[ 10167 10162 10161 10158 ] final  154.34 input  -65.29 | X-H torsion
[ 10718 10713 10712 10709 ] final  177.75 input   66.30 | X-H torsion
[ 10763 10752 10751 10750 ] final   -8.33 input  -60.55 | X-H torsion
[ 11005 11000 10999 10996 ] final -174.28 input  -57.11 | X-H torsion

> <Gold.Protein.ActiveResidues>
 VAL166  LYS551  ARG553  GLY616  TRP617  ASP618  TYR619  PRO620  LYS621  CYS622 
 ASP623  PHE694  ASN695  SER759  ASP760  ASP761  ALA762  ILE779  LEU786  VAL792 
 PHE793  MET794  SER795  GLU796  ALA797  LYS798  CYS799  TRP800  GLU811  SER814 

> <Gold.Protein.RotatedAtoms>
  150.8606  134.7957  159.7079 H   0  0  0  0  0  0  0  0  0  0  0  0  # atno 6907 bound_to 6896
  152.4644  134.5106  159.9762 H   0  0  0  0  0  0  0  0  0  0  0  0  # atno 6908 bound_to 6896
  151.5211  133.3428  159.2937 H   0  0  0  0  0  0  0  0  0  0  0  0  # atno 6909 bound_to 6896
  146.0132  139.4566  142.9943 H   0  0  0  0  0  0  0  0  0  0  0  0  # atno 7974 bound_to 7965
  155.2567  140.3356  155.4277 H   0  0  0  0  0  0  0  0  0  0  0  0  # atno 8008 bound_to 7997
  156.2192  140.1802  156.7559 H   0  0  0  0  0  0  0  0  0  0  0  0  # atno 8009 bound_to 7997
  154.5800  140.0655  156.9075 H   0  0  0  0  0  0  0  0  0  0  0  0  # atno 8010 bound_to 7997
  139.4823  144.5195  151.7898 H   0  0  0  0  0  0  0  0  0  0  0  0  # atno 10167 bound_to 10162
  156.9007  130.9878  151.3036 H   0  0  0  0  0  0  0  0  0  0  0  0  # atno 10718 bound_to 10713
  153.4389  135.7013  153.6182 H   0  0  0  0  0  0  0  0  0  0  0  0  # atno 10763 bound_to 10752
  153.4565  135.3746  155.2314 H   0  0  0  0  0  0  0  0  0  0  0  0  # atno 10764 bound_to 10752
  154.8727  135.4009  154.3785 H   0  0  0  0  0  0  0  0  0  0  0  0  # atno 10765 bound_to 10752
  140.4763  134.6117  157.4902 H   0  0  0  0  0  0  0  0  0  0  0  0  # atno 11005 bound_to 11000
  145.7310  141.0042  143.1352 LP  0  0  0  0  0  0  0  0  0  0  0  0  # atno 17320 bound_to 7965
  144.6961  139.8984  143.7457 LP  0  0  0  0  0  0  0  0  0  0  0  0  # atno 17321 bound_to 7965
  140.4708  144.1590  150.5918 LP  0  0  0  0  0  0  0  0  0  0  0  0  # atno 17342 bound_to 10162
  140.4385  143.2537  151.9504 LP  0  0  0  0  0  0  0  0  0  0  0  0  # atno 17343 bound_to 10162
  157.6028  130.8525  149.8828 LP  0  0  0  0  0  0  0  0  0  0  0  0  # atno 17370 bound_to 10713
  156.0583  130.3704  150.1040 LP  0  0  0  0  0  0  0  0  0  0  0  0  # atno 17371 bound_to 10713
  139.9854  134.7070  155.9784 LP  0  0  0  0  0  0  0  0  0  0  0  0  # atno 17394 bound_to 11000
  141.1553  133.6543  156.4140 LP  0  0  0  0  0  0  0  0  0  0  0  0  # atno 17395 bound_to 11000

$$$$
