AV-unprocessed.smi:496|AV-procd|sdf|2721|dock2
  -GOLD-   2262023163D 1   1.00000     0.00000
 Structure written by MMmdl.
 41 43  0  0  0  0  0  0  0  0  2 V2000
  150.5830  138.6407  154.4765 C   0  0  0  0  0  0  0  0  0  0  0  0
  151.0956  139.9443  154.7041 O   0  0  0  0  0  0  0  0  0  0  0  0
  151.8565  140.0609  155.8978 C   0  0  0  0  0  0  0  0  0  0  0  0
  150.9530  140.1976  157.1361 C   0  0  0  0  0  0  0  0  0  0  0  0
  151.6859  140.7325  158.2850 N   0  0  0  0  0  0  0  0  0  0  0  0
  152.4369  140.0929  159.2349 C   0  0  0  0  0  0  0  0  0  0  0  0
  152.6600  138.5903  159.2883 C   0  0  1  0  0  0  0  0  0  0  0  0
  153.4407  138.0874  158.0650 C   0  0  0  0  0  0  0  0  0  0  0  0
  153.3531  138.1785  160.5105 N   0  5  0  0  0  0  0  0  0  0  0  0
  153.6345  136.8827  160.8284 C   0  0  0  0  0  0  0  0  0  0  0  0
  153.7337  135.8944  160.0925 O   0  0  0  0  0  0  0  0  0  0  0  0
  153.8405  136.6910  162.2833 C   0  0  0  0  0  0  0  0  0  0  0  0
  153.7065  137.5816  163.3155 C   0  0  0  0  0  0  0  0  0  0  0  0
  154.0287  136.8797  164.5099 C   0  0  0  0  0  0  0  0  0  0  0  0
  154.3378  135.6070  164.1252 C   0  0  0  0  0  0  0  0  0  0  0  0
  154.2274  135.4739  162.7761 O   0  0  0  0  0  0  0  0  0  0  0  0
  152.9606  140.8912  160.1715 N   0  0  0  0  0  0  0  0  0  0  0  0
  152.5351  142.1472  159.7947 C   0  0  0  0  0  0  0  0  0  0  0  0
  152.7706  143.4098  160.3840 C   0  0  0  0  0  0  0  0  0  0  0  0
  152.2262  144.5777  159.8112 C   0  0  0  0  0  0  0  0  0  0  0  0
  151.4409  144.4985  158.6433 C   0  0  0  0  0  0  0  0  0  0  0  0
  151.1946  143.2494  158.0415 C   0  0  0  0  0  0  0  0  0  0  0  0
  151.7394  142.0851  158.6179 C   0  0  0  0  0  0  0  0  0  0  0  0
  150.0433  138.6236  153.5298 H   0  0  0  0  0  0  0  0  0  0  0  0
  149.8888  138.3324  155.2579 H   0  0  0  0  0  0  0  0  0  0  0  0
  151.3872  137.9065  154.4149 H   0  0  0  0  0  0  0  0  0  0  0  0
  152.5493  139.2239  155.9965 H   0  0  0  0  0  0  0  0  0  0  0  0
  152.4704  140.9574  155.8075 H   0  0  0  0  0  0  0  0  0  0  0  0
  150.1242  140.8682  156.9091 H   0  0  0  0  0  0  0  0  0  0  0  0
  150.4882  139.2514  157.4096 H   0  0  0  0  0  0  0  0  0  0  0  0
  151.6848  138.1067  159.2291 H   0  0  0  0  0  0  0  0  0  0  0  0
  152.9231  138.3462  157.1411 H   0  0  0  0  0  0  0  0  0  0  0  0
  153.5519  137.0029  158.0868 H   0  0  0  0  0  0  0  0  0  0  0  0
  154.4398  138.5225  158.0190 H   0  0  0  0  0  0  0  0  0  0  0  0
  153.4120  138.6163  163.2203 H   0  0  0  0  0  0  0  0  0  0  0  0
  154.0346  137.2581  165.5211 H   0  0  0  0  0  0  0  0  0  0  0  0
  154.6411  134.7149  164.6527 H   0  0  0  0  0  0  0  0  0  0  0  0
  153.3717  143.4779  161.2786 H   0  0  0  0  0  0  0  0  0  0  0  0
  152.4125  145.5376  160.2697 H   0  0  0  0  0  0  0  0  0  0  0  0
  151.0271  145.3970  158.2098 H   0  0  0  0  0  0  0  0  0  0  0  0
  150.5933  143.1886  157.1469 H   0  0  0  0  0  0  0  0  0  0  0  0
  1  2  1  0  0  0  0
  1 24  1  0  0  0  0
  1 25  1  0  0  0  0
  1 26  1  0  0  0  0
  2  3  1  0  0  0  0
  3  4  1  0  0  0  0
  3 27  1  0  0  0  0
  3 28  1  0  0  0  0
  4  5  1  0  0  0  0
  4 29  1  0  0  0  0
  4 30  1  0  0  0  0
  5 23  1  0  0  0  0
  5  6  1  0  0  0  0
  6  7  1  0  0  0  0
  6 17  2  0  0  0  0
  7  8  1  0  0  0  0
  7  9  1  0  0  0  0
  7 31  1  0  0  0  0
  8 32  1  0  0  0  0
  8 33  1  0  0  0  0
  8 34  1  0  0  0  0
  9 10  1  0  0  0  0
 10 11  2  0  0  0  0
 10 12  1  0  0  0  0
 12 16  1  0  0  0  0
 12 13  2  0  0  0  0
 13 14  1  0  0  0  0
 13 35  1  0  0  0  0
 14 15  2  0  0  0  0
 14 36  1  0  0  0  0
 15 16  1  0  0  0  0
 15 37  1  0  0  0  0
 17 18  1  0  0  0  0
 18 23  2  0  0  0  0
 18 19  1  0  0  0  0
 19 20  2  0  0  0  0
 19 38  1  0  0  0  0
 20 21  1  0  0  0  0
 20 39  1  0  0  0  0
 21 22  2  0  0  0  0
 21 40  1  0  0  0  0
 22 23  1  0  0  0  0
 22 41  1  0  0  0  0
M  CHG  1   9  -1
M  END
> <s_m_source_file>
AV-unprocessed.smi

> <i_m_source_file_index>
496

> <i_lp_mmshare_version>
43012

> <i_f3d_flags>
0

> <s_epik_input>
W2NIXTFbY0hdW2NIXVtjSF1jKGMxMiluKFtDSDJdW0NIMl1PW0NIM10pYyhuMilbQ0BIXShbQ0gzXSlbTkhdQyg9TyljM1tjSF1bY0hdW2NIXW8z

> <s_epik_cmdline>
J2VwaWtfcHl0aG9uJywgJy1waCcsICc3LjAnLCAnLXRuJywgJzgnLCAnLW1hJywgJzIwMCcsICctbWV0YWxfYmluZGluZycsICctaW1hZScsICc8aW5maWxlLm1hZT4nLCAnLW9tYWUnLCAnPG91dGZpbGUubWFlPic=

> <r_epik_Ionization_Penalty>
7.3423

> <r_epik_Ionization_Penalty_Charging>
6.43826

> <r_epik_Ionization_Penalty_Neutral>
0.90404

> <r_epik_State_Penalty>
6.54438

> <r_epik_Charging_Adjusted_Penalty>
12.9826

> <i_epik_Tot_Q>
-1

> <i_epik_Tot_abs_Q>
1

> <r_epik_Metal_State_Penalty>
2.56942

> <b_epik_Metal_Only>
1

> <s_lp_Force_Field>
OPLS_2005

> <r_lp_Energy>
16.0483

> <b_lp_Chiralities_Consistent>
1

> <s_lp_Variant>
AV-unprocessed.smi:496-6

> <Gold.Version>
5.8.1

> <Gold.Id.Protein>
6NUR|6NUR_protein|mol2

> <Gold.PLP.Fitness>
55.0443

> <Gold.PLP.PLP>
-50.2310

> <Gold.PLP.part.hbond>
-2.0000

> <Gold.PLP.part.metal>
0.0000

> <Gold.PLP.part.buried>
-7.5893

> <Gold.PLP.part.nonpolar>
-41.0202

> <Gold.PLP.part.repulsive>
0.0751

> <Gold.PLP.ligand.clash>
0.0000

> <Gold.PLP.ligand.torsion>
0.7129

> <Gold.PLP.Chemscore.Hbond>
2.0000

> <Gold.PLP.Chemscore.CHOScore>
0.0000

> <Gold.PLP.Chemscore.Metal>
0.0000

> <Gold.Chemscore.Hbonds>
donor molecule, donor type, donor heavy atom, donor atom, acceptor molecule, acceptor atom, score
      P1  H  6896  6907       L1    11  1.00
      P1  H  7989  7998       L1     2  1.00

> <Gold.PLP.Chemscore.Internal.Correction>
0.2392

> <Gold.Rescore>
     Score         DG    S(hbond)    S(metal)    S(lipo)     H(rot)  DE(clash)    DE(int)     intcor
     21.76     -22.43       1.97        0.00     127.62       1.78       0.03       0.64       ----

> <Gold.Chemscore.Fitness>
21.7643

> <Gold.Chemscore.DG>
-22.4325

> <Gold.Chemscore.ZeroCoef>
-5.4800

> <Gold.Chemscore.Hbond>
1.9708

> <Gold.Chemscore.Metal>
0.0000

> <Gold.Chemscore.Lipo>
127.6203

> <Gold.Chemscore.Internal_Hbond>
0.0000

> <Gold.Chemscore.DEClash>
0.0270

> <Gold.Chemscore.DEInternal>
0.6413

> <Gold.Chemscore.Rot>
1.7819

> <Gold.Chemscore.Internal.Correction>
   9.000000E+99

> <Gold.Chemscore.Hbonds>
donor molecule, donor type, donor heavy atom, donor atom, acceptor molecule, acceptor atom, score
      P1  H  6896  6907       L1    11  0.99
      P1  H  7989  7998       L1     2  0.86

> <Gold.Chemscore.Hbond.Weighted>
-6.5826

> <Gold.Chemscore.Metal.Weighted>
-0.0000

> <Gold.Chemscore.Lipo.Weighted>
-14.9316

> <Gold.Chemscore.Internal_Hbond.Weighted>
0.0000

> <Gold.Chemscore.DEClash.Weighted>
0.0270

> <Gold.Chemscore.DEInternal.Weighted>
0.6413

> <Gold.Chemscore.Rot.Weighted>
4.5617

> <Gold.Chemscore.Internal.Correction.Weighted>
   9.000000E+99

> <Gold.Protein.RotatedTorsions>
[ 6907 6896 6895 6894 ] final   65.89 input  -60.11 | X-H torsion
[ 7974 7965 7964 7962 ] final  -18.99 input  175.53 | X-H torsion
[ 8008 7997 7996 7995 ] final   65.97 input   59.86 | X-H torsion
[ 10167 10162 10161 10158 ] final  115.13 input  -65.29 | X-H torsion
[ 10718 10713 10712 10709 ] final -151.93 input   66.30 | X-H torsion
[ 10763 10752 10751 10750 ] final   53.50 input  -60.55 | X-H torsion
[ 11005 11000 10999 10996 ] final -142.49 input  -57.11 | X-H torsion

> <Gold.Protein.ActiveResidues>
 VAL166  LYS551  ARG553  GLY616  TRP617  ASP618  TYR619  PRO620  LYS621  CYS622 
 ASP623  PHE694  ASN695  SER759  ASP760  ASP761  ALA762  ILE779  LEU786  VAL792 
 PHE793  MET794  SER795  GLU796  ALA797  LYS798  CYS799  TRP800  GLU811  SER814 

> <Gold.Protein.RotatedAtoms>
  152.4441  134.5530  159.9872 H   0  0  0  0  0  0  0  0  0  0  0  0  # atno 6907 bound_to 6896
  151.5620  133.3396  159.2981 H   0  0  0  0  0  0  0  0  0  0  0  0  # atno 6908 bound_to 6896
  150.8353  134.7657  159.6952 H   0  0  0  0  0  0  0  0  0  0  0  0  # atno 6909 bound_to 6896
  146.1864  140.3999  142.8475 H   0  0  0  0  0  0  0  0  0  0  0  0  # atno 7974 bound_to 7965
  155.6701  140.3497  155.4815 H   0  0  0  0  0  0  0  0  0  0  0  0  # atno 8008 bound_to 7997
  155.9696  140.1153  157.0847 H   0  0  0  0  0  0  0  0  0  0  0  0  # atno 8009 bound_to 7997
  154.4163  140.1159  156.5274 H   0  0  0  0  0  0  0  0  0  0  0  0  # atno 8010 bound_to 7997
  139.6339  144.7118  151.2375 H   0  0  0  0  0  0  0  0  0  0  0  0  # atno 10167 bound_to 10162
  156.4658  130.8235  151.2465 H   0  0  0  0  0  0  0  0  0  0  0  0  # atno 10718 bound_to 10713
  152.9796  135.5777  154.4751 H   0  0  0  0  0  0  0  0  0  0  0  0  # atno 10763 bound_to 10752
  154.4308  135.2773  155.1916 H   0  0  0  0  0  0  0  0  0  0  0  0  # atno 10764 bound_to 10752
  154.3625  135.6185  153.5752 H   0  0  0  0  0  0  0  0  0  0  0  0  # atno 10765 bound_to 10752
  140.8219  134.2620  157.4896 H   0  0  0  0  0  0  0  0  0  0  0  0  # atno 11005 bound_to 11000
  144.8405  140.6849  143.6232 LP  0  0  0  0  0  0  0  0  0  0  0  0  # atno 17320 bound_to 7965
  145.3926  139.1613  143.4221 LP  0  0  0  0  0  0  0  0  0  0  0  0  # atno 17321 bound_to 7965
  140.7454  143.6431  150.8317 LP  0  0  0  0  0  0  0  0  0  0  0  0  # atno 17342 bound_to 10162
  140.0059  143.5694  152.2858 LP  0  0  0  0  0  0  0  0  0  0  0  0  # atno 17343 bound_to 10162
  157.7495  131.0092  150.3259 LP  0  0  0  0  0  0  0  0  0  0  0  0  # atno 17370 bound_to 10713
  156.3669  130.3857  149.7206 LP  0  0  0  0  0  0  0  0  0  0  0  0  # atno 17371 bound_to 10713
  139.8708  134.9540  156.4162 LP  0  0  0  0  0  0  0  0  0  0  0  0  # atno 17394 bound_to 11000
  140.9089  133.7726  155.9768 LP  0  0  0  0  0  0  0  0  0  0  0  0  # atno 17395 bound_to 11000

$$$$
