AV-unprocessed.smi:1554|AV-procd|sdf|6255|dock1
  -GOLD-   22720 6443D 1   1.00000     0.00000
 Structure written by MMmdl.
 48 50  0  0  0  0  0  0  0  0  2 V2000
  151.7773  143.5560  160.6404 C   0  0  0  0  0  0  0  0  0  0  0  0
  151.6664  142.6105  159.4563 C   0  0  0  0  0  0  0  0  0  0  0  0
  150.7966  142.9552  158.3973 C   0  0  0  0  0  0  0  0  0  0  0  0
  150.7179  142.0709  157.3278 C   0  0  0  0  0  0  0  0  0  0  0  0
  149.9693  142.1255  156.1503 N   0  3  0  0  0  0  0  0  0  0  0  0
  150.2256  141.0203  155.3974 C   0  0  0  0  0  0  0  0  0  0  0  0
  151.1262  140.2598  156.0768 N   0  0  0  0  0  0  0  0  0  0  0  0
  151.7313  138.9711  155.7090 C   0  0  0  0  0  0  0  0  0  0  0  0
  150.7704  138.0591  154.9210 C   0  0  1  0  0  0  0  0  0  0  0  0
  151.5133  137.0739  154.2308 O   0  0  0  0  0  0  0  0  0  0  0  0
  149.7722  137.3489  155.8568 C   0  0  0  0  0  0  0  0  0  0  0  0
  148.9306  136.3297  155.2269 N   0  0  0  0  0  0  0  0  0  0  0  0
  147.6065  136.2285  155.8378 C   0  0  0  0  0  0  0  0  0  0  0  0
  146.7534  135.1308  155.1788 C   0  0  0  0  0  0  0  0  0  0  0  0
  147.4421  133.8862  155.2405 O   0  0  0  0  0  0  0  0  0  0  0  0
  148.7200  133.9260  154.6114 C   0  0  2  0  0  0  0  0  0  0  0  0
  149.3597  132.5386  154.7306 C   0  0  0  0  0  0  0  0  0  0  0  0
  149.5740  135.0209  155.2796 C   0  0  0  0  0  0  0  0  0  0  0  0
  151.4640  140.8769  157.2875 C   0  0  0  0  0  0  0  0  0  0  0  0
  152.3264  140.5233  158.3226 C   0  0  0  0  0  0  0  0  0  0  0  0
  152.4232  141.4107  159.4183 C   0  0  0  0  0  0  0  0  0  0  0  0
  153.3579  141.0512  160.5607 C   0  0  0  0  0  0  0  0  0  0  0  0
  151.1084  144.4104  160.5328 H   0  0  0  0  0  0  0  0  0  0  0  0
  152.7942  143.9383  160.7310 H   0  0  0  0  0  0  0  0  0  0  0  0
  151.5156  143.0438  161.5664 H   0  0  0  0  0  0  0  0  0  0  0  0
  150.2188  143.8678  158.4181 H   0  0  0  0  0  0  0  0  0  0  0  0
  149.7919  140.7886  154.4353 H   0  0  0  0  0  0  0  0  0  0  0  0
  152.6543  139.1503  155.1567 H   0  0  0  0  0  0  0  0  0  0  0  0
  152.0241  138.4812  156.6386 H   0  0  0  0  0  0  0  0  0  0  0  0
  150.2452  138.6706  154.1883 H   0  0  0  0  0  0  0  0  0  0  0  0
  151.0191  136.8108  153.4687 H   0  0  0  0  0  0  0  0  0  0  0  0
  150.3408  136.8926  156.6688 H   0  0  0  0  0  0  0  0  0  0  0  0
  149.1316  138.0949  156.3298 H   0  0  0  0  0  0  0  0  0  0  0  0
  147.7052  136.0170  156.9037 H   0  0  0  0  0  0  0  0  0  0  0  0
  147.0728  137.1740  155.7542 H   0  0  0  0  0  0  0  0  0  0  0  0
  145.7969  135.0340  155.6926 H   0  0  0  0  0  0  0  0  0  0  0  0
  146.5350  135.3828  154.1399 H   0  0  0  0  0  0  0  0  0  0  0  0
  148.5869  134.1611  153.5539 H   0  0  0  0  0  0  0  0  0  0  0  0
  150.3408  132.5160  154.2552 H   0  0  0  0  0  0  0  0  0  0  0  0
  148.7399  131.7815  154.2497 H   0  0  0  0  0  0  0  0  0  0  0  0
  149.4868  132.2517  155.7748 H   0  0  0  0  0  0  0  0  0  0  0  0
  150.5453  135.0686  154.7858 H   0  0  0  0  0  0  0  0  0  0  0  0
  149.7667  134.7470  156.3184 H   0  0  0  0  0  0  0  0  0  0  0  0
  152.9068  139.6132  158.2920 H   0  0  0  0  0  0  0  0  0  0  0  0
  153.9105  140.1348  160.3507 H   0  0  0  0  0  0  0  0  0  0  0  0
  152.7934  140.8976  161.4806 H   0  0  0  0  0  0  0  0  0  0  0  0
  154.0854  141.8457  160.7281 H   0  0  0  0  0  0  0  0  0  0  0  0
  149.3308  142.8618  155.8776 H   0  0  0  0  0  0  0  0  0  0  0  0
  1  2  1  0  0  0  0
  1 23  1  0  0  0  0
  1 24  1  0  0  0  0
  1 25  1  0  0  0  0
  2 21  1  0  0  0  0
  2  3  2  0  0  0  0
  3  4  1  0  0  0  0
  3 26  1  0  0  0  0
  4 19  2  0  0  0  0
  4  5  1  0  0  0  0
  5  6  2  0  0  0  0
  5 48  1  0  0  0  0
  6  7  1  0  0  0  0
  6 27  1  0  0  0  0
  7  8  1  0  0  0  0
  7 19  1  0  0  0  0
  8  9  1  0  0  0  0
  8 28  1  0  0  0  0
  8 29  1  0  0  0  0
  9 10  1  0  0  0  0
  9 11  1  0  0  0  0
  9 30  1  0  0  0  0
 10 31  1  0  0  0  0
 11 12  1  0  0  0  0
 11 32  1  0  0  0  0
 11 33  1  0  0  0  0
 12 18  1  0  0  0  0
 12 13  1  0  0  0  0
 13 14  1  0  0  0  0
 13 34  1  0  0  0  0
 13 35  1  0  0  0  0
 14 15  1  0  0  0  0
 14 36  1  0  0  0  0
 14 37  1  0  0  0  0
 15 16  1  0  0  0  0
 16 17  1  0  0  0  0
 16 18  1  0  0  0  0
 16 38  1  0  0  0  0
 17 39  1  0  0  0  0
 17 40  1  0  0  0  0
 17 41  1  0  0  0  0
 18 42  1  0  0  0  0
 18 43  1  0  0  0  0
 19 20  1  0  0  0  0
 20 21  2  0  0  0  0
 20 44  1  0  0  0  0
 21 22  1  0  0  0  0
 22 45  1  0  0  0  0
 22 46  1  0  0  0  0
 22 47  1  0  0  0  0
M  CHG  1   5   1
M  END
> <s_m_source_file>
AV-unprocessed.smi

> <i_m_source_file_index>
1554

> <i_lp_mmshare_version>
43012

> <i_f3d_flags>
0

> <s_epik_input>
W0NIM11jKFtjSF0xKWMoW0NIM10pW2NIXWMoYzEyKW4oW2NIXW4yKVtDSDJdW0NASF0oW09IXSlbQ0gyXU4zW0NIMl1bQ0gyXU9bQ0BASF0oW0NIM10pW0NIMl0z

> <s_epik_cmdline>
J2VwaWtfcHl0aG9uJywgJy1waCcsICc3LjAnLCAnLXRuJywgJzgnLCAnLW1hJywgJzIwMCcsICctbWV0YWxfYmluZGluZycsICctaW1hZScsICc8aW5maWxlLm1hZT4nLCAnLW9tYWUnLCAnPG91dGZpbGUubWFlPic=

> <r_epik_Ionization_Penalty>
1.42504

> <r_epik_Ionization_Penalty_Charging>
1.21068

> <r_epik_Ionization_Penalty_Neutral>
0.214359

> <r_epik_State_Penalty>
1.46962

> <r_epik_Charging_Adjusted_Penalty>
2.6803

> <i_epik_Tot_Q>
1

> <i_epik_Tot_abs_Q>
1

> <r_epik_Metal_State_Penalty>
5.48754

> <b_epik_Metal_Only>
0

> <s_lp_Force_Field>
OPLS_2005

> <r_lp_Energy>
34.6572

> <b_lp_Chiralities_Consistent>
1

> <s_lp_Variant>
AV-unprocessed.smi:1554-16

> <Gold.Version>
5.8.1

> <Gold.Id.Protein>
6NUR|6NUR_protein|mol2

> <Gold.PLP.Fitness>
52.1051

> <Gold.PLP.PLP>
-42.0938

> <Gold.PLP.part.hbond>
-3.0000

> <Gold.PLP.part.metal>
0.0000

> <Gold.PLP.part.buried>
-4.5344

> <Gold.PLP.part.nonpolar>
-34.4180

> <Gold.PLP.part.repulsive>
0.3018

> <Gold.PLP.ligand.clash>
0.0000

> <Gold.PLP.ligand.torsion>
0.9564

> <Gold.PLP.Chemscore.Hbond>
3.9600

> <Gold.PLP.Chemscore.CHOScore>
0.0000

> <Gold.PLP.Chemscore.Metal>
0.0000

> <Gold.Chemscore.Hbonds>
donor molecule, donor type, donor heavy atom, donor atom, acceptor molecule, acceptor atom, score
      L1  H     5    48       P1  8028  2.00
      L1  H    10    31       P1  7949  0.64
      P1  H 10752 10763       L1    10  0.90

> <Gold.PLP.Chemscore.Internal.Correction>
0.0440

> <Gold.Rescore>
     Score         DG    S(hbond)    S(metal)    S(lipo)     H(rot)  DE(clash)    DE(int)     intcor
     17.60     -19.02       1.82        0.00     108.52       2.04       0.32       1.11       ----

> <Gold.Chemscore.Fitness>
17.5961

> <Gold.Chemscore.DG>
-19.0217

> <Gold.Chemscore.ZeroCoef>
-5.4800

> <Gold.Chemscore.Hbond>
1.8186

> <Gold.Chemscore.Metal>
0.0000

> <Gold.Chemscore.Lipo>
108.5203

> <Gold.Chemscore.Internal_Hbond>
0.0000

> <Gold.Chemscore.DEClash>
0.3153

> <Gold.Chemscore.DEInternal>
1.1103

> <Gold.Chemscore.Rot>
2.0427

> <Gold.Chemscore.Internal.Correction>
   9.000000E+99

> <Gold.Chemscore.Hbonds>
donor molecule, donor type, donor heavy atom, donor atom, acceptor molecule, acceptor atom, score
      L1  H     5    48       P1  8028  0.96
      L1  H    10    31       P1  7949  0.18
      P1  H 10752 10763       L1    10  0.17

> <Gold.Chemscore.Hbond.Weighted>
-6.0742

> <Gold.Chemscore.Metal.Weighted>
-0.0000

> <Gold.Chemscore.Lipo.Weighted>
-12.6969

> <Gold.Chemscore.Internal_Hbond.Weighted>
0.0000

> <Gold.Chemscore.DEClash.Weighted>
0.3153

> <Gold.Chemscore.DEInternal.Weighted>
1.1103

> <Gold.Chemscore.Rot.Weighted>
5.2294

> <Gold.Chemscore.Internal.Correction.Weighted>
   9.000000E+99

> <Gold.Protein.RotatedTorsions>
[ 6907 6896 6895 6894 ] final -146.84 input  -60.11 | X-H torsion
[ 7974 7965 7964 7962 ] final   42.39 input  175.53 | X-H torsion
[ 8008 7997 7996 7995 ] final  128.48 input   59.86 | X-H torsion
[ 10167 10162 10161 10158 ] final  -71.10 input  -65.29 | X-H torsion
[ 10718 10713 10712 10709 ] final   76.82 input   66.30 | X-H torsion
[ 10763 10752 10751 10750 ] final   30.44 input  -60.55 | X-H torsion
[ 11005 11000 10999 10996 ] final -139.78 input  -57.11 | X-H torsion

> <Gold.Protein.ActiveResidues>
 VAL166  LYS551  ARG553  GLY616  TRP617  ASP618  TYR619  PRO620  LYS621  CYS622 
 ASP623  PHE694  ASN695  SER759  ASP760  ASP761  ALA762  ILE779  LEU786  VAL792 
 PHE793  MET794  SER795  GLU796  ALA797  LYS798  CYS799  TRP800  GLU811  SER814 

> <Gold.Protein.RotatedAtoms>
  151.1473  133.4931  159.2595 H   0  0  0  0  0  0  0  0  0  0  0  0  # atno 6907 bound_to 6896
  151.1591  135.0264  159.8712 H   0  0  0  0  0  0  0  0  0  0  0  0  # atno 6908 bound_to 6896
  152.5463  134.1349  159.8507 H   0  0  0  0  0  0  0  0  0  0  0  0  # atno 6909 bound_to 6896
  146.0744  139.5306  142.9577 H   0  0  0  0  0  0  0  0  0  0  0  0  # atno 7974 bound_to 7965
  156.2916  140.2644  156.2443 H   0  0  0  0  0  0  0  0  0  0  0  0  # atno 8008 bound_to 7997
  154.9946  140.0388  157.2352 H   0  0  0  0  0  0  0  0  0  0  0  0  # atno 8009 bound_to 7997
  154.7655  140.2768  155.6184 H   0  0  0  0  0  0  0  0  0  0  0  0  # atno 8010 bound_to 7997
  140.5300  143.2322  151.7279 H   0  0  0  0  0  0  0  0  0  0  0  0  # atno 10167 bound_to 10162
  157.6687  130.9792  150.1551 H   0  0  0  0  0  0  0  0  0  0  0  0  # atno 10718 bound_to 10713
  153.0371  135.6464  154.1045 H   0  0  0  0  0  0  0  0  0  0  0  0  # atno 10763 bound_to 10752
  154.0758  135.2877  155.3301 H   0  0  0  0  0  0  0  0  0  0  0  0  # atno 10764 bound_to 10752
  154.6563  135.5408  153.8027 H   0  0  0  0  0  0  0  0  0  0  0  0  # atno 10765 bound_to 10752
  140.8487  134.2313  157.4772 H   0  0  0  0  0  0  0  0  0  0  0  0  # atno 11005 bound_to 11000
  145.6332  141.0300  143.1852 LP  0  0  0  0  0  0  0  0  0  0  0  0  # atno 17320 bound_to 7965
  144.7252  139.7898  143.7367 LP  0  0  0  0  0  0  0  0  0  0  0  0  # atno 17321 bound_to 7965
  139.4951  144.4128  152.0062 LP  0  0  0  0  0  0  0  0  0  0  0  0  # atno 17342 bound_to 10162
  140.3230  144.3406  150.6005 LP  0  0  0  0  0  0  0  0  0  0  0  0  # atno 17343 bound_to 10162
  156.2341  130.3685  149.8411 LP  0  0  0  0  0  0  0  0  0  0  0  0  # atno 17370 bound_to 10713
  156.6230  130.8634  151.3479 LP  0  0  0  0  0  0  0  0  0  0  0  0  # atno 17371 bound_to 10713
  139.8704  134.9672  156.4589 LP  0  0  0  0  0  0  0  0  0  0  0  0  # atno 17394 bound_to 11000
  140.8815  133.7914  155.9472 LP  0  0  0  0  0  0  0  0  0  0  0  0  # atno 17395 bound_to 11000

$$$$
