AV-unprocessed.smi:99|AV-procd|sdf|881|dock4
  -GOLD-   2262017353D 1   1.00000     0.00000
 Structure written by MMmdl.
 52 55  0  0  0  0  0  0  0  0  2 V2000
  144.9647  141.8634  156.1277 O   0  0  0  0  0  0  0  0  0  0  0  0
  145.2580  143.0382  155.8986 C   0  0  0  0  0  0  0  0  0  0  0  0
  145.8716  143.4499  154.7729 O   0  0  0  0  0  0  0  0  0  0  0  0
  146.1976  142.5264  153.7470 C   0  0  0  0  0  0  0  0  0  0  0  0
  147.2087  141.5139  154.2993 C   0  0  2  0  0  0  0  0  0  0  0  0
  148.4899  142.1218  154.4229 O   0  0  0  0  0  0  0  0  0  0  0  0
  149.4927  141.1432  154.3771 C   0  0  1  0  0  0  0  0  0  0  0  0
  150.1642  141.0478  155.7338 N   0  0  0  0  0  0  0  0  0  0  0  0
  149.7042  141.7710  156.8223 C   0  0  0  0  0  0  0  0  0  0  0  0
  150.3034  141.6820  158.0275 C   0  0  0  0  0  0  0  0  0  0  0  0
  151.4606  140.8067  158.1907 C   0  0  0  0  0  0  0  0  0  0  0  0
  152.0032  140.7367  159.2916 O   0  0  0  0  0  0  0  0  0  0  0  0
  151.8899  140.1001  157.1053 N   0  5  0  0  0  0  0  0  0  0  0  0
  151.2830  140.1848  155.8855 C   0  0  0  0  0  0  0  0  0  0  0  0
  151.6534  139.5438  154.9014 O   0  0  0  0  0  0  0  0  0  0  0  0
  148.8257  139.8181  153.9332 C   0  0  1  0  0  0  0  0  0  0  0  0
  148.6166  138.9156  155.0100 O   0  0  0  0  0  0  0  0  0  0  0  0
  147.5076  140.3341  153.3759 C   0  0  1  0  0  0  0  0  0  0  0  0
  146.5020  139.3239  153.3511 O   0  0  0  0  0  0  0  0  0  0  0  0
  146.3939  138.4652  152.3136 C   0  0  0  0  0  0  0  0  0  0  0  0
  147.0484  138.5578  151.2734 O   0  0  0  0  0  0  0  0  0  0  0  0
  145.3607  137.4152  152.5400 C   0  0  0  0  0  0  0  0  0  0  0  0
  145.2535  136.3410  151.6262 C   0  0  0  0  0  0  0  0  0  0  0  0
  144.2687  135.3493  151.7983 C   0  0  0  0  0  0  0  0  0  0  0  0
  143.3823  135.4173  152.8886 C   0  0  0  0  0  0  0  0  0  0  0  0
  143.4828  136.4776  153.8079 C   0  0  0  0  0  0  0  0  0  0  0  0
  144.4650  137.4724  153.6359 C   0  0  0  0  0  0  0  0  0  0  0  0
  144.9961  144.1564  156.8504 C   0  0  0  0  0  0  0  0  0  0  0  0
  144.4149  145.3536  156.3724 C   0  0  0  0  0  0  0  0  0  0  0  0
  144.1336  146.4159  157.2534 C   0  0  0  0  0  0  0  0  0  0  0  0
  144.4313  146.2945  158.6232 C   0  0  0  0  0  0  0  0  0  0  0  0
  145.0139  145.1106  159.1106 C   0  0  0  0  0  0  0  0  0  0  0  0
  145.2972  144.0482  158.2307 C   0  0  0  0  0  0  0  0  0  0  0  0
  145.3105  142.0061  153.3826 H   0  0  0  0  0  0  0  0  0  0  0  0
  146.6282  143.0727  152.9072 H   0  0  0  0  0  0  0  0  0  0  0  0
  146.8950  141.1608  155.2833 H   0  0  0  0  0  0  0  0  0  0  0  0
  150.2602  141.4955  153.6861 H   0  0  0  0  0  0  0  0  0  0  0  0
  148.8492  142.4215  156.7231 H   0  0  0  0  0  0  0  0  0  0  0  0
  149.9310  142.2523  158.8658 H   0  0  0  0  0  0  0  0  0  0  0  0
  149.4310  139.3293  153.1694 H   0  0  0  0  0  0  0  0  0  0  0  0
  147.6943  138.9030  155.2142 H   0  0  0  0  0  0  0  0  0  0  0  0
  147.7051  140.7186  152.3740 H   0  0  0  0  0  0  0  0  0  0  0  0
  145.9177  136.2725  150.7766 H   0  0  0  0  0  0  0  0  0  0  0  0
  144.1917  134.5373  151.0904 H   0  0  0  0  0  0  0  0  0  0  0  0
  142.6262  134.6574  153.0195 H   0  0  0  0  0  0  0  0  0  0  0  0
  142.8034  136.5305  154.6456 H   0  0  0  0  0  0  0  0  0  0  0  0
  144.5128  138.2751  154.3572 H   0  0  0  0  0  0  0  0  0  0  0  0
  144.1720  145.4676  155.3257 H   0  0  0  0  0  0  0  0  0  0  0  0
  143.6861  147.3241  156.8773 H   0  0  0  0  0  0  0  0  0  0  0  0
  144.2122  147.1078  159.2991 H   0  0  0  0  0  0  0  0  0  0  0  0
  145.2387  145.0131  160.1624 H   0  0  0  0  0  0  0  0  0  0  0  0
  145.7370  143.1508  158.6406 H   0  0  0  0  0  0  0  0  0  0  0  0
  1  2  2  0  0  0  0
  2  3  1  0  0  0  0
  2 28  1  0  0  0  0
  3  4  1  0  0  0  0
  4  5  1  0  0  0  0
  4 34  1  0  0  0  0
  4 35  1  0  0  0  0
  5 18  1  0  0  0  0
  5  6  1  0  0  0  0
  5 36  1  0  0  0  0
  6  7  1  0  0  0  0
  7  8  1  0  0  0  0
  7 16  1  0  0  0  0
  7 37  1  0  0  0  0
  8 14  1  0  0  0  0
  8  9  1  0  0  0  0
  9 10  2  0  0  0  0
  9 38  1  0  0  0  0
 10 11  1  0  0  0  0
 10 39  1  0  0  0  0
 11 12  2  0  0  0  0
 11 13  1  0  0  0  0
 13 14  1  0  0  0  0
 14 15  2  0  0  0  0
 16 17  1  0  0  0  0
 16 18  1  0  0  0  0
 16 40  1  0  0  0  0
 17 41  1  0  0  0  0
 18 19  1  0  0  0  0
 18 42  1  0  0  0  0
 19 20  1  0  0  0  0
 20 21  2  0  0  0  0
 20 22  1  0  0  0  0
 22 27  1  0  0  0  0
 22 23  2  0  0  0  0
 23 24  1  0  0  0  0
 23 43  1  0  0  0  0
 24 25  2  0  0  0  0
 24 44  1  0  0  0  0
 25 26  1  0  0  0  0
 25 45  1  0  0  0  0
 26 27  2  0  0  0  0
 26 46  1  0  0  0  0
 27 47  1  0  0  0  0
 28 33  1  0  0  0  0
 28 29  2  0  0  0  0
 29 30  1  0  0  0  0
 29 48  1  0  0  0  0
 30 31  2  0  0  0  0
 30 49  1  0  0  0  0
 31 32  1  0  0  0  0
 31 50  1  0  0  0  0
 32 33  2  0  0  0  0
 32 51  1  0  0  0  0
 33 52  1  0  0  0  0
M  CHG  1  13  -1
M  END
> <s_m_source_file>
AV-unprocessed.smi

> <i_m_source_file_index>
99

> <i_lp_mmshare_version>
43012

> <i_f3d_flags>
0

> <s_epik_input>
W2NIXTFbY0hdW2NIXVtjSF1bY0hdYzFDKD1PKU9bQ0gyXVtDQEBIXTJPW0NAQEhdKG4zW2NIXVtjSF1jKD1PKVtuSF1jMz1PKVtDQEBIXShbT0hdKVtDQEhdMk9DKD1PKWM0W2NIXVtjSF1bY0hdW2NIXVtjSF00

> <s_epik_cmdline>
J2VwaWtfcHl0aG9uJywgJy1waCcsICc3LjAnLCAnLXRuJywgJzgnLCAnLW1hJywgJzIwMCcsICctbWV0YWxfYmluZGluZycsICctaW1hZScsICc8aW5maWxlLm1hZT4nLCAnLW9tYWUnLCAnPG91dGZpbGUubWFlPic=

> <r_lp_tautomer_probability>
1

> <r_epik_Ionization_Penalty>
2.89159

> <r_epik_Ionization_Penalty_Charging>
2.1077e-08

> <r_epik_Ionization_Penalty_Neutral>
2.89159

> <r_epik_State_Penalty>
2.88671

> <r_epik_Charging_Adjusted_Penalty>
2.88671

> <i_epik_Tot_Q>
-1

> <i_epik_Tot_abs_Q>
1

> <r_epik_Metal_State_Penalty>
0.0727308

> <b_epik_Metal_Only>
1

> <s_epik_Chemistry_Notes>
This compound has an ester and may undergo hydrolysis at high or low pH. This compound contains an acetal/aminal-like group ( X-CH(R)-Y where X, Y are N, S, or O) that may be acid/base labile, releasing an aldehyde.

> <s_lp_Force_Field>
OPLS_2005

> <r_lp_Energy>
51.3472

> <b_lp_Chiralities_Consistent>
1

> <s_lp_Variant>
AV-unprocessed.smi:99-17

> <Gold.Version>
5.8.1

> <Gold.Id.Protein>
6NUR|6NUR_protein|mol2

> <Gold.PLP.Fitness>
52.3014

> <Gold.PLP.PLP>
-45.6883

> <Gold.PLP.part.hbond>
-2.9611

> <Gold.PLP.part.metal>
0.0000

> <Gold.PLP.part.buried>
-4.9112

> <Gold.PLP.part.nonpolar>
-41.9823

> <Gold.PLP.part.repulsive>
4.9377

> <Gold.PLP.ligand.clash>
0.0000

> <Gold.PLP.ligand.torsion>
1.2481

> <Gold.PLP.Chemscore.Hbond>
2.0000

> <Gold.PLP.Chemscore.CHOScore>
0.9113

> <Gold.PLP.Chemscore.Metal>
0.0000

> <Gold.Chemscore.Hbonds>
donor molecule, donor type, donor heavy atom, donor atom, acceptor molecule, acceptor atom, score
      P1  H  7954  7966       L1    21  1.00
      P1  H  7989  7998       L1    15  1.00
      L1  C     9    38       P1  8028  0.91

> <Gold.PLP.Chemscore.Internal.Correction>
0.3754

> <Gold.Rescore>
     Score         DG    S(hbond)    S(metal)    S(lipo)     H(rot)  DE(clash)    DE(int)     intcor
      7.53     -12.15       1.66        0.00      78.29       3.13       2.97       1.65       ----

> <Gold.Chemscore.Fitness>
7.5321

> <Gold.Chemscore.DG>
-12.1517

> <Gold.Chemscore.ZeroCoef>
-5.4800

> <Gold.Chemscore.Hbond>
1.6577

> <Gold.Chemscore.Metal>
0.0000

> <Gold.Chemscore.Lipo>
78.2871

> <Gold.Chemscore.Internal_Hbond>
0.0000

> <Gold.Chemscore.DEClash>
2.9684

> <Gold.Chemscore.DEInternal>
1.6512

> <Gold.Chemscore.Rot>
3.1346

> <Gold.Chemscore.Internal.Correction>
   9.000000E+99

> <Gold.Chemscore.Hbonds>
donor molecule, donor type, donor heavy atom, donor atom, acceptor molecule, acceptor atom, score
      P1  H  7954  7966       L1    21  0.97
      P1  H  7989  7998       L1    15  0.39

> <Gold.Chemscore.Hbond.Weighted>
-5.5366

> <Gold.Chemscore.Metal.Weighted>
-0.0000

> <Gold.Chemscore.Lipo.Weighted>
-9.1596

> <Gold.Chemscore.Internal_Hbond.Weighted>
0.0000

> <Gold.Chemscore.DEClash.Weighted>
2.9684

> <Gold.Chemscore.DEInternal.Weighted>
1.6512

> <Gold.Chemscore.Rot.Weighted>
8.0246

> <Gold.Chemscore.Internal.Correction.Weighted>
   9.000000E+99

> <Gold.Protein.RotatedTorsions>
[ 6907 6896 6895 6894 ] final   93.11 input  -60.11 | X-H torsion
[ 7974 7965 7964 7962 ] final  -47.91 input  175.53 | X-H torsion
[ 8008 7997 7996 7995 ] final   36.49 input   59.86 | X-H torsion
[ 10167 10162 10161 10158 ] final  -74.77 input  -65.29 | X-H torsion
[ 10718 10713 10712 10709 ] final -157.65 input   66.30 | X-H torsion
[ 10763 10752 10751 10750 ] final  -53.42 input  -60.55 | X-H torsion
[ 11005 11000 10999 10996 ] final   26.16 input  -57.11 | X-H torsion

> <Gold.Protein.ActiveResidues>
 VAL166  LYS551  ARG553  GLY616  TRP617  ASP618  TYR619  PRO620  LYS621  CYS622 
 ASP623  PHE694  ASN695  SER759  ASP760  ASP761  ALA762  ILE779  LEU786  VAL792 
 PHE793  MET794  SER795  GLU796  ALA797  LYS798  CYS799  TRP800  GLU811  SER814 

> <Gold.Protein.RotatedAtoms>
  152.5453  134.1399  159.8474 H   0  0  0  0  0  0  0  0  0  0  0  0  # atno 6907 bound_to 6896
  151.1436  133.4947  159.2604 H   0  0  0  0  0  0  0  0  0  0  0  0  # atno 6908 bound_to 6896
  151.1547  135.0254  159.8738 H   0  0  0  0  0  0  0  0  0  0  0  0  # atno 6909 bound_to 6896
  145.9566  140.7520  142.9478 H   0  0  0  0  0  0  0  0  0  0  0  0  # atno 7974 bound_to 7965
  155.1882  140.3305  155.4363 H   0  0  0  0  0  0  0  0  0  0  0  0  # atno 8008 bound_to 7997
  156.2452  140.1915  156.6927 H   0  0  0  0  0  0  0  0  0  0  0  0  # atno 8009 bound_to 7997
  154.6224  140.0593  156.9617 H   0  0  0  0  0  0  0  0  0  0  0  0  # atno 8010 bound_to 7997
  140.4999  143.2363  151.7769 H   0  0  0  0  0  0  0  0  0  0  0  0  # atno 10167 bound_to 10162
  156.5432  130.8572  151.2755 H   0  0  0  0  0  0  0  0  0  0  0  0  # atno 10718 bound_to 10713
  154.1586  135.6478  153.4980 H   0  0  0  0  0  0  0  0  0  0  0  0  # atno 10763 bound_to 10752
  153.0117  135.5355  154.6734 H   0  0  0  0  0  0  0  0  0  0  0  0  # atno 10764 bound_to 10752
  154.6042  135.2947  155.0474 H   0  0  0  0  0  0  0  0  0  0  0  0  # atno 10765 bound_to 10752
  140.3401  134.2343  155.7691 H   0  0  0  0  0  0  0  0  0  0  0  0  # atno 11005 bound_to 11000
  144.6806  140.2522  143.7330 LP  0  0  0  0  0  0  0  0  0  0  0  0  # atno 17320 bound_to 7965
  145.8097  139.1998  143.2000 LP  0  0  0  0  0  0  0  0  0  0  0  0  # atno 17321 bound_to 7965
  139.4870  144.4536  151.9625 LP  0  0  0  0  0  0  0  0  0  0  0  0  # atno 17342 bound_to 10162
  140.3625  144.2956  150.5931 LP  0  0  0  0  0  0  0  0  0  0  0  0  # atno 17343 bound_to 10162
  157.7401  130.9845  150.2359 LP  0  0  0  0  0  0  0  0  0  0  0  0  # atno 17370 bound_to 10713
  156.2953  130.3751  149.7802 LP  0  0  0  0  0  0  0  0  0  0  0  0  # atno 17371 bound_to 10713
  141.2041  133.7896  157.0306 LP  0  0  0  0  0  0  0  0  0  0  0  0  # atno 17394 bound_to 11000
  140.0788  134.9660  157.1590 LP  0  0  0  0  0  0  0  0  0  0  0  0  # atno 17395 bound_to 11000

$$$$
