AV-unprocessed.smi:2829|AV-procd|sdf|10899|dock8
  -GOLD-   2272015343D 1   1.00000     0.00000
 Structure written by MMmdl.
 50 53  0  0  0  0  0  0  0  0  1 V2000
  151.0221  142.0733  156.4010 C   0  0  0  0  0  0  0  0  0  0  0  0
  151.2667  142.8375  157.7219 C   0  0  0  0  0  0  0  0  0  0  0  0
  151.9447  144.1765  157.3634 C   0  0  0  0  0  0  0  0  0  0  0  0
  149.8905  143.1036  158.3668 C   0  0  0  0  0  0  0  0  0  0  0  0
  152.1561  142.0505  158.7013 C   0  0  0  0  0  0  0  0  0  0  0  0
  152.4859  142.5163  159.9943 C   0  0  0  0  0  0  0  0  0  0  0  0
  153.3075  141.7028  160.7929 C   0  0  0  0  0  0  0  0  0  0  0  0
  153.7527  140.4743  160.2654 C   0  0  0  0  0  0  0  0  0  0  0  0
  154.5807  139.7067  161.1248 N   0  0  0  0  0  0  0  0  0  0  0  0
  155.2749  140.1237  162.2017 C   0  0  0  0  0  0  0  0  0  0  0  0
  155.3694  141.2943  162.5652 O   0  0  0  0  0  0  0  0  0  0  0  0
  155.8917  139.1355  162.8720 N   0  0  0  0  0  0  0  0  0  0  0  0
  156.7180  139.2498  164.0731 C   0  0  1  0  0  0  0  0  0  0  0  0
  156.2263  140.3581  165.0063 C   0  0  2  0  0  0  0  0  0  0  0  0
  156.7485  141.6943  165.3920 C   0  0  0  0  0  0  0  0  0  0  0  0
  156.4808  141.5881  166.9152 C   0  0  0  0  0  0  0  0  0  0  0  0
  156.1048  140.2100  167.1551 O   0  0  0  0  0  0  0  0  0  0  0  0
  156.7567  139.4838  166.1307 C   0  0  1  0  0  0  0  0  0  0  0  0
  156.2865  138.3145  165.2552 C   0  0  0  0  0  0  0  0  0  0  0  0
  156.8731  136.9084  165.4274 C   0  0  0  0  0  0  0  0  0  0  0  0
  155.4971  136.3318  165.0767 C   0  0  0  0  0  0  0  0  0  0  0  0
  154.8823  137.6982  165.3980 C   0  0  0  0  0  0  0  0  0  0  0  0
  153.3980  140.0902  159.0139 N   0  0  0  0  0  0  0  0  0  0  0  0
  152.6187  140.8597  158.2487 N   0  0  0  0  0  0  0  0  0  0  0  0
  150.3934  142.6504  155.7219 H   0  0  0  0  0  0  0  0  0  0  0  0
  150.5153  141.1228  156.5725 H   0  0  0  0  0  0  0  0  0  0  0  0
  151.9552  141.8689  155.8744 H   0  0  0  0  0  0  0  0  0  0  0  0
  152.9236  144.0151  156.9099 H   0  0  0  0  0  0  0  0  0  0  0  0
  152.0902  144.8055  158.2424 H   0  0  0  0  0  0  0  0  0  0  0  0
  151.3446  144.7492  156.6556 H   0  0  0  0  0  0  0  0  0  0  0  0
  149.2322  143.6475  157.6887 H   0  0  0  0  0  0  0  0  0  0  0  0
  149.9773  143.7000  159.2757 H   0  0  0  0  0  0  0  0  0  0  0  0
  149.3910  142.1713  158.6325 H   0  0  0  0  0  0  0  0  0  0  0  0
  152.1347  143.4592  160.3835 H   0  0  0  0  0  0  0  0  0  0  0  0
  153.5870  142.0183  161.7877 H   0  0  0  0  0  0  0  0  0  0  0  0
  154.6169  138.7181  160.9258 H   0  0  0  0  0  0  0  0  0  0  0  0
  155.7919  138.2044  162.4939 H   0  0  0  0  0  0  0  0  0  0  0  0
  157.7957  139.2842  163.8916 H   0  0  0  0  0  0  0  0  0  0  0  0
  155.1302  140.3872  164.9935 H   0  0  0  0  0  0  0  0  0  0  0  0
  157.8113  141.7978  165.1693 H   0  0  0  0  0  0  0  0  0  0  0  0
  156.2021  142.5141  164.9250 H   0  0  0  0  0  0  0  0  0  0  0  0
  157.3746  141.8434  167.4856 H   0  0  0  0  0  0  0  0  0  0  0  0
  155.6742  142.2481  167.2349 H   0  0  0  0  0  0  0  0  0  0  0  0
  157.8458  139.5152  166.2403 H   0  0  0  0  0  0  0  0  0  0  0  0
  157.6665  136.6521  164.7252 H   0  0  0  0  0  0  0  0  0  0  0  0
  157.1648  136.7002  166.4578 H   0  0  0  0  0  0  0  0  0  0  0  0
  155.4059  136.0647  164.0232 H   0  0  0  0  0  0  0  0  0  0  0  0
  155.1660  135.5213  165.7264 H   0  0  0  0  0  0  0  0  0  0  0  0
  154.5029  137.7563  166.4191 H   0  0  0  0  0  0  0  0  0  0  0  0
  154.1411  138.0414  164.6761 H   0  0  0  0  0  0  0  0  0  0  0  0
  1  2  1  0  0  0  0
  1 25  1  0  0  0  0
  1 26  1  0  0  0  0
  1 27  1  0  0  0  0
  2  3  1  0  0  0  0
  2  4  1  0  0  0  0
  2  5  1  0  0  0  0
  3 28  1  0  0  0  0
  3 29  1  0  0  0  0
  3 30  1  0  0  0  0
  4 31  1  0  0  0  0
  4 32  1  0  0  0  0
  4 33  1  0  0  0  0
  5 24  1  0  0  0  0
  5  6  2  0  0  0  0
  6  7  1  0  0  0  0
  6 34  1  0  0  0  0
  7  8  2  0  0  0  0
  7 35  1  0  0  0  0
  8  9  1  0  0  0  0
  8 23  1  0  0  0  0
  9 10  1  0  0  0  0
  9 36  1  0  0  0  0
 10 11  2  0  0  0  0
 10 12  1  0  0  0  0
 12 13  1  0  0  0  0
 12 37  1  0  0  0  0
 13 19  1  0  0  0  0
 13 14  1  0  0  0  0
 13 38  1  0  0  0  0
 14 18  1  0  0  0  0
 14 15  1  0  0  0  0
 14 39  1  0  0  0  0
 15 16  1  0  0  0  0
 15 40  1  0  0  0  0
 15 41  1  0  0  0  0
 16 17  1  0  0  0  0
 16 42  1  0  0  0  0
 16 43  1  0  0  0  0
 17 18  1  0  0  0  0
 18 19  1  0  0  0  0
 18 44  1  0  0  0  0
 19 22  1  0  0  0  0
 19 20  1  0  0  0  0
 20 21  1  0  0  0  0
 20 45  1  0  0  0  0
 20 46  1  0  0  0  0
 21 22  1  0  0  0  0
 21 47  1  0  0  0  0
 21 48  1  0  0  0  0
 22 49  1  0  0  0  0
 22 50  1  0  0  0  0
 23 24  2  0  0  0  0
M  END
> <s_m_source_file>
AV-unprocessed.smi

> <i_m_source_file_index>
2829

> <i_lp_mmshare_version>
43012

> <i_f3d_flags>
0

> <s_epik_input>
W0NIM11DKFtDSDNdKShbQ0gzXSljMVtjSF1bY0hdYyhubjEpW05IXUMoPU8pW05IXVtDQEBIXTJbQ0BIXShbQ0gyXVtDSDJdTzMpW0NAQEhdM0MyNFtDSDJdW0NIMl1bQ0gyXTQ=

> <s_epik_cmdline>
J2VwaWtfcHl0aG9uJywgJy1waCcsICc3LjAnLCAnLXRuJywgJzgnLCAnLW1hJywgJzIwMCcsICctbWV0YWxfYmluZGluZycsICctaW1hZScsICc8aW5maWxlLm1hZT4nLCAnLW9tYWUnLCAnPG91dGZpbGUubWFlPic=

> <r_lp_tautomer_probability>
1

> <r_epik_Ionization_Penalty>
0.011915

> <r_epik_Ionization_Penalty_Charging>
0

> <r_epik_Ionization_Penalty_Neutral>
0.011915

> <r_epik_State_Penalty>
0.00486223

> <r_epik_Charging_Adjusted_Penalty>
0.00486223

> <i_epik_Tot_Q>
0

> <i_epik_Tot_abs_Q>
0

> <r_epik_Metal_State_Penalty>
-0

> <b_epik_Metal_Only>
0

> <s_lp_Force_Field>
OPLS_2005

> <r_lp_Energy>
82.5072

> <b_lp_Chiralities_Consistent>
1

> <s_lp_Variant>
AV-unprocessed.smi:2829-2

> <Gold.Version>
5.8.1

> <Gold.Id.Protein>
6NUR|6NUR_protein|mol2

> <Gold.PLP.Fitness>
42.1141

> <Gold.PLP.PLP>
-40.7839

> <Gold.PLP.part.hbond>
-3.4116

> <Gold.PLP.part.metal>
0.0000

> <Gold.PLP.part.buried>
-2.0594

> <Gold.PLP.part.nonpolar>
-33.4757

> <Gold.PLP.part.repulsive>
0.1528

> <Gold.PLP.ligand.clash>
0.0199

> <Gold.PLP.ligand.torsion>
0.3024

> <Gold.PLP.Chemscore.Hbond>
0.5440

> <Gold.PLP.Chemscore.CHOScore>
0.0000

> <Gold.PLP.Chemscore.Metal>
0.0000

> <Gold.Chemscore.Hbonds>
donor molecule, donor type, donor heavy atom, donor atom, acceptor molecule, acceptor atom, score
      P1  H  7997  8009       L1    23  0.07

> <Gold.PLP.Chemscore.Internal.Correction>
0.3229

> <Gold.Rescore>
     Score         DG    S(hbond)    S(metal)    S(lipo)     H(rot)  DE(clash)    DE(int)     intcor
     12.43     -16.35       0.03        0.00     117.33       1.16       0.64       3.27       ----

> <Gold.Chemscore.Fitness>
12.4313

> <Gold.Chemscore.DG>
-16.3469

> <Gold.Chemscore.ZeroCoef>
-5.4800

> <Gold.Chemscore.Hbond>
0.0339

> <Gold.Chemscore.Metal>
0.0000

> <Gold.Chemscore.Lipo>
117.3315

> <Gold.Chemscore.Internal_Hbond>
0.0000

> <Gold.Chemscore.DEClash>
0.6432

> <Gold.Chemscore.DEInternal>
3.2724

> <Gold.Chemscore.Rot>
1.1618

> <Gold.Chemscore.Internal.Correction>
   9.000000E+99

> <Gold.Chemscore.Hbond.Weighted>
-0.1133

> <Gold.Chemscore.Metal.Weighted>
-0.0000

> <Gold.Chemscore.Lipo.Weighted>
-13.7278

> <Gold.Chemscore.Internal_Hbond.Weighted>
0.0000

> <Gold.Chemscore.DEClash.Weighted>
0.6432

> <Gold.Chemscore.DEInternal.Weighted>
3.2724

> <Gold.Chemscore.Rot.Weighted>
2.9741

> <Gold.Chemscore.Internal.Correction.Weighted>
   9.000000E+99

> <Gold.Protein.RotatedTorsions>
[ 6907 6896 6895 6894 ] final   36.68 input  -60.11 | X-H torsion
[ 7974 7965 7964 7962 ] final  136.32 input  175.53 | X-H torsion
[ 8008 7997 7996 7995 ] final  143.14 input   59.86 | X-H torsion
[ 10167 10162 10161 10158 ] final  130.44 input  -65.29 | X-H torsion
[ 10718 10713 10712 10709 ] final   53.54 input   66.30 | X-H torsion
[ 10763 10752 10751 10750 ] final   27.06 input  -60.55 | X-H torsion
[ 11005 11000 10999 10996 ] final   34.42 input  -57.11 | X-H torsion

> <Gold.Protein.ActiveResidues>
 VAL166  LYS551  ARG553  GLY616  TRP617  ASP618  TYR619  PRO620  LYS621  CYS622 
 ASP623  PHE694  ASN695  SER759  ASP760  ASP761  ALA762  ILE779  LEU786  VAL792 
 PHE793  MET794  SER795  GLU796  ALA797  LYS798  CYS799  TRP800  GLU811  SER814 

> <Gold.Protein.RotatedAtoms>
  152.1330  134.9120  160.0557 H   0  0  0  0  0  0  0  0  0  0  0  0  # atno 6907 bound_to 6896
  152.0217  133.3896  159.4269 H   0  0  0  0  0  0  0  0  0  0  0  0  # atno 6908 bound_to 6896
  150.6858  134.3540  159.4965 H   0  0  0  0  0  0  0  0  0  0  0  0  # atno 6909 bound_to 6896
  144.9576  139.4747  143.5495 H   0  0  0  0  0  0  0  0  0  0  0  0  # atno 7974 bound_to 7965
  156.2936  140.2270  156.4842 H   0  0  0  0  0  0  0  0  0  0  0  0  # atno 8008 bound_to 7997
  154.7827  140.0459  157.1160 H   0  0  0  0  0  0  0  0  0  0  0  0  # atno 8009 bound_to 7997
  154.9740  140.3070  155.4979 H   0  0  0  0  0  0  0  0  0  0  0  0  # atno 8010 bound_to 7997
  139.5430  144.6748  151.4563 H   0  0  0  0  0  0  0  0  0  0  0  0  # atno 10167 bound_to 10162
  157.5176  130.8543  149.8516 H   0  0  0  0  0  0  0  0  0  0  0  0  # atno 10718 bound_to 10713
  153.0581  135.6546  154.0529 H   0  0  0  0  0  0  0  0  0  0  0  0  # atno 10763 bound_to 10752
  154.0203  135.2920  155.3383 H   0  0  0  0  0  0  0  0  0  0  0  0  # atno 10764 bound_to 10752
  154.6906  135.5284  153.8454 H   0  0  0  0  0  0  0  0  0  0  0  0  # atno 10765 bound_to 10752
  140.2530  134.3280  155.7883 H   0  0  0  0  0  0  0  0  0  0  0  0  # atno 11005 bound_to 11000
  146.3342  139.8704  142.8841 LP  0  0  0  0  0  0  0  0  0  0  0  0  # atno 17320 bound_to 7965
  145.2749  141.0120  143.3751 LP  0  0  0  0  0  0  0  0  0  0  0  0  # atno 17321 bound_to 7965
  140.6668  143.8381  150.6951 LP  0  0  0  0  0  0  0  0  0  0  0  0  # atno 17342 bound_to 10162
  140.1793  143.4128  152.1944 LP  0  0  0  0  0  0  0  0  0  0  0  0  # atno 17343 bound_to 10162
  156.0331  130.3759  150.1634 LP  0  0  0  0  0  0  0  0  0  0  0  0  # atno 17370 bound_to 10713
  156.9822  130.9867  151.3434 LP  0  0  0  0  0  0  0  0  0  0  0  0  # atno 17371 bound_to 10713
  141.2199  133.7365  156.9067 LP  0  0  0  0  0  0  0  0  0  0  0  0  # atno 17394 bound_to 11000
  140.1539  134.9211  157.2628 LP  0  0  0  0  0  0  0  0  0  0  0  0  # atno 17395 bound_to 11000

$$$$
