AV-unprocessed.smi:3348|AV-procd|sdf|12922|dock10
  -GOLD-   2272019343D 1   1.00000     0.00000
 Structure written by MMmdl.
 47 48  0  0  0  0  0  0  0  0  2 V2000
  144.4279  136.6343  153.0043 C   0  0  0  0  0  0  0  0  0  0  0  0
  145.6087  136.9419  152.0687 C   0  0  1  0  0  0  0  0  0  0  0  0
  145.5721  136.0264  150.8273 C   0  0  0  0  0  0  0  0  0  0  0  0
  145.5611  134.6106  151.1589 N   0  0  0  0  0  0  0  0  0  0  0  0
  145.3972  133.5355  150.3105 C   0  0  0  0  0  0  0  0  0  0  0  0
  145.4342  132.4042  151.0742 C   0  0  0  0  0  0  0  0  0  0  0  0
  145.6126  132.8951  152.3975 C   0  0  0  0  0  0  0  0  0  0  0  0
  145.6832  134.2156  152.4451 N   0  0  0  0  0  0  0  0  0  0  0  0
  145.6020  138.3632  151.6534 N   0  3  0  0  0  0  0  0  0  0  0  0
  146.8267  139.1233  151.9785 C   0  0  0  0  0  0  0  0  0  0  0  0
  147.4502  138.6186  153.2830 C   0  0  0  0  0  0  0  0  0  0  0  0
  148.1310  139.6993  153.9032 O   0  0  0  0  0  0  0  0  0  0  0  0
  149.1345  139.3108  154.8336 C   0  0  1  0  0  0  0  0  0  0  0  0
  150.1506  138.3770  154.1417 C   0  0  0  0  0  0  0  0  0  0  0  0
  151.3289  138.0401  155.0672 C   0  0  0  0  0  0  0  0  0  0  0  0
  152.0165  139.3163  155.5707 C   0  0  0  0  0  0  0  0  0  0  0  0
  151.0112  140.2445  156.2684 C   0  0  0  0  0  0  0  0  0  0  0  0
  149.8228  140.5944  155.3505 C   0  0  2  0  0  0  0  0  0  0  0  0
  148.8318  141.5188  156.0769 C   0  0  0  0  0  0  0  0  0  0  0  0
  144.4211  135.5817  153.2891 H   0  0  0  0  0  0  0  0  0  0  0  0
  143.4733  136.8525  152.5241 H   0  0  0  0  0  0  0  0  0  0  0  0
  144.4779  137.2140  153.9256 H   0  0  0  0  0  0  0  0  0  0  0  0
  146.5344  136.7457  152.6119 H   0  0  0  0  0  0  0  0  0  0  0  0
  144.6836  136.2362  150.2303 H   0  0  0  0  0  0  0  0  0  0  0  0
  146.4321  136.2250  150.1858 H   0  0  0  0  0  0  0  0  0  0  0  0
  145.2699  133.6620  149.2454 H   0  0  0  0  0  0  0  0  0  0  0  0
  145.3405  131.3816  150.7397 H   0  0  0  0  0  0  0  0  0  0  0  0
  145.6895  132.3358  153.3183 H   0  0  0  0  0  0  0  0  0  0  0  0
  145.4967  138.3838  150.6488 H   0  0  0  0  0  0  0  0  0  0  0  0
  147.5517  139.0486  151.1682 H   0  0  0  0  0  0  0  0  0  0  0  0
  146.5689  140.1776  152.0852 H   0  0  0  0  0  0  0  0  0  0  0  0
  146.6629  138.2557  153.9452 H   0  0  0  0  0  0  0  0  0  0  0  0
  148.1216  137.7832  153.0836 H   0  0  0  0  0  0  0  0  0  0  0  0
  148.6820  138.7961  155.6835 H   0  0  0  0  0  0  0  0  0  0  0  0
  149.6709  137.4512  153.8256 H   0  0  0  0  0  0  0  0  0  0  0  0
  150.5273  138.8537  153.2360 H   0  0  0  0  0  0  0  0  0  0  0  0
  150.9718  137.4564  155.9168 H   0  0  0  0  0  0  0  0  0  0  0  0
  152.0487  137.4127  154.5407 H   0  0  0  0  0  0  0  0  0  0  0  0
  152.8229  139.0583  156.2578 H   0  0  0  0  0  0  0  0  0  0  0  0
  152.4790  139.8396  154.7329 H   0  0  0  0  0  0  0  0  0  0  0  0
  150.6459  139.7638  157.1770 H   0  0  0  0  0  0  0  0  0  0  0  0
  151.5191  141.1559  156.5855 H   0  0  0  0  0  0  0  0  0  0  0  0
  150.2153  141.1397  154.4907 H   0  0  0  0  0  0  0  0  0  0  0  0
  148.3790  141.0194  156.9339 H   0  0  0  0  0  0  0  0  0  0  0  0
  148.0268  141.8382  155.4147 H   0  0  0  0  0  0  0  0  0  0  0  0
  149.3292  142.4180  156.4411 H   0  0  0  0  0  0  0  0  0  0  0  0
  144.8045  138.8247  152.0677 H   0  0  0  0  0  0  0  0  0  0  0  0
  1  2  1  0  0  0  0
  1 20  1  0  0  0  0
  1 21  1  0  0  0  0
  1 22  1  0  0  0  0
  2  3  1  0  0  0  0
  2  9  1  0  0  0  0
  2 23  1  0  0  0  0
  3  4  1  0  0  0  0
  3 24  1  0  0  0  0
  3 25  1  0  0  0  0
  4  8  1  0  0  0  0
  4  5  1  0  0  0  0
  5  6  2  0  0  0  0
  5 26  1  0  0  0  0
  6  7  1  0  0  0  0
  6 27  1  0  0  0  0
  7  8  2  0  0  0  0
  7 28  1  0  0  0  0
  9 10  1  0  0  0  0
  9 29  1  0  0  0  0
  9 47  1  0  0  0  0
 10 11  1  0  0  0  0
 10 30  1  0  0  0  0
 10 31  1  0  0  0  0
 11 12  1  0  0  0  0
 11 32  1  0  0  0  0
 11 33  1  0  0  0  0
 12 13  1  0  0  0  0
 13 18  1  0  0  0  0
 13 14  1  0  0  0  0
 13 34  1  0  0  0  0
 14 15  1  0  0  0  0
 14 35  1  0  0  0  0
 14 36  1  0  0  0  0
 15 16  1  0  0  0  0
 15 37  1  0  0  0  0
 15 38  1  0  0  0  0
 16 17  1  0  0  0  0
 16 39  1  0  0  0  0
 16 40  1  0  0  0  0
 17 18  1  0  0  0  0
 17 41  1  0  0  0  0
 17 42  1  0  0  0  0
 18 19  1  0  0  0  0
 18 43  1  0  0  0  0
 19 44  1  0  0  0  0
 19 45  1  0  0  0  0
 19 46  1  0  0  0  0
M  CHG  1   9   1
M  END
> <s_m_source_file>
AV-unprocessed.smi

> <i_m_source_file_index>
3348

> <i_lp_mmshare_version>
43012

> <i_f3d_flags>
0

> <s_epik_input>
bjFbY0hdW2NIXVtjSF1uMVtDSDJdW0NAQEhdKFtDSDNdKVtOSF1bQ0gyXVtDSDJdT1tDQEBIXTJbQ0gyXVtDSDJdW0NIMl1bQ0gyXVtDQEhdMltDSDNd

> <s_epik_cmdline>
J2VwaWtfcHl0aG9uJywgJy1waCcsICc3LjAnLCAnLXRuJywgJzgnLCAnLW1hJywgJzIwMCcsICctbWV0YWxfYmluZGluZycsICctaW1hZScsICc8aW5maWxlLm1hZT4nLCAnLW9tYWUnLCAnPG91dGZpbGUubWFlPic=

> <r_lp_tautomer_probability>
1

> <r_epik_Ionization_Penalty>
0.00925088

> <r_epik_Ionization_Penalty_Charging>
0.00924645

> <r_epik_Ionization_Penalty_Neutral>
4.42413e-06

> <r_epik_State_Penalty>
0.0070118

> <r_epik_Charging_Adjusted_Penalty>
0.0162583

> <i_epik_Tot_Q>
1

> <i_epik_Tot_abs_Q>
1

> <r_epik_Metal_State_Penalty>
0.00701222

> <b_epik_Metal_Only>
0

> <s_lp_Force_Field>
OPLS_2005

> <r_lp_Energy>
15.644

> <b_lp_Chiralities_Consistent>
1

> <s_lp_Variant>
AV-unprocessed.smi:3348-8

> <Gold.Version>
5.8.1

> <Gold.Id.Protein>
6NUR|6NUR_protein|mol2

> <Gold.PLP.Fitness>
45.2047

> <Gold.PLP.PLP>
-36.7667

> <Gold.PLP.part.hbond>
-2.0000

> <Gold.PLP.part.metal>
0.0000

> <Gold.PLP.part.buried>
0.3957

> <Gold.PLP.part.nonpolar>
-35.5843

> <Gold.PLP.part.repulsive>
1.0539

> <Gold.PLP.ligand.clash>
0.0000

> <Gold.PLP.ligand.torsion>
1.2372

> <Gold.PLP.Chemscore.Hbond>
2.5920

> <Gold.PLP.Chemscore.CHOScore>
1.0000

> <Gold.PLP.Chemscore.Metal>
0.0000

> <Gold.Chemscore.Hbonds>
donor molecule, donor type, donor heavy atom, donor atom, acceptor molecule, acceptor atom, score
      L1  H     9    29       P1 10171  0.48
      L1  H     9    47       P1 10175  2.00
      L1  C     5    26       P1  7921  1.00

> <Gold.PLP.Chemscore.Internal.Correction>
0.1364

> <Gold.Rescore>
     Score         DG    S(hbond)    S(metal)    S(lipo)     H(rot)  DE(clash)    DE(int)     intcor
     14.70     -17.50       1.60        0.00      96.74       1.82       0.08       2.73       ----

> <Gold.Chemscore.Fitness>
14.6965

> <Gold.Chemscore.DG>
-17.4980

> <Gold.Chemscore.ZeroCoef>
-5.4800

> <Gold.Chemscore.Hbond>
1.6016

> <Gold.Chemscore.Metal>
0.0000

> <Gold.Chemscore.Lipo>
96.7384

> <Gold.Chemscore.Internal_Hbond>
0.0000

> <Gold.Chemscore.DEClash>
0.0765

> <Gold.Chemscore.DEInternal>
2.7250

> <Gold.Chemscore.Rot>
1.8163

> <Gold.Chemscore.Internal.Correction>
   9.000000E+99

> <Gold.Chemscore.Hbonds>
donor molecule, donor type, donor heavy atom, donor atom, acceptor molecule, acceptor atom, score
      L1  H     9    29       P1 10171  0.48
      L1  H     9    47       P1 10175  0.92

> <Gold.Chemscore.Hbond.Weighted>
-5.3494

> <Gold.Chemscore.Metal.Weighted>
-0.0000

> <Gold.Chemscore.Lipo.Weighted>
-11.3184

> <Gold.Chemscore.Internal_Hbond.Weighted>
0.0000

> <Gold.Chemscore.DEClash.Weighted>
0.0765

> <Gold.Chemscore.DEInternal.Weighted>
2.7250

> <Gold.Chemscore.Rot.Weighted>
4.6497

> <Gold.Chemscore.Internal.Correction.Weighted>
   9.000000E+99

> <Gold.Protein.RotatedTorsions>
[ 6907 6896 6895 6894 ] final  157.61 input  -60.11 | X-H torsion
[ 7974 7965 7964 7962 ] final   34.90 input  175.53 | X-H torsion
[ 8008 7997 7996 7995 ] final  -55.70 input   59.86 | X-H torsion
[ 10167 10162 10161 10158 ] final  105.92 input  -65.29 | X-H torsion
[ 10718 10713 10712 10709 ] final  140.00 input   66.30 | X-H torsion
[ 10763 10752 10751 10750 ] final -111.27 input  -60.55 | X-H torsion
[ 11005 11000 10999 10996 ] final   93.56 input  -57.11 | X-H torsion

> <Gold.Protein.ActiveResidues>
 VAL166  LYS551  ARG553  GLY616  TRP617  ASP618  TYR619  PRO620  LYS621  CYS622 
 ASP623  PHE694  ASN695  SER759  ASP760  ASP761  ALA762  ILE779  LEU786  VAL792 
 PHE793  MET794  SER795  GLU796  ALA797  LYS798  CYS799  TRP800  GLU811  SER814 

> <Gold.Protein.RotatedAtoms>
  152.0125  133.3867  159.4225 H   0  0  0  0  0  0  0  0  0  0  0  0  # atno 6907 bound_to 6896
  150.6898  134.3714  159.5003 H   0  0  0  0  0  0  0  0  0  0  0  0  # atno 6908 bound_to 6896
  152.1477  134.9012  160.0600 H   0  0  0  0  0  0  0  0  0  0  0  0  # atno 6909 bound_to 6896
  146.1321  139.6210  142.9220 H   0  0  0  0  0  0  0  0  0  0  0  0  # atno 7974 bound_to 7965
  154.4204  140.1147  156.5518 H   0  0  0  0  0  0  0  0  0  0  0  0  # atno 8008 bound_to 7997
  155.6402  140.3496  155.4693 H   0  0  0  0  0  0  0  0  0  0  0  0  # atno 8009 bound_to 7997
  155.9877  140.1173  157.0657 H   0  0  0  0  0  0  0  0  0  0  0  0  # atno 8010 bound_to 7997
  139.7052  144.7087  151.1118 H   0  0  0  0  0  0  0  0  0  0  0  0  # atno 10167 bound_to 10162
  157.4081  131.1025  151.0482 H   0  0  0  0  0  0  0  0  0  0  0  0  # atno 10718 bound_to 10713
  154.8292  135.4533  154.1014 H   0  0  0  0  0  0  0  0  0  0  0  0  # atno 10763 bound_to 10752
  153.2302  135.6904  153.7905 H   0  0  0  0  0  0  0  0  0  0  0  0  # atno 10764 bound_to 10752
  153.7291  135.3330  155.3258 H   0  0  0  0  0  0  0  0  0  0  0  0  # atno 10765 bound_to 10752
  139.8808  134.8797  156.3736 H   0  0  0  0  0  0  0  0  0  0  0  0  # atno 11005 bound_to 11000
  145.5238  141.0430  143.2420 LP  0  0  0  0  0  0  0  0  0  0  0  0  # atno 17320 bound_to 7965
  144.7701  139.6755  143.7198 LP  0  0  0  0  0  0  0  0  0  0  0  0  # atno 17321 bound_to 7965
  140.7720  143.5368  150.9358 LP  0  0  0  0  0  0  0  0  0  0  0  0  # atno 17342 bound_to 10162
  139.9052  143.6788  152.3125 LP  0  0  0  0  0  0  0  0  0  0  0  0  # atno 17343 bound_to 10162
  157.1456  130.6162  149.5567 LP  0  0  0  0  0  0  0  0  0  0  0  0  # atno 17370 bound_to 10713
  155.9842  130.4866  150.6974 LP  0  0  0  0  0  0  0  0  0  0  0  0  # atno 17371 bound_to 10713
  140.9447  133.7491  156.0193 LP  0  0  0  0  0  0  0  0  0  0  0  0  # atno 17394 bound_to 11000
  140.8177  134.3325  157.5392 LP  0  0  0  0  0  0  0  0  0  0  0  0  # atno 17395 bound_to 11000

$$$$
