AV-unprocessed.smi:3126|AV-procd|sdf|11910|dock5
  -GOLD-   2272017293D 1   1.00000     0.00000
 Structure written by MMmdl.
 42 43  0  0  0  0  0  0  0  0  2 V2000
  153.2680  139.9387  159.6576 C   0  0  0  0  0  0  0  0  0  0  0  0
  153.6154  141.4128  159.9078 C   0  0  0  0  0  0  0  0  0  0  0  0
  152.7464  142.4086  159.1130 C   0  0  2  0  0  0  0  0  0  0  0  0
  153.0950  143.8785  159.4305 C   0  0  0  0  0  0  0  0  0  0  0  0
  152.2004  144.8569  158.6542 C   0  0  0  0  0  0  0  0  0  0  0  0
  150.7121  144.5877  158.9243 C   0  0  0  0  0  0  0  0  0  0  0  0
  150.3232  143.1263  158.6152 C   0  0  1  0  0  0  0  0  0  0  0  0
  150.3417  142.8311  157.1632 N   0  3  0  0  0  0  0  0  0  0  0  0
  149.7797  141.5210  156.7747 C   0  0  0  0  0  0  0  0  0  0  0  0
  150.1741  141.1588  155.3371 C   0  0  0  0  0  0  0  0  0  0  0  0
  148.9890  140.6637  154.5321 C   0  0  0  0  0  0  0  0  0  0  0  0
  148.8723  139.3045  154.1741 C   0  0  0  0  0  0  0  0  0  0  0  0
  147.7575  138.8961  153.4170 C   0  0  0  0  0  0  0  0  0  0  0  0
  146.8038  139.8663  153.0496 C   0  0  0  0  0  0  0  0  0  0  0  0
  146.9054  141.1700  153.3869 N   0  0  0  0  0  0  0  0  0  0  0  0
  147.9766  141.5534  154.1136 C   0  0  0  0  0  0  0  0  0  0  0  0
  151.2455  142.1511  159.3740 C   0  0  0  0  0  0  0  0  0  0  0  0
  153.8618  139.2898  160.3018 H   0  0  0  0  0  0  0  0  0  0  0  0
  153.4693  139.6444  158.6279 H   0  0  0  0  0  0  0  0  0  0  0  0
  152.2169  139.7396  159.8674 H   0  0  0  0  0  0  0  0  0  0  0  0
  153.4957  141.6083  160.9741 H   0  0  0  0  0  0  0  0  0  0  0  0
  154.6704  141.5814  159.6887 H   0  0  0  0  0  0  0  0  0  0  0  0
  152.9353  142.2372  158.0522 H   0  0  0  0  0  0  0  0  0  0  0  0
  152.9880  144.0598  160.5009 H   0  0  0  0  0  0  0  0  0  0  0  0
  154.1367  144.0858  159.1866 H   0  0  0  0  0  0  0  0  0  0  0  0
  152.4465  145.8817  158.9340 H   0  0  0  0  0  0  0  0  0  0  0  0
  152.4052  144.7737  157.5862 H   0  0  0  0  0  0  0  0  0  0  0  0
  150.5063  144.7911  159.9761 H   0  0  0  0  0  0  0  0  0  0  0  0
  150.0951  145.2904  158.3650 H   0  0  0  0  0  0  0  0  0  0  0  0
  149.3051  142.9540  158.9671 H   0  0  0  0  0  0  0  0  0  0  0  0
  149.8472  143.5646  156.6758 H   0  0  0  0  0  0  0  0  0  0  0  0
  150.1430  140.7552  157.4616 H   0  0  0  0  0  0  0  0  0  0  0  0
  148.6934  141.5430  156.8600 H   0  0  0  0  0  0  0  0  0  0  0  0
  150.6071  142.0260  154.8362 H   0  0  0  0  0  0  0  0  0  0  0  0
  150.9459  140.3877  155.3416 H   0  0  0  0  0  0  0  0  0  0  0  0
  149.6237  138.5873  154.4702 H   0  0  0  0  0  0  0  0  0  0  0  0
  147.6357  137.8639  153.1235 H   0  0  0  0  0  0  0  0  0  0  0  0
  145.9375  139.5877  152.4681 H   0  0  0  0  0  0  0  0  0  0  0  0
  148.0299  142.6028  154.3640 H   0  0  0  0  0  0  0  0  0  0  0  0
  150.9892  141.1236  159.1118 H   0  0  0  0  0  0  0  0  0  0  0  0
  151.0507  142.2437  160.4436 H   0  0  0  0  0  0  0  0  0  0  0  0
  151.3061  142.8430  156.8634 H   0  0  0  0  0  0  0  0  0  0  0  0
  1  2  1  0  0  0  0
  1 18  1  0  0  0  0
  1 19  1  0  0  0  0
  1 20  1  0  0  0  0
  2  3  1  0  0  0  0
  2 21  1  0  0  0  0
  2 22  1  0  0  0  0
  3 17  1  0  0  0  0
  3  4  1  0  0  0  0
  3 23  1  0  0  0  0
  4  5  1  0  0  0  0
  4 24  1  0  0  0  0
  4 25  1  0  0  0  0
  5  6  1  0  0  0  0
  5 26  1  0  0  0  0
  5 27  1  0  0  0  0
  6  7  1  0  0  0  0
  6 28  1  0  0  0  0
  6 29  1  0  0  0  0
  7  8  1  0  0  0  0
  7 17  1  0  0  0  0
  7 30  1  0  0  0  0
  8  9  1  0  0  0  0
  8 31  1  0  0  0  0
  8 42  1  0  0  0  0
  9 10  1  0  0  0  0
  9 32  1  0  0  0  0
  9 33  1  0  0  0  0
 10 11  1  0  0  0  0
 10 34  1  0  0  0  0
 10 35  1  0  0  0  0
 11 16  1  0  0  0  0
 11 12  2  0  0  0  0
 12 13  1  0  0  0  0
 12 36  1  0  0  0  0
 13 14  2  0  0  0  0
 13 37  1  0  0  0  0
 14 15  1  0  0  0  0
 14 38  1  0  0  0  0
 15 16  2  0  0  0  0
 16 39  1  0  0  0  0
 17 40  1  0  0  0  0
 17 41  1  0  0  0  0
M  CHG  1   8   1
M  END
> <s_m_source_file>
AV-unprocessed.smi

> <i_m_source_file_index>
3126

> <i_lp_mmshare_version>
43012

> <i_f3d_flags>
0

> <s_epik_input>
W0NIM11bQ0gyXVtDQEBIXTFbQ0gyXVtDSDJdW0NIMl1bQ0BIXShbQ0gyXTEpW05IXVtDSDJdW0NIMl1jMltjSF1bY0hdW2NIXW5bY0hdMg==

> <s_epik_cmdline>
J2VwaWtfcHl0aG9uJywgJy1waCcsICc3LjAnLCAnLXRuJywgJzgnLCAnLW1hJywgJzIwMCcsICctbWV0YWxfYmluZGluZycsICctaW1hZScsICc8aW5maWxlLm1hZT4nLCAnLW9tYWUnLCAnPG91dGZpbGUubWFlPic=

> <r_lp_tautomer_probability>
1

> <r_epik_Ionization_Penalty>
0.000947364

> <r_epik_Ionization_Penalty_Charging>
0.000286103

> <r_epik_Ionization_Penalty_Neutral>
0.000661261

> <r_epik_State_Penalty>
-0

> <r_epik_Charging_Adjusted_Penalty>
0.000286103

> <i_epik_Tot_Q>
1

> <i_epik_Tot_abs_Q>
1

> <r_epik_Metal_State_Penalty>
-0

> <b_epik_Metal_Only>
0

> <s_lp_Force_Field>
OPLS_2005

> <r_lp_Energy>
17.7549

> <b_lp_Chiralities_Consistent>
1

> <s_lp_Variant>
AV-unprocessed.smi:3126-1

> <Gold.Version>
5.8.1

> <Gold.Id.Protein>
6NUR|6NUR_protein|mol2

> <Gold.PLP.Fitness>
48.5621

> <Gold.PLP.PLP>
-37.6349

> <Gold.PLP.part.hbond>
-1.0000

> <Gold.PLP.part.metal>
0.0000

> <Gold.PLP.part.buried>
-0.2555

> <Gold.PLP.part.nonpolar>
-35.9422

> <Gold.PLP.part.repulsive>
0.2067

> <Gold.PLP.ligand.clash>
0.0000

> <Gold.PLP.ligand.torsion>
0.5456

> <Gold.PLP.Chemscore.Hbond>
2.0000

> <Gold.PLP.Chemscore.CHOScore>
2.0000

> <Gold.PLP.Chemscore.Metal>
0.0000

> <Gold.Chemscore.Hbonds>
donor molecule, donor type, donor heavy atom, donor atom, acceptor molecule, acceptor atom, score
      L1  H     8    31       P1  8028  2.00
      L1  C    14    38       P1 10175  1.00
      L1  C    16    39       P1  8028  0.84

> <Gold.PLP.Chemscore.Internal.Correction>
0.0183

> <Gold.Rescore>
     Score         DG    S(hbond)    S(metal)    S(lipo)     H(rot)  DE(clash)    DE(int)     intcor
     19.84     -20.47       1.00        0.00     129.16       1.35       0.08       0.55       ----

> <Gold.Chemscore.Fitness>
19.8364

> <Gold.Chemscore.DG>
-20.4676

> <Gold.Chemscore.ZeroCoef>
-5.4800

> <Gold.Chemscore.Hbond>
0.9983

> <Gold.Chemscore.Metal>
0.0000

> <Gold.Chemscore.Lipo>
129.1553

> <Gold.Chemscore.Internal_Hbond>
0.0000

> <Gold.Chemscore.DEClash>
0.0773

> <Gold.Chemscore.DEInternal>
0.5539

> <Gold.Chemscore.Rot>
1.3507

> <Gold.Chemscore.Internal.Correction>
   9.000000E+99

> <Gold.Chemscore.Hbonds>
donor molecule, donor type, donor heavy atom, donor atom, acceptor molecule, acceptor atom, score
      L1  H     8    31       P1  8028  1.00

> <Gold.Chemscore.Hbond.Weighted>
-3.3343

> <Gold.Chemscore.Metal.Weighted>
-0.0000

> <Gold.Chemscore.Lipo.Weighted>
-15.1112

> <Gold.Chemscore.Internal_Hbond.Weighted>
0.0000

> <Gold.Chemscore.DEClash.Weighted>
0.0773

> <Gold.Chemscore.DEInternal.Weighted>
0.5539

> <Gold.Chemscore.Rot.Weighted>
3.4579

> <Gold.Chemscore.Internal.Correction.Weighted>
   9.000000E+99

> <Gold.Protein.RotatedTorsions>
[ 6907 6896 6895 6894 ] final  -52.38 input  -60.11 | X-H torsion
[ 7974 7965 7964 7962 ] final  116.19 input  175.53 | X-H torsion
[ 8008 7997 7996 7995 ] final  -35.67 input   59.86 | X-H torsion
[ 10167 10162 10161 10158 ] final   69.60 input  -65.29 | X-H torsion
[ 10718 10713 10712 10709 ] final  137.07 input   66.30 | X-H torsion
[ 10763 10752 10751 10750 ] final -114.42 input  -60.55 | X-H torsion
[ 11005 11000 10999 10996 ] final    2.80 input  -57.11 | X-H torsion

> <Gold.Protein.ActiveResidues>
 VAL166  LYS551  ARG553  GLY616  TRP617  ASP618  TYR619  PRO620  LYS621  CYS622 
 ASP623  PHE694  ASN695  SER759  ASP760  ASP761  ALA762  ILE779  LEU786  VAL792 
 PHE793  MET794  SER795  GLU796  ALA797  LYS798  CYS799  TRP800  GLU811  SER814 

> <Gold.Protein.RotatedAtoms>
  150.8523  134.7851  159.7018 H   0  0  0  0  0  0  0  0  0  0  0  0  # atno 6907 bound_to 6896
  152.4584  134.5236  159.9799 H   0  0  0  0  0  0  0  0  0  0  0  0  # atno 6908 bound_to 6896
  151.5354  133.3403  159.2961 H   0  0  0  0  0  0  0  0  0  0  0  0  # atno 6909 bound_to 6896
  145.1827  139.3041  143.4409 H   0  0  0  0  0  0  0  0  0  0  0  0  # atno 7974 bound_to 7965
  154.4090  140.1651  156.2249 H   0  0  0  0  0  0  0  0  0  0  0  0  # atno 8008 bound_to 7997
  155.9332  140.3413  155.6243 H   0  0  0  0  0  0  0  0  0  0  0  0  # atno 8009 bound_to 7997
  155.7081  140.0753  157.2373 H   0  0  0  0  0  0  0  0  0  0  0  0  # atno 8010 bound_to 7997
  140.0661  144.5192  150.7260 H   0  0  0  0  0  0  0  0  0  0  0  0  # atno 10167 bound_to 10162
  157.4400  131.1056  151.0154 H   0  0  0  0  0  0  0  0  0  0  0  0  # atno 10718 bound_to 10713
  154.8439  135.4418  154.1503 H   0  0  0  0  0  0  0  0  0  0  0  0  # atno 10763 bound_to 10752
  153.2665  135.6941  153.7530 H   0  0  0  0  0  0  0  0  0  0  0  0  # atno 10764 bound_to 10752
  153.6787  135.3406  155.3148 H   0  0  0  0  0  0  0  0  0  0  0  0  # atno 10765 bound_to 10752
  140.6002  133.9843  155.8128 H   0  0  0  0  0  0  0  0  0  0  0  0  # atno 11005 bound_to 11000
  146.3450  140.2012  142.8589 LP  0  0  0  0  0  0  0  0  0  0  0  0  # atno 17320 bound_to 7965
  145.0120  140.8722  143.5218 LP  0  0  0  0  0  0  0  0  0  0  0  0  # atno 17321 bound_to 7965
  140.7148  143.2535  151.4467 LP  0  0  0  0  0  0  0  0  0  0  0  0  # atno 17342 bound_to 10162
  139.5864  144.1595  152.2034 LP  0  0  0  0  0  0  0  0  0  0  0  0  # atno 17343 bound_to 10162
  157.1021  130.5986  149.5462 LP  0  0  0  0  0  0  0  0  0  0  0  0  # atno 17370 bound_to 10713
  155.9945  130.5009  150.7422 LP  0  0  0  0  0  0  0  0  0  0  0  0  # atno 17371 bound_to 10713
  141.0877  133.9965  157.3287 LP  0  0  0  0  0  0  0  0  0  0  0  0  # atno 17394 bound_to 11000
  139.9235  135.0201  156.8152 LP  0  0  0  0  0  0  0  0  0  0  0  0  # atno 17395 bound_to 11000

$$$$
