AV-unprocessed.smi:1613|AV-procd|sdf|6478|dock1
  -GOLD-   22720 7143D 1   1.00000     0.00000
 Structure written by MMmdl.
 53 55  0  0  0  0  0  0  0  0  2 V2000
  147.7436  140.8213  155.6583 O   0  0  0  0  0  0  0  0  0  0  0  0
  148.5655  140.7749  154.7421 C   0  0  0  0  0  0  0  0  0  0  0  0
  149.8081  141.6766  154.7516 C   0  0  0  0  0  0  0  0  0  0  0  0
  150.6211  141.5311  155.9699 N   0  0  0  0  0  0  0  0  0  0  0  0
  150.4056  142.4522  157.0086 C   0  0  0  0  0  0  0  0  0  0  0  0
  151.1031  142.3768  158.1511 C   0  0  0  0  0  0  0  0  0  0  0  0
  152.0878  141.2912  158.2441 C   0  0  0  0  0  0  0  0  0  0  0  0
  152.2848  140.4482  157.3003 N   0  0  0  0  0  0  0  0  0  0  0  0
  151.5478  140.5267  156.1034 C   0  0  0  0  0  0  0  0  0  0  0  0
  151.7257  139.7150  155.1947 O   0  0  0  0  0  0  0  0  0  0  0  0
  148.4360  139.9621  153.6828 N   0  0  0  0  0  0  0  0  0  0  0  0
  147.3387  139.0220  153.4772 C   0  0  2  0  0  0  0  0  0  0  0  0
  147.5510  137.7416  154.3033 C   0  0  0  0  0  0  0  0  0  0  0  0
  146.4444  136.7130  154.0217 C   0  0  0  0  0  0  0  0  0  0  0  0
  146.3580  136.3844  152.5743 N   0  3  1  0  0  0  0  0  0  0  0  0
  145.3748  135.2981  152.3181 C   0  0  0  0  0  0  0  0  0  0  0  0
  145.9956  133.8796  152.3354 C   0  0  0  0  0  0  0  0  0  0  0  0
  145.0084  132.8093  151.8158 C   0  0  0  0  0  0  0  0  0  0  0  0
  145.6389  131.4076  151.8200 C   0  0  0  0  0  0  0  0  0  0  0  0
  146.1339  131.0267  153.2230 C   0  0  0  0  0  0  0  0  0  0  0  0
  147.1009  132.0852  153.7744 C   0  0  0  0  0  0  0  0  0  0  0  0
  146.4687  133.4870  153.7519 C   0  0  0  0  0  0  0  0  0  0  0  0
  146.1359  137.6032  151.7504 C   0  0  0  0  0  0  0  0  0  0  0  0
  147.2337  138.6537  151.9903 C   0  0  0  0  0  0  0  0  0  0  0  0
  150.4181  141.4662  153.8711 H   0  0  0  0  0  0  0  0  0  0  0  0
  149.4790  142.7097  154.6324 H   0  0  0  0  0  0  0  0  0  0  0  0
  149.6490  143.2001  156.8210 H   0  0  0  0  0  0  0  0  0  0  0  0
  150.9848  143.0483  158.9885 H   0  0  0  0  0  0  0  0  0  0  0  0
  152.6478  141.2480  159.1818 H   0  0  0  0  0  0  0  0  0  0  0  0
  149.1527  139.9942  152.9721 H   0  0  0  0  0  0  0  0  0  0  0  0
  146.4019  139.4940  153.7805 H   0  0  0  0  0  0  0  0  0  0  0  0
  148.5227  137.3037  154.0698 H   0  0  0  0  0  0  0  0  0  0  0  0
  147.5659  137.9767  155.3683 H   0  0  0  0  0  0  0  0  0  0  0  0
  146.6482  135.8078  154.5952 H   0  0  0  0  0  0  0  0  0  0  0  0
  145.4821  137.0955  154.3659 H   0  0  0  0  0  0  0  0  0  0  0  0
  144.6160  135.3557  153.1001 H   0  0  0  0  0  0  0  0  0  0  0  0
  144.8450  135.4862  151.3827 H   0  0  0  0  0  0  0  0  0  0  0  0
  146.8800  133.8761  151.6961 H   0  0  0  0  0  0  0  0  0  0  0  0
  144.1136  132.8012  152.4398 H   0  0  0  0  0  0  0  0  0  0  0  0
  144.6690  133.0464  150.8085 H   0  0  0  0  0  0  0  0  0  0  0  0
  144.9134  130.6723  151.4705 H   0  0  0  0  0  0  0  0  0  0  0  0
  146.4719  131.3791  151.1165 H   0  0  0  0  0  0  0  0  0  0  0  0
  145.2815  130.9243  153.8957 H   0  0  0  0  0  0  0  0  0  0  0  0
  146.6241  130.0529  153.1938 H   0  0  0  0  0  0  0  0  0  0  0  0
  147.3928  131.8254  154.7924 H   0  0  0  0  0  0  0  0  0  0  0  0
  148.0171  132.0879  153.1825 H   0  0  0  0  0  0  0  0  0  0  0  0
  147.1959  134.2125  154.1186 H   0  0  0  0  0  0  0  0  0  0  0  0
  145.6269  133.5175  154.4454 H   0  0  0  0  0  0  0  0  0  0  0  0
  146.1406  137.3483  150.6920 H   0  0  0  0  0  0  0  0  0  0  0  0
  145.1544  138.0237  151.9756 H   0  0  0  0  0  0  0  0  0  0  0  0
  147.0241  139.5453  151.3980 H   0  0  0  0  0  0  0  0  0  0  0  0
  148.1894  138.2649  151.6349 H   0  0  0  0  0  0  0  0  0  0  0  0
  147.2620  136.0172  152.3127 H   0  0  0  0  0  0  0  0  0  0  0  0
  1  2  2  0  0  0  0
  2  3  1  0  0  0  0
  2 11  1  0  0  0  0
  3  4  1  0  0  0  0
  3 25  1  0  0  0  0
  3 26  1  0  0  0  0
  4  9  1  0  0  0  0
  4  5  1  0  0  0  0
  5  6  2  0  0  0  0
  5 27  1  0  0  0  0
  6  7  1  0  0  0  0
  6 28  1  0  0  0  0
  7  8  2  0  0  0  0
  7 29  1  0  0  0  0
  8  9  1  0  0  0  0
  9 10  2  0  0  0  0
 11 12  1  0  0  0  0
 11 30  1  0  0  0  0
 12 24  1  0  0  0  0
 12 13  1  0  0  0  0
 12 31  1  0  0  0  0
 13 14  1  0  0  0  0
 13 32  1  0  0  0  0
 13 33  1  0  0  0  0
 14 15  1  0  0  0  0
 14 34  1  0  0  0  0
 14 35  1  0  0  0  0
 15 16  1  0  0  0  0
 15 23  1  0  0  0  0
 15 53  1  0  0  0  0
 16 17  1  0  0  0  0
 16 36  1  0  0  0  0
 16 37  1  0  0  0  0
 17 22  1  0  0  0  0
 17 18  1  0  0  0  0
 17 38  1  0  0  0  0
 18 19  1  0  0  0  0
 18 39  1  0  0  0  0
 18 40  1  0  0  0  0
 19 20  1  0  0  0  0
 19 41  1  0  0  0  0
 19 42  1  0  0  0  0
 20 21  1  0  0  0  0
 20 43  1  0  0  0  0
 20 44  1  0  0  0  0
 21 22  1  0  0  0  0
 21 45  1  0  0  0  0
 21 46  1  0  0  0  0
 22 47  1  0  0  0  0
 22 48  1  0  0  0  0
 23 24  1  0  0  0  0
 23 49  1  0  0  0  0
 23 50  1  0  0  0  0
 24 51  1  0  0  0  0
 24 52  1  0  0  0  0
M  CHG  1  15   1
M  END
> <s_m_source_file>
AV-unprocessed.smi

> <i_m_source_file_index>
1613

> <i_lp_mmshare_version>
43012

> <i_f3d_flags>
0

> <s_epik_input>
Tz1jMW5bY0hdW2NIXVtjSF1uMVtDSDJdQyg9TylbTkhdW0NIXTJbQ0gyXVtDSDJdTihbQ0gyXVtDSDJdMilbQ0gyXVtDSF0zW0NIMl1bQ0gyXVtDSDJdW0NIMl1bQ0gyXTM=

> <s_epik_cmdline>
J2VwaWtfcHl0aG9uJywgJy1waCcsICc3LjAnLCAnLXRuJywgJzgnLCAnLW1hJywgJzIwMCcsICctbWV0YWxfYmluZGluZycsICctaW1hZScsICc8aW5maWxlLm1hZT4nLCAnLW9tYWUnLCAnPG91dGZpbGUubWFlPic=

> <r_lp_tautomer_probability>
1

> <r_epik_Ionization_Penalty>
0.00530026

> <r_epik_Ionization_Penalty_Charging>
0.00529416

> <r_epik_Ionization_Penalty_Neutral>
6.10215e-06

> <r_epik_State_Penalty>
0.00386377

> <r_epik_Charging_Adjusted_Penalty>
0.00915793

> <i_epik_Tot_Q>
1

> <i_epik_Tot_abs_Q>
1

> <r_epik_Metal_State_Penalty>
-0

> <b_epik_Metal_Only>
0

> <s_lp_Force_Field>
OPLS_2005

> <r_lp_Energy>
30.7073

> <b_lp_Chiralities_Consistent>
1

> <s_lp_Variant>
AV-unprocessed.smi:1613-1

> <Gold.Version>
5.8.1

> <Gold.Id.Protein>
6NUR|6NUR_protein|mol2

> <Gold.PLP.Fitness>
56.2185

> <Gold.PLP.PLP>
-40.4044

> <Gold.PLP.part.hbond>
-4.0000

> <Gold.PLP.part.metal>
0.0000

> <Gold.PLP.part.buried>
3.0141

> <Gold.PLP.part.nonpolar>
-39.0964

> <Gold.PLP.part.repulsive>
0.2066

> <Gold.PLP.ligand.clash>
0.0000

> <Gold.PLP.ligand.torsion>
1.1547

> <Gold.PLP.Chemscore.Hbond>
4.9753

> <Gold.PLP.Chemscore.CHOScore>
1.0000

> <Gold.PLP.Chemscore.Metal>
0.0000

> <Gold.Chemscore.Hbonds>
donor molecule, donor type, donor heavy atom, donor atom, acceptor molecule, acceptor atom, score
      L1  H    11    30       P1  7957  0.98
      L1  H    15    53       P1  7948  2.00
      P1  H  7989  7998       L1    10  0.96
      P1  H  7997  8008       L1     8  0.45
      L1  C     5    27       P1  8028  1.00

> <Gold.PLP.Chemscore.Internal.Correction>
0.1977

> <Gold.Rescore>
     Score         DG    S(hbond)    S(metal)    S(lipo)     H(rot)  DE(clash)    DE(int)     intcor
     19.75     -23.21       3.43        0.00      93.89       1.84       1.32       2.14       ----

> <Gold.Chemscore.Fitness>
19.7539

> <Gold.Chemscore.DG>
-23.2123

> <Gold.Chemscore.ZeroCoef>
-5.4800

> <Gold.Chemscore.Hbond>
3.4318

> <Gold.Chemscore.Metal>
0.0000

> <Gold.Chemscore.Lipo>
93.8865

> <Gold.Chemscore.Internal_Hbond>
0.0000

> <Gold.Chemscore.DEClash>
1.3226

> <Gold.Chemscore.DEInternal>
2.1358

> <Gold.Chemscore.Rot>
1.8417

> <Gold.Chemscore.Internal.Correction>
   9.000000E+99

> <Gold.Chemscore.Hbonds>
donor molecule, donor type, donor heavy atom, donor atom, acceptor molecule, acceptor atom, score
      L1  H    11    30       P1  7957  0.93
      L1  H    15    53       P1  7948  0.96
      P1  H  7989  7998       L1    10  0.39
      P1  H  7997  8008       L1     8  0.13

> <Gold.Chemscore.Hbond.Weighted>
-11.4622

> <Gold.Chemscore.Metal.Weighted>
-0.0000

> <Gold.Chemscore.Lipo.Weighted>
-10.9847

> <Gold.Chemscore.Internal_Hbond.Weighted>
0.0000

> <Gold.Chemscore.DEClash.Weighted>
1.3226

> <Gold.Chemscore.DEInternal.Weighted>
2.1358

> <Gold.Chemscore.Rot.Weighted>
4.7147

> <Gold.Chemscore.Internal.Correction.Weighted>
   9.000000E+99

> <Gold.Protein.RotatedTorsions>
[ 6907 6896 6895 6894 ] final  118.62 input  -60.11 | X-H torsion
[ 7974 7965 7964 7962 ] final -133.68 input  175.53 | X-H torsion
[ 8008 7997 7996 7995 ] final  -52.07 input   59.86 | X-H torsion
[ 10167 10162 10161 10158 ] final  125.21 input  -65.29 | X-H torsion
[ 10718 10713 10712 10709 ] final  -66.34 input   66.30 | X-H torsion
[ 10763 10752 10751 10750 ] final  -40.90 input  -60.55 | X-H torsion
[ 11005 11000 10999 10996 ] final -139.96 input  -57.11 | X-H torsion

> <Gold.Protein.ActiveResidues>
 VAL166  LYS551  ARG553  GLY616  TRP617  ASP618  TYR619  PRO620  LYS621  CYS622 
 ASP623  PHE694  ASN695  SER759  ASP760  ASP761  ALA762  ILE779  LEU786  VAL792 
 PHE793  MET794  SER795  GLU796  ALA797  LYS798  CYS799  TRP800  GLU811  SER814 

> <Gold.Protein.RotatedAtoms>
  152.4530  133.7667  159.6775 H   0  0  0  0  0  0  0  0  0  0  0  0  # atno 6907 bound_to 6896
  150.8447  133.7869  159.3053 H   0  0  0  0  0  0  0  0  0  0  0  0  # atno 6908 bound_to 6896
  151.5483  135.1070  159.9995 H   0  0  0  0  0  0  0  0  0  0  0  0  # atno 6909 bound_to 6896
  144.9171  140.6968  143.4988 H   0  0  0  0  0  0  0  0  0  0  0  0  # atno 7974 bound_to 7965
  154.4097  140.1233  156.4931 H   0  0  0  0  0  0  0  0  0  0  0  0  # atno 8008 bound_to 7997
  155.6970  140.3495  155.4898 H   0  0  0  0  0  0  0  0  0  0  0  0  # atno 8009 bound_to 7997
  155.9418  140.1088  157.1039 H   0  0  0  0  0  0  0  0  0  0  0  0  # atno 8010 bound_to 7997
  139.5698  144.6932  151.3810 H   0  0  0  0  0  0  0  0  0  0  0  0  # atno 10167 bound_to 10162
  156.0618  130.4260  150.1695 H   0  0  0  0  0  0  0  0  0  0  0  0  # atno 10718 bound_to 10713
  153.9536  135.6747  153.4744 H   0  0  0  0  0  0  0  0  0  0  0  0  # atno 10763 bound_to 10752
  153.0872  135.4893  154.8617 H   0  0  0  0  0  0  0  0  0  0  0  0  # atno 10764 bound_to 10752
  154.7311  135.3138  154.8848 H   0  0  0  0  0  0  0  0  0  0  0  0  # atno 10765 bound_to 10752
  140.8469  134.2334  157.4781 H   0  0  0  0  0  0  0  0  0  0  0  0  # atno 11005 bound_to 11000
  145.3357  139.1746  143.4513 LP  0  0  0  0  0  0  0  0  0  0  0  0  # atno 17320 bound_to 7965
  146.3187  140.3392  142.8646 LP  0  0  0  0  0  0  0  0  0  0  0  0  # atno 17321 bound_to 7965
  140.6982  143.7696  150.7360 LP  0  0  0  0  0  0  0  0  0  0  0  0  # atno 17342 bound_to 10162
  140.1199  143.4621  152.2319 LP  0  0  0  0  0  0  0  0  0  0  0  0  # atno 17343 bound_to 10162
  156.9762  130.9850  151.3448 LP  0  0  0  0  0  0  0  0  0  0  0  0  # atno 17370 bound_to 10713
  157.5632  130.8260  149.8293 LP  0  0  0  0  0  0  0  0  0  0  0  0  # atno 17371 bound_to 10713
  139.8703  134.9663  156.4560 LP  0  0  0  0  0  0  0  0  0  0  0  0  # atno 17394 bound_to 11000
  140.8834  133.7901  155.9491 LP  0  0  0  0  0  0  0  0  0  0  0  0  # atno 17395 bound_to 11000

$$$$
