AV-unprocessed.smi:1579|AV-procd|sdf|6354|dock5
  -GOLD-   22720 6573D 1   1.00000     0.00000
 Structure written by MMmdl.
 47 48  0  0  0  0  0  0  0  0  2 V2000
  150.6767  144.3752  160.3843 C   0  0  0  0  0  0  0  0  0  0  0  0
  151.4193  143.0912  160.1290 C   0  0  0  0  0  0  0  0  0  0  0  0
  151.2311  142.5305  158.9796 N   0  0  0  0  0  0  0  0  0  0  0  0
  151.8609  141.3483  158.6427 N   0  0  0  0  0  0  0  0  0  0  0  0
  151.5168  140.8560  157.3018 C   0  0  0  0  0  0  0  0  0  0  0  0
  150.3818  141.6713  156.6445 C   0  0  2  0  0  0  0  0  0  0  0  0
  150.8214  143.0127  156.5603 O   0  0  0  0  0  0  0  0  0  0  0  0
  149.0564  141.6236  157.4376 C   0  0  0  0  0  0  0  0  0  0  0  0
  147.9650  142.4047  156.8009 N   0  3  2  0  0  0  0  0  0  0  0  0
  146.8016  142.5754  157.7090 C   0  0  0  0  0  0  0  0  0  0  0  0
  145.7388  143.4963  157.0870 C   0  0  0  0  0  0  0  0  0  0  0  0
  145.2733  142.9674  155.7203 C   0  0  1  0  0  0  0  0  0  0  0  0
  144.2299  143.8920  155.0778 C   0  0  0  0  0  0  0  0  0  0  0  0
  146.4988  142.7702  154.8127 C   0  0  0  0  0  0  0  0  0  0  0  0
  147.5476  141.8639  155.4792 C   0  0  0  0  0  0  0  0  0  0  0  0
  152.7288  140.6747  159.4512 C   0  0  0  0  0  0  0  0  0  0  0  0
  153.2914  139.6361  159.1019 O   0  0  0  0  0  0  0  0  0  0  0  0
  152.9342  141.3125  160.7534 C   0  0  0  0  0  0  0  0  0  0  0  0
  153.8301  140.6337  161.6331 C   0  0  0  0  0  0  0  0  0  0  0  0
  154.5480  140.0665  162.3420 N   0  0  0  0  0  0  0  0  0  0  0  0
  152.3175  142.4707  161.0972 C   0  0  0  0  0  0  0  0  0  0  0  0
  152.4994  143.1733  162.4355 C   0  0  0  0  0  0  0  0  0  0  0  0
  150.0492  144.2904  161.2717 H   0  0  0  0  0  0  0  0  0  0  0  0
  150.0289  144.6446  159.5486 H   0  0  0  0  0  0  0  0  0  0  0  0
  151.3727  145.1998  160.5391 H   0  0  0  0  0  0  0  0  0  0  0  0
  152.3883  140.8258  156.6453 H   0  0  0  0  0  0  0  0  0  0  0  0
  151.2039  139.8141  157.3959 H   0  0  0  0  0  0  0  0  0  0  0  0
  150.2399  141.3071  155.6277 H   0  0  0  0  0  0  0  0  0  0  0  0
  150.2654  143.4823  155.9579 H   0  0  0  0  0  0  0  0  0  0  0  0
  148.7115  140.5971  157.5620 H   0  0  0  0  0  0  0  0  0  0  0  0
  149.2459  142.0023  158.4433 H   0  0  0  0  0  0  0  0  0  0  0  0
  146.3692  141.5998  157.9372 H   0  0  0  0  0  0  0  0  0  0  0  0
  147.1329  143.0048  158.6554 H   0  0  0  0  0  0  0  0  0  0  0  0
  144.8880  143.5830  157.7639 H   0  0  0  0  0  0  0  0  0  0  0  0
  146.1484  144.5015  156.9763 H   0  0  0  0  0  0  0  0  0  0  0  0
  144.8039  141.9944  155.8733 H   0  0  0  0  0  0  0  0  0  0  0  0
  144.6381  144.8867  154.8949 H   0  0  0  0  0  0  0  0  0  0  0  0
  143.3565  144.0039  155.7210 H   0  0  0  0  0  0  0  0  0  0  0  0
  143.8859  143.4924  154.1234 H   0  0  0  0  0  0  0  0  0  0  0  0
  146.1919  142.3359  153.8604 H   0  0  0  0  0  0  0  0  0  0  0  0
  146.9481  143.7368  154.5798 H   0  0  0  0  0  0  0  0  0  0  0  0
  148.4057  141.7754  154.8144 H   0  0  0  0  0  0  0  0  0  0  0  0
  147.1448  140.8577  155.6068 H   0  0  0  0  0  0  0  0  0  0  0  0
  153.2418  142.6808  163.0629 H   0  0  0  0  0  0  0  0  0  0  0  0
  151.5597  143.1878  162.9885 H   0  0  0  0  0  0  0  0  0  0  0  0
  152.8295  144.2022  162.2901 H   0  0  0  0  0  0  0  0  0  0  0  0
  148.3326  143.3315  156.6415 H   0  0  0  0  0  0  0  0  0  0  0  0
  1  2  1  0  0  0  0
  1 23  1  0  0  0  0
  1 24  1  0  0  0  0
  1 25  1  0  0  0  0
  2 21  1  0  0  0  0
  2  3  2  0  0  0  0
  3  4  1  0  0  0  0
  4  5  1  0  0  0  0
  4 16  1  0  0  0  0
  5  6  1  0  0  0  0
  5 26  1  0  0  0  0
  5 27  1  0  0  0  0
  6  7  1  0  0  0  0
  6  8  1  0  0  0  0
  6 28  1  0  0  0  0
  7 29  1  0  0  0  0
  8  9  1  0  0  0  0
  8 30  1  0  0  0  0
  8 31  1  0  0  0  0
  9 15  1  0  0  0  0
  9 10  1  0  0  0  0
  9 47  1  0  0  0  0
 10 11  1  0  0  0  0
 10 32  1  0  0  0  0
 10 33  1  0  0  0  0
 11 12  1  0  0  0  0
 11 34  1  0  0  0  0
 11 35  1  0  0  0  0
 12 13  1  0  0  0  0
 12 14  1  0  0  0  0
 12 36  1  0  0  0  0
 13 37  1  0  0  0  0
 13 38  1  0  0  0  0
 13 39  1  0  0  0  0
 14 15  1  0  0  0  0
 14 40  1  0  0  0  0
 14 41  1  0  0  0  0
 15 42  1  0  0  0  0
 15 43  1  0  0  0  0
 16 17  2  0  0  0  0
 16 18  1  0  0  0  0
 18 19  1  0  0  0  0
 18 21  2  0  0  0  0
 19 20  3  0  0  0  0
 21 22  1  0  0  0  0
 22 44  1  0  0  0  0
 22 45  1  0  0  0  0
 22 46  1  0  0  0  0
M  CHG  1   9   1
M  END
> <s_m_source_file>
AV-unprocessed.smi

> <i_m_source_file_index>
1579

> <i_lp_mmshare_version>
43012

> <i_f3d_flags>
0

> <s_epik_input>
TiNDYyhjMVtDSDNdKWMoPU8pbihuYzFbQ0gzXSlbQ0gyXVtDQEhdKFtPSF0pW0NIMl1OMltDSDJdW0NIMl1bQ0hdKFtDSDNdKVtDSDJdW0NIMl0y

> <s_epik_cmdline>
J2VwaWtfcHl0aG9uJywgJy1waCcsICc3LjAnLCAnLXRuJywgJzgnLCAnLW1hJywgJzIwMCcsICctbWV0YWxfYmluZGluZycsICctaW1hZScsICc8aW5maWxlLm1hZT4nLCAnLW9tYWUnLCAnPG91dGZpbGUubWFlPic=

> <r_epik_Ionization_Penalty>
0.00136816

> <r_epik_Ionization_Penalty_Charging>
0.00136813

> <r_epik_Ionization_Penalty_Neutral>
3.19884e-08

> <r_epik_State_Penalty>
0.000910892

> <r_epik_Charging_Adjusted_Penalty>
0.00227902

> <i_epik_Tot_Q>
1

> <i_epik_Tot_abs_Q>
1

> <r_epik_Metal_State_Penalty>
-0

> <b_epik_Metal_Only>
0

> <s_lp_Force_Field>
OPLS_2005

> <r_lp_Energy>
36.6054

> <b_lp_Chiralities_Consistent>
1

> <s_lp_Variant>
AV-unprocessed.smi:1579-1

> <Gold.Version>
5.8.1

> <Gold.Id.Protein>
6NUR|6NUR_protein|mol2

> <Gold.PLP.Fitness>
55.8546

> <Gold.PLP.PLP>
-44.1157

> <Gold.PLP.part.hbond>
-4.0000

> <Gold.PLP.part.metal>
0.0000

> <Gold.PLP.part.buried>
-6.4228

> <Gold.PLP.part.nonpolar>
-33.1257

> <Gold.PLP.part.repulsive>
0.0305

> <Gold.PLP.ligand.clash>
0.0000

> <Gold.PLP.ligand.torsion>
0.0961

> <Gold.PLP.Chemscore.Hbond>
3.9600

> <Gold.PLP.Chemscore.CHOScore>
0.0000

> <Gold.PLP.Chemscore.Metal>
0.0000

> <Gold.Chemscore.Hbonds>
donor molecule, donor type, donor heavy atom, donor atom, acceptor molecule, acceptor atom, score
      L1  H     7    29       P1  8028  0.99
      L1  H     9    47       P1  8028  2.00

> <Gold.PLP.Chemscore.Internal.Correction>
0.0511

> <Gold.Rescore>
     Score         DG    S(hbond)    S(metal)    S(lipo)     H(rot)  DE(clash)    DE(int)     intcor
     16.84     -20.52       2.86        0.00      94.52       2.17       1.83       1.86       ----

> <Gold.Chemscore.Fitness>
16.8398

> <Gold.Chemscore.DG>
-20.5217

> <Gold.Chemscore.ZeroCoef>
-5.4800

> <Gold.Chemscore.Hbond>
2.8568

> <Gold.Chemscore.Metal>
0.0000

> <Gold.Chemscore.Lipo>
94.5215

> <Gold.Chemscore.Internal_Hbond>
0.0000

> <Gold.Chemscore.DEClash>
1.8261

> <Gold.Chemscore.DEInternal>
1.8558

> <Gold.Chemscore.Rot>
2.1715

> <Gold.Chemscore.Internal.Correction>
   9.000000E+99

> <Gold.Chemscore.Hbonds>
donor molecule, donor type, donor heavy atom, donor atom, acceptor molecule, acceptor atom, score
      L1  H     7    29       P1  8028  0.94
      L1  H     9    47       P1  8028  0.34
      P1  H  7997  8010       L1    17  0.04

> <Gold.Chemscore.Hbond.Weighted>
-9.5418

> <Gold.Chemscore.Metal.Weighted>
-0.0000

> <Gold.Chemscore.Lipo.Weighted>
-11.0590

> <Gold.Chemscore.Internal_Hbond.Weighted>
0.0000

> <Gold.Chemscore.DEClash.Weighted>
1.8261

> <Gold.Chemscore.DEInternal.Weighted>
1.8558

> <Gold.Chemscore.Rot.Weighted>
5.5591

> <Gold.Chemscore.Internal.Correction.Weighted>
   9.000000E+99

> <Gold.Protein.RotatedTorsions>
[ 6907 6896 6895 6894 ] final  104.07 input  -60.11 | X-H torsion
[ 7974 7965 7964 7962 ] final   44.19 input  175.53 | X-H torsion
[ 8008 7997 7996 7995 ] final   23.52 input   59.86 | X-H torsion
[ 10167 10162 10161 10158 ] final  119.04 input  -65.29 | X-H torsion
[ 10718 10713 10712 10709 ] final   22.98 input   66.30 | X-H torsion
[ 10763 10752 10751 10750 ] final   60.93 input  -60.55 | X-H torsion
[ 11005 11000 10999 10996 ] final  -42.23 input  -57.11 | X-H torsion

> <Gold.Protein.ActiveResidues>
 VAL166  LYS551  ARG553  GLY616  TRP617  ASP618  TYR619  PRO620  LYS621  CYS622 
 ASP623  PHE694  ASN695  SER759  ASP760  ASP761  ALA762  ILE779  LEU786  VAL792 
 PHE793  MET794  SER795  GLU796  ALA797  LYS798  CYS799  TRP800  GLU811  SER814 

> <Gold.Protein.RotatedAtoms>
  152.5276  133.9732  159.7771 H   0  0  0  0  0  0  0  0  0  0  0  0  # atno 6907 bound_to 6896
  150.9999  133.6058  159.2703 H   0  0  0  0  0  0  0  0  0  0  0  0  # atno 6908 bound_to 6896
  151.3170  135.0815  159.9346 H   0  0  0  0  0  0  0  0  0  0  0  0  # atno 6909 bound_to 6896
  146.0590  139.5102  142.9670 H   0  0  0  0  0  0  0  0  0  0  0  0  # atno 7974 bound_to 7965
  154.9823  140.3103  155.4941 H   0  0  0  0  0  0  0  0  0  0  0  0  # atno 8008 bound_to 7997
  156.2951  140.2264  156.4862 H   0  0  0  0  0  0  0  0  0  0  0  0  # atno 8009 bound_to 7997
  154.7778  140.0448  157.1091 H   0  0  0  0  0  0  0  0  0  0  0  0  # atno 8010 bound_to 7997
  139.6072  144.7073  151.2926 H   0  0  0  0  0  0  0  0  0  0  0  0  # atno 10167 bound_to 10162
  157.1598  130.6712  149.6040 H   0  0  0  0  0  0  0  0  0  0  0  0  # atno 10718 bound_to 10713
  152.9935  135.5518  154.5953 H   0  0  0  0  0  0  0  0  0  0  0  0  # atno 10763 bound_to 10752
  154.5306  135.2813  155.1185 H   0  0  0  0  0  0  0  0  0  0  0  0  # atno 10764 bound_to 10752
  154.2502  135.6400  153.5290 H   0  0  0  0  0  0  0  0  0  0  0  0  # atno 10765 bound_to 10752
  141.0301  133.6823  156.2567 H   0  0  0  0  0  0  0  0  0  0  0  0  # atno 11005 bound_to 11000
  145.6593  141.0244  143.1717 LP  0  0  0  0  0  0  0  0  0  0  0  0  # atno 17320 bound_to 7965
  144.7164  139.8182  143.7397 LP  0  0  0  0  0  0  0  0  0  0  0  0  # atno 17321 bound_to 7965
  140.7293  143.6911  150.7921 LP  0  0  0  0  0  0  0  0  0  0  0  0  # atno 17342 bound_to 10162
  140.0499  143.5260  152.2679 LP  0  0  0  0  0  0  0  0  0  0  0  0  # atno 17343 bound_to 10162
  155.9756  130.4715  150.6469 LP  0  0  0  0  0  0  0  0  0  0  0  0  # atno 17370 bound_to 10713
  157.4143  131.0828  151.1191 LP  0  0  0  0  0  0  0  0  0  0  0  0  # atno 17371 bound_to 10713
  140.6421  134.5155  157.5570 LP  0  0  0  0  0  0  0  0  0  0  0  0  # atno 17394 bound_to 11000
  139.9202  134.8164  156.1235 LP  0  0  0  0  0  0  0  0  0  0  0  0  # atno 17395 bound_to 11000

$$$$
