AV-unprocessed.smi:2126|AV-procd|sdf|8677|dock6
  -GOLD-   2272011433D 1   1.00000     0.00000
 Structure written by MMmdl.
 41 43  0  0  0  0  0  0  0  0  2 V2000
  153.9576  144.1119  164.3320 C   0  0  0  0  0  0  0  0  0  0  0  0
  154.0581  142.7231  164.0536 O   0  0  0  0  0  0  0  0  0  0  0  0
  153.7085  142.2874  162.7936 C   0  0  0  0  0  0  0  0  0  0  0  0
  152.7477  142.9216  161.9684 C   0  0  0  0  0  0  0  0  0  0  0  0
  152.4535  142.4048  160.6919 C   0  0  0  0  0  0  0  0  0  0  0  0
  153.1043  141.2528  160.2080 C   0  0  0  0  0  0  0  0  0  0  0  0
  152.7550  140.8178  158.9476 O   0  0  0  0  0  0  0  0  0  0  0  0
  151.4635  141.1492  158.4544 C   0  0  0  0  0  0  0  0  0  0  0  0
  151.1942  140.3399  157.1771 C   0  0  2  0  0  0  0  0  0  0  0  0
  152.3999  140.2446  156.4447 O   0  0  0  0  0  0  0  0  0  0  0  0
  150.0916  140.9697  156.3023 C   0  0  0  0  0  0  0  0  0  0  0  0
  149.6646  140.0904  155.2044 N   0  0  0  0  0  0  0  0  0  0  0  0
  150.1431  138.8715  154.8350 C   0  0  0  0  0  0  0  0  0  0  0  0
  149.4224  138.4552  153.7571 N   0  3  0  0  0  0  0  0  0  0  0  0
  148.4688  139.4220  153.4322 C   0  0  0  0  0  0  0  0  0  0  0  0
  147.5108  139.4528  152.4235 C   0  0  0  0  0  0  0  0  0  0  0  0
  146.6881  140.5969  152.3660 C   0  0  0  0  0  0  0  0  0  0  0  0
  146.8369  141.6551  153.2860 C   0  0  0  0  0  0  0  0  0  0  0  0
  147.8126  141.6139  154.3036 C   0  0  0  0  0  0  0  0  0  0  0  0
  148.6193  140.4773  154.3570 C   0  0  0  0  0  0  0  0  0  0  0  0
  154.0644  140.6184  161.0337 C   0  0  0  0  0  0  0  0  0  0  0  0
  154.3581  141.1346  162.3104 C   0  0  0  0  0  0  0  0  0  0  0  0
  154.2654  144.2947  165.3613 H   0  0  0  0  0  0  0  0  0  0  0  0
  152.9315  144.4667  164.2269 H   0  0  0  0  0  0  0  0  0  0  0  0
  154.6110  144.6968  163.6833 H   0  0  0  0  0  0  0  0  0  0  0  0
  152.2215  143.8070  162.2910 H   0  0  0  0  0  0  0  0  0  0  0  0
  151.7179  142.9008  160.0760 H   0  0  0  0  0  0  0  0  0  0  0  0
  150.6966  140.9370  159.2013 H   0  0  0  0  0  0  0  0  0  0  0  0
  151.4284  142.2160  158.2259 H   0  0  0  0  0  0  0  0  0  0  0  0
  150.9017  139.3264  157.4553 H   0  0  0  0  0  0  0  0  0  0  0  0
  152.2906  140.7041  155.6260 H   0  0  0  0  0  0  0  0  0  0  0  0
  149.2074  141.1724  156.9080 H   0  0  0  0  0  0  0  0  0  0  0  0
  150.4066  141.9309  155.8957 H   0  0  0  0  0  0  0  0  0  0  0  0
  150.9489  138.3319  155.3115 H   0  0  0  0  0  0  0  0  0  0  0  0
  147.3969  138.6449  151.7155 H   0  0  0  0  0  0  0  0  0  0  0  0
  145.9292  140.6651  151.5999 H   0  0  0  0  0  0  0  0  0  0  0  0
  146.1904  142.5174  153.2088 H   0  0  0  0  0  0  0  0  0  0  0  0
  147.9220  142.4335  154.9982 H   0  0  0  0  0  0  0  0  0  0  0  0
  154.5909  139.7327  160.7125 H   0  0  0  0  0  0  0  0  0  0  0  0
  155.0928  140.6380  162.9273 H   0  0  0  0  0  0  0  0  0  0  0  0
  149.5726  137.5748  153.2810 H   0  0  0  0  0  0  0  0  0  0  0  0
  1  2  1  0  0  0  0
  1 23  1  0  0  0  0
  1 24  1  0  0  0  0
  1 25  1  0  0  0  0
  2  3  1  0  0  0  0
  3 22  1  0  0  0  0
  3  4  2  0  0  0  0
  4  5  1  0  0  0  0
  4 26  1  0  0  0  0
  5  6  2  0  0  0  0
  5 27  1  0  0  0  0
  6  7  1  0  0  0  0
  6 21  1  0  0  0  0
  7  8  1  0  0  0  0
  8  9  1  0  0  0  0
  8 28  1  0  0  0  0
  8 29  1  0  0  0  0
  9 10  1  0  0  0  0
  9 11  1  0  0  0  0
  9 30  1  0  0  0  0
 10 31  1  0  0  0  0
 11 12  1  0  0  0  0
 11 32  1  0  0  0  0
 11 33  1  0  0  0  0
 12 20  1  0  0  0  0
 12 13  1  0  0  0  0
 13 14  2  0  0  0  0
 13 34  1  0  0  0  0
 14 15  1  0  0  0  0
 14 41  1  0  0  0  0
 15 20  2  0  0  0  0
 15 16  1  0  0  0  0
 16 17  2  0  0  0  0
 16 35  1  0  0  0  0
 17 18  1  0  0  0  0
 17 36  1  0  0  0  0
 18 19  2  0  0  0  0
 18 37  1  0  0  0  0
 19 20  1  0  0  0  0
 19 38  1  0  0  0  0
 21 22  2  0  0  0  0
 21 39  1  0  0  0  0
 22 40  1  0  0  0  0
M  CHG  1  14   1
M  END
> <s_m_source_file>
AV-unprocessed.smi

> <i_m_source_file_index>
2126

> <i_lp_mmshare_version>
43012

> <i_f3d_flags>
0

> <s_epik_input>
W0NIM11PYzFbY0hdW2NIXWMoW2NIXVtjSF0xKU9bQ0gyXVtDQEhdKFtPSF0pW0NIMl1uKFtjSF1uMiljKGMyMylbY0hdW2NIXVtjSF1bY0hdMw==

> <s_epik_cmdline>
J2VwaWtfcHl0aG9uJywgJy1waCcsICc3LjAnLCAnLXRuJywgJzgnLCAnLW1hJywgJzIwMCcsICctbWV0YWxfYmluZGluZycsICctaW1hZScsICc8aW5maWxlLm1hZT4nLCAnLW9tYWUnLCAnPG91dGZpbGUubWFlPic=

> <r_lp_tautomer_probability>
1

> <r_epik_Ionization_Penalty>
1.37822

> <r_epik_Ionization_Penalty_Charging>
1.37822

> <r_epik_Ionization_Penalty_Neutral>
2.3993e-06

> <r_epik_State_Penalty>
1.45852

> <r_epik_Charging_Adjusted_Penalty>
2.83674

> <i_epik_Tot_Q>
1

> <i_epik_Tot_abs_Q>
1

> <r_epik_Metal_State_Penalty>
5.4985

> <b_epik_Metal_Only>
0

> <s_lp_Force_Field>
OPLS_2005

> <r_lp_Energy>
23.2038

> <b_lp_Chiralities_Consistent>
1

> <s_lp_Variant>
AV-unprocessed.smi:2126-3

> <Gold.Version>
5.8.1

> <Gold.Id.Protein>
6NUR|6NUR_protein|mol2

> <Gold.PLP.Fitness>
49.2186

> <Gold.PLP.PLP>
-42.2708

> <Gold.PLP.part.hbond>
-2.6393

> <Gold.PLP.part.metal>
0.0000

> <Gold.PLP.part.buried>
4.0010

> <Gold.PLP.part.nonpolar>
-43.6145

> <Gold.PLP.part.repulsive>
0.0962

> <Gold.PLP.ligand.clash>
0.0000

> <Gold.PLP.ligand.torsion>
1.0365

> <Gold.PLP.Chemscore.Hbond>
2.9840

> <Gold.PLP.Chemscore.CHOScore>
0.0000

> <Gold.PLP.Chemscore.Metal>
0.0000

> <Gold.Chemscore.Hbonds>
donor molecule, donor type, donor heavy atom, donor atom, acceptor molecule, acceptor atom, score
      L1  H    14    41       P1  7948  1.95
      P1  H  7997  8010       L1    10  0.96

> <Gold.PLP.Chemscore.Internal.Correction>
0.0688

> <Gold.Rescore>
     Score         DG    S(hbond)    S(metal)    S(lipo)     H(rot)  DE(clash)    DE(int)     intcor
     15.22     -18.73       1.32        0.00     132.42       2.60       2.47       1.04       ----

> <Gold.Chemscore.Fitness>
15.2201

> <Gold.Chemscore.DG>
-18.7309

> <Gold.Chemscore.ZeroCoef>
-5.4800

> <Gold.Chemscore.Hbond>
1.3247

> <Gold.Chemscore.Metal>
0.0000

> <Gold.Chemscore.Lipo>
132.4220

> <Gold.Chemscore.Internal_Hbond>
0.0000

> <Gold.Chemscore.DEClash>
2.4733

> <Gold.Chemscore.DEInternal>
1.0375

> <Gold.Chemscore.Rot>
2.6043

> <Gold.Chemscore.Internal.Correction>
   9.000000E+99

> <Gold.Chemscore.Hbonds>
donor molecule, donor type, donor heavy atom, donor atom, acceptor molecule, acceptor atom, score
      L1  H    14    41       P1  7948  0.75
      P1  H  7997  8010       L1    10  0.31

> <Gold.Chemscore.Hbond.Weighted>
-4.4245

> <Gold.Chemscore.Metal.Weighted>
-0.0000

> <Gold.Chemscore.Lipo.Weighted>
-15.4934

> <Gold.Chemscore.Internal_Hbond.Weighted>
0.0000

> <Gold.Chemscore.DEClash.Weighted>
2.4733

> <Gold.Chemscore.DEInternal.Weighted>
1.0375

> <Gold.Chemscore.Rot.Weighted>
6.6670

> <Gold.Chemscore.Internal.Correction.Weighted>
   9.000000E+99

> <Gold.Protein.RotatedTorsions>
[ 6907 6896 6895 6894 ] final   56.41 input  -60.11 | X-H torsion
[ 7974 7965 7964 7962 ] final  120.30 input  175.53 | X-H torsion
[ 8008 7997 7996 7995 ] final   62.13 input   59.86 | X-H torsion
[ 10167 10162 10161 10158 ] final   32.13 input  -65.29 | X-H torsion
[ 10718 10713 10712 10709 ] final  131.87 input   66.30 | X-H torsion
[ 10763 10752 10751 10750 ] final -160.98 input  -60.55 | X-H torsion
[ 11005 11000 10999 10996 ] final  -87.87 input  -57.11 | X-H torsion

> <Gold.Protein.ActiveResidues>
 VAL166  LYS551  ARG553  GLY616  TRP617  ASP618  TYR619  PRO620  LYS621  CYS622 
 ASP623  PHE694  ASN695  SER759  ASP760  ASP761  ALA762  ILE779  LEU786  VAL792 
 PHE793  MET794  SER795  GLU796  ALA797  LYS798  CYS799  TRP800  GLU811  SER814 

> <Gold.Protein.RotatedAtoms>
  152.3634  134.6840  160.0199 H   0  0  0  0  0  0  0  0  0  0  0  0  # atno 6907 bound_to 6896
  151.7156  133.3308  159.3310 H   0  0  0  0  0  0  0  0  0  0  0  0  # atno 6908 bound_to 6896
  150.7621  134.6428  159.6291 H   0  0  0  0  0  0  0  0  0  0  0  0  # atno 6909 bound_to 6896
  145.1329  139.3316  143.4656 H   0  0  0  0  0  0  0  0  0  0  0  0  # atno 7974 bound_to 7965
  155.6094  140.3495  155.4617 H   0  0  0  0  0  0  0  0  0  0  0  0  # atno 8008 bound_to 7997
  156.0166  140.1244  157.0424 H   0  0  0  0  0  0  0  0  0  0  0  0  # atno 8009 bound_to 7997
  154.4300  140.1071  156.5891 H   0  0  0  0  0  0  0  0  0  0  0  0  # atno 8010 bound_to 7997
  140.4526  144.1026  150.6195 H   0  0  0  0  0  0  0  0  0  0  0  0  # atno 10167 bound_to 10162
  157.4926  131.1091  150.9536 H   0  0  0  0  0  0  0  0  0  0  0  0  # atno 10718 bound_to 10713
  154.7343  135.3054  154.8837 H   0  0  0  0  0  0  0  0  0  0  0  0  # atno 10763 bound_to 10752
  153.9671  135.6746  153.4750 H   0  0  0  0  0  0  0  0  0  0  0  0  # atno 10764 bound_to 10752
  153.0948  135.4941  154.8680 H   0  0  0  0  0  0  0  0  0  0  0  0  # atno 10765 bound_to 10752
  141.1610  133.7536  156.9369 H   0  0  0  0  0  0  0  0  0  0  0  0  # atno 11005 bound_to 11000
  146.3512  140.1335  142.8596 LP  0  0  0  0  0  0  0  0  0  0  0  0  # atno 17320 bound_to 7965
  145.0616  140.9092  143.4935 LP  0  0  0  0  0  0  0  0  0  0  0  0  # atno 17321 bound_to 7965
  140.4189  143.2621  151.9740 LP  0  0  0  0  0  0  0  0  0  0  0  0  # atno 17342 bound_to 10162
  139.4798  144.5849  151.7871 LP  0  0  0  0  0  0  0  0  0  0  0  0  # atno 17343 bound_to 10162
  157.0233  130.5682  149.5334 LP  0  0  0  0  0  0  0  0  0  0  0  0  # atno 17370 bound_to 10713
  156.0182  130.5276  150.8197 LP  0  0  0  0  0  0  0  0  0  0  0  0  # atno 17371 bound_to 10713
  140.1348  134.9332  157.2387 LP  0  0  0  0  0  0  0  0  0  0  0  0  # atno 17394 bound_to 11000
  140.2908  134.3242  155.7316 LP  0  0  0  0  0  0  0  0  0  0  0  0  # atno 17395 bound_to 11000

$$$$
