AV-unprocessed.smi:2223|AV-procd|sdf|8989|dock6
  -GOLD-   2272012203D 1   1.00000     0.00000
 Structure written by MMmdl.
 46 47  0  0  0  0  0  0  0  0  1 V2000
  144.7728  132.1252  150.1129 C   0  0  0  0  0  0  0  0  0  0  0  0
  144.5448  133.2161  151.1381 C   0  0  0  0  0  0  0  0  0  0  0  0
  143.2619  133.4479  151.6699 C   0  0  0  0  0  0  0  0  0  0  0  0
  143.1127  134.4745  152.6228 C   0  0  0  0  0  0  0  0  0  0  0  0
  141.7615  134.7767  153.2359 C   0  0  0  0  0  0  0  0  0  0  0  0
  144.1406  135.2396  153.0488 N   0  0  0  0  0  0  0  0  0  0  0  0
  145.3809  135.0247  152.5439 C   0  0  0  0  0  0  0  0  0  0  0  0
  146.5257  135.7760  152.9199 N   0  0  0  0  0  0  0  0  0  0  0  0
  146.6313  136.7021  153.8889 C   0  0  0  0  0  0  0  0  0  0  0  0
  145.7262  137.0469  154.6492 O   0  0  0  0  0  0  0  0  0  0  0  0
  147.8696  137.2137  153.9366 N   0  0  0  0  0  0  0  0  0  0  0  0
  148.3165  138.2344  154.8807 C   0  0  2  0  0  0  0  0  0  0  0  0
  149.2266  139.2647  154.2101 C   0  0  0  0  0  0  0  0  0  0  0  0
  150.4154  139.3669  155.1491 C   0  0  0  0  0  0  0  0  0  0  0  0
  151.3178  140.1804  154.9556 O   0  0  0  0  0  0  0  0  0  0  0  0
  150.3391  138.4801  156.1597 N   0  0  0  0  0  0  0  0  0  0  0  0
  151.3440  138.2647  157.2343 C   0  0  0  0  0  0  0  0  0  0  0  0
  152.6917  137.8473  156.6054 C   0  0  0  0  0  0  0  0  0  0  0  0
  150.9141  137.1454  158.2127 C   0  0  0  0  0  0  0  0  0  0  0  0
  151.5299  139.5589  158.0586 C   0  0  0  0  0  0  0  0  0  0  0  0
  149.1562  137.6313  156.0209 C   0  0  0  0  0  0  0  0  0  0  0  0
  145.6165  134.0163  151.5826 C   0  0  0  0  0  0  0  0  0  0  0  0
  143.8416  131.8555  149.6134 H   0  0  0  0  0  0  0  0  0  0  0  0
  145.1744  131.2341  150.5956 H   0  0  0  0  0  0  0  0  0  0  0  0
  145.4817  132.4540  149.3526 H   0  0  0  0  0  0  0  0  0  0  0  0
  142.4155  132.8544  151.3564 H   0  0  0  0  0  0  0  0  0  0  0  0
  140.9600  134.2838  152.6850 H   0  0  0  0  0  0  0  0  0  0  0  0
  141.5678  135.8499  153.2270 H   0  0  0  0  0  0  0  0  0  0  0  0
  141.7306  134.4302  154.2690 H   0  0  0  0  0  0  0  0  0  0  0  0
  147.3609  135.5887  152.3854 H   0  0  0  0  0  0  0  0  0  0  0  0
  148.5529  136.8734  153.2760 H   0  0  0  0  0  0  0  0  0  0  0  0
  147.4517  138.7543  155.2983 H   0  0  0  0  0  0  0  0  0  0  0  0
  149.5747  138.9385  153.2289 H   0  0  0  0  0  0  0  0  0  0  0  0
  148.7341  140.2312  154.0981 H   0  0  0  0  0  0  0  0  0  0  0  0
  153.4352  137.6304  157.3731 H   0  0  0  0  0  0  0  0  0  0  0  0
  153.1121  138.6267  155.9700 H   0  0  0  0  0  0  0  0  0  0  0  0
  152.5807  136.9498  155.9957 H   0  0  0  0  0  0  0  0  0  0  0  0
  150.7856  136.1868  157.7090 H   0  0  0  0  0  0  0  0  0  0  0  0
  149.9819  137.3884  158.7236 H   0  0  0  0  0  0  0  0  0  0  0  0
  151.6660  136.9934  158.9880 H   0  0  0  0  0  0  0  0  0  0  0  0
  152.2041  139.3959  158.8999 H   0  0  0  0  0  0  0  0  0  0  0  0
  150.5796  139.9069  158.4652 H   0  0  0  0  0  0  0  0  0  0  0  0
  151.9554  140.3724  157.4719 H   0  0  0  0  0  0  0  0  0  0  0  0
  148.5679  137.5998  156.9382 H   0  0  0  0  0  0  0  0  0  0  0  0
  149.4752  136.6139  155.7875 H   0  0  0  0  0  0  0  0  0  0  0  0
  146.6099  133.8551  151.1888 H   0  0  0  0  0  0  0  0  0  0  0  0
  1  2  1  0  0  0  0
  1 23  1  0  0  0  0
  1 24  1  0  0  0  0
  1 25  1  0  0  0  0
  2 22  1  0  0  0  0
  2  3  2  0  0  0  0
  3  4  1  0  0  0  0
  3 26  1  0  0  0  0
  4  5  1  0  0  0  0
  4  6  2  0  0  0  0
  5 27  1  0  0  0  0
  5 28  1  0  0  0  0
  5 29  1  0  0  0  0
  6  7  1  0  0  0  0
  7  8  1  0  0  0  0
  7 22  2  0  0  0  0
  8  9  1  0  0  0  0
  8 30  1  0  0  0  0
  9 10  2  0  0  0  0
  9 11  1  0  0  0  0
 11 12  1  0  0  0  0
 11 31  1  0  0  0  0
 12 21  1  0  0  0  0
 12 13  1  0  0  0  0
 12 32  1  0  0  0  0
 13 14  1  0  0  0  0
 13 33  1  0  0  0  0
 13 34  1  0  0  0  0
 14 15  2  0  0  0  0
 14 16  1  0  0  0  0
 16 17  1  0  0  0  0
 16 21  1  0  0  0  0
 17 18  1  0  0  0  0
 17 19  1  0  0  0  0
 17 20  1  0  0  0  0
 18 35  1  0  0  0  0
 18 36  1  0  0  0  0
 18 37  1  0  0  0  0
 19 38  1  0  0  0  0
 19 39  1  0  0  0  0
 19 40  1  0  0  0  0
 20 41  1  0  0  0  0
 20 42  1  0  0  0  0
 20 43  1  0  0  0  0
 21 44  1  0  0  0  0
 21 45  1  0  0  0  0
 22 46  1  0  0  0  0
M  END
> <s_m_source_file>
AV-unprocessed.smi

> <i_m_source_file_index>
2223

> <i_lp_mmshare_version>
43012

> <i_f3d_flags>
0

> <s_epik_input>
W0NIM11jMVtjSF1jKFtDSDNdKW5jKFtjSF0xKVtOSF1DKD1PKVtOSF1bQ0BASF0yW0NIMl1DKD1PKU4oW0NIMl0yKUMoW0NIM10pKFtDSDNdKVtDSDNd

> <s_epik_cmdline>
J2VwaWtfcHl0aG9uJywgJy1waCcsICc3LjAnLCAnLXRuJywgJzgnLCAnLW1hJywgJzIwMCcsICctbWV0YWxfYmluZGluZycsICctaW1hZScsICc8aW5maWxlLm1hZT4nLCAnLW9tYWUnLCAnPG91dGZpbGUubWFlPic=

> <r_lp_tautomer_probability>
1

> <r_epik_Ionization_Penalty>
0.000228403

> <r_epik_Ionization_Penalty_Charging>
0

> <r_epik_Ionization_Penalty_Neutral>
0.000228403

> <r_epik_State_Penalty>
-0

> <r_epik_Charging_Adjusted_Penalty>
0

> <i_epik_Tot_Q>
0

> <i_epik_Tot_abs_Q>
0

> <r_epik_Metal_State_Penalty>
-0

> <b_epik_Metal_Only>
0

> <s_lp_Force_Field>
OPLS_2005

> <r_lp_Energy>
26.8517

> <b_lp_Chiralities_Consistent>
1

> <s_lp_Variant>
AV-unprocessed.smi:2223-1

> <Gold.Version>
5.8.1

> <Gold.Id.Protein>
6NUR|6NUR_protein|mol2

> <Gold.PLP.Fitness>
37.9322

> <Gold.PLP.PLP>
-29.6985

> <Gold.PLP.part.hbond>
-2.9628

> <Gold.PLP.part.metal>
0.0000

> <Gold.PLP.part.buried>
-3.6519

> <Gold.PLP.part.nonpolar>
-22.5581

> <Gold.PLP.part.repulsive>
0.1876

> <Gold.PLP.ligand.clash>
0.0000

> <Gold.PLP.ligand.torsion>
0.2994

> <Gold.PLP.Chemscore.Hbond>
2.9280

> <Gold.PLP.Chemscore.CHOScore>
0.0000

> <Gold.PLP.Chemscore.Metal>
0.0000

> <Gold.Chemscore.Hbonds>
donor molecule, donor type, donor heavy atom, donor atom, acceptor molecule, acceptor atom, score
      L1  H     8    30       P1  7948  0.93
      L1  H    11    31       P1  7948  1.00
      P1  H  7989  7998       L1    15  1.00

> <Gold.PLP.Chemscore.Internal.Correction>
0.0485

> <Gold.Rescore>
     Score         DG    S(hbond)    S(metal)    S(lipo)     H(rot)  DE(clash)    DE(int)     intcor
     18.37     -19.97       2.89        0.00      67.73       1.21       0.06       1.54       ----

> <Gold.Chemscore.Fitness>
18.3708

> <Gold.Chemscore.DG>
-19.9683

> <Gold.Chemscore.ZeroCoef>
-5.4800

> <Gold.Chemscore.Hbond>
2.8893

> <Gold.Chemscore.Metal>
0.0000

> <Gold.Chemscore.Lipo>
67.7285

> <Gold.Chemscore.Internal_Hbond>
0.0000

> <Gold.Chemscore.DEClash>
0.0624

> <Gold.Chemscore.DEInternal>
1.5351

> <Gold.Chemscore.Rot>
1.2055

> <Gold.Chemscore.Internal.Correction>
   9.000000E+99

> <Gold.Chemscore.Hbonds>
donor molecule, donor type, donor heavy atom, donor atom, acceptor molecule, acceptor atom, score
      L1  H     8    30       P1  7948  0.91
      L1  H    11    31       P1  7948  0.96
      P1  H  7989  7998       L1    15  0.98

> <Gold.Chemscore.Hbond.Weighted>
-9.6501

> <Gold.Chemscore.Metal.Weighted>
-0.0000

> <Gold.Chemscore.Lipo.Weighted>
-7.9242

> <Gold.Chemscore.Internal_Hbond.Weighted>
0.0000

> <Gold.Chemscore.DEClash.Weighted>
0.0624

> <Gold.Chemscore.DEInternal.Weighted>
1.5351

> <Gold.Chemscore.Rot.Weighted>
3.0861

> <Gold.Chemscore.Internal.Correction.Weighted>
   9.000000E+99

> <Gold.Protein.RotatedTorsions>
[ 6907 6896 6895 6894 ] final   20.64 input  -60.11 | X-H torsion
[ 7974 7965 7964 7962 ] final    2.55 input  175.53 | X-H torsion
[ 8008 7997 7996 7995 ] final -143.43 input   59.86 | X-H torsion
[ 10167 10162 10161 10158 ] final   35.72 input  -65.29 | X-H torsion
[ 10718 10713 10712 10709 ] final -101.51 input   66.30 | X-H torsion
[ 10763 10752 10751 10750 ] final  158.13 input  -60.55 | X-H torsion
[ 11005 11000 10999 10996 ] final  -92.84 input  -57.11 | X-H torsion

> <Gold.Protein.ActiveResidues>
 VAL166  LYS551  ARG553  GLY616  TRP617  ASP618  TYR619  PRO620  LYS621  CYS622 
 ASP623  PHE694  ASN695  SER759  ASP760  ASP761  ALA762  ILE779  LEU786  VAL792 
 PHE793  MET794  SER795  GLU796  ALA797  LYS798  CYS799  TRP800  GLU811  SER814 

> <Gold.Protein.RotatedAtoms>
  151.8994  135.0384  160.0504 H   0  0  0  0  0  0  0  0  0  0  0  0  # atno 6907 bound_to 6896
  152.2370  133.5100  159.5257 H   0  0  0  0  0  0  0  0  0  0  0  0  # atno 6908 bound_to 6896
  150.7042  134.1056  159.4024 H   0  0  0  0  0  0  0  0  0  0  0  0  # atno 6909 bound_to 6896
  146.2444  140.0819  142.8356 H   0  0  0  0  0  0  0  0  0  0  0  0  # atno 7974 bound_to 7965
  155.5104  140.0583  157.2924 H   0  0  0  0  0  0  0  0  0  0  0  0  # atno 8008 bound_to 7997
  154.4554  140.1970  156.0344 H   0  0  0  0  0  0  0  0  0  0  0  0  # atno 8009 bound_to 7997
  156.0788  140.3250  155.7671 H   0  0  0  0  0  0  0  0  0  0  0  0  # atno 8010 bound_to 7997
  140.4195  144.1479  150.6146 H   0  0  0  0  0  0  0  0  0  0  0  0  # atno 10167 bound_to 10162
  156.0197  130.5377  150.6973 H   0  0  0  0  0  0  0  0  0  0  0  0  # atno 10718 bound_to 10713
  154.2112  135.2786  155.2957 H   0  0  0  0  0  0  0  0  0  0  0  0  # atno 10763 bound_to 10752
  154.5777  135.5599  153.7158 H   0  0  0  0  0  0  0  0  0  0  0  0  # atno 10764 bound_to 10752
  153.0064  135.6337  154.2251 H   0  0  0  0  0  0  0  0  0  0  0  0  # atno 10765 bound_to 10752
  141.1512  133.7848  157.0076 H   0  0  0  0  0  0  0  0  0  0  0  0  # atno 11005 bound_to 11000
  145.0725  140.9165  143.4873 LP  0  0  0  0  0  0  0  0  0  0  0  0  # atno 17320 bound_to 7965
  145.0956  139.2859  143.5712 LP  0  0  0  0  0  0  0  0  0  0  0  0  # atno 17321 bound_to 7965
  140.4549  143.2472  151.9298 LP  0  0  0  0  0  0  0  0  0  0  0  0  # atno 17342 bound_to 10162
  139.4782  144.5526  151.8363 LP  0  0  0  0  0  0  0  0  0  0  0  0  # atno 17343 bound_to 10162
  157.4641  131.0886  151.0714 LP  0  0  0  0  0  0  0  0  0  0  0  0  # atno 17370 bound_to 10713
  157.1193  130.6055  149.5501 LP  0  0  0  0  0  0  0  0  0  0  0  0  # atno 17371 bound_to 10713
  140.0898  134.9599  157.1759 LP  0  0  0  0  0  0  0  0  0  0  0  0  # atno 17394 bound_to 11000
  140.3461  134.2650  155.7205 LP  0  0  0  0  0  0  0  0  0  0  0  0  # atno 17395 bound_to 11000

$$$$
