AV-unprocessed.smi:1172|AV-procd|sdf|4944|dock10
  -GOLD-   22720 3533D 1   1.00000     0.00000
 Structure written by MMmdl.
 36 37  0  0  0  0  0  0  0  0  1 V2000
  145.0268  141.7236  154.8317 N   0  0  0  0  0  0  0  0  0  0  0  0
  146.3627  141.7214  154.8368 C   0  0  0  0  0  0  0  0  0  0  0  0
  147.0165  142.1893  155.7665 O   0  0  0  0  0  0  0  0  0  0  0  0
  147.0668  141.0974  153.6301 C   0  0  0  0  0  0  0  0  0  0  0  0
  146.6584  139.7177  153.4331 N   0  0  0  0  0  0  0  0  0  0  0  0
  146.8706  138.9145  152.3296 C   0  0  0  0  0  0  0  0  0  0  0  0
  146.3020  137.7100  152.6334 C   0  0  0  0  0  0  0  0  0  0  0  0
  146.2253  136.5277  151.8546 N   0  0  0  0  0  0  0  0  0  0  0  0
  145.1229  135.8310  151.5181 C   0  0  0  0  0  0  0  0  0  0  0  0
  143.9813  136.2112  151.7817 O   0  0  0  0  0  0  0  0  0  0  0  0
  145.3730  134.7042  150.8033 N   0  0  0  0  0  0  0  0  0  0  0  0
  146.5572  133.8371  150.9413 C   0  0  0  0  0  0  0  0  0  0  0  0
  146.1614  132.5802  151.7385 C   0  0  0  0  0  0  0  0  0  0  0  0
  144.9890  131.8463  151.0605 C   0  0  0  0  0  0  0  0  0  0  0  0
  143.8251  132.8080  150.7462 C   0  0  2  0  0  0  0  0  0  0  0  0
  142.8591  132.1395  149.9635 O   0  0  0  0  0  0  0  0  0  0  0  0
  144.3323  134.0546  149.9949 C   0  0  0  0  0  0  0  0  0  0  0  0
  145.7603  137.8554  153.9367 C   0  0  0  0  0  0  0  0  0  0  0  0
  145.9800  139.0708  154.4142 N   0  0  0  0  0  0  0  0  0  0  0  0
  144.5248  142.1294  155.6082 H   0  0  0  0  0  0  0  0  0  0  0  0
  144.5230  141.3245  154.0532 H   0  0  0  0  0  0  0  0  0  0  0  0
  146.8444  141.6719  152.7293 H   0  0  0  0  0  0  0  0  0  0  0  0
  148.1480  141.1293  153.7701 H   0  0  0  0  0  0  0  0  0  0  0  0
  147.3938  139.2706  151.4547 H   0  0  0  0  0  0  0  0  0  0  0  0
  147.1075  136.1515  151.5396 H   0  0  0  0  0  0  0  0  0  0  0  0
  146.9085  133.5514  149.9488 H   0  0  0  0  0  0  0  0  0  0  0  0
  147.4090  134.3211  151.4186 H   0  0  0  0  0  0  0  0  0  0  0  0
  147.0157  131.9095  151.8332 H   0  0  0  0  0  0  0  0  0  0  0  0
  145.8777  132.8657  152.7525 H   0  0  0  0  0  0  0  0  0  0  0  0
  145.3484  131.3957  150.1342 H   0  0  0  0  0  0  0  0  0  0  0  0
  144.6446  131.0251  151.6899 H   0  0  0  0  0  0  0  0  0  0  0  0
  143.3486  133.1167  151.6778 H   0  0  0  0  0  0  0  0  0  0  0  0
  142.1289  132.7229  149.8237 H   0  0  0  0  0  0  0  0  0  0  0  0
  143.5016  134.7242  149.7661 H   0  0  0  0  0  0  0  0  0  0  0  0
  144.7543  133.7707  149.0295 H   0  0  0  0  0  0  0  0  0  0  0  0
  145.2264  137.1359  154.5397 H   0  0  0  0  0  0  0  0  0  0  0  0
  1  2  1  0  0  0  0
  1 20  1  0  0  0  0
  1 21  1  0  0  0  0
  2  3  2  0  0  0  0
  2  4  1  0  0  0  0
  4  5  1  0  0  0  0
  4 22  1  0  0  0  0
  4 23  1  0  0  0  0
  5 19  1  0  0  0  0
  5  6  1  0  0  0  0
  6  7  2  0  0  0  0
  6 24  1  0  0  0  0
  7  8  1  0  0  0  0
  7 18  1  0  0  0  0
  8  9  1  0  0  0  0
  8 25  1  0  0  0  0
  9 10  2  0  0  0  0
  9 11  1  0  0  0  0
 11 17  1  0  0  0  0
 11 12  1  0  0  0  0
 12 13  1  0  0  0  0
 12 26  1  0  0  0  0
 12 27  1  0  0  0  0
 13 14  1  0  0  0  0
 13 28  1  0  0  0  0
 13 29  1  0  0  0  0
 14 15  1  0  0  0  0
 14 30  1  0  0  0  0
 14 31  1  0  0  0  0
 15 16  1  0  0  0  0
 15 17  1  0  0  0  0
 15 32  1  0  0  0  0
 16 33  1  0  0  0  0
 17 34  1  0  0  0  0
 17 35  1  0  0  0  0
 18 19  2  0  0  0  0
 18 36  1  0  0  0  0
M  END
> <s_m_source_file>
AV-unprocessed.smi

> <i_m_source_file_index>
1172

> <i_lp_mmshare_version>
43012

> <i_f3d_flags>
0

> <s_epik_input>
W05IMl1DKD1PKVtDSDJdbjFbY0hdYyhbY0hdbjEpW05IXUMoPU8pTjJbQ0gyXVtDSDJdW0NIMl1bQ0BASF0oW09IXSlbQ0gyXTI=

> <s_epik_cmdline>
J2VwaWtfcHl0aG9uJywgJy1waCcsICc3LjAnLCAnLXRuJywgJzgnLCAnLW1hJywgJzIwMCcsICctbWV0YWxfYmluZGluZycsICctaW1hZScsICc8aW5maWxlLm1hZT4nLCAnLW9tYWUnLCAnPG91dGZpbGUubWFlPic=

> <r_lp_tautomer_probability>
1

> <r_epik_Ionization_Penalty>
4.44977e-05

> <r_epik_Ionization_Penalty_Charging>
0

> <r_epik_Ionization_Penalty_Neutral>
4.44977e-05

> <r_epik_State_Penalty>
-0

> <r_epik_Charging_Adjusted_Penalty>
0

> <i_epik_Tot_Q>
0

> <i_epik_Tot_abs_Q>
0

> <r_epik_Metal_State_Penalty>
-0

> <b_epik_Metal_Only>
0

> <s_lp_Force_Field>
OPLS_2005

> <r_lp_Energy>
32.958

> <b_lp_Chiralities_Consistent>
1

> <s_lp_Variant>
AV-unprocessed.smi:1172-2

> <Gold.Version>
5.8.1

> <Gold.Id.Protein>
6NUR|6NUR_protein|mol2

> <Gold.PLP.Fitness>
43.9497

> <Gold.PLP.PLP>
-33.3620

> <Gold.PLP.part.hbond>
-4.0000

> <Gold.PLP.part.metal>
0.0000

> <Gold.PLP.part.buried>
-2.8206

> <Gold.PLP.part.nonpolar>
-26.8963

> <Gold.PLP.part.repulsive>
1.5030

> <Gold.PLP.ligand.clash>
0.0000

> <Gold.PLP.ligand.torsion>
0.9387

> <Gold.PLP.Chemscore.Hbond>
3.1395

> <Gold.PLP.Chemscore.CHOScore>
1.0000

> <Gold.PLP.Chemscore.Metal>
0.0000

> <Gold.Chemscore.Hbonds>
donor molecule, donor type, donor heavy atom, donor atom, acceptor molecule, acceptor atom, score
      L1  H     1    21       P1 10175  1.00
      L1  H     8    25       P1  7948  0.88
      L1  H    16    33       P1 10186  0.96
      P1  H 10785 10796       L1    16  0.16
      L1  C     6    24       P1  7957  1.00

> <Gold.PLP.Chemscore.Internal.Correction>
0.0467

> <Gold.Rescore>
     Score         DG    S(hbond)    S(metal)    S(lipo)     H(rot)  DE(clash)    DE(int)     intcor
     14.42     -17.53       3.21        0.00      59.33       2.20       0.58       2.53       ----

> <Gold.Chemscore.Fitness>
14.4175

> <Gold.Chemscore.DG>
-17.5261

> <Gold.Chemscore.ZeroCoef>
-5.4800

> <Gold.Chemscore.Hbond>
3.2120

> <Gold.Chemscore.Metal>
0.0000

> <Gold.Chemscore.Lipo>
59.3255

> <Gold.Chemscore.Internal_Hbond>
0.0000

> <Gold.Chemscore.DEClash>
0.5769

> <Gold.Chemscore.DEInternal>
2.5316

> <Gold.Chemscore.Rot>
2.1966

> <Gold.Chemscore.Internal.Correction>
   9.000000E+99

> <Gold.Chemscore.Hbonds>
donor molecule, donor type, donor heavy atom, donor atom, acceptor molecule, acceptor atom, score
      L1  H     1    21       P1 10175  0.49
      L1  H     8    25       P1  7948  0.87
      L1  H    16    33       P1 10186  0.91
      P1  H 10785 10796       L1    16  0.17

> <Gold.Chemscore.Hbond.Weighted>
-10.7282

> <Gold.Chemscore.Metal.Weighted>
-0.0000

> <Gold.Chemscore.Lipo.Weighted>
-6.9411

> <Gold.Chemscore.Internal_Hbond.Weighted>
0.0000

> <Gold.Chemscore.DEClash.Weighted>
0.5769

> <Gold.Chemscore.DEInternal.Weighted>
2.5316

> <Gold.Chemscore.Rot.Weighted>
5.6232

> <Gold.Chemscore.Internal.Correction.Weighted>
   9.000000E+99

> <Gold.Protein.RotatedTorsions>
[ 6907 6896 6895 6894 ] final   65.78 input  -60.11 | X-H torsion
[ 7974 7965 7964 7962 ] final   78.76 input  175.53 | X-H torsion
[ 8008 7997 7996 7995 ] final  144.78 input   59.86 | X-H torsion
[ 10167 10162 10161 10158 ] final -121.35 input  -65.29 | X-H torsion
[ 10718 10713 10712 10709 ] final  131.84 input   66.30 | X-H torsion
[ 10763 10752 10751 10750 ] final -157.43 input  -60.55 | X-H torsion
[ 11005 11000 10999 10996 ] final   68.46 input  -57.11 | X-H torsion

> <Gold.Protein.ActiveResidues>
 VAL166  LYS551  ARG553  GLY616  TRP617  ASP618  TYR619  PRO620  LYS621  CYS622 
 ASP623  PHE694  ASN695  SER759  ASP760  ASP761  ALA762  ILE779  LEU786  VAL792 
 PHE793  MET794  SER795  GLU796  ALA797  LYS798  CYS799  TRP800  GLU811  SER814 

> <Gold.Protein.RotatedAtoms>
  152.4433  134.5547  159.9876 H   0  0  0  0  0  0  0  0  0  0  0  0  # atno 6907 bound_to 6896
  151.5639  133.3393  159.2984 H   0  0  0  0  0  0  0  0  0  0  0  0  # atno 6908 bound_to 6896
  150.8343  134.7643  159.6944 H   0  0  0  0  0  0  0  0  0  0  0  0  # atno 6909 bound_to 6896
  145.6729  139.2502  143.1858 H   0  0  0  0  0  0  0  0  0  0  0  0  # atno 7974 bound_to 7965
  156.2900  140.2226  156.5109 H   0  0  0  0  0  0  0  0  0  0  0  0  # atno 8008 bound_to 7997
  154.7610  140.0473  157.0995 H   0  0  0  0  0  0  0  0  0  0  0  0  # atno 8009 bound_to 7997
  154.9991  140.3099  155.4878 H   0  0  0  0  0  0  0  0  0  0  0  0  # atno 8010 bound_to 7997
  140.0260  143.5296  152.2199 H   0  0  0  0  0  0  0  0  0  0  0  0  # atno 10167 bound_to 10162
  157.4929  131.1091  150.9532 H   0  0  0  0  0  0  0  0  0  0  0  0  # atno 10718 bound_to 10713
  154.7637  135.3125  154.8329 H   0  0  0  0  0  0  0  0  0  0  0  0  # atno 10763 bound_to 10752
  153.9083  135.6808  153.4756 H   0  0  0  0  0  0  0  0  0  0  0  0  # atno 10764 bound_to 10752
  153.1240  135.4809  154.9174 H   0  0  0  0  0  0  0  0  0  0  0  0  # atno 10765 bound_to 10752
  139.9710  134.6900  156.0446 H   0  0  0  0  0  0  0  0  0  0  0  0  # atno 11005 bound_to 11000
  146.1030  140.7521  142.9540 LP  0  0  0  0  0  0  0  0  0  0  0  0  # atno 17320 bound_to 7965
  144.7051  140.3817  143.7125 LP  0  0  0  0  0  0  0  0  0  0  0  0  # atno 17321 bound_to 7965
  139.6108  144.7608  151.2957 LP  0  0  0  0  0  0  0  0  0  0  0  0  # atno 17342 bound_to 10162
  140.7322  143.6829  150.7986 LP  0  0  0  0  0  0  0  0  0  0  0  0  # atno 17343 bound_to 10162
  157.0228  130.5681  149.5333 LP  0  0  0  0  0  0  0  0  0  0  0  0  # atno 17370 bound_to 10713
  156.0183  130.5278  150.8202 LP  0  0  0  0  0  0  0  0  0  0  0  0  # atno 17371 bound_to 10713
  141.1390  133.6569  156.3675 LP  0  0  0  0  0  0  0  0  0  0  0  0  # atno 17394 bound_to 11000
  140.5293  134.6228  157.5344 LP  0  0  0  0  0  0  0  0  0  0  0  0  # atno 17395 bound_to 11000

$$$$
