AV-unprocessed.smi:265|AV-procd|sdf|2025|dock4
  -GOLD-   2262021233D 1   1.00000     0.00000
 Structure written by MMmdl.
 52 56  0  0  0  0  0  0  0  0  1 V2000
  151.4517  141.9487  156.3561 C   0  0  0  0  0  0  0  0  0  0  0  0
  151.4092  140.4120  156.3510 C   0  0  2  0  0  0  0  0  0  0  0  0
  152.6369  139.8786  155.8759 O   0  0  0  0  0  0  0  0  0  0  0  0
  152.3949  138.5269  155.5306 C   0  0  0  0  0  0  0  0  0  0  0  0
  151.0698  138.6037  154.7821 C   0  0  0  0  0  0  0  0  0  0  0  0
  150.3137  139.7371  155.4827 C   0  0  2  0  0  0  0  0  0  0  0  0
  149.8159  140.6157  154.4865 O   0  0  0  0  0  0  0  0  0  0  0  0
  149.1142  139.2126  156.3103 C   0  0  0  0  0  0  0  0  0  0  0  0
  148.1155  138.5190  155.5103 N   0  0  0  0  0  0  0  0  0  0  0  0
  146.9822  139.0648  154.9504 C   0  0  0  0  0  0  0  0  0  0  0  0
  146.2339  138.2307  154.2820 N   0  0  0  0  0  0  0  0  0  0  0  0
  146.9091  137.0196  154.3737 C   0  0  0  0  0  0  0  0  0  0  0  0
  146.6583  135.7057  153.8862 C   0  0  0  0  0  0  0  0  0  0  0  0
  145.5708  135.3990  153.1342 N   0  0  0  0  0  0  0  0  0  0  0  0
  144.3935  134.8709  153.8231 C   0  0  0  0  0  0  0  0  0  0  0  0
  143.1517  134.9599  152.9230 C   0  0  0  0  0  0  0  0  0  0  0  0
  143.3861  134.2957  151.5563 C   0  0  2  0  0  0  0  0  0  0  0  0
  143.5135  132.8878  151.7080 O   0  0  0  0  0  0  0  0  0  0  0  0
  143.5533  132.1763  150.4697 C   0  0  0  0  0  0  0  0  0  0  0  0
  144.5609  132.7845  149.4762 C   0  0  0  0  0  0  0  0  0  0  0  0
  144.9245  132.1361  148.4979 O   0  0  0  0  0  0  0  0  0  0  0  0
  144.9842  134.0401  149.6929 N   0  0  0  0  0  0  0  0  0  0  0  0
  144.6811  134.8127  150.8930 C   0  0  2  0  0  0  0  0  0  0  0  0
  145.8786  134.7482  151.8624 C   0  0  0  0  0  0  0  0  0  0  0  0
  147.5624  134.7393  154.2003 N   0  0  0  0  0  0  0  0  0  0  0  0
  148.6414  135.0357  154.9304 C   0  0  0  0  0  0  0  0  0  0  0  0
  149.0037  136.2127  155.4433 N   0  0  0  0  0  0  0  0  0  0  0  0
  148.0962  137.1847  155.1418 C   0  0  0  0  0  0  0  0  0  0  0  0
  142.5255  134.5030  150.9171 H   0  0  0  0  0  0  0  0  0  0  0  0
  144.5316  135.8512  150.5943 H   0  0  0  0  0  0  0  0  0  0  0  0
  150.5098  142.3674  156.7113 H   0  0  0  0  0  0  0  0  0  0  0  0
  151.6460  142.3487  155.3607 H   0  0  0  0  0  0  0  0  0  0  0  0
  152.2423  142.3097  157.0140 H   0  0  0  0  0  0  0  0  0  0  0  0
  151.3158  140.0669  157.3813 H   0  0  0  0  0  0  0  0  0  0  0  0
  153.2003  138.1147  154.9225 H   0  0  0  0  0  0  0  0  0  0  0  0
  152.3003  137.9250  156.4360 H   0  0  0  0  0  0  0  0  0  0  0  0
  151.2722  138.8524  153.7388 H   0  0  0  0  0  0  0  0  0  0  0  0
  150.5361  137.6525  154.7906 H   0  0  0  0  0  0  0  0  0  0  0  0
  149.2674  141.2625  154.9031 H   0  0  0  0  0  0  0  0  0  0  0  0
  149.4579  138.5332  157.0914 H   0  0  0  0  0  0  0  0  0  0  0  0
  148.6252  140.0412  156.8242 H   0  0  0  0  0  0  0  0  0  0  0  0
  146.7204  140.1069  155.0623 H   0  0  0  0  0  0  0  0  0  0  0  0
  144.5764  133.8332  154.1062 H   0  0  0  0  0  0  0  0  0  0  0  0
  144.2124  135.4295  154.7424 H   0  0  0  0  0  0  0  0  0  0  0  0
  142.2941  134.5060  153.4198 H   0  0  0  0  0  0  0  0  0  0  0  0
  142.8993  136.0099  152.7701 H   0  0  0  0  0  0  0  0  0  0  0  0
  143.8112  131.1353  150.6668 H   0  0  0  0  0  0  0  0  0  0  0  0
  142.5620  132.1833  150.0152 H   0  0  0  0  0  0  0  0  0  0  0  0
  145.6171  134.4541  149.0240 H   0  0  0  0  0  0  0  0  0  0  0  0
  146.7512  135.1950  151.3866 H   0  0  0  0  0  0  0  0  0  0  0  0
  146.1383  133.7084  152.0669 H   0  0  0  0  0  0  0  0  0  0  0  0
  149.3098  134.2116  155.1321 H   0  0  0  0  0  0  0  0  0  0  0  0
  1  2  1  0  0  0  0
  1 31  1  0  0  0  0
  1 32  1  0  0  0  0
  1 33  1  0  0  0  0
  2  6  1  0  0  0  0
  2  3  1  0  0  0  0
  2 34  1  0  0  0  0
  3  4  1  0  0  0  0
  4  5  1  0  0  0  0
  4 35  1  0  0  0  0
  4 36  1  0  0  0  0
  5  6  1  0  0  0  0
  5 37  1  0  0  0  0
  5 38  1  0  0  0  0
  6  7  1  0  0  0  0
  6  8  1  0  0  0  0
  7 39  1  0  0  0  0
  8  9  1  0  0  0  0
  8 40  1  0  0  0  0
  8 41  1  0  0  0  0
  9 28  1  0  0  0  0
  9 10  1  0  0  0  0
 10 11  2  0  0  0  0
 10 42  1  0  0  0  0
 11 12  1  0  0  0  0
 12 28  2  0  0  0  0
 12 13  1  0  0  0  0
 13 14  1  0  0  0  0
 13 25  2  0  0  0  0
 14 24  1  0  0  0  0
 14 15  1  0  0  0  0
 15 16  1  0  0  0  0
 15 43  1  0  0  0  0
 15 44  1  0  0  0  0
 16 17  1  0  0  0  0
 16 45  1  0  0  0  0
 16 46  1  0  0  0  0
 17 29  1  0  0  0  0
 17 23  1  0  0  0  0
 17 18  1  0  0  0  0
 18 19  1  0  0  0  0
 19 20  1  0  0  0  0
 19 47  1  0  0  0  0
 19 48  1  0  0  0  0
 20 21  2  0  0  0  0
 20 22  1  0  0  0  0
 22 23  1  0  0  0  0
 22 49  1  0  0  0  0
 23 30  1  0  0  0  0
 23 24  1  0  0  0  0
 24 50  1  0  0  0  0
 24 51  1  0  0  0  0
 25 26  1  0  0  0  0
 26 27  2  0  0  0  0
 26 52  1  0  0  0  0
 27 28  1  0  0  0  0
M  END
> <s_m_source_file>
AV-unprocessed.smi

> <i_m_source_file_index>
265

> <i_lp_mmshare_version>
43012

> <i_f3d_flags>
0

> <s_epik_input>
W0NIMl0xW0NIMl1PW0NAQEhdKFtDSDNdKVtDQEBdMShbT0hdKVtDSDJdbihbY0hdbjIpYyhjMjMpbltjSF1uYzNOKFtDSDJdW0NIMl00KVtDSDJdW0NAQEhdKFtDQEhdNDUpW05IXUMoPU8pW0NIMl1PNQ==

> <s_epik_cmdline>
J2VwaWtfcHl0aG9uJywgJy1waCcsICc3LjAnLCAnLXRuJywgJzgnLCAnLW1hJywgJzIwMCcsICctbWV0YWxfYmluZGluZycsICctaW1hZScsICc8aW5maWxlLm1hZT4nLCAnLW9tYWUnLCAnPG91dGZpbGUubWFlPic=

> <r_lp_tautomer_probability>
1

> <r_epik_Ionization_Penalty>
0.00221504

> <r_epik_Ionization_Penalty_Charging>
0

> <r_epik_Ionization_Penalty_Neutral>
0.00221504

> <r_epik_State_Penalty>
-0

> <r_epik_Charging_Adjusted_Penalty>
0

> <i_epik_Tot_Q>
0

> <i_epik_Tot_abs_Q>
0

> <r_epik_Metal_State_Penalty>
-0

> <b_epik_Metal_Only>
0

> <s_lp_Force_Field>
OPLS_2005

> <r_lp_Energy>
44.0403

> <b_lp_Chiralities_Consistent>
1

> <s_lp_Variant>
AV-unprocessed.smi:265-11

> <Gold.Version>
5.8.1

> <Gold.Id.Protein>
6NUR|6NUR_protein|mol2

> <Gold.PLP.Fitness>
39.2459

> <Gold.PLP.PLP>
-31.8780

> <Gold.PLP.part.hbond>
-4.5999

> <Gold.PLP.part.metal>
0.0000

> <Gold.PLP.part.buried>
-4.5000

> <Gold.PLP.part.nonpolar>
-23.1023

> <Gold.PLP.part.repulsive>
1.3163

> <Gold.PLP.ligand.clash>
0.0000

> <Gold.PLP.ligand.torsion>
0.7486

> <Gold.PLP.Chemscore.Hbond>
2.8320

> <Gold.PLP.Chemscore.CHOScore>
0.0000

> <Gold.PLP.Chemscore.Metal>
0.0000

> <Gold.Chemscore.Hbonds>
donor molecule, donor type, donor heavy atom, donor atom, acceptor molecule, acceptor atom, score
      L1  H    22    49       P1  7921  0.99
      P1  H  7989  7998       L1     7  0.58
      P1  H  7997  8008       L1     3  1.00

> <Gold.PLP.Chemscore.Internal.Correction>
0.3692

> <Gold.Rescore>
     Score         DG    S(hbond)    S(metal)    S(lipo)     H(rot)  DE(clash)    DE(int)     intcor
     15.02     -17.47       2.98        0.00      66.59       2.25       1.59       0.87       ----

> <Gold.Chemscore.Fitness>
15.0169

> <Gold.Chemscore.DG>
-17.4703

> <Gold.Chemscore.ZeroCoef>
-5.4800

> <Gold.Chemscore.Hbond>
2.9783

> <Gold.Chemscore.Metal>
0.0000

> <Gold.Chemscore.Lipo>
66.5879

> <Gold.Chemscore.Internal_Hbond>
0.0000

> <Gold.Chemscore.DEClash>
1.5876

> <Gold.Chemscore.DEInternal>
0.8658

> <Gold.Chemscore.Rot>
2.2453

> <Gold.Chemscore.Internal.Correction>
   9.000000E+99

> <Gold.Chemscore.Hbonds>
donor molecule, donor type, donor heavy atom, donor atom, acceptor molecule, acceptor atom, score
      L1  H    22    49       P1  7921  0.84
      P1  H  7989  7998       L1     7  0.10
      P1  H  7997  8008       L1     3  0.78

> <Gold.Chemscore.Hbond.Weighted>
-9.9475

> <Gold.Chemscore.Metal.Weighted>
-0.0000

> <Gold.Chemscore.Lipo.Weighted>
-7.7908

> <Gold.Chemscore.Internal_Hbond.Weighted>
0.0000

> <Gold.Chemscore.DEClash.Weighted>
1.5876

> <Gold.Chemscore.DEInternal.Weighted>
0.8658

> <Gold.Chemscore.Rot.Weighted>
5.7479

> <Gold.Chemscore.Internal.Correction.Weighted>
   9.000000E+99

> <Gold.Protein.RotatedTorsions>
[ 6907 6896 6895 6894 ] final   52.76 input  -60.11 | X-H torsion
[ 7974 7965 7964 7962 ] final  -95.76 input  175.53 | X-H torsion
[ 8008 7997 7996 7995 ] final  -24.07 input   59.86 | X-H torsion
[ 10167 10162 10161 10158 ] final -123.61 input  -65.29 | X-H torsion
[ 10718 10713 10712 10709 ] final  132.48 input   66.30 | X-H torsion
[ 10763 10752 10751 10750 ] final   89.43 input  -60.55 | X-H torsion
[ 11005 11000 10999 10996 ] final  121.32 input  -57.11 | X-H torsion

> <Gold.Protein.ActiveResidues>
 VAL166  LYS551  ARG553  GLY616  TRP617  ASP618  TYR619  PRO620  LYS621  CYS622 
 ASP623  PHE694  ASN695  SER759  ASP760  ASP761  ALA762  ILE779  LEU786  VAL792 
 PHE793  MET794  SER795  GLU796  ALA797  LYS798  CYS799  TRP800  GLU811  SER814 

> <Gold.Protein.RotatedAtoms>
  152.3267  134.7312  160.0299 H   0  0  0  0  0  0  0  0  0  0  0  0  # atno 6907 bound_to 6896
  151.7742  133.3338  159.3461 H   0  0  0  0  0  0  0  0  0  0  0  0  # atno 6908 bound_to 6896
  150.7399  134.5922  159.6037 H   0  0  0  0  0  0  0  0  0  0  0  0  # atno 6909 bound_to 6896
  145.3558  140.9484  143.2528 H   0  0  0  0  0  0  0  0  0  0  0  0  # atno 7974 bound_to 7965
  154.4549  140.1963  156.0408 H   0  0  0  0  0  0  0  0  0  0  0  0  # atno 8008 bound_to 7997
  156.0726  140.3282  155.7566 H   0  0  0  0  0  0  0  0  0  0  0  0  # atno 8009 bound_to 7997
  155.5239  140.0572  157.2892 H   0  0  0  0  0  0  0  0  0  0  0  0  # atno 8010 bound_to 7997
  140.0017  143.5534  152.2301 H   0  0  0  0  0  0  0  0  0  0  0  0  # atno 10167 bound_to 10162
  157.4867  131.1088  150.9611 H   0  0  0  0  0  0  0  0  0  0  0  0  # atno 10718 bound_to 10713
  153.1870  135.4471  155.0101 H   0  0  0  0  0  0  0  0  0  0  0  0  # atno 10763 bound_to 10752
  154.8066  135.3277  154.7417 H   0  0  0  0  0  0  0  0  0  0  0  0  # atno 10764 bound_to 10752
  153.7875  135.6973  153.4932 H   0  0  0  0  0  0  0  0  0  0  0  0  # atno 10765 bound_to 10752
  139.9221  134.9638  156.7940 H   0  0  0  0  0  0  0  0  0  0  0  0  # atno 11005 bound_to 11000
  144.8683  139.5075  143.6779 LP  0  0  0  0  0  0  0  0  0  0  0  0  # atno 17320 bound_to 7965
  146.2948  139.7246  142.9134 LP  0  0  0  0  0  0  0  0  0  0  0  0  # atno 17321 bound_to 7965
  139.6267  144.7638  151.2623 LP  0  0  0  0  0  0  0  0  0  0  0  0  # atno 17342 bound_to 10162
  140.7416  143.6551  150.8213 LP  0  0  0  0  0  0  0  0  0  0  0  0  # atno 17343 bound_to 10162
  157.0326  130.5717  149.5345 LP  0  0  0  0  0  0  0  0  0  0  0  0  # atno 17370 bound_to 10713
  156.0151  130.5244  150.8108 LP  0  0  0  0  0  0  0  0  0  0  0  0  # atno 17371 bound_to 10713
  140.6444  133.9789  155.7723 LP  0  0  0  0  0  0  0  0  0  0  0  0  # atno 17394 bound_to 11000
  141.0750  134.0148  157.3471 LP  0  0  0  0  0  0  0  0  0  0  0  0  # atno 17395 bound_to 11000

$$$$
