AV-unprocessed.smi:2276|AV-procd|sdf|9172|dock1
  -GOLD-   2272012383D 1   1.00000     0.00000
 Structure written by MMmdl.
 53 54  0  0  0  0  0  0  0  0  2 V2000
  152.1234  145.8024  160.2282 C   0  0  0  0  0  0  0  0  0  0  0  0
  152.0386  144.4093  159.6412 C   0  0  0  0  0  0  0  0  0  0  0  0
  152.8547  143.3692  160.1259 C   0  0  0  0  0  0  0  0  0  0  0  0
  152.7283  142.0957  159.5381 C   0  0  0  0  0  0  0  0  0  0  0  0
  153.5771  140.9337  160.0092 C   0  0  0  0  0  0  0  0  0  0  0  0
  151.8666  141.8311  158.5330 N   0  0  0  0  0  0  0  0  0  0  0  0
  151.0694  142.8231  158.0634 C   0  0  0  0  0  0  0  0  0  0  0  0
  150.1475  142.6489  156.9977 N   0  0  0  0  0  0  0  0  0  0  0  0
  149.9222  141.5319  156.2849 C   0  0  0  0  0  0  0  0  0  0  0  0
  150.2962  140.4024  156.6028 O   0  0  0  0  0  0  0  0  0  0  0  0
  149.2516  141.8013  155.1551 N   0  0  0  0  0  0  0  0  0  0  0  0
  148.9674  140.8504  154.0814 C   0  0  0  0  0  0  0  0  0  0  0  0
  147.6586  140.0676  154.3353 C   0  0  2  0  0  0  0  0  0  0  0  0
  147.4106  139.0547  153.2065 C   0  0  0  0  0  0  0  0  0  0  0  0
  146.4373  141.0094  154.4864 C   0  0  0  0  0  0  0  0  0  0  0  0
  146.7565  142.3061  155.0912 N   0  0  0  0  0  0  0  0  0  0  0  0
  145.9539  143.4346  154.5994 C   0  0  0  0  0  0  0  0  0  0  0  0
  144.4701  143.3347  155.0149 C   0  0  0  0  0  0  0  0  0  0  0  0
  144.3441  143.2363  156.4869 N   0  3  0  0  0  0  0  0  0  0  0  0
  142.9355  143.1623  156.9288 C   0  0  0  0  0  0  0  0  0  0  0  0
  145.1664  142.1216  157.0131 C   0  0  0  0  0  0  0  0  0  0  0  0
  146.6348  142.2625  156.5518 C   0  0  0  0  0  0  0  0  0  0  0  0
  151.1365  144.1304  158.5946 C   0  0  0  0  0  0  0  0  0  0  0  0
  152.9269  145.8754  160.9618 H   0  0  0  0  0  0  0  0  0  0  0  0
  151.1862  146.0620  160.7207 H   0  0  0  0  0  0  0  0  0  0  0  0
  152.3130  146.5337  159.4422 H   0  0  0  0  0  0  0  0  0  0  0  0
  153.5579  143.5425  160.9276 H   0  0  0  0  0  0  0  0  0  0  0  0
  154.0486  141.1539  160.9673 H   0  0  0  0  0  0  0  0  0  0  0  0
  154.3618  140.7201  159.2836 H   0  0  0  0  0  0  0  0  0  0  0  0
  152.9675  140.0377  160.1306 H   0  0  0  0  0  0  0  0  0  0  0  0
  149.6898  143.4895  156.6776 H   0  0  0  0  0  0  0  0  0  0  0  0
  148.9683  142.7566  154.9927 H   0  0  0  0  0  0  0  0  0  0  0  0
  148.9386  141.3456  153.1092 H   0  0  0  0  0  0  0  0  0  0  0  0
  149.8085  140.1577  154.0435 H   0  0  0  0  0  0  0  0  0  0  0  0
  147.8134  139.4938  155.2476 H   0  0  0  0  0  0  0  0  0  0  0  0
  147.2904  139.5529  152.2441 H   0  0  0  0  0  0  0  0  0  0  0  0
  146.5094  138.4704  153.3943 H   0  0  0  0  0  0  0  0  0  0  0  0
  148.2412  138.3541  153.1159 H   0  0  0  0  0  0  0  0  0  0  0  0
  145.9535  141.1755  153.5308 H   0  0  0  0  0  0  0  0  0  0  0  0
  145.6878  140.5044  155.0973 H   0  0  0  0  0  0  0  0  0  0  0  0
  146.3785  144.3544  155.0039 H   0  0  0  0  0  0  0  0  0  0  0  0
  146.0314  143.5281  153.5178 H   0  0  0  0  0  0  0  0  0  0  0  0
  143.9409  144.2243  154.6718 H   0  0  0  0  0  0  0  0  0  0  0  0
  143.9796  142.4866  154.5385 H   0  0  0  0  0  0  0  0  0  0  0  0
  142.4543  142.2621  156.5453 H   0  0  0  0  0  0  0  0  0  0  0  0
  142.3746  144.0268  156.5724 H   0  0  0  0  0  0  0  0  0  0  0  0
  142.8725  143.1473  158.0172 H   0  0  0  0  0  0  0  0  0  0  0  0
  145.1292  142.1359  158.1029 H   0  0  0  0  0  0  0  0  0  0  0  0
  144.7441  141.1645  156.7042 H   0  0  0  0  0  0  0  0  0  0  0  0
  147.2352  141.4418  156.9460 H   0  0  0  0  0  0  0  0  0  0  0  0
  147.0615  143.1773  156.9652 H   0  0  0  0  0  0  0  0  0  0  0  0
  150.5022  144.9144  158.2067 H   0  0  0  0  0  0  0  0  0  0  0  0
  144.7304  144.0875  156.8693 H   0  0  0  0  0  0  0  0  0  0  0  0
  1  2  1  0  0  0  0
  1 24  1  0  0  0  0
  1 25  1  0  0  0  0
  1 26  1  0  0  0  0
  2 23  1  0  0  0  0
  2  3  2  0  0  0  0
  3  4  1  0  0  0  0
  3 27  1  0  0  0  0
  4  5  1  0  0  0  0
  4  6  2  0  0  0  0
  5 28  1  0  0  0  0
  5 29  1  0  0  0  0
  5 30  1  0  0  0  0
  6  7  1  0  0  0  0
  7  8  1  0  0  0  0
  7 23  2  0  0  0  0
  8  9  1  0  0  0  0
  8 31  1  0  0  0  0
  9 10  2  0  0  0  0
  9 11  1  0  0  0  0
 11 12  1  0  0  0  0
 11 32  1  0  0  0  0
 12 13  1  0  0  0  0
 12 33  1  0  0  0  0
 12 34  1  0  0  0  0
 13 14  1  0  0  0  0
 13 15  1  0  0  0  0
 13 35  1  0  0  0  0
 14 36  1  0  0  0  0
 14 37  1  0  0  0  0
 14 38  1  0  0  0  0
 15 16  1  0  0  0  0
 15 39  1  0  0  0  0
 15 40  1  0  0  0  0
 16 22  1  0  0  0  0
 16 17  1  0  0  0  0
 17 18  1  0  0  0  0
 17 41  1  0  0  0  0
 17 42  1  0  0  0  0
 18 19  1  0  0  0  0
 18 43  1  0  0  0  0
 18 44  1  0  0  0  0
 19 20  1  0  0  0  0
 19 21  1  0  0  0  0
 19 53  1  0  0  0  0
 20 45  1  0  0  0  0
 20 46  1  0  0  0  0
 20 47  1  0  0  0  0
 21 22  1  0  0  0  0
 21 48  1  0  0  0  0
 21 49  1  0  0  0  0
 22 50  1  0  0  0  0
 22 51  1  0  0  0  0
 23 52  1  0  0  0  0
M  CHG  1  19   1
M  END
> <s_m_source_file>
AV-unprocessed.smi

> <i_m_source_file_index>
2276

> <i_lp_mmshare_version>
43012

> <i_f3d_flags>
0

> <s_epik_input>
W0NIM11jMVtjSF1jKFtDSDNdKW5jKFtjSF0xKVtOSF1DKD1PKVtOSF1bQ0gyXVtDQEhdKFtDSDNdKVtDSDJdTjJbQ0gyXVtDSDJdTihbQ0gzXSlbQ0gyXVtDSDJdMg==

> <s_epik_cmdline>
J2VwaWtfcHl0aG9uJywgJy1waCcsICc3LjAnLCAnLXRuJywgJzgnLCAnLW1hJywgJzIwMCcsICctbWV0YWxfYmluZGluZycsICctaW1hZScsICc8aW5maWxlLm1hZT4nLCAnLW9tYWUnLCAnPG91dGZpbGUubWFlPic=

> <r_epik_Ionization_Penalty>
0.0247364

> <r_epik_Ionization_Penalty_Charging>
0.0230248

> <r_epik_Ionization_Penalty_Neutral>
0.00171164

> <r_epik_State_Penalty>
0.239056

> <r_epik_Charging_Adjusted_Penalty>
0.262081

> <i_epik_Tot_Q>
1

> <i_epik_Tot_abs_Q>
1

> <r_epik_Metal_State_Penalty>
0.239048

> <b_epik_Metal_Only>
0

> <s_lp_Force_Field>
OPLS_2005

> <r_lp_Energy>
20.3682

> <b_lp_Chiralities_Consistent>
1

> <s_lp_Variant>
AV-unprocessed.smi:2276-1

> <Gold.Version>
5.8.1

> <Gold.Id.Protein>
6NUR|6NUR_protein|mol2

> <Gold.PLP.Fitness>
45.3249

> <Gold.PLP.PLP>
-41.1694

> <Gold.PLP.part.hbond>
-2.0000

> <Gold.PLP.part.metal>
0.0000

> <Gold.PLP.part.buried>
-5.6820

> <Gold.PLP.part.nonpolar>
-35.6248

> <Gold.PLP.part.repulsive>
0.3589

> <Gold.PLP.ligand.clash>
0.0000

> <Gold.PLP.ligand.torsion>
0.8887

> <Gold.PLP.Chemscore.Hbond>
1.9600

> <Gold.PLP.Chemscore.CHOScore>
0.0000

> <Gold.PLP.Chemscore.Metal>
0.0000

> <Gold.Chemscore.Hbonds>
donor molecule, donor type, donor heavy atom, donor atom, acceptor molecule, acceptor atom, score
      L1  H     8    31       P1  8028  1.00
      L1  H    11    32       P1  8028  0.92

> <Gold.PLP.Chemscore.Internal.Correction>
0.0529

> <Gold.Rescore>
     Score         DG    S(hbond)    S(metal)    S(lipo)     H(rot)  DE(clash)    DE(int)     intcor
     15.85     -19.88       1.93        0.00     103.54       1.63       0.42       3.61       ----

> <Gold.Chemscore.Fitness>
15.8524

> <Gold.Chemscore.DG>
-19.8802

> <Gold.Chemscore.ZeroCoef>
-5.4800

> <Gold.Chemscore.Hbond>
1.9325

> <Gold.Chemscore.Metal>
0.0000

> <Gold.Chemscore.Lipo>
103.5367

> <Gold.Chemscore.Internal_Hbond>
0.0000

> <Gold.Chemscore.DEClash>
0.4188

> <Gold.Chemscore.DEInternal>
3.6091

> <Gold.Chemscore.Rot>
1.6282

> <Gold.Chemscore.Internal.Correction>
   9.000000E+99

> <Gold.Chemscore.Hbonds>
donor molecule, donor type, donor heavy atom, donor atom, acceptor molecule, acceptor atom, score
      L1  H     8    31       P1  8028  1.00
      L1  H    11    32       P1  8028  0.84

> <Gold.Chemscore.Hbond.Weighted>
-6.4545

> <Gold.Chemscore.Metal.Weighted>
-0.0000

> <Gold.Chemscore.Lipo.Weighted>
-12.1138

> <Gold.Chemscore.Internal_Hbond.Weighted>
0.0000

> <Gold.Chemscore.DEClash.Weighted>
0.4188

> <Gold.Chemscore.DEInternal.Weighted>
3.6091

> <Gold.Chemscore.Rot.Weighted>
4.1682

> <Gold.Chemscore.Internal.Correction.Weighted>
   9.000000E+99

> <Gold.Protein.RotatedTorsions>
[ 6907 6896 6895 6894 ] final -166.22 input  -60.11 | X-H torsion
[ 7974 7965 7964 7962 ] final  107.33 input  175.53 | X-H torsion
[ 8008 7997 7996 7995 ] final -115.51 input   59.86 | X-H torsion
[ 10167 10162 10161 10158 ] final -156.57 input  -65.29 | X-H torsion
[ 10718 10713 10712 10709 ] final   12.94 input   66.30 | X-H torsion
[ 10763 10752 10751 10750 ] final   -6.05 input  -60.55 | X-H torsion
[ 11005 11000 10999 10996 ] final -150.38 input  -57.11 | X-H torsion

> <Gold.Protein.ActiveResidues>
 VAL166  LYS551  ARG553  GLY616  TRP617  ASP618  TYR619  PRO620  LYS621  CYS622 
 ASP623  PHE694  ASN695  SER759  ASP760  ASP761  ALA762  ILE779  LEU786  VAL792 
 PHE793  MET794  SER795  GLU796  ALA797  LYS798  CYS799  TRP800  GLU811  SER814 

> <Gold.Protein.RotatedAtoms>
  151.4402  133.3645  159.2780 H   0  0  0  0  0  0  0  0  0  0  0  0  # atno 6907 bound_to 6896
  150.9163  134.8582  159.7470 H   0  0  0  0  0  0  0  0  0  0  0  0  # atno 6908 bound_to 6896
  152.4959  134.4336  159.9572 H   0  0  0  0  0  0  0  0  0  0  0  0  # atno 6909 bound_to 6896
  145.2951  139.2587  143.3844 H   0  0  0  0  0  0  0  0  0  0  0  0  # atno 7974 bound_to 7965
  155.0532  140.0393  157.2551 H   0  0  0  0  0  0  0  0  0  0  0  0  # atno 8008 bound_to 7997
  154.7120  140.2694  155.6596 H   0  0  0  0  0  0  0  0  0  0  0  0  # atno 8009 bound_to 7997
  156.2792  140.2720  156.1764 H   0  0  0  0  0  0  0  0  0  0  0  0  # atno 8010 bound_to 7997
  139.6839  143.9534  152.2351 H   0  0  0  0  0  0  0  0  0  0  0  0  # atno 10167 bound_to 10162
  157.0175  130.6141  149.5716 H   0  0  0  0  0  0  0  0  0  0  0  0  # atno 10718 bound_to 10713
  153.4069  135.7006  153.6386 H   0  0  0  0  0  0  0  0  0  0  0  0  # atno 10763 bound_to 10752
  153.4896  135.3675  155.2485 H   0  0  0  0  0  0  0  0  0  0  0  0  # atno 10764 bound_to 10752
  154.8714  135.4086  154.3414 H   0  0  0  0  0  0  0  0  0  0  0  0  # atno 10765 bound_to 10752
  140.7408  134.3517  157.5148 H   0  0  0  0  0  0  0  0  0  0  0  0  # atno 11005 bound_to 11000
  146.3171  140.3451  142.8651 LP  0  0  0  0  0  0  0  0  0  0  0  0  # atno 17320 bound_to 7965
  144.9140  140.7791  143.5789 LP  0  0  0  0  0  0  0  0  0  0  0  0  # atno 17321 bound_to 7965
  139.9332  144.6728  150.8342 LP  0  0  0  0  0  0  0  0  0  0  0  0  # atno 17342 bound_to 10162
  140.7661  143.3295  151.2442 LP  0  0  0  0  0  0  0  0  0  0  0  0  # atno 17343 bound_to 10162
  156.0114  130.5206  150.8000 LP  0  0  0  0  0  0  0  0  0  0  0  0  # atno 17370 bound_to 10713
  157.5275  131.0935  150.9999 LP  0  0  0  0  0  0  0  0  0  0  0  0  # atno 17371 bound_to 10713
  139.8806  134.9079  156.2956 LP  0  0  0  0  0  0  0  0  0  0  0  0  # atno 17394 bound_to 11000
  140.9839  133.7250  156.0712 LP  0  0  0  0  0  0  0  0  0  0  0  0  # atno 17395 bound_to 11000

$$$$
