AV-unprocessed.smi:2140|AV-procd|sdf|8717|dock8
  -GOLD-   2272011483D 1   1.00000     0.00000
 Structure written by MMmdl.
 40 41  0  0  0  0  0  0  0  0  2 V2000
  147.7235  139.5159  153.2798 C   0  0  0  0  0  0  0  0  0  0  0  0
  147.9570  138.5160  154.4387 C   0  0  1  0  0  0  0  0  0  0  0  0
  146.7723  137.5160  154.5256 C   0  0  0  0  0  0  0  0  0  0  0  0
  146.8603  136.4353  153.5471 N   0  0  0  0  0  0  0  0  0  0  0  0
  145.9550  135.4565  153.4065 C   0  0  0  0  0  0  0  0  0  0  0  0
  144.9476  135.3632  154.1076 O   0  0  0  0  0  0  0  0  0  0  0  0
  146.3038  134.6062  152.4262 N   0  0  0  0  0  0  0  0  0  0  0  0
  145.5948  133.4724  151.9444 C   0  0  0  0  0  0  0  0  0  0  0  0
  144.1844  133.3990  151.8373 C   0  0  0  0  0  0  0  0  0  0  0  0
  143.6022  132.2246  151.3230 C   0  0  0  0  0  0  0  0  0  0  0  0
  144.4487  131.1705  150.9288 C   0  0  0  0  0  0  0  0  0  0  0  0
  145.7942  131.2316  151.0129 N   0  0  0  0  0  0  0  0  0  0  0  0
  146.3456  132.3610  151.5061 C   0  0  0  0  0  0  0  0  0  0  0  0
  149.2579  137.7763  154.3370 N   0  3  0  0  0  0  0  0  0  0  0  0
  150.4833  138.6222  154.3807 C   0  0  0  0  0  0  0  0  0  0  0  0
  151.7553  137.7672  154.2441 C   0  0  0  0  0  0  0  0  0  0  0  0
  151.7853  136.7775  155.2613 O   0  0  0  0  0  0  0  0  0  0  0  0
  150.6780  135.8947  155.1605 C   0  0  0  0  0  0  0  0  0  0  0  0
  149.3735  136.6867  155.3453 C   0  0  0  0  0  0  0  0  0  0  0  0
  146.7592  140.0166  153.3656 H   0  0  0  0  0  0  0  0  0  0  0  0
  147.7454  139.0155  152.3112 H   0  0  0  0  0  0  0  0  0  0  0  0
  148.4665  140.3132  153.2714 H   0  0  0  0  0  0  0  0  0  0  0  0
  147.9904  139.1055  155.3564 H   0  0  0  0  0  0  0  0  0  0  0  0
  146.7442  137.0653  155.5183 H   0  0  0  0  0  0  0  0  0  0  0  0
  145.8096  138.0073  154.3929 H   0  0  0  0  0  0  0  0  0  0  0  0
  147.6639  136.4349  152.9356 H   0  0  0  0  0  0  0  0  0  0  0  0
  147.2057  134.7628  152.0003 H   0  0  0  0  0  0  0  0  0  0  0  0
  143.5418  134.2174  152.1222 H   0  0  0  0  0  0  0  0  0  0  0  0
  142.5299  132.1357  151.2286 H   0  0  0  0  0  0  0  0  0  0  0  0
  144.0341  130.2568  150.5295 H   0  0  0  0  0  0  0  0  0  0  0  0
  147.4247  132.3754  151.5559 H   0  0  0  0  0  0  0  0  0  0  0  0
  150.4877  139.3435  153.5643 H   0  0  0  0  0  0  0  0  0  0  0  0
  150.5086  139.1836  155.3161 H   0  0  0  0  0  0  0  0  0  0  0  0
  151.8046  137.2970  153.2605 H   0  0  0  0  0  0  0  0  0  0  0  0
  152.6410  138.3958  154.3391 H   0  0  0  0  0  0  0  0  0  0  0  0
  150.6901  135.3775  154.1996 H   0  0  0  0  0  0  0  0  0  0  0  0
  150.7652  135.1313  155.9339 H   0  0  0  0  0  0  0  0  0  0  0  0
  149.3433  137.1147  156.3487 H   0  0  0  0  0  0  0  0  0  0  0  0
  148.5382  135.9926  155.2757 H   0  0  0  0  0  0  0  0  0  0  0  0
  149.2621  137.3366  153.4276 H   0  0  0  0  0  0  0  0  0  0  0  0
  1  2  1  0  0  0  0
  1 20  1  0  0  0  0
  1 21  1  0  0  0  0
  1 22  1  0  0  0  0
  2  3  1  0  0  0  0
  2 14  1  0  0  0  0
  2 23  1  0  0  0  0
  3  4  1  0  0  0  0
  3 24  1  0  0  0  0
  3 25  1  0  0  0  0
  4  5  1  0  0  0  0
  4 26  1  0  0  0  0
  5  6  2  0  0  0  0
  5  7  1  0  0  0  0
  7  8  1  0  0  0  0
  7 27  1  0  0  0  0
  8 13  1  0  0  0  0
  8  9  2  0  0  0  0
  9 10  1  0  0  0  0
  9 28  1  0  0  0  0
 10 11  2  0  0  0  0
 10 29  1  0  0  0  0
 11 12  1  0  0  0  0
 11 30  1  0  0  0  0
 12 13  2  0  0  0  0
 13 31  1  0  0  0  0
 14 19  1  0  0  0  0
 14 15  1  0  0  0  0
 14 40  1  0  0  0  0
 15 16  1  0  0  0  0
 15 32  1  0  0  0  0
 15 33  1  0  0  0  0
 16 17  1  0  0  0  0
 16 34  1  0  0  0  0
 16 35  1  0  0  0  0
 17 18  1  0  0  0  0
 18 19  1  0  0  0  0
 18 36  1  0  0  0  0
 18 37  1  0  0  0  0
 19 38  1  0  0  0  0
 19 39  1  0  0  0  0
M  CHG  1  14   1
M  END
> <s_m_source_file>
AV-unprocessed.smi

> <i_m_source_file_index>
2140

> <i_lp_mmshare_version>
43012

> <i_f3d_flags>
0

> <s_epik_input>
W0NIMl0xW0NIMl1PW0NIMl1bQ0gyXU4xW0NASF0oW0NIM10pW0NIMl1bTkhdQyg9TylbTkhdYzJbY0hdW2NIXVtjSF1uW2NIXTI=

> <s_epik_cmdline>
J2VwaWtfcHl0aG9uJywgJy1waCcsICc3LjAnLCAnLXRuJywgJzgnLCAnLW1hJywgJzIwMCcsICctbWV0YWxfYmluZGluZycsICctaW1hZScsICc8aW5maWxlLm1hZT4nLCAnLW9tYWUnLCAnPG91dGZpbGUubWFlPic=

> <r_epik_Ionization_Penalty>
0.60672

> <r_epik_Ionization_Penalty_Charging>
0.602531

> <r_epik_Ionization_Penalty_Neutral>
0.00418997

> <r_epik_State_Penalty>
0.607459

> <r_epik_Charging_Adjusted_Penalty>
1.20999

> <i_epik_Tot_Q>
1

> <i_epik_Tot_abs_Q>
1

> <r_epik_Metal_State_Penalty>
0.604586

> <b_epik_Metal_Only>
0

> <s_lp_Force_Field>
OPLS_2005

> <r_lp_Energy>
23.4588

> <b_lp_Chiralities_Consistent>
1

> <s_lp_Variant>
AV-unprocessed.smi:2140-4

> <Gold.Version>
5.8.1

> <Gold.Id.Protein>
6NUR|6NUR_protein|mol2

> <Gold.PLP.Fitness>
44.1796

> <Gold.PLP.PLP>
-28.4041

> <Gold.PLP.part.hbond>
-4.0000

> <Gold.PLP.part.metal>
0.0000

> <Gold.PLP.part.buried>
-3.1600

> <Gold.PLP.part.nonpolar>
-23.0699

> <Gold.PLP.part.repulsive>
0.2775

> <Gold.PLP.ligand.clash>
0.0000

> <Gold.PLP.ligand.torsion>
0.4552

> <Gold.PLP.Chemscore.Hbond>
4.7516

> <Gold.PLP.Chemscore.CHOScore>
0.7938

> <Gold.PLP.Chemscore.Metal>
0.0000

> <Gold.Chemscore.Hbonds>
donor molecule, donor type, donor heavy atom, donor atom, acceptor molecule, acceptor atom, score
      L1  H     4    26       P1  7948  1.00
      L1  H     7    27       P1  7948  0.43
      L1  H    14    40       P1  7948  2.00
      P1  H 10752 10763       L1    17  0.70
      L1  C    13    31       P1 10747  0.92

> <Gold.PLP.Chemscore.Internal.Correction>
0.0498

> <Gold.Rescore>
     Score         DG    S(hbond)    S(metal)    S(lipo)     H(rot)  DE(clash)    DE(int)     intcor
     18.59     -18.99       2.72        0.00      71.11       1.52       0.00       0.40       ----

> <Gold.Chemscore.Fitness>
18.5879

> <Gold.Chemscore.DG>
-18.9863

> <Gold.Chemscore.ZeroCoef>
-5.4800

> <Gold.Chemscore.Hbond>
2.7163

> <Gold.Chemscore.Metal>
0.0000

> <Gold.Chemscore.Lipo>
71.1092

> <Gold.Chemscore.Internal_Hbond>
0.0000

> <Gold.Chemscore.DEClash>
0.0013

> <Gold.Chemscore.DEInternal>
0.3971

> <Gold.Chemscore.Rot>
1.5179

> <Gold.Chemscore.Internal.Correction>
   9.000000E+99

> <Gold.Chemscore.Hbonds>
donor molecule, donor type, donor heavy atom, donor atom, acceptor molecule, acceptor atom, score
      L1  H     4    26       P1  7948  1.00
      L1  H     7    27       P1  7948  0.35
      L1  H    14    40       P1  7948  0.99
      P1  H 10752 10763       L1    17  0.03

> <Gold.Chemscore.Hbond.Weighted>
-9.0724

> <Gold.Chemscore.Metal.Weighted>
-0.0000

> <Gold.Chemscore.Lipo.Weighted>
-8.3198

> <Gold.Chemscore.Internal_Hbond.Weighted>
0.0000

> <Gold.Chemscore.DEClash.Weighted>
0.0013

> <Gold.Chemscore.DEInternal.Weighted>
0.3971

> <Gold.Chemscore.Rot.Weighted>
3.8859

> <Gold.Chemscore.Internal.Correction.Weighted>
   9.000000E+99

> <Gold.Protein.RotatedTorsions>
[ 6907 6896 6895 6894 ] final  -80.02 input  -60.11 | X-H torsion
[ 7974 7965 7964 7962 ] final  -69.67 input  175.53 | X-H torsion
[ 8008 7997 7996 7995 ] final   24.69 input   59.86 | X-H torsion
[ 10167 10162 10161 10158 ] final  121.72 input  -65.29 | X-H torsion
[ 10718 10713 10712 10709 ] final   75.51 input   66.30 | X-H torsion
[ 10763 10752 10751 10750 ] final   62.20 input  -60.55 | X-H torsion
[ 11005 11000 10999 10996 ] final -159.97 input  -57.11 | X-H torsion

> <Gold.Protein.ActiveResidues>
 VAL166  LYS551  ARG553  GLY616  TRP617  ASP618  TYR619  PRO620  LYS621  CYS622 
 ASP623  PHE694  ASN695  SER759  ASP760  ASP761  ALA762  ILE779  LEU786  VAL792 
 PHE793  MET794  SER795  GLU796  ALA797  LYS798  CYS799  TRP800  GLU811  SER814 

> <Gold.Protein.RotatedAtoms>
  150.6938  134.4033  159.5128 H   0  0  0  0  0  0  0  0  0  0  0  0  # atno 6907 bound_to 6896
  152.1803  134.8757  160.0536 H   0  0  0  0  0  0  0  0  0  0  0  0  # atno 6908 bound_to 6896
  151.9750  133.3703  159.4122 H   0  0  0  0  0  0  0  0  0  0  0  0  # atno 6909 bound_to 6896
  145.7008  140.9117  143.0732 H   0  0  0  0  0  0  0  0  0  0  0  0  # atno 7974 bound_to 7965
  155.0001  140.3124  155.4871 H   0  0  0  0  0  0  0  0  0  0  0  0  # atno 8008 bound_to 7997
  156.2926  140.2233  156.5051 H   0  0  0  0  0  0  0  0  0  0  0  0  # atno 8009 bound_to 7997
  154.7626  140.0458  157.0974 H   0  0  0  0  0  0  0  0  0  0  0  0  # atno 8010 bound_to 7997
  139.5902  144.7022  151.3309 H   0  0  0  0  0  0  0  0  0  0  0  0  # atno 10167 bound_to 10162
  157.6637  130.9729  150.1363 H   0  0  0  0  0  0  0  0  0  0  0  0  # atno 10718 bound_to 10713
  152.9975  135.5473  154.6156 H   0  0  0  0  0  0  0  0  0  0  0  0  # atno 10763 bound_to 10752
  154.5467  135.2823  155.1048 H   0  0  0  0  0  0  0  0  0  0  0  0  # atno 10764 bound_to 10752
  154.2304  135.6434  153.5226 H   0  0  0  0  0  0  0  0  0  0  0  0  # atno 10765 bound_to 10752
  140.6367  134.4595  157.5232 H   0  0  0  0  0  0  0  0  0  0  0  0  # atno 11005 bound_to 11000
  144.6969  139.8945  143.7455 LP  0  0  0  0  0  0  0  0  0  0  0  0  # atno 17320 bound_to 7965
  146.0799  139.3787  143.0470 LP  0  0  0  0  0  0  0  0  0  0  0  0  # atno 17321 bound_to 7965
  140.7166  143.7248  150.7668 LP  0  0  0  0  0  0  0  0  0  0  0  0  # atno 17342 bound_to 10162
  140.0802  143.4976  152.2534 LP  0  0  0  0  0  0  0  0  0  0  0  0  # atno 17343 bound_to 10162
  156.2197  130.3673  149.8571 LP  0  0  0  0  0  0  0  0  0  0  0  0  # atno 17370 bound_to 10713
  156.6427  130.8711  151.3517 LP  0  0  0  0  0  0  0  0  0  0  0  0  # atno 17371 bound_to 10713
  139.9095  134.8374  156.1579 LP  0  0  0  0  0  0  0  0  0  0  0  0  # atno 17394 bound_to 11000
  141.0637  133.6829  156.2002 LP  0  0  0  0  0  0  0  0  0  0  0  0  # atno 17395 bound_to 11000

$$$$
