AV-unprocessed.smi:1948|AV-procd|sdf|7875|dock3
  -GOLD-   2272010 23D 1   1.00000     0.00000
 Structure written by MMmdl.
 29 30  0  0  0  0  0  0  0  0  2 V2000
  150.8899  140.9558  157.8723 O   0  0  0  0  0  0  0  0  0  0  0  0
  150.6901  142.0811  157.4089 C   0  0  0  0  0  0  0  0  0  0  0  0
  151.2663  143.2321  157.8246 N   0  5  0  0  0  0  0  0  0  0  0  0
  151.3971  143.4819  159.1380 C   0  0  0  0  0  0  0  0  0  0  0  0
  151.1176  142.5616  160.0747 N   0  0  0  0  0  0  0  0  0  0  0  0
  151.3247  143.0195  161.3689 N   0  0  0  0  0  0  0  0  0  0  0  0
  151.7659  144.2772  161.3744 C   0  0  0  0  0  0  0  0  0  0  0  0
  151.9697  145.0155  159.8000 S   0  0  0  0  0  0  0  0  0  0  0  0
  149.8293  142.2450  156.3936 N   0  0  0  0  0  0  0  0  0  0  0  0
  149.0558  141.1917  155.7411 C   0  0  2  0  0  0  0  0  0  0  0  0
  149.9580  139.9897  155.3905 C   0  0  0  0  0  0  0  0  0  0  0  0
  149.1773  138.9031  154.6337 C   0  0  0  0  0  0  0  0  0  0  0  0
  148.5101  139.4770  153.3722 C   0  0  1  0  0  0  0  0  0  0  0  0
  147.7469  138.4696  152.7421 O   0  0  0  0  0  0  0  0  0  0  0  0
  147.6016  140.6684  153.7205 C   0  0  0  0  0  0  0  0  0  0  0  0
  148.3816  141.7564  154.4763 C   0  0  0  0  0  0  0  0  0  0  0  0
  151.9747  144.7721  162.3109 H   0  0  0  0  0  0  0  0  0  0  0  0
  149.7009  143.1842  156.0465 H   0  0  0  0  0  0  0  0  0  0  0  0
  148.2694  140.8573  156.4206 H   0  0  0  0  0  0  0  0  0  0  0  0
  150.7974  140.3241  154.7791 H   0  0  0  0  0  0  0  0  0  0  0  0
  150.3886  139.5634  156.2974 H   0  0  0  0  0  0  0  0  0  0  0  0
  149.8486  138.0866  154.3656 H   0  0  0  0  0  0  0  0  0  0  0  0
  148.4201  138.4785  155.2946 H   0  0  0  0  0  0  0  0  0  0  0  0
  149.2802  139.8024  152.6718 H   0  0  0  0  0  0  0  0  0  0  0  0
  148.2931  137.7067  152.6300 H   0  0  0  0  0  0  0  0  0  0  0  0
  147.1689  141.0890  152.8120 H   0  0  0  0  0  0  0  0  0  0  0  0
  146.7655  140.3314  154.3352 H   0  0  0  0  0  0  0  0  0  0  0  0
  147.7078  142.5710  154.7446 H   0  0  0  0  0  0  0  0  0  0  0  0
  149.1360  142.1847  153.8146 H   0  0  0  0  0  0  0  0  0  0  0  0
  1  2  2  0  0  0  0
  2  3  1  0  0  0  0
  2  9  1  0  0  0  0
  3  4  1  0  0  0  0
  4  8  1  0  0  0  0
  4  5  2  0  0  0  0
  5  6  1  0  0  0  0
  6  7  2  0  0  0  0
  7  8  1  0  0  0  0
  7 17  1  0  0  0  0
  9 10  1  0  0  0  0
  9 18  1  0  0  0  0
 10 16  1  0  0  0  0
 10 11  1  0  0  0  0
 10 19  1  0  0  0  0
 11 12  1  0  0  0  0
 11 20  1  0  0  0  0
 11 21  1  0  0  0  0
 12 13  1  0  0  0  0
 12 22  1  0  0  0  0
 12 23  1  0  0  0  0
 13 14  1  0  0  0  0
 13 15  1  0  0  0  0
 13 24  1  0  0  0  0
 14 25  1  0  0  0  0
 15 16  1  0  0  0  0
 15 26  1  0  0  0  0
 15 27  1  0  0  0  0
 16 28  1  0  0  0  0
 16 29  1  0  0  0  0
M  CHG  1   3  -1
M  END
> <s_m_source_file>
AV-unprocessed.smi

> <i_m_source_file_index>
1948

> <i_lp_mmshare_version>
43012

> <i_f3d_flags>
0

> <s_epik_input>
czFbY0hdbm5jMVtOSF1DKD1PKVtOSF1bQ0BASF0yW0NIMl1bQ0gyXVtDQEBIXShbT0hdKVtDSDJdW0NIMl0y

> <s_epik_cmdline>
J2VwaWtfcHl0aG9uJywgJy1waCcsICc3LjAnLCAnLXRuJywgJzgnLCAnLW1hJywgJzIwMCcsICctbWV0YWxfYmluZGluZycsICctaW1hZScsICc8aW5maWxlLm1hZT4nLCAnLW9tYWUnLCAnPG91dGZpbGUubWFlPic=

> <r_lp_tautomer_probability>
1

> <r_epik_Ionization_Penalty>
4.52057

> <r_epik_Ionization_Penalty_Charging>
4.4725

> <r_epik_Ionization_Penalty_Neutral>
0.048076

> <r_epik_State_Penalty>
4.47218

> <r_epik_Charging_Adjusted_Penalty>
8.94468

> <i_epik_Tot_Q>
-1

> <i_epik_Tot_abs_Q>
1

> <r_epik_Metal_State_Penalty>
0.805713

> <b_epik_Metal_Only>
1

> <s_lp_Force_Field>
OPLS_2005

> <r_lp_Energy>
5.07153

> <b_lp_Chiralities_Consistent>
1

> <s_lp_Variant>
AV-unprocessed.smi:1948-3

> <Gold.Version>
5.8.1

> <Gold.Id.Protein>
6NUR|6NUR_protein|mol2

> <Gold.PLP.Fitness>
37.1495

> <Gold.PLP.PLP>
-31.2764

> <Gold.PLP.part.hbond>
-4.9933

> <Gold.PLP.part.metal>
0.0000

> <Gold.PLP.part.buried>
-0.9731

> <Gold.PLP.part.nonpolar>
-27.0293

> <Gold.PLP.part.repulsive>
0.3125

> <Gold.PLP.ligand.clash>
0.0000

> <Gold.PLP.ligand.torsion>
0.4743

> <Gold.PLP.Chemscore.Hbond>
2.2722

> <Gold.PLP.Chemscore.CHOScore>
0.0000

> <Gold.PLP.Chemscore.Metal>
0.0000

> <Gold.Chemscore.Hbonds>
donor molecule, donor type, donor heavy atom, donor atom, acceptor molecule, acceptor atom, score
      L1  H     9    18       P1  8028  1.00
      L1  H    14    25       P1  7948  1.00
      P1  H  6933  6945       L1     6  0.32

> <Gold.PLP.Chemscore.Internal.Correction>
0.0052

> <Gold.Rescore>
     Score         DG    S(hbond)    S(metal)    S(lipo)     H(rot)  DE(clash)    DE(int)     intcor
     11.69     -16.89       2.24        0.00      67.21       1.53       1.81       3.39       ----

> <Gold.Chemscore.Fitness>
11.6862

> <Gold.Chemscore.DG>
-16.8873

> <Gold.Chemscore.ZeroCoef>
-5.4800

> <Gold.Chemscore.Hbond>
2.2364

> <Gold.Chemscore.Metal>
0.0000

> <Gold.Chemscore.Lipo>
67.2128

> <Gold.Chemscore.Internal_Hbond>
0.0000

> <Gold.Chemscore.DEClash>
1.8131

> <Gold.Chemscore.DEInternal>
3.3880

> <Gold.Chemscore.Rot>
1.5337

> <Gold.Chemscore.Internal.Correction>
   9.000000E+99

> <Gold.Chemscore.Hbonds>
donor molecule, donor type, donor heavy atom, donor atom, acceptor molecule, acceptor atom, score
      L1  H     9    18       P1  8028  1.00
      L1  H    14    25       P1  7948  0.99
      P1  H  6933  6945       L1     6  0.05

> <Gold.Chemscore.Hbond.Weighted>
-7.4696

> <Gold.Chemscore.Metal.Weighted>
-0.0000

> <Gold.Chemscore.Lipo.Weighted>
-7.8639

> <Gold.Chemscore.Internal_Hbond.Weighted>
0.0000

> <Gold.Chemscore.DEClash.Weighted>
1.8131

> <Gold.Chemscore.DEInternal.Weighted>
3.3880

> <Gold.Chemscore.Rot.Weighted>
3.9262

> <Gold.Chemscore.Internal.Correction.Weighted>
   9.000000E+99

> <Gold.Protein.RotatedTorsions>
[ 6907 6896 6895 6894 ] final   93.01 input  -60.11 | X-H torsion
[ 7974 7965 7964 7962 ] final  -71.26 input  175.53 | X-H torsion
[ 8008 7997 7996 7995 ] final -124.39 input   59.86 | X-H torsion
[ 10167 10162 10161 10158 ] final -123.13 input  -65.29 | X-H torsion
[ 10718 10713 10712 10709 ] final  -39.88 input   66.30 | X-H torsion
[ 10763 10752 10751 10750 ] final  -80.91 input  -60.55 | X-H torsion
[ 11005 11000 10999 10996 ] final  -98.63 input  -57.11 | X-H torsion

> <Gold.Protein.ActiveResidues>
 VAL166  LYS551  ARG553  GLY616  TRP617  ASP618  TYR619  PRO620  LYS621  CYS622 
 ASP623  PHE694  ASN695  SER759  ASP760  ASP761  ALA762  ILE779  LEU786  VAL792 
 PHE793  MET794  SER795  GLU796  ALA797  LYS798  CYS799  TRP800  GLU811  SER814 

> <Gold.Protein.RotatedAtoms>
  152.5453  134.1414  159.8480 H   0  0  0  0  0  0  0  0  0  0  0  0  # atno 6907 bound_to 6896
  151.1450  133.4938  159.2603 H   0  0  0  0  0  0  0  0  0  0  0  0  # atno 6908 bound_to 6896
  151.1532  135.0248  159.8732 H   0  0  0  0  0  0  0  0  0  0  0  0  # atno 6909 bound_to 6896
  145.6804  140.9190  143.0835 H   0  0  0  0  0  0  0  0  0  0  0  0  # atno 7974 bound_to 7965
  155.1961  140.0414  157.2909 H   0  0  0  0  0  0  0  0  0  0  0  0  # atno 8008 bound_to 7997
  154.6106  140.2475  155.7646 H   0  0  0  0  0  0  0  0  0  0  0  0  # atno 8009 bound_to 7997
  156.2377  140.2915  156.0366 H   0  0  0  0  0  0  0  0  0  0  0  0  # atno 8010 bound_to 7997
  140.0068  143.5483  152.2280 H   0  0  0  0  0  0  0  0  0  0  0  0  # atno 10167 bound_to 10162
  156.2875  130.4224  149.8272 H   0  0  0  0  0  0  0  0  0  0  0  0  # atno 10718 bound_to 10713
  154.5571  135.5644  153.6973 H   0  0  0  0  0  0  0  0  0  0  0  0  # atno 10763 bound_to 10752
  153.0006  135.6265  154.2296 H   0  0  0  0  0  0  0  0  0  0  0  0  # atno 10764 bound_to 10752
  154.2232  135.2869  155.2897 H   0  0  0  0  0  0  0  0  0  0  0  0  # atno 10765 bound_to 10752
  141.1338  133.8260  157.0865 H   0  0  0  0  0  0  0  0  0  0  0  0  # atno 11005 bound_to 11000
  144.7028  139.8689  143.7439 LP  0  0  0  0  0  0  0  0  0  0  0  0  # atno 17320 bound_to 7965
  146.0969  139.3962  143.0371 LP  0  0  0  0  0  0  0  0  0  0  0  0  # atno 17321 bound_to 7965
  139.6233  144.7633  151.2693 LP  0  0  0  0  0  0  0  0  0  0  0  0  # atno 17342 bound_to 10162
  140.7397  143.6609  150.8165 LP  0  0  0  0  0  0  0  0  0  0  0  0  # atno 17343 bound_to 10162
  156.5697  130.8419  151.3353 LP  0  0  0  0  0  0  0  0  0  0  0  0  # atno 17370 bound_to 10713
  157.7333  130.9728  150.1970 LP  0  0  0  0  0  0  0  0  0  0  0  0  # atno 17371 bound_to 10713
  140.0419  134.9850  157.0977 LP  0  0  0  0  0  0  0  0  0  0  0  0  # atno 17394 bound_to 11000
  140.4123  134.1969  155.7163 LP  0  0  0  0  0  0  0  0  0  0  0  0  # atno 17395 bound_to 11000

$$$$
