AV-unprocessed.smi:53|AV-procd|sdf|526|dock5
  -GOLD-   2262016403D 1   1.00000     0.00000
 Structure written by MMmdl.
 30 31  0  0  0  0  0  0  0  0  1 V2000
  152.6800  143.5409  159.6602 N   0  0  0  0  0  0  0  0  0  0  0  0
  152.2091  142.5403  158.9022 C   0  0  0  0  0  0  0  0  0  0  0  0
  150.9940  142.7131  158.1388 C   0  0  0  0  0  0  0  0  0  0  0  0
  150.5814  141.6599  157.3994 C   0  0  0  0  0  0  0  0  0  0  0  0
  151.2814  140.4602  157.3650 N   0  0  0  0  0  0  0  0  0  0  0  0
  150.8155  139.2718  156.5416 C   0  0  1  0  0  0  0  0  0  0  0  0
  149.5602  139.5418  155.9879 O   0  0  0  0  0  0  0  0  0  0  0  0
  149.6796  139.7653  154.5864 C   0  0  2  0  0  0  0  0  0  0  0  0
  148.3391  139.5329  153.8684 C   0  0  0  0  0  0  0  0  0  0  0  0
  147.9673  140.6901  153.1503 O   0  0  0  0  0  0  0  0  0  0  0  0
  150.8191  138.8204  154.1869 C   0  0  2  0  0  0  0  0  0  0  0  0
  150.3539  137.4906  154.0383 O   0  0  0  0  0  0  0  0  0  0  0  0
  151.7706  138.9247  155.3715 C   0  0  1  0  0  0  0  0  0  0  0  0
  152.7440  139.9217  155.1095 O   0  0  0  0  0  0  0  0  0  0  0  0
  152.4694  140.3238  158.1228 C   0  0  0  0  0  0  0  0  0  0  0  0
  153.1265  139.2834  158.1107 O   0  0  0  0  0  0  0  0  0  0  0  0
  152.8721  141.4009  158.8661 N   0  0  0  0  0  0  0  0  0  0  0  0
  150.6859  138.4523  157.2515 H   0  0  0  0  0  0  0  0  0  0  0  0
  150.0205  140.7881  154.4153 H   0  0  0  0  0  0  0  0  0  0  0  0
  151.2846  139.1197  153.2466 H   0  0  0  0  0  0  0  0  0  0  0  0
  152.2860  137.9860  155.5794 H   0  0  0  0  0  0  0  0  0  0  0  0
  153.5291  143.4171  160.1922 H   0  0  0  0  0  0  0  0  0  0  0  0
  152.1832  144.4194  159.6962 H   0  0  0  0  0  0  0  0  0  0  0  0
  150.4179  143.6274  158.1377 H   0  0  0  0  0  0  0  0  0  0  0  0
  149.6739  141.7849  156.8290 H   0  0  0  0  0  0  0  0  0  0  0  0
  148.4357  138.7201  153.1481 H   0  0  0  0  0  0  0  0  0  0  0  0
  147.5525  139.2560  154.5712 H   0  0  0  0  0  0  0  0  0  0  0  0
  148.3415  140.6400  152.2839 H   0  0  0  0  0  0  0  0  0  0  0  0
  149.9784  137.3976  153.1763 H   0  0  0  0  0  0  0  0  0  0  0  0
  152.4778  140.3987  154.3379 H   0  0  0  0  0  0  0  0  0  0  0  0
  1  2  1  0  0  0  0
  1 22  1  0  0  0  0
  1 23  1  0  0  0  0
  2 17  2  0  0  0  0
  2  3  1  0  0  0  0
  3  4  2  0  0  0  0
  3 24  1  0  0  0  0
  4  5  1  0  0  0  0
  4 25  1  0  0  0  0
  5  6  1  0  0  0  0
  5 15  1  0  0  0  0
  6 18  1  0  0  0  0
  6 13  1  0  0  0  0
  6  7  1  0  0  0  0
  7  8  1  0  0  0  0
  8 19  1  0  0  0  0
  8  9  1  0  0  0  0
  8 11  1  0  0  0  0
  9 10  1  0  0  0  0
  9 26  1  0  0  0  0
  9 27  1  0  0  0  0
 10 28  1  0  0  0  0
 11 20  1  0  0  0  0
 11 12  1  0  0  0  0
 11 13  1  0  0  0  0
 12 29  1  0  0  0  0
 13 21  1  0  0  0  0
 13 14  1  0  0  0  0
 14 30  1  0  0  0  0
 15 16  2  0  0  0  0
 15 17  1  0  0  0  0
M  END
> <s_m_source_file>
AV-unprocessed.smi

> <i_m_source_file_index>
53

> <i_lp_mmshare_version>
43012

> <i_f3d_flags>
0

> <s_epik_input>
W05IMl1jMVtjSF1bY0hdbihjKD1PKW4xKVtDQEBIXTJPW0NASF0oW0NIMl1bT0hdKVtDQEBIXShbT0hdKVtDQEBIXTJbT0hd

> <s_epik_cmdline>
J2VwaWtfcHl0aG9uJywgJy1waCcsICc3LjAnLCAnLXRuJywgJzgnLCAnLW1hJywgJzIwMCcsICctbWV0YWxfYmluZGluZycsICctaW1hZScsICc8aW5maWxlLm1hZT4nLCAnLW9tYWUnLCAnPG91dGZpbGUubWFlPic=

> <r_lp_tautomer_probability>
0.99996

> <r_epik_Ionization_Penalty>
0.00069087

> <r_epik_Ionization_Penalty_Charging>
2.61959e-08

> <r_epik_Ionization_Penalty_Neutral>
0.000690844

> <r_epik_State_Penalty>
1.15523e-05

> <r_epik_Charging_Adjusted_Penalty>
1.15785e-05

> <i_epik_Tot_Q>
0

> <i_epik_Tot_abs_Q>
0

> <r_epik_Metal_State_Penalty>
-0

> <b_epik_Metal_Only>
0

> <s_epik_Chemistry_Notes>
This compound contains an acetal/aminal-like group ( X-CH(R)-Y where X, Y are N, S, or O) that may be acid/base labile, releasing an aldehyde.

> <s_lp_Force_Field>
OPLS_2005

> <r_lp_Energy>
36.7572

> <b_lp_Chiralities_Consistent>
1

> <s_lp_Variant>
AV-unprocessed.smi:53-14

> <Gold.Version>
5.8.1

> <Gold.Id.Protein>
6NUR|6NUR_protein|mol2

> <Gold.PLP.Fitness>
34.8604

> <Gold.PLP.PLP>
-27.4552

> <Gold.PLP.part.hbond>
-5.7224

> <Gold.PLP.part.metal>
0.0000

> <Gold.PLP.part.buried>
-2.1540

> <Gold.PLP.part.nonpolar>
-18.9116

> <Gold.PLP.part.repulsive>
0.0171

> <Gold.PLP.ligand.clash>
0.0000

> <Gold.PLP.ligand.torsion>
0.8279

> <Gold.PLP.Chemscore.Hbond>
3.0000

> <Gold.PLP.Chemscore.CHOScore>
0.0000

> <Gold.PLP.Chemscore.Metal>
0.0000

> <Gold.Chemscore.Hbonds>
donor molecule, donor type, donor heavy atom, donor atom, acceptor molecule, acceptor atom, score
      L1  H    10    28       P1  7957  1.00
      L1  H    12    29       P1  7948  0.98
      P1  H  7997  8010       L1    14  1.00

> <Gold.PLP.Chemscore.Internal.Correction>
0.0610

> <Gold.Rescore>
     Score         DG    S(hbond)    S(metal)    S(lipo)     H(rot)  DE(clash)    DE(int)     intcor
      8.98      -9.89       2.68        0.00      42.48       3.71       0.02       0.90       ----

> <Gold.Chemscore.Fitness>
8.9810

> <Gold.Chemscore.DG>
-9.8930

> <Gold.Chemscore.ZeroCoef>
-5.4800

> <Gold.Chemscore.Hbond>
2.6763

> <Gold.Chemscore.Metal>
0.0000

> <Gold.Chemscore.Lipo>
42.4825

> <Gold.Chemscore.Internal_Hbond>
0.0000

> <Gold.Chemscore.DEClash>
0.0153

> <Gold.Chemscore.DEInternal>
0.8967

> <Gold.Chemscore.Rot>
3.7095

> <Gold.Chemscore.Internal.Correction>
   9.000000E+99

> <Gold.Chemscore.Hbonds>
donor molecule, donor type, donor heavy atom, donor atom, acceptor molecule, acceptor atom, score
      L1  H    10    28       P1  7957  0.96
      L1  H    12    29       P1  7948  0.27
      P1  H  7997  8010       L1    14  0.99

> <Gold.Chemscore.Hbond.Weighted>
-8.9389

> <Gold.Chemscore.Metal.Weighted>
-0.0000

> <Gold.Chemscore.Lipo.Weighted>
-4.9705

> <Gold.Chemscore.Internal_Hbond.Weighted>
0.0000

> <Gold.Chemscore.DEClash.Weighted>
0.0153

> <Gold.Chemscore.DEInternal.Weighted>
0.8967

> <Gold.Chemscore.Rot.Weighted>
9.4964

> <Gold.Chemscore.Internal.Correction.Weighted>
   9.000000E+99

> <Gold.Protein.RotatedTorsions>
[ 6907 6896 6895 6894 ] final  113.41 input  -60.11 | X-H torsion
[ 7974 7965 7964 7962 ] final  -69.45 input  175.53 | X-H torsion
[ 8008 7997 7996 7995 ] final  101.87 input   59.86 | X-H torsion
[ 10167 10162 10161 10158 ] final   -8.13 input  -65.29 | X-H torsion
[ 10718 10713 10712 10709 ] final  116.16 input   66.30 | X-H torsion
[ 10763 10752 10751 10750 ] final   30.89 input  -60.55 | X-H torsion
[ 11005 11000 10999 10996 ] final  144.18 input  -57.11 | X-H torsion

> <Gold.Protein.ActiveResidues>
 VAL166  LYS551  ARG553  GLY616  TRP617  ASP618  TYR619  PRO620  LYS621  CYS622 
 ASP623  PHE694  ASN695  SER759  ASP760  ASP761  ALA762  ILE779  LEU786  VAL792 
 PHE793  MET794  SER795  GLU796  ALA797  LYS798  CYS799  TRP800  GLU811  SER814 

> <Gold.Protein.RotatedAtoms>
  152.4862  133.8380  159.7137 H   0  0  0  0  0  0  0  0  0  0  0  0  # atno 6907 bound_to 6896
  150.8951  133.7182  159.2900 H   0  0  0  0  0  0  0  0  0  0  0  0  # atno 6908 bound_to 6896
  151.4642  135.1044  159.9785 H   0  0  0  0  0  0  0  0  0  0  0  0  # atno 6909 bound_to 6896
  145.7036  140.9107  143.0718 H   0  0  0  0  0  0  0  0  0  0  0  0  # atno 7974 bound_to 7965
  156.1340  140.3190  155.8392 H   0  0  0  0  0  0  0  0  0  0  0  0  # atno 8008 bound_to 7997
  155.4279  140.0517  157.3038 H   0  0  0  0  0  0  0  0  0  0  0  0  # atno 8009 bound_to 7997
  154.4922  140.2096  155.9537 H   0  0  0  0  0  0  0  0  0  0  0  0  # atno 8010 bound_to 7997
  140.7050  143.6003  150.8805 H   0  0  0  0  0  0  0  0  0  0  0  0  # atno 10167 bound_to 10162
  157.6177  131.1022  150.7434 H   0  0  0  0  0  0  0  0  0  0  0  0  # atno 10718 bound_to 10713
  153.0346  135.6453  154.1114 H   0  0  0  0  0  0  0  0  0  0  0  0  # atno 10763 bound_to 10752
  154.0831  135.2872  155.3288 H   0  0  0  0  0  0  0  0  0  0  0  0  # atno 10764 bound_to 10752
  154.6516  135.5424  153.7973 H   0  0  0  0  0  0  0  0  0  0  0  0  # atno 10765 bound_to 10752
  140.0612  134.9204  157.1186 H   0  0  0  0  0  0  0  0  0  0  0  0  # atno 11005 bound_to 11000
  144.6961  139.8980  143.7457 LP  0  0  0  0  0  0  0  0  0  0  0  0  # atno 17320 bound_to 7965
  146.0776  139.3764  143.0484 LP  0  0  0  0  0  0  0  0  0  0  0  0  # atno 17321 bound_to 7965
  139.9727  143.6039  152.2968 LP  0  0  0  0  0  0  0  0  0  0  0  0  # atno 17342 bound_to 10162
  139.6631  144.7662  151.1924 LP  0  0  0  0  0  0  0  0  0  0  0  0  # atno 17343 bound_to 10162
  156.7797  130.4855  149.5403 LP  0  0  0  0  0  0  0  0  0  0  0  0  # atno 17370 bound_to 10713
  156.1307  130.6176  151.0329 LP  0  0  0  0  0  0  0  0  0  0  0  0  # atno 17371 bound_to 10713
  140.3768  134.2330  155.7173 LP  0  0  0  0  0  0  0  0  0  0  0  0  # atno 17394 bound_to 11000
  141.1974  133.8061  157.0631 LP  0  0  0  0  0  0  0  0  0  0  0  0  # atno 17395 bound_to 11000

$$$$
