AV-unprocessed.smi:2061|AV-procd|sdf|8387|dock10
  -GOLD-   2272011 73D 1   1.00000     0.00000
 Structure written by MMmdl.
 45 46  0  0  0  0  0  0  0  0  3 V2000
  143.8514  132.7393  148.8961 C   0  0  0  0  0  0  0  0  0  0  0  0
  144.5734  133.1035  150.1484 C   0  0  0  0  0  0  0  0  0  0  0  0
  145.8952  133.0920  150.4937 C   0  0  0  0  0  0  0  0  0  0  0  0
  145.8839  133.5546  151.8381 C   0  0  0  0  0  0  0  0  0  0  0  0
  146.9586  133.7356  152.6213 N   0  5  0  0  0  0  0  0  0  0  0  0
  146.8400  134.3775  153.8057 C   0  0  0  0  0  0  0  0  0  0  0  0
  146.1102  134.0554  154.7459 O   0  0  0  0  0  0  0  0  0  0  0  0
  147.6176  135.4631  153.9064 N   0  0  0  0  0  0  0  0  0  0  0  0
  147.6843  136.3514  155.0614 C   0  0  0  0  0  0  0  0  0  0  0  0
  149.1188  136.8890  155.3050 C   0  0  1  0  0  0  0  0  0  0  0  0
  150.0790  135.7162  155.6221 C   0  0  0  0  0  0  0  0  0  0  0  0
  149.6300  137.7046  154.1491 N   0  3  1  0  0  0  0  0  0  0  0  0
  149.1320  139.1044  154.0591 C   0  0  0  0  0  0  0  0  0  0  0  0
  149.7919  139.9979  155.1301 C   0  0  2  0  0  0  0  0  0  0  0  0
  149.3306  141.4555  155.0290 C   0  0  0  0  0  0  0  0  0  0  0  0
  151.2038  139.9684  154.9405 O   0  0  0  0  0  0  0  0  0  0  0  0
  151.7606  138.6621  155.0576 C   0  0  2  0  0  0  0  0  0  0  0  0
  153.2769  138.7747  154.8652 C   0  0  0  0  0  0  0  0  0  0  0  0
  151.1116  137.7371  154.0043 C   0  0  0  0  0  0  0  0  0  0  0  0
  144.6647  133.8375  152.2651 N   0  0  0  0  0  0  0  0  0  0  0  0
  143.8175  133.5443  151.1899 O   0  0  0  0  0  0  0  0  0  0  0  0
  144.2560  133.2866  148.0446 H   0  0  0  0  0  0  0  0  0  0  0  0
  142.7890  132.9720  148.9720 H   0  0  0  0  0  0  0  0  0  0  0  0
  143.9501  131.6732  148.6912 H   0  0  0  0  0  0  0  0  0  0  0  0
  146.7359  132.7971  149.8839 H   0  0  0  0  0  0  0  0  0  0  0  0
  148.2000  135.6909  153.1138 H   0  0  0  0  0  0  0  0  0  0  0  0
  146.9915  137.1848  154.9323 H   0  0  0  0  0  0  0  0  0  0  0  0
  147.3323  135.7578  155.9039 H   0  0  0  0  0  0  0  0  0  0  0  0
  149.0733  137.5250  156.1886 H   0  0  0  0  0  0  0  0  0  0  0  0
  149.6926  135.0670  156.4073 H   0  0  0  0  0  0  0  0  0  0  0  0
  151.0465  136.0552  155.9877 H   0  0  0  0  0  0  0  0  0  0  0  0
  150.2472  135.0952  154.7418 H   0  0  0  0  0  0  0  0  0  0  0  0
  149.3934  139.4885  153.0719 H   0  0  0  0  0  0  0  0  0  0  0  0
  148.0466  139.1673  154.0933 H   0  0  0  0  0  0  0  0  0  0  0  0
  149.5529  139.6322  156.1297 H   0  0  0  0  0  0  0  0  0  0  0  0
  148.2532  141.5367  155.1757 H   0  0  0  0  0  0  0  0  0  0  0  0
  149.5692  141.8798  154.0533 H   0  0  0  0  0  0  0  0  0  0  0  0
  149.8157  142.0708  155.7871 H   0  0  0  0  0  0  0  0  0  0  0  0
  151.5750  138.2831  156.0633 H   0  0  0  0  0  0  0  0  0  0  0  0
  153.7578  137.8009  154.9608 H   0  0  0  0  0  0  0  0  0  0  0  0
  153.7167  139.4359  155.6124 H   0  0  0  0  0  0  0  0  0  0  0  0
  153.5228  139.1745  153.8810 H   0  0  0  0  0  0  0  0  0  0  0  0
  151.5547  136.7444  154.0299 H   0  0  0  0  0  0  0  0  0  0  0  0
  151.3411  138.1190  153.0083 H   0  0  0  0  0  0  0  0  0  0  0  0
  149.2759  137.2353  153.3276 H   0  0  0  0  0  0  0  0  0  0  0  0
  1  2  1  0  0  0  0
  1 22  1  0  0  0  0
  1 23  1  0  0  0  0
  1 24  1  0  0  0  0
  2 21  1  0  0  0  0
  2  3  2  0  0  0  0
  3  4  1  0  0  0  0
  3 25  1  0  0  0  0
  4  5  1  0  0  0  0
  4 20  2  0  0  0  0
  5  6  1  0  0  0  0
  6  7  2  0  0  0  0
  6  8  1  0  0  0  0
  8  9  1  0  0  0  0
  8 26  1  0  0  0  0
  9 10  1  0  0  0  0
  9 27  1  0  0  0  0
  9 28  1  0  0  0  0
 10 11  1  0  0  0  0
 10 12  1  0  0  0  0
 10 29  1  0  0  0  0
 11 30  1  0  0  0  0
 11 31  1  0  0  0  0
 11 32  1  0  0  0  0
 12 19  1  0  0  0  0
 12 13  1  0  0  0  0
 12 45  1  0  0  0  0
 13 14  1  0  0  0  0
 13 33  1  0  0  0  0
 13 34  1  0  0  0  0
 14 15  1  0  0  0  0
 14 16  1  0  0  0  0
 14 35  1  0  0  0  0
 15 36  1  0  0  0  0
 15 37  1  0  0  0  0
 15 38  1  0  0  0  0
 16 17  1  0  0  0  0
 17 18  1  0  0  0  0
 17 19  1  0  0  0  0
 17 39  1  0  0  0  0
 18 40  1  0  0  0  0
 18 41  1  0  0  0  0
 18 42  1  0  0  0  0
 19 43  1  0  0  0  0
 19 44  1  0  0  0  0
 20 21  1  0  0  0  0
M  CHG  1   5  -1
M  CHG  1  12   1
M  END
> <s_m_source_file>
AV-unprocessed.smi

> <i_m_source_file_index>
2061

> <i_lp_mmshare_version>
43012

> <i_f3d_flags>
0

> <s_epik_input>
W0NIM11jMVtjSF1jKG5vMSlbTkhdQyg9TylbTkhdW0NIMl1bQ0BIXShbQ0gzXSlOMltDSDJdW0NAQEhdKFtDSDNdKU9bQ0BASF0oW0NIM10pW0NIMl0y

> <s_epik_cmdline>
J2VwaWtfcHl0aG9uJywgJy1waCcsICc3LjAnLCAnLXRuJywgJzgnLCAnLW1hJywgJzIwMCcsICctbWV0YWxfYmluZGluZycsICctaW1hZScsICc8aW5maWxlLm1hZT4nLCAnLW9tYWUnLCAnPG91dGZpbGUubWFlPic=

> <r_epik_Ionization_Penalty>
6.73511

> <r_epik_Ionization_Penalty_Charging>
6.73502

> <r_epik_Ionization_Penalty_Neutral>
9.50841e-05

> <r_epik_State_Penalty>
6.93549

> <r_epik_Charging_Adjusted_Penalty>
13.6705

> <i_epik_Tot_Q>
0

> <i_epik_Tot_abs_Q>
2

> <r_epik_Metal_State_Penalty>
2.87211

> <b_epik_Metal_Only>
1

> <s_lp_Force_Field>
OPLS_2005

> <r_lp_Energy>
11.5912

> <b_lp_Chiralities_Consistent>
1

> <s_lp_Variant>
AV-unprocessed.smi:2061-28

> <Gold.Version>
5.8.1

> <Gold.Id.Protein>
6NUR|6NUR_protein|mol2

> <Gold.PLP.Fitness>
43.2599

> <Gold.PLP.PLP>
-33.7302

> <Gold.PLP.part.hbond>
-3.0000

> <Gold.PLP.part.metal>
0.0000

> <Gold.PLP.part.buried>
-3.2394

> <Gold.PLP.part.nonpolar>
-29.1174

> <Gold.PLP.part.repulsive>
0.5278

> <Gold.PLP.ligand.clash>
0.0000

> <Gold.PLP.ligand.torsion>
1.2717

> <Gold.PLP.Chemscore.Hbond>
4.0000

> <Gold.PLP.Chemscore.CHOScore>
0.0000

> <Gold.PLP.Chemscore.Metal>
0.0000

> <Gold.Chemscore.Hbonds>
donor molecule, donor type, donor heavy atom, donor atom, acceptor molecule, acceptor atom, score
      L1  H     8    26       P1  7948  1.00
      L1  H    12    45       P1  7948  2.00
      P1  H  7989  7998       L1    16  1.00

> <Gold.PLP.Chemscore.Internal.Correction>
0.0731

> <Gold.Rescore>
     Score         DG    S(hbond)    S(metal)    S(lipo)     H(rot)  DE(clash)    DE(int)     intcor
     17.90     -20.91       2.78        0.00      86.54       1.56       0.52       2.49       ----

> <Gold.Chemscore.Fitness>
17.9006

> <Gold.Chemscore.DG>
-20.9105

> <Gold.Chemscore.ZeroCoef>
-5.4800

> <Gold.Chemscore.Hbond>
2.7804

> <Gold.Chemscore.Metal>
0.0000

> <Gold.Chemscore.Lipo>
86.5372

> <Gold.Chemscore.Internal_Hbond>
0.0000

> <Gold.Chemscore.DEClash>
0.5181

> <Gold.Chemscore.DEInternal>
2.4918

> <Gold.Chemscore.Rot>
1.5550

> <Gold.Chemscore.Internal.Correction>
   9.000000E+99

> <Gold.Chemscore.Hbonds>
donor molecule, donor type, donor heavy atom, donor atom, acceptor molecule, acceptor atom, score
      L1  H     8    26       P1  7948  0.94
      L1  H    12    45       P1  7948  0.98
      P1  H  7989  7998       L1    16  0.69

> <Gold.Chemscore.Hbond.Weighted>
-9.2865

> <Gold.Chemscore.Metal.Weighted>
-0.0000

> <Gold.Chemscore.Lipo.Weighted>
-10.1248

> <Gold.Chemscore.Internal_Hbond.Weighted>
0.0000

> <Gold.Chemscore.DEClash.Weighted>
0.5181

> <Gold.Chemscore.DEInternal.Weighted>
2.4918

> <Gold.Chemscore.Rot.Weighted>
3.9809

> <Gold.Chemscore.Internal.Correction.Weighted>
   9.000000E+99

> <Gold.Protein.RotatedTorsions>
[ 6907 6896 6895 6894 ] final -153.22 input  -60.11 | X-H torsion
[ 7974 7965 7964 7962 ] final  -27.20 input  175.53 | X-H torsion
[ 8008 7997 7996 7995 ] final -168.41 input   59.86 | X-H torsion
[ 10167 10162 10161 10158 ] final   -9.42 input  -65.29 | X-H torsion
[ 10718 10713 10712 10709 ] final  -41.93 input   66.30 | X-H torsion
[ 10763 10752 10751 10750 ] final   90.42 input  -60.55 | X-H torsion
[ 11005 11000 10999 10996 ] final -116.19 input  -57.11 | X-H torsion

> <Gold.Protein.ActiveResidues>
 VAL166  LYS551  ARG553  GLY616  TRP617  ASP618  TYR619  PRO620  LYS621  CYS622 
 ASP623  PHE694  ASN695  SER759  ASP760  ASP761  ALA762  ILE779  LEU786  VAL792 
 PHE793  MET794  SER795  GLU796  ALA797  LYS798  CYS799  TRP800  GLU811  SER814 

> <Gold.Protein.RotatedAtoms>
  151.2394  133.4407  159.2606 H   0  0  0  0  0  0  0  0  0  0  0  0  # atno 6907 bound_to 6896
  151.0719  134.9804  159.8323 H   0  0  0  0  0  0  0  0  0  0  0  0  # atno 6908 bound_to 6896
  152.5413  134.2339  159.8888 H   0  0  0  0  0  0  0  0  0  0  0  0  # atno 6909 bound_to 6896
  146.1374  140.5120  142.8667 H   0  0  0  0  0  0  0  0  0  0  0  0  # atno 7974 bound_to 7965
  155.8910  140.1025  157.1418 H   0  0  0  0  0  0  0  0  0  0  0  0  # atno 8008 bound_to 7997
  154.4015  140.1310  156.4380 H   0  0  0  0  0  0  0  0  0  0  0  0  # atno 8009 bound_to 7997
  155.7533  140.3464  155.5163 H   0  0  0  0  0  0  0  0  0  0  0  0  # atno 8010 bound_to 7997
  140.7087  143.5860  150.8943 H   0  0  0  0  0  0  0  0  0  0  0  0  # atno 10167 bound_to 10162
  156.2651  130.4201  149.8499 H   0  0  0  0  0  0  0  0  0  0  0  0  # atno 10718 bound_to 10713
  153.1974  135.4434  155.0224 H   0  0  0  0  0  0  0  0  0  0  0  0  # atno 10763 bound_to 10752
  154.8126  135.3301  154.7265 H   0  0  0  0  0  0  0  0  0  0  0  0  # atno 10764 bound_to 10752
  153.7713  135.6984  153.4961 H   0  0  0  0  0  0  0  0  0  0  0  0  # atno 10765 bound_to 10752
  141.0438  133.9794  157.2951 H   0  0  0  0  0  0  0  0  0  0  0  0  # atno 11005 bound_to 11000
  144.7754  140.5729  143.6641 LP  0  0  0  0  0  0  0  0  0  0  0  0  # atno 17320 bound_to 7965
  145.5125  139.1479  143.3597 LP  0  0  0  0  0  0  0  0  0  0  0  0  # atno 17321 bound_to 7965
  139.9586  143.6190  152.3009 LP  0  0  0  0  0  0  0  0  0  0  0  0  # atno 17342 bound_to 10162
  139.6734  144.7660  151.1740 LP  0  0  0  0  0  0  0  0  0  0  0  0  # atno 17343 bound_to 10162
  156.6001  130.8543  151.3429 LP  0  0  0  0  0  0  0  0  0  0  0  0  # atno 17370 bound_to 10713
  157.7264  130.9629  150.1656 LP  0  0  0  0  0  0  0  0  0  0  0  0  # atno 17371 bound_to 10713
  139.9296  135.0200  156.8355 LP  0  0  0  0  0  0  0  0  0  0  0  0  # atno 17394 bound_to 11000
  140.6184  134.0016  155.7607 LP  0  0  0  0  0  0  0  0  0  0  0  0  # atno 17395 bound_to 11000

$$$$
