AV-unprocessed.smi:2044|AV-procd|sdf|8307|dock4
  -GOLD-   2272010573D 1   1.00000     0.00000
 Structure written by MMmdl.
 39 40  0  0  0  0  0  0  0  0  3 V2000
  151.8105  144.9601  159.5350 C   0  0  0  0  0  0  0  0  0  0  0  0
  151.7423  143.6573  158.8138 C   0  0  0  0  0  0  0  0  0  0  0  0
  151.2673  143.3020  157.5828 C   0  0  0  0  0  0  0  0  0  0  0  0
  151.5098  141.9034  157.5361 C   0  0  0  0  0  0  0  0  0  0  0  0
  151.1556  141.1446  156.3896 N   0  0  0  0  0  0  0  0  0  0  0  0
  151.8021  140.1007  155.8404 C   0  0  0  0  0  0  0  0  0  0  0  0
  152.8216  139.6461  156.3733 O   0  0  0  0  0  0  0  0  0  0  0  0
  151.2137  139.6742  154.6884 N   0  5  0  0  0  0  0  0  0  0  0  0
  150.9120  138.2755  154.3638 C   0  0  0  0  0  0  0  0  0  0  0  0
  149.4603  137.8876  154.7609 C   0  0  1  0  0  0  0  0  0  0  0  0
  148.3742  138.8546  154.2262 C   0  0  0  0  0  0  0  0  0  0  0  0
  149.1944  136.4395  154.4847 N   0  3  0  0  0  0  0  0  0  0  0  0
  150.3005  135.5313  154.8728 C   0  0  0  0  0  0  0  0  0  0  0  0
  150.0276  134.1132  154.3423 C   0  0  0  0  0  0  0  0  0  0  0  0
  148.7721  133.6479  154.8237 O   0  0  0  0  0  0  0  0  0  0  0  0
  147.6961  134.4734  154.3931 C   0  0  0  0  0  0  0  0  0  0  0  0
  147.8909  135.8923  154.9482 C   0  0  0  0  0  0  0  0  0  0  0  0
  152.0884  141.4477  158.6376 N   0  0  0  0  0  0  0  0  0  0  0  0
  152.2370  142.5684  159.4631 O   0  0  0  0  0  0  0  0  0  0  0  0
  152.0902  145.7645  158.8545 H   0  0  0  0  0  0  0  0  0  0  0  0
  152.5479  144.9265  160.3375 H   0  0  0  0  0  0  0  0  0  0  0  0
  150.8441  145.2085  159.9735 H   0  0  0  0  0  0  0  0  0  0  0  0
  150.8173  143.9411  156.8375 H   0  0  0  0  0  0  0  0  0  0  0  0
  150.3173  141.4414  155.9123 H   0  0  0  0  0  0  0  0  0  0  0  0
  151.0497  138.0653  153.3021 H   0  0  0  0  0  0  0  0  0  0  0  0
  151.6024  137.6031  154.8731 H   0  0  0  0  0  0  0  0  0  0  0  0
  149.4340  138.0137  155.8442 H   0  0  0  0  0  0  0  0  0  0  0  0
  148.5483  139.8797  154.5585 H   0  0  0  0  0  0  0  0  0  0  0  0
  147.3888  138.5732  154.5984 H   0  0  0  0  0  0  0  0  0  0  0  0
  148.3220  138.8744  153.1364 H   0  0  0  0  0  0  0  0  0  0  0  0
  151.2439  135.8929  154.4617 H   0  0  0  0  0  0  0  0  0  0  0  0
  150.4020  135.5204  155.9590 H   0  0  0  0  0  0  0  0  0  0  0  0
  150.0369  134.0995  153.2509 H   0  0  0  0  0  0  0  0  0  0  0  0
  150.8093  133.4306  154.6757 H   0  0  0  0  0  0  0  0  0  0  0  0
  147.6382  134.4851  153.3033 H   0  0  0  0  0  0  0  0  0  0  0  0
  146.7591  134.0521  154.7577 H   0  0  0  0  0  0  0  0  0  0  0  0
  147.8567  135.8653  156.0379 H   0  0  0  0  0  0  0  0  0  0  0  0
  147.0693  136.5250  154.6124 H   0  0  0  0  0  0  0  0  0  0  0  0
  149.1559  136.3929  153.4754 H   0  0  0  0  0  0  0  0  0  0  0  0
  1  2  1  0  0  0  0
  1 20  1  0  0  0  0
  1 21  1  0  0  0  0
  1 22  1  0  0  0  0
  2 19  1  0  0  0  0
  2  3  2  0  0  0  0
  3  4  1  0  0  0  0
  3 23  1  0  0  0  0
  4  5  1  0  0  0  0
  4 18  2  0  0  0  0
  5  6  1  0  0  0  0
  5 24  1  0  0  0  0
  6  7  2  0  0  0  0
  6  8  1  0  0  0  0
  8  9  1  0  0  0  0
  9 10  1  0  0  0  0
  9 25  1  0  0  0  0
  9 26  1  0  0  0  0
 10 11  1  0  0  0  0
 10 12  1  0  0  0  0
 10 27  1  0  0  0  0
 11 28  1  0  0  0  0
 11 29  1  0  0  0  0
 11 30  1  0  0  0  0
 12 17  1  0  0  0  0
 12 13  1  0  0  0  0
 12 39  1  0  0  0  0
 13 14  1  0  0  0  0
 13 31  1  0  0  0  0
 13 32  1  0  0  0  0
 14 15  1  0  0  0  0
 14 33  1  0  0  0  0
 14 34  1  0  0  0  0
 15 16  1  0  0  0  0
 16 17  1  0  0  0  0
 16 35  1  0  0  0  0
 16 36  1  0  0  0  0
 17 37  1  0  0  0  0
 17 38  1  0  0  0  0
 18 19  1  0  0  0  0
M  CHG  1   8  -1
M  CHG  1  12   1
M  END
> <s_m_source_file>
AV-unprocessed.smi

> <i_m_source_file_index>
2044

> <i_lp_mmshare_version>
43012

> <i_f3d_flags>
0

> <s_epik_input>
W0NIM11jMVtjSF1jKG5vMSlbTkhdQyg9TylbTkhdW0NIMl1bQ0BIXShbQ0gzXSlOMltDSDJdW0NIMl1PW0NIMl1bQ0gyXTI=

> <s_epik_cmdline>
J2VwaWtfcHl0aG9uJywgJy1waCcsICc3LjAnLCAnLXRuJywgJzgnLCAnLW1hJywgJzIwMCcsICctbWV0YWxfYmluZGluZycsICctaW1hZScsICc8aW5maWxlLm1hZT4nLCAnLW9tYWUnLCAnPG91dGZpbGUubWFlPic=

> <r_epik_Ionization_Penalty>
6.79272

> <r_epik_Ionization_Penalty_Charging>
6.79272

> <r_epik_Ionization_Penalty_Neutral>
5.6208e-06

> <r_epik_State_Penalty>
7.45901

> <r_epik_Charging_Adjusted_Penalty>
14.2517

> <i_epik_Tot_Q>
0

> <i_epik_Tot_abs_Q>
2

> <r_epik_Metal_State_Penalty>
3.38639

> <b_epik_Metal_Only>
1

> <s_lp_Force_Field>
OPLS_2005

> <r_lp_Energy>
15.3215

> <b_lp_Chiralities_Consistent>
1

> <s_lp_Variant>
AV-unprocessed.smi:2044-10

> <Gold.Version>
5.8.1

> <Gold.Id.Protein>
6NUR|6NUR_protein|mol2

> <Gold.PLP.Fitness>
42.9842

> <Gold.PLP.PLP>
-32.6519

> <Gold.PLP.part.hbond>
-3.0000

> <Gold.PLP.part.metal>
0.0000

> <Gold.PLP.part.buried>
-6.3461

> <Gold.PLP.part.nonpolar>
-23.9266

> <Gold.PLP.part.repulsive>
0.2546

> <Gold.PLP.ligand.clash>
0.0000

> <Gold.PLP.ligand.torsion>
0.9688

> <Gold.PLP.Chemscore.Hbond>
4.0000

> <Gold.PLP.Chemscore.CHOScore>
0.0000

> <Gold.PLP.Chemscore.Metal>
0.0000

> <Gold.Chemscore.Hbonds>
donor molecule, donor type, donor heavy atom, donor atom, acceptor molecule, acceptor atom, score
      L1  H    12    39       P1  7948  2.00
      P1  H  7989  7998       L1     8  1.00
      P1  H  7997  8010       L1     7  1.00

> <Gold.PLP.Chemscore.Internal.Correction>
0.2699

> <Gold.Rescore>
     Score         DG    S(hbond)    S(metal)    S(lipo)     H(rot)  DE(clash)    DE(int)     intcor
     17.93     -19.23       2.84        0.00      71.39       1.59       0.06       1.24       ----

> <Gold.Chemscore.Fitness>
17.9345

> <Gold.Chemscore.DG>
-19.2313

> <Gold.Chemscore.ZeroCoef>
-5.4800

> <Gold.Chemscore.Hbond>
2.8373

> <Gold.Chemscore.Metal>
0.0000

> <Gold.Chemscore.Lipo>
71.3917

> <Gold.Chemscore.Internal_Hbond>
0.0000

> <Gold.Chemscore.DEClash>
0.0579

> <Gold.Chemscore.DEInternal>
1.2389

> <Gold.Chemscore.Rot>
1.5930

> <Gold.Chemscore.Internal.Correction>
   9.000000E+99

> <Gold.Chemscore.Hbonds>
donor molecule, donor type, donor heavy atom, donor atom, acceptor molecule, acceptor atom, score
      L1  H    12    39       P1  7948  0.96
      P1  H  7989  7998       L1     8  0.50
      P1  H  7997  8010       L1     7  0.98

> <Gold.Chemscore.Hbond.Weighted>
-9.4765

> <Gold.Chemscore.Metal.Weighted>
-0.0000

> <Gold.Chemscore.Lipo.Weighted>
-8.3528

> <Gold.Chemscore.Internal_Hbond.Weighted>
0.0000

> <Gold.Chemscore.DEClash.Weighted>
0.0579

> <Gold.Chemscore.DEInternal.Weighted>
1.2389

> <Gold.Chemscore.Rot.Weighted>
4.0781

> <Gold.Chemscore.Internal.Correction.Weighted>
   9.000000E+99

> <Gold.Protein.RotatedTorsions>
[ 6907 6896 6895 6894 ] final  -53.25 input  -60.11 | X-H torsion
[ 7974 7965 7964 7962 ] final -133.44 input  175.53 | X-H torsion
[ 8008 7997 7996 7995 ] final   78.64 input   59.86 | X-H torsion
[ 10167 10162 10161 10158 ] final   79.82 input  -65.29 | X-H torsion
[ 10718 10713 10712 10709 ] final  152.75 input   66.30 | X-H torsion
[ 10763 10752 10751 10750 ] final -106.76 input  -60.55 | X-H torsion
[ 11005 11000 10999 10996 ] final  174.18 input  -57.11 | X-H torsion

> <Gold.Protein.ActiveResidues>
 VAL166  LYS551  ARG553  GLY616  TRP617  ASP618  TYR619  PRO620  LYS621  CYS622 
 ASP623  PHE694  ASN695  SER759  ASP760  ASP761  ALA762  ILE779  LEU786  VAL792 
 PHE793  MET794  SER795  GLU796  ALA797  LYS798  CYS799  TRP800  GLU811  SER814 

> <Gold.Protein.RotatedAtoms>
  150.8443  134.7747  159.6957 H   0  0  0  0  0  0  0  0  0  0  0  0  # atno 6907 bound_to 6896
  152.4524  134.5362  159.9835 H   0  0  0  0  0  0  0  0  0  0  0  0  # atno 6908 bound_to 6896
  151.5496  133.3382  159.2986 H   0  0  0  0  0  0  0  0  0  0  0  0  # atno 6909 bound_to 6896
  144.9193  140.6994  143.4975 H   0  0  0  0  0  0  0  0  0  0  0  0  # atno 7974 bound_to 7965
  155.8586  140.3455  155.5741 H   0  0  0  0  0  0  0  0  0  0  0  0  # atno 8008 bound_to 7997
  155.7958  140.0878  157.2003 H   0  0  0  0  0  0  0  0  0  0  0  0  # atno 8009 bound_to 7997
  154.4010  140.1474  156.3204 H   0  0  0  0  0  0  0  0  0  0  0  0  # atno 8010 bound_to 7997
  139.9563  144.5991  150.8113 H   0  0  0  0  0  0  0  0  0  0  0  0  # atno 10167 bound_to 10162
  157.2537  131.0784  151.1712 H   0  0  0  0  0  0  0  0  0  0  0  0  # atno 10718 bound_to 10713
  154.8033  135.4700  154.0329 H   0  0  0  0  0  0  0  0  0  0  0  0  # atno 10763 bound_to 10752
  153.1818  135.6841  153.8475 H   0  0  0  0  0  0  0  0  0  0  0  0  # atno 10764 bound_to 10752
  153.8023  135.3228  155.3369 H   0  0  0  0  0  0  0  0  0  0  0  0  # atno 10765 bound_to 10752
  140.3485  134.7215  157.4252 H   0  0  0  0  0  0  0  0  0  0  0  0  # atno 11005 bound_to 11000
  145.3323  139.1756  143.4530 LP  0  0  0  0  0  0  0  0  0  0  0  0  # atno 17320 bound_to 7965
  146.3197  140.3354  142.8643 LP  0  0  0  0  0  0  0  0  0  0  0  0  # atno 17321 bound_to 7965
  140.7567  143.3071  151.2934 LP  0  0  0  0  0  0  0  0  0  0  0  0  # atno 17342 bound_to 10162
  139.6589  144.0226  152.2678 LP  0  0  0  0  0  0  0  0  0  0  0  0  # atno 17343 bound_to 10162
  157.3250  130.6956  149.6291 LP  0  0  0  0  0  0  0  0  0  0  0  0  # atno 17370 bound_to 10713
  155.9665  130.4324  150.4962 LP  0  0  0  0  0  0  0  0  0  0  0  0  # atno 17371 bound_to 10713
  140.0722  134.5846  155.8629 LP  0  0  0  0  0  0  0  0  0  0  0  0  # atno 17394 bound_to 11000
  141.2019  133.6621  156.5974 LP  0  0  0  0  0  0  0  0  0  0  0  0  # atno 17395 bound_to 11000

$$$$
