AV-unprocessed.smi:812|AV-procd|sdf|3815|dock4
  -GOLD-   22720 1253D 1   1.00000     0.00000
 Structure written by MMmdl.
 38 40  0  0  0  0  0  0  0  0  1 V2000
  152.0873  142.0888  158.4960 C   0  0  0  0  0  0  0  0  0  0  0  0
  151.6211  141.1815  157.4307 N   0  0  0  0  0  0  0  0  0  0  0  0
  150.6406  141.6269  156.5834 C   0  0  0  0  0  0  0  0  0  0  0  0
  150.1102  142.7375  156.6376 O   0  0  0  0  0  0  0  0  0  0  0  0
  150.2476  140.6481  155.5666 C   0  0  0  0  0  0  0  0  0  0  0  0
  150.8051  139.4172  155.4714 C   0  0  0  0  0  0  0  0  0  0  0  0
  150.2514  138.6899  154.4236 N   0  0  0  0  0  0  0  0  0  0  0  0
  149.3600  139.5504  153.9292 C   0  0  0  0  0  0  0  0  0  0  0  0
  149.2934  140.7429  154.5560 N   0  0  0  0  0  0  0  0  0  0  0  0
  148.4112  141.8497  154.2197 C   0  0  0  0  0  0  0  0  0  0  0  0
  146.9221  141.4508  154.2336 C   0  0  2  0  0  0  0  0  0  0  0  0
  146.6461  140.5791  153.1538 O   0  0  0  0  0  0  0  0  0  0  0  0
  146.0246  142.6784  154.2286 C   0  0  0  0  0  0  0  0  0  0  0  0
  146.0322  143.5502  153.1187 C   0  0  0  0  0  0  0  0  0  0  0  0
  145.1966  144.6842  153.1008 C   0  0  0  0  0  0  0  0  0  0  0  0
  144.3466  144.9509  154.1915 C   0  0  0  0  0  0  0  0  0  0  0  0
  143.5431  146.0405  154.1739 F   0  0  0  0  0  0  0  0  0  0  0  0
  144.3314  144.0826  155.2998 C   0  0  0  0  0  0  0  0  0  0  0  0
  145.1670  142.9487  155.3182 C   0  0  0  0  0  0  0  0  0  0  0  0
  151.8144  139.0556  156.3977 N   0  0  0  0  0  0  0  0  0  0  0  0
  152.3948  137.7162  156.2645 C   0  0  0  0  0  0  0  0  0  0  0  0
  152.2186  139.9329  157.3753 C   0  0  0  0  0  0  0  0  0  0  0  0
  153.0936  139.6140  158.1849 O   0  0  0  0  0  0  0  0  0  0  0  0
  151.6189  143.0736  158.4985 H   0  0  0  0  0  0  0  0  0  0  0  0
  153.1615  142.2597  158.4090 H   0  0  0  0  0  0  0  0  0  0  0  0
  151.8962  141.6508  159.4770 H   0  0  0  0  0  0  0  0  0  0  0  0
  148.7313  139.3043  153.0859 H   0  0  0  0  0  0  0  0  0  0  0  0
  148.5968  142.6644  154.9200 H   0  0  0  0  0  0  0  0  0  0  0  0
  148.6906  142.2270  153.2348 H   0  0  0  0  0  0  0  0  0  0  0  0
  146.7148  140.8852  155.1426 H   0  0  0  0  0  0  0  0  0  0  0  0
  145.7111  140.5602  153.0161 H   0  0  0  0  0  0  0  0  0  0  0  0
  146.6777  143.3515  152.2755 H   0  0  0  0  0  0  0  0  0  0  0  0
  145.2069  145.3486  152.2493 H   0  0  0  0  0  0  0  0  0  0  0  0
  143.6780  144.2849  156.1355 H   0  0  0  0  0  0  0  0  0  0  0  0
  145.1444  142.2862  156.1711 H   0  0  0  0  0  0  0  0  0  0  0  0
  153.1634  137.4818  157.0013 H   0  0  0  0  0  0  0  0  0  0  0  0
  152.8467  137.6040  155.2784 H   0  0  0  0  0  0  0  0  0  0  0  0
  151.6133  136.9618  156.3610 H   0  0  0  0  0  0  0  0  0  0  0  0
  1  2  1  0  0  0  0
  1 24  1  0  0  0  0
  1 25  1  0  0  0  0
  1 26  1  0  0  0  0
  2 22  1  0  0  0  0
  2  3  1  0  0  0  0
  3  4  2  0  0  0  0
  3  5  1  0  0  0  0
  5  9  1  0  0  0  0
  5  6  2  0  0  0  0
  6  7  1  0  0  0  0
  6 20  1  0  0  0  0
  7  8  2  0  0  0  0
  8  9  1  0  0  0  0
  8 27  1  0  0  0  0
  9 10  1  0  0  0  0
 10 11  1  0  0  0  0
 10 28  1  0  0  0  0
 10 29  1  0  0  0  0
 11 12  1  0  0  0  0
 11 13  1  0  0  0  0
 11 30  1  0  0  0  0
 12 31  1  0  0  0  0
 13 19  1  0  0  0  0
 13 14  2  0  0  0  0
 14 15  1  0  0  0  0
 14 32  1  0  0  0  0
 15 16  2  0  0  0  0
 15 33  1  0  0  0  0
 16 17  1  0  0  0  0
 16 18  1  0  0  0  0
 18 19  2  0  0  0  0
 18 34  1  0  0  0  0
 19 35  1  0  0  0  0
 20 21  1  0  0  0  0
 20 22  1  0  0  0  0
 21 36  1  0  0  0  0
 21 37  1  0  0  0  0
 21 38  1  0  0  0  0
 22 23  2  0  0  0  0
M  END
> <s_m_source_file>
AV-unprocessed.smi

> <i_m_source_file_index>
812

> <i_lp_mmshare_version>
43012

> <i_f3d_flags>
0

> <s_epik_input>
Tz1jMW4oW0NIM10pYyg9TyluKFtDSDNdKWMoYzEyKW5bY0hdbjJbQ0gyXVtDQEhdKFtPSF0pYzNbY0hdW2NIXWMoRilbY0hdW2NIXTM=

> <s_epik_cmdline>
J2VwaWtfcHl0aG9uJywgJy1waCcsICc3LjAnLCAnLXRuJywgJzgnLCAnLW1hJywgJzIwMCcsICctbWV0YWxfYmluZGluZycsICctaW1hZScsICc8aW5maWxlLm1hZT4nLCAnLW9tYWUnLCAnPG91dGZpbGUubWFlPic=

> <r_lp_tautomer_probability>
1

> <r_epik_Ionization_Penalty>
1.45649e-06

> <r_epik_Ionization_Penalty_Charging>
3.74189e-09

> <r_epik_Ionization_Penalty_Neutral>
1.45275e-06

> <r_epik_State_Penalty>
-0

> <r_epik_Charging_Adjusted_Penalty>
3.74189e-09

> <i_epik_Tot_Q>
0

> <i_epik_Tot_abs_Q>
0

> <r_epik_Metal_State_Penalty>
-0

> <b_epik_Metal_Only>
0

> <s_lp_Force_Field>
OPLS_2005

> <r_lp_Energy>
34.9814

> <b_lp_Chiralities_Consistent>
1

> <s_lp_Variant>
AV-unprocessed.smi:812-1

> <Gold.Version>
5.8.1

> <Gold.Id.Protein>
6NUR|6NUR_protein|mol2

> <Gold.PLP.Fitness>
48.0516

> <Gold.PLP.PLP>
-40.5620

> <Gold.PLP.part.hbond>
-2.0000

> <Gold.PLP.part.metal>
0.0000

> <Gold.PLP.part.buried>
-2.7877

> <Gold.PLP.part.nonpolar>
-39.8630

> <Gold.PLP.part.repulsive>
4.3742

> <Gold.PLP.ligand.clash>
0.0000

> <Gold.PLP.ligand.torsion>
0.0988

> <Gold.PLP.Chemscore.Hbond>
2.0000

> <Gold.PLP.Chemscore.CHOScore>
0.5541

> <Gold.PLP.Chemscore.Metal>
0.0000

> <Gold.Chemscore.Hbonds>
donor molecule, donor type, donor heavy atom, donor atom, acceptor molecule, acceptor atom, score
      L1  H    12    31       P1 10175  0.84
      P1  H  7997  8010       L1    23  0.85
      L1  C     8    27       P1  7957  0.64

> <Gold.PLP.Chemscore.Internal.Correction>
0.0249

> <Gold.Rescore>
     Score         DG    S(hbond)    S(metal)    S(lipo)     H(rot)  DE(clash)    DE(int)     intcor
      9.89     -12.95       1.50        0.00      69.92       2.24       2.53       0.54       ----

> <Gold.Chemscore.Fitness>
9.8852

> <Gold.Chemscore.DG>
-12.9501

> <Gold.Chemscore.ZeroCoef>
-5.4800

> <Gold.Chemscore.Hbond>
1.5023

> <Gold.Chemscore.Metal>
0.0000

> <Gold.Chemscore.Lipo>
69.9237

> <Gold.Chemscore.Internal_Hbond>
0.0000

> <Gold.Chemscore.DEClash>
2.5271

> <Gold.Chemscore.DEInternal>
0.5379

> <Gold.Chemscore.Rot>
2.2377

> <Gold.Chemscore.Internal.Correction>
   9.000000E+99

> <Gold.Chemscore.Hbonds>
donor molecule, donor type, donor heavy atom, donor atom, acceptor molecule, acceptor atom, score
      L1  H    12    31       P1 10175  0.65
      P1  H  7997  8010       L1    23  0.15

> <Gold.Chemscore.Hbond.Weighted>
-5.0177

> <Gold.Chemscore.Metal.Weighted>
-0.0000

> <Gold.Chemscore.Lipo.Weighted>
-8.1811

> <Gold.Chemscore.Internal_Hbond.Weighted>
0.0000

> <Gold.Chemscore.DEClash.Weighted>
2.5271

> <Gold.Chemscore.DEInternal.Weighted>
0.5379

> <Gold.Chemscore.Rot.Weighted>
5.7286

> <Gold.Chemscore.Internal.Correction.Weighted>
   9.000000E+99

> <Gold.Protein.RotatedTorsions>
[ 6907 6896 6895 6894 ] final  -89.79 input  -60.11 | X-H torsion
[ 7974 7965 7964 7962 ] final -105.91 input  175.53 | X-H torsion
[ 8008 7997 7996 7995 ] final   32.05 input   59.86 | X-H torsion
[ 10167 10162 10161 10158 ] final  -44.32 input  -65.29 | X-H torsion
[ 10718 10713 10712 10709 ] final -155.11 input   66.30 | X-H torsion
[ 10763 10752 10751 10750 ] final  117.57 input  -60.55 | X-H torsion
[ 11005 11000 10999 10996 ] final  -86.63 input  -57.11 | X-H torsion

> <Gold.Protein.ActiveResidues>
 VAL166  LYS551  ARG553  GLY616  TRP617  ASP618  TYR619  PRO620  LYS621  CYS622 
 ASP623  PHE694  ASN695  SER759  ASP760  ASP761  ALA762  ILE779  LEU786  VAL792 
 PHE793  MET794  SER795  GLU796  ALA797  LYS798  CYS799  TRP800  GLU811  SER814 

> <Gold.Protein.RotatedAtoms>
  150.6876  134.2532  159.4518 H   0  0  0  0  0  0  0  0  0  0  0  0  # atno 6907 bound_to 6896
  152.0468  134.9676  160.0583 H   0  0  0  0  0  0  0  0  0  0  0  0  # atno 6908 bound_to 6896
  152.1156  133.4290  159.4688 H   0  0  0  0  0  0  0  0  0  0  0  0  # atno 6909 bound_to 6896
  145.2245  140.9147  143.3240 H   0  0  0  0  0  0  0  0  0  0  0  0  # atno 7974 bound_to 7965
  155.1162  140.3244  155.4509 H   0  0  0  0  0  0  0  0  0  0  0  0  # atno 8008 bound_to 7997
  156.2676  140.2035  156.6234 H   0  0  0  0  0  0  0  0  0  0  0  0  # atno 8009 bound_to 7997
  154.6718  140.0535  157.0160 H   0  0  0  0  0  0  0  0  0  0  0  0  # atno 8010 bound_to 7997
  140.6901  143.2936  151.3479 H   0  0  0  0  0  0  0  0  0  0  0  0  # atno 10167 bound_to 10162
  156.5084  130.8424  151.2637 H   0  0  0  0  0  0  0  0  0  0  0  0  # atno 10718 bound_to 10713
  153.5544  135.3533  155.2773 H   0  0  0  0  0  0  0  0  0  0  0  0  # atno 10763 bound_to 10752
  154.8703  135.4121  154.2900 H   0  0  0  0  0  0  0  0  0  0  0  0  # atno 10764 bound_to 10752
  153.3633  135.7061  153.6763 H   0  0  0  0  0  0  0  0  0  0  0  0  # atno 10765 bound_to 10752
  141.1627  133.7465  156.9189 H   0  0  0  0  0  0  0  0  0  0  0  0  # atno 11005 bound_to 11000
  144.9734  139.3857  143.6298 LP  0  0  0  0  0  0  0  0  0  0  0  0  # atno 17320 bound_to 7965
  146.3368  139.8842  142.8819 LP  0  0  0  0  0  0  0  0  0  0  0  0  # atno 17321 bound_to 7965
  139.6295  144.0748  152.2464 LP  0  0  0  0  0  0  0  0  0  0  0  0  # atno 17342 bound_to 10162
  140.0218  144.6147  150.7560 LP  0  0  0  0  0  0  0  0  0  0  0  0  # atno 17343 bound_to 10162
  157.7454  130.9958  150.2756 LP  0  0  0  0  0  0  0  0  0  0  0  0  # atno 17370 bound_to 10713
  156.3264  130.3793  149.7529 LP  0  0  0  0  0  0  0  0  0  0  0  0  # atno 17371 bound_to 10713
  140.1465  134.9259  157.2536 LP  0  0  0  0  0  0  0  0  0  0  0  0  # atno 17394 bound_to 11000
  140.2774  134.3390  155.7354 LP  0  0  0  0  0  0  0  0  0  0  0  0  # atno 17395 bound_to 11000

$$$$
