AV-unprocessed.smi:1484|AV-procd|sdf|5993|dock7
  -GOLD-   22720 6 83D 1   1.00000     0.00000
 Structure written by MMmdl.
 37 38  0  0  0  0  0  0  0  0  2 V2000
  151.5014  145.2450  159.3849 C   0  0  0  0  0  0  0  0  0  0  0  0
  151.8777  143.8842  159.9878 C   0  0  2  0  0  0  0  0  0  0  0  0
  152.2039  144.0051  161.4886 C   0  0  0  0  0  0  0  0  0  0  0  0
  152.5834  142.6455  162.0958 C   0  0  0  0  0  0  0  0  0  0  0  0
  153.7566  142.0018  161.3368 C   0  0  0  0  0  0  0  0  0  0  0  0
  153.4745  141.8778  159.8272 C   0  0  1  0  0  0  0  0  0  0  0  0
  152.4600  140.8534  159.5853 N   0  0  0  0  0  0  0  0  0  0  0  0
  152.6761  139.6578  159.0164 C   0  0  0  0  0  0  0  0  0  0  0  0
  153.7854  139.2904  158.6256 O   0  0  0  0  0  0  0  0  0  0  0  0
  151.4361  138.7612  158.8713 C   0  0  0  0  0  0  0  0  0  0  0  0
  151.1897  138.2869  157.5016 N   0  0  0  0  0  0  0  0  0  0  0  0
  151.0486  139.3620  156.5231 N   0  5  0  0  0  0  0  0  0  0  0  0
  150.8000  139.0472  155.2242 C   0  0  0  0  0  0  0  0  0  0  0  0
  150.6539  139.8970  154.3487 O   0  0  0  0  0  0  0  0  0  0  0  0
  150.7096  137.6414  154.8660 C   0  0  0  0  0  0  0  0  0  0  0  0
  150.8648  136.6695  155.7863 C   0  0  0  0  0  0  0  0  0  0  0  0
  151.1269  136.9605  157.1908 C   0  0  0  0  0  0  0  0  0  0  0  0
  151.2773  136.0773  158.0353 O   0  0  0  0  0  0  0  0  0  0  0  0
  153.0562  143.2388  159.2287 C   0  0  0  0  0  0  0  0  0  0  0  0
  152.3282  145.9526  159.4545 H   0  0  0  0  0  0  0  0  0  0  0  0
  150.6460  145.6805  159.9019 H   0  0  0  0  0  0  0  0  0  0  0  0
  151.2345  145.1468  158.3323 H   0  0  0  0  0  0  0  0  0  0  0  0
  151.0093  143.2324  159.8836 H   0  0  0  0  0  0  0  0  0  0  0  0
  153.0255  144.7081  161.6326 H   0  0  0  0  0  0  0  0  0  0  0  0
  151.3482  144.4171  162.0245 H   0  0  0  0  0  0  0  0  0  0  0  0
  152.8473  142.7700  163.1463 H   0  0  0  0  0  0  0  0  0  0  0  0
  151.7191  141.9806  162.0739 H   0  0  0  0  0  0  0  0  0  0  0  0
  154.6495  142.6110  161.4831 H   0  0  0  0  0  0  0  0  0  0  0  0
  153.9857  141.0228  161.7604 H   0  0  0  0  0  0  0  0  0  0  0  0
  154.3994  141.5572  159.3443 H   0  0  0  0  0  0  0  0  0  0  0  0
  151.5179  141.0712  159.8752 H   0  0  0  0  0  0  0  0  0  0  0  0
  151.5463  137.9107  159.5469 H   0  0  0  0  0  0  0  0  0  0  0  0
  150.5655  139.3093  159.2358 H   0  0  0  0  0  0  0  0  0  0  0  0
  150.5154  137.3705  153.8386 H   0  0  0  0  0  0  0  0  0  0  0  0
  150.7906  135.6384  155.4747 H   0  0  0  0  0  0  0  0  0  0  0  0
  152.8046  143.1233  158.1736 H   0  0  0  0  0  0  0  0  0  0  0  0
  153.9126  143.9136  159.2590 H   0  0  0  0  0  0  0  0  0  0  0  0
  1  2  1  0  0  0  0
  1 20  1  0  0  0  0
  1 21  1  0  0  0  0
  1 22  1  0  0  0  0
  2 19  1  0  0  0  0
  2  3  1  0  0  0  0
  2 23  1  0  0  0  0
  3  4  1  0  0  0  0
  3 24  1  0  0  0  0
  3 25  1  0  0  0  0
  4  5  1  0  0  0  0
  4 26  1  0  0  0  0
  4 27  1  0  0  0  0
  5  6  1  0  0  0  0
  5 28  1  0  0  0  0
  5 29  1  0  0  0  0
  6  7  1  0  0  0  0
  6 19  1  0  0  0  0
  6 30  1  0  0  0  0
  7  8  1  0  0  0  0
  7 31  1  0  0  0  0
  8  9  2  0  0  0  0
  8 10  1  0  0  0  0
 10 32  1  0  0  0  0
 10 33  1  0  0  0  0
 10 11  1  0  0  0  0
 11 12  1  0  0  0  0
 11 17  1  0  0  0  0
 12 13  1  0  0  0  0
 13 14  2  0  0  0  0
 13 15  1  0  0  0  0
 15 34  1  0  0  0  0
 15 16  2  0  0  0  0
 16 35  1  0  0  0  0
 16 17  1  0  0  0  0
 17 18  2  0  0  0  0
 19 36  1  0  0  0  0
 19 37  1  0  0  0  0
M  CHG  1  12  -1
M  END
> <s_m_source_file>
AV-unprocessed.smi

> <i_m_source_file_index>
1484

> <i_lp_mmshare_version>
43012

> <i_f3d_flags>
0

> <s_epik_input>
W0NIM11bQ0BASF0xW0NIMl1bQ0gyXVtDSDJdW0NASF0oW0NIMl0xKVtOSF1DKD1PKVtDSDJdbjJbbkhdYyg9TylbY0hdW2NIXWMyPU8=

> <s_epik_cmdline>
J2VwaWtfcHl0aG9uJywgJy1waCcsICc3LjAnLCAnLXRuJywgJzgnLCAnLW1hJywgJzIwMCcsICctbWV0YWxfYmluZGluZycsICctaW1hZScsICc8aW5maWxlLm1hZT4nLCAnLW9tYWUnLCAnPG91dGZpbGUubWFlPic=

> <r_lp_tautomer_probability>
1

> <r_epik_Ionization_Penalty>
0.101352

> <r_epik_Ionization_Penalty_Charging>
0.101352

> <r_epik_Ionization_Penalty_Neutral>
1.90469e-08

> <r_epik_State_Penalty>
0.0358555

> <r_epik_Charging_Adjusted_Penalty>
0.137208

> <i_epik_Tot_Q>
-1

> <i_epik_Tot_abs_Q>
1

> <r_epik_Metal_State_Penalty>
0.0358555

> <b_epik_Metal_Only>
0

> <s_lp_Force_Field>
OPLS_2005

> <r_lp_Energy>
23.9764

> <b_lp_Chiralities_Consistent>
1

> <s_lp_Variant>
AV-unprocessed.smi:1484-1

> <Gold.Version>
5.8.1

> <Gold.Id.Protein>
6NUR|6NUR_protein|mol2

> <Gold.PLP.Fitness>
48.8375

> <Gold.PLP.PLP>
-41.7821

> <Gold.PLP.part.hbond>
-3.0000

> <Gold.PLP.part.metal>
0.0000

> <Gold.PLP.part.buried>
-6.4905

> <Gold.PLP.part.nonpolar>
-32.8423

> <Gold.PLP.part.repulsive>
0.2742

> <Gold.PLP.ligand.clash>
0.0000

> <Gold.PLP.ligand.torsion>
0.1097

> <Gold.PLP.Chemscore.Hbond>
2.4222

> <Gold.PLP.Chemscore.CHOScore>
0.0000

> <Gold.PLP.Chemscore.Metal>
0.0000

> <Gold.Chemscore.Hbonds>
donor molecule, donor type, donor heavy atom, donor atom, acceptor molecule, acceptor atom, score
      P1  H  6896  6908       L1    18  0.41
      P1  H  7989  7998       L1    14  1.00
      P1  H  7997  8010       L1     9  1.00

> <Gold.PLP.Chemscore.Internal.Correction>
0.0080

> <Gold.Rescore>
     Score         DG    S(hbond)    S(metal)    S(lipo)     H(rot)  DE(clash)    DE(int)     intcor
     21.48     -21.82       2.70        0.00      98.89       1.65       0.14       0.19       ----

> <Gold.Chemscore.Fitness>
21.4843

> <Gold.Chemscore.DG>
-21.8174

> <Gold.Chemscore.ZeroCoef>
-5.4800

> <Gold.Chemscore.Hbond>
2.6956

> <Gold.Chemscore.Metal>
0.0000

> <Gold.Chemscore.Lipo>
98.8935

> <Gold.Chemscore.Internal_Hbond>
0.0000

> <Gold.Chemscore.DEClash>
0.1387

> <Gold.Chemscore.DEInternal>
0.1943

> <Gold.Chemscore.Rot>
1.6549

> <Gold.Chemscore.Internal.Correction>
   9.000000E+99

> <Gold.Chemscore.Hbonds>
donor molecule, donor type, donor heavy atom, donor atom, acceptor molecule, acceptor atom, score
      P1  H  6896  6908       L1    18  0.38
      P1  H  7989  7998       L1    14  0.99
      P1  H  7997  8010       L1     9  0.97

> <Gold.Chemscore.Hbond.Weighted>
-9.0033

> <Gold.Chemscore.Metal.Weighted>
-0.0000

> <Gold.Chemscore.Lipo.Weighted>
-11.5705

> <Gold.Chemscore.Internal_Hbond.Weighted>
0.0000

> <Gold.Chemscore.DEClash.Weighted>
0.1387

> <Gold.Chemscore.DEInternal.Weighted>
0.1943

> <Gold.Chemscore.Rot.Weighted>
4.2364

> <Gold.Chemscore.Internal.Correction.Weighted>
   9.000000E+99

> <Gold.Protein.RotatedTorsions>
[ 6907 6896 6895 6894 ] final -155.69 input  -60.11 | X-H torsion
[ 7974 7965 7964 7962 ] final  -59.91 input  175.53 | X-H torsion
[ 8008 7997 7996 7995 ] final   36.17 input   59.86 | X-H torsion
[ 10167 10162 10161 10158 ] final   94.74 input  -65.29 | X-H torsion
[ 10718 10713 10712 10709 ] final  123.96 input   66.30 | X-H torsion
[ 10763 10752 10751 10750 ] final   17.45 input  -60.55 | X-H torsion
[ 11005 11000 10999 10996 ] final -110.88 input  -57.11 | X-H torsion

> <Gold.Protein.ActiveResidues>
 VAL166  LYS551  ARG553  GLY616  TRP617  ASP618  TYR619  PRO620  LYS621  CYS622 
 ASP623  PHE694  ASN695  SER759  ASP760  ASP761  ALA762  ILE779  LEU786  VAL792 
 PHE793  MET794  SER795  GLU796  ALA797  LYS798  CYS799  TRP800  GLU811  SER814 

> <Gold.Protein.RotatedAtoms>
  151.2763  133.4231  159.2623 H   0  0  0  0  0  0  0  0  0  0  0  0  # atno 6907 bound_to 6896
  151.0400  134.9601  159.8167 H   0  0  0  0  0  0  0  0  0  0  0  0  # atno 6908 bound_to 6896
  152.5363  134.2721  159.9028 H   0  0  0  0  0  0  0  0  0  0  0  0  # atno 6909 bound_to 6896
  145.8218  140.8535  143.0128 H   0  0  0  0  0  0  0  0  0  0  0  0  # atno 7974 bound_to 7965
  155.1830  140.3301  155.4372 H   0  0  0  0  0  0  0  0  0  0  0  0  # atno 8008 bound_to 7997
  156.2470  140.1923  156.6877 H   0  0  0  0  0  0  0  0  0  0  0  0  # atno 8009 bound_to 7997
  154.6258  140.0589  156.9658 H   0  0  0  0  0  0  0  0  0  0  0  0  # atno 8010 bound_to 7997
  139.8054  144.6796  150.9709 H   0  0  0  0  0  0  0  0  0  0  0  0  # atno 10167 bound_to 10162
  157.5623  131.1089  150.8516 H   0  0  0  0  0  0  0  0  0  0  0  0  # atno 10718 bound_to 10713
  153.1338  135.6746  153.9136 H   0  0  0  0  0  0  0  0  0  0  0  0  # atno 10763 bound_to 10752
  153.8614  135.3081  155.3439 H   0  0  0  0  0  0  0  0  0  0  0  0  # atno 10764 bound_to 10752
  154.7730  135.4929  153.9769 H   0  0  0  0  0  0  0  0  0  0  0  0  # atno 10765 bound_to 10752
  141.0766  133.9290  157.2376 H   0  0  0  0  0  0  0  0  0  0  0  0  # atno 11005 bound_to 11000
  144.6747  140.0545  143.7478 LP  0  0  0  0  0  0  0  0  0  0  0  0  # atno 17320 bound_to 7965
  145.9666  139.2839  143.1124 LP  0  0  0  0  0  0  0  0  0  0  0  0  # atno 17321 bound_to 7965
  140.7819  143.4238  151.0799 LP  0  0  0  0  0  0  0  0  0  0  0  0  # atno 17342 bound_to 10162
  139.7908  143.8221  152.3151 LP  0  0  0  0  0  0  0  0  0  0  0  0  # atno 17343 bound_to 10162
  156.9011  130.5247  149.5283 LP  0  0  0  0  0  0  0  0  0  0  0  0  # atno 17370 bound_to 10713
  156.0674  130.5715  150.9316 LP  0  0  0  0  0  0  0  0  0  0  0  0  # atno 17371 bound_to 10713
  139.9579  135.0161  156.9179 LP  0  0  0  0  0  0  0  0  0  0  0  0  # atno 17394 bound_to 11000
  140.5559  134.0582  155.7383 LP  0  0  0  0  0  0  0  0  0  0  0  0  # atno 17395 bound_to 11000

$$$$
