AV-unprocessed.smi:1942|AV-procd|sdf|7850|dock7
  -GOLD-   22720 9593D 1   1.00000     0.00000
 Structure written by MMmdl.
 36 38  0  0  0  0  0  0  0  0  2 V2000
  153.3603  139.2103  155.4272 O   0  0  0  0  0  0  0  0  0  0  0  0
  152.4135  138.4265  155.4953 C   0  0  0  0  0  0  0  0  0  0  0  0
  151.5585  138.1330  154.3395 C   0  0  0  0  0  0  0  0  0  0  0  0
  150.5433  137.2498  154.4181 C   0  0  0  0  0  0  0  0  0  0  0  0
  150.2696  136.5615  155.6574 C   0  0  0  0  0  0  0  0  0  0  0  0
  151.0429  136.8361  156.7197 C   0  0  0  0  0  0  0  0  0  0  0  0
  152.0988  137.7654  156.6511 N   0  0  0  0  0  0  0  0  0  0  0  0
  152.8712  137.9860  157.8817 C   0  0  0  0  0  0  0  0  0  0  0  0
  152.7408  139.3729  158.4390 C   0  0  0  0  0  0  0  0  0  0  0  0
  151.9500  140.3752  157.9568 N   0  3  0  0  0  0  0  0  0  0  0  0
  152.0921  141.5153  158.7474 C   0  0  0  0  0  0  0  0  0  0  0  0
  151.4994  142.7702  158.6501 C   0  0  0  0  0  0  0  0  0  0  0  0
  151.8625  143.7207  159.6268 C   0  0  0  0  0  0  0  0  0  0  0  0
  151.1671  145.2984  159.5710 Cl  0  0  0  0  0  0  0  0  0  0  0  0
  152.7833  143.4054  160.6474 C   0  0  0  0  0  0  0  0  0  0  0  0
  153.3782  142.1296  160.7353 C   0  0  0  0  0  0  0  0  0  0  0  0
  153.0116  141.1955  159.7665 C   0  0  0  0  0  0  0  0  0  0  0  0
  153.3832  139.8648  159.5377 N   0  0  0  0  0  0  0  0  0  0  0  0
  154.3439  139.2119  160.4420 C   0  0  0  0  0  0  0  0  0  0  0  0
  155.7024  139.9315  160.4890 C   0  0  0  0  0  0  0  0  0  0  0  0
  156.2750  140.0304  159.2019 O   0  0  0  0  0  0  0  0  0  0  0  0
  151.7482  138.6386  153.4039 H   0  0  0  0  0  0  0  0  0  0  0  0
  149.9305  137.0560  153.5499 H   0  0  0  0  0  0  0  0  0  0  0  0
  149.4648  135.8442  155.7267 H   0  0  0  0  0  0  0  0  0  0  0  0
  150.9081  136.3634  157.6822 H   0  0  0  0  0  0  0  0  0  0  0  0
  152.5863  137.2728  158.6568 H   0  0  0  0  0  0  0  0  0  0  0  0
  153.9247  137.7809  157.6888 H   0  0  0  0  0  0  0  0  0  0  0  0
  150.7950  143.0118  157.8675 H   0  0  0  0  0  0  0  0  0  0  0  0
  153.0409  144.1573  161.3792 H   0  0  0  0  0  0  0  0  0  0  0  0
  154.0869  141.9034  161.5179 H   0  0  0  0  0  0  0  0  0  0  0  0
  153.9071  139.1289  161.4371 H   0  0  0  0  0  0  0  0  0  0  0  0
  154.4813  138.1897  160.0881 H   0  0  0  0  0  0  0  0  0  0  0  0
  155.5810  140.9351  160.8971 H   0  0  0  0  0  0  0  0  0  0  0  0
  156.3950  139.4013  161.1433 H   0  0  0  0  0  0  0  0  0  0  0  0
  156.9640  139.3874  159.1294 H   0  0  0  0  0  0  0  0  0  0  0  0
  151.3545  140.2810  157.1440 H   0  0  0  0  0  0  0  0  0  0  0  0
  1  2  2  0  0  0  0
  2  7  1  0  0  0  0
  2  3  1  0  0  0  0
  3  4  2  0  0  0  0
  3 22  1  0  0  0  0
  4  5  1  0  0  0  0
  4 23  1  0  0  0  0
  5  6  2  0  0  0  0
  5 24  1  0  0  0  0
  6  7  1  0  0  0  0
  6 25  1  0  0  0  0
  7  8  1  0  0  0  0
  8  9  1  0  0  0  0
  8 26  1  0  0  0  0
  8 27  1  0  0  0  0
  9 18  1  0  0  0  0
  9 10  2  0  0  0  0
 10 11  1  0  0  0  0
 10 36  1  0  0  0  0
 11 17  2  0  0  0  0
 11 12  1  0  0  0  0
 12 13  2  0  0  0  0
 12 28  1  0  0  0  0
 13 14  1  0  0  0  0
 13 15  1  0  0  0  0
 15 16  2  0  0  0  0
 15 29  1  0  0  0  0
 16 17  1  0  0  0  0
 16 30  1  0  0  0  0
 17 18  1  0  0  0  0
 18 19  1  0  0  0  0
 19 20  1  0  0  0  0
 19 31  1  0  0  0  0
 19 32  1  0  0  0  0
 20 21  1  0  0  0  0
 20 33  1  0  0  0  0
 20 34  1  0  0  0  0
 21 35  1  0  0  0  0
M  CHG  1  10   1
M  END
> <s_m_source_file>
AV-unprocessed.smi

> <i_m_source_file_index>
1942

> <i_lp_mmshare_version>
43012

> <i_f3d_flags>
0

> <s_epik_input>
Tz1jMVtjSF1bY0hdW2NIXVtjSF1uMVtDSDJdYyhuMiluKFtDSDJdW0NIMl1bT0hdKWMoYzIzKVtjSF1bY0hdYyhDbClbY0hdMw==

> <s_epik_cmdline>
J2VwaWtfcHl0aG9uJywgJy1waCcsICc3LjAnLCAnLXRuJywgJzgnLCAnLW1hJywgJzIwMCcsICctbWV0YWxfYmluZGluZycsICctaW1hZScsICc8aW5maWxlLm1hZT4nLCAnLW9tYWUnLCAnPG91dGZpbGUubWFlPic=

> <r_lp_tautomer_probability>
1

> <r_epik_Ionization_Penalty>
1.62531

> <r_epik_Ionization_Penalty_Charging>
1.62531

> <r_epik_Ionization_Penalty_Neutral>
5.76694e-08

> <r_epik_State_Penalty>
1.72539

> <r_epik_Charging_Adjusted_Penalty>
3.3507

> <i_epik_Tot_Q>
1

> <i_epik_Tot_abs_Q>
1

> <r_epik_Metal_State_Penalty>
5.78505

> <b_epik_Metal_Only>
0

> <s_lp_Force_Field>
OPLS_2005

> <r_lp_Energy>
19.9382

> <b_lp_Chiralities_Consistent>
1

> <s_lp_Variant>
AV-unprocessed.smi:1942-2

> <Gold.Version>
5.8.1

> <Gold.Id.Protein>
6NUR|6NUR_protein|mol2

> <Gold.PLP.Fitness>
47.1370

> <Gold.PLP.PLP>
-41.2144

> <Gold.PLP.part.hbond>
-1.8946

> <Gold.PLP.part.metal>
0.0000

> <Gold.PLP.part.buried>
-5.4526

> <Gold.PLP.part.nonpolar>
-34.1883

> <Gold.PLP.part.repulsive>
0.0810

> <Gold.PLP.ligand.clash>
0.0000

> <Gold.PLP.ligand.torsion>
0.0430

> <Gold.PLP.Chemscore.Hbond>
2.0000

> <Gold.PLP.Chemscore.CHOScore>
0.0000

> <Gold.PLP.Chemscore.Metal>
0.0000

> <Gold.Chemscore.Hbonds>
donor molecule, donor type, donor heavy atom, donor atom, acceptor molecule, acceptor atom, score
      P1  H  7997  8008       L1    21  1.00
      P1  H  7997  8009       L1     1  1.00

> <Gold.PLP.Chemscore.Internal.Correction>
0.0087

> <Gold.Rescore>
     Score         DG    S(hbond)    S(metal)    S(lipo)     H(rot)  DE(clash)    DE(int)     intcor
     19.31     -19.54       1.98        0.00     114.67       2.33       0.13       0.09       ----

> <Gold.Chemscore.Fitness>
19.3085

> <Gold.Chemscore.DG>
-19.5355

> <Gold.Chemscore.ZeroCoef>
-5.4800

> <Gold.Chemscore.Hbond>
1.9791

> <Gold.Chemscore.Metal>
0.0000

> <Gold.Chemscore.Lipo>
114.6728

> <Gold.Chemscore.Internal_Hbond>
0.0000

> <Gold.Chemscore.DEClash>
0.1334

> <Gold.Chemscore.DEInternal>
0.0936

> <Gold.Chemscore.Rot>
2.3326

> <Gold.Chemscore.Internal.Correction>
   9.000000E+99

> <Gold.Chemscore.Hbonds>
donor molecule, donor type, donor heavy atom, donor atom, acceptor molecule, acceptor atom, score
      P1  H  7997  8008       L1    21  0.24
      P1  H  7997  8009       L1     1  0.93

> <Gold.Chemscore.Hbond.Weighted>
-6.6102

> <Gold.Chemscore.Metal.Weighted>
-0.0000

> <Gold.Chemscore.Lipo.Weighted>
-13.4167

> <Gold.Chemscore.Internal_Hbond.Weighted>
0.0000

> <Gold.Chemscore.DEClash.Weighted>
0.1334

> <Gold.Chemscore.DEInternal.Weighted>
0.0936

> <Gold.Chemscore.Rot.Weighted>
5.9714

> <Gold.Chemscore.Internal.Correction.Weighted>
   9.000000E+99

> <Gold.Protein.RotatedTorsions>
[ 6907 6896 6895 6894 ] final -144.24 input  -60.11 | X-H torsion
[ 7974 7965 7964 7962 ] final -178.45 input  175.53 | X-H torsion
[ 8008 7997 7996 7995 ] final -148.71 input   59.86 | X-H torsion
[ 10167 10162 10161 10158 ] final  -17.72 input  -65.29 | X-H torsion
[ 10718 10713 10712 10709 ] final  152.36 input   66.30 | X-H torsion
[ 10763 10752 10751 10750 ] final  -39.46 input  -60.55 | X-H torsion
[ 11005 11000 10999 10996 ] final  -74.35 input  -57.11 | X-H torsion

> <Gold.Protein.ActiveResidues>
 VAL166  LYS551  ARG553  GLY616  TRP617  ASP618  TYR619  PRO620  LYS621  CYS622 
 ASP623  PHE694  ASN695  SER759  ASP760  ASP761  ALA762  ILE779  LEU786  VAL792 
 PHE793  MET794  SER795  GLU796  ALA797  LYS798  CYS799  TRP800  GLU811  SER814 

> <Gold.Protein.RotatedAtoms>
  151.1113  133.5171  159.2605 H   0  0  0  0  0  0  0  0  0  0  0  0  # atno 6907 bound_to 6896
  151.1964  135.0423  159.8864 H   0  0  0  0  0  0  0  0  0  0  0  0  # atno 6908 bound_to 6896
  152.5450  134.0947  159.8345 H   0  0  0  0  0  0  0  0  0  0  0  0  # atno 6909 bound_to 6896
  144.7131  140.0867  143.6423 H   0  0  0  0  0  0  0  0  0  0  0  0  # atno 7974 bound_to 7965
  155.5959  140.0657  157.2746 H   0  0  0  0  0  0  0  0  0  0  0  0  # atno 8008 bound_to 7997
  154.4292  140.1827  156.1170 H   0  0  0  0  0  0  0  0  0  0  0  0  # atno 8009 bound_to 7997
  156.0197  140.3318  155.7029 H   0  0  0  0  0  0  0  0  0  0  0  0  # atno 8010 bound_to 7997
  140.7250  143.4987  150.9897 H   0  0  0  0  0  0  0  0  0  0  0  0  # atno 10167 bound_to 10162
  157.2588  131.0794  151.1679 H   0  0  0  0  0  0  0  0  0  0  0  0  # atno 10718 bound_to 10713
  153.9297  135.6773  153.4746 H   0  0  0  0  0  0  0  0  0  0  0  0  # atno 10763 bound_to 10752
  153.0986  135.4839  154.8821 H   0  0  0  0  0  0  0  0  0  0  0  0  # atno 10764 bound_to 10752
  154.7434  135.3166  154.8645 H   0  0  0  0  0  0  0  0  0  0  0  0  # atno 10765 bound_to 10752
  141.1634  133.6909  156.7352 H   0  0  0  0  0  0  0  0  0  0  0  0  # atno 11005 bound_to 11000
  145.9656  139.2832  143.1129 LP  0  0  0  0  0  0  0  0  0  0  0  0  # atno 17320 bound_to 7965
  145.9173  140.9139  143.0423 LP  0  0  0  0  0  0  0  0  0  0  0  0  # atno 17321 bound_to 7965
  139.8696  143.7210  152.3167 LP  0  0  0  0  0  0  0  0  0  0  0  0  # atno 17342 bound_to 10162
  139.7454  144.7548  151.0588 LP  0  0  0  0  0  0  0  0  0  0  0  0  # atno 17343 bound_to 10162
  157.3198  130.6931  149.6262 LP  0  0  0  0  0  0  0  0  0  0  0  0  # atno 17370 bound_to 10713
  155.9664  130.4339  150.5025 LP  0  0  0  0  0  0  0  0  0  0  0  0  # atno 17371 bound_to 10713
  140.2716  134.8388  157.3852 LP  0  0  0  0  0  0  0  0  0  0  0  0  # atno 17394 bound_to 11000
  140.1516  134.4842  155.7957 LP  0  0  0  0  0  0  0  0  0  0  0  0  # atno 17395 bound_to 11000

$$$$
