AV-unprocessed.smi:2862|AV-procd|sdf|11008|dock9
  -GOLD-   2272015463D 1   1.00000     0.00000
 Structure written by MMmdl.
 52 54  0  0  0  0  0  0  0  0  1 V2000
  152.1135  142.5808  162.1942 C   0  0  0  0  0  0  0  0  0  0  0  0
  151.9781  142.6546  160.6638 C   0  0  2  0  0  0  0  0  0  0  0  0
  152.5354  141.4447  160.0651 N   0  0  0  0  0  0  0  0  0  0  0  0
  151.8765  140.6028  159.2479 C   0  0  0  0  0  0  0  0  0  0  0  0
  150.7215  140.8062  158.8754 O   0  0  0  0  0  0  0  0  0  0  0  0
  152.5917  139.3247  158.7773 C   0  0  0  0  0  0  0  0  0  0  0  0
  151.7833  138.4374  157.9218 N   0  0  0  0  0  0  0  0  0  0  0  0
  152.0327  138.4965  156.5350 C   0  0  0  0  0  0  0  0  0  0  0  0
  151.3635  137.7361  155.6542 C   0  0  0  0  0  0  0  0  0  0  0  0
  150.3564  136.8337  156.1560 C   0  0  0  0  0  0  0  0  0  0  0  0
  150.0935  136.7899  157.4784 C   0  0  0  0  0  0  0  0  0  0  0  0
  149.1046  135.8561  158.0142 C   0  0  0  0  0  0  0  0  0  0  0  0
  149.2993  134.6392  157.9971 O   0  0  0  0  0  0  0  0  0  0  0  0
  147.9475  136.3879  158.5049 N   0  0  0  0  0  0  0  0  0  0  0  0
  147.7589  137.8417  158.3932 C   0  0  0  0  0  0  0  0  0  0  0  0
  146.9044  135.6778  159.2823 C   0  0  2  0  0  0  0  0  0  0  0  0
  145.6452  135.4297  158.4302 C   0  0  0  0  0  0  0  0  0  0  0  0
  146.5802  136.3269  160.6192 C   0  0  0  0  0  0  0  0  0  0  0  0
  147.3311  135.9420  161.8710 C   0  0  0  0  0  0  0  0  0  0  0  0
  145.8778  135.5560  161.7118 C   0  0  0  0  0  0  0  0  0  0  0  0
  150.8421  137.6030  158.4632 C   0  0  0  0  0  0  0  0  0  0  0  0
  150.6563  137.5521  159.6817 O   0  0  0  0  0  0  0  0  0  0  0  0
  152.6178  143.9244  160.1335 C   0  0  0  0  0  0  0  0  0  0  0  0
  151.7898  145.1717  159.9280 C   0  0  0  0  0  0  0  0  0  0  0  0
  152.3381  144.4248  158.7359 C   0  0  0  0  0  0  0  0  0  0  0  0
  151.6716  143.4565  162.6700 H   0  0  0  0  0  0  0  0  0  0  0  0
  153.1600  142.5313  162.4976 H   0  0  0  0  0  0  0  0  0  0  0  0
  151.6081  141.7035  162.5988 H   0  0  0  0  0  0  0  0  0  0  0  0
  150.9148  142.7028  160.4208 H   0  0  0  0  0  0  0  0  0  0  0  0
  153.4827  141.2074  160.3223 H   0  0  0  0  0  0  0  0  0  0  0  0
  153.4904  139.6277  158.2379 H   0  0  0  0  0  0  0  0  0  0  0  0
  152.9656  138.7933  159.6543 H   0  0  0  0  0  0  0  0  0  0  0  0
  152.7969  139.2003  156.2376 H   0  0  0  0  0  0  0  0  0  0  0  0
  151.5708  137.8011  154.5962 H   0  0  0  0  0  0  0  0  0  0  0  0
  149.8147  136.2022  155.4660 H   0  0  0  0  0  0  0  0  0  0  0  0
  148.5747  138.3767  158.8821 H   0  0  0  0  0  0  0  0  0  0  0  0
  146.8355  138.1945  158.8502 H   0  0  0  0  0  0  0  0  0  0  0  0
  147.7343  138.1423  157.3449 H   0  0  0  0  0  0  0  0  0  0  0  0
  147.2443  134.6793  159.5475 H   0  0  0  0  0  0  0  0  0  0  0  0
  144.9372  134.7955  158.9606 H   0  0  0  0  0  0  0  0  0  0  0  0
  145.8892  134.9283  157.4943 H   0  0  0  0  0  0  0  0  0  0  0  0
  145.1215  136.3525  158.1837 H   0  0  0  0  0  0  0  0  0  0  0  0
  146.3019  137.3761  160.5436 H   0  0  0  0  0  0  0  0  0  0  0  0
  148.0724  135.1490  161.7935 H   0  0  0  0  0  0  0  0  0  0  0  0
  147.5684  136.7350  162.5773 H   0  0  0  0  0  0  0  0  0  0  0  0
  145.1454  136.0908  162.3130 H   0  0  0  0  0  0  0  0  0  0  0  0
  145.6603  134.5043  161.5392 H   0  0  0  0  0  0  0  0  0  0  0  0
  153.6257  144.0927  160.5085 H   0  0  0  0  0  0  0  0  0  0  0  0
  150.7185  145.1079  160.1088 H   0  0  0  0  0  0  0  0  0  0  0  0
  152.2492  146.1255  160.1791 H   0  0  0  0  0  0  0  0  0  0  0  0
  153.1527  144.8977  158.1923 H   0  0  0  0  0  0  0  0  0  0  0  0
  151.6339  143.8626  158.1257 H   0  0  0  0  0  0  0  0  0  0  0  0
  1  2  1  0  0  0  0
  1 26  1  0  0  0  0
  1 27  1  0  0  0  0
  1 28  1  0  0  0  0
  2  3  1  0  0  0  0
  2 23  1  0  0  0  0
  2 29  1  0  0  0  0
  3  4  1  0  0  0  0
  3 30  1  0  0  0  0
  4  5  2  0  0  0  0
  4  6  1  0  0  0  0
  6  7  1  0  0  0  0
  6 31  1  0  0  0  0
  6 32  1  0  0  0  0
  7 21  1  0  0  0  0
  7  8  1  0  0  0  0
  8  9  2  0  0  0  0
  8 33  1  0  0  0  0
  9 10  1  0  0  0  0
  9 34  1  0  0  0  0
 10 11  2  0  0  0  0
 10 35  1  0  0  0  0
 11 12  1  0  0  0  0
 11 21  1  0  0  0  0
 12 13  2  0  0  0  0
 12 14  1  0  0  0  0
 14 15  1  0  0  0  0
 14 16  1  0  0  0  0
 15 36  1  0  0  0  0
 15 37  1  0  0  0  0
 15 38  1  0  0  0  0
 16 17  1  0  0  0  0
 16 18  1  0  0  0  0
 16 39  1  0  0  0  0
 17 40  1  0  0  0  0
 17 41  1  0  0  0  0
 17 42  1  0  0  0  0
 18 20  1  0  0  0  0
 18 19  1  0  0  0  0
 18 43  1  0  0  0  0
 19 20  1  0  0  0  0
 19 44  1  0  0  0  0
 19 45  1  0  0  0  0
 20 46  1  0  0  0  0
 20 47  1  0  0  0  0
 21 22  2  0  0  0  0
 23 25  1  0  0  0  0
 23 24  1  0  0  0  0
 23 48  1  0  0  0  0
 24 25  1  0  0  0  0
 24 49  1  0  0  0  0
 24 50  1  0  0  0  0
 25 51  1  0  0  0  0
 25 52  1  0  0  0  0
M  END
> <s_m_source_file>
AV-unprocessed.smi

> <i_m_source_file_index>
2862

> <i_lp_mmshare_version>
43012

> <i_f3d_flags>
0

> <s_epik_input>
W0NIMl0xW0NIMl1bQ0hdMVtDQEhdKFtDSDNdKVtOSF1DKD1PKVtDSDJdbjJbY0hdW2NIXVtjSF1jKGMyPU8pQyg9TylOKFtDSDNdKVtDQEhdKFtDSDNdKVtDSF0zW0NIMl1bQ0gyXTM=

> <s_epik_cmdline>
J2VwaWtfcHl0aG9uJywgJy1waCcsICc3LjAnLCAnLXRuJywgJzgnLCAnLW1hJywgJzIwMCcsICctbWV0YWxfYmluZGluZycsICctaW1hZScsICc8aW5maWxlLm1hZT4nLCAnLW9tYWUnLCAnPG91dGZpbGUubWFlPic=

> <r_lp_tautomer_probability>
1

> <r_epik_Ionization_Penalty>
4.00841e-08

> <r_epik_Ionization_Penalty_Charging>
2.07773e-08

> <r_epik_Ionization_Penalty_Neutral>
1.93069e-08

> <r_epik_State_Penalty>
-0

> <r_epik_Charging_Adjusted_Penalty>
2.07773e-08

> <i_epik_Tot_Q>
0

> <i_epik_Tot_abs_Q>
0

> <r_epik_Metal_State_Penalty>
-0

> <b_epik_Metal_Only>
0

> <s_lp_Force_Field>
OPLS_2005

> <r_lp_Energy>
63.2381

> <b_lp_Chiralities_Consistent>
1

> <s_lp_Variant>
AV-unprocessed.smi:2862-1

> <Gold.Version>
5.8.1

> <Gold.Id.Protein>
6NUR|6NUR_protein|mol2

> <Gold.PLP.Fitness>
45.5272

> <Gold.PLP.PLP>
-45.0453

> <Gold.PLP.part.hbond>
-1.2620

> <Gold.PLP.part.metal>
0.0000

> <Gold.PLP.part.buried>
-7.1308

> <Gold.PLP.part.nonpolar>
-37.0954

> <Gold.PLP.part.repulsive>
0.0960

> <Gold.PLP.ligand.clash>
1.1158

> <Gold.PLP.ligand.torsion>
3.0709

> <Gold.PLP.Chemscore.Hbond>
1.0000

> <Gold.PLP.Chemscore.CHOScore>
0.0000

> <Gold.PLP.Chemscore.Metal>
0.0000

> <Gold.Chemscore.Hbonds>
donor molecule, donor type, donor heavy atom, donor atom, acceptor molecule, acceptor atom, score
      P1  H  6896  6907       L1    13  0.99

> <Gold.PLP.Chemscore.Internal.Correction>
4.7395

> <Gold.Rescore>
     Score         DG    S(hbond)    S(metal)    S(lipo)     H(rot)  DE(clash)    DE(int)     intcor
     14.59     -17.67       0.99        0.00     113.88       1.73       0.02       3.06       ----

> <Gold.Chemscore.Fitness>
14.5931

> <Gold.Chemscore.DG>
-17.6740

> <Gold.Chemscore.ZeroCoef>
-5.4800

> <Gold.Chemscore.Hbond>
0.9915

> <Gold.Chemscore.Metal>
0.0000

> <Gold.Chemscore.Lipo>
113.8773

> <Gold.Chemscore.Internal_Hbond>
0.0000

> <Gold.Chemscore.DEClash>
0.0228

> <Gold.Chemscore.DEInternal>
3.0581

> <Gold.Chemscore.Rot>
1.7348

> <Gold.Chemscore.Internal.Correction>
   9.000000E+99

> <Gold.Chemscore.Hbonds>
donor molecule, donor type, donor heavy atom, donor atom, acceptor molecule, acceptor atom, score
      P1  H  6896  6907       L1    13  0.81

> <Gold.Chemscore.Hbond.Weighted>
-3.3115

> <Gold.Chemscore.Metal.Weighted>
-0.0000

> <Gold.Chemscore.Lipo.Weighted>
-13.3236

> <Gold.Chemscore.Internal_Hbond.Weighted>
0.0000

> <Gold.Chemscore.DEClash.Weighted>
0.0228

> <Gold.Chemscore.DEInternal.Weighted>
3.0581

> <Gold.Chemscore.Rot.Weighted>
4.4412

> <Gold.Chemscore.Internal.Correction.Weighted>
   9.000000E+99

> <Gold.Protein.RotatedTorsions>
[ 6907 6896 6895 6894 ] final -109.53 input  -60.11 | X-H torsion
[ 7974 7965 7964 7962 ] final  104.86 input  175.53 | X-H torsion
[ 8008 7997 7996 7995 ] final  -44.66 input   59.86 | X-H torsion
[ 10167 10162 10161 10158 ] final   95.89 input  -65.29 | X-H torsion
[ 10718 10713 10712 10709 ] final  -30.32 input   66.30 | X-H torsion
[ 10763 10752 10751 10750 ] final   64.65 input  -60.55 | X-H torsion
[ 11005 11000 10999 10996 ] final -162.13 input  -57.11 | X-H torsion

> <Gold.Protein.ActiveResidues>
 VAL166  LYS551  ARG553  GLY616  TRP617  ASP618  TYR619  PRO620  LYS621  CYS622 
 ASP623  PHE694  ASN695  SER759  ASP760  ASP761  ALA762  ILE779  LEU786  VAL792 
 PHE793  MET794  SER795  GLU796  ALA797  LYS798  CYS799  TRP800  GLU811  SER814 

> <Gold.Protein.RotatedAtoms>
  150.7567  133.9516  159.3487 H   0  0  0  0  0  0  0  0  0  0  0  0  # atno 6907 bound_to 6896
  151.7434  135.0847  160.0328 H   0  0  0  0  0  0  0  0  0  0  0  0  # atno 6908 bound_to 6896
  152.3514  133.6146  159.5983 H   0  0  0  0  0  0  0  0  0  0  0  0  # atno 6909 bound_to 6896
  145.3272  139.2496  143.3680 H   0  0  0  0  0  0  0  0  0  0  0  0  # atno 7974 bound_to 7965
  154.3998  140.1416  156.3719 H   0  0  0  0  0  0  0  0  0  0  0  0  # atno 8008 bound_to 7997
  155.8084  140.3473  155.5423 H   0  0  0  0  0  0  0  0  0  0  0  0  # atno 8009 bound_to 7997
  155.8411  140.0927  157.1724 H   0  0  0  0  0  0  0  0  0  0  0  0  # atno 8010 bound_to 7997
  139.7946  144.6838  150.9846 H   0  0  0  0  0  0  0  0  0  0  0  0  # atno 10167 bound_to 10162
  156.4013  130.4391  149.7320 H   0  0  0  0  0  0  0  0  0  0  0  0  # atno 10718 bound_to 10713
  153.0064  135.5385  154.6543 H   0  0  0  0  0  0  0  0  0  0  0  0  # atno 10763 bound_to 10752
  154.5767  135.2846  155.0776 H   0  0  0  0  0  0  0  0  0  0  0  0  # atno 10764 bound_to 10752
  154.1920  135.6498  153.5115 H   0  0  0  0  0  0  0  0  0  0  0  0  # atno 10765 bound_to 10752
  140.6127  134.4832  157.5217 H   0  0  0  0  0  0  0  0  0  0  0  0  # atno 11005 bound_to 11000
  146.3060  140.3842  142.8687 LP  0  0  0  0  0  0  0  0  0  0  0  0  # atno 17320 bound_to 7965
  144.8893  140.7502  143.5937 LP  0  0  0  0  0  0  0  0  0  0  0  0  # atno 17321 bound_to 7965
  140.7820  143.4345  151.0644 LP  0  0  0  0  0  0  0  0  0  0  0  0  # atno 17342 bound_to 10162
  139.8020  143.8071  152.3164 LP  0  0  0  0  0  0  0  0  0  0  0  0  # atno 17343 bound_to 10162
  156.4335  130.7826  151.2847 LP  0  0  0  0  0  0  0  0  0  0  0  0  # atno 17370 bound_to 10713
  157.7504  131.0147  150.3473 LP  0  0  0  0  0  0  0  0  0  0  0  0  # atno 17371 bound_to 10713
  139.9185  134.8196  156.1286 LP  0  0  0  0  0  0  0  0  0  0  0  0  # atno 17394 bound_to 11000
  141.0797  133.6760  156.2310 LP  0  0  0  0  0  0  0  0  0  0  0  0  # atno 17395 bound_to 11000

$$$$
