AV-unprocessed.smi:2124|AV-procd|sdf|8651|dock7
  -GOLD-   2272011403D 1   1.00000     0.00000
 Structure written by MMmdl.
 47 49  0  0  0  0  0  0  0  0  1 V2000
  147.1146  138.3201  153.0936 C   0  0  0  0  0  0  0  0  0  0  0  0
  148.1188  138.9479  154.0370 C   0  0  0  0  0  0  0  0  0  0  0  0
  148.1033  140.1933  154.3818 N   0  0  0  0  0  0  0  0  0  0  0  0
  149.0849  140.6611  155.2667 C   0  0  0  0  0  0  0  0  0  0  0  0
  148.9902  142.1341  155.6265 C   0  0  0  0  0  0  0  0  0  0  0  0
  150.0493  139.8333  155.7672 C   0  0  0  0  0  0  0  0  0  0  0  0
  151.1424  140.3008  156.7287 C   0  0  0  0  0  0  0  0  0  0  0  0
  150.6710  140.8866  158.0632 C   0  0  0  0  0  0  0  0  0  0  0  0
  149.4690  141.0604  158.2604 O   0  0  0  0  0  0  0  0  0  0  0  0
  151.6203  141.1973  158.9602 N   0  0  0  0  0  0  0  0  0  0  0  0
  151.4002  141.7761  160.2828 C   0  0  1  0  0  0  0  0  0  0  0  0
  152.5970  141.4286  161.1819 C   0  0  0  0  0  0  0  0  0  0  0  0
  151.1875  143.3031  160.1559 C   0  0  2  0  0  0  0  0  0  0  0  0
  150.3503  143.7447  158.9341 C   0  0  0  0  0  0  0  0  0  0  0  0
  151.2140  144.8533  158.3033 C   0  0  2  0  0  0  0  0  0  0  0  0
  152.4221  144.2099  157.5986 C   0  0  0  0  0  0  0  0  0  0  0  0
  153.2993  143.7572  158.7797 C   0  0  0  0  0  0  0  0  0  0  0  0
  152.4624  144.1725  160.0076 C   0  0  1  0  0  0  0  0  0  0  0  0
  151.8655  145.4908  159.5253 C   0  0  0  0  0  0  0  0  0  0  0  0
  150.0602  138.4143  155.3625 C   0  0  0  0  0  0  0  0  0  0  0  0
  150.8871  137.5881  155.7448 O   0  0  0  0  0  0  0  0  0  0  0  0
  149.0763  138.0522  154.5093 N   0  0  0  0  0  0  0  0  0  0  0  0
  149.0407  137.0905  154.2039 H   0  0  0  0  0  0  0  0  0  0  0  0
  147.3196  137.2608  152.9326 H   0  0  0  0  0  0  0  0  0  0  0  0
  147.1420  138.8233  152.1269 H   0  0  0  0  0  0  0  0  0  0  0  0
  146.1078  138.4139  153.5013 H   0  0  0  0  0  0  0  0  0  0  0  0
  148.7574  142.2532  156.6848 H   0  0  0  0  0  0  0  0  0  0  0  0
  148.2059  142.6316  155.0548 H   0  0  0  0  0  0  0  0  0  0  0  0
  149.9275  142.6484  155.4179 H   0  0  0  0  0  0  0  0  0  0  0  0
  151.8103  139.4707  156.9568 H   0  0  0  0  0  0  0  0  0  0  0  0
  151.7767  141.0325  156.2260 H   0  0  0  0  0  0  0  0  0  0  0  0
  152.5805  141.0209  158.7020 H   0  0  0  0  0  0  0  0  0  0  0  0
  150.5122  141.3378  160.7402 H   0  0  0  0  0  0  0  0  0  0  0  0
  152.4617  141.8151  162.1921 H   0  0  0  0  0  0  0  0  0  0  0  0
  153.5245  141.8453  160.7880 H   0  0  0  0  0  0  0  0  0  0  0  0
  152.7252  140.3485  161.2614 H   0  0  0  0  0  0  0  0  0  0  0  0
  150.6721  143.6406  161.0573 H   0  0  0  0  0  0  0  0  0  0  0  0
  150.1599  142.9341  158.2296 H   0  0  0  0  0  0  0  0  0  0  0  0
  149.3843  144.1358  159.2555 H   0  0  0  0  0  0  0  0  0  0  0  0
  150.6519  145.5381  157.6679 H   0  0  0  0  0  0  0  0  0  0  0  0
  152.1320  143.3797  156.9535 H   0  0  0  0  0  0  0  0  0  0  0  0
  152.9514  144.9407  156.9863 H   0  0  0  0  0  0  0  0  0  0  0  0
  153.5297  142.6928  158.7507 H   0  0  0  0  0  0  0  0  0  0  0  0
  154.2496  144.2924  158.7698 H   0  0  0  0  0  0  0  0  0  0  0  0
  153.0466  144.2526  160.9247 H   0  0  0  0  0  0  0  0  0  0  0  0
  152.6173  146.2411  159.2736 H   0  0  0  0  0  0  0  0  0  0  0  0
  151.1468  145.9248  160.2229 H   0  0  0  0  0  0  0  0  0  0  0  0
  1  2  1  0  0  0  0
  1 24  1  0  0  0  0
  1 25  1  0  0  0  0
  1 26  1  0  0  0  0
  2 22  1  0  0  0  0
  2  3  2  0  0  0  0
  3  4  1  0  0  0  0
  4  5  1  0  0  0  0
  4  6  2  0  0  0  0
  5 27  1  0  0  0  0
  5 28  1  0  0  0  0
  5 29  1  0  0  0  0
  6  7  1  0  0  0  0
  6 20  1  0  0  0  0
  7  8  1  0  0  0  0
  7 30  1  0  0  0  0
  7 31  1  0  0  0  0
  8  9  2  0  0  0  0
  8 10  1  0  0  0  0
 10 11  1  0  0  0  0
 10 32  1  0  0  0  0
 11 12  1  0  0  0  0
 11 13  1  0  0  0  0
 11 33  1  0  0  0  0
 12 34  1  0  0  0  0
 12 35  1  0  0  0  0
 12 36  1  0  0  0  0
 13 18  1  0  0  0  0
 13 14  1  0  0  0  0
 13 37  1  0  0  0  0
 14 15  1  0  0  0  0
 14 38  1  0  0  0  0
 14 39  1  0  0  0  0
 15 19  1  0  0  0  0
 15 16  1  0  0  0  0
 15 40  1  0  0  0  0
 16 17  1  0  0  0  0
 16 41  1  0  0  0  0
 16 42  1  0  0  0  0
 17 18  1  0  0  0  0
 17 43  1  0  0  0  0
 17 44  1  0  0  0  0
 18 19  1  0  0  0  0
 18 45  1  0  0  0  0
 19 46  1  0  0  0  0
 19 47  1  0  0  0  0
 20 21  2  0  0  0  0
 20 22  1  0  0  0  0
 22 23  1  0  0  0  0
M  END
> <s_m_source_file>
AV-unprocessed.smi

> <i_m_source_file_index>
2124

> <i_lp_mmshare_version>
43012

> <i_f3d_flags>
0

> <s_epik_input>
W0NIM11jMW5jKFtDSDNdKWMoYyg9TylbbkhdMSlbQ0gyXUMoPU8pW05IXVtDQEhdKFtDSDNdKVtDQEhdKFtDSDJdW0NASF0yMylbQ0BIXShbQ0gyXTMpW0NIMl1bQ0gyXTI=

> <s_epik_cmdline>
J2VwaWtfcHl0aG9uJywgJy1waCcsICc3LjAnLCAnLXRuJywgJzgnLCAnLW1hJywgJzIwMCcsICctbWV0YWxfYmluZGluZycsICctaW1hZScsICc8aW5maWxlLm1hZT4nLCAnLW9tYWUnLCAnPG91dGZpbGUubWFlPic=

> <r_lp_tautomer_probability>
0.839158

> <r_epik_Ionization_Penalty>
0.000383628

> <r_epik_Ionization_Penalty_Charging>
0.00035045

> <r_epik_Ionization_Penalty_Neutral>
3.31781e-05

> <r_epik_State_Penalty>
0.09125

> <r_epik_Charging_Adjusted_Penalty>
0.0916005

> <i_epik_Tot_Q>
0

> <i_epik_Tot_abs_Q>
0

> <r_epik_Metal_State_Penalty>
0.255229

> <b_epik_Metal_Only>
0

> <s_lp_Force_Field>
OPLS_2005

> <r_lp_Energy>
53.2281

> <b_lp_Chiralities_Consistent>
1

> <s_lp_Variant>
AV-unprocessed.smi:2124-2

> <Gold.Version>
5.8.1

> <Gold.Id.Protein>
6NUR|6NUR_protein|mol2

> <Gold.PLP.Fitness>
44.3621

> <Gold.PLP.PLP>
-42.7929

> <Gold.PLP.part.hbond>
-2.0000

> <Gold.PLP.part.metal>
0.0000

> <Gold.PLP.part.buried>
1.0073

> <Gold.PLP.part.nonpolar>
-42.2494

> <Gold.PLP.part.repulsive>
0.4789

> <Gold.PLP.ligand.clash>
0.0000

> <Gold.PLP.ligand.torsion>
0.7283

> <Gold.PLP.Chemscore.Hbond>
1.0000

> <Gold.PLP.Chemscore.CHOScore>
0.0000

> <Gold.PLP.Chemscore.Metal>
0.0000

> <Gold.PLP.Chemscore.Internal.Correction>
0.0257

> <Gold.Rescore>
     Score         DG    S(hbond)    S(metal)    S(lipo)     H(rot)  DE(clash)    DE(int)     intcor
     16.04     -20.21       0.98        0.00     134.20       1.65       2.54       1.62       ----

> <Gold.Chemscore.Fitness>
16.0449

> <Gold.Chemscore.DG>
-20.2105

> <Gold.Chemscore.ZeroCoef>
-5.4800

> <Gold.Chemscore.Hbond>
0.9765

> <Gold.Chemscore.Metal>
0.0000

> <Gold.Chemscore.Lipo>
134.2007

> <Gold.Chemscore.Internal_Hbond>
0.0000

> <Gold.Chemscore.DEClash>
2.5444

> <Gold.Chemscore.DEInternal>
1.6212

> <Gold.Chemscore.Rot>
1.6534

> <Gold.Chemscore.Internal.Correction>
   9.000000E+99

> <Gold.Chemscore.Hbonds>
donor molecule, donor type, donor heavy atom, donor atom, acceptor molecule, acceptor atom, score
      L1  H    22    23       P1  7948  0.01

> <Gold.Chemscore.Hbond.Weighted>
-3.2616

> <Gold.Chemscore.Metal.Weighted>
-0.0000

> <Gold.Chemscore.Lipo.Weighted>
-15.7015

> <Gold.Chemscore.Internal_Hbond.Weighted>
0.0000

> <Gold.Chemscore.DEClash.Weighted>
2.5444

> <Gold.Chemscore.DEInternal.Weighted>
1.6212

> <Gold.Chemscore.Rot.Weighted>
4.2326

> <Gold.Chemscore.Internal.Correction.Weighted>
   9.000000E+99

> <Gold.Protein.RotatedTorsions>
[ 6907 6896 6895 6894 ] final  108.04 input  -60.11 | X-H torsion
[ 7974 7965 7964 7962 ] final   74.87 input  175.53 | X-H torsion
[ 8008 7997 7996 7995 ] final   20.80 input   59.86 | X-H torsion
[ 10167 10162 10161 10158 ] final  -66.54 input  -65.29 | X-H torsion
[ 10718 10713 10712 10709 ] final  -22.14 input   66.30 | X-H torsion
[ 10763 10752 10751 10750 ] final  -64.95 input  -60.55 | X-H torsion
[ 11005 11000 10999 10996 ] final  -37.99 input  -57.11 | X-H torsion

> <Gold.Protein.ActiveResidues>
 VAL166  LYS551  ARG553  GLY616  TRP617  ASP618  TYR619  PRO620  LYS621  CYS622 
 ASP623  PHE694  ASN695  SER759  ASP760  ASP761  ALA762  ILE779  LEU786  VAL792 
 PHE793  MET794  SER795  GLU796  ALA797  LYS798  CYS799  TRP800  GLU811  SER814 

> <Gold.Protein.RotatedAtoms>
  152.5129  133.9147  159.7504 H   0  0  0  0  0  0  0  0  0  0  0  0  # atno 6907 bound_to 6896
  150.9532  133.6517  159.2775 H   0  0  0  0  0  0  0  0  0  0  0  0  # atno 6908 bound_to 6896
  151.3788  135.0941  159.9542 H   0  0  0  0  0  0  0  0  0  0  0  0  # atno 6909 bound_to 6896
  145.7228  139.2654  143.1586 H   0  0  0  0  0  0  0  0  0  0  0  0  # atno 7974 bound_to 7965
  154.9410  140.3053  155.5120 H   0  0  0  0  0  0  0  0  0  0  0  0  # atno 8008 bound_to 7997
  156.2996  140.2336  156.4417 H   0  0  0  0  0  0  0  0  0  0  0  0  # atno 8009 bound_to 7997
  154.8145  140.0426  157.1355 H   0  0  0  0  0  0  0  0  0  0  0  0  # atno 8010 bound_to 7997
  140.5650  143.2314  151.6653 H   0  0  0  0  0  0  0  0  0  0  0  0  # atno 10167 bound_to 10162
  156.5085  130.4604  149.6661 H   0  0  0  0  0  0  0  0  0  0  0  0  # atno 10718 bound_to 10713
  154.3377  135.6163  153.5581 H   0  0  0  0  0  0  0  0  0  0  0  0  # atno 10763 bound_to 10752
  152.9806  135.5762  154.4889 H   0  0  0  0  0  0  0  0  0  0  0  0  # atno 10764 bound_to 10752
  154.4587  135.2855  155.1706 H   0  0  0  0  0  0  0  0  0  0  0  0  # atno 10765 bound_to 10752
  140.9994  133.6963  156.1994 H   0  0  0  0  0  0  0  0  0  0  0  0  # atno 11005 bound_to 11000
  146.0610  140.7971  142.9735 LP  0  0  0  0  0  0  0  0  0  0  0  0  # atno 17320 bound_to 7965
  144.6912  140.3196  143.7234 LP  0  0  0  0  0  0  0  0  0  0  0  0  # atno 17321 bound_to 7965
  139.5088  144.3598  152.0573 LP  0  0  0  0  0  0  0  0  0  0  0  0  # atno 17342 bound_to 10162
  140.2728  144.3945  150.6145 LP  0  0  0  0  0  0  0  0  0  0  0  0  # atno 17343 bound_to 10162
  156.3263  130.7307  151.2229 LP  0  0  0  0  0  0  0  0  0  0  0  0  # atno 17370 bound_to 10713
  157.7453  131.0442  150.4781 LP  0  0  0  0  0  0  0  0  0  0  0  0  # atno 17371 bound_to 10713
  140.6914  134.4662  157.5588 LP  0  0  0  0  0  0  0  0  0  0  0  0  # atno 17394 bound_to 11000
  139.9031  134.8511  156.1815 LP  0  0  0  0  0  0  0  0  0  0  0  0  # atno 17395 bound_to 11000

$$$$
