AV-unprocessed.smi:1453|AV-procd|sdf|5912|dock2
  -GOLD-   22720 5593D 1   1.00000     0.00000
 Structure written by MMmdl.
 43 44  0  0  0  0  0  0  0  0  1 V2000
  147.8488  134.8579  154.8416 C   0  0  0  0  0  0  0  0  0  0  0  0
  149.1607  135.6578  154.8897 C   0  0  1  0  0  0  0  0  0  0  0  0
  148.9022  137.1682  154.9750 C   0  0  0  0  0  0  0  0  0  0  0  0
  148.3905  137.6592  155.9815 O   0  0  0  0  0  0  0  0  0  0  0  0
  149.2553  137.8969  153.9040 N   0  0  0  0  0  0  0  0  0  0  0  0
  149.0900  139.3422  153.7865 C   0  0  0  0  0  0  0  0  0  0  0  0
  149.8575  140.1508  154.8232 C   0  0  0  0  0  0  0  0  0  0  0  0
  151.2204  139.8861  155.0590 C   0  0  0  0  0  0  0  0  0  0  0  0
  151.9132  140.6550  156.0135 C   0  0  0  0  0  0  0  0  0  0  0  0
  151.2253  141.6781  156.7083 C   0  0  0  0  0  0  0  0  0  0  0  0
  151.9007  142.4644  157.6673 N   0  0  0  0  0  0  0  0  0  0  0  0
  152.0062  143.8881  157.3572 C   0  0  0  0  0  0  0  0  0  0  0  0
  153.0090  144.5704  158.3034 C   0  0  0  0  0  0  0  0  0  0  0  0
  152.6392  144.3260  159.6562 O   0  0  0  0  0  0  0  0  0  0  0  0
  152.6551  142.9364  159.9656 C   0  0  0  0  0  0  0  0  0  0  0  0
  151.6379  142.1968  159.0804 C   0  0  0  0  0  0  0  0  0  0  0  0
  149.9123  141.9292  156.4800 N   0  0  0  0  0  0  0  0  0  0  0  0
  149.2533  141.1896  155.5635 C   0  0  0  0  0  0  0  0  0  0  0  0
  150.1857  135.1042  156.3328 S   0  0  0  0  0  0  0  0  0  0  0  0
  150.3977  133.3001  156.0249 C   0  0  0  0  0  0  0  0  0  0  0  0
  151.5102  135.7387  156.2512 O   0  0  0  0  0  0  0  0  0  0  0  0
  149.3815  135.2697  157.5532 O   0  0  0  0  0  0  0  0  0  0  0  0
  147.2109  135.1896  154.0216 H   0  0  0  0  0  0  0  0  0  0  0  0
  147.2831  134.9591  155.7687 H   0  0  0  0  0  0  0  0  0  0  0  0
  148.0475  133.7965  154.6930 H   0  0  0  0  0  0  0  0  0  0  0  0
  149.7325  135.4407  153.9869 H   0  0  0  0  0  0  0  0  0  0  0  0
  149.6664  137.4194  153.1150 H   0  0  0  0  0  0  0  0  0  0  0  0
  149.3726  139.6645  152.7827 H   0  0  0  0  0  0  0  0  0  0  0  0
  148.0296  139.5704  153.8948 H   0  0  0  0  0  0  0  0  0  0  0  0
  151.7309  139.1018  154.5196 H   0  0  0  0  0  0  0  0  0  0  0  0
  152.9534  140.4424  156.2097 H   0  0  0  0  0  0  0  0  0  0  0  0
  152.3215  144.0557  156.3285 H   0  0  0  0  0  0  0  0  0  0  0  0
  151.0218  144.3451  157.4658 H   0  0  0  0  0  0  0  0  0  0  0  0
  154.0226  144.2098  158.1213 H   0  0  0  0  0  0  0  0  0  0  0  0
  153.0181  145.6460  158.1270 H   0  0  0  0  0  0  0  0  0  0  0  0
  153.6591  142.5325  159.8252 H   0  0  0  0  0  0  0  0  0  0  0  0
  152.4031  142.8039  161.0177 H   0  0  0  0  0  0  0  0  0  0  0  0
  150.6253  142.5183  159.3273 H   0  0  0  0  0  0  0  0  0  0  0  0
  151.6988  141.1262  159.2791 H   0  0  0  0  0  0  0  0  0  0  0  0
  148.2136  141.4437  155.4194 H   0  0  0  0  0  0  0  0  0  0  0  0
  150.9203  132.8513  156.8693 H   0  0  0  0  0  0  0  0  0  0  0  0
  150.9848  133.1435  155.1204 H   0  0  0  0  0  0  0  0  0  0  0  0
  149.4210  132.8297  155.9152 H   0  0  0  0  0  0  0  0  0  0  0  0
  1  2  1  0  0  0  0
  1 23  1  0  0  0  0
  1 24  1  0  0  0  0
  1 25  1  0  0  0  0
  2  3  1  0  0  0  0
  2 19  1  0  0  0  0
  2 26  1  0  0  0  0
  3  4  2  0  0  0  0
  3  5  1  0  0  0  0
  5  6  1  0  0  0  0
  5 27  1  0  0  0  0
  6  7  1  0  0  0  0
  6 28  1  0  0  0  0
  6 29  1  0  0  0  0
  7 18  1  0  0  0  0
  7  8  2  0  0  0  0
  8  9  1  0  0  0  0
  8 30  1  0  0  0  0
  9 10  2  0  0  0  0
  9 31  1  0  0  0  0
 10 11  1  0  0  0  0
 10 17  1  0  0  0  0
 11 16  1  0  0  0  0
 11 12  1  0  0  0  0
 12 13  1  0  0  0  0
 12 32  1  0  0  0  0
 12 33  1  0  0  0  0
 13 14  1  0  0  0  0
 13 34  1  0  0  0  0
 13 35  1  0  0  0  0
 14 15  1  0  0  0  0
 15 16  1  0  0  0  0
 15 36  1  0  0  0  0
 15 37  1  0  0  0  0
 16 38  1  0  0  0  0
 16 39  1  0  0  0  0
 17 18  2  0  0  0  0
 18 40  1  0  0  0  0
 19 20  1  0  0  0  0
 19 21  2  0  0  0  0
 19 22  2  0  0  0  0
 20 41  1  0  0  0  0
 20 42  1  0  0  0  0
 20 43  1  0  0  0  0
M  END
> <s_m_source_file>
AV-unprocessed.smi

> <i_m_source_file_index>
1453

> <i_lp_mmshare_version>
43012

> <i_f3d_flags>
0

> <s_epik_input>
W0NIM11TKD1PKSg9TylbQ0BIXShbQ0gzXSlDKD1PKVtOSF1bQ0gyXWMxW2NIXVtjSF1jKG5bY0hdMSlOMltDSDJdW0NIMl1PW0NIMl1bQ0gyXTI=

> <s_epik_cmdline>
J2VwaWtfcHl0aG9uJywgJy1waCcsICc3LjAnLCAnLXRuJywgJzgnLCAnLW1hJywgJzIwMCcsICctbWV0YWxfYmluZGluZycsICctaW1hZScsICc8aW5maWxlLm1hZT4nLCAnLW9tYWUnLCAnPG91dGZpbGUubWFlPic=

> <r_lp_tautomer_probability>
1

> <r_epik_Ionization_Penalty>
0.00349781

> <r_epik_Ionization_Penalty_Charging>
0

> <r_epik_Ionization_Penalty_Neutral>
0.00349781

> <r_epik_State_Penalty>
0.00248024

> <r_epik_Charging_Adjusted_Penalty>
0.00248024

> <i_epik_Tot_Q>
0

> <i_epik_Tot_abs_Q>
0

> <r_epik_Metal_State_Penalty>
-0

> <b_epik_Metal_Only>
0

> <s_lp_Force_Field>
OPLS_2005

> <r_lp_Energy>
14.4852

> <b_lp_Chiralities_Consistent>
1

> <s_lp_Variant>
AV-unprocessed.smi:1453-2

> <Gold.Version>
5.8.1

> <Gold.Id.Protein>
6NUR|6NUR_protein|mol2

> <Gold.PLP.Fitness>
44.5624

> <Gold.PLP.PLP>
-36.2698

> <Gold.PLP.part.hbond>
-3.0000

> <Gold.PLP.part.metal>
0.0000

> <Gold.PLP.part.buried>
-3.7961

> <Gold.PLP.part.nonpolar>
-29.6648

> <Gold.PLP.part.repulsive>
0.1880

> <Gold.PLP.ligand.clash>
0.0000

> <Gold.PLP.ligand.torsion>
0.4754

> <Gold.PLP.Chemscore.Hbond>
2.8880

> <Gold.PLP.Chemscore.CHOScore>
0.0000

> <Gold.PLP.Chemscore.Metal>
0.0000

> <Gold.Chemscore.Hbonds>
donor molecule, donor type, donor heavy atom, donor atom, acceptor molecule, acceptor atom, score
      L1  H     5    27       P1  7948  0.67
      P1  H 10752 10763       L1    21  0.94

> <Gold.PLP.Chemscore.Internal.Correction>
0.5793

> <Gold.Rescore>
     Score         DG    S(hbond)    S(metal)    S(lipo)     H(rot)  DE(clash)    DE(int)     intcor
     18.52     -19.38       2.82        0.00      83.67       2.08       0.09       0.77       ----

> <Gold.Chemscore.Fitness>
18.5176

> <Gold.Chemscore.DG>
-19.3783

> <Gold.Chemscore.ZeroCoef>
-5.4800

> <Gold.Chemscore.Hbond>
2.8217

> <Gold.Chemscore.Metal>
0.0000

> <Gold.Chemscore.Lipo>
83.6680

> <Gold.Chemscore.Internal_Hbond>
0.0000

> <Gold.Chemscore.DEClash>
0.0907

> <Gold.Chemscore.DEInternal>
0.7700

> <Gold.Chemscore.Rot>
2.0764

> <Gold.Chemscore.Internal.Correction>
   9.000000E+99

> <Gold.Chemscore.Hbonds>
donor molecule, donor type, donor heavy atom, donor atom, acceptor molecule, acceptor atom, score
      L1  H     5    27       P1  7948  0.44
      P1  H  6896  6908       L1    22  0.01
      P1  H 10752 10763       L1    21  0.90

> <Gold.Chemscore.Hbond.Weighted>
-9.4246

> <Gold.Chemscore.Metal.Weighted>
-0.0000

> <Gold.Chemscore.Lipo.Weighted>
-9.7892

> <Gold.Chemscore.Internal_Hbond.Weighted>
0.0000

> <Gold.Chemscore.DEClash.Weighted>
0.0907

> <Gold.Chemscore.DEInternal.Weighted>
0.7700

> <Gold.Chemscore.Rot.Weighted>
5.3155

> <Gold.Chemscore.Internal.Correction.Weighted>
   9.000000E+99

> <Gold.Protein.RotatedTorsions>
[ 6907 6896 6895 6894 ] final  142.30 input  -60.11 | X-H torsion
[ 7974 7965 7964 7962 ] final   11.38 input  175.53 | X-H torsion
[ 8008 7997 7996 7995 ] final  100.46 input   59.86 | X-H torsion
[ 10167 10162 10161 10158 ] final  -90.67 input  -65.29 | X-H torsion
[ 10718 10713 10712 10709 ] final   76.06 input   66.30 | X-H torsion
[ 10763 10752 10751 10750 ] final   75.98 input  -60.55 | X-H torsion
[ 11005 11000 10999 10996 ] final  138.12 input  -57.11 | X-H torsion

> <Gold.Protein.ActiveResidues>
 VAL166  LYS551  ARG553  GLY616  TRP617  ASP618  TYR619  PRO620  LYS621  CYS622 
 ASP623  PHE694  ASN695  SER759  ASP760  ASP761  ALA762  ILE779  LEU786  VAL792 
 PHE793  MET794  SER795  GLU796  ALA797  LYS798  CYS799  TRP800  GLU811  SER814 

> <Gold.Protein.RotatedAtoms>
  152.2204  133.4979  159.5158 H   0  0  0  0  0  0  0  0  0  0  0  0  # atno 6907 bound_to 6896
  150.7011  134.1350  159.4093 H   0  0  0  0  0  0  0  0  0  0  0  0  # atno 6908 bound_to 6896
  151.9271  135.0273  160.0577 H   0  0  0  0  0  0  0  0  0  0  0  0  # atno 6909 bound_to 6896
  146.2372  139.9494  142.8472 H   0  0  0  0  0  0  0  0  0  0  0  0  # atno 7974 bound_to 7965
  156.1205  140.3213  155.8201 H   0  0  0  0  0  0  0  0  0  0  0  0  # atno 8008 bound_to 7997
  155.4513  140.0532  157.3018 H   0  0  0  0  0  0  0  0  0  0  0  0  # atno 8009 bound_to 7997
  154.4824  140.2058  155.9747 H   0  0  0  0  0  0  0  0  0  0  0  0  # atno 8010 bound_to 7997
  140.3525  143.2883  151.9709 H   0  0  0  0  0  0  0  0  0  0  0  0  # atno 10167 bound_to 10162
  157.6659  130.9756  150.1443 H   0  0  0  0  0  0  0  0  0  0  0  0  # atno 10718 bound_to 10713
  153.0693  135.4968  154.8269 H   0  0  0  0  0  0  0  0  0  0  0  0  # atno 10763 bound_to 10752
  154.6999  135.3000  154.9358 H   0  0  0  0  0  0  0  0  0  0  0  0  # atno 10764 bound_to 10752
  154.0085  135.6757  153.4816 H   0  0  0  0  0  0  0  0  0  0  0  0  # atno 10765 bound_to 10752
  140.0161  134.9417  157.0379 H   0  0  0  0  0  0  0  0  0  0  0  0  # atno 11005 bound_to 11000
  145.1876  140.9797  143.4229 LP  0  0  0  0  0  0  0  0  0  0  0  0  # atno 17320 bound_to 7965
  144.9886  139.3712  143.6226 LP  0  0  0  0  0  0  0  0  0  0  0  0  # atno 17321 bound_to 7965
  139.4824  144.6063  151.7515 LP  0  0  0  0  0  0  0  0  0  0  0  0  # atno 17342 bound_to 10162
  140.5205  144.0886  150.6021 LP  0  0  0  0  0  0  0  0  0  0  0  0  # atno 17343 bound_to 10162
  156.2258  130.3678  149.8502 LP  0  0  0  0  0  0  0  0  0  0  0  0  # atno 17370 bound_to 10713
  156.6343  130.8678  151.3501 LP  0  0  0  0  0  0  0  0  0  0  0  0  # atno 17371 bound_to 10713
  140.4468  134.1624  155.7178 LP  0  0  0  0  0  0  0  0  0  0  0  0  # atno 17394 bound_to 11000
  141.1744  133.8544  157.1469 LP  0  0  0  0  0  0  0  0  0  0  0  0  # atno 17395 bound_to 11000

$$$$
