AV-unprocessed.smi:1488|AV-procd|sdf|6023|dock7
  -GOLD-   22720 6123D 1   1.00000     0.00000
 Structure written by MMmdl.
 36 37  0  0  0  0  0  0  0  0  1 V2000
  150.6216  131.9187  155.9100 C   0  0  0  0  0  0  0  0  0  0  0  0
  150.3403  133.2864  156.4303 C   0  0  0  0  0  0  0  0  0  0  0  0
  150.4331  134.5311  155.8737 C   0  0  0  0  0  0  0  0  0  0  0  0
  150.0093  135.3847  156.9268 C   0  0  0  0  0  0  0  0  0  0  0  0
  149.9602  136.7908  156.7490 N   0  0  0  0  0  0  0  0  0  0  0  0
  150.8099  137.7081  157.2419 C   0  0  0  0  0  0  0  0  0  0  0  0
  151.7879  137.4612  157.9480 O   0  0  0  0  0  0  0  0  0  0  0  0
  150.4566  138.9484  156.8734 N   0  0  0  0  0  0  0  0  0  0  0  0
  151.1583  140.1706  157.2542 C   0  0  2  0  0  0  0  0  0  0  0  0
  151.2729  140.2748  158.7877 C   0  0  0  0  0  0  0  0  0  0  0  0
  151.9441  141.5905  159.2132 C   0  0  0  0  0  0  0  0  0  0  0  0
  151.2065  142.8214  158.6447 C   0  0  1  0  0  0  0  0  0  0  0  0
  151.8689  144.1450  159.0800 C   0  0  0  0  0  0  0  0  0  0  0  0
  151.9976  144.1976  160.4062 F   0  0  0  0  0  0  0  0  0  0  0  0
  153.0758  144.2555  158.5251 F   0  0  0  0  0  0  0  0  0  0  0  0
  151.1303  145.1792  158.6775 F   0  0  0  0  0  0  0  0  0  0  0  0
  151.0951  142.7071  157.1094 C   0  0  0  0  0  0  0  0  0  0  0  0
  150.4189  141.3938  156.6836 C   0  0  0  0  0  0  0  0  0  0  0  0
  149.6892  134.7212  158.0274 N   0  0  0  0  0  0  0  0  0  0  0  0
  149.9005  133.3732  157.7150 O   0  0  0  0  0  0  0  0  0  0  0  0
  150.7502  131.9324  154.8276 H   0  0  0  0  0  0  0  0  0  0  0  0
  149.8022  131.2388  156.1437 H   0  0  0  0  0  0  0  0  0  0  0  0
  151.5325  131.5173  156.3542 H   0  0  0  0  0  0  0  0  0  0  0  0
  150.7512  134.7860  154.8735 H   0  0  0  0  0  0  0  0  0  0  0  0
  149.1922  137.1351  156.1922 H   0  0  0  0  0  0  0  0  0  0  0  0
  149.6391  139.0572  156.2913 H   0  0  0  0  0  0  0  0  0  0  0  0
  152.1623  140.1531  156.8255 H   0  0  0  0  0  0  0  0  0  0  0  0
  150.2813  140.2123  159.2386 H   0  0  0  0  0  0  0  0  0  0  0  0
  151.8436  139.4326  159.1806 H   0  0  0  0  0  0  0  0  0  0  0  0
  151.9763  141.6424  160.3018 H   0  0  0  0  0  0  0  0  0  0  0  0
  152.9809  141.5922  158.8750 H   0  0  0  0  0  0  0  0  0  0  0  0
  150.1937  142.8160  159.0506 H   0  0  0  0  0  0  0  0  0  0  0  0
  150.5294  143.5494  156.7103 H   0  0  0  0  0  0  0  0  0  0  0  0
  152.0879  142.7642  156.6615 H   0  0  0  0  0  0  0  0  0  0  0  0
  150.3857  141.3355  155.5948 H   0  0  0  0  0  0  0  0  0  0  0  0
  149.3826  141.3942  157.0248 H   0  0  0  0  0  0  0  0  0  0  0  0
  1  2  1  0  0  0  0
  1 21  1  0  0  0  0
  1 22  1  0  0  0  0
  1 23  1  0  0  0  0
  2 20  1  0  0  0  0
  2  3  2  0  0  0  0
  3  4  1  0  0  0  0
  3 24  1  0  0  0  0
  4  5  1  0  0  0  0
  4 19  2  0  0  0  0
  5  6  1  0  0  0  0
  5 25  1  0  0  0  0
  6  7  2  0  0  0  0
  6  8  1  0  0  0  0
  8  9  1  0  0  0  0
  8 26  1  0  0  0  0
  9 18  1  0  0  0  0
  9 10  1  0  0  0  0
  9 27  1  0  0  0  0
 10 11  1  0  0  0  0
 10 28  1  0  0  0  0
 10 29  1  0  0  0  0
 11 12  1  0  0  0  0
 11 30  1  0  0  0  0
 11 31  1  0  0  0  0
 12 13  1  0  0  0  0
 12 17  1  0  0  0  0
 12 32  1  0  0  0  0
 13 14  1  0  0  0  0
 13 15  1  0  0  0  0
 13 16  1  0  0  0  0
 17 18  1  0  0  0  0
 17 33  1  0  0  0  0
 17 34  1  0  0  0  0
 18 35  1  0  0  0  0
 18 36  1  0  0  0  0
 19 20  1  0  0  0  0
M  END
> <s_m_source_file>
AV-unprocessed.smi

> <i_m_source_file_index>
1488

> <i_lp_mmshare_version>
43012

> <i_f3d_flags>
0

> <s_epik_input>
W0NIM11jMVtjSF1jKG5vMSlbTkhdQyg9TylbTkhdW0NAQEhdMltDSDJdW0NIMl1bQ0BASF0oQyhGKShGKUYpW0NIMl1bQ0gyXTI=

> <s_epik_cmdline>
J2VwaWtfcHl0aG9uJywgJy1waCcsICc3LjAnLCAnLXRuJywgJzgnLCAnLW1hJywgJzIwMCcsICctbWV0YWxfYmluZGluZycsICctaW1hZScsICc8aW5maWxlLm1hZT4nLCAnLW9tYWUnLCAnPG91dGZpbGUubWFlPic=

> <r_lp_tautomer_probability>
1

> <r_epik_Ionization_Penalty>
2.30349e-05

> <r_epik_Ionization_Penalty_Charging>
0

> <r_epik_Ionization_Penalty_Neutral>
2.30349e-05

> <r_epik_State_Penalty>
-0

> <r_epik_Charging_Adjusted_Penalty>
0

> <i_epik_Tot_Q>
0

> <i_epik_Tot_abs_Q>
0

> <r_epik_Metal_State_Penalty>
-0

> <b_epik_Metal_Only>
0

> <s_lp_Force_Field>
OPLS_2005

> <r_lp_Energy>
8.97319

> <b_lp_Chiralities_Consistent>
1

> <s_lp_Variant>
AV-unprocessed.smi:1488-1

> <Gold.Version>
5.8.1

> <Gold.Id.Protein>
6NUR|6NUR_protein|mol2

> <Gold.PLP.Fitness>
36.2515

> <Gold.PLP.PLP>
-35.8070

> <Gold.PLP.part.hbond>
-2.0000

> <Gold.PLP.part.metal>
0.0000

> <Gold.PLP.part.buried>
-5.2956

> <Gold.PLP.part.nonpolar>
-29.3730

> <Gold.PLP.part.repulsive>
0.0370

> <Gold.PLP.ligand.clash>
0.0000

> <Gold.PLP.ligand.torsion>
0.7445

> <Gold.PLP.Chemscore.Hbond>
0.6389

> <Gold.PLP.Chemscore.CHOScore>
0.0000

> <Gold.PLP.Chemscore.Metal>
0.0000

> <Gold.Chemscore.Hbonds>
donor molecule, donor type, donor heavy atom, donor atom, acceptor molecule, acceptor atom, score
      P1  H  6896  6909       L1    19  0.48

> <Gold.PLP.Chemscore.Internal.Correction>
0.0167

> <Gold.Rescore>
     Score         DG    S(hbond)    S(metal)    S(lipo)     H(rot)  DE(clash)    DE(int)     intcor
     11.71     -12.55       0.48        0.00      68.72       1.00       0.05       0.79       ----

> <Gold.Chemscore.Fitness>
11.7067

> <Gold.Chemscore.DG>
-12.5508

> <Gold.Chemscore.ZeroCoef>
-5.4800

> <Gold.Chemscore.Hbond>
0.4761

> <Gold.Chemscore.Metal>
0.0000

> <Gold.Chemscore.Lipo>
68.7226

> <Gold.Chemscore.Internal_Hbond>
0.0000

> <Gold.Chemscore.DEClash>
0.0510

> <Gold.Chemscore.DEInternal>
0.7931

> <Gold.Chemscore.Rot>
1.0000

> <Gold.Chemscore.Internal.Correction>
   9.000000E+99

> <Gold.Chemscore.Hbonds>
donor molecule, donor type, donor heavy atom, donor atom, acceptor molecule, acceptor atom, score
      P1  H  6896  6909       L1    19  0.03

> <Gold.Chemscore.Hbond.Weighted>
-1.5903

> <Gold.Chemscore.Metal.Weighted>
-0.0000

> <Gold.Chemscore.Lipo.Weighted>
-8.0405

> <Gold.Chemscore.Internal_Hbond.Weighted>
0.0000

> <Gold.Chemscore.DEClash.Weighted>
0.0510

> <Gold.Chemscore.DEInternal.Weighted>
0.7931

> <Gold.Chemscore.Rot.Weighted>
2.5600

> <Gold.Chemscore.Internal.Correction.Weighted>
   9.000000E+99

> <Gold.Protein.RotatedTorsions>
[ 6907 6896 6895 6894 ] final   53.03 input  -60.11 | X-H torsion
[ 7974 7965 7964 7962 ] final   39.17 input  175.53 | X-H torsion
[ 8008 7997 7996 7995 ] final  101.62 input   59.86 | X-H torsion
[ 10167 10162 10161 10158 ] final  -24.24 input  -65.29 | X-H torsion
[ 10718 10713 10712 10709 ] final  -96.28 input   66.30 | X-H torsion
[ 10763 10752 10751 10750 ] final   19.64 input  -60.55 | X-H torsion
[ 11005 11000 10999 10996 ] final -177.86 input  -57.11 | X-H torsion

> <Gold.Protein.ActiveResidues>
 VAL166  LYS551  ARG553  GLY616  TRP617  ASP618  TYR619  PRO620  LYS621  CYS622 
 ASP623  PHE694  ASN695  SER759  ASP760  ASP761  ALA762  ILE779  LEU786  VAL792 
 PHE793  MET794  SER795  GLU796  ALA797  LYS798  CYS799  TRP800  GLU811  SER814 

> <Gold.Protein.RotatedAtoms>
  152.3295  134.7278  160.0292 H   0  0  0  0  0  0  0  0  0  0  0  0  # atno 6907 bound_to 6896
  151.7699  133.3335  159.3449 H   0  0  0  0  0  0  0  0  0  0  0  0  # atno 6908 bound_to 6896
  150.7415  134.5960  159.6056 H   0  0  0  0  0  0  0  0  0  0  0  0  # atno 6909 bound_to 6896
  146.1005  139.5684  142.9417 H   0  0  0  0  0  0  0  0  0  0  0  0  # atno 7974 bound_to 7965
  156.1316  140.3194  155.8357 H   0  0  0  0  0  0  0  0  0  0  0  0  # atno 8008 bound_to 7997
  155.4321  140.0519  157.3035 H   0  0  0  0  0  0  0  0  0  0  0  0  # atno 8009 bound_to 7997
  154.4904  140.2090  155.9575 H   0  0  0  0  0  0  0  0  0  0  0  0  # atno 8010 bound_to 7997
  140.7288  143.4370  151.0714 H   0  0  0  0  0  0  0  0  0  0  0  0  # atno 10167 bound_to 10162
  156.0059  130.5145  150.6203 H   0  0  0  0  0  0  0  0  0  0  0  0  # atno 10718 bound_to 10713
  153.1145  135.6704  153.9443 H   0  0  0  0  0  0  0  0  0  0  0  0  # atno 10763 bound_to 10752
  153.8976  135.3039  155.3449 H   0  0  0  0  0  0  0  0  0  0  0  0  # atno 10764 bound_to 10752
  154.7562  135.5010  153.9457 H   0  0  0  0  0  0  0  0  0  0  0  0  # atno 10765 bound_to 10752
  140.4362  134.6474  157.4736 H   0  0  0  0  0  0  0  0  0  0  0  0  # atno 11005 bound_to 11000
  145.5863  141.0376  143.2094 LP  0  0  0  0  0  0  0  0  0  0  0  0  # atno 17320 bound_to 7965
  144.7429  139.7399  143.7303 LP  0  0  0  0  0  0  0  0  0  0  0  0  # atno 17321 bound_to 7965
  139.8034  143.8052  152.3165 LP  0  0  0  0  0  0  0  0  0  0  0  0  # atno 17342 bound_to 10162
  139.8077  144.7349  150.9739 LP  0  0  0  0  0  0  0  0  0  0  0  0  # atno 17343 bound_to 10162
  157.4020  131.0811  151.1300 LP  0  0  0  0  0  0  0  0  0  0  0  0  # atno 17370 bound_to 10713
  157.1959  130.6373  149.5721 LP  0  0  0  0  0  0  0  0  0  0  0  0  # atno 17371 bound_to 10713
  140.0101  134.6704  155.9394 LP  0  0  0  0  0  0  0  0  0  0  0  0  # atno 17394 bound_to 11000
  141.1725  133.6538  156.4704 LP  0  0  0  0  0  0  0  0  0  0  0  0  # atno 17395 bound_to 11000

$$$$
