AV-unprocessed.smi:1971|AV-procd|sdf|7965|dock6
  -GOLD-   2272010133D 1   1.00000     0.00000
 Structure written by MMmdl.
 44 45  0  0  0  0  0  0  0  0  2 V2000
  143.7667  132.6453  151.1285 C   0  0  0  0  0  0  0  0  0  0  0  0
  144.0450  134.1153  151.4742 C   0  0  0  0  0  0  0  0  0  0  0  0
  145.3903  134.5289  151.0678 N   0  0  0  0  0  0  0  0  0  0  0  0
  145.5901  135.9797  150.9726 C   0  0  0  0  0  0  0  0  0  0  0  0
  145.5860  136.6630  152.3563 C   0  0  0  0  0  0  0  0  0  0  0  0
  146.6264  136.0636  153.2273 N   0  3  0  0  0  0  0  0  0  0  0  0
  146.8244  136.7810  154.5208 C   0  0  1  0  0  0  0  0  0  0  0  0
  145.5064  137.1965  155.2032 C   0  0  0  0  0  0  0  0  0  0  0  0
  147.7373  135.9918  155.4898 C   0  0  0  0  0  0  0  0  0  0  0  0
  147.7843  136.5546  156.8379 N   0  0  0  0  0  0  0  0  0  0  0  0
  147.5303  135.8770  157.9667 C   0  0  0  0  0  0  0  0  0  0  0  0
  147.1946  134.6928  157.9830 O   0  0  0  0  0  0  0  0  0  0  0  0
  147.6849  136.6577  159.0501 N   0  0  0  0  0  0  0  0  0  0  0  0
  147.4992  136.3109  160.4143 C   0  0  0  0  0  0  0  0  0  0  0  0
  147.4932  137.1908  161.4225 N   0  0  0  0  0  0  0  0  0  0  0  0
  147.2890  136.5707  162.6579 C   0  0  0  0  0  0  0  0  0  0  0  0
  147.1431  135.2086  162.5708 C   0  0  0  0  0  0  0  0  0  0  0  0
  147.2570  134.6467  160.9244 S   0  0  0  0  0  0  0  0  0  0  0  0
  146.4365  134.5949  153.3317 C   0  0  0  0  0  0  0  0  0  0  0  0
  146.4331  133.9594  151.9259 C   0  0  0  0  0  0  0  0  0  0  0  0
  142.8136  132.3290  151.5525 H   0  0  0  0  0  0  0  0  0  0  0  0
  144.5393  131.9905  151.5330 H   0  0  0  0  0  0  0  0  0  0  0  0
  143.7097  132.4799  150.0529 H   0  0  0  0  0  0  0  0  0  0  0  0
  143.2771  134.7555  151.0416 H   0  0  0  0  0  0  0  0  0  0  0  0
  143.9632  134.2254  152.5565 H   0  0  0  0  0  0  0  0  0  0  0  0
  146.5489  136.1616  150.4852 H   0  0  0  0  0  0  0  0  0  0  0  0
  144.8384  136.4295  150.3252 H   0  0  0  0  0  0  0  0  0  0  0  0
  145.7921  137.7258  152.2247 H   0  0  0  0  0  0  0  0  0  0  0  0
  144.6040  136.5927  152.8234 H   0  0  0  0  0  0  0  0  0  0  0  0
  147.3557  137.7030  154.2820 H   0  0  0  0  0  0  0  0  0  0  0  0
  145.7077  137.8135  156.0794 H   0  0  0  0  0  0  0  0  0  0  0  0
  144.9340  136.3338  155.5439 H   0  0  0  0  0  0  0  0  0  0  0  0
  144.8706  137.7814  154.5390 H   0  0  0  0  0  0  0  0  0  0  0  0
  147.4166  134.9500  155.5430 H   0  0  0  0  0  0  0  0  0  0  0  0
  148.7587  135.9707  155.1097 H   0  0  0  0  0  0  0  0  0  0  0  0
  148.0631  137.5219  156.9177 H   0  0  0  0  0  0  0  0  0  0  0  0
  147.9732  137.6105  158.8828 H   0  0  0  0  0  0  0  0  0  0  0  0
  147.2615  137.1768  163.5514 H   0  0  0  0  0  0  0  0  0  0  0  0
  146.9755  134.5047  163.3725 H   0  0  0  0  0  0  0  0  0  0  0  0
  147.2473  134.1582  153.9143 H   0  0  0  0  0  0  0  0  0  0  0  0
  145.5112  134.3610  153.8583 H   0  0  0  0  0  0  0  0  0  0  0  0
  146.3024  132.8789  151.9973 H   0  0  0  0  0  0  0  0  0  0  0  0
  147.4020  134.1187  151.4505 H   0  0  0  0  0  0  0  0  0  0  0  0
  147.4922  136.1927  152.7235 H   0  0  0  0  0  0  0  0  0  0  0  0
  1  2  1  0  0  0  0
  1 21  1  0  0  0  0
  1 22  1  0  0  0  0
  1 23  1  0  0  0  0
  2  3  1  0  0  0  0
  2 24  1  0  0  0  0
  2 25  1  0  0  0  0
  3 20  1  0  0  0  0
  3  4  1  0  0  0  0
  4  5  1  0  0  0  0
  4 26  1  0  0  0  0
  4 27  1  0  0  0  0
  5  6  1  0  0  0  0
  5 28  1  0  0  0  0
  5 29  1  0  0  0  0
  6  7  1  0  0  0  0
  6 19  1  0  0  0  0
  6 44  1  0  0  0  0
  7  8  1  0  0  0  0
  7  9  1  0  0  0  0
  7 30  1  0  0  0  0
  8 31  1  0  0  0  0
  8 32  1  0  0  0  0
  8 33  1  0  0  0  0
  9 10  1  0  0  0  0
  9 34  1  0  0  0  0
  9 35  1  0  0  0  0
 10 11  1  0  0  0  0
 10 36  1  0  0  0  0
 11 12  2  0  0  0  0
 11 13  1  0  0  0  0
 13 14  1  0  0  0  0
 13 37  1  0  0  0  0
 14 18  1  0  0  0  0
 14 15  2  0  0  0  0
 15 16  1  0  0  0  0
 16 17  2  0  0  0  0
 16 38  1  0  0  0  0
 17 18  1  0  0  0  0
 17 39  1  0  0  0  0
 19 20  1  0  0  0  0
 19 40  1  0  0  0  0
 19 41  1  0  0  0  0
 20 42  1  0  0  0  0
 20 43  1  0  0  0  0
M  CHG  1   6   1
M  END
> <s_m_source_file>
AV-unprocessed.smi

> <i_m_source_file_index>
1971

> <i_lp_mmshare_version>
43012

> <i_f3d_flags>
0

> <s_epik_input>
W0NIM11bQ0gyXU4xW0NIMl1bQ0gyXU4oW0NIMl1bQ0gyXTEpW0NASF0oW0NIM10pW0NIMl1bTkhdQyg9TylbTkhdYzJuW2NIXVtjSF1zMg==

> <s_epik_cmdline>
J2VwaWtfcHl0aG9uJywgJy1waCcsICc3LjAnLCAnLXRuJywgJzgnLCAnLW1hJywgJzIwMCcsICctbWV0YWxfYmluZGluZycsICctaW1hZScsICc8aW5maWxlLm1hZT4nLCAnLW9tYWUnLCAnPG91dGZpbGUubWFlPic=

> <r_epik_Ionization_Penalty>
0.150098

> <r_epik_Ionization_Penalty_Charging>
0.148467

> <r_epik_Ionization_Penalty_Neutral>
0.00163072

> <r_epik_State_Penalty>
0.974087

> <r_epik_Charging_Adjusted_Penalty>
1.12255

> <i_epik_Tot_Q>
1

> <i_epik_Tot_abs_Q>
1

> <r_epik_Metal_State_Penalty>
1.00741

> <b_epik_Metal_Only>
0

> <s_lp_Force_Field>
OPLS_2005

> <r_lp_Energy>
24.0056

> <b_lp_Chiralities_Consistent>
1

> <s_lp_Variant>
AV-unprocessed.smi:1971-4

> <Gold.Version>
5.8.1

> <Gold.Id.Protein>
6NUR|6NUR_protein|mol2

> <Gold.PLP.Fitness>
40.8154

> <Gold.PLP.PLP>
-30.5244

> <Gold.PLP.part.hbond>
-3.0000

> <Gold.PLP.part.metal>
0.0000

> <Gold.PLP.part.buried>
-4.9569

> <Gold.PLP.part.nonpolar>
-22.8359

> <Gold.PLP.part.repulsive>
0.2888

> <Gold.PLP.ligand.clash>
0.0000

> <Gold.PLP.ligand.torsion>
0.5905

> <Gold.PLP.Chemscore.Hbond>
3.7820

> <Gold.PLP.Chemscore.CHOScore>
0.0000

> <Gold.PLP.Chemscore.Metal>
0.0000

> <Gold.Chemscore.Hbonds>
donor molecule, donor type, donor heavy atom, donor atom, acceptor molecule, acceptor atom, score
      L1  H     6    44       P1  7948  2.00
      P1  H  6931  6943       L1    15  0.84
      P1  H  6934  6947       L1    15  0.88

> <Gold.PLP.Chemscore.Internal.Correction>
0.1261

> <Gold.Rescore>
     Score         DG    S(hbond)    S(metal)    S(lipo)     H(rot)  DE(clash)    DE(int)     intcor
     13.34     -14.96       2.08        0.00      60.91       1.79       0.00       1.62       ----

> <Gold.Chemscore.Fitness>
13.3368

> <Gold.Chemscore.DG>
-14.9617

> <Gold.Chemscore.ZeroCoef>
-5.4800

> <Gold.Chemscore.Hbond>
2.0799

> <Gold.Chemscore.Metal>
0.0000

> <Gold.Chemscore.Lipo>
60.9113

> <Gold.Chemscore.Internal_Hbond>
0.0000

> <Gold.Chemscore.DEClash>
0.0000

> <Gold.Chemscore.DEInternal>
1.6250

> <Gold.Chemscore.Rot>
1.7937

> <Gold.Chemscore.Internal.Correction>
   9.000000E+99

> <Gold.Chemscore.Hbonds>
donor molecule, donor type, donor heavy atom, donor atom, acceptor molecule, acceptor atom, score
      L1  H     6    44       P1  7948  1.00
      P1  H  6931  6943       L1    15  0.16
      P1  H  6934  6947       L1    15  0.80

> <Gold.Chemscore.Hbond.Weighted>
-6.9470

> <Gold.Chemscore.Metal.Weighted>
-0.0000

> <Gold.Chemscore.Lipo.Weighted>
-7.1266

> <Gold.Chemscore.Internal_Hbond.Weighted>
0.0000

> <Gold.Chemscore.DEClash.Weighted>
0.0000

> <Gold.Chemscore.DEInternal.Weighted>
1.6250

> <Gold.Chemscore.Rot.Weighted>
4.5919

> <Gold.Chemscore.Internal.Correction.Weighted>
   9.000000E+99

> <Gold.Protein.RotatedTorsions>
[ 6907 6896 6895 6894 ] final -102.70 input  -60.11 | X-H torsion
[ 7974 7965 7964 7962 ] final  -62.49 input  175.53 | X-H torsion
[ 8008 7997 7996 7995 ] final -166.93 input   59.86 | X-H torsion
[ 10167 10162 10161 10158 ] final   12.48 input  -65.29 | X-H torsion
[ 10718 10713 10712 10709 ] final -130.01 input   66.30 | X-H torsion
[ 10763 10752 10751 10750 ] final -115.06 input  -60.55 | X-H torsion
[ 11005 11000 10999 10996 ] final -148.40 input  -57.11 | X-H torsion

> <Gold.Protein.ActiveResidues>
 VAL166  LYS551  ARG553  GLY616  TRP617  ASP618  TYR619  PRO620  LYS621  CYS622 
 ASP623  PHE694  ASN695  SER759  ASP760  ASP761  ALA762  ILE779  LEU786  VAL792 
 PHE793  MET794  SER795  GLU796  ALA797  LYS798  CYS799  TRP800  GLU811  SER814 

> <Gold.Protein.RotatedAtoms>
  150.7207  134.0541  159.3808 H   0  0  0  0  0  0  0  0  0  0  0  0  # atno 6907 bound_to 6896
  151.8519  135.0552  160.0469 H   0  0  0  0  0  0  0  0  0  0  0  0  # atno 6908 bound_to 6896
  152.2784  133.5411  159.5518 H   0  0  0  0  0  0  0  0  0  0  0  0  # atno 6909 bound_to 6896
  145.7907  140.8711  143.0282 H   0  0  0  0  0  0  0  0  0  0  0  0  # atno 7974 bound_to 7965
  155.8707  140.0993  157.1552 H   0  0  0  0  0  0  0  0  0  0  0  0  # atno 8008 bound_to 7997
  154.3997  140.1347  156.4137 H   0  0  0  0  0  0  0  0  0  0  0  0  # atno 8009 bound_to 7997
  155.7754  140.3460  155.5271 H   0  0  0  0  0  0  0  0  0  0  0  0  # atno 8010 bound_to 7997
  140.6065  143.8497  150.7019 H   0  0  0  0  0  0  0  0  0  0  0  0  # atno 10167 bound_to 10162
  156.2103  130.6914  151.0641 H   0  0  0  0  0  0  0  0  0  0  0  0  # atno 10718 bound_to 10713
  154.8466  135.4395  154.1603 H   0  0  0  0  0  0  0  0  0  0  0  0  # atno 10763 bound_to 10752
  153.2742  135.6948  153.7456 H   0  0  0  0  0  0  0  0  0  0  0  0  # atno 10764 bound_to 10752
  153.6685  135.3423  155.3122 H   0  0  0  0  0  0  0  0  0  0  0  0  # atno 10765 bound_to 10752
  140.7616  134.3291  157.5100 H   0  0  0  0  0  0  0  0  0  0  0  0  # atno 11005 bound_to 11000
  144.6782  140.0119  143.7484 LP  0  0  0  0  0  0  0  0  0  0  0  0  # atno 17320 bound_to 7965
  145.9980  139.3068  143.0945 LP  0  0  0  0  0  0  0  0  0  0  0  0  # atno 17321 bound_to 7965
  140.2055  143.3925  152.1759 LP  0  0  0  0  0  0  0  0  0  0  0  0  # atno 17342 bound_to 10162
  139.5329  144.7178  151.4994 LP  0  0  0  0  0  0  0  0  0  0  0  0  # atno 17343 bound_to 10162
  157.7034  131.0766  150.6745 LP  0  0  0  0  0  0  0  0  0  0  0  0  # atno 17370 bound_to 10713
  156.6804  130.4565  149.5629 LP  0  0  0  0  0  0  0  0  0  0  0  0  # atno 17371 bound_to 10713
  139.8770  134.9206  156.3254 LP  0  0  0  0  0  0  0  0  0  0  0  0  # atno 17394 bound_to 11000
  140.9657  133.7359  156.0464 LP  0  0  0  0  0  0  0  0  0  0  0  0  # atno 17395 bound_to 11000

$$$$
