AV-unprocessed.smi:102|AV-procd|sdf|975|dock9
  -GOLD-   2262017533D 1   1.00000     0.00000
 Structure written by MMmdl.
 43 44  0  0  0  0  0  0  0  0  2 V2000
  152.4458  143.2802  161.9523 C   0  0  0  0  0  0  0  0  0  0  0  0
  152.7978  142.4418  160.7306 C   0  0  0  0  0  0  0  0  0  0  0  0
  153.7233  141.6301  160.7516 O   0  0  0  0  0  0  0  0  0  0  0  0
  151.9990  142.7006  159.6850 O   0  0  0  0  0  0  0  0  0  0  0  0
  152.1616  141.9664  158.4829 C   0  0  0  0  0  0  0  0  0  0  0  0
  150.9990  142.2793  157.5309 C   0  0  2  0  0  0  0  0  0  0  0  0
  149.7487  141.9298  158.1128 O   0  0  0  0  0  0  0  0  0  0  0  0
  148.8011  141.7572  157.1003 C   0  0  2  0  0  0  0  0  0  0  0  0
  147.9853  140.5182  157.4076 N   0  0  0  0  0  0  0  0  0  0  0  0
  148.6071  139.2963  157.6019 C   0  0  0  0  0  0  0  0  0  0  0  0
  147.8936  138.1801  157.8516 C   0  0  0  0  0  0  0  0  0  0  0  0
  148.5261  137.0081  158.0328 F   0  0  0  0  0  0  0  0  0  0  0  0
  146.4354  138.2547  157.9197 C   0  0  0  0  0  0  0  0  0  0  0  0
  145.7894  137.2343  158.1531 O   0  0  0  0  0  0  0  0  0  0  0  0
  145.8488  139.4700  157.7168 N   0  5  0  0  0  0  0  0  0  0  0  0
  146.5665  140.6013  157.4539 C   0  0  0  0  0  0  0  0  0  0  0  0
  146.0432  141.6949  157.2405 O   0  0  0  0  0  0  0  0  0  0  0  0
  149.5634  141.6522  155.7615 C   0  0  2  0  0  0  0  0  0  0  0  0
  149.1088  140.5844  154.9337 O   0  0  0  0  0  0  0  0  0  0  0  0
  148.0591  140.7583  154.1163 C   0  0  0  0  0  0  0  0  0  0  0  0
  147.6403  139.4637  153.4332 C   0  0  0  0  0  0  0  0  0  0  0  0
  147.4752  141.8202  153.8999 O   0  0  0  0  0  0  0  0  0  0  0  0
  151.0111  141.4931  156.2179 C   0  0  2  0  0  0  0  0  0  0  0  0
  151.3334  140.1303  156.4925 O   0  0  0  0  0  0  0  0  0  0  0  0
  151.5897  139.2642  155.4969 C   0  0  0  0  0  0  0  0  0  0  0  0
  152.4361  138.0847  155.9571 C   0  0  0  0  0  0  0  0  0  0  0  0
  151.2050  139.3609  154.3317 O   0  0  0  0  0  0  0  0  0  0  0  0
  151.3915  143.1610  162.2031 H   0  0  0  0  0  0  0  0  0  0  0  0
  152.6389  144.3348  161.7556 H   0  0  0  0  0  0  0  0  0  0  0  0
  153.0419  142.9739  162.8122 H   0  0  0  0  0  0  0  0  0  0  0  0
  153.1060  142.2561  158.0203 H   0  0  0  0  0  0  0  0  0  0  0  0
  152.2101  140.8960  158.6892 H   0  0  0  0  0  0  0  0  0  0  0  0
  150.9869  143.3453  157.2968 H   0  0  0  0  0  0  0  0  0  0  0  0
  148.1101  142.6006  157.1301 H   0  0  0  0  0  0  0  0  0  0  0  0
  149.6830  139.2233  157.5508 H   0  0  0  0  0  0  0  0  0  0  0  0
  149.4438  142.6140  155.2602 H   0  0  0  0  0  0  0  0  0  0  0  0
  147.4299  138.6951  154.1772 H   0  0  0  0  0  0  0  0  0  0  0  0
  148.4372  139.1066  152.7809 H   0  0  0  0  0  0  0  0  0  0  0  0
  146.7439  139.6190  152.8326 H   0  0  0  0  0  0  0  0  0  0  0  0
  151.7111  141.9338  155.5067 H   0  0  0  0  0  0  0  0  0  0  0  0
  152.4986  138.0519  157.0452 H   0  0  0  0  0  0  0  0  0  0  0  0
  153.4454  138.1659  155.5544 H   0  0  0  0  0  0  0  0  0  0  0  0
  151.9984  137.1485  155.6099 H   0  0  0  0  0  0  0  0  0  0  0  0
  1  2  1  0  0  0  0
  1 28  1  0  0  0  0
  1 29  1  0  0  0  0
  1 30  1  0  0  0  0
  2  3  2  0  0  0  0
  2  4  1  0  0  0  0
  4  5  1  0  0  0  0
  5  6  1  0  0  0  0
  5 31  1  0  0  0  0
  5 32  1  0  0  0  0
  6 23  1  0  0  0  0
  6  7  1  0  0  0  0
  6 33  1  0  0  0  0
  7  8  1  0  0  0  0
  8  9  1  0  0  0  0
  8 18  1  0  0  0  0
  8 34  1  0  0  0  0
  9 16  1  0  0  0  0
  9 10  1  0  0  0  0
 10 11  2  0  0  0  0
 10 35  1  0  0  0  0
 11 12  1  0  0  0  0
 11 13  1  0  0  0  0
 13 14  2  0  0  0  0
 13 15  1  0  0  0  0
 15 16  1  0  0  0  0
 16 17  2  0  0  0  0
 18 19  1  0  0  0  0
 18 23  1  0  0  0  0
 18 36  1  0  0  0  0
 19 20  1  0  0  0  0
 20 21  1  0  0  0  0
 20 22  2  0  0  0  0
 21 37  1  0  0  0  0
 21 38  1  0  0  0  0
 21 39  1  0  0  0  0
 23 24  1  0  0  0  0
 23 40  1  0  0  0  0
 24 25  1  0  0  0  0
 25 26  1  0  0  0  0
 25 27  2  0  0  0  0
 26 41  1  0  0  0  0
 26 42  1  0  0  0  0
 26 43  1  0  0  0  0
M  CHG  1  15  -1
M  END
> <s_m_source_file>
AV-unprocessed.smi

> <i_m_source_file_index>
102

> <i_lp_mmshare_version>
43012

> <i_f3d_flags>
0

> <s_epik_input>
W0NIM11DKD1PKU9bQ0gyXVtDQEBIXTFPW0NASF0oW0NAQEhdKE9DKD1PKVtDSDNdKVtDQEhdMU9DKD1PKVtDSDNdKW4yW2NIXWMoRiljKD1PKVtuSF1jMj1P

> <s_epik_cmdline>
J2VwaWtfcHl0aG9uJywgJy1waCcsICc3LjAnLCAnLXRuJywgJzgnLCAnLW1hJywgJzIwMCcsICctbWV0YWxfYmluZGluZycsICctaW1hZScsICc8aW5maWxlLm1hZT4nLCAnLW9tYWUnLCAnPG91dGZpbGUubWFlPic=

> <r_epik_Ionization_Penalty>
1.40304

> <r_epik_Ionization_Penalty_Charging>
1.43915e-08

> <r_epik_Ionization_Penalty_Neutral>
1.40304

> <r_epik_State_Penalty>
1.48536

> <r_epik_Charging_Adjusted_Penalty>
1.48536

> <i_epik_Tot_Q>
-1

> <i_epik_Tot_abs_Q>
1

> <r_epik_Metal_State_Penalty>
0.00663881

> <b_epik_Metal_Only>
0

> <s_epik_Chemistry_Notes>
This compound has an ester and may undergo hydrolysis at high or low pH. This compound contains an acetal/aminal-like group ( X-CH(R)-Y where X, Y are N, S, or O) that may be acid/base labile, releasing an aldehyde.

> <s_lp_Force_Field>
OPLS_2005

> <r_lp_Energy>
23.9264

> <b_lp_Chiralities_Consistent>
1

> <s_lp_Variant>
AV-unprocessed.smi:102-31

> <Gold.Version>
5.8.1

> <Gold.Id.Protein>
6NUR|6NUR_protein|mol2

> <Gold.PLP.Fitness>
35.9976

> <Gold.PLP.PLP>
-34.4215

> <Gold.PLP.part.hbond>
-1.0000

> <Gold.PLP.part.metal>
0.0000

> <Gold.PLP.part.buried>
-6.5697

> <Gold.PLP.part.nonpolar>
-27.0774

> <Gold.PLP.part.repulsive>
0.5245

> <Gold.PLP.ligand.clash>
0.0000

> <Gold.PLP.ligand.torsion>
0.7979

> <Gold.PLP.Chemscore.Hbond>
1.0000

> <Gold.PLP.Chemscore.CHOScore>
0.0000

> <Gold.PLP.Chemscore.Metal>
0.0000

> <Gold.Chemscore.Hbonds>
donor molecule, donor type, donor heavy atom, donor atom, acceptor molecule, acceptor atom, score
      P1  H  7989  7998       L1    27  1.00

> <Gold.PLP.Chemscore.Internal.Correction>
0.1719

> <Gold.Rescore>
     Score         DG    S(hbond)    S(metal)    S(lipo)     H(rot)  DE(clash)    DE(int)     intcor
      0.61      -5.40       0.99        0.00      58.42       4.00       0.09       4.70       ----

> <Gold.Chemscore.Fitness>
0.6142

> <Gold.Chemscore.DG>
-5.3967

> <Gold.Chemscore.ZeroCoef>
-5.4800

> <Gold.Chemscore.Hbond>
0.9907

> <Gold.Chemscore.Metal>
0.0000

> <Gold.Chemscore.Lipo>
58.4200

> <Gold.Chemscore.Internal_Hbond>
0.0000

> <Gold.Chemscore.DEClash>
0.0871

> <Gold.Chemscore.DEInternal>
4.6954

> <Gold.Chemscore.Rot>
3.9951

> <Gold.Chemscore.Internal.Correction>
   9.000000E+99

> <Gold.Chemscore.Hbonds>
donor molecule, donor type, donor heavy atom, donor atom, acceptor molecule, acceptor atom, score
      P1  H  7989  7998       L1    27  0.93

> <Gold.Chemscore.Hbond.Weighted>
-3.3090

> <Gold.Chemscore.Metal.Weighted>
-0.0000

> <Gold.Chemscore.Lipo.Weighted>
-6.8351

> <Gold.Chemscore.Internal_Hbond.Weighted>
0.0000

> <Gold.Chemscore.DEClash.Weighted>
0.0871

> <Gold.Chemscore.DEInternal.Weighted>
4.6954

> <Gold.Chemscore.Rot.Weighted>
10.2274

> <Gold.Chemscore.Internal.Correction.Weighted>
   9.000000E+99

> <Gold.Protein.RotatedTorsions>
[ 6907 6896 6895 6894 ] final  106.83 input  -60.11 | X-H torsion
[ 7974 7965 7964 7962 ] final    0.04 input  175.53 | X-H torsion
[ 8008 7997 7996 7995 ] final -171.11 input   59.86 | X-H torsion
[ 10167 10162 10161 10158 ] final    6.73 input  -65.29 | X-H torsion
[ 10718 10713 10712 10709 ] final  118.69 input   66.30 | X-H torsion
[ 10763 10752 10751 10750 ] final -171.40 input  -60.55 | X-H torsion
[ 11005 11000 10999 10996 ] final  -63.85 input  -57.11 | X-H torsion

> <Gold.Protein.ActiveResidues>
 VAL166  LYS551  ARG553  GLY616  TRP617  ASP618  TYR619  PRO620  LYS621  CYS622 
 ASP623  PHE694  ASN695  SER759  ASP760  ASP761  ALA762  ILE779  LEU786  VAL792 
 PHE793  MET794  SER795  GLU796  ALA797  LYS798  CYS799  TRP800  GLU811  SER814 

> <Gold.Protein.RotatedAtoms>
  152.5178  133.9323  159.7586 H   0  0  0  0  0  0  0  0  0  0  0  0  # atno 6907 bound_to 6896
  150.9671  133.6375  159.2751 H   0  0  0  0  0  0  0  0  0  0  0  0  # atno 6908 bound_to 6896
  151.3599  135.0907  159.9484 H   0  0  0  0  0  0  0  0  0  0  0  0  # atno 6909 bound_to 6896
  146.2431  140.1198  142.8341 H   0  0  0  0  0  0  0  0  0  0  0  0  # atno 7974 bound_to 7965
  155.9272  140.1085  157.1160 H   0  0  0  0  0  0  0  0  0  0  0  0  # atno 8008 bound_to 7997
  154.4064  140.1244  156.4821 H   0  0  0  0  0  0  0  0  0  0  0  0  # atno 8009 bound_to 7997
  155.7124  140.3471  155.4982 H   0  0  0  0  0  0  0  0  0  0  0  0  # atno 8010 bound_to 7997
  140.6411  143.7771  150.7430 H   0  0  0  0  0  0  0  0  0  0  0  0  # atno 10167 bound_to 10162
  157.6013  131.1050  150.7792 H   0  0  0  0  0  0  0  0  0  0  0  0  # atno 10718 bound_to 10713
  154.6309  135.2886  155.0217 H   0  0  0  0  0  0  0  0  0  0  0  0  # atno 10763 bound_to 10752
  154.1378  135.6523  153.4939 H   0  0  0  0  0  0  0  0  0  0  0  0  # atno 10764 bound_to 10752
  153.0279  135.5326  154.7136 H   0  0  0  0  0  0  0  0  0  0  0  0  # atno 10765 bound_to 10752
  141.1406  133.6657  156.5744 H   0  0  0  0  0  0  0  0  0  0  0  0  # atno 11005 bound_to 11000
  145.0416  140.8950  143.5049 LP  0  0  0  0  0  0  0  0  0  0  0  0  # atno 17320 bound_to 7965
  145.1279  139.2650  143.5554 LP  0  0  0  0  0  0  0  0  0  0  0  0  # atno 17321 bound_to 7965
  140.1403  143.4447  152.2198 LP  0  0  0  0  0  0  0  0  0  0  0  0  # atno 17342 bound_to 10162
  139.5620  144.7412  151.4127 LP  0  0  0  0  0  0  0  0  0  0  0  0  # atno 17343 bound_to 10162
  156.8190  130.4977  149.5345 LP  0  0  0  0  0  0  0  0  0  0  0  0  # atno 17370 bound_to 10713
  156.1087  130.6024  151.0012 LP  0  0  0  0  0  0  0  0  0  0  0  0  # atno 17371 bound_to 10713
  140.3887  134.7459  157.4708 LP  0  0  0  0  0  0  0  0  0  0  0  0  # atno 17394 bound_to 11000
  140.0582  134.6033  155.8780 LP  0  0  0  0  0  0  0  0  0  0  0  0  # atno 17395 bound_to 11000

$$$$
