AV-unprocessed.smi:1756|AV-procd|sdf|7072|dock8
  -GOLD-   22720 8293D 1   1.00000     0.00000
 Structure written by MMmdl.
 38 39  0  0  0  0  0  0  0  0  1 V2000
  146.1713  136.7482  154.0067 O   0  0  0  0  0  0  0  0  0  0  0  0
  145.6330  137.7595  153.5575 C   0  0  0  0  0  0  0  0  0  0  0  0
  144.3739  137.7804  153.0978 N   0  0  0  0  0  0  0  0  0  0  0  0
  143.4607  136.6414  153.0730 C   0  0  0  0  0  0  0  0  0  0  0  0
  143.6078  135.8033  151.7897 C   0  0  1  0  0  0  0  0  0  0  0  0
  145.0612  135.7105  151.2770 C   0  0  0  0  0  0  0  0  0  0  0  0
  145.1519  134.7751  150.0662 C   0  0  0  0  0  0  0  0  0  0  0  0
  144.5164  133.4236  150.4065 C   0  0  0  0  0  0  0  0  0  0  0  0
  143.0957  133.6277  150.9540 C   0  0  0  0  0  0  0  0  0  0  0  0
  143.1321  134.4919  152.0855 O   0  0  0  0  0  0  0  0  0  0  0  0
  146.2059  138.9712  153.4362 N   0  0  0  0  0  0  0  0  0  0  0  0
  147.4957  139.3910  153.8043 C   0  0  0  0  0  0  0  0  0  0  0  0
  148.5581  138.5666  154.0008 C   0  0  0  0  0  0  0  0  0  0  0  0
  149.8645  139.0705  154.3908 C   0  0  0  0  0  0  0  0  0  0  0  0
  151.0665  138.1487  154.5245 C   0  0  0  0  0  0  0  0  0  0  0  0
  150.8196  137.1535  155.3773 F   0  0  0  0  0  0  0  0  0  0  0  0
  151.3625  137.6159  153.3399 F   0  0  0  0  0  0  0  0  0  0  0  0
  152.1360  138.8160  154.9579 F   0  0  0  0  0  0  0  0  0  0  0  0
  149.9731  140.4032  154.5422 C   0  0  0  0  0  0  0  0  0  0  0  0
  148.8810  141.2553  154.3652 N   0  0  0  0  0  0  0  0  0  0  0  0
  147.6449  140.8418  154.0062 C   0  0  0  0  0  0  0  0  0  0  0  0
  146.7338  141.6575  153.8683 O   0  0  0  0  0  0  0  0  0  0  0  0
  149.0395  142.2414  154.5144 H   0  0  0  0  0  0  0  0  0  0  0  0
  144.0161  138.6534  152.7387 H   0  0  0  0  0  0  0  0  0  0  0  0
  143.5863  136.0124  153.9559 H   0  0  0  0  0  0  0  0  0  0  0  0
  142.4471  137.0388  153.1286 H   0  0  0  0  0  0  0  0  0  0  0  0
  142.9736  136.2374  151.0144 H   0  0  0  0  0  0  0  0  0  0  0  0
  145.4369  136.6960  151.0023 H   0  0  0  0  0  0  0  0  0  0  0  0
  145.7081  135.3405  152.0735 H   0  0  0  0  0  0  0  0  0  0  0  0
  144.6328  135.2221  149.2175 H   0  0  0  0  0  0  0  0  0  0  0  0
  146.1911  134.6423  149.7646 H   0  0  0  0  0  0  0  0  0  0  0  0
  144.4940  132.7831  149.5244 H   0  0  0  0  0  0  0  0  0  0  0  0
  145.1238  132.9095  151.1524 H   0  0  0  0  0  0  0  0  0  0  0  0
  142.4377  134.0402  150.1878 H   0  0  0  0  0  0  0  0  0  0  0  0
  142.6701  132.6707  151.2565 H   0  0  0  0  0  0  0  0  0  0  0  0
  145.6486  139.6841  152.9882 H   0  0  0  0  0  0  0  0  0  0  0  0
  148.4621  137.4992  153.8916 H   0  0  0  0  0  0  0  0  0  0  0  0
  150.8897  140.9136  154.7998 H   0  0  0  0  0  0  0  0  0  0  0  0
  1  2  2  0  0  0  0
  2  3  1  0  0  0  0
  2 11  1  0  0  0  0
  3  4  1  0  0  0  0
  3 24  1  0  0  0  0
  4  5  1  0  0  0  0
  4 25  1  0  0  0  0
  4 26  1  0  0  0  0
  5 10  1  0  0  0  0
  5  6  1  0  0  0  0
  5 27  1  0  0  0  0
  6  7  1  0  0  0  0
  6 28  1  0  0  0  0
  6 29  1  0  0  0  0
  7  8  1  0  0  0  0
  7 30  1  0  0  0  0
  7 31  1  0  0  0  0
  8  9  1  0  0  0  0
  8 32  1  0  0  0  0
  8 33  1  0  0  0  0
  9 10  1  0  0  0  0
  9 34  1  0  0  0  0
  9 35  1  0  0  0  0
 11 12  1  0  0  0  0
 11 36  1  0  0  0  0
 12 21  1  0  0  0  0
 12 13  2  0  0  0  0
 13 14  1  0  0  0  0
 13 37  1  0  0  0  0
 14 15  1  0  0  0  0
 14 19  2  0  0  0  0
 15 16  1  0  0  0  0
 15 17  1  0  0  0  0
 15 18  1  0  0  0  0
 19 20  1  0  0  0  0
 19 38  1  0  0  0  0
 20 23  1  0  0  0  0
 20 21  1  0  0  0  0
 21 22  2  0  0  0  0
M  END
> <s_m_source_file>
AV-unprocessed.smi

> <i_m_source_file_index>
1756

> <i_lp_mmshare_version>
43012

> <i_f3d_flags>
0

> <s_epik_input>
Tz1jMVtuSF1bY0hdYyhDKEYpKEYpRilbY0hdYzFbTkhdQyg9TylbTkhdW0NIMl1bQ0BASF0yW0NIMl1bQ0gyXVtDSDJdW0NIMl1PMg==

> <s_epik_cmdline>
J2VwaWtfcHl0aG9uJywgJy1waCcsICc3LjAnLCAnLXRuJywgJzgnLCAnLW1hJywgJzIwMCcsICctbWV0YWxfYmluZGluZycsICctaW1hZScsICc8aW5maWxlLm1hZT4nLCAnLW9tYWUnLCAnPG91dGZpbGUubWFlPic=

> <r_lp_tautomer_probability>
1

> <r_epik_Ionization_Penalty>
0.00380944

> <r_epik_Ionization_Penalty_Charging>
0.00379057

> <r_epik_Ionization_Penalty_Neutral>
1.88732e-05

> <r_epik_State_Penalty>
-0

> <r_epik_Charging_Adjusted_Penalty>
0.00379057

> <i_epik_Tot_Q>
0

> <i_epik_Tot_abs_Q>
0

> <r_epik_Metal_State_Penalty>
0.371099

> <b_epik_Metal_Only>
0

> <s_lp_Force_Field>
OPLS_2005

> <r_lp_Energy>
19.4394

> <b_lp_Chiralities_Consistent>
1

> <s_lp_Variant>
AV-unprocessed.smi:1756-2

> <Gold.Version>
5.8.1

> <Gold.Id.Protein>
6NUR|6NUR_protein|mol2

> <Gold.PLP.Fitness>
42.1484

> <Gold.PLP.PLP>
-35.9034

> <Gold.PLP.part.hbond>
-3.0000

> <Gold.PLP.part.metal>
0.0000

> <Gold.PLP.part.buried>
-5.7544

> <Gold.PLP.part.nonpolar>
-27.6668

> <Gold.PLP.part.repulsive>
0.6877

> <Gold.PLP.ligand.clash>
1.2728

> <Gold.PLP.ligand.torsion>
0.6515

> <Gold.PLP.Chemscore.Hbond>
2.9280

> <Gold.PLP.Chemscore.CHOScore>
0.0000

> <Gold.PLP.Chemscore.Metal>
0.0000

> <Gold.Chemscore.Hbonds>
donor molecule, donor type, donor heavy atom, donor atom, acceptor molecule, acceptor atom, score
      L1  H     3    24       P1 10175  1.00
      L1  H    11    36       P1 10175  0.63

> <Gold.PLP.Chemscore.Internal.Correction>
0.0368

> <Gold.Rescore>
     Score         DG    S(hbond)    S(metal)    S(lipo)     H(rot)  DE(clash)    DE(int)     intcor
     17.05     -18.79       2.91        0.00      60.02       1.33       0.22       1.52       ----

> <Gold.Chemscore.Fitness>
17.0524

> <Gold.Chemscore.DG>
-18.7931

> <Gold.Chemscore.ZeroCoef>
-5.4800

> <Gold.Chemscore.Hbond>
2.9064

> <Gold.Chemscore.Metal>
0.0000

> <Gold.Chemscore.Lipo>
60.0150

> <Gold.Chemscore.Internal_Hbond>
0.0000

> <Gold.Chemscore.DEClash>
0.2173

> <Gold.Chemscore.DEInternal>
1.5234

> <Gold.Chemscore.Rot>
1.3344

> <Gold.Chemscore.Internal.Correction>
   9.000000E+99

> <Gold.Chemscore.Hbonds>
donor molecule, donor type, donor heavy atom, donor atom, acceptor molecule, acceptor atom, score
      L1  H     3    24       P1 10175  1.00
      L1  H    11    36       P1 10175  0.58

> <Gold.Chemscore.Hbond.Weighted>
-9.7073

> <Gold.Chemscore.Metal.Weighted>
-0.0000

> <Gold.Chemscore.Lipo.Weighted>
-7.0218

> <Gold.Chemscore.Internal_Hbond.Weighted>
0.0000

> <Gold.Chemscore.DEClash.Weighted>
0.2173

> <Gold.Chemscore.DEInternal.Weighted>
1.5234

> <Gold.Chemscore.Rot.Weighted>
3.4160

> <Gold.Chemscore.Internal.Correction.Weighted>
   9.000000E+99

> <Gold.Protein.RotatedTorsions>
[ 6907 6896 6895 6894 ] final   98.95 input  -60.11 | X-H torsion
[ 7974 7965 7964 7962 ] final  -40.96 input  175.53 | X-H torsion
[ 8008 7997 7996 7995 ] final  100.01 input   59.86 | X-H torsion
[ 10167 10162 10161 10158 ] final -171.89 input  -65.29 | X-H torsion
[ 10718 10713 10712 10709 ] final  111.21 input   66.30 | X-H torsion
[ 10763 10752 10751 10750 ] final   -2.56 input  -60.55 | X-H torsion
[ 11005 11000 10999 10996 ] final -159.33 input  -57.11 | X-H torsion

> <Gold.Protein.ActiveResidues>
 VAL166  LYS551  ARG553  GLY616  TRP617  ASP618  TYR619  PRO620  LYS621  CYS622 
 ASP623  PHE694  ASN695  SER759  ASP760  ASP761  ALA762  ILE779  LEU786  VAL792 
 PHE793  MET794  SER795  GLU796  ALA797  LYS798  CYS799  TRP800  GLU811  SER814 

> <Gold.Protein.RotatedAtoms>
  152.5401  134.0503  159.8106 H   0  0  0  0  0  0  0  0  0  0  0  0  # atno 6907 bound_to 6896
  151.0646  133.5508  159.2639 H   0  0  0  0  0  0  0  0  0  0  0  0  # atno 6908 bound_to 6896
  151.2394  135.0591  159.9073 H   0  0  0  0  0  0  0  0  0  0  0  0  # atno 6909 bound_to 6896
  146.0256  140.6796  142.9157 H   0  0  0  0  0  0  0  0  0  0  0  0  # atno 7974 bound_to 7965
  156.1162  140.3220  155.8142 H   0  0  0  0  0  0  0  0  0  0  0  0  # atno 8008 bound_to 7997
  155.4586  140.0537  157.3010 H   0  0  0  0  0  0  0  0  0  0  0  0  # atno 8009 bound_to 7997
  154.4794  140.2046  155.9813 H   0  0  0  0  0  0  0  0  0  0  0  0  # atno 8010 bound_to 7997
  139.5776  144.1497  152.1471 H   0  0  0  0  0  0  0  0  0  0  0  0  # atno 10167 bound_to 10162
  157.6456  131.0946  150.6715 H   0  0  0  0  0  0  0  0  0  0  0  0  # atno 10718 bound_to 10713
  153.3596  135.6989  153.6723 H   0  0  0  0  0  0  0  0  0  0  0  0  # atno 10763 bound_to 10752
  153.5417  135.3571  155.2721 H   0  0  0  0  0  0  0  0  0  0  0  0  # atno 10764 bound_to 10752
  154.8666  135.4205  154.2850 H   0  0  0  0  0  0  0  0  0  0  0  0  # atno 10765 bound_to 10752
  140.6437  134.4524  157.5234 H   0  0  0  0  0  0  0  0  0  0  0  0  # atno 11005 bound_to 11000
  144.7008  140.3643  143.7157 LP  0  0  0  0  0  0  0  0  0  0  0  0  # atno 17320 bound_to 7965
  145.7124  139.1688  143.2531 LP  0  0  0  0  0  0  0  0  0  0  0  0  # atno 17321 bound_to 7965
  140.1043  144.5512  150.6967 LP  0  0  0  0  0  0  0  0  0  0  0  0  # atno 17342 bound_to 10162
  140.7057  143.2466  151.4733 LP  0  0  0  0  0  0  0  0  0  0  0  0  # atno 17343 bound_to 10162
  156.7032  130.4629  149.5567 LP  0  0  0  0  0  0  0  0  0  0  0  0  # atno 17370 bound_to 10713
  156.1781  130.6481  151.0918 LP  0  0  0  0  0  0  0  0  0  0  0  0  # atno 17371 bound_to 10713
  139.9071  134.8426  156.1666 LP  0  0  0  0  0  0  0  0  0  0  0  0  # atno 17394 bound_to 11000
  141.0588  133.6852  156.1912 LP  0  0  0  0  0  0  0  0  0  0  0  0  # atno 17395 bound_to 11000

$$$$
