AV-unprocessed.smi:1585|AV-procd|sdf|6370|dock3
  -GOLD-   22720 6593D 1   1.00000     0.00000
 Structure written by MMmdl.
 43 44  0  0  0  0  0  0  0  0  2 V2000
  151.9599  139.8010  158.5086 C   0  0  0  0  0  0  0  0  0  0  0  0
  151.5089  139.8757  157.0904 C   0  0  0  0  0  0  0  0  0  0  0  0
  150.2753  139.9722  156.5107 C   0  0  0  0  0  0  0  0  0  0  0  0
  150.5778  139.9908  155.1178 C   0  0  0  0  0  0  0  0  0  0  0  0
  149.6414  140.0694  154.0545 N   0  0  0  0  0  0  0  0  0  0  0  0
  148.3131  139.8726  154.0955 C   0  0  0  0  0  0  0  0  0  0  0  0
  147.6565  139.6356  155.1095 O   0  0  0  0  0  0  0  0  0  0  0  0
  147.7683  139.9709  152.8739 N   0  0  0  0  0  0  0  0  0  0  0  0
  146.3547  139.7712  152.5691 C   0  0  0  0  0  0  0  0  0  0  0  0
  146.0817  138.3866  151.9464 C   0  0  1  0  0  0  0  0  0  0  0  0
  147.0645  138.1492  150.9577 O   0  0  0  0  0  0  0  0  0  0  0  0
  146.1951  137.2652  152.9993 C   0  0  0  0  0  0  0  0  0  0  0  0
  146.1601  135.9064  152.3992 N   0  3  0  0  0  0  0  0  0  0  0  0
  146.0555  134.8400  153.4292 C   0  0  0  0  0  0  0  0  0  0  0  0
  146.1684  133.4417  152.7983 C   0  0  0  0  0  0  0  0  0  0  0  0
  145.1145  133.2452  151.7010 C   0  0  0  0  0  0  0  0  0  0  0  0
  145.2168  134.3750  150.6685 C   0  0  0  0  0  0  0  0  0  0  0  0
  145.1205  135.7525  151.3458 C   0  0  0  0  0  0  0  0  0  0  0  0
  151.8740  139.9167  154.8779 N   0  0  0  0  0  0  0  0  0  0  0  0
  152.4790  139.8419  156.1378 O   0  0  0  0  0  0  0  0  0  0  0  0
  151.1243  139.9568  159.1911 H   0  0  0  0  0  0  0  0  0  0  0  0
  152.7128  140.5613  158.7164 H   0  0  0  0  0  0  0  0  0  0  0  0
  152.3949  138.8250  158.7240 H   0  0  0  0  0  0  0  0  0  0  0  0
  149.3232  140.0165  157.0174 H   0  0  0  0  0  0  0  0  0  0  0  0
  150.0375  140.2737  153.1488 H   0  0  0  0  0  0  0  0  0  0  0  0
  148.3787  140.1682  152.0939 H   0  0  0  0  0  0  0  0  0  0  0  0
  145.7653  139.9149  153.4756 H   0  0  0  0  0  0  0  0  0  0  0  0
  146.0410  140.5588  151.8816 H   0  0  0  0  0  0  0  0  0  0  0  0
  145.0958  138.3731  151.4832 H   0  0  0  0  0  0  0  0  0  0  0  0
  147.5261  137.3541  151.1784 H   0  0  0  0  0  0  0  0  0  0  0  0
  147.1276  137.4034  153.5491 H   0  0  0  0  0  0  0  0  0  0  0  0
  145.3951  137.3484  153.7368 H   0  0  0  0  0  0  0  0  0  0  0  0
  146.8497  134.9610  154.1672 H   0  0  0  0  0  0  0  0  0  0  0  0
  145.1083  134.9389  153.9622 H   0  0  0  0  0  0  0  0  0  0  0  0
  147.1659  133.3097  152.3769 H   0  0  0  0  0  0  0  0  0  0  0  0
  146.0535  132.6760  153.5662 H   0  0  0  0  0  0  0  0  0  0  0  0
  145.2498  132.2776  151.2167 H   0  0  0  0  0  0  0  0  0  0  0  0
  144.1175  133.2378  152.1432 H   0  0  0  0  0  0  0  0  0  0  0  0
  146.1628  134.2967  150.1311 H   0  0  0  0  0  0  0  0  0  0  0  0
  144.4278  134.2700  149.9231 H   0  0  0  0  0  0  0  0  0  0  0  0
  144.1311  135.8837  151.7870 H   0  0  0  0  0  0  0  0  0  0  0  0
  145.2291  136.5249  150.5856 H   0  0  0  0  0  0  0  0  0  0  0  0
  147.0567  135.7763  151.9519 H   0  0  0  0  0  0  0  0  0  0  0  0
  1  2  1  0  0  0  0
  1 21  1  0  0  0  0
  1 22  1  0  0  0  0
  1 23  1  0  0  0  0
  2 20  1  0  0  0  0
  2  3  2  0  0  0  0
  3  4  1  0  0  0  0
  3 24  1  0  0  0  0
  4  5  1  0  0  0  0
  4 19  2  0  0  0  0
  5  6  1  0  0  0  0
  5 25  1  0  0  0  0
  6  7  2  0  0  0  0
  6  8  1  0  0  0  0
  8  9  1  0  0  0  0
  8 26  1  0  0  0  0
  9 10  1  0  0  0  0
  9 27  1  0  0  0  0
  9 28  1  0  0  0  0
 10 11  1  0  0  0  0
 10 12  1  0  0  0  0
 10 29  1  0  0  0  0
 11 30  1  0  0  0  0
 12 13  1  0  0  0  0
 12 31  1  0  0  0  0
 12 32  1  0  0  0  0
 13 18  1  0  0  0  0
 13 14  1  0  0  0  0
 13 43  1  0  0  0  0
 14 15  1  0  0  0  0
 14 33  1  0  0  0  0
 14 34  1  0  0  0  0
 15 16  1  0  0  0  0
 15 35  1  0  0  0  0
 15 36  1  0  0  0  0
 16 17  1  0  0  0  0
 16 37  1  0  0  0  0
 16 38  1  0  0  0  0
 17 18  1  0  0  0  0
 17 39  1  0  0  0  0
 17 40  1  0  0  0  0
 18 41  1  0  0  0  0
 18 42  1  0  0  0  0
 19 20  1  0  0  0  0
M  CHG  1  13   1
M  END
> <s_m_source_file>
AV-unprocessed.smi

> <i_m_source_file_index>
1585

> <i_lp_mmshare_version>
43012

> <i_f3d_flags>
0

> <s_epik_input>
W0NIM11jMVtjSF1jKG5vMSlbTkhdQyg9TylbTkhdW0NIMl1bQ0BIXShbT0hdKVtDSDJdTjJbQ0gyXVtDSDJdW0NIMl1bQ0gyXVtDSDJdMg==

> <s_epik_cmdline>
J2VwaWtfcHl0aG9uJywgJy1waCcsICc3LjAnLCAnLXRuJywgJzgnLCAnLW1hJywgJzIwMCcsICctbWV0YWxfYmluZGluZycsICctaW1hZScsICc8aW5maWxlLm1hZT4nLCAnLW9tYWUnLCAnPG91dGZpbGUubWFlPic=

> <r_epik_Ionization_Penalty>
0.00531443

> <r_epik_Ionization_Penalty_Charging>
0.0052814

> <r_epik_Ionization_Penalty_Neutral>
3.3027e-05

> <r_epik_State_Penalty>
0.00385383

> <r_epik_Charging_Adjusted_Penalty>
0.00913523

> <i_epik_Tot_Q>
1

> <i_epik_Tot_abs_Q>
1

> <r_epik_Metal_State_Penalty>
0.0139186

> <b_epik_Metal_Only>
0

> <s_lp_Force_Field>
OPLS_2005

> <r_lp_Energy>
18.0129

> <b_lp_Chiralities_Consistent>
1

> <s_lp_Variant>
AV-unprocessed.smi:1585-2

> <Gold.Version>
5.8.1

> <Gold.Id.Protein>
6NUR|6NUR_protein|mol2

> <Gold.PLP.Fitness>
47.4993

> <Gold.PLP.PLP>
-29.3988

> <Gold.PLP.part.hbond>
-7.5797

> <Gold.PLP.part.metal>
0.0000

> <Gold.PLP.part.buried>
1.0230

> <Gold.PLP.part.nonpolar>
-23.9873

> <Gold.PLP.part.repulsive>
0.7882

> <Gold.PLP.ligand.clash>
0.0000

> <Gold.PLP.ligand.torsion>
0.3926

> <Gold.PLP.Chemscore.Hbond>
6.2750

> <Gold.PLP.Chemscore.CHOScore>
0.0000

> <Gold.PLP.Chemscore.Metal>
0.0000

> <Gold.Chemscore.Hbonds>
donor molecule, donor type, donor heavy atom, donor atom, acceptor molecule, acceptor atom, score
      L1  H     5    25       P1  7957  0.80
      L1  H     8    26       P1  7957  1.00
      L1  H    11    30       P1  7948  1.00
      L1  H    13    43       P1  7948  2.00
      P1  H  7989  7998       L1    19  0.47
      P1  H  7997  8009       L1    20  1.00

> <Gold.PLP.Chemscore.Internal.Correction>
0.0607

> <Gold.Rescore>
     Score         DG    S(hbond)    S(metal)    S(lipo)     H(rot)  DE(clash)    DE(int)     intcor
     18.34     -21.29       4.58        0.00      59.04       2.50       1.47       1.47       ----

> <Gold.Chemscore.Fitness>
18.3446

> <Gold.Chemscore.DG>
-21.2867

> <Gold.Chemscore.ZeroCoef>
-5.4800

> <Gold.Chemscore.Hbond>
4.5768

> <Gold.Chemscore.Metal>
0.0000

> <Gold.Chemscore.Lipo>
59.0437

> <Gold.Chemscore.Internal_Hbond>
0.0000

> <Gold.Chemscore.DEClash>
1.4721

> <Gold.Chemscore.DEInternal>
1.4700

> <Gold.Chemscore.Rot>
2.4953

> <Gold.Chemscore.Internal.Correction>
   9.000000E+99

> <Gold.Chemscore.Hbonds>
donor molecule, donor type, donor heavy atom, donor atom, acceptor molecule, acceptor atom, score
      L1  H     5    25       P1  7957  0.74
      L1  H     8    26       P1  7957  0.93
      L1  H    11    30       P1  7948  0.99
      L1  H    13    43       P1  7948  0.94
      P1  H  7989  7998       L1    19  0.02
      P1  H  7997  8009       L1    20  0.98

> <Gold.Chemscore.Hbond.Weighted>
-15.2866

> <Gold.Chemscore.Metal.Weighted>
-0.0000

> <Gold.Chemscore.Lipo.Weighted>
-6.9081

> <Gold.Chemscore.Internal_Hbond.Weighted>
0.0000

> <Gold.Chemscore.DEClash.Weighted>
1.4721

> <Gold.Chemscore.DEInternal.Weighted>
1.4700

> <Gold.Chemscore.Rot.Weighted>
6.3880

> <Gold.Chemscore.Internal.Correction.Weighted>
   9.000000E+99

> <Gold.Protein.RotatedTorsions>
[ 6907 6896 6895 6894 ] final   -6.96 input  -60.11 | X-H torsion
[ 7974 7965 7964 7962 ] final   56.97 input  175.53 | X-H torsion
[ 8008 7997 7996 7995 ] final -162.89 input   59.86 | X-H torsion
[ 10167 10162 10161 10158 ] final  142.79 input  -65.29 | X-H torsion
[ 10718 10713 10712 10709 ] final  -36.18 input   66.30 | X-H torsion
[ 10763 10752 10751 10750 ] final    9.47 input  -60.55 | X-H torsion
[ 11005 11000 10999 10996 ] final   -1.53 input  -57.11 | X-H torsion

> <Gold.Protein.ActiveResidues>
 VAL166  LYS551  ARG553  GLY616  TRP617  ASP618  TYR619  PRO620  LYS621  CYS622 
 ASP623  PHE694  ASN695  SER759  ASP760  ASP761  ALA762  ILE779  LEU786  VAL792 
 PHE793  MET794  SER795  GLU796  ALA797  LYS798  CYS799  TRP800  GLU811  SER814 

> <Gold.Protein.RotatedAtoms>
  151.4572  135.1035  159.9714 H   0  0  0  0  0  0  0  0  0  0  0  0  # atno 6907 bound_to 6896
  152.4866  133.8386  159.7151 H   0  0  0  0  0  0  0  0  0  0  0  0  # atno 6908 bound_to 6896
  150.8982  133.7093  159.2913 H   0  0  0  0  0  0  0  0  0  0  0  0  # atno 6909 bound_to 6896
  145.9341  139.3832  143.0403 H   0  0  0  0  0  0  0  0  0  0  0  0  # atno 7974 bound_to 7965
  155.8134  140.0909  157.1890 H   0  0  0  0  0  0  0  0  0  0  0  0  # atno 8008 bound_to 7997
  154.3979  140.1450  156.3474 H   0  0  0  0  0  0  0  0  0  0  0  0  # atno 8009 bound_to 7997
  155.8341  140.3441  155.5593 H   0  0  0  0  0  0  0  0  0  0  0  0  # atno 8010 bound_to 7997
  139.4985  144.6084  151.6328 H   0  0  0  0  0  0  0  0  0  0  0  0  # atno 10167 bound_to 10162
  156.3299  130.4278  149.7882 H   0  0  0  0  0  0  0  0  0  0  0  0  # atno 10718 bound_to 10713
  153.2137  135.6872  153.8083 H   0  0  0  0  0  0  0  0  0  0  0  0  # atno 10763 bound_to 10752
  153.7307  135.3253  155.3286 H   0  0  0  0  0  0  0  0  0  0  0  0  # atno 10764 bound_to 10752
  154.8235  135.4635  154.0955 H   0  0  0  0  0  0  0  0  0  0  0  0  # atno 10765 bound_to 10752
  140.6483  133.9427  155.8365 H   0  0  0  0  0  0  0  0  0  0  0  0  # atno 11005 bound_to 11000
  145.8388  140.9592  143.0810 LP  0  0  0  0  0  0  0  0  0  0  0  0  # atno 17320 bound_to 7965
  144.6769  140.0257  143.7483 LP  0  0  0  0  0  0  0  0  0  0  0  0  # atno 17321 bound_to 7965
  140.5751  144.0041  150.6237 LP  0  0  0  0  0  0  0  0  0  0  0  0  # atno 17342 bound_to 10162
  140.3172  143.3160  152.0820 LP  0  0  0  0  0  0  0  0  0  0  0  0  # atno 17343 bound_to 10162
  156.5159  130.8193  151.3186 LP  0  0  0  0  0  0  0  0  0  0  0  0  # atno 17370 bound_to 10713
  157.7428  130.9899  150.2546 LP  0  0  0  0  0  0  0  0  0  0  0  0  # atno 17371 bound_to 10713
  141.0555  134.0422  157.3727 LP  0  0  0  0  0  0  0  0  0  0  0  0  # atno 17394 bound_to 11000
  139.9055  135.0178  156.7465 LP  0  0  0  0  0  0  0  0  0  0  0  0  # atno 17395 bound_to 11000

$$$$
