AV-unprocessed.smi:261|AV-procd|sdf|1987|dock10
  -GOLD-   2262021173D 1   1.00000     0.00000
 Structure written by MMmdl.
 51 54  0  0  0  0  0  0  0  0  1 V2000
  152.7887  143.8839  159.4747 C   0  0  0  0  0  0  0  0  0  0  0  0
  153.1641  142.5165  159.4418 O   0  0  0  0  0  0  0  0  0  0  0  0
  152.0978  141.6482  159.0886 C   0  0  1  0  0  0  0  0  0  0  0  0
  151.3957  142.1355  157.8274 C   0  0  0  0  0  0  0  0  0  0  0  0
  150.6963  140.8707  157.3110 C   0  0  1  0  0  0  0  0  0  0  0  0
  150.4355  140.9344  155.7992 C   0  0  0  0  0  0  0  0  0  0  0  0
  149.7272  141.9752  155.3551 N   0  0  0  0  0  0  0  0  0  0  0  0
  150.8753  140.0721  155.0403 O   0  0  0  0  0  0  0  0  0  0  0  0
  151.6098  139.7825  157.6715 N   0  0  0  0  0  0  0  0  0  0  0  0
  151.0172  138.5945  157.9243 C   0  0  0  0  0  0  0  0  0  0  0  0
  150.4164  138.4439  159.1296 N   0  0  0  0  0  0  0  0  0  0  0  0
  149.8183  137.2888  159.4372 C   0  0  0  0  0  0  0  0  0  0  0  0
  149.7094  136.1812  158.6992 N   0  0  0  0  0  0  0  0  0  0  0  0
  150.3170  136.3317  157.4870 C   0  0  0  0  0  0  0  0  0  0  0  0
  150.9902  137.4950  157.0209 C   0  0  0  0  0  0  0  0  0  0  0  0
  151.4880  137.2767  155.7416 N   0  0  0  0  0  0  0  0  0  0  0  0
  151.1287  136.0522  155.4668 C   0  0  0  0  0  0  0  0  0  0  0  0
  150.4223  135.4116  156.4592 N   0  0  0  0  0  0  0  0  0  0  0  0
  149.9075  134.0544  156.4196 C   0  0  0  0  0  0  0  0  0  0  0  0
  151.0188  133.0073  156.2077 C   0  0  1  0  0  0  0  0  0  0  0  0
  151.7682  132.8682  157.3999 O   0  0  0  0  0  0  0  0  0  0  0  0
  150.4504  131.6317  155.8134 C   0  0  2  0  0  0  0  0  0  0  0  0
  151.5043  130.5912  155.4365 C   0  0  0  0  0  0  0  0  0  0  0  0
  150.7232  129.6038  154.5873 C   0  0  0  0  0  0  0  0  0  0  0  0
  149.5178  130.4123  154.0978 C   0  0  0  0  0  0  0  0  0  0  0  0
  149.7016  131.7259  154.6114 O   0  0  0  0  0  0  0  0  0  0  0  0
  152.5597  140.2465  158.6789 C   0  0  0  0  0  0  0  0  0  0  0  0
  151.3651  141.5844  159.8956 H   0  0  0  0  0  0  0  0  0  0  0  0
  149.7460  140.7510  157.8360 H   0  0  0  0  0  0  0  0  0  0  0  0
  153.6560  144.4938  159.7274 H   0  0  0  0  0  0  0  0  0  0  0  0
  152.0201  144.0708  160.2252 H   0  0  0  0  0  0  0  0  0  0  0  0
  152.4179  144.2142  158.5036 H   0  0  0  0  0  0  0  0  0  0  0  0
  150.6997  142.9509  158.0273 H   0  0  0  0  0  0  0  0  0  0  0  0
  152.1350  142.4936  157.1080 H   0  0  0  0  0  0  0  0  0  0  0  0
  149.5274  142.0667  154.3697 H   0  0  0  0  0  0  0  0  0  0  0  0
  149.3943  142.6688  156.0090 H   0  0  0  0  0  0  0  0  0  0  0  0
  149.3618  137.2457  160.4151 H   0  0  0  0  0  0  0  0  0  0  0  0
  151.3727  135.5777  154.5274 H   0  0  0  0  0  0  0  0  0  0  0  0
  149.3670  133.8571  157.3461 H   0  0  0  0  0  0  0  0  0  0  0  0
  149.1737  133.9949  155.6150 H   0  0  0  0  0  0  0  0  0  0  0  0
  151.6961  133.3550  155.4266 H   0  0  0  0  0  0  0  0  0  0  0  0
  152.4938  132.2866  157.2321 H   0  0  0  0  0  0  0  0  0  0  0  0
  149.8053  131.2407  156.6029 H   0  0  0  0  0  0  0  0  0  0  0  0
  152.2896  131.0511  154.8353 H   0  0  0  0  0  0  0  0  0  0  0  0
  151.9724  130.1263  156.3044 H   0  0  0  0  0  0  0  0  0  0  0  0
  151.3249  129.2174  153.7643 H   0  0  0  0  0  0  0  0  0  0  0  0
  150.3892  128.7565  155.1869 H   0  0  0  0  0  0  0  0  0  0  0  0
  149.4466  130.4347  153.0103 H   0  0  0  0  0  0  0  0  0  0  0  0
  148.5898  129.9948  154.4906 H   0  0  0  0  0  0  0  0  0  0  0  0
  153.5402  140.2948  158.2039 H   0  0  0  0  0  0  0  0  0  0  0  0
  152.6515  139.5834  159.5408 H   0  0  0  0  0  0  0  0  0  0  0  0
  1  2  1  0  0  0  0
  1 30  1  0  0  0  0
  1 31  1  0  0  0  0
  1 32  1  0  0  0  0
  2  3  1  0  0  0  0
  3 28  1  0  0  0  0
  3 27  1  0  0  0  0
  3  4  1  0  0  0  0
  4  5  1  0  0  0  0
  4 33  1  0  0  0  0
  4 34  1  0  0  0  0
  5 29  1  0  0  0  0
  5  6  1  0  0  0  0
  5  9  1  0  0  0  0
  6  7  1  0  0  0  0
  6  8  2  0  0  0  0
  7 35  1  0  0  0  0
  7 36  1  0  0  0  0
  9 10  1  0  0  0  0
  9 27  1  0  0  0  0
 10 15  1  0  0  0  0
 10 11  2  0  0  0  0
 11 12  1  0  0  0  0
 12 13  2  0  0  0  0
 12 37  1  0  0  0  0
 13 14  1  0  0  0  0
 14 18  1  0  0  0  0
 14 15  2  0  0  0  0
 15 16  1  0  0  0  0
 16 17  2  0  0  0  0
 17 18  1  0  0  0  0
 17 38  1  0  0  0  0
 18 19  1  0  0  0  0
 19 20  1  0  0  0  0
 19 39  1  0  0  0  0
 19 40  1  0  0  0  0
 20 21  1  0  0  0  0
 20 22  1  0  0  0  0
 20 41  1  0  0  0  0
 21 42  1  0  0  0  0
 22 26  1  0  0  0  0
 22 23  1  0  0  0  0
 22 43  1  0  0  0  0
 23 24  1  0  0  0  0
 23 44  1  0  0  0  0
 23 45  1  0  0  0  0
 24 25  1  0  0  0  0
 24 46  1  0  0  0  0
 24 47  1  0  0  0  0
 25 26  1  0  0  0  0
 25 48  1  0  0  0  0
 25 49  1  0  0  0  0
 27 50  1  0  0  0  0
 27 51  1  0  0  0  0
M  END
> <s_m_source_file>
AV-unprocessed.smi

> <i_m_source_file_index>
261

> <i_lp_mmshare_version>
43012

> <i_f3d_flags>
0

> <s_epik_input>
W0NIM11PW0NASF0xW0NIMl1bQ0BASF0oQyg9TylbTkgyXSlOKFtDSDJdMSljKG5bY0hdbjIpYyhjMjMpbltjSF1uM1tDSDJdW0NASF0oW09IXSlbQ0BASF00W0NIMl1bQ0gyXVtDSDJdTzQ=

> <s_epik_cmdline>
J2VwaWtfcHl0aG9uJywgJy1waCcsICc3LjAnLCAnLXRuJywgJzgnLCAnLW1hJywgJzIwMCcsICctbWV0YWxfYmluZGluZycsICctaW1hZScsICc8aW5maWxlLm1hZT4nLCAnLW9tYWUnLCAnPG91dGZpbGUubWFlPic=

> <r_lp_tautomer_probability>
1

> <r_epik_Ionization_Penalty>
0.000713824

> <r_epik_Ionization_Penalty_Charging>
0

> <r_epik_Ionization_Penalty_Neutral>
0.000713824

> <r_epik_State_Penalty>
0.000402132

> <r_epik_Charging_Adjusted_Penalty>
0.000402132

> <i_epik_Tot_Q>
0

> <i_epik_Tot_abs_Q>
0

> <r_epik_Metal_State_Penalty>
-0

> <b_epik_Metal_Only>
0

> <s_lp_Force_Field>
OPLS_2005

> <r_lp_Energy>
45.3763

> <b_lp_Chiralities_Consistent>
1

> <s_lp_Variant>
AV-unprocessed.smi:261-5

> <Gold.Version>
5.8.1

> <Gold.Id.Protein>
6NUR|6NUR_protein|mol2

> <Gold.PLP.Fitness>
47.5647

> <Gold.PLP.PLP>
-38.6519

> <Gold.PLP.part.hbond>
-4.6876

> <Gold.PLP.part.metal>
0.0000

> <Gold.PLP.part.buried>
-6.5602

> <Gold.PLP.part.nonpolar>
-27.1596

> <Gold.PLP.part.repulsive>
0.3150

> <Gold.PLP.ligand.clash>
0.0000

> <Gold.PLP.ligand.torsion>
0.5375

> <Gold.PLP.Chemscore.Hbond>
3.2758

> <Gold.PLP.Chemscore.CHOScore>
0.0000

> <Gold.PLP.Chemscore.Metal>
0.0000

> <Gold.Chemscore.Hbonds>
donor molecule, donor type, donor heavy atom, donor atom, acceptor molecule, acceptor atom, score
      L1  H     7    36       P1  8028  0.41
      P1  H  6896  6907       L1    13  1.00
      P1  H  6896  6909       L1    21  0.86
      P1  H  7989  7998       L1     8  1.00

> <Gold.PLP.Chemscore.Internal.Correction>
0.1602

> <Gold.Rescore>
     Score         DG    S(hbond)    S(metal)    S(lipo)     H(rot)  DE(clash)    DE(int)     intcor
     12.35     -14.03       2.61        0.00      76.61       3.57       0.04       1.64       ----

> <Gold.Chemscore.Fitness>
12.3488

> <Gold.Chemscore.DG>
-14.0276

> <Gold.Chemscore.ZeroCoef>
-5.4800

> <Gold.Chemscore.Hbond>
2.6150

> <Gold.Chemscore.Metal>
0.0000

> <Gold.Chemscore.Lipo>
76.6072

> <Gold.Chemscore.Internal_Hbond>
0.0000

> <Gold.Chemscore.DEClash>
0.0382

> <Gold.Chemscore.DEInternal>
1.6406

> <Gold.Chemscore.Rot>
3.5740

> <Gold.Chemscore.Internal.Correction>
   9.000000E+99

> <Gold.Chemscore.Hbonds>
donor molecule, donor type, donor heavy atom, donor atom, acceptor molecule, acceptor atom, score
      L1  H     7    36       P1  8028  0.41
      P1  H  6896  6907       L1    13  0.31
      P1  H  6896  6909       L1    21  0.63
      P1  H  7989  7998       L1     8  0.74

> <Gold.Chemscore.Hbond.Weighted>
-8.7340

> <Gold.Chemscore.Metal.Weighted>
-0.0000

> <Gold.Chemscore.Lipo.Weighted>
-8.9630

> <Gold.Chemscore.Internal_Hbond.Weighted>
0.0000

> <Gold.Chemscore.DEClash.Weighted>
0.0382

> <Gold.Chemscore.DEInternal.Weighted>
1.6406

> <Gold.Chemscore.Rot.Weighted>
9.1495

> <Gold.Chemscore.Internal.Correction.Weighted>
   9.000000E+99

> <Gold.Protein.RotatedTorsions>
[ 6907 6896 6895 6894 ] final  -61.32 input  -60.11 | X-H torsion
[ 7974 7965 7964 7962 ] final   26.86 input  175.53 | X-H torsion
[ 8008 7997 7996 7995 ] final   16.88 input   59.86 | X-H torsion
[ 10167 10162 10161 10158 ] final  -31.25 input  -65.29 | X-H torsion
[ 10718 10713 10712 10709 ] final -138.93 input   66.30 | X-H torsion
[ 10763 10752 10751 10750 ] final  116.61 input  -60.55 | X-H torsion
[ 11005 11000 10999 10996 ] final  178.30 input  -57.11 | X-H torsion

> <Gold.Protein.ActiveResidues>
 VAL166  LYS551  ARG553  GLY616  TRP617  ASP618  TYR619  PRO620  LYS621  CYS622 
 ASP623  PHE694  ASN695  SER759  ASP760  ASP761  ALA762  ILE779  LEU786  VAL792 
 PHE793  MET794  SER795  GLU796  ALA797  LYS798  CYS799  TRP800  GLU811  SER814 

> <Gold.Protein.RotatedAtoms>
  150.7793  134.6721  159.6396 H   0  0  0  0  0  0  0  0  0  0  0  0  # atno 6907 bound_to 6896
  152.3873  134.6494  160.0130 H   0  0  0  0  0  0  0  0  0  0  0  0  # atno 6908 bound_to 6896
  151.6805  133.3275  159.3254 H   0  0  0  0  0  0  0  0  0  0  0  0  # atno 6909 bound_to 6896
  146.1815  139.7270  142.8897 H   0  0  0  0  0  0  0  0  0  0  0  0  # atno 7974 bound_to 7965
  154.8833  140.2976  155.5412 H   0  0  0  0  0  0  0  0  0  0  0  0  # atno 8008 bound_to 7997
  156.3022  140.2438  156.3773 H   0  0  0  0  0  0  0  0  0  0  0  0  # atno 8009 bound_to 7997
  154.8694  140.0402  157.1704 H   0  0  0  0  0  0  0  0  0  0  0  0  # atno 8010 bound_to 7997
  140.7239  143.3785  151.1645 H   0  0  0  0  0  0  0  0  0  0  0  0  # atno 10167 bound_to 10162
  156.3050  130.7450  151.1511 H   0  0  0  0  0  0  0  0  0  0  0  0  # atno 10718 bound_to 10713
  153.5399  135.3561  155.2713 H   0  0  0  0  0  0  0  0  0  0  0  0  # atno 10763 bound_to 10752
  154.8718  135.4088  154.3056 H   0  0  0  0  0  0  0  0  0  0  0  0  # atno 10764 bound_to 10752
  153.3761  135.7066  153.6669 H   0  0  0  0  0  0  0  0  0  0  0  0  # atno 10765 bound_to 10752
  140.3936  134.6840  157.4521 H   0  0  0  0  0  0  0  0  0  0  0  0  # atno 11005 bound_to 11000
  145.4062  141.0391  143.3043 LP  0  0  0  0  0  0  0  0  0  0  0  0  # atno 17320 bound_to 7965
  144.8323  139.5607  143.6938 LP  0  0  0  0  0  0  0  0  0  0  0  0  # atno 17321 bound_to 7965
  139.7370  143.8984  152.3038 LP  0  0  0  0  0  0  0  0  0  0  0  0  # atno 17342 bound_to 10162
  139.8792  144.7027  150.8897 LP  0  0  0  0  0  0  0  0  0  0  0  0  # atno 17343 bound_to 10162
  157.7377  131.0549  150.5338 LP  0  0  0  0  0  0  0  0  0  0  0  0  # atno 17370 bound_to 10713
  156.5470  130.4222  149.6126 LP  0  0  0  0  0  0  0  0  0  0  0  0  # atno 17371 bound_to 10713
  140.0388  134.6297  155.9007 LP  0  0  0  0  0  0  0  0  0  0  0  0  # atno 17394 bound_to 11000
  141.1882  133.6562  156.5315 LP  0  0  0  0  0  0  0  0  0  0  0  0  # atno 17395 bound_to 11000

$$$$
