AV-unprocessed.smi:1554|AV-procd|sdf|6261|dock6
  -GOLD-   22720 6443D 1   1.00000     0.00000
 Structure written by MMmdl.
 49 51  0  0  0  0  0  0  0  0  3 V2000
  152.9694  142.7964  160.5316 C   0  0  0  0  0  0  0  0  0  0  0  0
  152.2924  142.3400  159.2505 C   0  0  0  0  0  0  0  0  0  0  0  0
  152.4150  140.9847  158.8688 C   0  0  0  0  0  0  0  0  0  0  0  0
  151.7861  140.5979  157.6915 C   0  0  0  0  0  0  0  0  0  0  0  0
  151.7184  139.3574  157.0533 N   0  3  0  0  0  0  0  0  0  0  0  0
  150.9806  139.4712  155.9141 C   0  0  0  0  0  0  0  0  0  0  0  0
  150.5816  140.7686  155.8127 N   0  0  0  0  0  0  0  0  0  0  0  0
  149.7704  141.4327  154.7836 C   0  0  0  0  0  0  0  0  0  0  0  0
  148.3414  140.8627  154.6871 C   0  0  1  0  0  0  0  0  0  0  0  0
  148.4133  139.4897  154.3554 O   0  0  0  0  0  0  0  0  0  0  0  0
  147.5753  141.0172  156.0160 C   0  0  0  0  0  0  0  0  0  0  0  0
  147.0162  142.3840  156.2017 N   0  3  1  0  0  0  0  0  0  0  0  0
  146.0795  142.7933  155.1270 C   0  0  0  0  0  0  0  0  0  0  0  0
  144.6961  142.1469  155.3197 C   0  0  0  0  0  0  0  0  0  0  0  0
  144.1873  142.4950  156.6014 O   0  0  0  0  0  0  0  0  0  0  0  0
  145.0082  142.0200  157.6627 C   0  0  2  0  0  0  0  0  0  0  0  0
  144.3354  142.3934  158.9881 C   0  0  0  0  0  0  0  0  0  0  0  0
  146.4169  142.6411  157.5371 C   0  0  0  0  0  0  0  0  0  0  0  0
  151.0550  141.5068  156.9026 C   0  0  0  0  0  0  0  0  0  0  0  0
  150.9211  142.8446  157.2649 C   0  0  0  0  0  0  0  0  0  0  0  0
  151.5536  143.2578  158.4593 C   0  0  0  0  0  0  0  0  0  0  0  0
  151.4262  144.7117  158.8810 C   0  0  0  0  0  0  0  0  0  0  0  0
  153.5203  141.9825  161.0037 H   0  0  0  0  0  0  0  0  0  0  0  0
  152.2298  143.1576  161.2467 H   0  0  0  0  0  0  0  0  0  0  0  0
  153.6764  143.6008  160.3272 H   0  0  0  0  0  0  0  0  0  0  0  0
  152.9743  140.2802  159.4673 H   0  0  0  0  0  0  0  0  0  0  0  0
  150.7561  138.6764  155.2169 H   0  0  0  0  0  0  0  0  0  0  0  0
  149.7410  142.4963  155.0248 H   0  0  0  0  0  0  0  0  0  0  0  0
  150.2912  141.3468  153.8291 H   0  0  0  0  0  0  0  0  0  0  0  0
  147.8144  141.3758  153.8840 H   0  0  0  0  0  0  0  0  0  0  0  0
  149.1136  139.3671  153.7325 H   0  0  0  0  0  0  0  0  0  0  0  0
  146.7648  140.2867  156.0301 H   0  0  0  0  0  0  0  0  0  0  0  0
  148.2218  140.7616  156.8552 H   0  0  0  0  0  0  0  0  0  0  0  0
  145.9763  143.8787  155.1567 H   0  0  0  0  0  0  0  0  0  0  0  0
  146.4882  142.5535  154.1448 H   0  0  0  0  0  0  0  0  0  0  0  0
  144.0050  142.5086  154.5583 H   0  0  0  0  0  0  0  0  0  0  0  0
  144.7459  141.0623  155.2126 H   0  0  0  0  0  0  0  0  0  0  0  0
  145.0677  140.9322  157.6078 H   0  0  0  0  0  0  0  0  0  0  0  0
  144.9188  142.0387  159.8382 H   0  0  0  0  0  0  0  0  0  0  0  0
  143.3417  141.9505  159.0596 H   0  0  0  0  0  0  0  0  0  0  0  0
  144.2258  143.4740  159.0851 H   0  0  0  0  0  0  0  0  0  0  0  0
  147.0652  142.2852  158.3364 H   0  0  0  0  0  0  0  0  0  0  0  0
  146.3456  143.7220  157.6668 H   0  0  0  0  0  0  0  0  0  0  0  0
  150.3587  143.5426  156.6627 H   0  0  0  0  0  0  0  0  0  0  0  0
  150.8001  145.2752  158.1885 H   0  0  0  0  0  0  0  0  0  0  0  0
  152.4059  145.1892  158.9084 H   0  0  0  0  0  0  0  0  0  0  0  0
  150.9759  144.7859  159.8710 H   0  0  0  0  0  0  0  0  0  0  0  0
  147.8133  142.9998  156.1189 H   0  0  0  0  0  0  0  0  0  0  0  0
  152.1419  138.4946  157.3706 H   0  0  0  0  0  0  0  0  0  0  0  0
  1  2  1  0  0  0  0
  1 23  1  0  0  0  0
  1 24  1  0  0  0  0
  1 25  1  0  0  0  0
  2 21  1  0  0  0  0
  2  3  2  0  0  0  0
  3  4  1  0  0  0  0
  3 26  1  0  0  0  0
  4 19  2  0  0  0  0
  4  5  1  0  0  0  0
  5  6  2  0  0  0  0
  5 49  1  0  0  0  0
  6  7  1  0  0  0  0
  6 27  1  0  0  0  0
  7  8  1  0  0  0  0
  7 19  1  0  0  0  0
  8  9  1  0  0  0  0
  8 28  1  0  0  0  0
  8 29  1  0  0  0  0
  9 10  1  0  0  0  0
  9 11  1  0  0  0  0
  9 30  1  0  0  0  0
 10 31  1  0  0  0  0
 11 12  1  0  0  0  0
 11 32  1  0  0  0  0
 11 33  1  0  0  0  0
 12 18  1  0  0  0  0
 12 13  1  0  0  0  0
 12 48  1  0  0  0  0
 13 14  1  0  0  0  0
 13 34  1  0  0  0  0
 13 35  1  0  0  0  0
 14 15  1  0  0  0  0
 14 36  1  0  0  0  0
 14 37  1  0  0  0  0
 15 16  1  0  0  0  0
 16 17  1  0  0  0  0
 16 18  1  0  0  0  0
 16 38  1  0  0  0  0
 17 39  1  0  0  0  0
 17 40  1  0  0  0  0
 17 41  1  0  0  0  0
 18 42  1  0  0  0  0
 18 43  1  0  0  0  0
 19 20  1  0  0  0  0
 20 21  2  0  0  0  0
 20 44  1  0  0  0  0
 21 22  1  0  0  0  0
 22 45  1  0  0  0  0
 22 46  1  0  0  0  0
 22 47  1  0  0  0  0
M  CHG  1   5   1
M  CHG  1  12   1
M  END
> <s_m_source_file>
AV-unprocessed.smi

> <i_m_source_file_index>
1554

> <i_lp_mmshare_version>
43012

> <i_f3d_flags>
0

> <s_epik_input>
W0NIM11jKFtjSF0xKWMoW0NIM10pW2NIXWMoYzEyKW4oW2NIXW4yKVtDSDJdW0NASF0oW09IXSlbQ0gyXU4zW0NIMl1bQ0gyXU9bQ0BASF0oW0NIM10pW0NIMl0z

> <s_epik_cmdline>
J2VwaWtfcHl0aG9uJywgJy1waCcsICc3LjAnLCAnLXRuJywgJzgnLCAnLW1hJywgJzIwMCcsICctbWV0YWxfYmluZGluZycsICctaW1hZScsICc8aW5maWxlLm1hZT4nLCAnLW9tYWUnLCAnPG91dGZpbGUubWFlPic=

> <r_epik_Ionization_Penalty>
1.8848

> <r_epik_Ionization_Penalty_Charging>
1.88479

> <r_epik_Ionization_Penalty_Neutral>
1.42224e-05

> <r_epik_State_Penalty>
1.94551

> <r_epik_Charging_Adjusted_Penalty>
3.8303

> <i_epik_Tot_Q>
2

> <i_epik_Tot_abs_Q>
2

> <r_epik_Metal_State_Penalty>
5.95849

> <b_epik_Metal_Only>
0

> <s_lp_Force_Field>
OPLS_2005

> <r_lp_Energy>
31.3767

> <b_lp_Chiralities_Consistent>
1

> <s_lp_Variant>
AV-unprocessed.smi:1554-22

> <Gold.Version>
5.8.1

> <Gold.Id.Protein>
6NUR|6NUR_protein|mol2

> <Gold.PLP.Fitness>
43.1209

> <Gold.PLP.PLP>
-37.5352

> <Gold.PLP.part.hbond>
-1.0000

> <Gold.PLP.part.metal>
0.0000

> <Gold.PLP.part.buried>
-2.2904

> <Gold.PLP.part.nonpolar>
-34.2383

> <Gold.PLP.part.repulsive>
0.1219

> <Gold.PLP.ligand.clash>
0.0000

> <Gold.PLP.ligand.torsion>
0.2201

> <Gold.PLP.Chemscore.Hbond>
2.0000

> <Gold.PLP.Chemscore.CHOScore>
0.0000

> <Gold.PLP.Chemscore.Metal>
0.0000

> <Gold.Chemscore.Hbonds>
donor molecule, donor type, donor heavy atom, donor atom, acceptor molecule, acceptor atom, score
      L1  H    12    48       P1  8028  1.89

> <Gold.PLP.Chemscore.Internal.Correction>
0.0260

> <Gold.Rescore>
     Score         DG    S(hbond)    S(metal)    S(lipo)     H(rot)  DE(clash)    DE(int)     intcor
     12.88     -14.55       0.66        0.00     105.02       2.11       0.49       1.19       ----

> <Gold.Chemscore.Fitness>
12.8779

> <Gold.Chemscore.DG>
-14.5534

> <Gold.Chemscore.ZeroCoef>
-5.4800

> <Gold.Chemscore.Hbond>
0.6566

> <Gold.Chemscore.Metal>
0.0000

> <Gold.Chemscore.Lipo>
105.0217

> <Gold.Chemscore.Internal_Hbond>
0.0000

> <Gold.Chemscore.DEClash>
0.4904

> <Gold.Chemscore.DEInternal>
1.1852

> <Gold.Chemscore.Rot>
2.1122

> <Gold.Chemscore.Internal.Correction>
   9.000000E+99

> <Gold.Chemscore.Hbonds>
donor molecule, donor type, donor heavy atom, donor atom, acceptor molecule, acceptor atom, score
      L1  H    12    48       P1  8028  0.31

> <Gold.Chemscore.Hbond.Weighted>
-2.1932

> <Gold.Chemscore.Metal.Weighted>
-0.0000

> <Gold.Chemscore.Lipo.Weighted>
-12.2875

> <Gold.Chemscore.Internal_Hbond.Weighted>
0.0000

> <Gold.Chemscore.DEClash.Weighted>
0.4904

> <Gold.Chemscore.DEInternal.Weighted>
1.1852

> <Gold.Chemscore.Rot.Weighted>
5.4073

> <Gold.Chemscore.Internal.Correction.Weighted>
   9.000000E+99

> <Gold.Protein.RotatedTorsions>
[ 6907 6896 6895 6894 ] final -168.86 input  -60.11 | X-H torsion
[ 7974 7965 7964 7962 ] final  -79.13 input  175.53 | X-H torsion
[ 8008 7997 7996 7995 ] final   29.68 input   59.86 | X-H torsion
[ 10167 10162 10161 10158 ] final -118.44 input  -65.29 | X-H torsion
[ 10718 10713 10712 10709 ] final   -7.15 input   66.30 | X-H torsion
[ 10763 10752 10751 10750 ] final  -25.19 input  -60.55 | X-H torsion
[ 11005 11000 10999 10996 ] final -149.58 input  -57.11 | X-H torsion

> <Gold.Protein.ActiveResidues>
 VAL166  LYS551  ARG553  GLY616  TRP617  ASP618  TYR619  PRO620  LYS621  CYS622 
 ASP623  PHE694  ASN695  SER759  ASP760  ASP761  ALA762  ILE779  LEU786  VAL792 
 PHE793  MET794  SER795  GLU796  ALA797  LYS798  CYS799  TRP800  GLU811  SER814 

> <Gold.Protein.RotatedAtoms>
  151.4824  133.3543  159.2840 H   0  0  0  0  0  0  0  0  0  0  0  0  # atno 6907 bound_to 6896
  150.8888  134.8291  159.7289 H   0  0  0  0  0  0  0  0  0  0  0  0  # atno 6908 bound_to 6896
  152.4810  134.4731  159.9694 H   0  0  0  0  0  0  0  0  0  0  0  0  # atno 6909 bound_to 6896
  145.5773  140.9455  143.1363 H   0  0  0  0  0  0  0  0  0  0  0  0  # atno 7974 bound_to 7965
  155.0784  140.3207  155.4609 H   0  0  0  0  0  0  0  0  0  0  0  0  # atno 8008 bound_to 7997
  156.2773  140.2099  156.5857 H   0  0  0  0  0  0  0  0  0  0  0  0  # atno 8009 bound_to 7997
  154.6998  140.0508  157.0434 H   0  0  0  0  0  0  0  0  0  0  0  0  # atno 8010 bound_to 7997
  140.0575  143.5000  152.2050 H   0  0  0  0  0  0  0  0  0  0  0  0  # atno 10167 bound_to 10162
  156.7214  130.5152  149.5867 H   0  0  0  0  0  0  0  0  0  0  0  0  # atno 10718 bound_to 10713
  153.6959  135.6959  153.5077 H   0  0  0  0  0  0  0  0  0  0  0  0  # atno 10763 bound_to 10752
  153.2379  135.4316  155.0665 H   0  0  0  0  0  0  0  0  0  0  0  0  # atno 10764 bound_to 10752
  154.8359  135.3500  154.6499 H   0  0  0  0  0  0  0  0  0  0  0  0  # atno 10765 bound_to 10752
  140.7492  134.3426  157.5130 H   0  0  0  0  0  0  0  0  0  0  0  0  # atno 11005 bound_to 11000
  144.7410  139.7449  143.7311 LP  0  0  0  0  0  0  0  0  0  0  0  0  # atno 17320 bound_to 7965
  146.1742  139.4905  142.9908 LP  0  0  0  0  0  0  0  0  0  0  0  0  # atno 17321 bound_to 7965
  139.5915  144.7551  151.3390 LP  0  0  0  0  0  0  0  0  0  0  0  0  # atno 17342 bound_to 10162
  140.7188  143.7193  150.7708 LP  0  0  0  0  0  0  0  0  0  0  0  0  # atno 17343 bound_to 10162
  156.1592  130.6362  151.0696 LP  0  0  0  0  0  0  0  0  0  0  0  0  # atno 17370 bound_to 10713
  157.6896  131.0814  150.7145 LP  0  0  0  0  0  0  0  0  0  0  0  0  # atno 17371 bound_to 10713
  139.8791  134.9131  156.3075 LP  0  0  0  0  0  0  0  0  0  0  0  0  # atno 17394 bound_to 11000
  140.9766  133.7293  156.0611 LP  0  0  0  0  0  0  0  0  0  0  0  0  # atno 17395 bound_to 11000

$$$$
