AV-unprocessed.smi:1199|AV-procd|sdf|5014|dock1
  -GOLD-   22720 4 33D 1   1.00000     0.00000
 Structure written by MMmdl.
 40 41  0  0  0  0  0  0  0  0  2 V2000
  153.4299  137.5368  157.2525 C   0  0  0  0  0  0  0  0  0  0  0  0
  152.6924  138.8235  157.6582 C   0  0  2  0  0  0  0  0  0  0  0  0
  153.3103  139.4484  158.9283 C   0  0  0  0  0  0  0  0  0  0  0  0
  153.2278  140.9076  159.0229 N   0  0  0  0  0  0  0  0  0  0  0  0
  151.9488  141.4349  158.5507 C   0  0  0  0  0  0  0  0  0  0  0  0
  151.8585  142.9629  158.7007 C   0  0  0  0  0  0  0  0  0  0  0  0
  152.0950  143.3292  160.0559 O   0  0  0  0  0  0  0  0  0  0  0  0
  153.3594  142.8798  160.5308 C   0  0  0  0  0  0  0  0  0  0  0  0
  153.4421  141.3498  160.3968 C   0  0  0  0  0  0  0  0  0  0  0  0
  151.2869  138.5175  157.9030 N   0  0  0  0  0  0  0  0  0  0  0  0
  150.8108  137.5881  158.7479 C   0  0  0  0  0  0  0  0  0  0  0  0
  151.5353  136.9122  159.4782 O   0  0  0  0  0  0  0  0  0  0  0  0
  149.2896  137.3580  158.7678 C   0  0  0  0  0  0  0  0  0  0  0  0
  148.8411  136.3590  159.7523 N   0  0  0  0  0  0  0  0  0  0  0  0
  148.2569  136.9363  160.9596 N   0  5  0  0  0  0  0  0  0  0  0  0
  147.7455  136.1084  161.9090 C   0  0  0  0  0  0  0  0  0  0  0  0
  147.2181  136.5214  162.9390 O   0  0  0  0  0  0  0  0  0  0  0  0
  147.8336  134.6749  161.6861 C   0  0  0  0  0  0  0  0  0  0  0  0
  148.3964  134.1693  160.5711 C   0  0  0  0  0  0  0  0  0  0  0  0
  148.9419  135.0189  159.5198 C   0  0  0  0  0  0  0  0  0  0  0  0
  149.4406  134.5636  158.4908 O   0  0  0  0  0  0  0  0  0  0  0  0
  154.4820  137.7355  157.0475 H   0  0  0  0  0  0  0  0  0  0  0  0
  153.0001  137.1012  156.3500 H   0  0  0  0  0  0  0  0  0  0  0  0
  153.3799  136.7854  158.0413 H   0  0  0  0  0  0  0  0  0  0  0  0
  152.7783  139.5364  156.8359 H   0  0  0  0  0  0  0  0  0  0  0  0
  152.8852  138.9864  159.8211 H   0  0  0  0  0  0  0  0  0  0  0  0
  154.3673  139.1792  158.9418 H   0  0  0  0  0  0  0  0  0  0  0  0
  151.8050  141.1879  157.4998 H   0  0  0  0  0  0  0  0  0  0  0  0
  151.1298  140.9681  159.1000 H   0  0  0  0  0  0  0  0  0  0  0  0
  152.5831  143.4570  158.0519 H   0  0  0  0  0  0  0  0  0  0  0  0
  150.8702  143.3134  158.4024 H   0  0  0  0  0  0  0  0  0  0  0  0
  154.1608  143.3613  159.9690 H   0  0  0  0  0  0  0  0  0  0  0  0
  153.4747  143.1766  161.5732 H   0  0  0  0  0  0  0  0  0  0  0  0
  152.7001  140.8919  161.0530 H   0  0  0  0  0  0  0  0  0  0  0  0
  154.4180  141.0115  160.7469 H   0  0  0  0  0  0  0  0  0  0  0  0
  150.6086  139.0293  157.3559 H   0  0  0  0  0  0  0  0  0  0  0  0
  148.7898  138.3112  158.9485 H   0  0  0  0  0  0  0  0  0  0  0  0
  148.9835  137.0575  157.7643 H   0  0  0  0  0  0  0  0  0  0  0  0
  147.4416  134.0000  162.4326 H   0  0  0  0  0  0  0  0  0  0  0  0
  148.4413  133.0975  160.4479 H   0  0  0  0  0  0  0  0  0  0  0  0
  1  2  1  0  0  0  0
  1 22  1  0  0  0  0
  1 23  1  0  0  0  0
  1 24  1  0  0  0  0
  2  3  1  0  0  0  0
  2 10  1  0  0  0  0
  2 25  1  0  0  0  0
  3  4  1  0  0  0  0
  3 26  1  0  0  0  0
  3 27  1  0  0  0  0
  4  9  1  0  0  0  0
  4  5  1  0  0  0  0
  5  6  1  0  0  0  0
  5 28  1  0  0  0  0
  5 29  1  0  0  0  0
  6  7  1  0  0  0  0
  6 30  1  0  0  0  0
  6 31  1  0  0  0  0
  7  8  1  0  0  0  0
  8  9  1  0  0  0  0
  8 32  1  0  0  0  0
  8 33  1  0  0  0  0
  9 34  1  0  0  0  0
  9 35  1  0  0  0  0
 10 11  1  0  0  0  0
 10 36  1  0  0  0  0
 11 12  2  0  0  0  0
 11 13  1  0  0  0  0
 13 37  1  0  0  0  0
 13 38  1  0  0  0  0
 13 14  1  0  0  0  0
 14 15  1  0  0  0  0
 14 20  1  0  0  0  0
 15 16  1  0  0  0  0
 16 17  2  0  0  0  0
 16 18  1  0  0  0  0
 18 39  1  0  0  0  0
 18 19  2  0  0  0  0
 19 40  1  0  0  0  0
 19 20  1  0  0  0  0
 20 21  2  0  0  0  0
M  CHG  1  15  -1
M  END
> <s_m_source_file>
AV-unprocessed.smi

> <i_m_source_file_index>
1199

> <i_lp_mmshare_version>
43012

> <i_f3d_flags>
0

> <s_epik_input>
W0NIMl0xW0NIMl1PW0NIMl1bQ0gyXU4xW0NIMl1bQ0BASF0oW0NIM10pW05IXUMoPU8pW0NIMl1uMltuSF1jKD1PKVtjSF1bY0hdYzI9Tw==

> <s_epik_cmdline>
J2VwaWtfcHl0aG9uJywgJy1waCcsICc3LjAnLCAnLXRuJywgJzgnLCAnLW1hJywgJzIwMCcsICctbWV0YWxfYmluZGluZycsICctaW1hZScsICc8aW5maWxlLm1hZT4nLCAnLW9tYWUnLCAnPG91dGZpbGUubWFlPic=

> <r_lp_tautomer_probability>
1

> <r_epik_Ionization_Penalty>
0.334996

> <r_epik_Ionization_Penalty_Charging>
0.0976136

> <r_epik_Ionization_Penalty_Neutral>
0.237382

> <r_epik_State_Penalty>
0.26804

> <r_epik_Charging_Adjusted_Penalty>
0.365653

> <i_epik_Tot_Q>
-1

> <i_epik_Tot_abs_Q>
1

> <r_epik_Metal_State_Penalty>
0.26804

> <b_epik_Metal_Only>
0

> <s_lp_Force_Field>
OPLS_2005

> <r_lp_Energy>
38.5668

> <b_lp_Chiralities_Consistent>
1

> <s_lp_Variant>
AV-unprocessed.smi:1199-1

> <Gold.Version>
5.8.1

> <Gold.Id.Protein>
6NUR|6NUR_protein|mol2

> <Gold.PLP.Fitness>
47.4835

> <Gold.PLP.PLP>
-32.9947

> <Gold.PLP.part.hbond>
-4.0000

> <Gold.PLP.part.metal>
0.0000

> <Gold.PLP.part.buried>
-5.2713

> <Gold.PLP.part.nonpolar>
-24.0818

> <Gold.PLP.part.repulsive>
0.0683

> <Gold.PLP.ligand.clash>
0.0000

> <Gold.PLP.ligand.torsion>
0.8567

> <Gold.PLP.Chemscore.Hbond>
5.3360

> <Gold.PLP.Chemscore.CHOScore>
0.0000

> <Gold.PLP.Chemscore.Metal>
0.0000

> <Gold.Chemscore.Hbonds>
donor molecule, donor type, donor heavy atom, donor atom, acceptor molecule, acceptor atom, score
      P1  H  6896  6907       L1    12  1.00
      P1  H  6896  6909       L1    21  0.58
      P1  H  6931  6943       L1    15  2.00
      P1  H  6934  6947       L1    15  0.31

> <Gold.PLP.Chemscore.Internal.Correction>
0.1943

> <Gold.Rescore>
     Score         DG    S(hbond)    S(metal)    S(lipo)     H(rot)  DE(clash)    DE(int)     intcor
     15.19     -17.33       2.77        0.00      72.48       2.30       0.29       1.84       ----

> <Gold.Chemscore.Fitness>
15.1924

> <Gold.Chemscore.DG>
-17.3252

> <Gold.Chemscore.ZeroCoef>
-5.4800

> <Gold.Chemscore.Hbond>
2.7671

> <Gold.Chemscore.Metal>
0.0000

> <Gold.Chemscore.Lipo>
72.4763

> <Gold.Chemscore.Internal_Hbond>
0.0000

> <Gold.Chemscore.DEClash>
0.2909

> <Gold.Chemscore.DEInternal>
1.8419

> <Gold.Chemscore.Rot>
2.2955

> <Gold.Chemscore.Internal.Correction>
   9.000000E+99

> <Gold.Chemscore.Hbonds>
donor molecule, donor type, donor heavy atom, donor atom, acceptor molecule, acceptor atom, score
      P1  H  6896  6907       L1    12  0.98
      P1  H  6896  6909       L1    21  0.04
      P1  H  6931  6943       L1    15  0.43
      P1  H  6934  6947       L1    15  0.13

> <Gold.Chemscore.Hbond.Weighted>
-9.2421

> <Gold.Chemscore.Metal.Weighted>
-0.0000

> <Gold.Chemscore.Lipo.Weighted>
-8.4797

> <Gold.Chemscore.Internal_Hbond.Weighted>
0.0000

> <Gold.Chemscore.DEClash.Weighted>
0.2909

> <Gold.Chemscore.DEInternal.Weighted>
1.8419

> <Gold.Chemscore.Rot.Weighted>
5.8766

> <Gold.Chemscore.Internal.Correction.Weighted>
   9.000000E+99

> <Gold.Protein.RotatedTorsions>
[ 6907 6896 6895 6894 ] final    8.99 input  -60.11 | X-H torsion
[ 7974 7965 7964 7962 ] final   43.68 input  175.53 | X-H torsion
[ 8008 7997 7996 7995 ] final  -66.55 input   59.86 | X-H torsion
[ 10167 10162 10161 10158 ] final   24.40 input  -65.29 | X-H torsion
[ 10718 10713 10712 10709 ] final  107.70 input   66.30 | X-H torsion
[ 10763 10752 10751 10750 ] final  -93.54 input  -60.55 | X-H torsion
[ 11005 11000 10999 10996 ] final  128.46 input  -57.11 | X-H torsion

> <Gold.Protein.ActiveResidues>
 VAL166  LYS551  ARG553  GLY616  TRP617  ASP618  TYR619  PRO620  LYS621  CYS622 
 ASP623  PHE694  ASN695  SER759  ASP760  ASP761  ALA762  ILE779  LEU786  VAL792 
 PHE793  MET794  SER795  GLU796  ALA797  LYS798  CYS799  TRP800  GLU811  SER814 

> <Gold.Protein.RotatedAtoms>
  151.7150  135.0905  160.0273 H   0  0  0  0  0  0  0  0  0  0  0  0  # atno 6907 bound_to 6896
  152.3638  133.6326  159.6043 H   0  0  0  0  0  0  0  0  0  0  0  0  # atno 6908 bound_to 6896
  150.7623  133.9297  159.3464 H   0  0  0  0  0  0  0  0  0  0  0  0  # atno 6909 bound_to 6896
  146.0634  139.5159  142.9643 H   0  0  0  0  0  0  0  0  0  0  0  0  # atno 7974 bound_to 7965
  154.4741  140.0910  156.7219 H   0  0  0  0  0  0  0  0  0  0  0  0  # atno 8008 bound_to 7997
  155.4643  140.3462  155.4298 H   0  0  0  0  0  0  0  0  0  0  0  0  # atno 8009 bound_to 7997
  156.1088  140.1442  156.9355 H   0  0  0  0  0  0  0  0  0  0  0  0  # atno 8010 bound_to 7997
  140.5191  144.0033  150.6408 H   0  0  0  0  0  0  0  0  0  0  0  0  # atno 10167 bound_to 10162
  157.6617  131.0878  150.6195 H   0  0  0  0  0  0  0  0  0  0  0  0  # atno 10718 bound_to 10713
  154.6969  135.5190  153.8471 H   0  0  0  0  0  0  0  0  0  0  0  0  # atno 10763 bound_to 10752
  153.0674  135.6589  154.0332 H   0  0  0  0  0  0  0  0  0  0  0  0  # atno 10764 bound_to 10752
  154.0198  135.2994  155.3362 H   0  0  0  0  0  0  0  0  0  0  0  0  # atno 10765 bound_to 10752
  139.9562  134.9612  156.9005 H   0  0  0  0  0  0  0  0  0  0  0  0  # atno 11005 bound_to 11000
  145.6519  141.0261  143.1755 LP  0  0  0  0  0  0  0  0  0  0  0  0  # atno 17320 bound_to 7965
  144.7188  139.8101  143.7389 LP  0  0  0  0  0  0  0  0  0  0  0  0  # atno 17321 bound_to 7965
  140.3376  143.3039  152.0621 LP  0  0  0  0  0  0  0  0  0  0  0  0  # atno 17342 bound_to 10162
  139.4918  144.6465  151.6767 LP  0  0  0  0  0  0  0  0  0  0  0  0  # atno 17343 bound_to 10162
  156.6498  130.4482  149.5723 LP  0  0  0  0  0  0  0  0  0  0  0  0  # atno 17370 bound_to 10713
  156.2146  130.6700  151.1305 LP  0  0  0  0  0  0  0  0  0  0  0  0  # atno 17371 bound_to 10713
  140.5604  134.0540  155.7397 LP  0  0  0  0  0  0  0  0  0  0  0  0  # atno 17394 bound_to 11000
  141.1234  133.9424  157.2685 LP  0  0  0  0  0  0  0  0  0  0  0  0  # atno 17395 bound_to 11000

$$$$
