AV-unprocessed.smi:910|AV-procd|sdf|4123|dock1
  -GOLD-   22720 2 23D 1   1.00000     0.00000
 Structure written by MMmdl.
 46 47  0  0  0  0  0  0  0  0  1 V2000
  153.3134  143.3754  163.3382 C   0  0  0  0  0  0  0  0  0  0  0  0
  153.6427  142.4733  162.1690 C   0  0  0  0  0  0  0  0  0  0  0  0
  154.3451  141.3095  162.3264 N   0  0  0  0  0  0  0  0  0  0  0  0
  154.4898  140.7184  161.0808 C   0  0  0  0  0  0  0  0  0  0  0  0
  155.0925  139.6051  160.7980 N   0  0  0  0  0  0  0  0  0  0  0  0
  155.1495  139.1743  159.4807 C   0  0  0  0  0  0  0  0  0  0  0  0
  156.0973  139.2388  158.6913 O   0  0  0  0  0  0  0  0  0  0  0  0
  153.9675  138.6562  159.1154 N   0  0  0  0  0  0  0  0  0  0  0  0
  153.6388  138.1408  157.7900 C   0  0  0  0  0  0  0  0  0  0  0  0
  152.2909  138.6820  157.2918 C   0  0  0  0  0  0  0  0  0  0  0  0
  152.5291  139.5693  156.2089 O   0  0  0  0  0  0  0  0  0  0  0  0
  151.3810  139.8729  155.4272 C   0  0  1  0  0  0  0  0  0  0  0  0
  150.6977  138.5644  154.9780 C   0  0  0  0  0  0  0  0  0  0  0  0
  149.3731  138.8405  154.2512 C   0  0  0  0  0  0  0  0  0  0  0  0
  148.4299  139.6796  155.1242 C   0  0  0  0  0  0  0  0  0  0  0  0
  149.1037  140.9884  155.5637 C   0  0  0  0  0  0  0  0  0  0  0  0
  150.4343  140.7286  156.2986 C   0  0  2  0  0  0  0  0  0  0  0  0
  151.0917  142.0544  156.7178 C   0  0  0  0  0  0  0  0  0  0  0  0
  153.8575  141.5472  160.1825 O   0  0  0  0  0  0  0  0  0  0  0  0
  153.3544  142.6051  160.8764 C   0  0  0  0  0  0  0  0  0  0  0  0
  152.6103  143.6812  160.1182 C   0  0  0  0  0  0  0  0  0  0  0  0
  153.7454  144.3644  163.1842 H   0  0  0  0  0  0  0  0  0  0  0  0
  153.7074  142.9690  164.2702 H   0  0  0  0  0  0  0  0  0  0  0  0
  152.2332  143.4828  163.4387 H   0  0  0  0  0  0  0  0  0  0  0  0
  154.6847  140.9792  163.2179 H   0  0  0  0  0  0  0  0  0  0  0  0
  153.2290  138.6386  159.8038 H   0  0  0  0  0  0  0  0  0  0  0  0
  154.4320  138.3935  157.0847 H   0  0  0  0  0  0  0  0  0  0  0  0
  153.6051  137.0525  157.8421 H   0  0  0  0  0  0  0  0  0  0  0  0
  151.6468  137.8583  156.9800 H   0  0  0  0  0  0  0  0  0  0  0  0
  151.7821  139.2031  158.1025 H   0  0  0  0  0  0  0  0  0  0  0  0
  151.6626  140.4590  154.5501 H   0  0  0  0  0  0  0  0  0  0  0  0
  151.3551  137.9954  154.3214 H   0  0  0  0  0  0  0  0  0  0  0  0
  150.5091  137.9334  155.8476 H   0  0  0  0  0  0  0  0  0  0  0  0
  149.5716  139.3652  153.3156 H   0  0  0  0  0  0  0  0  0  0  0  0
  148.8925  137.8992  153.9828 H   0  0  0  0  0  0  0  0  0  0  0  0
  147.5128  139.8987  154.5767 H   0  0  0  0  0  0  0  0  0  0  0  0
  148.1359  139.1052  156.0037 H   0  0  0  0  0  0  0  0  0  0  0  0
  149.2822  141.6147  154.6883 H   0  0  0  0  0  0  0  0  0  0  0  0
  148.4250  141.5480  156.2084 H   0  0  0  0  0  0  0  0  0  0  0  0
  150.2101  140.1677  157.2073 H   0  0  0  0  0  0  0  0  0  0  0  0
  151.3557  142.6585  155.8492 H   0  0  0  0  0  0  0  0  0  0  0  0
  152.0032  141.8835  157.2912 H   0  0  0  0  0  0  0  0  0  0  0  0
  150.4205  142.6447  157.3420 H   0  0  0  0  0  0  0  0  0  0  0  0
  152.0169  144.2939  160.7972 H   0  0  0  0  0  0  0  0  0  0  0  0
  151.9410  143.2320  159.3845 H   0  0  0  0  0  0  0  0  0  0  0  0
  153.3151  144.3271  159.5946 H   0  0  0  0  0  0  0  0  0  0  0  0
  1 22  1  0  0  0  0
  1 23  1  0  0  0  0
  1 24  1  0  0  0  0
  1  2  1  0  0  0  0
  2  3  1  0  0  0  0
  2 20  2  0  0  0  0
  3 25  1  0  0  0  0
  3  4  1  0  0  0  0
  4 19  1  0  0  0  0
  4  5  2  0  0  0  0
  5  6  1  0  0  0  0
  6  8  1  0  0  0  0
  6  7  2  0  0  0  0
  8  9  1  0  0  0  0
  8 26  1  0  0  0  0
  9 10  1  0  0  0  0
  9 27  1  0  0  0  0
  9 28  1  0  0  0  0
 10 11  1  0  0  0  0
 10 29  1  0  0  0  0
 10 30  1  0  0  0  0
 11 12  1  0  0  0  0
 12 17  1  0  0  0  0
 12 13  1  0  0  0  0
 12 31  1  0  0  0  0
 13 14  1  0  0  0  0
 13 32  1  0  0  0  0
 13 33  1  0  0  0  0
 14 15  1  0  0  0  0
 14 34  1  0  0  0  0
 14 35  1  0  0  0  0
 15 16  1  0  0  0  0
 15 36  1  0  0  0  0
 15 37  1  0  0  0  0
 16 17  1  0  0  0  0
 16 38  1  0  0  0  0
 16 39  1  0  0  0  0
 17 18  1  0  0  0  0
 17 40  1  0  0  0  0
 18 41  1  0  0  0  0
 18 42  1  0  0  0  0
 18 43  1  0  0  0  0
 19 20  1  0  0  0  0
 20 21  1  0  0  0  0
 21 44  1  0  0  0  0
 21 45  1  0  0  0  0
 21 46  1  0  0  0  0
M  END
> <s_m_source_file>
AV-unprocessed.smi

> <i_m_source_file_index>
910

> <i_lp_mmshare_version>
43012

> <i_f3d_flags>
0

> <s_epik_input>
W0NIM11jMW5jKG9jMVtDSDNdKVtOSF1DKD1PKVtOSF1bQ0gyXVtDSDJdT1tDQEBIXTJbQ0gyXVtDSDJdW0NIMl1bQ0gyXVtDQEhdMltDSDNd

> <s_epik_cmdline>
J2VwaWtfcHl0aG9uJywgJy1waCcsICc3LjAnLCAnLXRuJywgJzgnLCAnLW1hJywgJzIwMCcsICctbWV0YWxfYmluZGluZycsICctaW1hZScsICc8aW5maWxlLm1hZT4nLCAnLW9tYWUnLCAnPG91dGZpbGUubWFlPic=

> <r_lp_tautomer_probability>
0.107061

> <r_epik_Ionization_Penalty>
0.727192

> <r_epik_Ionization_Penalty_Charging>
0.726719

> <r_epik_Ionization_Penalty_Neutral>
0.000473387

> <r_epik_State_Penalty>
2.53712

> <r_epik_Charging_Adjusted_Penalty>
3.26383

> <i_epik_Tot_Q>
0

> <i_epik_Tot_abs_Q>
0

> <r_epik_Metal_State_Penalty>
3.71015

> <b_epik_Metal_Only>
0

> <s_lp_Force_Field>
OPLS_2005

> <r_lp_Energy>
30.8064

> <b_lp_Chiralities_Consistent>
1

> <s_lp_Variant>
AV-unprocessed.smi:910-8

> <Gold.Version>
5.8.1

> <Gold.Id.Protein>
6NUR|6NUR_protein|mol2

> <Gold.PLP.Fitness>
41.9968

> <Gold.PLP.PLP>
-38.2006

> <Gold.PLP.part.hbond>
-2.5773

> <Gold.PLP.part.metal>
0.0000

> <Gold.PLP.part.buried>
-3.3060

> <Gold.PLP.part.nonpolar>
-32.3293

> <Gold.PLP.part.repulsive>
0.1177

> <Gold.PLP.ligand.clash>
0.0000

> <Gold.PLP.ligand.torsion>
1.2316

> <Gold.PLP.Chemscore.Hbond>
2.0000

> <Gold.PLP.Chemscore.CHOScore>
0.0000

> <Gold.PLP.Chemscore.Metal>
0.0000

> <Gold.Chemscore.Hbonds>
donor molecule, donor type, donor heavy atom, donor atom, acceptor molecule, acceptor atom, score
      P1  H  7997  8008       L1    11  1.00
      P1  H  7997  8010       L1     7  1.00

> <Gold.PLP.Chemscore.Internal.Correction>
0.2593

> <Gold.Rescore>
     Score         DG    S(hbond)    S(metal)    S(lipo)     H(rot)  DE(clash)    DE(int)     intcor
     17.93     -19.16       1.88        0.00      99.59       1.66       0.03       1.20       ----

> <Gold.Chemscore.Fitness>
17.9288

> <Gold.Chemscore.DG>
-19.1643

> <Gold.Chemscore.ZeroCoef>
-5.4800

> <Gold.Chemscore.Hbond>
1.8791

> <Gold.Chemscore.Metal>
0.0000

> <Gold.Chemscore.Lipo>
99.5871

> <Gold.Chemscore.Internal_Hbond>
0.0000

> <Gold.Chemscore.DEClash>
0.0344

> <Gold.Chemscore.DEInternal>
1.2010

> <Gold.Chemscore.Rot>
1.6576

> <Gold.Chemscore.Internal.Correction>
   9.000000E+99

> <Gold.Chemscore.Hbonds>
donor molecule, donor type, donor heavy atom, donor atom, acceptor molecule, acceptor atom, score
      P1  H  7997  8008       L1    11  0.78
      P1  H  7997  8010       L1     7  0.78

> <Gold.Chemscore.Hbond.Weighted>
-6.2762

> <Gold.Chemscore.Metal.Weighted>
-0.0000

> <Gold.Chemscore.Lipo.Weighted>
-11.6517

> <Gold.Chemscore.Internal_Hbond.Weighted>
0.0000

> <Gold.Chemscore.DEClash.Weighted>
0.0344

> <Gold.Chemscore.DEInternal.Weighted>
1.2010

> <Gold.Chemscore.Rot.Weighted>
4.2436

> <Gold.Chemscore.Internal.Correction.Weighted>
   9.000000E+99

> <Gold.Protein.RotatedTorsions>
[ 6907 6896 6895 6894 ] final   36.41 input  -60.11 | X-H torsion
[ 7974 7965 7964 7962 ] final -122.06 input  175.53 | X-H torsion
[ 8008 7997 7996 7995 ] final  -32.73 input   59.86 | X-H torsion
[ 10167 10162 10161 10158 ] final  156.68 input  -65.29 | X-H torsion
[ 10718 10713 10712 10709 ] final  -10.45 input   66.30 | X-H torsion
[ 10763 10752 10751 10750 ] final  -40.76 input  -60.55 | X-H torsion
[ 11005 11000 10999 10996 ] final  176.89 input  -57.11 | X-H torsion

> <Gold.Protein.ActiveResidues>
 VAL166  LYS551  ARG553  GLY616  TRP617  ASP618  TYR619  PRO620  LYS621  CYS622 
 ASP623  PHE694  ASN695  SER759  ASP760  ASP761  ALA762  ILE779  LEU786  VAL792 
 PHE793  MET794  SER795  GLU796  ALA797  LYS798  CYS799  TRP800  GLU811  SER814 

> <Gold.Protein.RotatedAtoms>
  152.1293  134.9147  160.0559 H   0  0  0  0  0  0  0  0  0  0  0  0  # atno 6907 bound_to 6896
  152.0257  133.3912  159.4285 H   0  0  0  0  0  0  0  0  0  0  0  0  # atno 6908 bound_to 6896
  150.6855  134.3498  159.4947 H   0  0  0  0  0  0  0  0  0  0  0  0  # atno 6909 bound_to 6896
  145.0336  140.8088  143.4309 H   0  0  0  0  0  0  0  0  0  0  0  0  # atno 7974 bound_to 7965
  154.4171  140.1730  156.1773 H   0  0  0  0  0  0  0  0  0  0  0  0  # atno 8008 bound_to 7997
  155.9711  140.3385  155.6552 H   0  0  0  0  0  0  0  0  0  0  0  0  # atno 8009 bound_to 7997
  155.6624  140.0702  157.2540 H   0  0  0  0  0  0  0  0  0  0  0  0  # atno 8010 bound_to 7997
  139.4821  144.4987  151.8201 H   0  0  0  0  0  0  0  0  0  0  0  0  # atno 10167 bound_to 10162
  156.6734  130.5016  149.5993 H   0  0  0  0  0  0  0  0  0  0  0  0  # atno 10718 bound_to 10713
  153.9512  135.6750  153.4744 H   0  0  0  0  0  0  0  0  0  0  0  0  # atno 10763 bound_to 10752
  153.0883  135.4887  154.8637 H   0  0  0  0  0  0  0  0  0  0  0  0  # atno 10764 bound_to 10752
  154.7324  135.3141  154.8828 H   0  0  0  0  0  0  0  0  0  0  0  0  # atno 10765 bound_to 10752
  140.3780  134.6971  157.4434 H   0  0  0  0  0  0  0  0  0  0  0  0  # atno 11005 bound_to 11000
  145.1739  139.2389  143.5328 LP  0  0  0  0  0  0  0  0  0  0  0  0  # atno 17320 bound_to 7965
  146.3501  140.1496  142.8592 LP  0  0  0  0  0  0  0  0  0  0  0  0  # atno 17321 bound_to 7965
  140.4478  144.1897  150.5895 LP  0  0  0  0  0  0  0  0  0  0  0  0  # atno 17342 bound_to 10162
  140.4616  143.2446  151.9211 LP  0  0  0  0  0  0  0  0  0  0  0  0  # atno 17343 bound_to 10162
  156.1922  130.6567  151.1074 LP  0  0  0  0  0  0  0  0  0  0  0  0  # atno 17370 bound_to 10713
  157.7069  131.0752  150.6635 LP  0  0  0  0  0  0  0  0  0  0  0  0  # atno 17371 bound_to 10713
  140.0500  134.6144  155.8873 LP  0  0  0  0  0  0  0  0  0  0  0  0  # atno 17394 bound_to 11000
  141.1933  133.6578  156.5540 LP  0  0  0  0  0  0  0  0  0  0  0  0  # atno 17395 bound_to 11000

$$$$
