AV-unprocessed.smi:3050|AV-procd|sdf|11631|dock10
  -GOLD-   2272017 23D 1   1.00000     0.00000
 Structure written by MMmdl.
 45 46  0  0  0  0  0  0  0  0  1 V2000
  151.9617  139.6053  156.2194 C   0  0  0  0  0  0  0  0  0  0  0  0
  150.9536  140.5767  155.5924 C   0  0  0  0  0  0  0  0  0  0  0  0
  150.4724  141.6569  156.5794 C   0  0  2  0  0  0  0  0  0  0  0  0
  151.3799  141.6765  157.6809 O   0  0  0  0  0  0  0  0  0  0  0  0
  151.2693  142.7797  158.5756 C   0  0  0  0  0  0  0  0  0  0  0  0
  151.7374  144.0620  157.8905 C   0  0  0  0  0  0  0  0  0  0  0  0
  152.0958  145.0045  159.0429 C   0  0  0  0  0  0  0  0  0  0  0  0
  152.4788  144.1014  160.2261 C   0  0  0  0  0  0  0  0  0  0  0  0
  152.2200  142.6601  159.7699 C   0  0  0  0  0  0  0  0  0  0  0  0
  149.0405  141.3743  157.0634 C   0  0  0  0  0  0  0  0  0  0  0  0
  148.7884  140.3474  157.6941 O   0  0  0  0  0  0  0  0  0  0  0  0
  148.1182  142.3047  156.7724 N   0  0  0  0  0  0  0  0  0  0  0  0
  146.7098  142.2375  157.1431 C   0  0  0  0  0  0  0  0  0  0  0  0
  145.7937  142.2784  155.9096 C   0  0  0  0  0  0  0  0  0  0  0  0
  144.9411  143.5157  155.8984 C   0  0  0  0  0  0  0  0  0  0  0  0
  144.9721  144.6053  156.8148 C   0  0  0  0  0  0  0  0  0  0  0  0
  144.0854  145.5443  156.5277 N   0  0  0  0  0  0  0  0  0  0  0  0
  143.4601  145.0892  155.4226 N   0  0  0  0  0  0  0  0  0  0  0  0
  142.4087  145.8810  154.8211 C   0  0  0  0  0  0  0  0  0  0  0  0
  143.9561  143.8681  155.0195 C   0  0  0  0  0  0  0  0  0  0  0  0
  152.2895  138.8632  155.4913 H   0  0  0  0  0  0  0  0  0  0  0  0
  151.5239  139.0709  157.0629 H   0  0  0  0  0  0  0  0  0  0  0  0
  152.8458  140.1326  156.5786 H   0  0  0  0  0  0  0  0  0  0  0  0
  151.4198  141.0500  154.7270 H   0  0  0  0  0  0  0  0  0  0  0  0
  150.1013  140.0122  155.2112 H   0  0  0  0  0  0  0  0  0  0  0  0
  150.4992  142.6239  156.0726 H   0  0  0  0  0  0  0  0  0  0  0  0
  150.2447  142.9269  158.9227 H   0  0  0  0  0  0  0  0  0  0  0  0
  152.6304  143.8583  157.2976 H   0  0  0  0  0  0  0  0  0  0  0  0
  150.9841  144.4799  157.2219 H   0  0  0  0  0  0  0  0  0  0  0  0
  152.8993  145.6889  158.7695 H   0  0  0  0  0  0  0  0  0  0  0  0
  151.2282  145.6090  159.3103 H   0  0  0  0  0  0  0  0  0  0  0  0
  153.5211  144.2369  160.5166 H   0  0  0  0  0  0  0  0  0  0  0  0
  151.8646  144.3440  161.0944 H   0  0  0  0  0  0  0  0  0  0  0  0
  151.8198  142.0378  160.5691 H   0  0  0  0  0  0  0  0  0  0  0  0
  153.1590  142.2107  159.4439 H   0  0  0  0  0  0  0  0  0  0  0  0
  148.4153  143.1192  156.2549 H   0  0  0  0  0  0  0  0  0  0  0  0
  146.5528  141.3077  157.6906 H   0  0  0  0  0  0  0  0  0  0  0  0
  146.4641  143.0486  157.8309 H   0  0  0  0  0  0  0  0  0  0  0  0
  146.3998  142.2330  155.0042 H   0  0  0  0  0  0  0  0  0  0  0  0
  145.1693  141.3842  155.8934 H   0  0  0  0  0  0  0  0  0  0  0  0
  145.6094  144.7391  157.6765 H   0  0  0  0  0  0  0  0  0  0  0  0
  141.9500  145.3309  153.9990 H   0  0  0  0  0  0  0  0  0  0  0  0
  142.8237  146.8132  154.4368 H   0  0  0  0  0  0  0  0  0  0  0  0
  141.6443  146.1078  155.5649 H   0  0  0  0  0  0  0  0  0  0  0  0
  143.5709  143.3551  154.1506 H   0  0  0  0  0  0  0  0  0  0  0  0
  1  2  1  0  0  0  0
  1 21  1  0  0  0  0
  1 22  1  0  0  0  0
  1 23  1  0  0  0  0
  2  3  1  0  0  0  0
  2 24  1  0  0  0  0
  2 25  1  0  0  0  0
  3  4  1  0  0  0  0
  3 10  1  0  0  0  0
  3 26  1  0  0  0  0
  4  5  1  0  0  0  0
  5  9  1  0  0  0  0
  5  6  1  0  0  0  0
  5 27  1  0  0  0  0
  6  7  1  0  0  0  0
  6 28  1  0  0  0  0
  6 29  1  0  0  0  0
  7  8  1  0  0  0  0
  7 30  1  0  0  0  0
  7 31  1  0  0  0  0
  8  9  1  0  0  0  0
  8 32  1  0  0  0  0
  8 33  1  0  0  0  0
  9 34  1  0  0  0  0
  9 35  1  0  0  0  0
 10 11  2  0  0  0  0
 10 12  1  0  0  0  0
 12 13  1  0  0  0  0
 12 36  1  0  0  0  0
 13 14  1  0  0  0  0
 13 37  1  0  0  0  0
 13 38  1  0  0  0  0
 14 15  1  0  0  0  0
 14 39  1  0  0  0  0
 14 40  1  0  0  0  0
 15 20  2  0  0  0  0
 15 16  1  0  0  0  0
 16 17  2  0  0  0  0
 16 41  1  0  0  0  0
 17 18  1  0  0  0  0
 18 19  1  0  0  0  0
 18 20  1  0  0  0  0
 19 42  1  0  0  0  0
 19 43  1  0  0  0  0
 19 44  1  0  0  0  0
 20 45  1  0  0  0  0
M  END
> <s_m_source_file>
AV-unprocessed.smi

> <i_m_source_file_index>
3050

> <i_lp_mmshare_version>
43012

> <i_f3d_flags>
0

> <s_epik_input>
W0NIMl0xW0NIMl1bQ0gyXVtDSDJdW0NIXTFPW0NAQEhdKFtDSDJdW0NIM10pQyg9TylbTkhdW0NIMl1bQ0gyXWMyW2NIXW5uKFtDSDNdKVtjSF0y

> <s_epik_cmdline>
J2VwaWtfcHl0aG9uJywgJy1waCcsICc3LjAnLCAnLXRuJywgJzgnLCAnLW1hJywgJzIwMCcsICctbWV0YWxfYmluZGluZycsICctaW1hZScsICc8aW5maWxlLm1hZT4nLCAnLW9tYWUnLCAnPG91dGZpbGUubWFlPic=

> <r_lp_tautomer_probability>
1

> <r_epik_Ionization_Penalty>
0.000440265

> <r_epik_Ionization_Penalty_Charging>
0

> <r_epik_Ionization_Penalty_Neutral>
0.000440265

> <r_epik_State_Penalty>
-0

> <r_epik_Charging_Adjusted_Penalty>
0

> <i_epik_Tot_Q>
0

> <i_epik_Tot_abs_Q>
0

> <r_epik_Metal_State_Penalty>
-0

> <b_epik_Metal_Only>
0

> <s_lp_Force_Field>
OPLS_2005

> <r_lp_Energy>
20.5357

> <b_lp_Chiralities_Consistent>
1

> <s_lp_Variant>
AV-unprocessed.smi:3050-1

> <Gold.Version>
5.8.1

> <Gold.Id.Protein>
6NUR|6NUR_protein|mol2

> <Gold.PLP.Fitness>
43.8331

> <Gold.PLP.PLP>
-37.8162

> <Gold.PLP.part.hbond>
-1.0000

> <Gold.PLP.part.metal>
0.0000

> <Gold.PLP.part.buried>
-4.2685

> <Gold.PLP.part.nonpolar>
-32.0540

> <Gold.PLP.part.repulsive>
0.1086

> <Gold.PLP.ligand.clash>
0.0000

> <Gold.PLP.ligand.torsion>
1.1178

> <Gold.PLP.Chemscore.Hbond>
1.0000

> <Gold.PLP.Chemscore.CHOScore>
1.7005

> <Gold.PLP.Chemscore.Metal>
0.0000

> <Gold.Chemscore.Hbonds>
donor molecule, donor type, donor heavy atom, donor atom, acceptor molecule, acceptor atom, score
      L1  H    12    36       P1  8028  1.00
      L1  C    16    41       P1  8029  0.66
      L1  C    20    45       P1 10174  1.00

> <Gold.PLP.Chemscore.Internal.Correction>
0.1511

> <Gold.Rescore>
     Score         DG    S(hbond)    S(metal)    S(lipo)     H(rot)  DE(clash)    DE(int)     intcor
     15.15     -16.44       0.97        0.00     105.88       1.83       0.07       1.22       ----

> <Gold.Chemscore.Fitness>
15.1516

> <Gold.Chemscore.DG>
-16.4363

> <Gold.Chemscore.ZeroCoef>
-5.4800

> <Gold.Chemscore.Hbond>
0.9729

> <Gold.Chemscore.Metal>
0.0000

> <Gold.Chemscore.Lipo>
105.8805

> <Gold.Chemscore.Internal_Hbond>
0.0000

> <Gold.Chemscore.DEClash>
0.0654

> <Gold.Chemscore.DEInternal>
1.2193

> <Gold.Chemscore.Rot>
1.8286

> <Gold.Chemscore.Internal.Correction>
   9.000000E+99

> <Gold.Chemscore.Hbonds>
donor molecule, donor type, donor heavy atom, donor atom, acceptor molecule, acceptor atom, score
      L1  H    12    36       P1  8028  0.82

> <Gold.Chemscore.Hbond.Weighted>
-3.2494

> <Gold.Chemscore.Metal.Weighted>
-0.0000

> <Gold.Chemscore.Lipo.Weighted>
-12.3880

> <Gold.Chemscore.Internal_Hbond.Weighted>
0.0000

> <Gold.Chemscore.DEClash.Weighted>
0.0654

> <Gold.Chemscore.DEInternal.Weighted>
1.2193

> <Gold.Chemscore.Rot.Weighted>
4.6811

> <Gold.Chemscore.Internal.Correction.Weighted>
   9.000000E+99

> <Gold.Protein.RotatedTorsions>
[ 6907 6896 6895 6894 ] final   13.60 input  -60.11 | X-H torsion
[ 7974 7965 7964 7962 ] final  -63.81 input  175.53 | X-H torsion
[ 8008 7997 7996 7995 ] final  143.09 input   59.86 | X-H torsion
[ 10167 10162 10161 10158 ] final   78.01 input  -65.29 | X-H torsion
[ 10718 10713 10712 10709 ] final  151.11 input   66.30 | X-H torsion
[ 10763 10752 10751 10750 ] final -125.39 input  -60.55 | X-H torsion
[ 11005 11000 10999 10996 ] final  -68.71 input  -57.11 | X-H torsion

> <Gold.Protein.ActiveResidues>
 VAL166  LYS551  ARG553  GLY616  TRP617  ASP618  TYR619  PRO620  LYS621  CYS622 
 ASP623  PHE694  ASN695  SER759  ASP760  ASP761  ALA762  ILE779  LEU786  VAL792 
 PHE793  MET794  SER795  GLU796  ALA797  LYS798  CYS799  TRP800  GLU811  SER814 

> <Gold.Protein.RotatedAtoms>
  151.7888  135.0741  160.0384 H   0  0  0  0  0  0  0  0  0  0  0  0  # atno 6907 bound_to 6896
  152.3171  133.5809  159.5728 H   0  0  0  0  0  0  0  0  0  0  0  0  # atno 6908 bound_to 6896
  150.7350  133.9983  159.3671 H   0  0  0  0  0  0  0  0  0  0  0  0  # atno 6909 bound_to 6896
  145.7744  140.8795  143.0363 H   0  0  0  0  0  0  0  0  0  0  0  0  # atno 7974 bound_to 7965
  156.2937  140.2271  156.4835 H   0  0  0  0  0  0  0  0  0  0  0  0  # atno 8008 bound_to 7997
  154.7833  140.0459  157.1165 H   0  0  0  0  0  0  0  0  0  0  0  0  # atno 8009 bound_to 7997
  154.9733  140.3069  155.4982 H   0  0  0  0  0  0  0  0  0  0  0  0  # atno 8010 bound_to 7997
  139.9755  144.5864  150.7947 H   0  0  0  0  0  0  0  0  0  0  0  0  # atno 10167 bound_to 10162
  157.2749  131.0824  151.1573 H   0  0  0  0  0  0  0  0  0  0  0  0  # atno 10718 bound_to 10713
  154.8735  135.4031  154.3261 H   0  0  0  0  0  0  0  0  0  0  0  0  # atno 10763 bound_to 10752
  153.4082  135.7020  153.6383 H   0  0  0  0  0  0  0  0  0  0  0  0  # atno 10764 bound_to 10752
  153.5097  135.3710  155.2551 H   0  0  0  0  0  0  0  0  0  0  0  0  # atno 10765 bound_to 10752
  141.1538  133.6747  156.6488 H   0  0  0  0  0  0  0  0  0  0  0  0  # atno 11005 bound_to 11000
  144.6807  139.9901  143.7484 LP  0  0  0  0  0  0  0  0  0  0  0  0  # atno 17320 bound_to 7965
  146.0137  139.3191  143.0855 LP  0  0  0  0  0  0  0  0  0  0  0  0  # atno 17321 bound_to 7965
  140.7507  143.2960  151.3203 LP  0  0  0  0  0  0  0  0  0  0  0  0  # atno 17342 bound_to 10162
  139.6449  144.0470  152.2583 LP  0  0  0  0  0  0  0  0  0  0  0  0  # atno 17343 bound_to 10162
  157.3030  130.6852  149.6174 LP  0  0  0  0  0  0  0  0  0  0  0  0  # atno 17370 bound_to 10713
  155.9663  130.4386  150.5225 LP  0  0  0  0  0  0  0  0  0  0  0  0  # atno 17371 bound_to 10713
  140.3336  134.7908  157.4345 LP  0  0  0  0  0  0  0  0  0  0  0  0  # atno 17394 bound_to 11000
  140.0996  134.5491  155.8366 LP  0  0  0  0  0  0  0  0  0  0  0  0  # atno 17395 bound_to 11000

$$$$
