AV-unprocessed.smi:2321|AV-procd|sdf|9284|dock4
  -GOLD-   2272012503D 1   1.00000     0.00000
 Structure written by MMmdl.
 36 37  0  0  0  0  0  0  0  0  1 V2000
  146.5580  138.5216  154.7113 O   0  0  0  0  0  0  0  0  0  0  0  0
  147.2965  137.8591  153.9858 C   0  0  0  0  0  0  0  0  0  0  0  0
  148.6198  138.0666  153.8402 N   0  0  0  0  0  0  0  0  0  0  0  0
  149.4426  139.0570  154.4407 C   0  0  0  0  0  0  0  0  0  0  0  0
  148.9958  140.3513  154.8008 C   0  0  0  0  0  0  0  0  0  0  0  0
  149.9105  141.2351  155.4080 C   0  0  0  0  0  0  0  0  0  0  0  0
  151.1942  140.9120  155.6726 N   0  0  0  0  0  0  0  0  0  0  0  0
  151.6124  139.6725  155.3398 C   0  0  0  0  0  0  0  0  0  0  0  0
  150.7797  138.7126  154.7309 C   0  0  0  0  0  0  0  0  0  0  0  0
  151.2618  137.4832  154.4269 F   0  0  0  0  0  0  0  0  0  0  0  0
  146.8105  136.8534  153.2352 N   0  0  0  0  0  0  0  0  0  0  0  0
  145.4316  136.3599  153.1470 C   0  0  1  0  0  0  0  0  0  0  0  0
  144.6754  137.0969  152.0250 C   0  0  0  0  0  0  0  0  0  0  0  0
  145.1616  136.6824  150.6260 C   0  0  0  0  0  0  0  0  0  0  0  0
  145.0867  135.1596  150.4359 C   0  0  0  0  0  0  0  0  0  0  0  0
  145.8805  134.4099  151.5263 C   0  0  2  0  0  0  0  0  0  0  0  0
  145.8275  132.8804  151.3321 C   0  0  0  0  0  0  0  0  0  0  0  0
  146.6449  132.2646  152.1867 F   0  0  0  0  0  0  0  0  0  0  0  0
  144.5858  132.4375  151.5283 F   0  0  0  0  0  0  0  0  0  0  0  0
  146.1889  132.5666  150.0880 F   0  0  0  0  0  0  0  0  0  0  0  0
  145.3830  134.8305  152.9279 C   0  0  0  0  0  0  0  0  0  0  0  0
  149.0800  137.4892  153.1517 H   0  0  0  0  0  0  0  0  0  0  0  0
  147.9802  140.6771  154.6377 H   0  0  0  0  0  0  0  0  0  0  0  0
  149.5996  142.2289  155.6945 H   0  0  0  0  0  0  0  0  0  0  0  0
  152.6416  139.4376  155.5673 H   0  0  0  0  0  0  0  0  0  0  0  0
  147.4767  136.3836  152.6390 H   0  0  0  0  0  0  0  0  0  0  0  0
  144.9228  136.5955  154.0834 H   0  0  0  0  0  0  0  0  0  0  0  0
  143.6106  136.8751  152.1086 H   0  0  0  0  0  0  0  0  0  0  0  0
  144.7694  138.1764  152.1496 H   0  0  0  0  0  0  0  0  0  0  0  0
  144.5604  137.1797  149.8645 H   0  0  0  0  0  0  0  0  0  0  0  0
  146.1875  137.0198  150.4747 H   0  0  0  0  0  0  0  0  0  0  0  0
  144.0433  134.8426  150.4534 H   0  0  0  0  0  0  0  0  0  0  0  0
  145.4696  134.9012  149.4482 H   0  0  0  0  0  0  0  0  0  0  0  0
  146.9263  134.7086  151.4381 H   0  0  0  0  0  0  0  0  0  0  0  0
  145.9607  134.3200  153.6987 H   0  0  0  0  0  0  0  0  0  0  0  0
  144.3546  134.4918  153.0576 H   0  0  0  0  0  0  0  0  0  0  0  0
  1  2  2  0  0  0  0
  2  3  1  0  0  0  0
  2 11  1  0  0  0  0
  3  4  1  0  0  0  0
  3 22  1  0  0  0  0
  4  9  1  0  0  0  0
  4  5  2  0  0  0  0
  5  6  1  0  0  0  0
  5 23  1  0  0  0  0
  6  7  2  0  0  0  0
  6 24  1  0  0  0  0
  7  8  1  0  0  0  0
  8  9  2  0  0  0  0
  8 25  1  0  0  0  0
  9 10  1  0  0  0  0
 11 12  1  0  0  0  0
 11 26  1  0  0  0  0
 12 21  1  0  0  0  0
 12 13  1  0  0  0  0
 12 27  1  0  0  0  0
 13 14  1  0  0  0  0
 13 28  1  0  0  0  0
 13 29  1  0  0  0  0
 14 15  1  0  0  0  0
 14 30  1  0  0  0  0
 14 31  1  0  0  0  0
 15 16  1  0  0  0  0
 15 32  1  0  0  0  0
 15 33  1  0  0  0  0
 16 17  1  0  0  0  0
 16 21  1  0  0  0  0
 16 34  1  0  0  0  0
 17 18  1  0  0  0  0
 17 19  1  0  0  0  0
 17 20  1  0  0  0  0
 21 35  1  0  0  0  0
 21 36  1  0  0  0  0
M  END
> <s_m_source_file>
AV-unprocessed.smi

> <i_m_source_file_index>
2321

> <i_lp_mmshare_version>
43012

> <i_f3d_flags>
0

> <s_epik_input>
RkMoRikoRilbQ0BASF0oW0NIMl0xKVtDSDJdW0NIMl1bQ0gyXVtDQEhdMVtOSF1DKD1PKVtOSF1jMltjSF1bY0hdbltjSF1jMkY=

> <s_epik_cmdline>
J2VwaWtfcHl0aG9uJywgJy1waCcsICc3LjAnLCAnLXRuJywgJzgnLCAnLW1hJywgJzIwMCcsICctbWV0YWxfYmluZGluZycsICctaW1hZScsICc8aW5maWxlLm1hZT4nLCAnLW9tYWUnLCAnPG91dGZpbGUubWFlPic=

> <r_epik_Ionization_Penalty>
0.00319438

> <r_epik_Ionization_Penalty_Charging>
0

> <r_epik_Ionization_Penalty_Neutral>
0.00319438

> <r_epik_State_Penalty>
0.00222511

> <r_epik_Charging_Adjusted_Penalty>
0.00222511

> <i_epik_Tot_Q>
0

> <i_epik_Tot_abs_Q>
0

> <r_epik_Metal_State_Penalty>
-0

> <b_epik_Metal_Only>
0

> <s_lp_Force_Field>
OPLS_2005

> <r_lp_Energy>
25.9848

> <b_lp_Chiralities_Consistent>
1

> <s_lp_Variant>
AV-unprocessed.smi:2321-4

> <Gold.Version>
5.8.1

> <Gold.Id.Protein>
6NUR|6NUR_protein|mol2

> <Gold.PLP.Fitness>
41.0840

> <Gold.PLP.PLP>
-33.3086

> <Gold.PLP.part.hbond>
-3.0000

> <Gold.PLP.part.metal>
0.0000

> <Gold.PLP.part.buried>
6.5286

> <Gold.PLP.part.nonpolar>
-36.0389

> <Gold.PLP.part.repulsive>
0.1415

> <Gold.PLP.ligand.clash>
0.0000

> <Gold.PLP.ligand.torsion>
0.6229

> <Gold.PLP.Chemscore.Hbond>
2.0000

> <Gold.PLP.Chemscore.CHOScore>
1.0000

> <Gold.PLP.Chemscore.Metal>
0.0000

> <Gold.Chemscore.Hbonds>
donor molecule, donor type, donor heavy atom, donor atom, acceptor molecule, acceptor atom, score
      L1  H     3    22       P1  7948  1.00
      L1  H    11    26       P1  7948  1.00
      L1  C     6    24       P1  8028  0.85

> <Gold.PLP.Chemscore.Internal.Correction>
0.0211

> <Gold.Rescore>
     Score         DG    S(hbond)    S(metal)    S(lipo)     H(rot)  DE(clash)    DE(int)     intcor
     14.61     -17.54       1.92        0.00      70.06       1.00       2.26       0.67       ----

> <Gold.Chemscore.Fitness>
14.6143

> <Gold.Chemscore.DG>
-17.5411

> <Gold.Chemscore.ZeroCoef>
-5.4800

> <Gold.Chemscore.Hbond>
1.9235

> <Gold.Chemscore.Metal>
0.0000

> <Gold.Chemscore.Lipo>
70.0570

> <Gold.Chemscore.Internal_Hbond>
0.0000

> <Gold.Chemscore.DEClash>
2.2557

> <Gold.Chemscore.DEInternal>
0.6711

> <Gold.Chemscore.Rot>
1.0000

> <Gold.Chemscore.Internal.Correction>
   9.000000E+99

> <Gold.Chemscore.Hbonds>
donor molecule, donor type, donor heavy atom, donor atom, acceptor molecule, acceptor atom, score
      L1  H     3    22       P1  7948  0.94
      L1  H    11    26       P1  7948  0.98

> <Gold.Chemscore.Hbond.Weighted>
-6.4244

> <Gold.Chemscore.Metal.Weighted>
-0.0000

> <Gold.Chemscore.Lipo.Weighted>
-8.1967

> <Gold.Chemscore.Internal_Hbond.Weighted>
0.0000

> <Gold.Chemscore.DEClash.Weighted>
2.2557

> <Gold.Chemscore.DEInternal.Weighted>
0.6711

> <Gold.Chemscore.Rot.Weighted>
2.5600

> <Gold.Chemscore.Internal.Correction.Weighted>
   9.000000E+99

> <Gold.Protein.RotatedTorsions>
[ 6907 6896 6895 6894 ] final    2.03 input  -60.11 | X-H torsion
[ 7974 7965 7964 7962 ] final  -74.87 input  175.53 | X-H torsion
[ 8008 7997 7996 7995 ] final   67.13 input   59.86 | X-H torsion
[ 10167 10162 10161 10158 ] final   87.50 input  -65.29 | X-H torsion
[ 10718 10713 10712 10709 ] final  123.25 input   66.30 | X-H torsion
[ 10763 10752 10751 10750 ] final   25.73 input  -60.55 | X-H torsion
[ 11005 11000 10999 10996 ] final   21.82 input  -57.11 | X-H torsion

> <Gold.Protein.ActiveResidues>
 VAL166  LYS551  ARG553  GLY616  TRP617  ASP618  TYR619  PRO620  LYS621  CYS622 
 ASP623  PHE694  ASN695  SER759  ASP760  ASP761  ALA762  ILE779  LEU786  VAL792 
 PHE793  MET794  SER795  GLU796  ALA797  LYS798  CYS799  TRP800  GLU811  SER814 

> <Gold.Protein.RotatedAtoms>
  151.6023  135.1046  160.0062 H   0  0  0  0  0  0  0  0  0  0  0  0  # atno 6907 bound_to 6896
  152.4251  133.7178  159.6526 H   0  0  0  0  0  0  0  0  0  0  0  0  # atno 6908 bound_to 6896
  150.8140  133.8298  159.3191 H   0  0  0  0  0  0  0  0  0  0  0  0  # atno 6909 bound_to 6896
  145.6334  140.9331  143.1074 H   0  0  0  0  0  0  0  0  0  0  0  0  # atno 7974 bound_to 7965
  155.6881  140.3496  155.4882 H   0  0  0  0  0  0  0  0  0  0  0  0  # atno 8008 bound_to 7997
  155.9548  140.1126  157.0968 H   0  0  0  0  0  0  0  0  0  0  0  0  # atno 8009 bound_to 7997
  154.4130  140.1187  156.5087 H   0  0  0  0  0  0  0  0  0  0  0  0  # atno 8010 bound_to 7997
  139.8767  144.6463  150.8888 H   0  0  0  0  0  0  0  0  0  0  0  0  # atno 10167 bound_to 10162
  157.5680  131.1085  150.8420 H   0  0  0  0  0  0  0  0  0  0  0  0  # atno 10718 bound_to 10713
  153.0671  135.6576  154.0329 H   0  0  0  0  0  0  0  0  0  0  0  0  # atno 10763 bound_to 10752
  153.9983  135.2939  155.3406 H   0  0  0  0  0  0  0  0  0  0  0  0  # atno 10764 bound_to 10752
  154.7033  135.5235  153.8628 H   0  0  0  0  0  0  0  0  0  0  0  0  # atno 10765 bound_to 10752
  140.3874  134.1856  155.7663 H   0  0  0  0  0  0  0  0  0  0  0  0  # atno 11005 bound_to 11000
  144.7185  139.8113  143.7390 LP  0  0  0  0  0  0  0  0  0  0  0  0  # atno 17320 bound_to 7965
  146.1338  139.4379  143.0152 LP  0  0  0  0  0  0  0  0  0  0  0  0  # atno 17321 bound_to 7965
  140.7751  143.3619  151.1812 LP  0  0  0  0  0  0  0  0  0  0  0  0  # atno 17342 bound_to 10162
  139.7233  143.9188  152.2993 LP  0  0  0  0  0  0  0  0  0  0  0  0  # atno 17343 bound_to 10162
  156.8899  130.5209  149.5287 LP  0  0  0  0  0  0  0  0  0  0  0  0  # atno 17370 bound_to 10713
  156.0726  130.5756  150.9413 LP  0  0  0  0  0  0  0  0  0  0  0  0  # atno 17371 bound_to 10713
  141.1903  133.8220  157.0925 LP  0  0  0  0  0  0  0  0  0  0  0  0  # atno 17394 bound_to 11000
  140.0432  134.9843  157.1001 LP  0  0  0  0  0  0  0  0  0  0  0  0  # atno 17395 bound_to 11000

$$$$
