AV-unprocessed.smi:767|AV-procd|sdf|3670|dock7
  -GOLD-   22720 1 83D 1   1.00000     0.00000
 Structure written by MMmdl.
 48 50  0  0  0  0  0  0  0  0  2 V2000
  151.3810  144.9027  158.2711 C   0  0  0  0  0  0  0  0  0  0  0  0
  151.1644  143.4051  158.2239 C   0  0  0  0  0  0  0  0  0  0  0  0
  151.9600  142.5087  158.9684 C   0  0  0  0  0  0  0  0  0  0  0  0
  151.7025  141.1252  158.8816 C   0  0  0  0  0  0  0  0  0  0  0  0
  150.6535  140.6647  158.0559 C   0  0  0  0  0  0  0  0  0  0  0  0
  150.3348  139.1811  157.9679 C   0  0  0  0  0  0  0  0  0  0  0  0
  148.8774  138.8797  157.5591 C   0  0  0  0  0  0  0  0  0  0  0  0
  148.1299  138.1480  158.5780 N   0  0  0  0  0  0  0  0  0  0  0  0
  148.6001  137.1202  159.2976 C   0  0  0  0  0  0  0  0  0  0  0  0
  149.7310  136.6502  159.1762 O   0  0  0  0  0  0  0  0  0  0  0  0
  147.6955  136.6878  160.1844 N   0  0  0  0  0  0  0  0  0  0  0  0
  147.9041  135.5992  161.1409 C   0  0  1  0  0  0  0  0  0  0  0  0
  147.3840  135.9174  162.5642 C   0  0  1  0  0  0  0  0  0  0  0  0
  146.9850  137.3032  163.0075 C   0  0  0  0  0  0  0  0  0  0  0  0
  145.4711  137.3159  162.7766 C   0  0  0  0  0  0  0  0  0  0  0  0
  145.2296  136.2505  161.8592 O   0  0  0  0  0  0  0  0  0  0  0  0
  146.1095  135.1781  162.1923 C   0  0  1  0  0  0  0  0  0  0  0  0
  146.8302  134.4860  161.0163 C   0  0  0  0  0  0  0  0  0  0  0  0
  146.0386  134.3640  159.7071 C   0  0  0  0  0  0  0  0  0  0  0  0
  147.3432  133.0792  161.3395 C   0  0  0  0  0  0  0  0  0  0  0  0
  149.8965  141.6073  157.3274 C   0  0  0  0  0  0  0  0  0  0  0  0
  150.1749  142.9249  157.4372 N   0  3  0  0  0  0  0  0  0  0  0  0
  151.8650  145.1942  159.2038 H   0  0  0  0  0  0  0  0  0  0  0  0
  150.4320  145.4358  158.2025 H   0  0  0  0  0  0  0  0  0  0  0  0
  152.0150  145.2191  157.4423 H   0  0  0  0  0  0  0  0  0  0  0  0
  152.7550  142.8734  159.6026 H   0  0  0  0  0  0  0  0  0  0  0  0
  152.2973  140.4286  159.4549 H   0  0  0  0  0  0  0  0  0  0  0  0
  151.0193  138.7151  157.2584 H   0  0  0  0  0  0  0  0  0  0  0  0
  150.5438  138.7163  158.9323 H   0  0  0  0  0  0  0  0  0  0  0  0
  148.3489  139.8188  157.3946 H   0  0  0  0  0  0  0  0  0  0  0  0
  148.8495  138.3421  156.6102 H   0  0  0  0  0  0  0  0  0  0  0  0
  147.1837  138.4532  158.7534 H   0  0  0  0  0  0  0  0  0  0  0  0
  146.7961  137.1459  160.2122 H   0  0  0  0  0  0  0  0  0  0  0  0
  148.9219  135.2043  161.1396 H   0  0  0  0  0  0  0  0  0  0  0  0
  147.9523  135.3657  163.3146 H   0  0  0  0  0  0  0  0  0  0  0  0
  147.2223  137.4837  164.0562 H   0  0  0  0  0  0  0  0  0  0  0  0
  147.4827  138.0767  162.4268 H   0  0  0  0  0  0  0  0  0  0  0  0
  144.9411  137.1086  163.7073 H   0  0  0  0  0  0  0  0  0  0  0  0
  145.1146  138.2690  162.3852 H   0  0  0  0  0  0  0  0  0  0  0  0
  145.7261  134.5241  162.9768 H   0  0  0  0  0  0  0  0  0  0  0  0
  145.2596  133.6047  159.7809 H   0  0  0  0  0  0  0  0  0  0  0  0
  146.6866  134.0898  158.8741 H   0  0  0  0  0  0  0  0  0  0  0  0
  145.5409  135.2952  159.4366 H   0  0  0  0  0  0  0  0  0  0  0  0
  146.5218  132.3750  161.4762 H   0  0  0  0  0  0  0  0  0  0  0  0
  147.9323  133.0647  162.2572 H   0  0  0  0  0  0  0  0  0  0  0  0
  147.9804  132.6929  160.5435 H   0  0  0  0  0  0  0  0  0  0  0  0
  149.0765  141.3500  156.6729 H   0  0  0  0  0  0  0  0  0  0  0  0
  149.6104  143.5879  156.9053 H   0  0  0  0  0  0  0  0  0  0  0  0
  1  2  1  0  0  0  0
  1 23  1  0  0  0  0
  1 24  1  0  0  0  0
  1 25  1  0  0  0  0
  2 22  1  0  0  0  0
  2  3  2  0  0  0  0
  3  4  1  0  0  0  0
  3 26  1  0  0  0  0
  4  5  2  0  0  0  0
  4 27  1  0  0  0  0
  5  6  1  0  0  0  0
  5 21  1  0  0  0  0
  6  7  1  0  0  0  0
  6 28  1  0  0  0  0
  6 29  1  0  0  0  0
  7  8  1  0  0  0  0
  7 30  1  0  0  0  0
  7 31  1  0  0  0  0
  8  9  1  0  0  0  0
  8 32  1  0  0  0  0
  9 10  2  0  0  0  0
  9 11  1  0  0  0  0
 11 12  1  0  0  0  0
 11 33  1  0  0  0  0
 12 18  1  0  0  0  0
 12 13  1  0  0  0  0
 12 34  1  0  0  0  0
 13 17  1  0  0  0  0
 13 14  1  0  0  0  0
 13 35  1  0  0  0  0
 14 15  1  0  0  0  0
 14 36  1  0  0  0  0
 14 37  1  0  0  0  0
 15 16  1  0  0  0  0
 15 38  1  0  0  0  0
 15 39  1  0  0  0  0
 16 17  1  0  0  0  0
 17 18  1  0  0  0  0
 17 40  1  0  0  0  0
 18 19  1  0  0  0  0
 18 20  1  0  0  0  0
 19 41  1  0  0  0  0
 19 42  1  0  0  0  0
 19 43  1  0  0  0  0
 20 44  1  0  0  0  0
 20 45  1  0  0  0  0
 20 46  1  0  0  0  0
 21 22  2  0  0  0  0
 21 47  1  0  0  0  0
 22 48  1  0  0  0  0
M  CHG  1  22   1
M  END
> <s_m_source_file>
AV-unprocessed.smi

> <i_m_source_file_index>
767

> <i_lp_mmshare_version>
43012

> <i_f3d_flags>
0

> <s_epik_input>
W0NIM11jMVtjSF1bY0hdYyhbY0hdbjEpW0NIMl1bQ0gyXVtOSF1DKD1PKVtOSF1bQ0BIXTJDKFtDSDNdKShbQ0gzXSlbQ0BIXShbQ0BASF0yMylPW0NIMl1bQ0gyXTM=

> <s_epik_cmdline>
J2VwaWtfcHl0aG9uJywgJy1waCcsICc3LjAnLCAnLXRuJywgJzgnLCAnLW1hJywgJzIwMCcsICctbWV0YWxfYmluZGluZycsICctaW1hZScsICc8aW5maWxlLm1hZT4nLCAnLW9tYWUnLCAnPG91dGZpbGUubWFlPic=

> <r_epik_Ionization_Penalty>
1.41853

> <r_epik_Ionization_Penalty_Charging>
1.41848

> <r_epik_Ionization_Penalty_Neutral>
5.17407e-05

> <r_epik_State_Penalty>
1.50205

> <r_epik_Charging_Adjusted_Penalty>
2.92053

> <i_epik_Tot_Q>
1

> <i_epik_Tot_abs_Q>
1

> <r_epik_Metal_State_Penalty>
1.5544

> <b_epik_Metal_Only>
0

> <s_lp_Force_Field>
OPLS_2005

> <r_lp_Energy>
40.9756

> <b_lp_Chiralities_Consistent>
1

> <s_lp_Variant>
AV-unprocessed.smi:767-14

> <Gold.Version>
5.8.1

> <Gold.Id.Protein>
6NUR|6NUR_protein|mol2

> <Gold.PLP.Fitness>
46.9769

> <Gold.PLP.PLP>
-39.6747

> <Gold.PLP.part.hbond>
-1.9399

> <Gold.PLP.part.metal>
0.0000

> <Gold.PLP.part.buried>
-5.0622

> <Gold.PLP.part.nonpolar>
-32.3324

> <Gold.PLP.part.repulsive>
0.3876

> <Gold.PLP.ligand.clash>
0.0000

> <Gold.PLP.ligand.torsion>
0.9518

> <Gold.PLP.Chemscore.Hbond>
3.0000

> <Gold.PLP.Chemscore.CHOScore>
0.0000

> <Gold.PLP.Chemscore.Metal>
0.0000

> <Gold.Chemscore.Hbonds>
donor molecule, donor type, donor heavy atom, donor atom, acceptor molecule, acceptor atom, score
      L1  H    22    48       P1  8028  2.00
      P1  H  6896  6908       L1    10  0.60

> <Gold.PLP.Chemscore.Internal.Correction>
0.2058

> <Gold.Rescore>
     Score         DG    S(hbond)    S(metal)    S(lipo)     H(rot)  DE(clash)    DE(int)     intcor
     19.49     -21.57       1.98        0.00     114.24       1.52       0.05       2.03       ----

> <Gold.Chemscore.Fitness>
19.4918

> <Gold.Chemscore.DG>
-21.5723

> <Gold.Chemscore.ZeroCoef>
-5.4800

> <Gold.Chemscore.Hbond>
1.9837

> <Gold.Chemscore.Metal>
0.0000

> <Gold.Chemscore.Lipo>
114.2407

> <Gold.Chemscore.Internal_Hbond>
0.0000

> <Gold.Chemscore.DEClash>
0.0456

> <Gold.Chemscore.DEInternal>
2.0350

> <Gold.Chemscore.Rot>
1.5233

> <Gold.Chemscore.Internal.Correction>
   9.000000E+99

> <Gold.Chemscore.Hbonds>
donor molecule, donor type, donor heavy atom, donor atom, acceptor molecule, acceptor atom, score
      L1  H    22    48       P1  8028  0.97
      P1  H  6896  6908       L1    10  0.60

> <Gold.Chemscore.Hbond.Weighted>
-6.6257

> <Gold.Chemscore.Metal.Weighted>
-0.0000

> <Gold.Chemscore.Lipo.Weighted>
-13.3662

> <Gold.Chemscore.Internal_Hbond.Weighted>
0.0000

> <Gold.Chemscore.DEClash.Weighted>
0.0456

> <Gold.Chemscore.DEInternal.Weighted>
2.0350

> <Gold.Chemscore.Rot.Weighted>
3.8995

> <Gold.Chemscore.Internal.Correction.Weighted>
   9.000000E+99

> <Gold.Protein.RotatedTorsions>
[ 6907 6896 6895 6894 ] final -148.87 input  -60.11 | X-H torsion
[ 7974 7965 7964 7962 ] final   22.18 input  175.53 | X-H torsion
[ 8008 7997 7996 7995 ] final -151.88 input   59.86 | X-H torsion
[ 10167 10162 10161 10158 ] final   28.17 input  -65.29 | X-H torsion
[ 10718 10713 10712 10709 ] final   84.95 input   66.30 | X-H torsion
[ 10763 10752 10751 10750 ] final  149.73 input  -60.55 | X-H torsion
[ 11005 11000 10999 10996 ] final  -41.36 input  -57.11 | X-H torsion

> <Gold.Protein.ActiveResidues>
 VAL166  LYS551  ARG553  GLY616  TRP617  ASP618  TYR619  PRO620  LYS621  CYS622 
 ASP623  PHE694  ASN695  SER759  ASP760  ASP761  ALA762  ILE779  LEU786  VAL792 
 PHE793  MET794  SER795  GLU796  ALA797  LYS798  CYS799  TRP800  GLU811  SER814 

> <Gold.Protein.RotatedAtoms>
  151.1760  133.4754  159.2593 H   0  0  0  0  0  0  0  0  0  0  0  0  # atno 6907 bound_to 6896
  151.1307  135.0128  159.8591 H   0  0  0  0  0  0  0  0  0  0  0  0  # atno 6908 bound_to 6896
  152.5460  134.1663  159.8631 H   0  0  0  0  0  0  0  0  0  0  0  0  # atno 6909 bound_to 6896
  146.2040  139.7922  142.8740 H   0  0  0  0  0  0  0  0  0  0  0  0  # atno 7974 bound_to 7965
  155.6464  140.0707  157.2601 H   0  0  0  0  0  0  0  0  0  0  0  0  # atno 8008 bound_to 7997
  154.4172  140.1741  156.1677 H   0  0  0  0  0  0  0  0  0  0  0  0  # atno 8009 bound_to 7997
  155.9813  140.3353  155.6669 H   0  0  0  0  0  0  0  0  0  0  0  0  # atno 8010 bound_to 7997
  140.4875  144.0518  150.6286 H   0  0  0  0  0  0  0  0  0  0  0  0  # atno 10167 bound_to 10162
  157.6907  131.0154  150.2749 H   0  0  0  0  0  0  0  0  0  0  0  0  # atno 10718 bound_to 10713
  154.0760  135.2863  155.3299 H   0  0  0  0  0  0  0  0  0  0  0  0  # atno 10763 bound_to 10752
  154.6715  135.5297  153.8148 H   0  0  0  0  0  0  0  0  0  0  0  0  # atno 10764 bound_to 10752
  153.0467  135.6559  154.0938 H   0  0  0  0  0  0  0  0  0  0  0  0  # atno 10765 bound_to 10752
  141.0240  133.6849  156.2447 H   0  0  0  0  0  0  0  0  0  0  0  0  # atno 11005 bound_to 11000
  145.3386  141.0282  143.3405 LP  0  0  0  0  0  0  0  0  0  0  0  0  # atno 17320 bound_to 7965
  144.8748  139.4986  143.6751 LP  0  0  0  0  0  0  0  0  0  0  0  0  # atno 17321 bound_to 7965
  140.3778  143.2819  152.0205 LP  0  0  0  0  0  0  0  0  0  0  0  0  # atno 17342 bound_to 10162
  139.4845  144.6179  151.7312 LP  0  0  0  0  0  0  0  0  0  0  0  0  # atno 17343 bound_to 10162
  156.3305  130.3799  149.7495 LP  0  0  0  0  0  0  0  0  0  0  0  0  # atno 17370 bound_to 10713
  156.5036  130.8140  151.3142 LP  0  0  0  0  0  0  0  0  0  0  0  0  # atno 17371 bound_to 10713
  140.6523  134.5054  157.5578 LP  0  0  0  0  0  0  0  0  0  0  0  0  # atno 17394 bound_to 11000
  139.9164  134.8237  156.1352 LP  0  0  0  0  0  0  0  0  0  0  0  0  # atno 17395 bound_to 11000

$$$$
