AV-unprocessed.smi:1998|AV-procd|sdf|8090|dock8
  -GOLD-   2272010303D 1   1.00000     0.00000
 Structure written by MMmdl.
 47 48  0  0  0  0  0  0  0  0  1 V2000
  146.6875  128.8524  152.9339 C   0  0  0  0  0  0  0  0  0  0  0  0
  146.3654  130.1676  152.2879 C   0  0  0  0  0  0  0  0  0  0  0  0
  145.3685  130.4464  151.3118 C   0  0  0  0  0  0  0  0  0  0  0  0
  145.5090  131.7811  151.0567 C   0  0  0  0  0  0  0  0  0  0  0  0
  144.7532  132.6663  150.1205 C   0  0  0  0  0  0  0  0  0  0  0  0
  146.5396  132.2375  151.8601 N   0  0  0  0  0  0  0  0  0  0  0  0
  147.0759  133.5863  151.9882 C   0  0  0  0  0  0  0  0  0  0  0  0
  146.8625  134.1273  153.4028 C   0  0  0  0  0  0  0  0  0  0  0  0
  146.1178  133.5374  154.1849 O   0  0  0  0  0  0  0  0  0  0  0  0
  147.5560  135.2296  153.7226 N   0  0  0  0  0  0  0  0  0  0  0  0
  147.6957  135.8047  155.0582 C   0  0  0  0  0  0  0  0  0  0  0  0
  149.1898  135.9551  155.4762 C   0  0  0  0  0  0  0  0  0  0  0  0
  149.2375  135.9832  157.0225 C   0  0  0  0  0  0  0  0  0  0  0  0
  149.9108  134.6598  155.0230 C   0  0  0  0  0  0  0  0  0  0  0  0
  149.8101  137.1570  154.8509 N   0  0  0  0  0  0  0  0  0  0  0  0
  149.0695  138.4076  155.0507 C   0  0  0  0  0  0  0  0  0  0  0  0
  149.6831  139.5724  154.2573 C   0  0  0  0  0  0  0  0  0  0  0  0
  151.0488  139.7349  154.6214 O   0  0  0  0  0  0  0  0  0  0  0  0
  151.8169  138.5583  154.3986 C   0  0  0  0  0  0  0  0  0  0  0  0
  151.2173  137.3856  155.1936 C   0  0  0  0  0  0  0  0  0  0  0  0
  147.0613  131.2444  152.6146 N   0  0  0  0  0  0  0  0  0  0  0  0
  145.9667  128.0866  152.6473 H   0  0  0  0  0  0  0  0  0  0  0  0
  146.6714  128.9292  154.0205 H   0  0  0  0  0  0  0  0  0  0  0  0
  147.6775  128.5034  152.6390 H   0  0  0  0  0  0  0  0  0  0  0  0
  144.6595  129.7667  150.8629 H   0  0  0  0  0  0  0  0  0  0  0  0
  143.9885  132.1034  149.5850 H   0  0  0  0  0  0  0  0  0  0  0  0
  145.4203  133.1112  149.3822 H   0  0  0  0  0  0  0  0  0  0  0  0
  144.2568  133.4732  150.6597 H   0  0  0  0  0  0  0  0  0  0  0  0
  148.1411  133.5832  151.7517 H   0  0  0  0  0  0  0  0  0  0  0  0
  146.5869  134.2324  151.2584 H   0  0  0  0  0  0  0  0  0  0  0  0
  148.1359  135.6347  153.0017 H   0  0  0  0  0  0  0  0  0  0  0  0
  147.1927  136.7716  155.0557 H   0  0  0  0  0  0  0  0  0  0  0  0
  147.1474  135.2123  155.7931 H   0  0  0  0  0  0  0  0  0  0  0  0
  148.7930  135.0803  157.4426 H   0  0  0  0  0  0  0  0  0  0  0  0
  148.6847  136.8263  157.4359 H   0  0  0  0  0  0  0  0  0  0  0  0
  150.2577  136.0380  157.4017 H   0  0  0  0  0  0  0  0  0  0  0  0
  149.3526  133.7678  155.3097 H   0  0  0  0  0  0  0  0  0  0  0  0
  150.8979  134.5582  155.4741 H   0  0  0  0  0  0  0  0  0  0  0  0
  150.0415  134.6287  153.9411 H   0  0  0  0  0  0  0  0  0  0  0  0
  148.0323  138.3028  154.7378 H   0  0  0  0  0  0  0  0  0  0  0  0
  149.0558  138.6720  156.1082 H   0  0  0  0  0  0  0  0  0  0  0  0
  149.6002  139.3901  153.1856 H   0  0  0  0  0  0  0  0  0  0  0  0
  149.1461  140.4976  154.4667 H   0  0  0  0  0  0  0  0  0  0  0  0
  151.8423  138.3269  153.3328 H   0  0  0  0  0  0  0  0  0  0  0  0
  152.8453  138.7406  154.7106 H   0  0  0  0  0  0  0  0  0  0  0  0
  151.3177  137.5902  156.2596 H   0  0  0  0  0  0  0  0  0  0  0  0
  151.8183  136.5035  154.9812 H   0  0  0  0  0  0  0  0  0  0  0  0
  1  2  1  0  0  0  0
  1 22  1  0  0  0  0
  1 23  1  0  0  0  0
  1 24  1  0  0  0  0
  2 21  2  0  0  0  0
  2  3  1  0  0  0  0
  3  4  2  0  0  0  0
  3 25  1  0  0  0  0
  4  5  1  0  0  0  0
  4  6  1  0  0  0  0
  5 26  1  0  0  0  0
  5 27  1  0  0  0  0
  5 28  1  0  0  0  0
  6  7  1  0  0  0  0
  6 21  1  0  0  0  0
  7  8  1  0  0  0  0
  7 29  1  0  0  0  0
  7 30  1  0  0  0  0
  8  9  2  0  0  0  0
  8 10  1  0  0  0  0
 10 11  1  0  0  0  0
 10 31  1  0  0  0  0
 11 12  1  0  0  0  0
 11 32  1  0  0  0  0
 11 33  1  0  0  0  0
 12 13  1  0  0  0  0
 12 14  1  0  0  0  0
 12 15  1  0  0  0  0
 13 34  1  0  0  0  0
 13 35  1  0  0  0  0
 13 36  1  0  0  0  0
 14 37  1  0  0  0  0
 14 38  1  0  0  0  0
 14 39  1  0  0  0  0
 15 20  1  0  0  0  0
 15 16  1  0  0  0  0
 16 17  1  0  0  0  0
 16 40  1  0  0  0  0
 16 41  1  0  0  0  0
 17 18  1  0  0  0  0
 17 42  1  0  0  0  0
 17 43  1  0  0  0  0
 18 19  1  0  0  0  0
 19 20  1  0  0  0  0
 19 44  1  0  0  0  0
 19 45  1  0  0  0  0
 20 46  1  0  0  0  0
 20 47  1  0  0  0  0
M  END
> <s_m_source_file>
AV-unprocessed.smi

> <i_m_source_file_index>
1998

> <i_lp_mmshare_version>
43012

> <i_f3d_flags>
0

> <s_epik_input>
W0NIM11jMVtjSF1jKFtDSDNdKW4objEpW0NIMl1DKD1PKVtOSF1bQ0gyXUMoW0NIM10pKFtDSDNdKU4yW0NIMl1bQ0gyXU9bQ0gyXVtDSDJdMg==

> <s_epik_cmdline>
J2VwaWtfcHl0aG9uJywgJy1waCcsICc3LjAnLCAnLXRuJywgJzgnLCAnLW1hJywgJzIwMCcsICctbWV0YWxfYmluZGluZycsICctaW1hZScsICc8aW5maWxlLm1hZT4nLCAnLW9tYWUnLCAnPG91dGZpbGUubWFlPic=

> <r_lp_tautomer_probability>
1

> <r_epik_Ionization_Penalty>
0.197271

> <r_epik_Ionization_Penalty_Charging>
0

> <r_epik_Ionization_Penalty_Neutral>
0.197271

> <r_epik_State_Penalty>
0.186684

> <r_epik_Charging_Adjusted_Penalty>
0.186684

> <i_epik_Tot_Q>
0

> <i_epik_Tot_abs_Q>
0

> <r_epik_Metal_State_Penalty>
0.186642

> <b_epik_Metal_Only>
0

> <s_lp_Force_Field>
OPLS_2005

> <r_lp_Energy>
37.8286

> <b_lp_Chiralities_Consistent>
1

> <s_lp_Variant>
AV-unprocessed.smi:1998-1

> <Gold.Version>
5.8.1

> <Gold.Id.Protein>
6NUR|6NUR_protein|mol2

> <Gold.PLP.Fitness>
38.9611

> <Gold.PLP.PLP>
-33.8958

> <Gold.PLP.part.hbond>
-2.0000

> <Gold.PLP.part.metal>
0.0000

> <Gold.PLP.part.buried>
-6.8111

> <Gold.PLP.part.nonpolar>
-25.9716

> <Gold.PLP.part.repulsive>
0.4632

> <Gold.PLP.ligand.clash>
0.0106

> <Gold.PLP.ligand.torsion>
0.5044

> <Gold.PLP.Chemscore.Hbond>
2.0000

> <Gold.PLP.Chemscore.CHOScore>
0.0000

> <Gold.PLP.Chemscore.Metal>
0.0000

> <Gold.Chemscore.Hbonds>
donor molecule, donor type, donor heavy atom, donor atom, acceptor molecule, acceptor atom, score
      L1  H    10    31       P1  7948  0.96
      P1  H  7989  7998       L1    18  1.00

> <Gold.PLP.Chemscore.Internal.Correction>
0.0848

> <Gold.Rescore>
     Score         DG    S(hbond)    S(metal)    S(lipo)     H(rot)  DE(clash)    DE(int)     intcor
     14.96     -17.22       1.67        0.00      89.03       1.67       0.36       1.91       ----

> <Gold.Chemscore.Fitness>
14.9561

> <Gold.Chemscore.DG>
-17.2216

> <Gold.Chemscore.ZeroCoef>
-5.4800

> <Gold.Chemscore.Hbond>
1.6743

> <Gold.Chemscore.Metal>
0.0000

> <Gold.Chemscore.Lipo>
89.0267

> <Gold.Chemscore.Internal_Hbond>
0.0000

> <Gold.Chemscore.DEClash>
0.3586

> <Gold.Chemscore.DEInternal>
1.9068

> <Gold.Chemscore.Rot>
1.6666

> <Gold.Chemscore.Internal.Correction>
   9.000000E+99

> <Gold.Chemscore.Hbonds>
donor molecule, donor type, donor heavy atom, donor atom, acceptor molecule, acceptor atom, score
      L1  H    10    31       P1  7948  0.90
      P1  H  7989  7998       L1    18  0.22

> <Gold.Chemscore.Hbond.Weighted>
-5.5921

> <Gold.Chemscore.Metal.Weighted>
-0.0000

> <Gold.Chemscore.Lipo.Weighted>
-10.4161

> <Gold.Chemscore.Internal_Hbond.Weighted>
0.0000

> <Gold.Chemscore.DEClash.Weighted>
0.3586

> <Gold.Chemscore.DEInternal.Weighted>
1.9068

> <Gold.Chemscore.Rot.Weighted>
4.2666

> <Gold.Chemscore.Internal.Correction.Weighted>
   9.000000E+99

> <Gold.Protein.RotatedTorsions>
[ 6907 6896 6895 6894 ] final   74.12 input  -60.11 | X-H torsion
[ 7974 7965 7964 7962 ] final  -51.76 input  175.53 | X-H torsion
[ 8008 7997 7996 7995 ] final  111.43 input   59.86 | X-H torsion
[ 10167 10162 10161 10158 ] final  -14.14 input  -65.29 | X-H torsion
[ 10718 10713 10712 10709 ] final  143.05 input   66.30 | X-H torsion
[ 10763 10752 10751 10750 ] final -171.06 input  -60.55 | X-H torsion
[ 11005 11000 10999 10996 ] final  178.98 input  -57.11 | X-H torsion

> <Gold.Protein.ActiveResidues>
 VAL166  LYS551  ARG553  GLY616  TRP617  ASP618  TYR619  PRO620  LYS621  CYS622 
 ASP623  PHE694  ASN695  SER759  ASP760  ASP761  ALA762  ILE779  LEU786  VAL792 
 PHE793  MET794  SER795  GLU796  ALA797  LYS798  CYS799  TRP800  GLU811  SER814 

> <Gold.Protein.RotatedAtoms>
  152.4959  134.4319  159.9514 H   0  0  0  0  0  0  0  0  0  0  0  0  # atno 6907 bound_to 6896
  151.4297  133.3667  159.2775 H   0  0  0  0  0  0  0  0  0  0  0  0  # atno 6908 bound_to 6896
  150.9163  134.8604  159.7519 H   0  0  0  0  0  0  0  0  0  0  0  0  # atno 6909 bound_to 6896
  145.9154  140.7880  142.9674 H   0  0  0  0  0  0  0  0  0  0  0  0  # atno 7974 bound_to 7965
  156.2123  140.3019  155.9761 H   0  0  0  0  0  0  0  0  0  0  0  0  # atno 8008 bound_to 7997
  155.2692  140.0433  157.3022 H   0  0  0  0  0  0  0  0  0  0  0  0  # atno 8009 bound_to 7997
  154.5718  140.2350  155.8189 H   0  0  0  0  0  0  0  0  0  0  0  0  # atno 8010 bound_to 7997
  140.7195  143.5353  150.9472 H   0  0  0  0  0  0  0  0  0  0  0  0  # atno 10167 bound_to 10162
  157.3734  131.0982  151.0806 H   0  0  0  0  0  0  0  0  0  0  0  0  # atno 10718 bound_to 10713
  154.6347  135.2891  155.0175 H   0  0  0  0  0  0  0  0  0  0  0  0  # atno 10763 bound_to 10752
  154.1324  135.6531  153.4928 H   0  0  0  0  0  0  0  0  0  0  0  0  # atno 10764 bound_to 10752
  153.0296  135.5313  154.7188 H   0  0  0  0  0  0  0  0  0  0  0  0  # atno 10765 bound_to 10752
  140.4011  134.6776  157.4562 H   0  0  0  0  0  0  0  0  0  0  0  0  # atno 11005 bound_to 11000
  144.6747  140.1891  143.7398 LP  0  0  0  0  0  0  0  0  0  0  0  0  # atno 17320 bound_to 7965
  145.8618  139.2227  143.1712 LP  0  0  0  0  0  0  0  0  0  0  0  0  # atno 17321 bound_to 7965
  139.9074  143.6762  152.3121 LP  0  0  0  0  0  0  0  0  0  0  0  0  # atno 17342 bound_to 10162
  139.7133  144.7616  151.1076 LP  0  0  0  0  0  0  0  0  0  0  0  0  # atno 17343 bound_to 10162
  157.1902  130.6348  149.5702 LP  0  0  0  0  0  0  0  0  0  0  0  0  # atno 17370 bound_to 10713
  155.9760  130.4724  150.6500 LP  0  0  0  0  0  0  0  0  0  0  0  0  # atno 17371 bound_to 10713
  140.0335  134.6371  155.9074 LP  0  0  0  0  0  0  0  0  0  0  0  0  # atno 17394 bound_to 11000
  141.1856  133.6555  156.5205 LP  0  0  0  0  0  0  0  0  0  0  0  0  # atno 17395 bound_to 11000

$$$$
