AV-unprocessed.smi:49|AV-procd|sdf|485|dock1
  -GOLD-   2262016343D 1   1.00000     0.00000
 Structure written by MMmdl.
 27 28  0  0  0  0  0  0  0  0  3 V2000
  151.9245  141.7899  159.2083 C   0  0  0  0  0  0  0  0  0  0  0  0
  151.9186  140.3821  158.6046 C   0  0  0  0  0  0  0  0  0  0  0  0
  151.5051  140.3881  157.1491 C   0  0  0  0  0  0  0  0  0  0  0  0
  150.3176  140.7561  156.6784 N   0  0  0  0  0  0  0  0  0  0  0  0
  150.4034  140.6483  155.3461 C   0  0  0  0  0  0  0  0  0  0  0  0
  149.2611  140.9331  154.3937 C   0  0  2  0  0  0  0  0  0  0  0  0
  147.9781  141.3783  155.0990 C   0  0  0  0  0  0  0  0  0  0  0  0
  146.9011  141.0052  154.0860 C   0  0  2  0  0  0  0  0  0  0  0  0
  145.6319  140.8580  154.6868 O   0  0  0  0  0  0  0  0  0  0  0  0
  147.4194  139.6906  153.4939 C   0  0  0  0  0  0  0  0  0  0  0  0
  148.8913  139.7453  153.5987 N   0  3  0  0  0  0  0  0  0  0  0  0
  151.6196  140.2123  154.9814 N   0  0  0  0  0  0  0  0  0  0  0  0
  152.2914  140.0713  156.1050 N   0  5  0  0  0  0  0  0  0  0  0  0
  149.5700  141.7095  153.6921 H   0  0  0  0  0  0  0  0  0  0  0  0
  146.8496  141.7678  153.3074 H   0  0  0  0  0  0  0  0  0  0  0  0
  152.2232  141.7623  160.2562 H   0  0  0  0  0  0  0  0  0  0  0  0
  150.9346  142.2439  159.1545 H   0  0  0  0  0  0  0  0  0  0  0  0
  152.6215  142.4400  158.6786 H   0  0  0  0  0  0  0  0  0  0  0  0
  152.9102  139.9367  158.6880 H   0  0  0  0  0  0  0  0  0  0  0  0
  151.2371  139.7395  159.1628 H   0  0  0  0  0  0  0  0  0  0  0  0
  147.8386  140.7992  156.0141 H   0  0  0  0  0  0  0  0  0  0  0  0
  147.9820  142.4352  155.3672 H   0  0  0  0  0  0  0  0  0  0  0  0
  144.9787  140.8053  154.0054 H   0  0  0  0  0  0  0  0  0  0  0  0
  147.0766  138.8385  154.0828 H   0  0  0  0  0  0  0  0  0  0  0  0
  147.0942  139.5412  152.4642 H   0  0  0  0  0  0  0  0  0  0  0  0
  149.3189  139.8006  152.6859 H   0  0  0  0  0  0  0  0  0  0  0  0
  149.2172  138.9173  154.0775 H   0  0  0  0  0  0  0  0  0  0  0  0
  1  2  1  0  0  0  0
  1 16  1  0  0  0  0
  1 17  1  0  0  0  0
  1 18  1  0  0  0  0
  2  3  1  0  0  0  0
  2 19  1  0  0  0  0
  2 20  1  0  0  0  0
  3 13  1  0  0  0  0
  3  4  2  0  0  0  0
  4  5  1  0  0  0  0
  5  6  1  0  0  0  0
  5 12  2  0  0  0  0
  6 14  1  0  0  0  0
  6 11  1  0  0  0  0
  6  7  1  0  0  0  0
  7  8  1  0  0  0  0
  7 21  1  0  0  0  0
  7 22  1  0  0  0  0
  8 15  1  0  0  0  0
  8  9  1  0  0  0  0
  8 10  1  0  0  0  0
  9 23  1  0  0  0  0
 10 11  1  0  0  0  0
 10 24  1  0  0  0  0
 10 25  1  0  0  0  0
 11 26  1  0  0  0  0
 11 27  1  0  0  0  0
 12 13  1  0  0  0  0
M  CHG  1  11   1
M  CHG  1  13  -1
M  END
> <s_m_source_file>
AV-unprocessed.smi

> <i_m_source_file_index>
49

> <i_lp_mmshare_version>
43012

> <i_f3d_flags>
0

> <s_epik_input>
W0NIM11bQ0gyXWMxbmMobltuSF0xKVtDQEBIXTJbQ0gyXVtDQEBIXShbT0hdKVtDSDJdW05IXTI=

> <s_epik_cmdline>
J2VwaWtfcHl0aG9uJywgJy1waCcsICc3LjAnLCAnLXRuJywgJzgnLCAnLW1hJywgJzIwMCcsICctbWV0YWxfYmluZGluZycsICctaW1hZScsICc8aW5maWxlLm1hZT4nLCAnLW9tYWUnLCAnPG91dGZpbGUubWFlPic=

> <r_lp_tautomer_probability>
0.948284

> <r_epik_Ionization_Penalty>
3.22013

> <r_epik_Ionization_Penalty_Charging>
3.22013

> <r_epik_Ionization_Penalty_Neutral>
3.9133e-08

> <r_epik_State_Penalty>
2.79459

> <r_epik_Charging_Adjusted_Penalty>
6.01472

> <i_epik_Tot_Q>
0

> <i_epik_Tot_abs_Q>
2

> <r_epik_Metal_State_Penalty>
0.589377

> <b_epik_Metal_Only>
1

> <s_lp_Force_Field>
OPLS_2005

> <r_lp_Energy>
9.52655

> <b_lp_Chiralities_Consistent>
1

> <s_lp_Variant>
AV-unprocessed.smi:49-23

> <Gold.Version>
5.8.1

> <Gold.Id.Protein>
6NUR|6NUR_protein|mol2

> <Gold.PLP.Fitness>
36.8070

> <Gold.PLP.PLP>
-22.5248

> <Gold.PLP.part.hbond>
-4.0000

> <Gold.PLP.part.metal>
0.0000

> <Gold.PLP.part.buried>
-1.5815

> <Gold.PLP.part.nonpolar>
-16.3016

> <Gold.PLP.part.repulsive>
0.2049

> <Gold.PLP.ligand.clash>
0.0000

> <Gold.PLP.ligand.torsion>
0.0305

> <Gold.PLP.Chemscore.Hbond>
4.7778

> <Gold.PLP.Chemscore.CHOScore>
0.0000

> <Gold.PLP.Chemscore.Metal>
0.0000

> <Gold.Chemscore.Hbonds>
donor molecule, donor type, donor heavy atom, donor atom, acceptor molecule, acceptor atom, score
      L1  H     9    23       P1 10175  1.00
      L1  H    11    26       P1  7957  1.00
      P1  H  7989  7998       L1    12  0.88
      P1  H  7997  8008       L1    13  1.89

> <Gold.PLP.Chemscore.Internal.Correction>
0.0097

> <Gold.Rescore>
     Score         DG    S(hbond)    S(metal)    S(lipo)     H(rot)  DE(clash)    DE(int)     intcor
     15.57     -15.73       3.08        0.00      40.34       1.86       0.13       0.03       ----

> <Gold.Chemscore.Fitness>
15.5685

> <Gold.Chemscore.DG>
-15.7324

> <Gold.Chemscore.ZeroCoef>
-5.4800

> <Gold.Chemscore.Hbond>
3.0797

> <Gold.Chemscore.Metal>
0.0000

> <Gold.Chemscore.Lipo>
40.3366

> <Gold.Chemscore.Internal_Hbond>
0.0000

> <Gold.Chemscore.DEClash>
0.1341

> <Gold.Chemscore.DEInternal>
0.0298

> <Gold.Chemscore.Rot>
1.8567

> <Gold.Chemscore.Internal.Correction>
   9.000000E+99

> <Gold.Chemscore.Hbonds>
donor molecule, donor type, donor heavy atom, donor atom, acceptor molecule, acceptor atom, score
      L1  H     9    23       P1 10175  0.90
      L1  H    11    26       P1  7957  0.97
      P1  H  7989  7998       L1    12  0.17
      P1  H  7997  8008       L1    13  0.87

> <Gold.Chemscore.Hbond.Weighted>
-10.2861

> <Gold.Chemscore.Metal.Weighted>
-0.0000

> <Gold.Chemscore.Lipo.Weighted>
-4.7194

> <Gold.Chemscore.Internal_Hbond.Weighted>
0.0000

> <Gold.Chemscore.DEClash.Weighted>
0.1341

> <Gold.Chemscore.DEInternal.Weighted>
0.0298

> <Gold.Chemscore.Rot.Weighted>
4.7531

> <Gold.Chemscore.Internal.Correction.Weighted>
   9.000000E+99

> <Gold.Protein.RotatedTorsions>
[ 6907 6896 6895 6894 ] final   93.41 input  -60.11 | X-H torsion
[ 7974 7965 7964 7962 ] final  146.10 input  175.53 | X-H torsion
[ 8008 7997 7996 7995 ] final  -40.17 input   59.86 | X-H torsion
[ 10167 10162 10161 10158 ] final  131.66 input  -65.29 | X-H torsion
[ 10718 10713 10712 10709 ] final  177.73 input   66.30 | X-H torsion
[ 10763 10752 10751 10750 ] final -169.11 input  -60.55 | X-H torsion
[ 11005 11000 10999 10996 ] final -159.71 input  -57.11 | X-H torsion

> <Gold.Protein.ActiveResidues>
 VAL166  LYS551  ARG553  GLY616  TRP617  ASP618  TYR619  PRO620  LYS621  CYS622 
 ASP623  PHE694  ASN695  SER759  ASP760  ASP761  ALA762  ILE779  LEU786  VAL792 
 PHE793  MET794  SER795  GLU796  ALA797  LYS798  CYS799  TRP800  GLU811  SER814 

> <Gold.Protein.RotatedAtoms>
  152.5452  134.1353  159.8455 H   0  0  0  0  0  0  0  0  0  0  0  0  # atno 6907 bound_to 6896
  151.1394  133.4974  159.2604 H   0  0  0  0  0  0  0  0  0  0  0  0  # atno 6908 bound_to 6896
  151.1589  135.0274  159.8756 H   0  0  0  0  0  0  0  0  0  0  0  0  # atno 6909 bound_to 6896
  144.8699  139.5863  143.5892 H   0  0  0  0  0  0  0  0  0  0  0  0  # atno 7974 bound_to 7965
  154.4015  140.1532  156.2983 H   0  0  0  0  0  0  0  0  0  0  0  0  # atno 8008 bound_to 7997
  155.8723  140.3448  155.5808 H   0  0  0  0  0  0  0  0  0  0  0  0  # atno 8009 bound_to 7997
  155.7760  140.0837  157.2074 H   0  0  0  0  0  0  0  0  0  0  0  0  # atno 8010 bound_to 7997
  139.5374  144.6696  151.4740 H   0  0  0  0  0  0  0  0  0  0  0  0  # atno 10167 bound_to 10162
  156.9011  130.9879  151.3035 H   0  0  0  0  0  0  0  0  0  0  0  0  # atno 10718 bound_to 10713
  154.6557  135.2917  154.9931 H   0  0  0  0  0  0  0  0  0  0  0  0  # atno 10763 bound_to 10752
  154.1008  135.6577  153.4872 H   0  0  0  0  0  0  0  0  0  0  0  0  # atno 10764 bound_to 10752
  153.0401  135.5242  154.7485 H   0  0  0  0  0  0  0  0  0  0  0  0  # atno 10765 bound_to 10752
  140.6395  134.4566  157.5233 H   0  0  0  0  0  0  0  0  0  0  0  0  # atno 11005 bound_to 11000
  146.2922  139.7173  142.9152 LP  0  0  0  0  0  0  0  0  0  0  0  0  # atno 17320 bound_to 7965
  145.4151  141.0400  143.2995 LP  0  0  0  0  0  0  0  0  0  0  0  0  # atno 17321 bound_to 7965
  140.6587  143.8545  150.6863 LP  0  0  0  0  0  0  0  0  0  0  0  0  # atno 17342 bound_to 10162
  140.1932  143.4019  152.1847 LP  0  0  0  0  0  0  0  0  0  0  0  0  # atno 17343 bound_to 10162
  157.6025  130.8523  149.8825 LP  0  0  0  0  0  0  0  0  0  0  0  0  # atno 17370 bound_to 10713
  156.0581  130.3704  150.1043 LP  0  0  0  0  0  0  0  0  0  0  0  0  # atno 17371 bound_to 10713
  139.9085  134.8395  156.1614 LP  0  0  0  0  0  0  0  0  0  0  0  0  # atno 17394 bound_to 11000
  141.0617  133.6838  156.1965 LP  0  0  0  0  0  0  0  0  0  0  0  0  # atno 17395 bound_to 11000

$$$$
