AV-unprocessed.smi:273|AV-procd|sdf|2054|dock4
  -GOLD-   2262021293D 1   1.00000     0.00000
 Structure written by MMmdl.
 59 62  0  0  0  0  0  0  0  0  1 V2000
  151.1348  144.5468  159.3545 C   0  0  0  0  0  0  0  0  0  0  0  0
  151.8793  144.2579  158.0474 C   0  0  0  0  0  0  0  0  0  0  0  0
  151.0245  143.5276  157.1224 N   0  0  0  0  0  0  0  0  0  0  0  0
  150.7267  142.2227  157.2270 C   0  0  0  0  0  0  0  0  0  0  0  0
  151.1597  141.5182  158.1391 O   0  0  0  0  0  0  0  0  0  0  0  0
  149.8005  141.5998  156.1653 C   0  0  0  0  0  0  0  0  0  0  0  0
  148.4896  141.0920  156.8024 C   0  0  0  0  0  0  0  0  0  0  0  0
  147.5454  140.4958  155.7454 C   0  0  0  0  0  0  0  0  0  0  0  0
  148.2221  139.4628  154.9597 N   0  0  0  0  0  0  0  0  0  0  0  0
  147.4531  138.6164  154.2274 C   0  0  0  0  0  0  0  0  0  0  0  0
  146.8998  139.0422  153.0600 N   0  0  0  0  0  0  0  0  0  0  0  0
  146.1457  138.2171  152.3281 C   0  0  0  0  0  0  0  0  0  0  0  0
  145.8184  136.9476  152.5744 N   0  0  0  0  0  0  0  0  0  0  0  0
  146.3626  136.5150  153.7472 C   0  0  0  0  0  0  0  0  0  0  0  0
  147.1845  137.2757  154.6265 C   0  0  0  0  0  0  0  0  0  0  0  0
  147.5394  136.5022  155.7258 N   0  0  0  0  0  0  0  0  0  0  0  0
  146.9724  135.3484  155.5025 C   0  0  0  0  0  0  0  0  0  0  0  0
  146.2290  135.2741  154.3465 N   0  0  0  0  0  0  0  0  0  0  0  0
  145.4996  134.1179  153.8533 C   0  0  0  0  0  0  0  0  0  0  0  0
  144.8412  134.3199  152.4637 C   0  0  2  0  0  0  0  0  0  0  0  0
  143.4236  134.9096  152.6487 C   0  0  0  0  0  0  0  0  0  0  0  0
  142.4754  133.9054  152.9479 O   0  0  0  0  0  0  0  0  0  0  0  0
  144.8371  133.0497  151.5630 C   0  0  2  0  0  0  0  0  0  0  0  0
  146.1911  132.5963  151.0395 C   0  0  0  0  0  0  0  0  0  0  0  0
  145.8204  131.7132  149.8530 C   0  0  0  0  0  0  0  0  0  0  0  0
  144.5868  132.2186  149.3584 O   0  0  0  0  0  0  0  0  0  0  0  0
  144.0902  133.2225  150.2351 C   0  0  0  0  0  0  0  0  0  0  0  0
  149.4582  139.8953  154.3098 C   0  0  0  0  0  0  0  0  0  0  0  0
  150.4472  140.4616  155.3405 C   0  0  0  0  0  0  0  0  0  0  0  0
  151.7741  145.0870  160.0529 H   0  0  0  0  0  0  0  0  0  0  0  0
  150.8172  143.6238  159.8406 H   0  0  0  0  0  0  0  0  0  0  0  0
  150.2479  145.1559  159.1766 H   0  0  0  0  0  0  0  0  0  0  0  0
  152.2015  145.1946  157.5899 H   0  0  0  0  0  0  0  0  0  0  0  0
  152.7763  143.6714  158.2508 H   0  0  0  0  0  0  0  0  0  0  0  0
  150.6349  144.0454  156.3481 H   0  0  0  0  0  0  0  0  0  0  0  0
  149.5483  142.4069  155.4757 H   0  0  0  0  0  0  0  0  0  0  0  0
  148.7149  140.3316  157.5521 H   0  0  0  0  0  0  0  0  0  0  0  0
  147.9764  141.8997  157.3259 H   0  0  0  0  0  0  0  0  0  0  0  0
  146.6698  140.0769  156.2434 H   0  0  0  0  0  0  0  0  0  0  0  0
  147.1914  141.2820  155.0769 H   0  0  0  0  0  0  0  0  0  0  0  0
  145.7471  138.6344  151.4151 H   0  0  0  0  0  0  0  0  0  0  0  0
  147.0736  134.5178  156.1857 H   0  0  0  0  0  0  0  0  0  0  0  0
  146.1710  133.2590  153.8278 H   0  0  0  0  0  0  0  0  0  0  0  0
  144.7365  133.8846  154.5966 H   0  0  0  0  0  0  0  0  0  0  0  0
  145.4123  135.0872  151.9397 H   0  0  0  0  0  0  0  0  0  0  0  0
  143.4195  135.6414  153.4572 H   0  0  0  0  0  0  0  0  0  0  0  0
  143.0995  135.4449  151.7565 H   0  0  0  0  0  0  0  0  0  0  0  0
  142.8492  133.3190  153.5880 H   0  0  0  0  0  0  0  0  0  0  0  0
  144.3839  132.2195  152.1071 H   0  0  0  0  0  0  0  0  0  0  0  0
  146.7760  133.4522  150.6999 H   0  0  0  0  0  0  0  0  0  0  0  0
  146.7800  132.0466  151.7720 H   0  0  0  0  0  0  0  0  0  0  0  0
  146.5897  131.7144  149.0807 H   0  0  0  0  0  0  0  0  0  0  0  0
  145.6670  130.6834  150.1771 H   0  0  0  0  0  0  0  0  0  0  0  0
  143.0093  133.1362  150.3475 H   0  0  0  0  0  0  0  0  0  0  0  0
  144.3075  134.1966  149.7946 H   0  0  0  0  0  0  0  0  0  0  0  0
  149.9350  139.0815  153.7656 H   0  0  0  0  0  0  0  0  0  0  0  0
  149.2147  140.6603  153.5713 H   0  0  0  0  0  0  0  0  0  0  0  0
  151.3370  140.8210  154.8219 H   0  0  0  0  0  0  0  0  0  0  0  0
  150.7710  139.6543  155.9996 H   0  0  0  0  0  0  0  0  0  0  0  0
  1  2  1  0  0  0  0
  1 30  1  0  0  0  0
  1 31  1  0  0  0  0
  1 32  1  0  0  0  0
  2  3  1  0  0  0  0
  2 33  1  0  0  0  0
  2 34  1  0  0  0  0
  3  4  1  0  0  0  0
  3 35  1  0  0  0  0
  4  5  2  0  0  0  0
  4  6  1  0  0  0  0
  6 29  1  0  0  0  0
  6  7  1  0  0  0  0
  6 36  1  0  0  0  0
  7  8  1  0  0  0  0
  7 37  1  0  0  0  0
  7 38  1  0  0  0  0
  8  9  1  0  0  0  0
  8 39  1  0  0  0  0
  8 40  1  0  0  0  0
  9 10  1  0  0  0  0
  9 28  1  0  0  0  0
 10 15  1  0  0  0  0
 10 11  2  0  0  0  0
 11 12  1  0  0  0  0
 12 13  2  0  0  0  0
 12 41  1  0  0  0  0
 13 14  1  0  0  0  0
 14 18  1  0  0  0  0
 14 15  2  0  0  0  0
 15 16  1  0  0  0  0
 16 17  2  0  0  0  0
 17 18  1  0  0  0  0
 17 42  1  0  0  0  0
 18 19  1  0  0  0  0
 19 20  1  0  0  0  0
 19 43  1  0  0  0  0
 19 44  1  0  0  0  0
 20 21  1  0  0  0  0
 20 23  1  0  0  0  0
 20 45  1  0  0  0  0
 21 22  1  0  0  0  0
 21 46  1  0  0  0  0
 21 47  1  0  0  0  0
 22 48  1  0  0  0  0
 23 27  1  0  0  0  0
 23 24  1  0  0  0  0
 23 49  1  0  0  0  0
 24 25  1  0  0  0  0
 24 50  1  0  0  0  0
 24 51  1  0  0  0  0
 25 26  1  0  0  0  0
 25 52  1  0  0  0  0
 25 53  1  0  0  0  0
 26 27  1  0  0  0  0
 27 54  1  0  0  0  0
 27 55  1  0  0  0  0
 28 29  1  0  0  0  0
 28 56  1  0  0  0  0
 28 57  1  0  0  0  0
 29 58  1  0  0  0  0
 29 59  1  0  0  0  0
M  END
> <s_m_source_file>
AV-unprocessed.smi

> <i_m_source_file_index>
273

> <i_lp_mmshare_version>
43012

> <i_f3d_flags>
0

> <s_epik_input>
W0NIM11bQ0gyXVtOSF1DKD1PKVtDSF0xW0NIMl1bQ0gyXU4oW0NIMl1bQ0gyXTEpYyhuW2NIXW4yKWMoYzIzKW5bY0hdbjNbQ0gyXVtDQEhdKFtDSDJdW09IXSlbQ0BASF00W0NIMl1bQ0gyXU9bQ0gyXTQ=

> <s_epik_cmdline>
J2VwaWtfcHl0aG9uJywgJy1waCcsICc3LjAnLCAnLXRuJywgJzgnLCAnLW1hJywgJzIwMCcsICctbWV0YWxfYmluZGluZycsICctaW1hZScsICc8aW5maWxlLm1hZT4nLCAnLW9tYWUnLCAnPG91dGZpbGUubWFlPic=

> <r_lp_tautomer_probability>
1

> <r_epik_Ionization_Penalty>
0.00226556

> <r_epik_Ionization_Penalty_Charging>
0

> <r_epik_Ionization_Penalty_Neutral>
0.00226556

> <r_epik_State_Penalty>
0.00139883

> <r_epik_Charging_Adjusted_Penalty>
0.00139883

> <i_epik_Tot_Q>
0

> <i_epik_Tot_abs_Q>
0

> <r_epik_Metal_State_Penalty>
-0

> <b_epik_Metal_Only>
0

> <s_lp_Force_Field>
OPLS_2005

> <r_lp_Energy>
46.1121

> <b_lp_Chiralities_Consistent>
1

> <s_lp_Variant>
AV-unprocessed.smi:273-1

> <Gold.Version>
5.8.1

> <Gold.Id.Protein>
6NUR|6NUR_protein|mol2

> <Gold.PLP.Fitness>
49.0707

> <Gold.PLP.PLP>
-42.1830

> <Gold.PLP.part.hbond>
-2.2088

> <Gold.PLP.part.metal>
0.0000

> <Gold.PLP.part.buried>
-6.7077

> <Gold.PLP.part.nonpolar>
-35.3531

> <Gold.PLP.part.repulsive>
0.7902

> <Gold.PLP.ligand.clash>
0.0000

> <Gold.PLP.ligand.torsion>
1.0349

> <Gold.PLP.Chemscore.Hbond>
1.7840

> <Gold.PLP.Chemscore.CHOScore>
1.0000

> <Gold.PLP.Chemscore.Metal>
0.0000

> <Gold.Chemscore.Hbonds>
donor molecule, donor type, donor heavy atom, donor atom, acceptor molecule, acceptor atom, score
      L1  H     3    35       P1  8028  0.83
      L1  H    22    48       P1 10957  0.98
      L1  C    12    41       P1 10171  1.00

> <Gold.PLP.Chemscore.Internal.Correction>
0.6055

> <Gold.Rescore>
     Score         DG    S(hbond)    S(metal)    S(lipo)     H(rot)  DE(clash)    DE(int)     intcor
     12.11     -14.59       1.93        0.00      93.24       3.22       0.00       2.48       ----

> <Gold.Chemscore.Fitness>
12.1112

> <Gold.Chemscore.DG>
-14.5901

> <Gold.Chemscore.ZeroCoef>
-5.4800

> <Gold.Chemscore.Hbond>
1.9326

> <Gold.Chemscore.Metal>
0.0000

> <Gold.Chemscore.Lipo>
93.2445

> <Gold.Chemscore.Internal_Hbond>
0.0000

> <Gold.Chemscore.DEClash>
0.0000

> <Gold.Chemscore.DEInternal>
2.4789

> <Gold.Chemscore.Rot>
3.2244

> <Gold.Chemscore.Internal.Correction>
   9.000000E+99

> <Gold.Chemscore.Hbonds>
donor molecule, donor type, donor heavy atom, donor atom, acceptor molecule, acceptor atom, score
      L1  H     3    35       P1  8028  0.81
      L1  H    22    48       P1 10957  0.91

> <Gold.Chemscore.Hbond.Weighted>
-6.4550

> <Gold.Chemscore.Metal.Weighted>
-0.0000

> <Gold.Chemscore.Lipo.Weighted>
-10.9096

> <Gold.Chemscore.Internal_Hbond.Weighted>
0.0000

> <Gold.Chemscore.DEClash.Weighted>
0.0000

> <Gold.Chemscore.DEInternal.Weighted>
2.4789

> <Gold.Chemscore.Rot.Weighted>
8.2545

> <Gold.Chemscore.Internal.Correction.Weighted>
   9.000000E+99

> <Gold.Protein.RotatedTorsions>
[ 6907 6896 6895 6894 ] final -142.64 input  -60.11 | X-H torsion
[ 7974 7965 7964 7962 ] final  153.75 input  175.53 | X-H torsion
[ 8008 7997 7996 7995 ] final  -91.80 input   59.86 | X-H torsion
[ 10167 10162 10161 10158 ] final  -66.24 input  -65.29 | X-H torsion
[ 10718 10713 10712 10709 ] final   71.21 input   66.30 | X-H torsion
[ 10763 10752 10751 10750 ] final  -98.28 input  -60.55 | X-H torsion
[ 11005 11000 10999 10996 ] final -117.53 input  -57.11 | X-H torsion

> <Gold.Protein.ActiveResidues>
 VAL166  LYS551  ARG553  GLY616  TRP617  ASP618  TYR619  PRO620  LYS621  CYS622 
 ASP623  PHE694  ASN695  SER759  ASP760  ASP761  ALA762  ILE779  LEU786  VAL792 
 PHE793  MET794  SER795  GLU796  ALA797  LYS798  CYS799  TRP800  GLU811  SER814 

> <Gold.Protein.RotatedAtoms>
  151.0898  133.5325  159.2615 H   0  0  0  0  0  0  0  0  0  0  0  0  # atno 6907 bound_to 6896
  151.2196  135.0513  159.8954 H   0  0  0  0  0  0  0  0  0  0  0  0  # atno 6908 bound_to 6896
  152.5433  134.0702  159.8244 H   0  0  0  0  0  0  0  0  0  0  0  0  # atno 6909 bound_to 6896
  144.8134  139.6842  143.6132 H   0  0  0  0  0  0  0  0  0  0  0  0  # atno 7974 bound_to 7965
  154.7152  140.0515  157.0588 H   0  0  0  0  0  0  0  0  0  0  0  0  # atno 8008 bound_to 7997
  155.0501  140.3178  155.4676 H   0  0  0  0  0  0  0  0  0  0  0  0  # atno 8009 bound_to 7997
  156.2801  140.2117  156.5627 H   0  0  0  0  0  0  0  0  0  0  0  0  # atno 8010 bound_to 7997
  140.5671  143.2315  151.6612 H   0  0  0  0  0  0  0  0  0  0  0  0  # atno 10167 bound_to 10162
  157.6440  130.9517  150.0758 H   0  0  0  0  0  0  0  0  0  0  0  0  # atno 10718 bound_to 10713
  154.7401  135.5015  153.9108 H   0  0  0  0  0  0  0  0  0  0  0  0  # atno 10763 bound_to 10752
  153.1034  135.6691  153.9638 H   0  0  0  0  0  0  0  0  0  0  0  0  # atno 10764 bound_to 10752
  153.9418  135.3067  155.3421 H   0  0  0  0  0  0  0  0  0  0  0  0  # atno 10765 bound_to 10752
  141.0348  133.9926  157.3087 H   0  0  0  0  0  0  0  0  0  0  0  0  # atno 11005 bound_to 11000
  146.2435  139.6049  142.9475 LP  0  0  0  0  0  0  0  0  0  0  0  0  # atno 17320 bound_to 7965
  145.5271  141.0429  143.2403 LP  0  0  0  0  0  0  0  0  0  0  0  0  # atno 17321 bound_to 7965
  139.5099  144.3562  152.0605 LP  0  0  0  0  0  0  0  0  0  0  0  0  # atno 17342 bound_to 10162
  140.2695  144.3979  150.6156 LP  0  0  0  0  0  0  0  0  0  0  0  0  # atno 17343 bound_to 10162
  156.1748  130.3648  149.9115 LP  0  0  0  0  0  0  0  0  0  0  0  0  # atno 17370 bound_to 10713
  156.7081  130.8959  151.3606 LP  0  0  0  0  0  0  0  0  0  0  0  0  # atno 17371 bound_to 10713
  139.9233  135.0201  156.8144 LP  0  0  0  0  0  0  0  0  0  0  0  0  # atno 17394 bound_to 11000
  140.6342  133.9878  155.7676 LP  0  0  0  0  0  0  0  0  0  0  0  0  # atno 17395 bound_to 11000

$$$$
