AV-unprocessed.smi:468|AV-procd|sdf|2652|dock8
  -GOLD-   2262023 63D 1   1.00000     0.00000
 Structure written by MMmdl.
 49 50  0  0  0  0  0  0  0  0  2 V2000
  151.0070  133.1680  157.1851 C   0  0  0  0  0  0  0  0  0  0  0  0
  150.0564  133.7427  158.0629 O   0  0  0  0  0  0  0  0  0  0  0  0
  149.5122  134.9534  157.5654 C   0  0  0  0  0  0  0  0  0  0  0  0
  148.2070  135.2721  158.3131 C   0  0  0  0  0  0  0  0  0  0  0  0
  148.3475  136.4093  159.2377 N   0  0  0  0  0  0  0  0  0  0  0  0
  147.9932  136.2950  160.5452 C   0  0  0  0  0  0  0  0  0  0  0  0
  148.1951  137.2038  161.3530 O   0  0  0  0  0  0  0  0  0  0  0  0
  147.2769  135.0119  161.0273 C   0  0  0  0  0  0  0  0  0  0  0  0
  145.7348  135.0579  161.0281 C   0  0  0  0  0  0  0  0  0  0  0  0
  145.7599  134.3891  162.4050 C   0  0  0  0  0  0  0  0  0  0  0  0
  147.2037  134.8744  162.5572 C   0  0  0  0  0  0  0  0  0  0  0  0
  148.9055  137.5898  158.7121 C   0  0  0  0  0  0  0  0  0  0  0  0
  148.2034  138.4392  157.9150 C   0  0  0  0  0  0  0  0  0  0  0  0
  146.8862  138.1709  157.5706 N   0  0  0  0  0  0  0  0  0  0  0  0
  148.8195  139.6184  157.4154 N   0  0  0  0  0  0  0  0  0  0  0  0
  148.0321  140.5164  156.5387 C   0  0  0  0  0  0  0  0  0  0  0  0
  148.3475  140.3348  155.0334 C   0  0  0  0  0  0  0  0  0  0  0  0
  149.8024  140.6815  154.6747 C   0  0  0  0  0  0  0  0  0  0  0  0
  147.3728  141.1570  154.1775 C   0  0  0  0  0  0  0  0  0  0  0  0
  150.1170  139.9172  157.7366 C   0  0  0  0  0  0  0  0  0  0  0  0
  150.6315  140.9413  157.2856 O   0  0  0  0  0  0  0  0  0  0  0  0
  150.8126  139.0680  158.5458 N   0  5  0  0  0  0  0  0  0  0  0  0
  150.2916  137.9219  159.0572 C   0  0  0  0  0  0  0  0  0  0  0  0
  150.9404  137.1771  159.7924 O   0  0  0  0  0  0  0  0  0  0  0  0
  151.3875  132.2421  157.6161 H   0  0  0  0  0  0  0  0  0  0  0  0
  151.8530  133.8381  157.0277 H   0  0  0  0  0  0  0  0  0  0  0  0
  150.5601  132.9326  156.2185 H   0  0  0  0  0  0  0  0  0  0  0  0
  150.2279  135.7710  157.6640 H   0  0  0  0  0  0  0  0  0  0  0  0
  149.3002  134.8358  156.5018 H   0  0  0  0  0  0  0  0  0  0  0  0
  147.4155  135.4834  157.5921 H   0  0  0  0  0  0  0  0  0  0  0  0
  147.8714  134.3820  158.8478 H   0  0  0  0  0  0  0  0  0  0  0  0
  147.6254  134.0965  160.5464 H   0  0  0  0  0  0  0  0  0  0  0  0
  145.2974  136.0567  161.0647 H   0  0  0  0  0  0  0  0  0  0  0  0
  145.2679  134.4513  160.2517 H   0  0  0  0  0  0  0  0  0  0  0  0
  145.0598  134.8075  163.1287 H   0  0  0  0  0  0  0  0  0  0  0  0
  145.6845  133.3020  162.3476 H   0  0  0  0  0  0  0  0  0  0  0  0
  147.8802  134.1279  162.9744 H   0  0  0  0  0  0  0  0  0  0  0  0
  147.2794  135.8248  163.0885 H   0  0  0  0  0  0  0  0  0  0  0  0
  146.4192  137.3397  157.9035 H   0  0  0  0  0  0  0  0  0  0  0  0
  146.4434  138.6494  156.7996 H   0  0  0  0  0  0  0  0  0  0  0  0
  146.9689  140.3503  156.7162 H   0  0  0  0  0  0  0  0  0  0  0  0
  148.1655  141.5654  156.8068 H   0  0  0  0  0  0  0  0  0  0  0  0
  148.1937  139.2878  154.7719 H   0  0  0  0  0  0  0  0  0  0  0  0
  150.0450  141.7075  154.9525 H   0  0  0  0  0  0  0  0  0  0  0  0
  149.9791  140.5756  153.6041 H   0  0  0  0  0  0  0  0  0  0  0  0
  150.5071  140.0222  155.1816 H   0  0  0  0  0  0  0  0  0  0  0  0
  147.4786  142.2248  154.3727 H   0  0  0  0  0  0  0  0  0  0  0  0
  146.3386  140.8810  154.3847 H   0  0  0  0  0  0  0  0  0  0  0  0
  147.5483  140.9938  153.1138 H   0  0  0  0  0  0  0  0  0  0  0  0
  1  2  1  0  0  0  0
  1 25  1  0  0  0  0
  1 26  1  0  0  0  0
  1 27  1  0  0  0  0
  2  3  1  0  0  0  0
  3  4  1  0  0  0  0
  3 28  1  0  0  0  0
  3 29  1  0  0  0  0
  4  5  1  0  0  0  0
  4 30  1  0  0  0  0
  4 31  1  0  0  0  0
  5  6  1  0  0  0  0
  5 12  1  0  0  0  0
  6  7  2  0  0  0  0
  6  8  1  0  0  0  0
  8 11  1  0  0  0  0
  8  9  1  0  0  0  0
  8 32  1  0  0  0  0
  9 10  1  0  0  0  0
  9 33  1  0  0  0  0
  9 34  1  0  0  0  0
 10 11  1  0  0  0  0
 10 35  1  0  0  0  0
 10 36  1  0  0  0  0
 11 37  1  0  0  0  0
 11 38  1  0  0  0  0
 12 23  1  0  0  0  0
 12 13  2  0  0  0  0
 13 14  1  0  0  0  0
 13 15  1  0  0  0  0
 14 39  1  0  0  0  0
 14 40  1  0  0  0  0
 15 16  1  0  0  0  0
 15 20  1  0  0  0  0
 16 17  1  0  0  0  0
 16 41  1  0  0  0  0
 16 42  1  0  0  0  0
 17 18  1  0  0  0  0
 17 19  1  0  0  0  0
 17 43  1  0  0  0  0
 18 44  1  0  0  0  0
 18 45  1  0  0  0  0
 18 46  1  0  0  0  0
 19 47  1  0  0  0  0
 19 48  1  0  0  0  0
 19 49  1  0  0  0  0
 20 21  2  0  0  0  0
 20 22  1  0  0  0  0
 22 23  1  0  0  0  0
 23 24  2  0  0  0  0
M  CHG  1  22  -1
M  END
> <s_m_source_file>
AV-unprocessed.smi

> <i_m_source_file_index>
468

> <i_lp_mmshare_version>
43012

> <i_f3d_flags>
0

> <s_epik_input>
W0NIMl0xW0NIMl1bQ0gyXVtDSF0xQyg9TylOKFtDSDJdW0NIMl1PW0NIM10pYzJjKFtOSDJdKW4oW0NIMl1bQ0hdKFtDSDNdKVtDSDNdKWMoPU8pW25IXWMyPU8=

> <s_epik_cmdline>
J2VwaWtfcHl0aG9uJywgJy1waCcsICc3LjAnLCAnLXRuJywgJzgnLCAnLW1hJywgJzIwMCcsICctbWV0YWxfYmluZGluZycsICctaW1hZScsICc8aW5maWxlLm1hZT4nLCAnLW9tYWUnLCAnPG91dGZpbGUubWFlPic=

> <r_lp_tautomer_probability>
1

> <r_epik_Ionization_Penalty>
5.91772

> <r_epik_Ionization_Penalty_Charging>
1.97379e-07

> <r_epik_Ionization_Penalty_Neutral>
5.91772

> <r_epik_State_Penalty>
5.91769

> <r_epik_Charging_Adjusted_Penalty>
5.91769

> <i_epik_Tot_Q>
-1

> <i_epik_Tot_abs_Q>
1

> <r_epik_Metal_State_Penalty>
1.85156

> <b_epik_Metal_Only>
1

> <s_lp_Force_Field>
OPLS_2005

> <r_lp_Energy>
46.8311

> <b_lp_Chiralities_Consistent>
1

> <s_lp_Variant>
AV-unprocessed.smi:468-2

> <Gold.Version>
5.8.1

> <Gold.Id.Protein>
6NUR|6NUR_protein|mol2

> <Gold.PLP.Fitness>
38.7960

> <Gold.PLP.PLP>
-31.5041

> <Gold.PLP.part.hbond>
-3.8784

> <Gold.PLP.part.metal>
0.0000

> <Gold.PLP.part.buried>
-5.2729

> <Gold.PLP.part.nonpolar>
-23.0422

> <Gold.PLP.part.repulsive>
0.0892

> <Gold.PLP.ligand.clash>
0.0000

> <Gold.PLP.ligand.torsion>
2.6954

> <Gold.PLP.Chemscore.Hbond>
3.3173

> <Gold.PLP.Chemscore.CHOScore>
0.0000

> <Gold.PLP.Chemscore.Metal>
0.0000

> <Gold.Chemscore.Hbonds>
donor molecule, donor type, donor heavy atom, donor atom, acceptor molecule, acceptor atom, score
      P1  H  6896  6907       L1    24  0.86
      P1  H  6896  6909       L1     2  0.63
      P1  H  6931  6943       L1     7  0.80
      P1  H  6934  6947       L1     7  0.47

> <Gold.PLP.Chemscore.Internal.Correction>
2.7309

> <Gold.Rescore>
     Score         DG    S(hbond)    S(metal)    S(lipo)     H(rot)  DE(clash)    DE(int)     intcor
     12.66     -15.31       2.63        0.00      53.55       2.04       0.07       2.58       ----

> <Gold.Chemscore.Fitness>
12.6634

> <Gold.Chemscore.DG>
-15.3147

> <Gold.Chemscore.ZeroCoef>
-5.4800

> <Gold.Chemscore.Hbond>
2.6294

> <Gold.Chemscore.Metal>
0.0000

> <Gold.Chemscore.Lipo>
53.5472

> <Gold.Chemscore.Internal_Hbond>
0.0000

> <Gold.Chemscore.DEClash>
0.0669

> <Gold.Chemscore.DEInternal>
2.5844

> <Gold.Chemscore.Rot>
2.0362

> <Gold.Chemscore.Internal.Correction>
   9.000000E+99

> <Gold.Chemscore.Hbonds>
donor molecule, donor type, donor heavy atom, donor atom, acceptor molecule, acceptor atom, score
      P1  H  6896  6907       L1    24  0.84
      P1  H  6896  6909       L1     2  0.12
      P1  H  6931  6943       L1     7  0.78
      P1  H  6934  6947       L1     7  0.42

> <Gold.Chemscore.Hbond.Weighted>
-8.7823

> <Gold.Chemscore.Metal.Weighted>
-0.0000

> <Gold.Chemscore.Lipo.Weighted>
-6.2650

> <Gold.Chemscore.Internal_Hbond.Weighted>
0.0000

> <Gold.Chemscore.DEClash.Weighted>
0.0669

> <Gold.Chemscore.DEInternal.Weighted>
2.5844

> <Gold.Chemscore.Rot.Weighted>
5.2126

> <Gold.Chemscore.Internal.Correction.Weighted>
   9.000000E+99

> <Gold.Protein.RotatedTorsions>
[ 6907 6896 6895 6894 ] final   -4.51 input  -60.11 | X-H torsion
[ 7974 7965 7964 7962 ] final  136.40 input  175.53 | X-H torsion
[ 8008 7997 7996 7995 ] final   16.07 input   59.86 | X-H torsion
[ 10167 10162 10161 10158 ] final   64.12 input  -65.29 | X-H torsion
[ 10718 10713 10712 10709 ] final  -71.57 input   66.30 | X-H torsion
[ 10763 10752 10751 10750 ] final   76.63 input  -60.55 | X-H torsion
[ 11005 11000 10999 10996 ] final   79.84 input  -57.11 | X-H torsion

> <Gold.Protein.ActiveResidues>
 VAL166  LYS551  ARG553  GLY616  TRP617  ASP618  TYR619  PRO620  LYS621  CYS622 
 ASP623  PHE694  ASN695  SER759  ASP760  ASP761  ALA762  ILE779  LEU786  VAL792 
 PHE793  MET794  SER795  GLU796  ALA797  LYS798  CYS799  TRP800  GLU811  SER814 

> <Gold.Protein.RotatedAtoms>
  151.4965  135.1060  159.9817 H   0  0  0  0  0  0  0  0  0  0  0  0  # atno 6907 bound_to 6896
  152.4719  133.8046  159.6981 H   0  0  0  0  0  0  0  0  0  0  0  0  # atno 6908 bound_to 6896
  150.8734  133.7411  159.2980 H   0  0  0  0  0  0  0  0  0  0  0  0  # atno 6909 bound_to 6896
  144.9568  139.4755  143.5499 H   0  0  0  0  0  0  0  0  0  0  0  0  # atno 7974 bound_to 7965
  154.8717  140.2960  155.5477 H   0  0  0  0  0  0  0  0  0  0  0  0  # atno 8008 bound_to 7997
  156.3021  140.2459  156.3640 H   0  0  0  0  0  0  0  0  0  0  0  0  # atno 8009 bound_to 7997
  154.8809  140.0398  157.1771 H   0  0  0  0  0  0  0  0  0  0  0  0  # atno 8010 bound_to 7997
  140.1256  144.4691  150.6895 H   0  0  0  0  0  0  0  0  0  0  0  0  # atno 10167 bound_to 10162
  156.0357  130.4354  150.2464 H   0  0  0  0  0  0  0  0  0  0  0  0  # atno 10718 bound_to 10713
  153.0739  135.4944  154.8364 H   0  0  0  0  0  0  0  0  0  0  0  0  # atno 10763 bound_to 10752
  154.7061  135.3011  154.9270 H   0  0  0  0  0  0  0  0  0  0  0  0  # atno 10764 bound_to 10752
  153.9979  135.6770  153.4810 H   0  0  0  0  0  0  0  0  0  0  0  0  # atno 10765 bound_to 10752
  139.9157  134.7874  156.1831 H   0  0  0  0  0  0  0  0  0  0  0  0  # atno 11005 bound_to 11000
  146.3340  139.8691  142.8843 LP  0  0  0  0  0  0  0  0  0  0  0  0  # atno 17320 bound_to 7965
  145.2760  141.0124  143.3744 LP  0  0  0  0  0  0  0  0  0  0  0  0  # atno 17321 bound_to 7965
  140.6847  143.2344  151.5292 LP  0  0  0  0  0  0  0  0  0  0  0  0  # atno 17342 bound_to 10162
  139.5546  144.2308  152.1590 LP  0  0  0  0  0  0  0  0  0  0  0  0  # atno 17343 bound_to 10162
  157.0563  131.0077  151.3237 LP  0  0  0  0  0  0  0  0  0  0  0  0  # atno 17370 bound_to 10713
  157.5103  130.7934  149.7698 LP  0  0  0  0  0  0  0  0  0  0  0  0  # atno 17371 bound_to 10713
  141.0630  133.6832  156.1989 LP  0  0  0  0  0  0  0  0  0  0  0  0  # atno 17394 bound_to 11000
  140.6630  134.4947  157.5584 LP  0  0  0  0  0  0  0  0  0  0  0  0  # atno 17395 bound_to 11000

$$$$
