AV-unprocessed.smi:249|AV-procd|sdf|1908|dock2
  -GOLD-   2262020593D 1   1.00000     0.00000
 Structure written by MMmdl.
 64 67  0  0  0  0  0  0  0  0  2 V2000
  146.1575  129.8142  151.8617 C   0  0  0  0  0  0  0  0  0  0  0  0
  144.9671  130.7340  151.5447 C   0  0  0  0  0  0  0  0  0  0  0  0
  145.3650  132.1292  151.1971 N   0  3  2  0  0  0  0  0  0  0  0  0
  146.1101  132.7851  152.3101 C   0  0  0  0  0  0  0  0  0  0  0  0
  146.5910  134.1961  151.9371 C   0  0  0  0  0  0  0  0  0  0  0  0
  145.4150  135.1063  151.5261 C   0  0  2  0  0  0  0  0  0  0  0  0
  144.4859  135.4149  152.6262 N   0  0  0  0  0  0  0  0  0  0  0  0
  143.1053  135.7291  152.2735 C   0  0  0  0  0  0  0  0  0  0  0  0
  144.9406  136.2735  153.5658 C   0  0  0  0  0  0  0  0  0  0  0  0
  144.5630  136.0460  154.8477 N   0  0  0  0  0  0  0  0  0  0  0  0
  145.0000  136.8484  155.8231 C   0  0  0  0  0  0  0  0  0  0  0  0
  145.8083  137.9069  155.7340 N   0  0  0  0  0  0  0  0  0  0  0  0
  146.1809  138.1412  154.4430 C   0  0  0  0  0  0  0  0  0  0  0  0
  145.7869  137.3868  153.3033 C   0  0  0  0  0  0  0  0  0  0  0  0
  146.3494  137.9299  152.1548 N   0  0  0  0  0  0  0  0  0  0  0  0
  147.0493  138.9410  152.5923 C   0  0  0  0  0  0  0  0  0  0  0  0
  147.0277  139.1218  153.9574 N   0  0  0  0  0  0  0  0  0  0  0  0
  147.7242  140.1510  154.7075 C   0  0  0  0  0  0  0  0  0  0  0  0
  148.3367  139.6745  156.0551 C   0  0  2  0  0  0  0  0  0  0  0  0
  148.1024  140.7645  157.1297 C   0  0  0  0  0  0  0  0  0  0  0  0
  148.4364  142.0486  156.6439 O   0  0  0  0  0  0  0  0  0  0  0  0
  149.8443  139.2897  155.9451 C   0  0  1  0  0  0  0  0  0  0  0  0
  150.1869  138.3308  154.8140 C   0  0  0  0  0  0  0  0  0  0  0  0
  151.6906  138.5149  154.6724 C   0  0  0  0  0  0  0  0  0  0  0  0
  151.8955  139.9036  154.8744 O   0  0  0  0  0  0  0  0  0  0  0  0
  150.8093  140.4450  155.6206 C   0  0  0  0  0  0  0  0  0  0  0  0
  144.7124  134.4014  150.3515 C   0  0  0  0  0  0  0  0  0  0  0  0
  144.2269  132.9773  150.7111 C   0  0  1  0  0  0  0  0  0  0  0  0
  143.5090  132.3793  149.4833 C   0  0  0  0  0  0  0  0  0  0  0  0
  145.8258  128.7788  151.9431 H   0  0  0  0  0  0  0  0  0  0  0  0
  146.6351  130.0649  152.8084 H   0  0  0  0  0  0  0  0  0  0  0  0
  146.9115  129.8557  151.0751 H   0  0  0  0  0  0  0  0  0  0  0  0
  144.4494  130.2695  150.7086 H   0  0  0  0  0  0  0  0  0  0  0  0
  144.2637  130.7449  152.3783 H   0  0  0  0  0  0  0  0  0  0  0  0
  145.4789  132.8215  153.1990 H   0  0  0  0  0  0  0  0  0  0  0  0
  146.9898  132.2018  152.5755 H   0  0  0  0  0  0  0  0  0  0  0  0
  147.1662  134.6257  152.7576 H   0  0  0  0  0  0  0  0  0  0  0  0
  147.2932  134.1221  151.1054 H   0  0  0  0  0  0  0  0  0  0  0  0
  145.8177  136.0508  151.1595 H   0  0  0  0  0  0  0  0  0  0  0  0
  142.5666  136.1969  153.0996 H   0  0  0  0  0  0  0  0  0  0  0  0
  142.5667  134.8187  152.0111 H   0  0  0  0  0  0  0  0  0  0  0  0
  143.0707  136.4068  151.4198 H   0  0  0  0  0  0  0  0  0  0  0  0
  144.6584  136.6043  156.8183 H   0  0  0  0  0  0  0  0  0  0  0  0
  147.6197  139.5744  151.9286 H   0  0  0  0  0  0  0  0  0  0  0  0
  148.5076  140.5681  154.0736 H   0  0  0  0  0  0  0  0  0  0  0  0
  147.0088  140.9563  154.8751 H   0  0  0  0  0  0  0  0  0  0  0  0
  147.7963  138.7862  156.3853 H   0  0  0  0  0  0  0  0  0  0  0  0
  147.0565  140.8138  157.4287 H   0  0  0  0  0  0  0  0  0  0  0  0
  148.6840  140.5553  158.0281 H   0  0  0  0  0  0  0  0  0  0  0  0
  147.8824  142.6853  157.0694 H   0  0  0  0  0  0  0  0  0  0  0  0
  150.1617  138.8240  156.8796 H   0  0  0  0  0  0  0  0  0  0  0  0
  149.9212  137.2957  155.0306 H   0  0  0  0  0  0  0  0  0  0  0  0
  149.6866  138.6306  153.8918 H   0  0  0  0  0  0  0  0  0  0  0  0
  152.2193  137.9608  155.4492 H   0  0  0  0  0  0  0  0  0  0  0  0
  152.0667  138.1898  153.7023 H   0  0  0  0  0  0  0  0  0  0  0  0
  150.3268  141.2035  155.0035 H   0  0  0  0  0  0  0  0  0  0  0  0
  151.1892  140.9308  156.5181 H   0  0  0  0  0  0  0  0  0  0  0  0
  143.8818  135.0068  149.9882 H   0  0  0  0  0  0  0  0  0  0  0  0
  145.4072  134.3383  149.5124 H   0  0  0  0  0  0  0  0  0  0  0  0
  143.4977  133.0557  151.5192 H   0  0  0  0  0  0  0  0  0  0  0  0
  142.7982  133.0916  149.0630 H   0  0  0  0  0  0  0  0  0  0  0  0
  142.9292  131.4911  149.7315 H   0  0  0  0  0  0  0  0  0  0  0  0
  144.2163  132.1194  148.6951 H   0  0  0  0  0  0  0  0  0  0  0  0
  146.0105  132.0575  150.4235 H   0  0  0  0  0  0  0  0  0  0  0  0
  1  2  1  0  0  0  0
  1 30  1  0  0  0  0
  1 31  1  0  0  0  0
  1 32  1  0  0  0  0
  2  3  1  0  0  0  0
  2 33  1  0  0  0  0
  2 34  1  0  0  0  0
  3 28  1  0  0  0  0
  3  4  1  0  0  0  0
  3 64  1  0  0  0  0
  4  5  1  0  0  0  0
  4 35  1  0  0  0  0
  4 36  1  0  0  0  0
  5  6  1  0  0  0  0
  5 37  1  0  0  0  0
  5 38  1  0  0  0  0
  6  7  1  0  0  0  0
  6 27  1  0  0  0  0
  6 39  1  0  0  0  0
  7  8  1  0  0  0  0
  7  9  1  0  0  0  0
  8 40  1  0  0  0  0
  8 41  1  0  0  0  0
  8 42  1  0  0  0  0
  9 14  1  0  0  0  0
  9 10  2  0  0  0  0
 10 11  1  0  0  0  0
 11 12  2  0  0  0  0
 11 43  1  0  0  0  0
 12 13  1  0  0  0  0
 13 17  1  0  0  0  0
 13 14  2  0  0  0  0
 14 15  1  0  0  0  0
 15 16  2  0  0  0  0
 16 17  1  0  0  0  0
 16 44  1  0  0  0  0
 17 18  1  0  0  0  0
 18 19  1  0  0  0  0
 18 45  1  0  0  0  0
 18 46  1  0  0  0  0
 19 20  1  0  0  0  0
 19 22  1  0  0  0  0
 19 47  1  0  0  0  0
 20 21  1  0  0  0  0
 20 48  1  0  0  0  0
 20 49  1  0  0  0  0
 21 50  1  0  0  0  0
 22 26  1  0  0  0  0
 22 23  1  0  0  0  0
 22 51  1  0  0  0  0
 23 24  1  0  0  0  0
 23 52  1  0  0  0  0
 23 53  1  0  0  0  0
 24 25  1  0  0  0  0
 24 54  1  0  0  0  0
 24 55  1  0  0  0  0
 25 26  1  0  0  0  0
 26 56  1  0  0  0  0
 26 57  1  0  0  0  0
 27 28  1  0  0  0  0
 27 58  1  0  0  0  0
 27 59  1  0  0  0  0
 28 29  1  0  0  0  0
 28 60  1  0  0  0  0
 29 61  1  0  0  0  0
 29 62  1  0  0  0  0
 29 63  1  0  0  0  0
M  CHG  1   3   1
M  END
> <s_m_source_file>
AV-unprocessed.smi

> <i_m_source_file_index>
249

> <i_lp_mmshare_version>
43012

> <i_f3d_flags>
0

> <s_epik_input>
W0NIM11bQ0gyXU4xW0NIMl1bQ0gyXVtDQEhdKFtDSDJdW0NASF0xW0NIM10pTihbQ0gzXSljKG5bY0hdbjIpYyhjMjMpbltjSF1uM1tDSDJdW0NASF0oW0NIMl1bT0hdKVtDQEBIXTRbQ0gyXVtDSDJdT1tDSDJdNA==

> <s_epik_cmdline>
J2VwaWtfcHl0aG9uJywgJy1waCcsICc3LjAnLCAnLXRuJywgJzgnLCAnLW1hJywgJzIwMCcsICctbWV0YWxfYmluZGluZycsICctaW1hZScsICc8aW5maWxlLm1hZT4nLCAnLW9tYWUnLCAnPG91dGZpbGUubWFlPic=

> <r_lp_tautomer_probability>
1

> <r_epik_Ionization_Penalty>
0.00294688

> <r_epik_Ionization_Penalty_Charging>
0.00169971

> <r_epik_Ionization_Penalty_Neutral>
0.00124717

> <r_epik_State_Penalty>
-0

> <r_epik_Charging_Adjusted_Penalty>
0.00169971

> <i_epik_Tot_Q>
1

> <i_epik_Tot_abs_Q>
1

> <r_epik_Metal_State_Penalty>
-0

> <b_epik_Metal_Only>
0

> <s_lp_Force_Field>
OPLS_2005

> <r_lp_Energy>
57.0978

> <b_lp_Chiralities_Consistent>
1

> <s_lp_Variant>
AV-unprocessed.smi:249-11

> <Gold.Version>
5.8.1

> <Gold.Id.Protein>
6NUR|6NUR_protein|mol2

> <Gold.PLP.Fitness>
41.1233

> <Gold.PLP.PLP>
-38.5916

> <Gold.PLP.part.hbond>
-1.9215

> <Gold.PLP.part.metal>
0.0000

> <Gold.PLP.part.buried>
-4.3517

> <Gold.PLP.part.nonpolar>
-33.6285

> <Gold.PLP.part.repulsive>
0.5072

> <Gold.PLP.ligand.clash>
0.0000

> <Gold.PLP.ligand.torsion>
1.9971

> <Gold.PLP.Chemscore.Hbond>
0.9600

> <Gold.PLP.Chemscore.CHOScore>
1.0000

> <Gold.PLP.Chemscore.Metal>
0.0000

> <Gold.Chemscore.Hbonds>
donor molecule, donor type, donor heavy atom, donor atom, acceptor molecule, acceptor atom, score
      P1  H  7989  7998       L1    25  0.74
      L1  C    16    44       P1  7957  1.00

> <Gold.PLP.Chemscore.Internal.Correction>
0.6459

> <Gold.Rescore>
     Score         DG    S(hbond)    S(metal)    S(lipo)     H(rot)  DE(clash)    DE(int)     intcor
      8.35     -11.19       0.46        0.00      99.25       2.90       0.06       2.78       ----

> <Gold.Chemscore.Fitness>
8.3514

> <Gold.Chemscore.DG>
-11.1878

> <Gold.Chemscore.ZeroCoef>
-5.4800

> <Gold.Chemscore.Hbond>
0.4553

> <Gold.Chemscore.Metal>
0.0000

> <Gold.Chemscore.Lipo>
99.2526

> <Gold.Chemscore.Internal_Hbond>
0.0000

> <Gold.Chemscore.DEClash>
0.0604

> <Gold.Chemscore.DEInternal>
2.7759

> <Gold.Chemscore.Rot>
2.9006

> <Gold.Chemscore.Internal.Correction>
   9.000000E+99

> <Gold.Chemscore.Hbonds>
donor molecule, donor type, donor heavy atom, donor atom, acceptor molecule, acceptor atom, score
      P1  H  7989  7998       L1    25  0.10

> <Gold.Chemscore.Hbond.Weighted>
-1.5208

> <Gold.Chemscore.Metal.Weighted>
-0.0000

> <Gold.Chemscore.Lipo.Weighted>
-11.6126

> <Gold.Chemscore.Internal_Hbond.Weighted>
0.0000

> <Gold.Chemscore.DEClash.Weighted>
0.0604

> <Gold.Chemscore.DEInternal.Weighted>
2.7759

> <Gold.Chemscore.Rot.Weighted>
7.4256

> <Gold.Chemscore.Internal.Correction.Weighted>
   9.000000E+99

> <Gold.Protein.RotatedTorsions>
[ 6907 6896 6895 6894 ] final  149.66 input  -60.11 | X-H torsion
[ 7974 7965 7964 7962 ] final  -76.36 input  175.53 | X-H torsion
[ 8008 7997 7996 7995 ] final -140.80 input   59.86 | X-H torsion
[ 10167 10162 10161 10158 ] final  -55.50 input  -65.29 | X-H torsion
[ 10718 10713 10712 10709 ] final   -3.42 input   66.30 | X-H torsion
[ 10763 10752 10751 10750 ] final  179.51 input  -60.55 | X-H torsion
[ 11005 11000 10999 10996 ] final  -40.45 input  -57.11 | X-H torsion

> <Gold.Protein.ActiveResidues>
 VAL166  LYS551  ARG553  GLY616  TRP617  ASP618  TYR619  PRO620  LYS621  CYS622 
 ASP623  PHE694  ASN695  SER759  ASP760  ASP761  ALA762  ILE779  LEU786  VAL792 
 PHE793  MET794  SER795  GLU796  ALA797  LYS798  CYS799  TRP800  GLU811  SER814 

> <Gold.Protein.RotatedAtoms>
  152.1249  133.4374  159.4693 H   0  0  0  0  0  0  0  0  0  0  0  0  # atno 6907 bound_to 6896
  150.6874  134.2490  159.4512 H   0  0  0  0  0  0  0  0  0  0  0  0  # atno 6908 bound_to 6896
  152.0369  134.9734  160.0624 H   0  0  0  0  0  0  0  0  0  0  0  0  # atno 6909 bound_to 6896
  145.6138  140.9380  143.1175 H   0  0  0  0  0  0  0  0  0  0  0  0  # atno 7974 bound_to 7965
  155.4673  140.0550  157.2984 H   0  0  0  0  0  0  0  0  0  0  0  0  # atno 8008 bound_to 7997
  154.4713  140.2041  155.9943 H   0  0  0  0  0  0  0  0  0  0  0  0  # atno 8009 bound_to 7997
  156.1060  140.3211  155.8011 H   0  0  0  0  0  0  0  0  0  0  0  0  # atno 8010 bound_to 7997
  140.6371  143.2488  151.5090 H   0  0  0  0  0  0  0  0  0  0  0  0  # atno 10167 bound_to 10162
  156.7763  130.5316  149.5758 H   0  0  0  0  0  0  0  0  0  0  0  0  # atno 10718 bound_to 10713
  154.5216  135.2794  155.1257 H   0  0  0  0  0  0  0  0  0  0  0  0  # atno 10763 bound_to 10752
  154.2813  135.6285  153.5352 H   0  0  0  0  0  0  0  0  0  0  0  0  # atno 10764 bound_to 10752
  152.9938  135.5652  154.5706 H   0  0  0  0  0  0  0  0  0  0  0  0  # atno 10765 bound_to 10752
  141.0175  133.6878  156.2323 H   0  0  0  0  0  0  0  0  0  0  0  0  # atno 11005 bound_to 11000
  144.7259  139.7878  143.7365 LP  0  0  0  0  0  0  0  0  0  0  0  0  # atno 17320 bound_to 7965
  146.1484  139.4559  143.0064 LP  0  0  0  0  0  0  0  0  0  0  0  0  # atno 17321 bound_to 7965
  139.5581  144.2225  152.1645 LP  0  0  0  0  0  0  0  0  0  0  0  0  # atno 17342 bound_to 10162
  140.1485  144.5136  150.6701 LP  0  0  0  0  0  0  0  0  0  0  0  0  # atno 17343 bound_to 10162
  156.1246  130.6134  151.0244 LP  0  0  0  0  0  0  0  0  0  0  0  0  # atno 17370 bound_to 10713
  157.6667  131.0870  150.7711 LP  0  0  0  0  0  0  0  0  0  0  0  0  # atno 17371 bound_to 10713
  140.6629  134.4949  157.5584 LP  0  0  0  0  0  0  0  0  0  0  0  0  # atno 17394 bound_to 11000
  139.9126  134.8313  156.1476 LP  0  0  0  0  0  0  0  0  0  0  0  0  # atno 17395 bound_to 11000

$$$$
