AV-unprocessed.smi:1892|AV-procd|sdf|7670|dock6
  -GOLD-   22720 9403D 1   1.00000     0.00000
 Structure written by MMmdl.
 43 44  0  0  0  0  0  0  0  0  2 V2000
  150.4051  141.5243  157.8225 C   0  0  0  0  0  0  0  0  0  0  0  0
  150.6819  140.3261  156.9117 C   0  0  0  0  0  0  0  0  0  0  0  0
  151.1402  139.3046  157.4228 O   0  0  0  0  0  0  0  0  0  0  0  0
  150.4201  140.4260  155.5864 N   0  0  0  0  0  0  0  0  0  0  0  0
  149.8170  141.6168  154.9823 C   0  0  0  0  0  0  0  0  0  0  0  0
  148.4056  141.2646  154.4783 C   0  0  0  0  0  0  0  0  0  0  0  0
  148.4290  140.1075  153.5426 N   0  3  0  0  0  0  0  0  0  0  0  0
  147.0708  139.7657  153.0497 C   0  0  0  0  0  0  0  0  0  0  0  0
  146.4786  138.5253  153.7468 C   0  0  0  0  0  0  0  0  0  0  0  0
  146.7943  137.3011  153.0193 N   0  0  0  0  0  0  0  0  0  0  0  0
  145.9015  136.3577  152.6860 C   0  0  0  0  0  0  0  0  0  0  0  0
  144.7064  136.4292  152.9743 O   0  0  0  0  0  0  0  0  0  0  0  0
  146.4833  135.3475  152.0155 N   0  0  0  0  0  0  0  0  0  0  0  0
  145.8733  134.1769  151.4910 C   0  0  0  0  0  0  0  0  0  0  0  0
  144.4797  134.2728  151.2767 C   0  0  0  0  0  0  0  0  0  0  0  0
  143.7803  133.1645  150.7610 C   0  0  0  0  0  0  0  0  0  0  0  0
  144.4934  131.9872  150.4727 C   0  0  0  0  0  0  0  0  0  0  0  0
  145.8792  131.9754  150.7152 C   0  0  0  0  0  0  0  0  0  0  0  0
  146.5517  133.0364  151.2090 N   0  0  0  0  0  0  0  0  0  0  0  0
  149.1738  138.9398  154.0916 C   0  0  0  0  0  0  0  0  0  0  0  0
  150.5672  139.3477  154.6046 C   0  0  0  0  0  0  0  0  0  0  0  0
  150.9868  142.3917  157.5098 H   0  0  0  0  0  0  0  0  0  0  0  0
  150.6796  141.2947  158.8528 H   0  0  0  0  0  0  0  0  0  0  0  0
  149.3459  141.7828  157.8109 H   0  0  0  0  0  0  0  0  0  0  0  0
  149.7614  142.4608  155.6711 H   0  0  0  0  0  0  0  0  0  0  0  0
  150.4402  141.9523  154.1519 H   0  0  0  0  0  0  0  0  0  0  0  0
  147.7596  141.0293  155.3259 H   0  0  0  0  0  0  0  0  0  0  0  0
  147.9713  142.1317  153.9793 H   0  0  0  0  0  0  0  0  0  0  0  0
  146.4093  140.6258  153.1642 H   0  0  0  0  0  0  0  0  0  0  0  0
  147.1309  139.5641  151.9791 H   0  0  0  0  0  0  0  0  0  0  0  0
  146.8409  138.4525  154.7738 H   0  0  0  0  0  0  0  0  0  0  0  0
  145.3928  138.5921  153.8039 H   0  0  0  0  0  0  0  0  0  0  0  0
  147.7564  137.1670  152.7434 H   0  0  0  0  0  0  0  0  0  0  0  0
  147.4773  135.4245  151.8593 H   0  0  0  0  0  0  0  0  0  0  0  0
  143.9470  135.1847  151.5040 H   0  0  0  0  0  0  0  0  0  0  0  0
  142.7151  133.2176  150.5906 H   0  0  0  0  0  0  0  0  0  0  0  0
  143.9923  131.1164  150.0770 H   0  0  0  0  0  0  0  0  0  0  0  0
  146.4634  131.0911  150.5084 H   0  0  0  0  0  0  0  0  0  0  0  0
  148.5988  138.4931  154.9045 H   0  0  0  0  0  0  0  0  0  0  0  0
  149.2915  138.1726  153.3275 H   0  0  0  0  0  0  0  0  0  0  0  0
  151.1779  139.7066  153.7750 H   0  0  0  0  0  0  0  0  0  0  0  0
  151.0876  138.4720  154.9897 H   0  0  0  0  0  0  0  0  0  0  0  0
  148.9507  140.4237  152.7374 H   0  0  0  0  0  0  0  0  0  0  0  0
  1  2  1  0  0  0  0
  1 22  1  0  0  0  0
  1 23  1  0  0  0  0
  1 24  1  0  0  0  0
  2  3  2  0  0  0  0
  2  4  1  0  0  0  0
  4 21  1  0  0  0  0
  4  5  1  0  0  0  0
  5  6  1  0  0  0  0
  5 25  1  0  0  0  0
  5 26  1  0  0  0  0
  6  7  1  0  0  0  0
  6 27  1  0  0  0  0
  6 28  1  0  0  0  0
  7  8  1  0  0  0  0
  7 20  1  0  0  0  0
  7 43  1  0  0  0  0
  8  9  1  0  0  0  0
  8 29  1  0  0  0  0
  8 30  1  0  0  0  0
  9 10  1  0  0  0  0
  9 31  1  0  0  0  0
  9 32  1  0  0  0  0
 10 11  1  0  0  0  0
 10 33  1  0  0  0  0
 11 12  2  0  0  0  0
 11 13  1  0  0  0  0
 13 14  1  0  0  0  0
 13 34  1  0  0  0  0
 14 19  1  0  0  0  0
 14 15  2  0  0  0  0
 15 16  1  0  0  0  0
 15 35  1  0  0  0  0
 16 17  2  0  0  0  0
 16 36  1  0  0  0  0
 17 18  1  0  0  0  0
 17 37  1  0  0  0  0
 18 19  2  0  0  0  0
 18 38  1  0  0  0  0
 20 21  1  0  0  0  0
 20 39  1  0  0  0  0
 20 40  1  0  0  0  0
 21 41  1  0  0  0  0
 21 42  1  0  0  0  0
M  CHG  1   7   1
M  END
> <s_m_source_file>
AV-unprocessed.smi

> <i_m_source_file_index>
1892

> <i_lp_mmshare_version>
43012

> <i_f3d_flags>
0

> <s_epik_input>
W0NIM11DKD1PKU4xW0NIMl1bQ0gyXU4oW0NIMl1bQ0gyXTEpW0NIMl1bQ0gyXVtOSF1DKD1PKVtOSF1jMltjSF1bY0hdW2NIXVtjSF1uMg==

> <s_epik_cmdline>
J2VwaWtfcHl0aG9uJywgJy1waCcsICc3LjAnLCAnLXRuJywgJzgnLCAnLW1hJywgJzIwMCcsICctbWV0YWxfYmluZGluZycsICctaW1hZScsICc8aW5maWxlLm1hZT4nLCAnLW9tYWUnLCAnPG91dGZpbGUubWFlPic=

> <r_epik_Ionization_Penalty>
0.630068

> <r_epik_Ionization_Penalty_Charging>
0.630034

> <r_epik_Ionization_Penalty_Neutral>
3.4348e-05

> <r_epik_State_Penalty>
0.646805

> <r_epik_Charging_Adjusted_Penalty>
1.27684

> <i_epik_Tot_Q>
1

> <i_epik_Tot_abs_Q>
1

> <r_epik_Metal_State_Penalty>
0.646808

> <b_epik_Metal_Only>
0

> <s_lp_Force_Field>
OPLS_2005

> <r_lp_Energy>
41.8075

> <b_lp_Chiralities_Consistent>
1

> <s_lp_Variant>
AV-unprocessed.smi:1892-2

> <Gold.Version>
5.8.1

> <Gold.Id.Protein>
6NUR|6NUR_protein|mol2

> <Gold.PLP.Fitness>
46.9777

> <Gold.PLP.PLP>
-36.9766

> <Gold.PLP.part.hbond>
-3.0000

> <Gold.PLP.part.metal>
0.0000

> <Gold.PLP.part.buried>
-2.6471

> <Gold.PLP.part.nonpolar>
-30.3872

> <Gold.PLP.part.repulsive>
0.5035

> <Gold.PLP.ligand.clash>
0.0513

> <Gold.PLP.ligand.torsion>
0.8897

> <Gold.PLP.Chemscore.Hbond>
2.9360

> <Gold.PLP.Chemscore.CHOScore>
0.9944

> <Gold.PLP.Chemscore.Metal>
0.0000

> <Gold.Chemscore.Hbonds>
donor molecule, donor type, donor heavy atom, donor atom, acceptor molecule, acceptor atom, score
      L1  H     7    43       P1  7957  0.96
      L1  H    10    33       P1  7948  0.98
      L1  H    13    34       P1  7948  1.00
      L1  C    18    38       P1 10747  0.99

> <Gold.PLP.Chemscore.Internal.Correction>
0.0405

> <Gold.Rescore>
     Score         DG    S(hbond)    S(metal)    S(lipo)     H(rot)  DE(clash)    DE(int)     intcor
     18.00     -20.58       2.91        0.00      81.89       1.64       0.13       2.44       ----

> <Gold.Chemscore.Fitness>
18.0043

> <Gold.Chemscore.DG>
-20.5838

> <Gold.Chemscore.ZeroCoef>
-5.4800

> <Gold.Chemscore.Hbond>
2.9095

> <Gold.Chemscore.Metal>
0.0000

> <Gold.Chemscore.Lipo>
81.8920

> <Gold.Chemscore.Internal_Hbond>
0.0000

> <Gold.Chemscore.DEClash>
0.1346

> <Gold.Chemscore.DEInternal>
2.4449

> <Gold.Chemscore.Rot>
1.6388

> <Gold.Chemscore.Internal.Correction>
   9.000000E+99

> <Gold.Chemscore.Hbonds>
donor molecule, donor type, donor heavy atom, donor atom, acceptor molecule, acceptor atom, score
      L1  H     7    43       P1  7957  0.92
      L1  H    10    33       P1  7948  0.93
      L1  H    13    34       P1  7948  0.97

> <Gold.Chemscore.Hbond.Weighted>
-9.7177

> <Gold.Chemscore.Metal.Weighted>
-0.0000

> <Gold.Chemscore.Lipo.Weighted>
-9.5814

> <Gold.Chemscore.Internal_Hbond.Weighted>
0.0000

> <Gold.Chemscore.DEClash.Weighted>
0.1346

> <Gold.Chemscore.DEInternal.Weighted>
2.4449

> <Gold.Chemscore.Rot.Weighted>
4.1952

> <Gold.Chemscore.Internal.Correction.Weighted>
   9.000000E+99

> <Gold.Protein.RotatedTorsions>
[ 6907 6896 6895 6894 ] final   41.68 input  -60.11 | X-H torsion
[ 7974 7965 7964 7962 ] final -102.06 input  175.53 | X-H torsion
[ 8008 7997 7996 7995 ] final   68.24 input   59.86 | X-H torsion
[ 10167 10162 10161 10158 ] final  144.17 input  -65.29 | X-H torsion
[ 10718 10713 10712 10709 ] final -154.53 input   66.30 | X-H torsion
[ 10763 10752 10751 10750 ] final   30.84 input  -60.55 | X-H torsion
[ 11005 11000 10999 10996 ] final  -36.59 input  -57.11 | X-H torsion

> <Gold.Protein.ActiveResidues>
 VAL166  LYS551  ARG553  GLY616  TRP617  ASP618  TYR619  PRO620  LYS621  CYS622 
 ASP623  PHE694  ASN695  SER759  ASP760  ASP761  ALA762  ILE779  LEU786  VAL792 
 PHE793  MET794  SER795  GLU796  ALA797  LYS798  CYS799  TRP800  GLU811  SER814 

> <Gold.Protein.RotatedAtoms>
  152.1983  134.8611  160.0510 H   0  0  0  0  0  0  0  0  0  0  0  0  # atno 6907 bound_to 6896
  151.9474  133.3650  159.3995 H   0  0  0  0  0  0  0  0  0  0  0  0  # atno 6908 bound_to 6896
  150.6949  134.4300  159.5288 H   0  0  0  0  0  0  0  0  0  0  0  0  # atno 6909 bound_to 6896
  145.2736  140.9306  143.2972 H   0  0  0  0  0  0  0  0  0  0  0  0  # atno 7974 bound_to 7965
  155.7052  140.3495  155.4950 H   0  0  0  0  0  0  0  0  0  0  0  0  # atno 8008 bound_to 7997
  155.9405  140.1100  157.1082 H   0  0  0  0  0  0  0  0  0  0  0  0  # atno 8009 bound_to 7997
  154.4102  140.1214  156.4907 H   0  0  0  0  0  0  0  0  0  0  0  0  # atno 8010 bound_to 7997
  139.4953  144.5990  151.6521 H   0  0  0  0  0  0  0  0  0  0  0  0  # atno 10167 bound_to 10162
  156.5005  130.8389  151.2607 H   0  0  0  0  0  0  0  0  0  0  0  0  # atno 10718 bound_to 10713
  153.0349  135.6454  154.1106 H   0  0  0  0  0  0  0  0  0  0  0  0  # atno 10763 bound_to 10752
  154.0823  135.2872  155.3289 H   0  0  0  0  0  0  0  0  0  0  0  0  # atno 10764 bound_to 10752
  154.6522  135.5422  153.7979 H   0  0  0  0  0  0  0  0  0  0  0  0  # atno 10765 bound_to 10752
  140.9886  133.7017  156.1810 H   0  0  0  0  0  0  0  0  0  0  0  0  # atno 11005 bound_to 11000
  144.9314  139.4294  143.6493 LP  0  0  0  0  0  0  0  0  0  0  0  0  # atno 17320 bound_to 7965
  146.3239  139.8227  142.8923 LP  0  0  0  0  0  0  0  0  0  0  0  0  # atno 17321 bound_to 7965
  140.5635  144.0229  150.6181 LP  0  0  0  0  0  0  0  0  0  0  0  0  # atno 17342 bound_to 10162
  140.3322  143.3070  152.0675 LP  0  0  0  0  0  0  0  0  0  0  0  0  # atno 17343 bound_to 10162
  157.7463  130.9983  150.2848 LP  0  0  0  0  0  0  0  0  0  0  0  0  # atno 17370 bound_to 10713
  156.3337  130.3804  149.7469 LP  0  0  0  0  0  0  0  0  0  0  0  0  # atno 17371 bound_to 10713
  140.7075  134.4497  157.5583 LP  0  0  0  0  0  0  0  0  0  0  0  0  # atno 17394 bound_to 11000
  139.8982  134.8619  156.2012 LP  0  0  0  0  0  0  0  0  0  0  0  0  # atno 17395 bound_to 11000

$$$$
