AV-unprocessed.smi:2229|AV-procd|sdf|9029|dock2
  -GOLD-   2272012233D 1   1.00000     0.00000
 Structure written by MMmdl.
 44 45  0  0  0  0  0  0  0  0  1 V2000
  151.9517  140.8997  158.5804 C   0  0  0  0  0  0  0  0  0  0  0  0
  151.8420  142.3415  158.0615 C   0  0  0  0  0  0  0  0  0  0  0  0
  152.1707  143.3422  159.1827 C   0  0  0  0  0  0  0  0  0  0  0  0
  150.4563  142.5885  157.4289 C   0  0  0  0  0  0  0  0  0  0  0  0
  150.2369  141.8347  156.1061 C   0  0  0  0  0  0  0  0  0  0  0  0
  148.8495  142.0779  155.4662 C   0  0  2  0  0  0  0  0  0  0  0  0
  147.6724  141.6266  156.3384 C   0  0  0  0  0  0  0  0  0  0  0  0
  146.5046  141.5178  155.3635 C   0  0  0  0  0  0  0  0  0  0  0  0
  147.1256  140.9628  154.0808 C   0  0  0  0  0  0  0  0  0  0  0  0
  148.6076  141.3928  154.0960 C   0  0  2  0  0  0  0  0  0  0  0  0
  149.4957  140.2506  153.9086 N   0  0  0  0  0  0  0  0  0  0  0  0
  149.6649  139.2157  154.7455 C   0  0  0  0  0  0  0  0  0  0  0  0
  149.1168  139.1477  155.8444 O   0  0  0  0  0  0  0  0  0  0  0  0
  150.5673  138.0611  154.2756 C   0  0  0  0  0  0  0  0  0  0  0  0
  151.7892  137.8825  155.0695 N   0  0  0  0  0  0  0  0  0  0  0  0
  152.0374  136.7597  155.8319 C   0  0  0  0  0  0  0  0  0  0  0  0
  153.2031  136.7984  156.3815 N   0  0  0  0  0  0  0  0  0  0  0  0
  153.6930  137.9845  155.9482 N   0  0  0  0  0  0  0  0  0  0  0  0
  152.8648  138.6612  155.1507 C   0  0  0  0  0  0  0  0  0  0  0  0
  153.0647  139.7425  154.6010 O   0  0  0  0  0  0  0  0  0  0  0  0
  154.6192  138.2697  156.2327 H   0  0  0  0  0  0  0  0  0  0  0  0
  151.2291  140.7085  159.3743 H   0  0  0  0  0  0  0  0  0  0  0  0
  152.9462  140.6999  158.9803 H   0  0  0  0  0  0  0  0  0  0  0  0
  151.7699  140.1781  157.7834 H   0  0  0  0  0  0  0  0  0  0  0  0
  152.5944  142.4604  157.2806 H   0  0  0  0  0  0  0  0  0  0  0  0
  151.4181  143.3147  159.9712 H   0  0  0  0  0  0  0  0  0  0  0  0
  152.2282  144.3641  158.8087 H   0  0  0  0  0  0  0  0  0  0  0  0
  153.1354  143.1163  159.6375 H   0  0  0  0  0  0  0  0  0  0  0  0
  149.6922  142.2758  158.1410 H   0  0  0  0  0  0  0  0  0  0  0  0
  150.3044  143.6573  157.2724 H   0  0  0  0  0  0  0  0  0  0  0  0
  151.0034  142.1427  155.3949 H   0  0  0  0  0  0  0  0  0  0  0  0
  150.3847  140.7673  156.2767 H   0  0  0  0  0  0  0  0  0  0  0  0
  148.7390  143.1515  155.3041 H   0  0  0  0  0  0  0  0  0  0  0  0
  147.8796  140.6476  156.7733 H   0  0  0  0  0  0  0  0  0  0  0  0
  147.4631  142.3177  157.1551 H   0  0  0  0  0  0  0  0  0  0  0  0
  145.6971  140.8913  155.7433 H   0  0  0  0  0  0  0  0  0  0  0  0
  146.0940  142.5102  155.1732 H   0  0  0  0  0  0  0  0  0  0  0  0
  147.0372  139.8750  154.0828 H   0  0  0  0  0  0  0  0  0  0  0  0
  146.6053  141.3231  153.1928 H   0  0  0  0  0  0  0  0  0  0  0  0
  148.7983  142.1172  153.3018 H   0  0  0  0  0  0  0  0  0  0  0  0
  149.9985  140.2219  153.0336 H   0  0  0  0  0  0  0  0  0  0  0  0
  149.9856  137.1386  154.3033 H   0  0  0  0  0  0  0  0  0  0  0  0
  150.8272  138.2243  153.2282 H   0  0  0  0  0  0  0  0  0  0  0  0
  151.2816  135.9754  155.8993 H   0  0  0  0  0  0  0  0  0  0  0  0
  1  2  1  0  0  0  0
  1 22  1  0  0  0  0
  1 23  1  0  0  0  0
  1 24  1  0  0  0  0
  2  3  1  0  0  0  0
  2  4  1  0  0  0  0
  2 25  1  0  0  0  0
  3 26  1  0  0  0  0
  3 27  1  0  0  0  0
  3 28  1  0  0  0  0
  4  5  1  0  0  0  0
  4 29  1  0  0  0  0
  4 30  1  0  0  0  0
  5  6  1  0  0  0  0
  5 31  1  0  0  0  0
  5 32  1  0  0  0  0
  6 10  1  0  0  0  0
  6  7  1  0  0  0  0
  6 33  1  0  0  0  0
  7  8  1  0  0  0  0
  7 34  1  0  0  0  0
  7 35  1  0  0  0  0
  8  9  1  0  0  0  0
  8 36  1  0  0  0  0
  8 37  1  0  0  0  0
  9 10  1  0  0  0  0
  9 38  1  0  0  0  0
  9 39  1  0  0  0  0
 10 11  1  0  0  0  0
 10 40  1  0  0  0  0
 11 12  1  0  0  0  0
 11 41  1  0  0  0  0
 12 13  2  0  0  0  0
 12 14  1  0  0  0  0
 14 15  1  0  0  0  0
 14 42  1  0  0  0  0
 14 43  1  0  0  0  0
 15 19  1  0  0  0  0
 15 16  1  0  0  0  0
 16 17  2  0  0  0  0
 16 44  1  0  0  0  0
 17 18  1  0  0  0  0
 18 21  1  0  0  0  0
 18 19  1  0  0  0  0
 19 20  2  0  0  0  0
M  END
> <s_m_source_file>
AV-unprocessed.smi

> <i_m_source_file_index>
2229

> <i_lp_mmshare_version>
43012

> <i_f3d_flags>
0

> <s_epik_input>
W0NIM11bQ0hdKFtDSDNdKVtDSDJdW0NIMl1bQ0BASF0xW0NIMl1bQ0gyXVtDSDJdW0NASF0xW05IXUMoPU8pW0NIMl1uMltjSF1uW25IXWMyPU8=

> <s_epik_cmdline>
J2VwaWtfcHl0aG9uJywgJy1waCcsICc3LjAnLCAnLXRuJywgJzgnLCAnLW1hJywgJzIwMCcsICctbWV0YWxfYmluZGluZycsICctaW1hZScsICc8aW5maWxlLm1hZT4nLCAnLW9tYWUnLCAnPG91dGZpbGUubWFlPic=

> <r_lp_tautomer_probability>
1

> <r_epik_Ionization_Penalty>
4.14174e-05

> <r_epik_Ionization_Penalty_Charging>
4.13165e-05

> <r_epik_Ionization_Penalty_Neutral>
1.00911e-07

> <r_epik_State_Penalty>
-0

> <r_epik_Charging_Adjusted_Penalty>
4.13165e-05

> <i_epik_Tot_Q>
0

> <i_epik_Tot_abs_Q>
0

> <r_epik_Metal_State_Penalty>
0.0399369

> <b_epik_Metal_Only>
0

> <s_lp_Force_Field>
OPLS_2005

> <r_lp_Energy>
36.2175

> <b_lp_Chiralities_Consistent>
1

> <s_lp_Variant>
AV-unprocessed.smi:2229-3

> <Gold.Version>
5.8.1

> <Gold.Id.Protein>
6NUR|6NUR_protein|mol2

> <Gold.PLP.Fitness>
39.3167

> <Gold.PLP.PLP>
-31.5400

> <Gold.PLP.part.hbond>
-4.0000

> <Gold.PLP.part.metal>
0.0000

> <Gold.PLP.part.buried>
1.6957

> <Gold.PLP.part.nonpolar>
-30.2978

> <Gold.PLP.part.repulsive>
0.6389

> <Gold.PLP.ligand.clash>
0.0000

> <Gold.PLP.ligand.torsion>
0.1962

> <Gold.PLP.Chemscore.Hbond>
2.6981

> <Gold.PLP.Chemscore.CHOScore>
0.0000

> <Gold.PLP.Chemscore.Metal>
0.0000

> <Gold.Chemscore.Hbonds>
donor molecule, donor type, donor heavy atom, donor atom, acceptor molecule, acceptor atom, score
      L1  H    11    41       P1  7957  0.78
      P1  H  7989  7998       L1    20  0.26
      P1  H  7997  8008       L1    20  0.75
      P1  H 10752 10765       L1    17  0.42

> <Gold.PLP.Chemscore.Internal.Correction>
0.0747

> <Gold.Rescore>
     Score         DG    S(hbond)    S(metal)    S(lipo)     H(rot)  DE(clash)    DE(int)     intcor
      9.70     -13.34       1.61        0.00      78.97       2.64       1.70       1.94       ----

> <Gold.Chemscore.Fitness>
9.7031

> <Gold.Chemscore.DG>
-13.3425

> <Gold.Chemscore.ZeroCoef>
-5.4800

> <Gold.Chemscore.Hbond>
1.6086

> <Gold.Chemscore.Metal>
0.0000

> <Gold.Chemscore.Lipo>
78.9728

> <Gold.Chemscore.Internal_Hbond>
0.0000

> <Gold.Chemscore.DEClash>
1.7026

> <Gold.Chemscore.DEInternal>
1.9369

> <Gold.Chemscore.Rot>
2.6368

> <Gold.Chemscore.Internal.Correction>
   9.000000E+99

> <Gold.Chemscore.Hbonds>
donor molecule, donor type, donor heavy atom, donor atom, acceptor molecule, acceptor atom, score
      L1  H    11    41       P1  7957  0.77
      P1  H  7989  7998       L1    20  0.25
      P1  H  7997  8008       L1    20  0.09
      P1  H 10752 10765       L1    17  0.03

> <Gold.Chemscore.Hbond.Weighted>
-5.3728

> <Gold.Chemscore.Metal.Weighted>
-0.0000

> <Gold.Chemscore.Lipo.Weighted>
-9.2398

> <Gold.Chemscore.Internal_Hbond.Weighted>
0.0000

> <Gold.Chemscore.DEClash.Weighted>
1.7026

> <Gold.Chemscore.DEInternal.Weighted>
1.9369

> <Gold.Chemscore.Rot.Weighted>
6.7501

> <Gold.Chemscore.Internal.Correction.Weighted>
   9.000000E+99

> <Gold.Protein.RotatedTorsions>
[ 6907 6896 6895 6894 ] final  120.78 input  -60.11 | X-H torsion
[ 7974 7965 7964 7962 ] final  -69.40 input  175.53 | X-H torsion
[ 8008 7997 7996 7995 ] final   -5.10 input   59.86 | X-H torsion
[ 10167 10162 10161 10158 ] final   91.97 input  -65.29 | X-H torsion
[ 10718 10713 10712 10709 ] final  -25.37 input   66.30 | X-H torsion
[ 10763 10752 10751 10750 ] final -104.45 input  -60.55 | X-H torsion
[ 11005 11000 10999 10996 ] final -170.02 input  -57.11 | X-H torsion

> <Gold.Protein.ActiveResidues>
 VAL166  LYS551  ARG553  GLY616  TRP617  ASP618  TYR619  PRO620  LYS621  CYS622 
 ASP623  PHE694  ASN695  SER759  ASP760  ASP761  ALA762  ILE779  LEU786  VAL792 
 PHE793  MET794  SER795  GLU796  ALA797  LYS798  CYS799  TRP800  GLU811  SER814 

> <Gold.Protein.RotatedAtoms>
  152.4372  133.7382  159.6625 H   0  0  0  0  0  0  0  0  0  0  0  0  # atno 6907 bound_to 6896
  150.8257  133.8165  159.3126 H   0  0  0  0  0  0  0  0  0  0  0  0  # atno 6908 bound_to 6896
  151.5834  135.1059  160.0074 H   0  0  0  0  0  0  0  0  0  0  0  0  # atno 6909 bound_to 6896
  145.7043  140.9104  143.0714 H   0  0  0  0  0  0  0  0  0  0  0  0  # atno 7974 bound_to 7965
  154.6074  140.2467  155.7712 H   0  0  0  0  0  0  0  0  0  0  0  0  # atno 8008 bound_to 7997
  156.2350  140.2953  156.0238 H   0  0  0  0  0  0  0  0  0  0  0  0  # atno 8009 bound_to 7997
  155.2108  140.0397  157.2923 H   0  0  0  0  0  0  0  0  0  0  0  0  # atno 8010 bound_to 7997
  139.8322  144.6682  150.9386 H   0  0  0  0  0  0  0  0  0  0  0  0  # atno 10167 bound_to 10162
  156.4653  130.4512  149.6903 H   0  0  0  0  0  0  0  0  0  0  0  0  # atno 10718 bound_to 10713
  154.7879  135.4785  153.9987 H   0  0  0  0  0  0  0  0  0  0  0  0  # atno 10763 bound_to 10752
  153.1587  135.6804  153.8781 H   0  0  0  0  0  0  0  0  0  0  0  0  # atno 10764 bound_to 10752
  153.8402  135.3180  155.3403 H   0  0  0  0  0  0  0  0  0  0  0  0  # atno 10765 bound_to 10752
  140.5242  134.5679  157.5056 H   0  0  0  0  0  0  0  0  0  0  0  0  # atno 11005 bound_to 11000
  144.6960  139.8989  143.7457 LP  0  0  0  0  0  0  0  0  0  0  0  0  # atno 17320 bound_to 7965
  146.0770  139.3758  143.0488 LP  0  0  0  0  0  0  0  0  0  0  0  0  # atno 17321 bound_to 7965
  140.7805  143.3990  151.1180 LP  0  0  0  0  0  0  0  0  0  0  0  0  # atno 17342 bound_to 10162
  139.7643  143.8588  152.3107 LP  0  0  0  0  0  0  0  0  0  0  0  0  # atno 17343 bound_to 10162
  156.3674  130.7513  151.2492 LP  0  0  0  0  0  0  0  0  0  0  0  0  # atno 17370 bound_to 10713
  157.7495  131.0333  150.4264 LP  0  0  0  0  0  0  0  0  0  0  0  0  # atno 17371 bound_to 10713
  139.9589  134.7487  156.0280 LP  0  0  0  0  0  0  0  0  0  0  0  0  # atno 17394 bound_to 11000
  141.1317  133.6585  156.3483 LP  0  0  0  0  0  0  0  0  0  0  0  0  # atno 17395 bound_to 11000

$$$$
