AV-unprocessed.smi:2583|AV-procd|sdf|10137|dock8
  -GOLD-   2272014153D 1   1.00000     0.00000
 Structure written by MMmdl.
 55 57  0  0  0  0  0  0  0  0  3 V2000
  152.1348  144.9844  158.9387 C   0  0  0  0  0  0  0  0  0  0  0  0
  152.2228  143.4728  158.9649 C   0  0  0  0  0  0  0  0  0  0  0  0
  152.8733  142.7999  160.0198 C   0  0  0  0  0  0  0  0  0  0  0  0
  152.9638  141.4554  160.0959 N   0  0  0  0  0  0  0  0  0  0  0  0
  152.4068  140.7273  159.1050 C   0  0  0  0  0  0  0  0  0  0  0  0
  151.7477  141.2937  157.9936 C   0  0  0  0  0  0  0  0  0  0  0  0
  151.1884  140.4165  157.0261 N   0  0  0  0  0  0  0  0  0  0  0  0
  150.5437  139.2561  157.2362 C   0  0  0  0  0  0  0  0  0  0  0  0
  150.2915  138.7735  158.3401 O   0  0  0  0  0  0  0  0  0  0  0  0
  150.1752  138.6851  156.0800 N   0  0  0  0  0  0  0  0  0  0  0  0
  149.4361  137.4308  155.9664 C   0  0  2  0  0  0  0  0  0  0  0  0
  150.3199  136.3476  155.3365 C   0  0  0  0  0  0  0  0  0  0  0  0
  149.5420  135.0344  155.1376 C   0  0  0  0  0  0  0  0  0  0  0  0
  148.3159  135.2331  154.3090 N   0  3  1  0  0  0  0  0  0  0  0  0
  147.5516  133.9814  153.9814 C   0  0  2  0  0  0  0  0  0  0  0  0
  147.0956  133.1364  155.1982 C   0  0  0  0  0  0  0  0  0  0  0  0
  148.2726  132.4414  155.9092 C   0  0  0  0  0  0  0  0  0  0  0  0
  149.0350  131.5881  154.9656 N   0  3  2  0  0  0  0  0  0  0  0  0
  150.1169  130.8343  155.6351 C   0  0  0  0  0  0  0  0  0  0  0  0
  149.5203  132.3529  153.7904 C   0  0  0  0  0  0  0  0  0  0  0  0
  148.3536  133.0369  153.0535 C   0  0  0  0  0  0  0  0  0  0  0  0
  147.4417  136.2772  154.9201 C   0  0  0  0  0  0  0  0  0  0  0  0
  148.1801  137.6124  155.1018 C   0  0  0  0  0  0  0  0  0  0  0  0
  151.6460  142.7043  157.9340 C   0  0  0  0  0  0  0  0  0  0  0  0
  152.7785  145.4318  159.6967 H   0  0  0  0  0  0  0  0  0  0  0  0
  151.1097  145.3047  159.1268 H   0  0  0  0  0  0  0  0  0  0  0  0
  152.4409  145.3659  157.9643 H   0  0  0  0  0  0  0  0  0  0  0  0
  153.3275  143.3520  160.8293 H   0  0  0  0  0  0  0  0  0  0  0  0
  152.4962  139.6550  159.2009 H   0  0  0  0  0  0  0  0  0  0  0  0
  151.2329  140.7393  156.0706 H   0  0  0  0  0  0  0  0  0  0  0  0
  150.4222  139.1522  155.2195 H   0  0  0  0  0  0  0  0  0  0  0  0
  149.1415  137.0948  156.9629 H   0  0  0  0  0  0  0  0  0  0  0  0
  150.7015  136.6919  154.3739 H   0  0  0  0  0  0  0  0  0  0  0  0
  151.1917  136.1654  155.9662 H   0  0  0  0  0  0  0  0  0  0  0  0
  150.2292  134.3378  154.6616 H   0  0  0  0  0  0  0  0  0  0  0  0
  149.2659  134.6073  156.1030 H   0  0  0  0  0  0  0  0  0  0  0  0
  146.6458  134.2937  153.4588 H   0  0  0  0  0  0  0  0  0  0  0  0
  146.4970  133.7145  155.9014 H   0  0  0  0  0  0  0  0  0  0  0  0
  146.4145  132.3625  154.8405 H   0  0  0  0  0  0  0  0  0  0  0  0
  148.9418  133.1770  156.3572 H   0  0  0  0  0  0  0  0  0  0  0  0
  147.8901  131.8255  156.7240 H   0  0  0  0  0  0  0  0  0  0  0  0
  150.8682  131.5092  156.0479 H   0  0  0  0  0  0  0  0  0  0  0  0
  150.6100  130.1619  154.9323 H   0  0  0  0  0  0  0  0  0  0  0  0
  149.7175  130.2283  156.4489 H   0  0  0  0  0  0  0  0  0  0  0  0
  150.2539  133.0944  154.1104 H   0  0  0  0  0  0  0  0  0  0  0  0
  150.0334  131.6758  153.1065 H   0  0  0  0  0  0  0  0  0  0  0  0
  147.6831  132.2642  152.6743 H   0  0  0  0  0  0  0  0  0  0  0  0
  148.7257  133.5457  152.1665 H   0  0  0  0  0  0  0  0  0  0  0  0
  146.5617  136.4626  154.3081 H   0  0  0  0  0  0  0  0  0  0  0  0
  147.0767  135.9242  155.8862 H   0  0  0  0  0  0  0  0  0  0  0  0
  147.5097  138.3398  155.5616 H   0  0  0  0  0  0  0  0  0  0  0  0
  148.4516  138.0160  154.1250 H   0  0  0  0  0  0  0  0  0  0  0  0
  151.1265  143.2041  157.1308 H   0  0  0  0  0  0  0  0  0  0  0  0
  148.6405  135.6055  153.4281 H   0  0  0  0  0  0  0  0  0  0  0  0
  148.3865  130.8984  154.6125 H   0  0  0  0  0  0  0  0  0  0  0  0
  1  2  1  0  0  0  0
  1 25  1  0  0  0  0
  1 26  1  0  0  0  0
  1 27  1  0  0  0  0
  2 24  1  0  0  0  0
  2  3  2  0  0  0  0
  3  4  1  0  0  0  0
  3 28  1  0  0  0  0
  4  5  2  0  0  0  0
  5  6  1  0  0  0  0
  5 29  1  0  0  0  0
  6  7  1  0  0  0  0
  6 24  2  0  0  0  0
  7  8  1  0  0  0  0
  7 30  1  0  0  0  0
  8  9  2  0  0  0  0
  8 10  1  0  0  0  0
 10 11  1  0  0  0  0
 10 31  1  0  0  0  0
 11 23  1  0  0  0  0
 11 12  1  0  0  0  0
 11 32  1  0  0  0  0
 12 13  1  0  0  0  0
 12 33  1  0  0  0  0
 12 34  1  0  0  0  0
 13 14  1  0  0  0  0
 13 35  1  0  0  0  0
 13 36  1  0  0  0  0
 14 15  1  0  0  0  0
 14 22  1  0  0  0  0
 14 54  1  0  0  0  0
 15 21  1  0  0  0  0
 15 16  1  0  0  0  0
 15 37  1  0  0  0  0
 16 17  1  0  0  0  0
 16 38  1  0  0  0  0
 16 39  1  0  0  0  0
 17 18  1  0  0  0  0
 17 40  1  0  0  0  0
 17 41  1  0  0  0  0
 18 19  1  0  0  0  0
 18 20  1  0  0  0  0
 18 55  1  0  0  0  0
 19 42  1  0  0  0  0
 19 43  1  0  0  0  0
 19 44  1  0  0  0  0
 20 21  1  0  0  0  0
 20 45  1  0  0  0  0
 20 46  1  0  0  0  0
 21 47  1  0  0  0  0
 21 48  1  0  0  0  0
 22 23  1  0  0  0  0
 22 49  1  0  0  0  0
 22 50  1  0  0  0  0
 23 51  1  0  0  0  0
 23 52  1  0  0  0  0
 24 53  1  0  0  0  0
M  CHG  1  14   1
M  CHG  1  18   1
M  END
> <s_m_source_file>
AV-unprocessed.smi

> <i_m_source_file_index>
2583

> <i_lp_mmshare_version>
43012

> <i_f3d_flags>
0

> <s_epik_input>
W0NIM11jMVtjSF1uW2NIXWMoW2NIXTEpW05IXUMoPU8pW05IXVtDSF0yW0NIMl1bQ0gyXU4oW0NIMl1bQ0gyXTIpW0NIXTNbQ0gyXVtDSDJdTihbQ0gzXSlbQ0gyXVtDSDJdMw==

> <s_epik_cmdline>
J2VwaWtfcHl0aG9uJywgJy1waCcsICc3LjAnLCAnLXRuJywgJzgnLCAnLW1hJywgJzIwMCcsICctbWV0YWxfYmluZGluZycsICctaW1hZScsICc8aW5maWxlLm1hZT4nLCAnLW9tYWUnLCAnPG91dGZpbGUubWFlPic=

> <r_epik_Ionization_Penalty>
0.188357

> <r_epik_Ionization_Penalty_Charging>
0.180787

> <r_epik_Ionization_Penalty_Neutral>
0.00756971

> <r_epik_State_Penalty>
0.157948

> <r_epik_Charging_Adjusted_Penalty>
0.338735

> <i_epik_Tot_Q>
2

> <i_epik_Tot_abs_Q>
2

> <r_epik_Metal_State_Penalty>
0.153874

> <b_epik_Metal_Only>
0

> <s_lp_Force_Field>
OPLS_2005

> <r_lp_Energy>
48.801

> <b_lp_Chiralities_Consistent>
1

> <s_lp_Variant>
AV-unprocessed.smi:2583-3

> <Gold.Version>
5.8.1

> <Gold.Id.Protein>
6NUR|6NUR_protein|mol2

> <Gold.PLP.Fitness>
39.9293

> <Gold.PLP.PLP>
-35.1929

> <Gold.PLP.part.hbond>
-1.0000

> <Gold.PLP.part.metal>
0.0000

> <Gold.PLP.part.buried>
-6.3289

> <Gold.PLP.part.nonpolar>
-27.9702

> <Gold.PLP.part.repulsive>
0.0868

> <Gold.PLP.ligand.clash>
0.3891

> <Gold.PLP.ligand.torsion>
0.4539

> <Gold.PLP.Chemscore.Hbond>
2.0000

> <Gold.PLP.Chemscore.CHOScore>
0.0000

> <Gold.PLP.Chemscore.Metal>
0.0000

> <Gold.Chemscore.Hbonds>
donor molecule, donor type, donor heavy atom, donor atom, acceptor molecule, acceptor atom, score
      L1  H    14    54       P1  7948  2.00

> <Gold.PLP.Chemscore.Internal.Correction>
0.0332

> <Gold.Rescore>
     Score         DG    S(hbond)    S(metal)    S(lipo)     H(rot)  DE(clash)    DE(int)     intcor
     15.11     -17.87       0.98        0.00     104.47       1.21       0.00       2.76       ----

> <Gold.Chemscore.Fitness>
15.1063

> <Gold.Chemscore.DG>
-17.8708

> <Gold.Chemscore.ZeroCoef>
-5.4800

> <Gold.Chemscore.Hbond>
0.9772

> <Gold.Chemscore.Metal>
0.0000

> <Gold.Chemscore.Lipo>
104.4663

> <Gold.Chemscore.Internal_Hbond>
0.0000

> <Gold.Chemscore.DEClash>
0.0015

> <Gold.Chemscore.DEInternal>
2.7630

> <Gold.Chemscore.Rot>
1.2092

> <Gold.Chemscore.Internal.Correction>
   9.000000E+99

> <Gold.Chemscore.Hbonds>
donor molecule, donor type, donor heavy atom, donor atom, acceptor molecule, acceptor atom, score
      L1  H    14    54       P1  7948  0.98

> <Gold.Chemscore.Hbond.Weighted>
-3.2637

> <Gold.Chemscore.Metal.Weighted>
-0.0000

> <Gold.Chemscore.Lipo.Weighted>
-12.2226

> <Gold.Chemscore.Internal_Hbond.Weighted>
0.0000

> <Gold.Chemscore.DEClash.Weighted>
0.0015

> <Gold.Chemscore.DEInternal.Weighted>
2.7630

> <Gold.Chemscore.Rot.Weighted>
3.0955

> <Gold.Chemscore.Internal.Correction.Weighted>
   9.000000E+99

> <Gold.Protein.RotatedTorsions>
[ 6907 6896 6895 6894 ] final    9.01 input  -60.11 | X-H torsion
[ 7974 7965 7964 7962 ] final  -75.88 input  175.53 | X-H torsion
[ 8008 7997 7996 7995 ] final   95.02 input   59.86 | X-H torsion
[ 10167 10162 10161 10158 ] final   -0.41 input  -65.29 | X-H torsion
[ 10718 10713 10712 10709 ] final   15.27 input   66.30 | X-H torsion
[ 10763 10752 10751 10750 ] final -150.96 input  -60.55 | X-H torsion
[ 11005 11000 10999 10996 ] final  -27.06 input  -57.11 | X-H torsion

> <Gold.Protein.ActiveResidues>
 VAL166  LYS551  ARG553  GLY616  TRP617  ASP618  TYR619  PRO620  LYS621  CYS622 
 ASP623  PHE694  ASN695  SER759  ASP760  ASP761  ALA762  ILE779  LEU786  VAL792 
 PHE793  MET794  SER795  GLU796  ALA797  LYS798  CYS799  TRP800  GLU811  SER814 

> <Gold.Protein.RotatedAtoms>
  151.7153  135.0905  160.0274 H   0  0  0  0  0  0  0  0  0  0  0  0  # atno 6907 bound_to 6896
  152.3636  133.6323  159.6042 H   0  0  0  0  0  0  0  0  0  0  0  0  # atno 6908 bound_to 6896
  150.7622  133.9301  159.3465 H   0  0  0  0  0  0  0  0  0  0  0  0  # atno 6909 bound_to 6896
  145.6202  140.9365  143.1142 H   0  0  0  0  0  0  0  0  0  0  0  0  # atno 7974 bound_to 7965
  156.0643  140.3292  155.7499 H   0  0  0  0  0  0  0  0  0  0  0  0  # atno 8008 bound_to 7997
  155.5405  140.0601  157.2888 H   0  0  0  0  0  0  0  0  0  0  0  0  # atno 8009 bound_to 7997
  154.4497  140.1911  156.0575 H   0  0  0  0  0  0  0  0  0  0  0  0  # atno 8010 bound_to 7997
  140.6766  143.6898  150.8037 H   0  0  0  0  0  0  0  0  0  0  0  0  # atno 10167 bound_to 10162
  157.0511  130.6270  149.5768 H   0  0  0  0  0  0  0  0  0  0  0  0  # atno 10718 bound_to 10713
  154.8087  135.3271  154.7363 H   0  0  0  0  0  0  0  0  0  0  0  0  # atno 10763 bound_to 10752
  153.8016  135.6903  153.4859 H   0  0  0  0  0  0  0  0  0  0  0  0  # atno 10764 bound_to 10752
  153.1850  135.4572  155.0023 H   0  0  0  0  0  0  0  0  0  0  0  0  # atno 10765 bound_to 10752
  140.9085  133.7476  156.0639 H   0  0  0  0  0  0  0  0  0  0  0  0  # atno 11005 bound_to 11000
  144.7234  139.7955  143.7374 LP  0  0  0  0  0  0  0  0  0  0  0  0  # atno 17320 bound_to 7965
  146.1437  139.4500  143.0093 LP  0  0  0  0  0  0  0  0  0  0  0  0  # atno 17321 bound_to 7965
  140.0592  143.5172  152.2636 LP  0  0  0  0  0  0  0  0  0  0  0  0  # atno 17342 bound_to 10162
  139.6062  144.7597  151.3057 LP  0  0  0  0  0  0  0  0  0  0  0  0  # atno 17343 bound_to 10162
  156.0007  130.5086  150.7653 LP  0  0  0  0  0  0  0  0  0  0  0  0  # atno 17370 bound_to 10713
  157.5030  131.0920  151.0292 LP  0  0  0  0  0  0  0  0  0  0  0  0  # atno 17371 bound_to 10713
  140.8140  134.3367  157.5403 LP  0  0  0  0  0  0  0  0  0  0  0  0  # atno 17394 bound_to 11000
  139.8753  134.9270  156.3415 LP  0  0  0  0  0  0  0  0  0  0  0  0  # atno 17395 bound_to 11000

$$$$
