AV-unprocessed.smi:2638|AV-procd|sdf|10263|dock5
  -GOLD-   2272014273D 1   1.00000     0.00000
 Structure written by MMmdl.
 43 44  0  0  0  0  0  0  0  0  1 V2000
  144.6359  136.4441  152.6674 O   0  0  0  0  0  0  0  0  0  0  0  0
  145.8201  136.3897  152.3364 C   0  0  0  0  0  0  0  0  0  0  0  0
  146.3761  135.4102  151.6022 N   0  0  0  0  0  0  0  0  0  0  0  0
  145.7609  134.2468  151.0676 C   0  0  0  0  0  0  0  0  0  0  0  0
  146.5424  133.2104  150.4938 C   0  0  0  0  0  0  0  0  0  0  0  0
  145.9037  132.0585  149.9951 C   0  0  0  0  0  0  0  0  0  0  0  0
  144.5045  131.9620  150.0929 C   0  0  0  0  0  0  0  0  0  0  0  0
  143.8083  133.0255  150.6948 C   0  0  0  0  0  0  0  0  0  0  0  0
  144.4169  134.1313  151.1738 N   0  0  0  0  0  0  0  0  0  0  0  0
  146.7360  137.3095  152.6831 N   0  0  0  0  0  0  0  0  0  0  0  0
  146.5210  138.5263  153.4767 C   0  0  1  0  0  0  0  0  0  0  0  0
  145.8081  138.2043  154.8166 C   0  0  0  0  0  0  0  0  0  0  0  0
  145.0269  139.3884  155.4134 C   0  0  0  0  0  0  0  0  0  0  0  0
  143.7166  139.4093  154.8900 O   0  0  0  0  0  0  0  0  0  0  0  0
  147.8237  139.3715  153.6266 C   0  0  0  0  0  0  0  0  0  0  0  0
  148.9517  138.5983  154.3536 C   0  0  0  0  0  0  0  0  0  0  0  0
  150.2276  139.4401  154.5205 C   0  0  0  0  0  0  0  0  0  0  0  0
  149.9386  140.7576  155.2500 C   0  0  0  0  0  0  0  0  0  0  0  0
  148.8454  141.5484  154.5218 C   0  0  0  0  0  0  0  0  0  0  0  0
  147.5665  140.7119  154.3626 C   0  0  0  0  0  0  0  0  0  0  0  0
  147.3791  135.4513  151.4977 H   0  0  0  0  0  0  0  0  0  0  0  0
  147.6186  133.2728  150.4388 H   0  0  0  0  0  0  0  0  0  0  0  0
  146.4793  131.2598  149.5512 H   0  0  0  0  0  0  0  0  0  0  0  0
  143.9797  131.0937  149.7226 H   0  0  0  0  0  0  0  0  0  0  0  0
  142.7340  132.9872  150.7976 H   0  0  0  0  0  0  0  0  0  0  0  0
  147.6816  137.1576  152.3638 H   0  0  0  0  0  0  0  0  0  0  0  0
  145.8231  139.1218  152.8868 H   0  0  0  0  0  0  0  0  0  0  0  0
  145.1395  137.3520  154.6901 H   0  0  0  0  0  0  0  0  0  0  0  0
  146.5464  137.8987  155.5568 H   0  0  0  0  0  0  0  0  0  0  0  0
  144.9726  139.3040  156.4991 H   0  0  0  0  0  0  0  0  0  0  0  0
  145.5065  140.3395  155.1814 H   0  0  0  0  0  0  0  0  0  0  0  0
  143.6928  140.0114  154.1620 H   0  0  0  0  0  0  0  0  0  0  0  0
  148.1912  139.6100  152.6277 H   0  0  0  0  0  0  0  0  0  0  0  0
  148.6013  138.2708  155.3332 H   0  0  0  0  0  0  0  0  0  0  0  0
  149.2196  137.6977  153.8032 H   0  0  0  0  0  0  0  0  0  0  0  0
  150.9786  138.8703  155.0682 H   0  0  0  0  0  0  0  0  0  0  0  0
  150.6561  139.6512  153.5398 H   0  0  0  0  0  0  0  0  0  0  0  0
  149.6232  140.5501  156.2733 H   0  0  0  0  0  0  0  0  0  0  0  0
  150.8486  141.3542  155.3196 H   0  0  0  0  0  0  0  0  0  0  0  0
  148.6233  142.4646  155.0695 H   0  0  0  0  0  0  0  0  0  0  0  0
  149.2060  141.8553  153.5392 H   0  0  0  0  0  0  0  0  0  0  0  0
  146.8325  141.3144  153.8279 H   0  0  0  0  0  0  0  0  0  0  0  0
  147.1403  140.5129  155.3466 H   0  0  0  0  0  0  0  0  0  0  0  0
  1  2  2  0  0  0  0
  2  3  1  0  0  0  0
  2 10  1  0  0  0  0
  3  4  1  0  0  0  0
  3 21  1  0  0  0  0
  4  9  1  0  0  0  0
  4  5  2  0  0  0  0
  5  6  1  0  0  0  0
  5 22  1  0  0  0  0
  6  7  2  0  0  0  0
  6 23  1  0  0  0  0
  7  8  1  0  0  0  0
  7 24  1  0  0  0  0
  8  9  2  0  0  0  0
  8 25  1  0  0  0  0
 10 11  1  0  0  0  0
 10 26  1  0  0  0  0
 11 12  1  0  0  0  0
 11 15  1  0  0  0  0
 11 27  1  0  0  0  0
 12 13  1  0  0  0  0
 12 28  1  0  0  0  0
 12 29  1  0  0  0  0
 13 14  1  0  0  0  0
 13 30  1  0  0  0  0
 13 31  1  0  0  0  0
 14 32  1  0  0  0  0
 15 20  1  0  0  0  0
 15 16  1  0  0  0  0
 15 33  1  0  0  0  0
 16 17  1  0  0  0  0
 16 34  1  0  0  0  0
 16 35  1  0  0  0  0
 17 18  1  0  0  0  0
 17 36  1  0  0  0  0
 17 37  1  0  0  0  0
 18 19  1  0  0  0  0
 18 38  1  0  0  0  0
 18 39  1  0  0  0  0
 19 20  1  0  0  0  0
 19 40  1  0  0  0  0
 19 41  1  0  0  0  0
 20 42  1  0  0  0  0
 20 43  1  0  0  0  0
M  END
> <s_m_source_file>
AV-unprocessed.smi

> <i_m_source_file_index>
2638

> <i_lp_mmshare_version>
43012

> <i_f3d_flags>
0

> <s_epik_input>
bjFbY0hdW2NIXVtjSF1bY0hdYzFbTkhdQyg9TylbTkhdW0NASF0oW0NIMl1bQ0gyXVtPSF0pW0NIXTJbQ0gyXVtDSDJdW0NIMl1bQ0gyXVtDSDJdMg==

> <s_epik_cmdline>
J2VwaWtfcHl0aG9uJywgJy1waCcsICc3LjAnLCAnLXRuJywgJzgnLCAnLW1hJywgJzIwMCcsICctbWV0YWxfYmluZGluZycsICctaW1hZScsICc8aW5maWxlLm1hZT4nLCAnLW9tYWUnLCAnPG91dGZpbGUubWFlPic=

> <r_lp_tautomer_probability>
1

> <r_epik_Ionization_Penalty>
5.22449e-05

> <r_epik_Ionization_Penalty_Charging>
0

> <r_epik_Ionization_Penalty_Neutral>
5.22449e-05

> <r_epik_State_Penalty>
-0

> <r_epik_Charging_Adjusted_Penalty>
0

> <i_epik_Tot_Q>
0

> <i_epik_Tot_abs_Q>
0

> <r_epik_Metal_State_Penalty>
-0

> <b_epik_Metal_Only>
0

> <s_lp_Force_Field>
OPLS_2005

> <r_lp_Energy>
21.512

> <b_lp_Chiralities_Consistent>
1

> <s_lp_Variant>
AV-unprocessed.smi:2638-2

> <Gold.Version>
5.8.1

> <Gold.Id.Protein>
6NUR|6NUR_protein|mol2

> <Gold.PLP.Fitness>
45.5847

> <Gold.PLP.PLP>
-34.3314

> <Gold.PLP.part.hbond>
-3.0000

> <Gold.PLP.part.metal>
0.0000

> <Gold.PLP.part.buried>
-1.7611

> <Gold.PLP.part.nonpolar>
-28.9603

> <Gold.PLP.part.repulsive>
0.4225

> <Gold.PLP.ligand.clash>
0.0000

> <Gold.PLP.ligand.torsion>
0.4289

> <Gold.PLP.Chemscore.Hbond>
3.0000

> <Gold.PLP.Chemscore.CHOScore>
0.9990

> <Gold.PLP.Chemscore.Metal>
0.0000

> <Gold.Chemscore.Hbonds>
donor molecule, donor type, donor heavy atom, donor atom, acceptor molecule, acceptor atom, score
      L1  H     3    21       P1  7948  1.00
      L1  H    10    26       P1  7948  1.00
      L1  H    14    32       P1 10175  1.00
      L1  C     8    25       P1 10186  0.87

> <Gold.PLP.Chemscore.Internal.Correction>
0.1143

> <Gold.Rescore>
     Score         DG    S(hbond)    S(metal)    S(lipo)     H(rot)  DE(clash)    DE(int)     intcor
     16.86     -19.04       2.92        0.00      82.89       2.30       0.09       2.09       ----

> <Gold.Chemscore.Fitness>
16.8605

> <Gold.Chemscore.DG>
-19.0435

> <Gold.Chemscore.ZeroCoef>
-5.4800

> <Gold.Chemscore.Hbond>
2.9181

> <Gold.Chemscore.Metal>
0.0000

> <Gold.Chemscore.Lipo>
82.8858

> <Gold.Chemscore.Internal_Hbond>
0.0000

> <Gold.Chemscore.DEClash>
0.0935

> <Gold.Chemscore.DEInternal>
2.0894

> <Gold.Chemscore.Rot>
2.2972

> <Gold.Chemscore.Internal.Correction>
   9.000000E+99

> <Gold.Chemscore.Hbonds>
donor molecule, donor type, donor heavy atom, donor atom, acceptor molecule, acceptor atom, score
      L1  H     3    21       P1  7948  0.91
      L1  H    10    26       P1  7948  0.98
      L1  H    14    32       P1 10175  0.99

> <Gold.Chemscore.Hbond.Weighted>
-9.7466

> <Gold.Chemscore.Metal.Weighted>
-0.0000

> <Gold.Chemscore.Lipo.Weighted>
-9.6976

> <Gold.Chemscore.Internal_Hbond.Weighted>
0.0000

> <Gold.Chemscore.DEClash.Weighted>
0.0935

> <Gold.Chemscore.DEInternal.Weighted>
2.0894

> <Gold.Chemscore.Rot.Weighted>
5.8807

> <Gold.Chemscore.Internal.Correction.Weighted>
   9.000000E+99

> <Gold.Protein.RotatedTorsions>
[ 6907 6896 6895 6894 ] final -117.93 input  -60.11 | X-H torsion
[ 7974 7965 7964 7962 ] final   95.01 input  175.53 | X-H torsion
[ 8008 7997 7996 7995 ] final -178.50 input   59.86 | X-H torsion
[ 10167 10162 10161 10158 ] final   98.77 input  -65.29 | X-H torsion
[ 10718 10713 10712 10709 ] final  158.91 input   66.30 | X-H torsion
[ 10763 10752 10751 10750 ] final   47.50 input  -60.55 | X-H torsion
[ 11005 11000 10999 10996 ] final   74.20 input  -57.11 | X-H torsion

> <Gold.Protein.ActiveResidues>
 VAL166  LYS551  ARG553  GLY616  TRP617  ASP618  TYR619  PRO620  LYS621  CYS622 
 ASP623  PHE694  ASN695  SER759  ASP760  ASP761  ALA762  ILE779  LEU786  VAL792 
 PHE793  MET794  SER795  GLU796  ALA797  LYS798  CYS799  TRP800  GLU811  SER814 

> <Gold.Protein.RotatedAtoms>
  150.8178  133.8307  159.3152 H   0  0  0  0  0  0  0  0  0  0  0  0  # atno 6907 bound_to 6896
  151.6074  135.1041  160.0083 H   0  0  0  0  0  0  0  0  0  0  0  0  # atno 6908 bound_to 6896
  152.4268  133.7169  159.6567 H   0  0  0  0  0  0  0  0  0  0  0  0  # atno 6909 bound_to 6896
  145.4579  139.2289  143.3004 H   0  0  0  0  0  0  0  0  0  0  0  0  # atno 7974 bound_to 7965
  156.0196  140.1258  157.0371 H   0  0  0  0  0  0  0  0  0  0  0  0  # atno 8008 bound_to 7997
  154.4306  140.1071  156.6014 H   0  0  0  0  0  0  0  0  0  0  0  0  # atno 8009 bound_to 7997
  155.5964  140.3470  155.4583 H   0  0  0  0  0  0  0  0  0  0  0  0  # atno 8010 bound_to 7997
  139.7678  144.6933  151.0199 H   0  0  0  0  0  0  0  0  0  0  0  0  # atno 10167 bound_to 10162
  157.1715  131.0611  151.2180 H   0  0  0  0  0  0  0  0  0  0  0  0  # atno 10718 bound_to 10713
  152.9799  135.5974  154.3773 H   0  0  0  0  0  0  0  0  0  0  0  0  # atno 10763 bound_to 10752
  154.3441  135.2767  155.2409 H   0  0  0  0  0  0  0  0  0  0  0  0  # atno 10764 bound_to 10752
  154.4477  135.5997  153.6226 H   0  0  0  0  0  0  0  0  0  0  0  0  # atno 10765 bound_to 10752
  139.9403  134.7412  156.1118 H   0  0  0  0  0  0  0  0  0  0  0  0  # atno 11005 bound_to 11000
  146.2468  140.5344  142.8910 LP  0  0  0  0  0  0  0  0  0  0  0  0  # atno 17320 bound_to 7965
  144.8021  140.6232  143.6471 LP  0  0  0  0  0  0  0  0  0  0  0  0  # atno 17321 bound_to 7965
  140.7812  143.4623  151.0261 LP  0  0  0  0  0  0  0  0  0  0  0  0  # atno 17342 bound_to 10162
  139.8307  143.7694  152.3179 LP  0  0  0  0  0  0  0  0  0  0  0  0  # atno 17343 bound_to 10162
  157.4039  130.7348  149.6788 LP  0  0  0  0  0  0  0  0  0  0  0  0  # atno 17370 bound_to 10713
  155.9738  130.4113  150.3976 LP  0  0  0  0  0  0  0  0  0  0  0  0  # atno 17371 bound_to 10713
  141.1034  133.6669  156.2807 LP  0  0  0  0  0  0  0  0  0  0  0  0  # atno 17394 bound_to 11000
  140.5970  134.5593  157.5510 LP  0  0  0  0  0  0  0  0  0  0  0  0  # atno 17395 bound_to 11000

$$$$
