AV-unprocessed.smi:1100|AV-procd|sdf|4763|dock6
  -GOLD-   22720 3303D 1   1.00000     0.00000
 Structure written by MMmdl.
 43 44  0  0  0  0  0  0  0  0  3 V2000
  147.3695  139.8001  153.3866 C   0  0  0  0  0  0  0  0  0  0  0  0
  147.1622  141.3267  153.5531 C   0  0  2  0  0  0  0  0  0  0  0  0
  148.3252  142.0512  154.2872 C   0  0  0  0  0  0  0  0  0  0  0  0
  149.5396  141.2333  154.2926 N   0  5  0  0  0  0  0  0  0  0  0  0
  150.4333  141.1699  155.3178 C   0  0  0  0  0  0  0  0  0  0  0  0
  151.1779  140.2243  155.5993 O   0  0  0  0  0  0  0  0  0  0  0  0
  150.4427  142.3060  156.0430 N   0  0  0  0  0  0  0  0  0  0  0  0
  151.1651  142.6435  157.1993 C   0  0  0  0  0  0  0  0  0  0  0  0
  151.8162  141.5676  157.9161 C   0  0  0  0  0  0  0  0  0  0  0  0
  152.5437  141.8047  159.0249 C   0  0  0  0  0  0  0  0  0  0  0  0
  152.7107  143.1595  159.5552 C   0  0  0  0  0  0  0  0  0  0  0  0
  153.3693  143.3916  160.5696 O   0  0  0  0  0  0  0  0  0  0  0  0
  152.0897  144.1487  158.8504 N   0  0  0  0  0  0  0  0  0  0  0  0
  152.2043  145.5395  159.2974 C   0  0  0  0  0  0  0  0  0  0  0  0
  151.3339  143.8917  157.6899 C   0  0  0  0  0  0  0  0  0  0  0  0
  145.8497  141.6711  154.1835 N   0  3  0  0  0  0  0  0  0  0  0  0
  145.5688  140.9080  155.4250 C   0  0  0  0  0  0  0  0  0  0  0  0
  144.1320  141.1782  155.9031 C   0  0  0  0  0  0  0  0  0  0  0  0
  143.9402  142.5748  156.0949 O   0  0  0  0  0  0  0  0  0  0  0  0
  144.1279  143.3092  154.8911 C   0  0  0  0  0  0  0  0  0  0  0  0
  145.5703  143.1190  154.3961 C   0  0  0  0  0  0  0  0  0  0  0  0
  148.2530  139.5741  152.7870 H   0  0  0  0  0  0  0  0  0  0  0  0
  146.5228  139.3479  152.8698 H   0  0  0  0  0  0  0  0  0  0  0  0
  147.4853  139.2828  154.3406 H   0  0  0  0  0  0  0  0  0  0  0  0
  147.1363  141.7472  152.5466 H   0  0  0  0  0  0  0  0  0  0  0  0
  148.4978  143.0161  153.8074 H   0  0  0  0  0  0  0  0  0  0  0  0
  148.0078  142.2936  155.3015 H   0  0  0  0  0  0  0  0  0  0  0  0
  149.8365  143.0368  155.7002 H   0  0  0  0  0  0  0  0  0  0  0  0
  151.7181  140.5527  157.5587 H   0  0  0  0  0  0  0  0  0  0  0  0
  153.0153  140.9779  159.5352 H   0  0  0  0  0  0  0  0  0  0  0  0
  151.6628  146.2371  158.6577 H   0  0  0  0  0  0  0  0  0  0  0  0
  153.2494  145.8532  159.3073 H   0  0  0  0  0  0  0  0  0  0  0  0
  151.8068  145.6511  160.3073 H   0  0  0  0  0  0  0  0  0  0  0  0
  150.9258  144.7818  157.2399 H   0  0  0  0  0  0  0  0  0  0  0  0
  145.6907  139.8389  155.2457 H   0  0  0  0  0  0  0  0  0  0  0  0
  146.2836  141.1882  156.2001 H   0  0  0  0  0  0  0  0  0  0  0  0
  143.4056  140.7965  155.1841 H   0  0  0  0  0  0  0  0  0  0  0  0
  143.9462  140.6629  156.8457 H   0  0  0  0  0  0  0  0  0  0  0  0
  143.4094  142.9874  154.1355 H   0  0  0  0  0  0  0  0  0  0  0  0
  143.9341  144.3639  155.0867 H   0  0  0  0  0  0  0  0  0  0  0  0
  146.2583  143.5328  155.1343 H   0  0  0  0  0  0  0  0  0  0  0  0
  145.7140  143.6798  153.4722 H   0  0  0  0  0  0  0  0  0  0  0  0
  145.1611  141.3499  153.5176 H   0  0  0  0  0  0  0  0  0  0  0  0
  1  2  1  0  0  0  0
  1 22  1  0  0  0  0
  1 23  1  0  0  0  0
  1 24  1  0  0  0  0
  2  3  1  0  0  0  0
  2 16  1  0  0  0  0
  2 25  1  0  0  0  0
  3  4  1  0  0  0  0
  3 26  1  0  0  0  0
  3 27  1  0  0  0  0
  4  5  1  0  0  0  0
  5  6  2  0  0  0  0
  5  7  1  0  0  0  0
  7  8  1  0  0  0  0
  7 28  1  0  0  0  0
  8 15  2  0  0  0  0
  8  9  1  0  0  0  0
  9 10  2  0  0  0  0
  9 29  1  0  0  0  0
 10 11  1  0  0  0  0
 10 30  1  0  0  0  0
 11 12  2  0  0  0  0
 11 13  1  0  0  0  0
 13 14  1  0  0  0  0
 13 15  1  0  0  0  0
 14 31  1  0  0  0  0
 14 32  1  0  0  0  0
 14 33  1  0  0  0  0
 15 34  1  0  0  0  0
 16 21  1  0  0  0  0
 16 17  1  0  0  0  0
 16 43  1  0  0  0  0
 17 18  1  0  0  0  0
 17 35  1  0  0  0  0
 17 36  1  0  0  0  0
 18 19  1  0  0  0  0
 18 37  1  0  0  0  0
 18 38  1  0  0  0  0
 19 20  1  0  0  0  0
 20 21  1  0  0  0  0
 20 39  1  0  0  0  0
 20 40  1  0  0  0  0
 21 41  1  0  0  0  0
 21 42  1  0  0  0  0
M  CHG  1   4  -1
M  CHG  1  16   1
M  END
> <s_m_source_file>
AV-unprocessed.smi

> <i_m_source_file_index>
1100

> <i_lp_mmshare_version>
43012

> <i_f3d_flags>
0

> <s_epik_input>
W0NIMl0xW0NIMl1PW0NIMl1bQ0gyXU4xW0NASF0oW0NIM10pW0NIMl1bTkhdQyg9TylbTkhdYzJbY0hdW2NIXWMoPU8pbihbQ0gzXSlbY0hdMg==

> <s_epik_cmdline>
J2VwaWtfcHl0aG9uJywgJy1waCcsICc3LjAnLCAnLXRuJywgJzgnLCAnLW1hJywgJzIwMCcsICctbWV0YWxfYmluZGluZycsICctaW1hZScsICc8aW5maWxlLm1hZT4nLCAnLW9tYWUnLCAnPG91dGZpbGUubWFlPic=

> <r_lp_tautomer_probability>
1

> <r_epik_Ionization_Penalty>
6.79272

> <r_epik_Ionization_Penalty_Charging>
6.79272

> <r_epik_Ionization_Penalty_Neutral>
3.37009e-06

> <r_epik_State_Penalty>
7.34577

> <r_epik_Charging_Adjusted_Penalty>
14.1385

> <i_epik_Tot_Q>
0

> <i_epik_Tot_abs_Q>
2

> <r_epik_Metal_State_Penalty>
3.26257

> <b_epik_Metal_Only>
1

> <s_lp_Force_Field>
OPLS_2005

> <r_lp_Energy>
31.7412

> <b_lp_Chiralities_Consistent>
1

> <s_lp_Variant>
AV-unprocessed.smi:1100-5

> <Gold.Version>
5.8.1

> <Gold.Id.Protein>
6NUR|6NUR_protein|mol2

> <Gold.PLP.Fitness>
50.1929

> <Gold.PLP.PLP>
-40.4115

> <Gold.PLP.part.hbond>
-3.8214

> <Gold.PLP.part.metal>
0.0000

> <Gold.PLP.part.buried>
-1.3977

> <Gold.PLP.part.nonpolar>
-35.5165

> <Gold.PLP.part.repulsive>
0.3794

> <Gold.PLP.ligand.clash>
0.0000

> <Gold.PLP.ligand.torsion>
1.0381

> <Gold.PLP.Chemscore.Hbond>
3.0067

> <Gold.PLP.Chemscore.CHOScore>
0.8998

> <Gold.PLP.Chemscore.Metal>
0.0000

> <Gold.Chemscore.Hbonds>
donor molecule, donor type, donor heavy atom, donor atom, acceptor molecule, acceptor atom, score
      L1  H     7    28       P1  8028  1.00
      L1  H    16    43       P1 10175  1.90
      L1  C    15    34       P1  8028  0.86

> <Gold.PLP.Chemscore.Internal.Correction>
0.1381

> <Gold.Rescore>
     Score         DG    S(hbond)    S(metal)    S(lipo)     H(rot)  DE(clash)    DE(int)     intcor
     14.48     -16.99       1.91        0.00      76.85       1.51       0.07       2.44       ----

> <Gold.Chemscore.Fitness>
14.4842

> <Gold.Chemscore.DG>
-16.9942

> <Gold.Chemscore.ZeroCoef>
-5.4800

> <Gold.Chemscore.Hbond>
1.9147

> <Gold.Chemscore.Metal>
0.0000

> <Gold.Chemscore.Lipo>
76.8527

> <Gold.Chemscore.Internal_Hbond>
0.0000

> <Gold.Chemscore.DEClash>
0.0700

> <Gold.Chemscore.DEInternal>
2.4400

> <Gold.Chemscore.Rot>
1.5128

> <Gold.Chemscore.Internal.Correction>
   9.000000E+99

> <Gold.Chemscore.Hbonds>
donor molecule, donor type, donor heavy atom, donor atom, acceptor molecule, acceptor atom, score
      L1  H     7    28       P1  8028  0.99
      L1  H    16    43       P1 10175  0.21

> <Gold.Chemscore.Hbond.Weighted>
-6.3951

> <Gold.Chemscore.Metal.Weighted>
-0.0000

> <Gold.Chemscore.Lipo.Weighted>
-8.9918

> <Gold.Chemscore.Internal_Hbond.Weighted>
0.0000

> <Gold.Chemscore.DEClash.Weighted>
0.0700

> <Gold.Chemscore.DEInternal.Weighted>
2.4400

> <Gold.Chemscore.Rot.Weighted>
3.8726

> <Gold.Chemscore.Internal.Correction.Weighted>
   9.000000E+99

> <Gold.Protein.RotatedTorsions>
[ 6907 6896 6895 6894 ] final   55.16 input  -60.11 | X-H torsion
[ 7974 7965 7964 7962 ] final -155.18 input  175.53 | X-H torsion
[ 8008 7997 7996 7995 ] final  -90.15 input   59.86 | X-H torsion
[ 10167 10162 10161 10158 ] final   60.91 input  -65.29 | X-H torsion
[ 10718 10713 10712 10709 ] final  161.91 input   66.30 | X-H torsion
[ 10763 10752 10751 10750 ] final  -43.92 input  -60.55 | X-H torsion
[ 11005 11000 10999 10996 ] final -125.64 input  -57.11 | X-H torsion

> <Gold.Protein.ActiveResidues>
 VAL166  LYS551  ARG553  GLY616  TRP617  ASP618  TYR619  PRO620  LYS621  CYS622 
 ASP623  PHE694  ASN695  SER759  ASP760  ASP761  ALA762  ILE779  LEU786  VAL792 
 PHE793  MET794  SER795  GLU796  ALA797  LYS798  CYS799  TRP800  GLU811  SER814 

> <Gold.Protein.RotatedAtoms>
  152.3511  134.7005  160.0235 H   0  0  0  0  0  0  0  0  0  0  0  0  # atno 6907 bound_to 6896
  151.7358  133.3314  159.3360 H   0  0  0  0  0  0  0  0  0  0  0  0  # atno 6908 bound_to 6896
  150.7540  134.6255  159.6203 H   0  0  0  0  0  0  0  0  0  0  0  0  # atno 6909 bound_to 6896
  144.7653  140.4285  143.5947 H   0  0  0  0  0  0  0  0  0  0  0  0  # atno 7974 bound_to 7965
  154.6951  140.0533  157.0402 H   0  0  0  0  0  0  0  0  0  0  0  0  # atno 8008 bound_to 7997
  155.0762  140.3205  155.4596 H   0  0  0  0  0  0  0  0  0  0  0  0  # atno 8009 bound_to 7997
  156.2741  140.2073  156.5890 H   0  0  0  0  0  0  0  0  0  0  0  0  # atno 8010 bound_to 7997
  140.1605  144.4375  150.6712 H   0  0  0  0  0  0  0  0  0  0  0  0  # atno 10167 bound_to 10162
  157.1299  131.0514  151.2376 H   0  0  0  0  0  0  0  0  0  0  0  0  # atno 10718 bound_to 10713
  154.0035  135.6690  153.4760 H   0  0  0  0  0  0  0  0  0  0  0  0  # atno 10763 bound_to 10752
  153.0652  135.5005  154.8179 H   0  0  0  0  0  0  0  0  0  0  0  0  # atno 10764 bound_to 10752
  154.7038  135.3084  154.9264 H   0  0  0  0  0  0  0  0  0  0  0  0  # atno 10765 bound_to 10752
  140.9746  134.0758  157.3833 H   0  0  0  0  0  0  0  0  0  0  0  0  # atno 11005 bound_to 11000
  145.6491  139.1562  143.2872 LP  0  0  0  0  0  0  0  0  0  0  0  0  # atno 17320 bound_to 7965
  146.1754  140.6581  142.9214 LP  0  0  0  0  0  0  0  0  0  0  0  0  # atno 17321 bound_to 7965
  140.6646  143.2263  151.5773 LP  0  0  0  0  0  0  0  0  0  0  0  0  # atno 17342 bound_to 10162
  139.5383  144.2717  152.1299 LP  0  0  0  0  0  0  0  0  0  0  0  0  # atno 17343 bound_to 10162
  157.4402  130.7539  149.7063 LP  0  0  0  0  0  0  0  0  0  0  0  0  # atno 17370 bound_to 10713
  155.9810  130.4023  150.3495 LP  0  0  0  0  0  0  0  0  0  0  0  0  # atno 17371 bound_to 10713
  139.8925  135.0125  156.6851 LP  0  0  0  0  0  0  0  0  0  0  0  0  # atno 17394 bound_to 11000
  140.7278  133.9085  155.8191 LP  0  0  0  0  0  0  0  0  0  0  0  0  # atno 17395 bound_to 11000

$$$$
