AV-unprocessed.smi:2556|AV-procd|sdf|10023|dock8
  -GOLD-   2272014 63D 1   1.00000     0.00000
 Structure written by MMmdl.
 35 37  0  0  0  0  0  0  0  0  1 V2000
  148.8177  138.1761  153.4212 C   0  0  0  0  0  0  0  0  0  0  0  0
  149.9661  138.5151  154.2640 N   0  0  0  0  0  0  0  0  0  0  0  0
  150.9981  137.6338  154.4750 C   0  0  0  0  0  0  0  0  0  0  0  0
  151.0281  136.5123  153.9692 O   0  0  0  0  0  0  0  0  0  0  0  0
  152.0251  138.0387  155.2843 N   0  0  0  0  0  0  0  0  0  0  0  0
  152.1549  139.2286  155.9206 C   0  0  0  0  0  0  0  0  0  0  0  0
  153.1129  139.5169  156.6345 O   0  0  0  0  0  0  0  0  0  0  0  0
  151.0316  140.1376  155.6666 C   0  0  0  0  0  0  0  0  0  0  0  0
  149.9817  139.8008  154.8725 C   0  0  0  0  0  0  0  0  0  0  0  0
  149.0583  140.8371  154.7926 N   0  0  0  0  0  0  0  0  0  0  0  0
  149.6192  141.7697  155.5647 C   0  0  0  0  0  0  0  0  0  0  0  0
  150.7990  141.4323  156.1252 N   0  0  0  0  0  0  0  0  0  0  0  0
  151.6044  142.2686  157.0018 C   0  0  0  0  0  0  0  0  0  0  0  0
  150.8963  142.5915  158.3331 C   0  0  2  0  0  0  0  0  0  0  0  0
  150.3103  143.8777  158.2789 O   0  0  0  0  0  0  0  0  0  0  0  0
  151.8465  142.4463  159.5109 C   0  0  0  0  0  0  0  0  0  0  0  0
  151.8821  143.4358  160.5170 C   0  0  0  0  0  0  0  0  0  0  0  0
  152.7544  143.3005  161.6147 C   0  0  0  0  0  0  0  0  0  0  0  0
  153.5938  142.1744  161.7139 C   0  0  0  0  0  0  0  0  0  0  0  0
  153.5601  141.1824  160.7153 C   0  0  0  0  0  0  0  0  0  0  0  0
  152.6889  141.3176  159.6169 C   0  0  0  0  0  0  0  0  0  0  0  0
  152.7723  137.3743  155.4231 H   0  0  0  0  0  0  0  0  0  0  0  0
  148.8942  137.2027  152.9358 H   0  0  0  0  0  0  0  0  0  0  0  0
  148.6997  138.9216  152.6342 H   0  0  0  0  0  0  0  0  0  0  0  0
  147.9063  138.1739  154.0197 H   0  0  0  0  0  0  0  0  0  0  0  0
  149.1564  142.7320  155.7284 H   0  0  0  0  0  0  0  0  0  0  0  0
  152.5367  141.7392  157.2029 H   0  0  0  0  0  0  0  0  0  0  0  0
  151.8869  143.1797  156.4751 H   0  0  0  0  0  0  0  0  0  0  0  0
  150.0752  141.8862  158.4687 H   0  0  0  0  0  0  0  0  0  0  0  0
  149.9633  144.0119  157.4103 H   0  0  0  0  0  0  0  0  0  0  0  0
  151.2403  144.3025  160.4522 H   0  0  0  0  0  0  0  0  0  0  0  0
  152.7786  144.0604  162.3818 H   0  0  0  0  0  0  0  0  0  0  0  0
  154.2617  142.0707  162.5562 H   0  0  0  0  0  0  0  0  0  0  0  0
  154.2012  140.3167  160.7924 H   0  0  0  0  0  0  0  0  0  0  0  0
  152.6664  140.5501  158.8567 H   0  0  0  0  0  0  0  0  0  0  0  0
  1  2  1  0  0  0  0
  1 23  1  0  0  0  0
  1 24  1  0  0  0  0
  1 25  1  0  0  0  0
  2  9  1  0  0  0  0
  2  3  1  0  0  0  0
  3  4  2  0  0  0  0
  3  5  1  0  0  0  0
  5 22  1  0  0  0  0
  5  6  1  0  0  0  0
  6  7  2  0  0  0  0
  6  8  1  0  0  0  0
  8 12  1  0  0  0  0
  8  9  2  0  0  0  0
  9 10  1  0  0  0  0
 10 11  2  0  0  0  0
 11 12  1  0  0  0  0
 11 26  1  0  0  0  0
 12 13  1  0  0  0  0
 13 14  1  0  0  0  0
 13 27  1  0  0  0  0
 13 28  1  0  0  0  0
 14 15  1  0  0  0  0
 14 16  1  0  0  0  0
 14 29  1  0  0  0  0
 15 30  1  0  0  0  0
 16 21  1  0  0  0  0
 16 17  2  0  0  0  0
 17 18  1  0  0  0  0
 17 31  1  0  0  0  0
 18 19  2  0  0  0  0
 18 32  1  0  0  0  0
 19 20  1  0  0  0  0
 19 33  1  0  0  0  0
 20 21  2  0  0  0  0
 20 34  1  0  0  0  0
 21 35  1  0  0  0  0
M  END
> <s_m_source_file>
AV-unprocessed.smi

> <i_m_source_file_index>
2556

> <i_lp_mmshare_version>
43012

> <i_f3d_flags>
0

> <s_epik_input>
Tz1jMVtuSF1jKD1PKW4oW0NIM10pYyhjMTIpbltjSF1uMltDSDJdW0NASF0oW09IXSljM1tjSF1bY0hdW2NIXVtjSF1bY0hdMw==

> <s_epik_cmdline>
J2VwaWtfcHl0aG9uJywgJy1waCcsICc3LjAnLCAnLXRuJywgJzgnLCAnLW1hJywgJzIwMCcsICctbWV0YWxfYmluZGluZycsICctaW1hZScsICc8aW5maWxlLm1hZT4nLCAnLW9tYWUnLCAnPG91dGZpbGUubWFlPic=

> <r_lp_tautomer_probability>
1

> <r_epik_Ionization_Penalty>
0.000177505

> <r_epik_Ionization_Penalty_Charging>
0.000176585

> <r_epik_Ionization_Penalty_Neutral>
9.19728e-07

> <r_epik_State_Penalty>
-0

> <r_epik_Charging_Adjusted_Penalty>
0.000176585

> <i_epik_Tot_Q>
0

> <i_epik_Tot_abs_Q>
0

> <r_epik_Metal_State_Penalty>
0.122509

> <b_epik_Metal_Only>
0

> <s_lp_Force_Field>
OPLS_2005

> <r_lp_Energy>
28.9299

> <b_lp_Chiralities_Consistent>
1

> <s_lp_Variant>
AV-unprocessed.smi:2556-1

> <Gold.Version>
5.8.1

> <Gold.Id.Protein>
6NUR|6NUR_protein|mol2

> <Gold.PLP.Fitness>
49.1740

> <Gold.PLP.PLP>
-39.0649

> <Gold.PLP.part.hbond>
-3.6529

> <Gold.PLP.part.metal>
0.0000

> <Gold.PLP.part.buried>
0.1853

> <Gold.PLP.part.nonpolar>
-36.7722

> <Gold.PLP.part.repulsive>
1.3475

> <Gold.PLP.ligand.clash>
0.0000

> <Gold.PLP.ligand.torsion>
0.8849

> <Gold.PLP.Chemscore.Hbond>
2.9516

> <Gold.PLP.Chemscore.CHOScore>
1.0000

> <Gold.PLP.Chemscore.Metal>
0.0000

> <Gold.Chemscore.Hbonds>
donor molecule, donor type, donor heavy atom, donor atom, acceptor molecule, acceptor atom, score
      L1  H    15    30       P1  8028  0.70
      P1  H  7997  8008       L1     7  0.75
      P1  H 10752 10764       L1     4  0.78
      L1  C    11    26       P1  8028  0.94

> <Gold.PLP.Chemscore.Internal.Correction>
0.0241

> <Gold.Rescore>
     Score         DG    S(hbond)    S(metal)    S(lipo)     H(rot)  DE(clash)    DE(int)     intcor
     15.64     -18.98       2.58        0.00      92.16       2.31       2.46       0.88       ----

> <Gold.Chemscore.Fitness>
15.6387

> <Gold.Chemscore.DG>
-18.9767

> <Gold.Chemscore.ZeroCoef>
-5.4800

> <Gold.Chemscore.Hbond>
2.5843

> <Gold.Chemscore.Metal>
0.0000

> <Gold.Chemscore.Lipo>
92.1589

> <Gold.Chemscore.Internal_Hbond>
0.0000

> <Gold.Chemscore.DEClash>
2.4601

> <Gold.Chemscore.DEInternal>
0.8778

> <Gold.Chemscore.Rot>
2.3115

> <Gold.Chemscore.Internal.Correction>
   9.000000E+99

> <Gold.Chemscore.Hbonds>
donor molecule, donor type, donor heavy atom, donor atom, acceptor molecule, acceptor atom, score
      L1  H    15    30       P1  8028  0.45
      P1  H  7997  8008       L1     7  0.70
      P1  H 10752 10764       L1     4  0.54

> <Gold.Chemscore.Hbond.Weighted>
-8.6315

> <Gold.Chemscore.Metal.Weighted>
-0.0000

> <Gold.Chemscore.Lipo.Weighted>
-10.7826

> <Gold.Chemscore.Internal_Hbond.Weighted>
0.0000

> <Gold.Chemscore.DEClash.Weighted>
2.4601

> <Gold.Chemscore.DEInternal.Weighted>
0.8778

> <Gold.Chemscore.Rot.Weighted>
5.9174

> <Gold.Chemscore.Internal.Correction.Weighted>
   9.000000E+99

> <Gold.Protein.RotatedTorsions>
[ 6907 6896 6895 6894 ] final  167.48 input  -60.11 | X-H torsion
[ 7974 7965 7964 7962 ] final  138.29 input  175.53 | X-H torsion
[ 8008 7997 7996 7995 ] final  -81.17 input   59.86 | X-H torsion
[ 10167 10162 10161 10158 ] final  -14.82 input  -65.29 | X-H torsion
[ 10718 10713 10712 10709 ] final  -52.47 input   66.30 | X-H torsion
[ 10763 10752 10751 10750 ] final  -73.01 input  -60.55 | X-H torsion
[ 11005 11000 10999 10996 ] final  -89.75 input  -57.11 | X-H torsion

> <Gold.Protein.ActiveResidues>
 VAL166  LYS551  ARG553  GLY616  TRP617  ASP618  TYR619  PRO620  LYS621  CYS622 
 ASP623  PHE694  ASN695  SER759  ASP760  ASP761  ALA762  ILE779  LEU786  VAL792 
 PHE793  MET794  SER795  GLU796  ALA797  LYS798  CYS799  TRP800  GLU811  SER814 

> <Gold.Protein.RotatedAtoms>
  151.8626  133.3460  159.3708 H   0  0  0  0  0  0  0  0  0  0  0  0  # atno 6907 bound_to 6896
  150.7175  134.5191  159.5654 H   0  0  0  0  0  0  0  0  0  0  0  0  # atno 6908 bound_to 6896
  152.2708  134.7935  160.0465 H   0  0  0  0  0  0  0  0  0  0  0  0  # atno 6909 bound_to 6896
  144.9386  139.4958  143.5583 H   0  0  0  0  0  0  0  0  0  0  0  0  # atno 7974 bound_to 7965
  154.5956  140.0652  156.9299 H   0  0  0  0  0  0  0  0  0  0  0  0  # atno 8008 bound_to 7997
  155.2219  140.3331  155.4296 H   0  0  0  0  0  0  0  0  0  0  0  0  # atno 8009 bound_to 7997
  156.2285  140.1830  156.7287 H   0  0  0  0  0  0  0  0  0  0  0  0  # atno 8010 bound_to 7997
  140.7208  143.5282  150.9551 H   0  0  0  0  0  0  0  0  0  0  0  0  # atno 10167 bound_to 10162
  156.1619  130.4149  149.9780 H   0  0  0  0  0  0  0  0  0  0  0  0  # atno 10718 bound_to 10713
  154.4536  135.5911  153.6208 H   0  0  0  0  0  0  0  0  0  0  0  0  # atno 10763 bound_to 10752
  152.9816  135.6027  154.3574 H   0  0  0  0  0  0  0  0  0  0  0  0  # atno 10764 bound_to 10752
  154.3438  135.2841  155.2387 H   0  0  0  0  0  0  0  0  0  0  0  0  # atno 10765 bound_to 10752
  141.1579  133.7649  156.9640 H   0  0  0  0  0  0  0  0  0  0  0  0  # atno 11005 bound_to 11000
  146.3276  139.8389  142.8894 LP  0  0  0  0  0  0  0  0  0  0  0  0  # atno 17320 bound_to 7965
  145.3027  141.0198  143.3599 LP  0  0  0  0  0  0  0  0  0  0  0  0  # atno 17321 bound_to 7965
  139.9002  143.6845  152.3132 LP  0  0  0  0  0  0  0  0  0  0  0  0  # atno 17342 bound_to 10162
  139.7192  144.7606  151.0983 LP  0  0  0  0  0  0  0  0  0  0  0  0  # atno 17343 bound_to 10162
  156.7607  130.9150  151.3641 LP  0  0  0  0  0  0  0  0  0  0  0  0  # atno 17370 bound_to 10713
  157.6739  130.9076  150.0104 LP  0  0  0  0  0  0  0  0  0  0  0  0  # atno 17371 bound_to 10713
  140.1174  134.9439  157.2154 LP  0  0  0  0  0  0  0  0  0  0  0  0  # atno 17394 bound_to 11000
  140.3116  134.3017  155.7265 LP  0  0  0  0  0  0  0  0  0  0  0  0  # atno 17395 bound_to 11000

$$$$
