AV-unprocessed.smi:1627|AV-procd|sdf|6518|dock4
  -GOLD-   22720 7193D 1   1.00000     0.00000
 Structure written by MMmdl.
 44 45  0  0  0  0  0  0  0  0  2 V2000
  154.9229  133.8892  160.7446 C   0  0  0  0  0  0  0  0  0  0  0  0
  155.4630  135.2526  161.2012 C   0  0  2  0  0  0  0  0  0  0  0  0
  155.5233  135.2346  162.6249 O   0  0  0  0  0  0  0  0  0  0  0  0
  154.2869  134.9914  163.2887 C   0  0  0  0  0  0  0  0  0  0  0  0
  154.4333  133.7686  164.2023 C   0  0  0  0  0  0  0  0  0  0  0  0
  153.3522  133.6655  164.9744 F   0  0  0  0  0  0  0  0  0  0  0  0
  154.5451  132.6598  163.4716 F   0  0  0  0  0  0  0  0  0  0  0  0
  155.5052  133.9017  164.9832 F   0  0  0  0  0  0  0  0  0  0  0  0
  154.5597  136.3996  160.7191 C   0  0  0  0  0  0  0  0  0  0  0  0
  153.5274  136.1390  160.1030 O   0  0  0  0  0  0  0  0  0  0  0  0
  154.9805  137.6412  161.0270 N   0  0  0  0  0  0  0  0  0  0  0  0
  154.3810  138.8988  160.7372 C   0  0  0  0  0  0  0  0  0  0  0  0
  155.0557  140.0562  161.1842 C   0  0  0  0  0  0  0  0  0  0  0  0
  154.5068  141.3307  160.9345 C   0  0  0  0  0  0  0  0  0  0  0  0
  153.2808  141.4312  160.2392 C   0  0  0  0  0  0  0  0  0  0  0  0
  152.6551  142.6505  159.9488 N   0  0  0  0  0  0  0  0  0  0  0  0
  153.4031  143.4600  158.9900 C   0  0  0  0  0  0  0  0  0  0  0  0
  152.5893  144.6938  158.5619 C   0  0  0  0  0  0  0  0  0  0  0  0
  152.1332  145.5041  159.7860 C   0  0  0  0  0  0  0  0  0  0  0  0
  151.3770  144.5973  160.7700 C   0  0  0  0  0  0  0  0  0  0  0  0
  152.2239  143.3692  161.1452 C   0  0  0  0  0  0  0  0  0  0  0  0
  152.6627  140.3032  159.8287 N   0  3  0  0  0  0  0  0  0  0  0  0
  153.1538  139.0638  160.0472 C   0  0  0  0  0  0  0  0  0  0  0  0
  154.8370  133.8405  159.6585 H   0  0  0  0  0  0  0  0  0  0  0  0
  153.9394  133.6826  161.1684 H   0  0  0  0  0  0  0  0  0  0  0  0
  155.5899  133.0857  161.0578 H   0  0  0  0  0  0  0  0  0  0  0  0
  156.4698  135.3738  160.7965 H   0  0  0  0  0  0  0  0  0  0  0  0
  154.0071  135.8625  163.8830 H   0  0  0  0  0  0  0  0  0  0  0  0
  153.4850  134.8144  162.5711 H   0  0  0  0  0  0  0  0  0  0  0  0
  155.8612  137.6888  161.5187 H   0  0  0  0  0  0  0  0  0  0  0  0
  155.9915  139.9722  161.7173 H   0  0  0  0  0  0  0  0  0  0  0  0
  155.0230  142.2167  161.2753 H   0  0  0  0  0  0  0  0  0  0  0  0
  154.3464  143.7767  159.4372 H   0  0  0  0  0  0  0  0  0  0  0  0
  153.6501  142.8583  158.1143 H   0  0  0  0  0  0  0  0  0  0  0  0
  153.1826  145.3211  157.8961 H   0  0  0  0  0  0  0  0  0  0  0  0
  151.7163  144.3748  157.9906 H   0  0  0  0  0  0  0  0  0  0  0  0
  153.0006  145.9418  160.2814 H   0  0  0  0  0  0  0  0  0  0  0  0
  151.4992  146.3350  159.4744 H   0  0  0  0  0  0  0  0  0  0  0  0
  151.1102  145.1564  161.6674 H   0  0  0  0  0  0  0  0  0  0  0  0
  150.4395  144.2702  160.3183 H   0  0  0  0  0  0  0  0  0  0  0  0
  151.6454  142.7023  161.7860 H   0  0  0  0  0  0  0  0  0  0  0  0
  153.0976  143.6849  161.7170 H   0  0  0  0  0  0  0  0  0  0  0  0
  152.5350  138.2677  159.6636 H   0  0  0  0  0  0  0  0  0  0  0  0
  151.7770  140.3910  159.3296 H   0  0  0  0  0  0  0  0  0  0  0  0
  1  2  1  0  0  0  0
  1 24  1  0  0  0  0
  1 25  1  0  0  0  0
  1 26  1  0  0  0  0
  2  3  1  0  0  0  0
  2  9  1  0  0  0  0
  2 27  1  0  0  0  0
  3  4  1  0  0  0  0
  4  5  1  0  0  0  0
  4 28  1  0  0  0  0
  4 29  1  0  0  0  0
  5  6  1  0  0  0  0
  5  7  1  0  0  0  0
  5  8  1  0  0  0  0
  9 10  2  0  0  0  0
  9 11  1  0  0  0  0
 11 12  1  0  0  0  0
 11 30  1  0  0  0  0
 12 23  1  0  0  0  0
 12 13  2  0  0  0  0
 13 14  1  0  0  0  0
 13 31  1  0  0  0  0
 14 15  2  0  0  0  0
 14 32  1  0  0  0  0
 15 16  1  0  0  0  0
 15 22  1  0  0  0  0
 16 21  1  0  0  0  0
 16 17  1  0  0  0  0
 17 18  1  0  0  0  0
 17 33  1  0  0  0  0
 17 34  1  0  0  0  0
 18 19  1  0  0  0  0
 18 35  1  0  0  0  0
 18 36  1  0  0  0  0
 19 20  1  0  0  0  0
 19 37  1  0  0  0  0
 19 38  1  0  0  0  0
 20 21  1  0  0  0  0
 20 39  1  0  0  0  0
 20 40  1  0  0  0  0
 21 41  1  0  0  0  0
 21 42  1  0  0  0  0
 22 23  2  0  0  0  0
 22 44  1  0  0  0  0
 23 43  1  0  0  0  0
M  CHG  1  22   1
M  END
> <s_m_source_file>
AV-unprocessed.smi

> <i_m_source_file_index>
1627

> <i_lp_mmshare_version>
43012

> <i_f3d_flags>
0

> <s_epik_input>
RkMoRikoRilbQ0gyXU9bQ0BASF0oW0NIM10pQyg9TylbTkhdYzFbY0hdW2NIXWMobltjSF0xKU4yW0NIMl1bQ0gyXVtDSDJdW0NIMl1bQ0gyXTI=

> <s_epik_cmdline>
J2VwaWtfcHl0aG9uJywgJy1waCcsICc3LjAnLCAnLXRuJywgJzgnLCAnLW1hJywgJzIwMCcsICctbWV0YWxfYmluZGluZycsICctaW1hZScsICc8aW5maWxlLm1hZT4nLCAnLW9tYWUnLCAnPG91dGZpbGUubWFlPic=

> <r_lp_tautomer_probability>
0.999994

> <r_epik_Ionization_Penalty>
1.93197

> <r_epik_Ionization_Penalty_Charging>
1.93197

> <r_epik_Ionization_Penalty_Neutral>
3.16684e-06

> <r_epik_State_Penalty>
2.05557

> <r_epik_Charging_Adjusted_Penalty>
3.98754

> <i_epik_Tot_Q>
1

> <i_epik_Tot_abs_Q>
1

> <r_epik_Metal_State_Penalty>
2.08108

> <b_epik_Metal_Only>
0

> <s_lp_Force_Field>
OPLS_2005

> <r_lp_Energy>
33.3851

> <b_lp_Chiralities_Consistent>
1

> <s_lp_Variant>
AV-unprocessed.smi:1627-3

> <Gold.Version>
5.8.1

> <Gold.Id.Protein>
6NUR|6NUR_protein|mol2

> <Gold.PLP.Fitness>
46.3495

> <Gold.PLP.PLP>
-44.2288

> <Gold.PLP.part.hbond>
-1.0000

> <Gold.PLP.part.metal>
0.0000

> <Gold.PLP.part.buried>
-4.8249

> <Gold.PLP.part.nonpolar>
-38.6253

> <Gold.PLP.part.repulsive>
0.1276

> <Gold.PLP.ligand.clash>
0.0000

> <Gold.PLP.ligand.torsion>
0.5391

> <Gold.PLP.Chemscore.Hbond>
1.0000

> <Gold.PLP.Chemscore.CHOScore>
0.0000

> <Gold.PLP.Chemscore.Metal>
0.0000

> <Gold.Chemscore.Hbonds>
donor molecule, donor type, donor heavy atom, donor atom, acceptor molecule, acceptor atom, score
      P1  H  6896  6907       L1    10  1.00

> <Gold.PLP.Chemscore.Internal.Correction>
0.1988

> <Gold.Rescore>
     Score         DG    S(hbond)    S(metal)    S(lipo)     H(rot)  DE(clash)    DE(int)     intcor
     14.92     -16.77       1.00        0.00     109.50       1.90       0.16       1.68       ----

> <Gold.Chemscore.Fitness>
14.9222

> <Gold.Chemscore.DG>
-16.7663

> <Gold.Chemscore.ZeroCoef>
-5.4800

> <Gold.Chemscore.Hbond>
1.0000

> <Gold.Chemscore.Metal>
0.0000

> <Gold.Chemscore.Lipo>
109.5041

> <Gold.Chemscore.Internal_Hbond>
0.0000

> <Gold.Chemscore.DEClash>
0.1596

> <Gold.Chemscore.DEInternal>
1.6845

> <Gold.Chemscore.Rot>
1.9007

> <Gold.Chemscore.Internal.Correction>
   9.000000E+99

> <Gold.Chemscore.Hbonds>
donor molecule, donor type, donor heavy atom, donor atom, acceptor molecule, acceptor atom, score
      P1  H  6896  6907       L1    10  1.00

> <Gold.Chemscore.Hbond.Weighted>
-3.3400

> <Gold.Chemscore.Metal.Weighted>
-0.0000

> <Gold.Chemscore.Lipo.Weighted>
-12.8120

> <Gold.Chemscore.Internal_Hbond.Weighted>
0.0000

> <Gold.Chemscore.DEClash.Weighted>
0.1596

> <Gold.Chemscore.DEInternal.Weighted>
1.6845

> <Gold.Chemscore.Rot.Weighted>
4.8657

> <Gold.Chemscore.Internal.Correction.Weighted>
   9.000000E+99

> <Gold.Protein.RotatedTorsions>
[ 6907 6896 6895 6894 ] final   46.37 input  -60.11 | X-H torsion
[ 7974 7965 7964 7962 ] final   36.19 input  175.53 | X-H torsion
[ 8008 7997 7996 7995 ] final   31.12 input   59.86 | X-H torsion
[ 10167 10162 10161 10158 ] final -118.01 input  -65.29 | X-H torsion
[ 10718 10713 10712 10709 ] final    3.50 input   66.30 | X-H torsion
[ 10763 10752 10751 10750 ] final  -80.19 input  -60.55 | X-H torsion
[ 11005 11000 10999 10996 ] final   46.04 input  -57.11 | X-H torsion

> <Gold.Protein.ActiveResidues>
 VAL166  LYS551  ARG553  GLY616  TRP617  ASP618  TYR619  PRO620  LYS621  CYS622 
 ASP623  PHE694  ASN695  SER759  ASP760  ASP761  ALA762  ILE779  LEU786  VAL792 
 PHE793  MET794  SER795  GLU796  ALA797  LYS798  CYS799  TRP800  GLU811  SER814 

> <Gold.Protein.RotatedAtoms>
  152.2555  134.8088  160.0438 H   0  0  0  0  0  0  0  0  0  0  0  0  # atno 6907 bound_to 6896
  151.8753  133.3479  159.3756 H   0  0  0  0  0  0  0  0  0  0  0  0  # atno 6908 bound_to 6896
  150.7098  134.4999  159.5600 H   0  0  0  0  0  0  0  0  0  0  0  0  # atno 6909 bound_to 6896
  146.1229  139.6048  142.9278 H   0  0  0  0  0  0  0  0  0  0  0  0  # atno 7974 bound_to 7965
  155.1014  140.3230  155.4546 H   0  0  0  0  0  0  0  0  0  0  0  0  # atno 8008 bound_to 7997
  156.2716  140.2060  156.6087 H   0  0  0  0  0  0  0  0  0  0  0  0  # atno 8009 bound_to 7997
  154.6826  140.0524  157.0269 H   0  0  0  0  0  0  0  0  0  0  0  0  # atno 8010 bound_to 7997
  140.0621  143.4957  152.2026 H   0  0  0  0  0  0  0  0  0  0  0  0  # atno 10167 bound_to 10162
  156.8788  130.5646  149.5654 H   0  0  0  0  0  0  0  0  0  0  0  0  # atno 10718 bound_to 10713
  154.5481  135.5669  153.6898 H   0  0  0  0  0  0  0  0  0  0  0  0  # atno 10763 bound_to 10752
  152.9982  135.6244  154.2411 H   0  0  0  0  0  0  0  0  0  0  0  0  # atno 10764 bound_to 10752
  154.2345  135.2864  155.2857 H   0  0  0  0  0  0  0  0  0  0  0  0  # atno 10765 bound_to 10752
  140.1404  134.4590  155.8454 H   0  0  0  0  0  0  0  0  0  0  0  0  # atno 11005 bound_to 11000
  145.5428  141.0419  143.2321 LP  0  0  0  0  0  0  0  0  0  0  0  0  # atno 17320 bound_to 7965
  144.7614  139.6947  143.7233 LP  0  0  0  0  0  0  0  0  0  0  0  0  # atno 17321 bound_to 7965
  139.5887  144.7541  151.3455 LP  0  0  0  0  0  0  0  0  0  0  0  0  # atno 17342 bound_to 10162
  140.7166  143.7248  150.7668 LP  0  0  0  0  0  0  0  0  0  0  0  0  # atno 17343 bound_to 10162
  156.0688  130.5725  150.9342 LP  0  0  0  0  0  0  0  0  0  0  0  0  # atno 17370 bound_to 10713
  157.6152  131.0933  150.8723 LP  0  0  0  0  0  0  0  0  0  0  0  0  # atno 17371 bound_to 10713
  141.2185  133.6831  156.7237 LP  0  0  0  0  0  0  0  0  0  0  0  0  # atno 17394 bound_to 11000
  140.2729  134.8378  157.3863 LP  0  0  0  0  0  0  0  0  0  0  0  0  # atno 17395 bound_to 11000

$$$$
