AV-unprocessed.smi:1211|AV-procd|sdf|5079|dock2
  -GOLD-   22720 4133D 1   1.00000     0.00000
 Structure written by MMmdl.
 47 49  0  0  0  0  0  0  0  0  1 V2000
  147.6036  133.1789  152.3979 C   0  0  0  0  0  0  0  0  0  0  0  0
  146.3733  133.2158  151.5058 C   0  0  0  0  0  0  0  0  0  0  0  0
  145.8349  132.0047  151.0216 C   0  0  0  0  0  0  0  0  0  0  0  0
  144.6986  132.0408  150.1956 C   0  0  0  0  0  0  0  0  0  0  0  0
  144.1447  133.2950  149.8879 C   0  0  0  0  0  0  0  0  0  0  0  0
  144.6521  134.4572  150.3468 N   0  0  0  0  0  0  0  0  0  0  0  0
  145.7496  134.4402  151.1442 C   0  0  0  0  0  0  0  0  0  0  0  0
  146.3383  135.6265  151.6657 N   0  0  0  0  0  0  0  0  0  0  0  0
  145.7270  136.7350  152.1193 C   0  0  0  0  0  0  0  0  0  0  0  0
  144.5092  136.9135  152.1562 O   0  0  0  0  0  0  0  0  0  0  0  0
  146.6219  137.6416  152.5369 N   0  0  0  0  0  0  0  0  0  0  0  0
  146.3105  138.9590  153.0909 C   0  0  0  0  0  0  0  0  0  0  0  0
  146.4683  139.0174  154.6472 C   0  0  2  0  0  0  0  0  0  0  0  0
  147.8712  139.3847  155.0145 N   0  0  0  0  0  0  0  0  0  0  0  0
  148.3076  140.7352  154.6308 C   0  0  0  0  0  0  0  0  0  0  0  0
  149.7320  141.0527  155.1179 C   0  0  0  0  0  0  0  0  0  0  0  0
  150.6398  140.0777  154.6237 O   0  0  0  0  0  0  0  0  0  0  0  0
  150.2949  138.7644  155.0424 C   0  0  0  0  0  0  0  0  0  0  0  0
  148.8788  138.4206  154.5514 C   0  0  0  0  0  0  0  0  0  0  0  0
  146.0157  137.6469  155.2298 C   0  0  0  0  0  0  0  0  0  0  0  0
  144.4969  137.5102  155.0790 C   0  0  0  0  0  0  0  0  0  0  0  0
  143.7907  139.1675  155.2375 S   0  0  0  0  0  0  0  0  0  0  0  0
  145.4038  139.9979  155.2029 C   0  0  0  0  0  0  0  0  0  0  0  0
  147.9478  132.1568  152.5575 H   0  0  0  0  0  0  0  0  0  0  0  0
  147.3813  133.6146  153.3726 H   0  0  0  0  0  0  0  0  0  0  0  0
  148.4207  133.7407  151.9446 H   0  0  0  0  0  0  0  0  0  0  0  0
  146.2853  131.0570  151.2779 H   0  0  0  0  0  0  0  0  0  0  0  0
  144.2635  131.1315  149.8083 H   0  0  0  0  0  0  0  0  0  0  0  0
  143.2713  133.3683  149.2570 H   0  0  0  0  0  0  0  0  0  0  0  0
  147.3471  135.6315  151.6911 H   0  0  0  0  0  0  0  0  0  0  0  0
  147.6004  137.4012  152.4784 H   0  0  0  0  0  0  0  0  0  0  0  0
  146.9668  139.6798  152.6056 H   0  0  0  0  0  0  0  0  0  0  0  0
  145.3174  139.2744  152.7719 H   0  0  0  0  0  0  0  0  0  0  0  0
  148.2735  140.8579  153.5488 H   0  0  0  0  0  0  0  0  0  0  0  0
  147.6592  141.4942  155.0618 H   0  0  0  0  0  0  0  0  0  0  0  0
  150.0413  142.0366  154.7651 H   0  0  0  0  0  0  0  0  0  0  0  0
  149.7703  141.0776  156.2079 H   0  0  0  0  0  0  0  0  0  0  0  0
  151.0185  138.0596  154.6330 H   0  0  0  0  0  0  0  0  0  0  0  0
  150.3558  138.6916  156.1295 H   0  0  0  0  0  0  0  0  0  0  0  0
  148.6522  137.4165  154.9023 H   0  0  0  0  0  0  0  0  0  0  0  0
  148.8821  138.3803  153.4617 H   0  0  0  0  0  0  0  0  0  0  0  0
  146.5435  136.8011  154.7895 H   0  0  0  0  0  0  0  0  0  0  0  0
  146.1981  137.5948  156.3007 H   0  0  0  0  0  0  0  0  0  0  0  0
  144.2377  137.1080  154.0998 H   0  0  0  0  0  0  0  0  0  0  0  0
  144.0746  136.8381  155.8262 H   0  0  0  0  0  0  0  0  0  0  0  0
  145.6208  140.2831  156.2308 H   0  0  0  0  0  0  0  0  0  0  0  0
  145.3409  140.9208  154.6256 H   0  0  0  0  0  0  0  0  0  0  0  0
  1  2  1  0  0  0  0
  1 24  1  0  0  0  0
  1 25  1  0  0  0  0
  1 26  1  0  0  0  0
  2  7  1  0  0  0  0
  2  3  2  0  0  0  0
  3  4  1  0  0  0  0
  3 27  1  0  0  0  0
  4  5  2  0  0  0  0
  4 28  1  0  0  0  0
  5  6  1  0  0  0  0
  5 29  1  0  0  0  0
  6  7  2  0  0  0  0
  7  8  1  0  0  0  0
  8  9  1  0  0  0  0
  8 30  1  0  0  0  0
  9 10  2  0  0  0  0
  9 11  1  0  0  0  0
 11 12  1  0  0  0  0
 11 31  1  0  0  0  0
 12 13  1  0  0  0  0
 12 32  1  0  0  0  0
 12 33  1  0  0  0  0
 13 23  1  0  0  0  0
 13 14  1  0  0  0  0
 13 20  1  0  0  0  0
 14 19  1  0  0  0  0
 14 15  1  0  0  0  0
 15 16  1  0  0  0  0
 15 34  1  0  0  0  0
 15 35  1  0  0  0  0
 16 17  1  0  0  0  0
 16 36  1  0  0  0  0
 16 37  1  0  0  0  0
 17 18  1  0  0  0  0
 18 19  1  0  0  0  0
 18 38  1  0  0  0  0
 18 39  1  0  0  0  0
 19 40  1  0  0  0  0
 19 41  1  0  0  0  0
 20 21  1  0  0  0  0
 20 42  1  0  0  0  0
 20 43  1  0  0  0  0
 21 22  1  0  0  0  0
 21 44  1  0  0  0  0
 21 45  1  0  0  0  0
 22 23  1  0  0  0  0
 23 46  1  0  0  0  0
 23 47  1  0  0  0  0
M  END
> <s_m_source_file>
AV-unprocessed.smi

> <i_m_source_file_index>
1211

> <i_lp_mmshare_version>
43012

> <i_f3d_flags>
0

> <s_epik_input>
W0NIM11jMVtjSF1bY0hdW2NIXW5jMVtOSF1DKD1PKVtOSF1bQ0gyXVtDQF0yKFtDSDJdW0NIMl1TW0NIMl0yKU4zW0NIMl1bQ0gyXU9bQ0gyXVtDSDJdMw==

> <s_epik_cmdline>
J2VwaWtfcHl0aG9uJywgJy1waCcsICc3LjAnLCAnLXRuJywgJzgnLCAnLW1hJywgJzIwMCcsICctbWV0YWxfYmluZGluZycsICctaW1hZScsICc8aW5maWxlLm1hZT4nLCAnLW9tYWUnLCAnPG91dGZpbGUubWFlPic=

> <r_epik_Ionization_Penalty>
0.0195636

> <r_epik_Ionization_Penalty_Charging>
0

> <r_epik_Ionization_Penalty_Neutral>
0.0195636

> <r_epik_State_Penalty>
0.0155843

> <r_epik_Charging_Adjusted_Penalty>
0.0155843

> <i_epik_Tot_Q>
0

> <i_epik_Tot_abs_Q>
0

> <r_epik_Metal_State_Penalty>
0.0155842

> <b_epik_Metal_Only>
0

> <s_lp_Force_Field>
OPLS_2005

> <r_lp_Energy>
55.6776

> <b_lp_Chiralities_Consistent>
1

> <s_lp_Variant>
AV-unprocessed.smi:1211-2

> <Gold.Version>
5.8.1

> <Gold.Id.Protein>
6NUR|6NUR_protein|mol2

> <Gold.PLP.Fitness>
42.7662

> <Gold.PLP.PLP>
-32.6162

> <Gold.PLP.part.hbond>
-2.9392

> <Gold.PLP.part.metal>
0.0000

> <Gold.PLP.part.buried>
-5.1453

> <Gold.PLP.part.nonpolar>
-26.1171

> <Gold.PLP.part.repulsive>
0.8418

> <Gold.PLP.ligand.clash>
0.0000

> <Gold.PLP.ligand.torsion>
0.9519

> <Gold.PLP.Chemscore.Hbond>
2.9913

> <Gold.PLP.Chemscore.CHOScore>
1.0000

> <Gold.PLP.Chemscore.Metal>
0.0000

> <Gold.Chemscore.Hbonds>
donor molecule, donor type, donor heavy atom, donor atom, acceptor molecule, acceptor atom, score
      L1  H     8    30       P1  7948  1.00
      L1  H    11    31       P1  7948  0.98
      P1  H  7989  7998       L1    17  1.00
      L1  C     5    29       P1 10186  1.00

> <Gold.PLP.Chemscore.Internal.Correction>
0.0800

> <Gold.Rescore>
     Score         DG    S(hbond)    S(metal)    S(lipo)     H(rot)  DE(clash)    DE(int)     intcor
     18.15     -20.28       2.87        0.00      75.91       1.44       0.25       1.88       ----

> <Gold.Chemscore.Fitness>
18.1535

> <Gold.Chemscore.DG>
-20.2752

> <Gold.Chemscore.ZeroCoef>
-5.4800

> <Gold.Chemscore.Hbond>
2.8746

> <Gold.Chemscore.Metal>
0.0000

> <Gold.Chemscore.Lipo>
75.9121

> <Gold.Chemscore.Internal_Hbond>
0.0000

> <Gold.Chemscore.DEClash>
0.2450

> <Gold.Chemscore.DEInternal>
1.8767

> <Gold.Chemscore.Rot>
1.4405

> <Gold.Chemscore.Internal.Correction>
   9.000000E+99

> <Gold.Chemscore.Hbonds>
donor molecule, donor type, donor heavy atom, donor atom, acceptor molecule, acceptor atom, score
      L1  H     8    30       P1  7948  0.99
      L1  H    11    31       P1  7948  0.93
      P1  H  7989  7998       L1    17  0.55

> <Gold.Chemscore.Hbond.Weighted>
-9.6010

> <Gold.Chemscore.Metal.Weighted>
-0.0000

> <Gold.Chemscore.Lipo.Weighted>
-8.8817

> <Gold.Chemscore.Internal_Hbond.Weighted>
0.0000

> <Gold.Chemscore.DEClash.Weighted>
0.2450

> <Gold.Chemscore.DEInternal.Weighted>
1.8767

> <Gold.Chemscore.Rot.Weighted>
3.6876

> <Gold.Chemscore.Internal.Correction.Weighted>
   9.000000E+99

> <Gold.Protein.RotatedTorsions>
[ 6907 6896 6895 6894 ] final    7.69 input  -60.11 | X-H torsion
[ 7974 7965 7964 7962 ] final  156.43 input  175.53 | X-H torsion
[ 8008 7997 7996 7995 ] final  -46.27 input   59.86 | X-H torsion
[ 10167 10162 10161 10158 ] final -101.04 input  -65.29 | X-H torsion
[ 10718 10713 10712 10709 ] final  -46.24 input   66.30 | X-H torsion
[ 10763 10752 10751 10750 ] final  -38.81 input  -60.55 | X-H torsion
[ 11005 11000 10999 10996 ] final  -68.10 input  -57.11 | X-H torsion

> <Gold.Protein.ActiveResidues>
 VAL166  LYS551  ARG553  GLY616  TRP617  ASP618  TYR619  PRO620  LYS621  CYS622 
 ASP623  PHE694  ASN695  SER759  ASP760  ASP761  ALA762  ILE779  LEU786  VAL792 
 PHE793  MET794  SER795  GLU796  ALA797  LYS798  CYS799  TRP800  GLU811  SER814 

> <Gold.Protein.RotatedAtoms>
  151.6939  135.0942  160.0238 H   0  0  0  0  0  0  0  0  0  0  0  0  # atno 6907 bound_to 6896
  152.3761  133.6479  159.6133 H   0  0  0  0  0  0  0  0  0  0  0  0  # atno 6908 bound_to 6896
  150.7710  133.9106  159.3410 H   0  0  0  0  0  0  0  0  0  0  0  0  # atno 6909 bound_to 6896
  144.7964  139.7203  143.6200 H   0  0  0  0  0  0  0  0  0  0  0  0  # atno 7974 bound_to 7965
  154.4006  140.1375  156.3984 H   0  0  0  0  0  0  0  0  0  0  0  0  # atno 8008 bound_to 7997
  155.7848  140.3480  155.5296 H   0  0  0  0  0  0  0  0  0  0  0  0  # atno 8009 bound_to 7997
  155.8638  140.0961  157.1586 H   0  0  0  0  0  0  0  0  0  0  0  0  # atno 8010 bound_to 7997
  140.2456  143.3508  152.0762 H   0  0  0  0  0  0  0  0  0  0  0  0  # atno 10167 bound_to 10162
  156.2202  130.4166  149.9002 H   0  0  0  0  0  0  0  0  0  0  0  0  # atno 10718 bound_to 10713
  153.9190  135.6784  153.4748 H   0  0  0  0  0  0  0  0  0  0  0  0  # atno 10763 bound_to 10752
  153.1038  135.4815  154.8912 H   0  0  0  0  0  0  0  0  0  0  0  0  # atno 10764 bound_to 10752
  154.7488  135.3179  154.8553 H   0  0  0  0  0  0  0  0  0  0  0  0  # atno 10765 bound_to 10752
  141.1524  133.6733  156.6394 H   0  0  0  0  0  0  0  0  0  0  0  0  # atno 11005 bound_to 11000
  146.2233  139.5675  142.9604 LP  0  0  0  0  0  0  0  0  0  0  0  0  # atno 17320 bound_to 7965
  145.5664  141.0399  143.2198 LP  0  0  0  0  0  0  0  0  0  0  0  0  # atno 17321 bound_to 7965
  139.5063  144.6811  151.6006 LP  0  0  0  0  0  0  0  0  0  0  0  0  # atno 17342 bound_to 10162
  140.6080  143.9488  150.6433 LP  0  0  0  0  0  0  0  0  0  0  0  0  # atno 17343 bound_to 10162
  156.6651  130.8797  151.3553 LP  0  0  0  0  0  0  0  0  0  0  0  0  # atno 17370 bound_to 10713
  157.7084  130.9411  150.1006 LP  0  0  0  0  0  0  0  0  0  0  0  0  # atno 17371 bound_to 10713
  140.3405  134.7853  157.4394 LP  0  0  0  0  0  0  0  0  0  0  0  0  # atno 17394 bound_to 11000
  140.0942  134.5560  155.8414 LP  0  0  0  0  0  0  0  0  0  0  0  0  # atno 17395 bound_to 11000

$$$$
