AV-unprocessed.smi:2283|AV-procd|sdf|9200|dock4
  -GOLD-   2272012413D 1   1.00000     0.00000
 Structure written by MMmdl.
 37 38  0  0  0  0  0  0  0  0  1 V2000
  151.5080  144.6537  159.9610 C   0  0  0  0  0  0  0  0  0  0  0  0
  152.1643  143.2835  159.9681 C   0  0  0  0  0  0  0  0  0  0  0  0
  153.1157  142.9967  160.9711 C   0  0  0  0  0  0  0  0  0  0  0  0
  153.7391  141.7370  161.0279 C   0  0  0  0  0  0  0  0  0  0  0  0
  153.4116  140.7508  160.0815 C   0  0  0  0  0  0  0  0  0  0  0  0
  152.4662  141.0283  159.0772 C   0  0  0  0  0  0  0  0  0  0  0  0
  151.8398  142.2943  159.0016 C   0  0  0  0  0  0  0  0  0  0  0  0
  150.8129  142.5543  157.8993 C   0  0  1  0  0  0  0  0  0  0  0  0
  151.2108  143.6217  157.0609 O   0  0  0  0  0  0  0  0  0  0  0  0
  150.6067  141.2892  157.0353 C   0  0  0  0  0  0  0  0  0  0  0  0
  149.4885  141.4310  156.0859 N   0  0  0  0  0  0  0  0  0  0  0  0
  149.8128  141.3386  154.7218 C   0  0  0  0  0  0  0  0  0  0  0  0
  148.9126  141.4409  153.7998 N   0  0  0  0  0  0  0  0  0  0  0  0
  147.5758  141.6480  154.1514 C   0  0  0  0  0  0  0  0  0  0  0  0
  146.6011  141.7510  152.9917 C   0  0  0  0  0  0  0  0  0  0  0  0
  147.1949  141.7475  155.4543 C   0  0  0  0  0  0  0  0  0  0  0  0
  145.7543  141.9722  155.8967 C   0  0  0  0  0  0  0  0  0  0  0  0
  148.2094  141.6349  156.5150 C   0  0  0  0  0  0  0  0  0  0  0  0
  147.9319  141.7173  157.7129 O   0  0  0  0  0  0  0  0  0  0  0  0
  151.7895  145.2338  160.8403 H   0  0  0  0  0  0  0  0  0  0  0  0
  150.4222  144.5602  159.9619 H   0  0  0  0  0  0  0  0  0  0  0  0
  151.8109  145.2177  159.0785 H   0  0  0  0  0  0  0  0  0  0  0  0
  153.3715  143.7442  161.7077 H   0  0  0  0  0  0  0  0  0  0  0  0
  154.4647  141.5264  161.7998 H   0  0  0  0  0  0  0  0  0  0  0  0
  153.8839  139.7803  160.1261 H   0  0  0  0  0  0  0  0  0  0  0  0
  152.2215  140.2561  158.3625 H   0  0  0  0  0  0  0  0  0  0  0  0
  149.8676  142.8594  158.3455 H   0  0  0  0  0  0  0  0  0  0  0  0
  150.4387  144.0967  156.7936 H   0  0  0  0  0  0  0  0  0  0  0  0
  151.5367  141.0111  156.5360 H   0  0  0  0  0  0  0  0  0  0  0  0
  150.3943  140.4423  157.6914 H   0  0  0  0  0  0  0  0  0  0  0  0
  150.8686  141.1728  154.5011 H   0  0  0  0  0  0  0  0  0  0  0  0
  145.8447  140.9685  153.0576 H   0  0  0  0  0  0  0  0  0  0  0  0
  147.1103  141.6429  152.0332 H   0  0  0  0  0  0  0  0  0  0  0  0
  146.1024  142.7206  152.9972 H   0  0  0  0  0  0  0  0  0  0  0  0
  145.6763  142.8970  156.4693 H   0  0  0  0  0  0  0  0  0  0  0  0
  145.4250  141.1506  156.5338 H   0  0  0  0  0  0  0  0  0  0  0  0
  145.0549  142.0414  155.0653 H   0  0  0  0  0  0  0  0  0  0  0  0
  1  2  1  0  0  0  0
  1 20  1  0  0  0  0
  1 21  1  0  0  0  0
  1 22  1  0  0  0  0
  2  7  1  0  0  0  0
  2  3  2  0  0  0  0
  3  4  1  0  0  0  0
  3 23  1  0  0  0  0
  4  5  2  0  0  0  0
  4 24  1  0  0  0  0
  5  6  1  0  0  0  0
  5 25  1  0  0  0  0
  6  7  2  0  0  0  0
  6 26  1  0  0  0  0
  7  8  1  0  0  0  0
  8  9  1  0  0  0  0
  8 10  1  0  0  0  0
  8 27  1  0  0  0  0
  9 28  1  0  0  0  0
 10 11  1  0  0  0  0
 10 29  1  0  0  0  0
 10 30  1  0  0  0  0
 11 18  1  0  0  0  0
 11 12  1  0  0  0  0
 12 13  2  0  0  0  0
 12 31  1  0  0  0  0
 13 14  1  0  0  0  0
 14 15  1  0  0  0  0
 14 16  2  0  0  0  0
 15 32  1  0  0  0  0
 15 33  1  0  0  0  0
 15 34  1  0  0  0  0
 16 17  1  0  0  0  0
 16 18  1  0  0  0  0
 17 35  1  0  0  0  0
 17 36  1  0  0  0  0
 17 37  1  0  0  0  0
 18 19  2  0  0  0  0
M  END
> <s_m_source_file>
AV-unprocessed.smi

> <i_m_source_file_index>
2283

> <i_lp_mmshare_version>
43012

> <i_f3d_flags>
0

> <s_epik_input>
W0NIM11jMVtjSF1bY0hdW2NIXVtjSF1jMVtDQEhdKFtPSF0pW0NIMl1uMltjSF1uYyhbQ0gzXSljKFtDSDNdKWMyPU8=

> <s_epik_cmdline>
J2VwaWtfcHl0aG9uJywgJy1waCcsICc3LjAnLCAnLXRuJywgJzgnLCAnLW1hJywgJzIwMCcsICctbWV0YWxfYmluZGluZycsICctaW1hZScsICc8aW5maWxlLm1hZT4nLCAnLW9tYWUnLCAnPG91dGZpbGUubWFlPic=

> <r_lp_tautomer_probability>
1

> <r_epik_Ionization_Penalty>
5.07259e-05

> <r_epik_Ionization_Penalty_Charging>
7.56727e-08

> <r_epik_Ionization_Penalty_Neutral>
5.06502e-05

> <r_epik_State_Penalty>
-0

> <r_epik_Charging_Adjusted_Penalty>
7.56727e-08

> <i_epik_Tot_Q>
0

> <i_epik_Tot_abs_Q>
0

> <r_epik_Metal_State_Penalty>
-0

> <b_epik_Metal_Only>
0

> <s_lp_Force_Field>
OPLS_2005

> <r_lp_Energy>
21.1785

> <b_lp_Chiralities_Consistent>
1

> <s_lp_Variant>
AV-unprocessed.smi:2283-2

> <Gold.Version>
5.8.1

> <Gold.Id.Protein>
6NUR|6NUR_protein|mol2

> <Gold.PLP.Fitness>
43.4175

> <Gold.PLP.PLP>
-38.1480

> <Gold.PLP.part.hbond>
-2.2701

> <Gold.PLP.part.metal>
0.0000

> <Gold.PLP.part.buried>
-4.0912

> <Gold.PLP.part.nonpolar>
-31.7471

> <Gold.PLP.part.repulsive>
0.7942

> <Gold.PLP.ligand.clash>
0.0000

> <Gold.PLP.ligand.torsion>
0.0333

> <Gold.PLP.Chemscore.Hbond>
1.7753

> <Gold.PLP.Chemscore.CHOScore>
0.0000

> <Gold.PLP.Chemscore.Metal>
0.0000

> <Gold.Chemscore.Hbonds>
donor molecule, donor type, donor heavy atom, donor atom, acceptor molecule, acceptor atom, score
      L1  H     9    28       P1  8028  1.00
      P1  H  8011  8017       L1    13  0.75

> <Gold.PLP.Chemscore.Internal.Correction>
0.0102

> <Gold.Rescore>
     Score         DG    S(hbond)    S(metal)    S(lipo)     H(rot)  DE(clash)    DE(int)     intcor
     14.19     -17.57       1.32        0.00     107.39       1.91       2.41       0.97       ----

> <Gold.Chemscore.Fitness>
14.1894

> <Gold.Chemscore.DG>
-17.5656

> <Gold.Chemscore.ZeroCoef>
-5.4800

> <Gold.Chemscore.Hbond>
1.3177

> <Gold.Chemscore.Metal>
0.0000

> <Gold.Chemscore.Lipo>
107.3859

> <Gold.Chemscore.Internal_Hbond>
0.0000

> <Gold.Chemscore.DEClash>
2.4057

> <Gold.Chemscore.DEInternal>
0.9706

> <Gold.Chemscore.Rot>
1.9061

> <Gold.Chemscore.Internal.Correction>
   9.000000E+99

> <Gold.Chemscore.Hbonds>
donor molecule, donor type, donor heavy atom, donor atom, acceptor molecule, acceptor atom, score
      L1  H     9    28       P1  8028  0.95
      P1  H  8011  8017       L1    13  0.37

> <Gold.Chemscore.Hbond.Weighted>
-4.4012

> <Gold.Chemscore.Metal.Weighted>
-0.0000

> <Gold.Chemscore.Lipo.Weighted>
-12.5641

> <Gold.Chemscore.Internal_Hbond.Weighted>
0.0000

> <Gold.Chemscore.DEClash.Weighted>
2.4057

> <Gold.Chemscore.DEInternal.Weighted>
0.9706

> <Gold.Chemscore.Rot.Weighted>
4.8797

> <Gold.Chemscore.Internal.Correction.Weighted>
   9.000000E+99

> <Gold.Protein.RotatedTorsions>
[ 6907 6896 6895 6894 ] final  138.82 input  -60.11 | X-H torsion
[ 7974 7965 7964 7962 ] final  -78.34 input  175.53 | X-H torsion
[ 8008 7997 7996 7995 ] final  172.58 input   59.86 | X-H torsion
[ 10167 10162 10161 10158 ] final   -3.61 input  -65.29 | X-H torsion
[ 10718 10713 10712 10709 ] final -125.03 input   66.30 | X-H torsion
[ 10763 10752 10751 10750 ] final  148.02 input  -60.55 | X-H torsion
[ 11005 11000 10999 10996 ] final  -60.07 input  -57.11 | X-H torsion

> <Gold.Protein.ActiveResidues>
 VAL166  LYS551  ARG553  GLY616  TRP617  ASP618  TYR619  PRO620  LYS621  CYS622 
 ASP623  PHE694  ASN695  SER759  ASP760  ASP761  ALA762  ILE779  LEU786  VAL792 
 PHE793  MET794  SER795  GLU796  ALA797  LYS798  CYS799  TRP800  GLU811  SER814 

> <Gold.Protein.RotatedAtoms>
  152.2621  133.5307  159.5387 H   0  0  0  0  0  0  0  0  0  0  0  0  # atno 6907 bound_to 6896
  150.7129  134.0815  159.3908 H   0  0  0  0  0  0  0  0  0  0  0  0  # atno 6908 bound_to 6896
  151.8732  135.0481  160.0532 H   0  0  0  0  0  0  0  0  0  0  0  0  # atno 6909 bound_to 6896
  145.5878  140.9435  143.1309 H   0  0  0  0  0  0  0  0  0  0  0  0  # atno 7974 bound_to 7965
  156.1160  140.1482  156.9272 H   0  0  0  0  0  0  0  0  0  0  0  0  # atno 8008 bound_to 7997
  154.4801  140.0882  156.7399 H   0  0  0  0  0  0  0  0  0  0  0  0  # atno 8009 bound_to 7997
  155.4512  140.3435  155.4303 H   0  0  0  0  0  0  0  0  0  0  0  0  # atno 8010 bound_to 7997
  140.6897  143.6519  150.8342 H   0  0  0  0  0  0  0  0  0  0  0  0  # atno 10167 bound_to 10162
  156.1639  130.6621  151.0088 H   0  0  0  0  0  0  0  0  0  0  0  0  # atno 10718 bound_to 10713
  154.0479  135.2884  155.3345 H   0  0  0  0  0  0  0  0  0  0  0  0  # atno 10763 bound_to 10752
  154.6888  135.5234  153.8367 H   0  0  0  0  0  0  0  0  0  0  0  0  # atno 10764 bound_to 10752
  153.0573  135.6600  154.0677 H   0  0  0  0  0  0  0  0  0  0  0  0  # atno 10765 bound_to 10752
  141.1273  133.6620  156.5167 H   0  0  0  0  0  0  0  0  0  0  0  0  # atno 11005 bound_to 11000
  144.7365  139.7572  143.7327 LP  0  0  0  0  0  0  0  0  0  0  0  0  # atno 17320 bound_to 7965
  146.1669  139.4804  142.9952 LP  0  0  0  0  0  0  0  0  0  0  0  0  # atno 17321 bound_to 7965
  140.0231  143.5522  152.2792 LP  0  0  0  0  0  0  0  0  0  0  0  0  # atno 17342 bound_to 10162
  139.6287  144.7641  151.2582 LP  0  0  0  0  0  0  0  0  0  0  0  0  # atno 17343 bound_to 10162
  157.6753  131.0852  150.7509 LP  0  0  0  0  0  0  0  0  0  0  0  0  # atno 17370 bound_to 10713
  156.7571  130.4787  149.5444 LP  0  0  0  0  0  0  0  0  0  0  0  0  # atno 17371 bound_to 10713
  140.4325  134.7088  157.4949 LP  0  0  0  0  0  0  0  0  0  0  0  0  # atno 17394 bound_to 11000
  140.0284  134.6443  155.9141 LP  0  0  0  0  0  0  0  0  0  0  0  0  # atno 17395 bound_to 11000

$$$$
