AV-unprocessed.smi:1480|AV-procd|sdf|5985|dock10
  -GOLD-   22720 6 83D 1   1.00000     0.00000
 Structure written by MMmdl.
 37 38  0  0  0  0  0  0  0  0  1 V2000
  153.7011  142.6449  160.5654 C   0  0  0  0  0  0  0  0  0  0  0  0
  152.8770  142.2635  159.4170 N   0  0  0  0  0  0  0  0  0  0  0  0
  152.2445  140.9408  159.5186 C   0  0  0  0  0  0  0  0  0  0  0  0
  151.0849  140.7374  158.5351 C   0  0  0  0  0  0  0  0  0  0  0  0
  151.5051  141.1793  157.1276 C   0  0  1  0  0  0  0  0  0  0  0  0
  150.3774  140.9219  156.1174 C   0  0  0  0  0  0  0  0  0  0  0  0
  150.4983  140.0226  155.2854 O   0  0  0  0  0  0  0  0  0  0  0  0
  149.3053  141.7288  156.2209 N   0  0  0  0  0  0  0  0  0  0  0  0
  148.1223  141.7365  155.4372 C   0  0  0  0  0  0  0  0  0  0  0  0
  147.8690  140.9328  154.2851 C   0  0  0  0  0  0  0  0  0  0  0  0
  146.6138  141.3155  153.9071 C   0  0  0  0  0  0  0  0  0  0  0  0
  146.1849  142.2782  154.7993 N   0  0  0  0  0  0  0  0  0  0  0  0
  144.9195  142.9920  154.8164 C   0  0  0  0  0  0  0  0  0  0  0  0
  145.1141  144.4824  154.5252 C   0  0  0  0  0  0  0  0  0  0  0  0
  144.5321  144.9697  153.4264 N   0  0  0  0  0  0  0  0  0  0  0  0
  145.7792  145.1868  155.2818 O   0  0  0  0  0  0  0  0  0  0  0  0
  147.1185  142.5420  155.7399 N   0  0  0  0  0  0  0  0  0  0  0  0
  151.9001  142.6698  157.1492 C   0  0  0  0  0  0  0  0  0  0  0  0
  152.7975  143.0718  158.3321 C   0  0  0  0  0  0  0  0  0  0  0  0
  153.3987  144.1441  158.2627 O   0  0  0  0  0  0  0  0  0  0  0  0
  154.7269  142.8501  160.2553 H   0  0  0  0  0  0  0  0  0  0  0  0
  153.7436  141.8601  161.3216 H   0  0  0  0  0  0  0  0  0  0  0  0
  153.3019  143.5417  161.0407 H   0  0  0  0  0  0  0  0  0  0  0  0
  153.0124  140.1877  159.3372 H   0  0  0  0  0  0  0  0  0  0  0  0
  151.8800  140.7762  160.5336 H   0  0  0  0  0  0  0  0  0  0  0  0
  150.7785  139.6903  158.5384 H   0  0  0  0  0  0  0  0  0  0  0  0
  150.2218  141.3153  158.8699 H   0  0  0  0  0  0  0  0  0  0  0  0
  152.3787  140.5948  156.8314 H   0  0  0  0  0  0  0  0  0  0  0  0
  149.3384  142.4203  156.9556 H   0  0  0  0  0  0  0  0  0  0  0  0
  148.4908  140.1946  153.8020 H   0  0  0  0  0  0  0  0  0  0  0  0
  145.9944  140.9844  153.0865 H   0  0  0  0  0  0  0  0  0  0  0  0
  144.2470  142.5644  154.0710 H   0  0  0  0  0  0  0  0  0  0  0  0
  144.4527  142.8449  155.7914 H   0  0  0  0  0  0  0  0  0  0  0  0
  144.6313  145.9468  153.1923 H   0  0  0  0  0  0  0  0  0  0  0  0
  143.9930  144.3565  152.8324 H   0  0  0  0  0  0  0  0  0  0  0  0
  152.4093  142.9281  156.2197 H   0  0  0  0  0  0  0  0  0  0  0  0
  151.0112  143.3009  157.1977 H   0  0  0  0  0  0  0  0  0  0  0  0
  1  2  1  0  0  0  0
  1 21  1  0  0  0  0
  1 22  1  0  0  0  0
  1 23  1  0  0  0  0
  2 19  1  0  0  0  0
  2  3  1  0  0  0  0
  3  4  1  0  0  0  0
  3 24  1  0  0  0  0
  3 25  1  0  0  0  0
  4  5  1  0  0  0  0
  4 26  1  0  0  0  0
  4 27  1  0  0  0  0
  5  6  1  0  0  0  0
  5 18  1  0  0  0  0
  5 28  1  0  0  0  0
  6  7  2  0  0  0  0
  6  8  1  0  0  0  0
  8  9  1  0  0  0  0
  8 29  1  0  0  0  0
  9 17  2  0  0  0  0
  9 10  1  0  0  0  0
 10 11  2  0  0  0  0
 10 30  1  0  0  0  0
 11 12  1  0  0  0  0
 11 31  1  0  0  0  0
 12 13  1  0  0  0  0
 12 17  1  0  0  0  0
 13 14  1  0  0  0  0
 13 32  1  0  0  0  0
 13 33  1  0  0  0  0
 14 15  1  0  0  0  0
 14 16  2  0  0  0  0
 15 34  1  0  0  0  0
 15 35  1  0  0  0  0
 18 19  1  0  0  0  0
 18 36  1  0  0  0  0
 18 37  1  0  0  0  0
 19 20  2  0  0  0  0
M  END
> <s_m_source_file>
AV-unprocessed.smi

> <i_m_source_file_index>
1480

> <i_lp_mmshare_version>
43012

> <i_f3d_flags>
0

> <s_epik_input>
W0NIM11OMVtDSDJdW0NIMl1bQ0BIXShbQ0gyXUMxPU8pQyg9TylbTkhdYzJbY0hdW2NIXW4objIpW0NIMl1DKD1PKVtOSDJd

> <s_epik_cmdline>
J2VwaWtfcHl0aG9uJywgJy1waCcsICc3LjAnLCAnLXRuJywgJzgnLCAnLW1hJywgJzIwMCcsICctbWV0YWxfYmluZGluZycsICctaW1hZScsICc8aW5maWxlLm1hZT4nLCAnLW9tYWUnLCAnPG91dGZpbGUubWFlPic=

> <r_lp_tautomer_probability>
1

> <r_epik_Ionization_Penalty>
3.93272e-06

> <r_epik_Ionization_Penalty_Charging>
0

> <r_epik_Ionization_Penalty_Neutral>
3.93272e-06

> <r_epik_State_Penalty>
-0

> <r_epik_Charging_Adjusted_Penalty>
0

> <i_epik_Tot_Q>
0

> <i_epik_Tot_abs_Q>
0

> <r_epik_Metal_State_Penalty>
-0

> <b_epik_Metal_Only>
0

> <s_lp_Force_Field>
OPLS_2005

> <r_lp_Energy>
17.1692

> <b_lp_Chiralities_Consistent>
1

> <s_lp_Variant>
AV-unprocessed.smi:1480-1

> <Gold.Version>
5.8.1

> <Gold.Id.Protein>
6NUR|6NUR_protein|mol2

> <Gold.PLP.Fitness>
44.0646

> <Gold.PLP.PLP>
-35.9902

> <Gold.PLP.part.hbond>
-3.0000

> <Gold.PLP.part.metal>
0.0000

> <Gold.PLP.part.buried>
-4.8689

> <Gold.PLP.part.nonpolar>
-29.8778

> <Gold.PLP.part.repulsive>
0.4308

> <Gold.PLP.ligand.clash>
0.0000

> <Gold.PLP.ligand.torsion>
0.2505

> <Gold.PLP.Chemscore.Hbond>
1.8640

> <Gold.PLP.Chemscore.CHOScore>
0.9905

> <Gold.PLP.Chemscore.Metal>
0.0000

> <Gold.Chemscore.Hbonds>
donor molecule, donor type, donor heavy atom, donor atom, acceptor molecule, acceptor atom, score
      L1  H    15    35       P1 10174  0.15
      P1  H  7989  7998       L1     7  0.37
      L1  C    11    31       P1 10175  1.00

> <Gold.PLP.Chemscore.Internal.Correction>
0.0119

> <Gold.Rescore>
     Score         DG    S(hbond)    S(metal)    S(lipo)     H(rot)  DE(clash)    DE(int)     intcor
     11.76     -13.26       1.88        0.00      57.12       2.03       0.07       1.42       ----

> <Gold.Chemscore.Fitness>
11.7632

> <Gold.Chemscore.DG>
-13.2570

> <Gold.Chemscore.ZeroCoef>
-5.4800

> <Gold.Chemscore.Hbond>
1.8812

> <Gold.Chemscore.Metal>
0.0000

> <Gold.Chemscore.Lipo>
57.1156

> <Gold.Chemscore.Internal_Hbond>
0.0000

> <Gold.Chemscore.DEClash>
0.0702

> <Gold.Chemscore.DEInternal>
1.4236

> <Gold.Chemscore.Rot>
2.0269

> <Gold.Chemscore.Internal.Correction>
   9.000000E+99

> <Gold.Chemscore.Hbonds>
donor molecule, donor type, donor heavy atom, donor atom, acceptor molecule, acceptor atom, score
      L1  H    15    35       P1 10174  0.14
      P1  H  7989  7998       L1     7  0.24

> <Gold.Chemscore.Hbond.Weighted>
-6.2832

> <Gold.Chemscore.Metal.Weighted>
-0.0000

> <Gold.Chemscore.Lipo.Weighted>
-6.6825

> <Gold.Chemscore.Internal_Hbond.Weighted>
0.0000

> <Gold.Chemscore.DEClash.Weighted>
0.0702

> <Gold.Chemscore.DEInternal.Weighted>
1.4236

> <Gold.Chemscore.Rot.Weighted>
5.1888

> <Gold.Chemscore.Internal.Correction.Weighted>
   9.000000E+99

> <Gold.Protein.RotatedTorsions>
[ 6907 6896 6895 6894 ] final  127.31 input  -60.11 | X-H torsion
[ 7974 7965 7964 7962 ] final   -0.64 input  175.53 | X-H torsion
[ 8008 7997 7996 7995 ] final   -4.12 input   59.86 | X-H torsion
[ 10167 10162 10161 10158 ] final  -53.82 input  -65.29 | X-H torsion
[ 10718 10713 10712 10709 ] final -174.83 input   66.30 | X-H torsion
[ 10763 10752 10751 10750 ] final  122.56 input  -60.55 | X-H torsion
[ 11005 11000 10999 10996 ] final  113.11 input  -57.11 | X-H torsion

> <Gold.Protein.ActiveResidues>
 VAL166  LYS551  ARG553  GLY616  TRP617  ASP618  TYR619  PRO620  LYS621  CYS622 
 ASP623  PHE694  ASN695  SER759  ASP760  ASP761  ALA762  ILE779  LEU786  VAL792 
 PHE793  MET794  SER795  GLU796  ALA797  LYS798  CYS799  TRP800  GLU811  SER814 

> <Gold.Protein.RotatedAtoms>
  152.3824  133.6564  159.6171 H   0  0  0  0  0  0  0  0  0  0  0  0  # atno 6907 bound_to 6896
  150.7751  133.9092  159.3373 H   0  0  0  0  0  0  0  0  0  0  0  0  # atno 6908 bound_to 6896
  151.6895  135.0950  160.0282 H   0  0  0  0  0  0  0  0  0  0  0  0  # atno 6909 bound_to 6896
  146.2425  140.1300  142.8338 H   0  0  0  0  0  0  0  0  0  0  0  0  # atno 7974 bound_to 7965
  154.6177  140.2492  155.7589 H   0  0  0  0  0  0  0  0  0  0  0  0  # atno 8008 bound_to 7997
  156.2408  140.2933  156.0389 H   0  0  0  0  0  0  0  0  0  0  0  0  # atno 8009 bound_to 7997
  155.1948  140.0392  157.2897 H   0  0  0  0  0  0  0  0  0  0  0  0  # atno 8010 bound_to 7997
  140.6464  143.2538  151.4847 H   0  0  0  0  0  0  0  0  0  0  0  0  # atno 10167 bound_to 10162
  156.7909  130.9517  151.3120 H   0  0  0  0  0  0  0  0  0  0  0  0  # atno 10718 bound_to 10713
  153.6316  135.3395  155.3043 H   0  0  0  0  0  0  0  0  0  0  0  0  # atno 10763 bound_to 10752
  154.8579  135.4297  154.2099 H   0  0  0  0  0  0  0  0  0  0  0  0  # atno 10764 bound_to 10752
  153.2996  135.7023  153.7289 H   0  0  0  0  0  0  0  0  0  0  0  0  # atno 10765 bound_to 10752
  139.8944  134.9543  156.6689 H   0  0  0  0  0  0  0  0  0  0  0  0  # atno 11005 bound_to 11000
  145.0334  140.8889  143.5096 LP  0  0  0  0  0  0  0  0  0  0  0  0  # atno 17320 bound_to 7965
  145.1368  139.2597  143.5511 LP  0  0  0  0  0  0  0  0  0  0  0  0  # atno 17321 bound_to 7965
  139.5675  144.2007  152.1787 LP  0  0  0  0  0  0  0  0  0  0  0  0  # atno 17342 bound_to 10162
  140.1293  144.5302  150.6812 LP  0  0  0  0  0  0  0  0  0  0  0  0  # atno 17343 bound_to 10162
  157.6601  130.8958  149.9811 LP  0  0  0  0  0  0  0  0  0  0  0  0  # atno 17370 bound_to 10713
  156.1159  130.3648  149.9968 LP  0  0  0  0  0  0  0  0  0  0  0  0  # atno 17371 bound_to 10713
  140.7389  133.8995  155.8263 LP  0  0  0  0  0  0  0  0  0  0  0  0  # atno 17394 bound_to 11000
  141.0094  134.1041  157.4237 LP  0  0  0  0  0  0  0  0  0  0  0  0  # atno 17395 bound_to 11000

$$$$
