AV-unprocessed.smi:2855|AV-procd|sdf|10987|dock7
  -GOLD-   2272015443D 1   1.00000     0.00000
 Structure written by MMmdl.
 46 47  0  0  0  0  0  0  0  0  2 V2000
  152.8567  144.7020  158.2735 C   0  0  0  0  0  0  0  0  0  0  0  0
  151.7909  144.1443  159.2338 C   0  0  2  0  0  0  0  0  0  0  0  0
  152.2311  142.8351  159.9145 C   0  0  0  0  0  0  0  0  0  0  0  0
  152.2056  141.6337  158.9547 C   0  0  0  0  0  0  0  0  0  0  0  0
  150.8169  141.4459  158.2991 C   0  0  2  0  0  0  0  0  0  0  0  0
  150.7268  140.1811  157.3922 C   0  0  0  0  0  0  0  0  0  0  0  0
  151.0662  138.8865  158.1506 C   0  0  0  0  0  0  0  0  0  0  0  0
  151.5432  140.2794  156.0902 C   0  0  0  0  0  0  0  0  0  0  0  0
  150.3843  142.7589  157.5907 C   0  0  1  0  0  0  0  0  0  0  0  0
  149.0373  142.6291  157.0393 N   0  0  0  0  0  0  0  0  0  0  0  0
  147.9484  142.2321  157.7149 C   0  0  0  0  0  0  0  0  0  0  0  0
  147.9730  141.8551  158.8870 O   0  0  0  0  0  0  0  0  0  0  0  0
  146.6276  142.2497  156.9365 C   0  0  0  0  0  0  0  0  0  0  0  0
  146.6735  141.3827  155.7491 N   0  0  0  0  0  0  0  0  0  0  0  0
  147.4044  141.8325  154.6356 C   0  0  0  0  0  0  0  0  0  0  0  0
  147.5055  141.1008  153.5096 C   0  0  0  0  0  0  0  0  0  0  0  0
  146.8321  139.8089  153.4630 C   0  0  0  0  0  0  0  0  0  0  0  0
  146.9099  139.1293  152.4414 O   0  0  0  0  0  0  0  0  0  0  0  0
  146.1393  139.4140  154.5710 N   0  5  0  0  0  0  0  0  0  0  0  0
  146.0461  140.1681  155.7099 C   0  0  0  0  0  0  0  0  0  0  0  0
  145.4160  139.7921  156.6994 O   0  0  0  0  0  0  0  0  0  0  0  0
  150.4192  143.9609  158.5567 C   0  0  0  0  0  0  0  0  0  0  0  0
  153.0607  144.0243  157.4451 H   0  0  0  0  0  0  0  0  0  0  0  0
  153.7982  144.8763  158.7949 H   0  0  0  0  0  0  0  0  0  0  0  0
  152.5380  145.6540  157.8482 H   0  0  0  0  0  0  0  0  0  0  0  0
  151.6671  144.8921  160.0181 H   0  0  0  0  0  0  0  0  0  0  0  0
  153.2279  142.9498  160.3417 H   0  0  0  0  0  0  0  0  0  0  0  0
  151.5660  142.6289  160.7541 H   0  0  0  0  0  0  0  0  0  0  0  0
  152.9701  141.7657  158.1894 H   0  0  0  0  0  0  0  0  0  0  0  0
  152.4872  140.7424  159.5141 H   0  0  0  0  0  0  0  0  0  0  0  0
  150.1076  141.2868  159.1134 H   0  0  0  0  0  0  0  0  0  0  0  0
  149.6847  140.0664  157.0931 H   0  0  0  0  0  0  0  0  0  0  0  0
  152.1235  138.8303  158.4088 H   0  0  0  0  0  0  0  0  0  0  0  0
  150.8346  138.0108  157.5435 H   0  0  0  0  0  0  0  0  0  0  0  0
  150.4894  138.8048  159.0720 H   0  0  0  0  0  0  0  0  0  0  0  0
  152.6115  140.3687  156.2858 H   0  0  0  0  0  0  0  0  0  0  0  0
  151.2379  141.1319  155.4842 H   0  0  0  0  0  0  0  0  0  0  0  0
  151.3988  139.3894  155.4771 H   0  0  0  0  0  0  0  0  0  0  0  0
  151.0910  142.9583  156.7849 H   0  0  0  0  0  0  0  0  0  0  0  0
  148.9123  142.9156  156.0794 H   0  0  0  0  0  0  0  0  0  0  0  0
  145.8005  141.9533  157.5846 H   0  0  0  0  0  0  0  0  0  0  0  0
  146.4141  143.2809  156.6528 H   0  0  0  0  0  0  0  0  0  0  0  0
  147.8783  142.7958  154.7542 H   0  0  0  0  0  0  0  0  0  0  0  0
  148.0733  141.4596  152.6639 H   0  0  0  0  0  0  0  0  0  0  0  0
  149.6624  143.8195  159.3300 H   0  0  0  0  0  0  0  0  0  0  0  0
  150.1417  144.8745  158.0292 H   0  0  0  0  0  0  0  0  0  0  0  0
  1  2  1  0  0  0  0
  1 23  1  0  0  0  0
  1 24  1  0  0  0  0
  1 25  1  0  0  0  0
  2 22  1  0  0  0  0
  2  3  1  0  0  0  0
  2 26  1  0  0  0  0
  3  4  1  0  0  0  0
  3 27  1  0  0  0  0
  3 28  1  0  0  0  0
  4  5  1  0  0  0  0
  4 29  1  0  0  0  0
  4 30  1  0  0  0  0
  5  6  1  0  0  0  0
  5  9  1  0  0  0  0
  5 31  1  0  0  0  0
  6  7  1  0  0  0  0
  6  8  1  0  0  0  0
  6 32  1  0  0  0  0
  7 33  1  0  0  0  0
  7 34  1  0  0  0  0
  7 35  1  0  0  0  0
  8 36  1  0  0  0  0
  8 37  1  0  0  0  0
  8 38  1  0  0  0  0
  9 10  1  0  0  0  0
  9 22  1  0  0  0  0
  9 39  1  0  0  0  0
 10 11  1  0  0  0  0
 10 40  1  0  0  0  0
 11 12  2  0  0  0  0
 11 13  1  0  0  0  0
 13 14  1  0  0  0  0
 13 41  1  0  0  0  0
 13 42  1  0  0  0  0
 14 20  1  0  0  0  0
 14 15  1  0  0  0  0
 15 16  2  0  0  0  0
 15 43  1  0  0  0  0
 16 17  1  0  0  0  0
 16 44  1  0  0  0  0
 17 18  2  0  0  0  0
 17 19  1  0  0  0  0
 19 20  1  0  0  0  0
 20 21  2  0  0  0  0
 22 45  1  0  0  0  0
 22 46  1  0  0  0  0
M  CHG  1  19  -1
M  END
> <s_m_source_file>
AV-unprocessed.smi

> <i_m_source_file_index>
2855

> <i_lp_mmshare_version>
43012

> <i_f3d_flags>
0

> <s_epik_input>
W0NIM11bQ0BASF0xW0NIMl1bQ0gyXVtDQEBIXShbQ0hdKFtDSDNdKVtDSDNdKVtDQEhdKFtDSDJdMSlbTkhdQyg9TylbQ0gyXW4yW2NIXVtjSF1jKD1PKVtuSF1jMj1P

> <s_epik_cmdline>
J2VwaWtfcHl0aG9uJywgJy1waCcsICc3LjAnLCAnLXRuJywgJzgnLCAnLW1hJywgJzIwMCcsICctbWV0YWxfYmluZGluZycsICctaW1hZScsICc8aW5maWxlLm1hZT4nLCAnLW9tYWUnLCAnPG91dGZpbGUubWFlPic=

> <r_lp_tautomer_probability>
0.999537

> <r_epik_Ionization_Penalty>
3.12102

> <r_epik_Ionization_Penalty_Charging>
2.9581e-08

> <r_epik_Ionization_Penalty_Neutral>
3.12102

> <r_epik_State_Penalty>
3.12011

> <r_epik_Charging_Adjusted_Penalty>
3.12011

> <i_epik_Tot_Q>
-1

> <i_epik_Tot_abs_Q>
1

> <r_epik_Metal_State_Penalty>
0.463583

> <b_epik_Metal_Only>
1

> <s_lp_Force_Field>
OPLS_2005

> <r_lp_Energy>
25.3875

> <b_lp_Chiralities_Consistent>
1

> <s_lp_Variant>
AV-unprocessed.smi:2855-11

> <Gold.Version>
5.8.1

> <Gold.Id.Protein>
6NUR|6NUR_protein|mol2

> <Gold.PLP.Fitness>
40.9037

> <Gold.PLP.PLP>
-37.0372

> <Gold.PLP.part.hbond>
-2.7992

> <Gold.PLP.part.metal>
0.0000

> <Gold.PLP.part.buried>
-4.3753

> <Gold.PLP.part.nonpolar>
-32.1974

> <Gold.PLP.part.repulsive>
0.6991

> <Gold.PLP.ligand.clash>
0.0000

> <Gold.PLP.ligand.torsion>
0.2970

> <Gold.PLP.Chemscore.Hbond>
0.4676

> <Gold.PLP.Chemscore.CHOScore>
1.0000

> <Gold.PLP.Chemscore.Metal>
0.0000

> <Gold.Chemscore.Hbonds>
donor molecule, donor type, donor heavy atom, donor atom, acceptor molecule, acceptor atom, score
      L1  H    10    40       P1  8028  0.40
      P1  H  6934  6946       L1    12  0.07
      L1  C    15    43       P1  8028  1.00

> <Gold.PLP.Chemscore.Internal.Correction>
0.0576

> <Gold.Rescore>
     Score         DG    S(hbond)    S(metal)    S(lipo)     H(rot)  DE(clash)    DE(int)     intcor
     12.76     -14.60       0.63        0.00      99.55       1.81       0.21       1.63       ----

> <Gold.Chemscore.Fitness>
12.7572

> <Gold.Chemscore.DG>
-14.6028

> <Gold.Chemscore.ZeroCoef>
-5.4800

> <Gold.Chemscore.Hbond>
0.6313

> <Gold.Chemscore.Metal>
0.0000

> <Gold.Chemscore.Lipo>
99.5532

> <Gold.Chemscore.Internal_Hbond>
0.0000

> <Gold.Chemscore.DEClash>
0.2121

> <Gold.Chemscore.DEInternal>
1.6335

> <Gold.Chemscore.Rot>
1.8100

> <Gold.Chemscore.Internal.Correction>
   9.000000E+99

> <Gold.Chemscore.Hbonds>
donor molecule, donor type, donor heavy atom, donor atom, acceptor molecule, acceptor atom, score
      L1  H    10    40       P1  8028  0.40
      P1  H  6934  6946       L1    12  0.07

> <Gold.Chemscore.Hbond.Weighted>
-2.1086

> <Gold.Chemscore.Metal.Weighted>
-0.0000

> <Gold.Chemscore.Lipo.Weighted>
-11.6477

> <Gold.Chemscore.Internal_Hbond.Weighted>
0.0000

> <Gold.Chemscore.DEClash.Weighted>
0.2121

> <Gold.Chemscore.DEInternal.Weighted>
1.6335

> <Gold.Chemscore.Rot.Weighted>
4.6335

> <Gold.Chemscore.Internal.Correction.Weighted>
   9.000000E+99

> <Gold.Protein.RotatedTorsions>
[ 6907 6896 6895 6894 ] final   77.47 input  -60.11 | X-H torsion
[ 7974 7965 7964 7962 ] final    8.23 input  175.53 | X-H torsion
[ 8008 7997 7996 7995 ] final  -82.46 input   59.86 | X-H torsion
[ 10167 10162 10161 10158 ] final  128.37 input  -65.29 | X-H torsion
[ 10718 10713 10712 10709 ] final  -96.29 input   66.30 | X-H torsion
[ 10763 10752 10751 10750 ] final  127.50 input  -60.55 | X-H torsion
[ 11005 11000 10999 10996 ] final   33.08 input  -57.11 | X-H torsion

> <Gold.Protein.ActiveResidues>
 VAL166  LYS551  ARG553  GLY616  TRP617  ASP618  TYR619  PRO620  LYS621  CYS622 
 ASP623  PHE694  ASN695  SER759  ASP760  ASP761  ALA762  ILE779  LEU786  VAL792 
 PHE793  MET794  SER795  GLU796  ALA797  LYS798  CYS799  TRP800  GLU811  SER814 

> <Gold.Protein.RotatedAtoms>
  152.5119  134.3811  159.9351 H   0  0  0  0  0  0  0  0  0  0  0  0  # atno 6907 bound_to 6896
  151.3768  133.3829  159.2713 H   0  0  0  0  0  0  0  0  0  0  0  0  # atno 6908 bound_to 6896
  150.9535  134.8952  159.7745 H   0  0  0  0  0  0  0  0  0  0  0  0  # atno 6909 bound_to 6896
  146.2418  139.9964  142.8420 H   0  0  0  0  0  0  0  0  0  0  0  0  # atno 7974 bound_to 7965
  154.6089  140.0633  156.9467 H   0  0  0  0  0  0  0  0  0  0  0  0  # atno 8008 bound_to 7997
  155.2007  140.3315  155.4325 H   0  0  0  0  0  0  0  0  0  0  0  0  # atno 8009 bound_to 7997
  156.2364  140.1865  156.7091 H   0  0  0  0  0  0  0  0  0  0  0  0  # atno 8010 bound_to 7997
  139.5531  144.6828  151.4264 H   0  0  0  0  0  0  0  0  0  0  0  0  # atno 10167 bound_to 10162
  156.0059  130.5145  150.6204 H   0  0  0  0  0  0  0  0  0  0  0  0  # atno 10718 bound_to 10713
  153.7103  135.3269  155.3245 H   0  0  0  0  0  0  0  0  0  0  0  0  # atno 10763 bound_to 10752
  154.8387  135.4475  154.1320 H   0  0  0  0  0  0  0  0  0  0  0  0  # atno 10764 bound_to 10752
  153.2412  135.6971  153.7860 H   0  0  0  0  0  0  0  0  0  0  0  0  # atno 10765 bound_to 10752
  140.2668  134.3128  155.7840 H   0  0  0  0  0  0  0  0  0  0  0  0  # atno 11005 bound_to 11000
  145.1455  140.9595  143.4463 LP  0  0  0  0  0  0  0  0  0  0  0  0  # atno 17320 bound_to 7965
  145.0254  139.3387  143.6051 LP  0  0  0  0  0  0  0  0  0  0  0  0  # atno 17321 bound_to 7965
  140.6798  143.8108  150.7106 LP  0  0  0  0  0  0  0  0  0  0  0  0  # atno 17342 bound_to 10162
  140.1558  143.4318  152.2101 LP  0  0  0  0  0  0  0  0  0  0  0  0  # atno 17343 bound_to 10162
  157.4021  131.0811  151.1299 LP  0  0  0  0  0  0  0  0  0  0  0  0  # atno 17370 bound_to 10713
  157.1957  130.6372  149.5720 LP  0  0  0  0  0  0  0  0  0  0  0  0  # atno 17371 bound_to 10713
  141.2183  133.7443  156.9273 LP  0  0  0  0  0  0  0  0  0  0  0  0  # atno 17394 bound_to 11000
  140.1411  134.9293  157.2468 LP  0  0  0  0  0  0  0  0  0  0  0  0  # atno 17395 bound_to 11000

$$$$
