AV-unprocessed.smi:515|AV-procd|sdf|2782|dock3
  -GOLD-   2262023253D 1   1.00000     0.00000
 Structure written by MMmdl.
 46 48  0  0  0  0  0  0  0  0  2 V2000
  141.6163  134.5981  163.5023 C   0  0  0  0  0  0  0  0  0  0  0  0
  140.5292  135.6704  163.4000 C   0  0  0  0  0  0  0  0  0  0  0  0
  140.8919  136.5984  162.3918 O   0  0  0  0  0  0  0  0  0  0  0  0
  140.7612  136.0643  161.0852 C   0  0  0  0  0  0  0  0  0  0  0  0
  142.0267  136.3939  160.2844 C   0  0  0  0  0  0  0  0  0  0  0  0
  143.1770  135.6367  160.7667 N   0  0  0  0  0  0  0  0  0  0  0  0
  143.2490  134.2982  160.9933 C   0  0  0  0  0  0  0  0  0  0  0  0
  142.0812  133.3726  160.7703 C   0  0  0  0  0  0  0  0  0  0  0  0
  142.3652  132.2078  159.9305 N   0  0  0  0  0  0  0  0  0  0  0  0
  141.1495  131.4563  159.6413 C   0  0  0  0  0  0  0  0  0  0  0  0
  141.4337  130.2252  158.7633 C   0  0  0  0  0  0  0  0  0  0  0  0
  142.0750  130.6349  157.5595 O   0  0  0  0  0  0  0  0  0  0  0  0
  143.2896  131.3401  157.7952 C   0  0  0  0  0  0  0  0  0  0  0  0
  143.0069  132.5741  158.6687 C   0  0  0  0  0  0  0  0  0  0  0  0
  144.4324  133.8933  161.4680 N   0  0  0  0  0  0  0  0  0  0  0  0
  145.1712  135.0640  161.5333 C   0  0  0  0  0  0  0  0  0  0  0  0
  144.4346  136.1299  161.1250 C   0  0  0  0  0  0  0  0  0  0  0  0
  144.9374  137.5210  161.1086 C   0  0  0  0  0  0  0  0  0  0  0  0
  144.2175  138.4522  160.7534 O   0  0  0  0  0  0  0  0  0  0  0  0
  146.2398  137.6041  161.5282 N   0  5  0  0  0  0  0  0  0  0  0  0
  147.0262  136.5501  161.9425 C   0  0  0  0  0  0  0  0  0  0  0  0
  148.1927  136.7121  162.3038 O   0  0  0  0  0  0  0  0  0  0  0  0
  146.5102  135.2806  161.9581 N   0  0  0  0  0  0  0  0  0  0  0  0
  147.3206  134.1412  162.3975 C   0  0  0  0  0  0  0  0  0  0  0  0
  141.3674  133.8626  164.2675 H   0  0  0  0  0  0  0  0  0  0  0  0
  142.5780  135.0403  163.7629 H   0  0  0  0  0  0  0  0  0  0  0  0
  141.7350  134.0696  162.5560 H   0  0  0  0  0  0  0  0  0  0  0  0
  139.5711  135.2073  163.1588 H   0  0  0  0  0  0  0  0  0  0  0  0
  140.4184  136.1799  164.3584 H   0  0  0  0  0  0  0  0  0  0  0  0
  140.6171  134.9839  161.1339 H   0  0  0  0  0  0  0  0  0  0  0  0
  139.8852  136.4922  160.5948 H   0  0  0  0  0  0  0  0  0  0  0  0
  141.8635  136.1891  159.2284 H   0  0  0  0  0  0  0  0  0  0  0  0
  142.2489  137.4589  160.3349 H   0  0  0  0  0  0  0  0  0  0  0  0
  141.7482  133.0394  161.7540 H   0  0  0  0  0  0  0  0  0  0  0  0
  141.2517  133.9267  160.3330 H   0  0  0  0  0  0  0  0  0  0  0  0
  140.6832  131.1339  160.5729 H   0  0  0  0  0  0  0  0  0  0  0  0
  140.4270  132.1001  159.1374 H   0  0  0  0  0  0  0  0  0  0  0  0
  142.0641  129.5097  159.2936 H   0  0  0  0  0  0  0  0  0  0  0  0
  140.5041  129.7120  158.5165 H   0  0  0  0  0  0  0  0  0  0  0  0
  144.0130  130.6825  158.2796 H   0  0  0  0  0  0  0  0  0  0  0  0
  143.7193  131.6413  156.8399 H   0  0  0  0  0  0  0  0  0  0  0  0
  142.3697  133.2666  158.1168 H   0  0  0  0  0  0  0  0  0  0  0  0
  143.9439  133.0984  158.8544 H   0  0  0  0  0  0  0  0  0  0  0  0
  148.1912  134.0213  161.7511 H   0  0  0  0  0  0  0  0  0  0  0  0
  146.7692  133.2012  162.3800 H   0  0  0  0  0  0  0  0  0  0  0  0
  147.6715  134.2923  163.4193 H   0  0  0  0  0  0  0  0  0  0  0  0
  1  2  1  0  0  0  0
  1 25  1  0  0  0  0
  1 26  1  0  0  0  0
  1 27  1  0  0  0  0
  2  3  1  0  0  0  0
  2 28  1  0  0  0  0
  2 29  1  0  0  0  0
  3  4  1  0  0  0  0
  4  5  1  0  0  0  0
  4 30  1  0  0  0  0
  4 31  1  0  0  0  0
  5  6  1  0  0  0  0
  5 32  1  0  0  0  0
  5 33  1  0  0  0  0
  6 17  1  0  0  0  0
  6  7  1  0  0  0  0
  7  8  1  0  0  0  0
  7 15  2  0  0  0  0
  8  9  1  0  0  0  0
  8 34  1  0  0  0  0
  8 35  1  0  0  0  0
  9 14  1  0  0  0  0
  9 10  1  0  0  0  0
 10 11  1  0  0  0  0
 10 36  1  0  0  0  0
 10 37  1  0  0  0  0
 11 12  1  0  0  0  0
 11 38  1  0  0  0  0
 11 39  1  0  0  0  0
 12 13  1  0  0  0  0
 13 14  1  0  0  0  0
 13 40  1  0  0  0  0
 13 41  1  0  0  0  0
 14 42  1  0  0  0  0
 14 43  1  0  0  0  0
 15 16  1  0  0  0  0
 16 23  1  0  0  0  0
 16 17  2  0  0  0  0
 17 18  1  0  0  0  0
 18 19  2  0  0  0  0
 18 20  1  0  0  0  0
 20 21  1  0  0  0  0
 21 22  2  0  0  0  0
 21 23  1  0  0  0  0
 23 24  1  0  0  0  0
 24 44  1  0  0  0  0
 24 45  1  0  0  0  0
 24 46  1  0  0  0  0
M  CHG  1  20  -1
M  END
> <s_m_source_file>
AV-unprocessed.smi

> <i_m_source_file_index>
515

> <i_lp_mmshare_version>
43012

> <i_f3d_flags>
0

> <s_epik_input>
W0NIM11uMWMoPU8pW25IXWMoPU8pYyhjMTIpbihbQ0gyXVtDSDJdT1tDSDJdW0NIM10pYyhuMilbQ0gyXU4zW0NIMl1bQ0gyXU9bQ0gyXVtDSDJdMw==

> <s_epik_cmdline>
J2VwaWtfcHl0aG9uJywgJy1waCcsICc3LjAnLCAnLXRuJywgJzgnLCAnLW1hJywgJzIwMCcsICctbWV0YWxfYmluZGluZycsICctaW1hZScsICc8aW5maWxlLm1hZT4nLCAnLW9tYWUnLCAnPG91dGZpbGUubWFlPic=

> <r_epik_Ionization_Penalty>
4.8833

> <r_epik_Ionization_Penalty_Charging>
0.035962

> <r_epik_Ionization_Penalty_Neutral>
4.84734

> <r_epik_State_Penalty>
4.83718

> <r_epik_Charging_Adjusted_Penalty>
4.87314

> <i_epik_Tot_Q>
-1

> <i_epik_Tot_abs_Q>
1

> <r_epik_Metal_State_Penalty>
1.06056

> <b_epik_Metal_Only>
1

> <s_lp_Force_Field>
OPLS_2005

> <r_lp_Energy>
45.1348

> <b_lp_Chiralities_Consistent>
1

> <s_lp_Variant>
AV-unprocessed.smi:515-3

> <Gold.Version>
5.8.1

> <Gold.Id.Protein>
6NUR|6NUR_protein|mol2

> <Gold.PLP.Fitness>
41.3467

> <Gold.PLP.PLP>
-33.4725

> <Gold.PLP.part.hbond>
-2.0000

> <Gold.PLP.part.metal>
0.0000

> <Gold.PLP.part.buried>
-6.8479

> <Gold.PLP.part.nonpolar>
-25.0350

> <Gold.PLP.part.repulsive>
0.5705

> <Gold.PLP.ligand.clash>
0.0000

> <Gold.PLP.ligand.torsion>
0.5598

> <Gold.PLP.Chemscore.Hbond>
2.9840

> <Gold.PLP.Chemscore.CHOScore>
0.0000

> <Gold.PLP.Chemscore.Metal>
0.0000

> <Gold.Chemscore.Hbonds>
donor molecule, donor type, donor heavy atom, donor atom, acceptor molecule, acceptor atom, score
      P1  H  6931  6943       L1    22  1.00
      P1  H  6934  6947       L1    20  2.00

> <Gold.PLP.Chemscore.Internal.Correction>
0.0418

> <Gold.Rescore>
     Score         DG    S(hbond)    S(metal)    S(lipo)     H(rot)  DE(clash)    DE(int)     intcor
     12.00     -12.36       1.85        0.00      52.02       2.10       0.01       0.35       ----

> <Gold.Chemscore.Fitness>
11.9971

> <Gold.Chemscore.DG>
-12.3608

> <Gold.Chemscore.ZeroCoef>
-5.4800

> <Gold.Chemscore.Hbond>
1.8469

> <Gold.Chemscore.Metal>
0.0000

> <Gold.Chemscore.Lipo>
52.0155

> <Gold.Chemscore.Internal_Hbond>
0.0000

> <Gold.Chemscore.DEClash>
0.0126

> <Gold.Chemscore.DEInternal>
0.3510

> <Gold.Chemscore.Rot>
2.0991

> <Gold.Chemscore.Internal.Correction>
   9.000000E+99

> <Gold.Chemscore.Hbonds>
donor molecule, donor type, donor heavy atom, donor atom, acceptor molecule, acceptor atom, score
      P1  H  6931  6943       L1    22  0.98
      P1  H  6934  6947       L1    20  0.79

> <Gold.Chemscore.Hbond.Weighted>
-6.1687

> <Gold.Chemscore.Metal.Weighted>
-0.0000

> <Gold.Chemscore.Lipo.Weighted>
-6.0858

> <Gold.Chemscore.Internal_Hbond.Weighted>
0.0000

> <Gold.Chemscore.DEClash.Weighted>
0.0126

> <Gold.Chemscore.DEInternal.Weighted>
0.3510

> <Gold.Chemscore.Rot.Weighted>
5.3737

> <Gold.Chemscore.Internal.Correction.Weighted>
   9.000000E+99

> <Gold.Protein.RotatedTorsions>
[ 6907 6896 6895 6894 ] final  -76.12 input  -60.11 | X-H torsion
[ 7974 7965 7964 7962 ] final  -86.71 input  175.53 | X-H torsion
[ 8008 7997 7996 7995 ] final   65.87 input   59.86 | X-H torsion
[ 10167 10162 10161 10158 ] final   39.41 input  -65.29 | X-H torsion
[ 10718 10713 10712 10709 ] final  179.01 input   66.30 | X-H torsion
[ 10763 10752 10751 10750 ] final -149.78 input  -60.55 | X-H torsion
[ 11005 11000 10999 10996 ] final   81.84 input  -57.11 | X-H torsion

> <Gold.Protein.ActiveResidues>
 VAL166  LYS551  ARG553  GLY616  TRP617  ASP618  TYR619  PRO620  LYS621  CYS622 
 ASP623  PHE694  ASN695  SER759  ASP760  ASP761  ALA762  ILE779  LEU786  VAL792 
 PHE793  MET794  SER795  GLU796  ALA797  LYS798  CYS799  TRP800  GLU811  SER814 

> <Gold.Protein.RotatedAtoms>
  150.7037  134.4620  159.5384 H   0  0  0  0  0  0  0  0  0  0  0  0  # atno 6907 bound_to 6896
  152.2293  134.8335  160.0485 H   0  0  0  0  0  0  0  0  0  0  0  0  # atno 6908 bound_to 6896
  151.9157  133.3537  159.3916 H   0  0  0  0  0  0  0  0  0  0  0  0  # atno 6909 bound_to 6896
  145.4762  140.9558  143.1889 H   0  0  0  0  0  0  0  0  0  0  0  0  # atno 7974 bound_to 7965
  155.6685  140.3497  155.4809 H   0  0  0  0  0  0  0  0  0  0  0  0  # atno 8008 bound_to 7997
  155.9708  140.1155  157.0836 H   0  0  0  0  0  0  0  0  0  0  0  0  # atno 8009 bound_to 7997
  154.4166  140.1157  156.5291 H   0  0  0  0  0  0  0  0  0  0  0  0  # atno 8010 bound_to 7997
  140.3843  144.1938  150.6130 H   0  0  0  0  0  0  0  0  0  0  0  0  # atno 10167 bound_to 10162
  156.8820  130.9819  151.3060 H   0  0  0  0  0  0  0  0  0  0  0  0  # atno 10718 bound_to 10713
  154.8157  135.3300  154.7181 H   0  0  0  0  0  0  0  0  0  0  0  0  # atno 10763 bound_to 10752
  153.7823  135.6917  153.4890 H   0  0  0  0  0  0  0  0  0  0  0  0  # atno 10764 bound_to 10752
  153.1972  135.4529  155.0170 H   0  0  0  0  0  0  0  0  0  0  0  0  # atno 10765 bound_to 10752
  139.9084  134.8026  156.2094 H   0  0  0  0  0  0  0  0  0  0  0  0  # atno 11005 bound_to 11000
  144.7916  139.6318  143.7111 LP  0  0  0  0  0  0  0  0  0  0  0  0  # atno 17320 bound_to 7965
  146.2368  139.5921  142.9518 LP  0  0  0  0  0  0  0  0  0  0  0  0  # atno 17321 bound_to 7965
  140.4906  143.2349  151.8824 LP  0  0  0  0  0  0  0  0  0  0  0  0  # atno 17342 bound_to 10162
  139.4793  144.5170  151.8854 LP  0  0  0  0  0  0  0  0  0  0  0  0  # atno 17343 bound_to 10162
  157.6134  130.8600  149.8989 LP  0  0  0  0  0  0  0  0  0  0  0  0  # atno 17370 bound_to 10713
  156.0672  130.3690  150.0853 LP  0  0  0  0  0  0  0  0  0  0  0  0  # atno 17371 bound_to 10713
  141.0475  133.6906  156.1710 LP  0  0  0  0  0  0  0  0  0  0  0  0  # atno 17394 bound_to 11000
  140.6862  134.4715  157.5589 LP  0  0  0  0  0  0  0  0  0  0  0  0  # atno 17395 bound_to 11000

$$$$
