AV-unprocessed.smi:2710|AV-procd|sdf|10469|dock7
  -GOLD-   2272014513D 1   1.00000     0.00000
 Structure written by MMmdl.
 53 54  0  0  0  0  0  0  0  0  2 V2000
  148.0508  142.5341  158.2566 C   0  0  0  0  0  0  0  0  0  0  0  0
  146.8378  142.4576  157.3146 C   0  0  0  0  0  0  0  0  0  0  0  0
  147.2050  142.2530  155.8825 N   0  3  1  0  0  0  0  0  0  0  0  0
  147.9522  140.9784  155.6780 C   0  0  0  0  0  0  0  0  0  0  0  0
  148.4484  140.8219  154.2322 C   0  0  0  0  0  0  0  0  0  0  0  0
  147.2982  140.9122  153.2235 C   0  0  1  0  0  0  0  0  0  0  0  0
  146.4294  139.7373  153.3129 N   0  0  0  0  0  0  0  0  0  0  0  0
  146.3839  138.7244  152.4349 C   0  0  0  0  0  0  0  0  0  0  0  0
  147.0768  138.6690  151.4199 O   0  0  0  0  0  0  0  0  0  0  0  0
  145.5064  137.7845  152.8253 N   0  0  0  0  0  0  0  0  0  0  0  0
  145.1655  136.5750  152.1629 C   0  0  0  0  0  0  0  0  0  0  0  0
  145.9051  136.1812  151.0297 C   0  0  0  0  0  0  0  0  0  0  0  0
  145.6416  135.0365  150.3657 N   0  0  0  0  0  0  0  0  0  0  0  0
  144.6458  134.2683  150.8266 C   0  0  0  0  0  0  0  0  0  0  0  0
  144.3785  132.9618  150.0575 C   0  0  0  0  0  0  0  0  0  0  0  0
  143.8400  133.2232  148.6292 C   0  0  0  0  0  0  0  0  0  0  0  0
  143.3189  132.1255  150.8030 C   0  0  0  0  0  0  0  0  0  0  0  0
  145.6912  132.1650  149.9099 C   0  0  0  0  0  0  0  0  0  0  0  0
  143.8943  134.5383  151.9020 N   0  0  0  0  0  0  0  0  0  0  0  0
  144.1451  135.6831  152.5720 C   0  0  0  0  0  0  0  0  0  0  0  0
  146.5074  142.2038  153.4706 C   0  0  0  0  0  0  0  0  0  0  0  0
  146.0455  142.3679  154.9376 C   0  0  2  0  0  0  0  0  0  0  0  0
  145.2885  143.7065  155.0628 C   0  0  0  0  0  0  0  0  0  0  0  0
  147.7383  142.8520  159.2516 H   0  0  0  0  0  0  0  0  0  0  0  0
  148.7864  143.2551  157.8987 H   0  0  0  0  0  0  0  0  0  0  0  0
  148.5456  141.5710  158.3774 H   0  0  0  0  0  0  0  0  0  0  0  0
  146.1526  141.6733  157.6395 H   0  0  0  0  0  0  0  0  0  0  0  0
  146.3104  143.4008  157.4379 H   0  0  0  0  0  0  0  0  0  0  0  0
  148.8253  140.9360  156.3265 H   0  0  0  0  0  0  0  0  0  0  0  0
  147.3173  140.1352  155.9546 H   0  0  0  0  0  0  0  0  0  0  0  0
  149.1771  141.6051  154.0183 H   0  0  0  0  0  0  0  0  0  0  0  0
  148.9781  139.8753  154.1168 H   0  0  0  0  0  0  0  0  0  0  0  0
  147.7320  140.9730  152.2239 H   0  0  0  0  0  0  0  0  0  0  0  0
  145.8202  139.6851  154.1160 H   0  0  0  0  0  0  0  0  0  0  0  0
  145.0694  137.9244  153.7246 H   0  0  0  0  0  0  0  0  0  0  0  0
  146.7126  136.7893  150.6488 H   0  0  0  0  0  0  0  0  0  0  0  0
  143.6606  132.2891  148.0958 H   0  0  0  0  0  0  0  0  0  0  0  0
  144.5453  133.8028  148.0322 H   0  0  0  0  0  0  0  0  0  0  0  0
  142.8939  133.7662  148.6481 H   0  0  0  0  0  0  0  0  0  0  0  0
  142.3853  132.6784  150.9127 H   0  0  0  0  0  0  0  0  0  0  0  0
  143.6552  131.8474  151.8022 H   0  0  0  0  0  0  0  0  0  0  0  0
  143.0938  131.2012  150.2702 H   0  0  0  0  0  0  0  0  0  0  0  0
  145.5365  131.2430  149.3485 H   0  0  0  0  0  0  0  0  0  0  0  0
  146.1053  131.8852  150.8791 H   0  0  0  0  0  0  0  0  0  0  0  0
  146.4493  132.7473  149.3845 H   0  0  0  0  0  0  0  0  0  0  0  0
  143.5339  135.8552  153.4442 H   0  0  0  0  0  0  0  0  0  0  0  0
  147.1336  143.0547  153.1973 H   0  0  0  0  0  0  0  0  0  0  0  0
  145.6487  142.2377  152.7983 H   0  0  0  0  0  0  0  0  0  0  0  0
  145.3441  141.5650  155.1698 H   0  0  0  0  0  0  0  0  0  0  0  0
  144.5637  143.8209  154.2560 H   0  0  0  0  0  0  0  0  0  0  0  0
  145.9701  144.5563  155.0125 H   0  0  0  0  0  0  0  0  0  0  0  0
  144.7183  143.7778  155.9883 H   0  0  0  0  0  0  0  0  0  0  0  0
  147.8390  143.0019  155.6427 H   0  0  0  0  0  0  0  0  0  0  0  0
  1  2  1  0  0  0  0
  1 24  1  0  0  0  0
  1 25  1  0  0  0  0
  1 26  1  0  0  0  0
  2  3  1  0  0  0  0
  2 27  1  0  0  0  0
  2 28  1  0  0  0  0
  3 22  1  0  0  0  0
  3  4  1  0  0  0  0
  3 53  1  0  0  0  0
  4  5  1  0  0  0  0
  4 29  1  0  0  0  0
  4 30  1  0  0  0  0
  5  6  1  0  0  0  0
  5 31  1  0  0  0  0
  5 32  1  0  0  0  0
  6  7  1  0  0  0  0
  6 21  1  0  0  0  0
  6 33  1  0  0  0  0
  7  8  1  0  0  0  0
  7 34  1  0  0  0  0
  8  9  2  0  0  0  0
  8 10  1  0  0  0  0
 10 11  1  0  0  0  0
 10 35  1  0  0  0  0
 11 20  1  0  0  0  0
 11 12  2  0  0  0  0
 12 13  1  0  0  0  0
 12 36  1  0  0  0  0
 13 14  2  0  0  0  0
 14 15  1  0  0  0  0
 14 19  1  0  0  0  0
 15 16  1  0  0  0  0
 15 17  1  0  0  0  0
 15 18  1  0  0  0  0
 16 37  1  0  0  0  0
 16 38  1  0  0  0  0
 16 39  1  0  0  0  0
 17 40  1  0  0  0  0
 17 41  1  0  0  0  0
 17 42  1  0  0  0  0
 18 43  1  0  0  0  0
 18 44  1  0  0  0  0
 18 45  1  0  0  0  0
 19 20  2  0  0  0  0
 20 46  1  0  0  0  0
 21 22  1  0  0  0  0
 21 47  1  0  0  0  0
 21 48  1  0  0  0  0
 22 23  1  0  0  0  0
 22 49  1  0  0  0  0
 23 50  1  0  0  0  0
 23 51  1  0  0  0  0
 23 52  1  0  0  0  0
M  CHG  1   3   1
M  END
> <s_m_source_file>
AV-unprocessed.smi

> <i_m_source_file_index>
2710

> <i_lp_mmshare_version>
43012

> <i_f3d_flags>
0

> <s_epik_input>
W0NIM11bQ0gyXU4xW0NIMl1bQ0gyXVtDQEhdKFtDSDJdW0NASF0xW0NIM10pW05IXUMoPU8pW05IXWMyW2NIXW5jKEMoW0NIM10pKFtDSDNdKVtDSDNdKW5bY0hdMg==

> <s_epik_cmdline>
J2VwaWtfcHl0aG9uJywgJy1waCcsICc3LjAnLCAnLXRuJywgJzgnLCAnLW1hJywgJzIwMCcsICctbWV0YWxfYmluZGluZycsICctaW1hZScsICc8aW5maWxlLm1hZT4nLCAnLW9tYWUnLCAnPG91dGZpbGUubWFlPic=

> <r_lp_tautomer_probability>
1

> <r_epik_Ionization_Penalty>
0.00396003

> <r_epik_Ionization_Penalty_Charging>
0.0039379

> <r_epik_Ionization_Penalty_Neutral>
2.21316e-05

> <r_epik_State_Penalty>
0.00281651

> <r_epik_Charging_Adjusted_Penalty>
0.00675441

> <i_epik_Tot_Q>
1

> <i_epik_Tot_abs_Q>
1

> <r_epik_Metal_State_Penalty>
-0

> <b_epik_Metal_Only>
0

> <s_lp_Force_Field>
OPLS_2005

> <r_lp_Energy>
19.7949

> <b_lp_Chiralities_Consistent>
1

> <s_lp_Variant>
AV-unprocessed.smi:2710-6

> <Gold.Version>
5.8.1

> <Gold.Id.Protein>
6NUR|6NUR_protein|mol2

> <Gold.PLP.Fitness>
48.2178

> <Gold.PLP.PLP>
-37.8566

> <Gold.PLP.part.hbond>
-3.3600

> <Gold.PLP.part.metal>
0.0000

> <Gold.PLP.part.buried>
-4.7093

> <Gold.PLP.part.nonpolar>
-34.2368

> <Gold.PLP.part.repulsive>
5.1221

> <Gold.PLP.ligand.clash>
0.0000

> <Gold.PLP.ligand.torsion>
0.3193

> <Gold.PLP.Chemscore.Hbond>
3.0000

> <Gold.PLP.Chemscore.CHOScore>
0.6557

> <Gold.PLP.Chemscore.Metal>
0.0000

> <Gold.Chemscore.Hbonds>
donor molecule, donor type, donor heavy atom, donor atom, acceptor molecule, acceptor atom, score
      L1  H     3    53       P1  8028  2.00
      P1  H  7954  7966       L1     9  0.99
      L1  C    12    36       P1  7948  0.60

> <Gold.PLP.Chemscore.Internal.Correction>
0.0327

> <Gold.Rescore>
     Score         DG    S(hbond)    S(metal)    S(lipo)     H(rot)  DE(clash)    DE(int)     intcor
     14.45     -19.95       1.82        0.00     100.35       1.31       3.80       1.70       ----

> <Gold.Chemscore.Fitness>
14.4496

> <Gold.Chemscore.DG>
-19.9489

> <Gold.Chemscore.ZeroCoef>
-5.4800

> <Gold.Chemscore.Hbond>
1.8193

> <Gold.Chemscore.Metal>
0.0000

> <Gold.Chemscore.Lipo>
100.3535

> <Gold.Chemscore.Internal_Hbond>
0.0000

> <Gold.Chemscore.DEClash>
3.7957

> <Gold.Chemscore.DEInternal>
1.7037

> <Gold.Chemscore.Rot>
1.3081

> <Gold.Chemscore.Internal.Correction>
   9.000000E+99

> <Gold.Chemscore.Hbonds>
donor molecule, donor type, donor heavy atom, donor atom, acceptor molecule, acceptor atom, score
      L1  H     3    53       P1  8028  0.59
      P1  H  7954  7966       L1     9  0.89

> <Gold.Chemscore.Hbond.Weighted>
-6.0764

> <Gold.Chemscore.Metal.Weighted>
-0.0000

> <Gold.Chemscore.Lipo.Weighted>
-11.7414

> <Gold.Chemscore.Internal_Hbond.Weighted>
0.0000

> <Gold.Chemscore.DEClash.Weighted>
3.7957

> <Gold.Chemscore.DEInternal.Weighted>
1.7037

> <Gold.Chemscore.Rot.Weighted>
3.3488

> <Gold.Chemscore.Internal.Correction.Weighted>
   9.000000E+99

> <Gold.Protein.RotatedTorsions>
[ 6907 6896 6895 6894 ] final -165.45 input  -60.11 | X-H torsion
[ 7974 7965 7964 7962 ] final  169.53 input  175.53 | X-H torsion
[ 8008 7997 7996 7995 ] final    7.27 input   59.86 | X-H torsion
[ 10167 10162 10161 10158 ] final  -32.56 input  -65.29 | X-H torsion
[ 10718 10713 10712 10709 ] final  178.08 input   66.30 | X-H torsion
[ 10763 10752 10751 10750 ] final   50.80 input  -60.55 | X-H torsion
[ 11005 11000 10999 10996 ] final  -49.54 input  -57.11 | X-H torsion

> <Gold.Protein.ActiveResidues>
 VAL166  LYS551  ARG553  GLY616  TRP617  ASP618  TYR619  PRO620  LYS621  CYS622 
 ASP623  PHE694  ASN695  SER759  ASP760  ASP761  ALA762  ILE779  LEU786  VAL792 
 PHE793  MET794  SER795  GLU796  ALA797  LYS798  CYS799  TRP800  GLU811  SER814 

> <Gold.Protein.RotatedAtoms>
  151.4279  133.3679  159.2764 H   0  0  0  0  0  0  0  0  0  0  0  0  # atno 6907 bound_to 6896
  150.9246  134.8665  159.7522 H   0  0  0  0  0  0  0  0  0  0  0  0  # atno 6908 bound_to 6896
  152.4999  134.4219  159.9535 H   0  0  0  0  0  0  0  0  0  0  0  0  # atno 6909 bound_to 6896
  144.7352  139.9068  143.6412 H   0  0  0  0  0  0  0  0  0  0  0  0  # atno 7974 bound_to 7965
  154.7517  140.2768  155.6287 H   0  0  0  0  0  0  0  0  0  0  0  0  # atno 8008 bound_to 7997
  156.2897  140.2677  156.2199 H   0  0  0  0  0  0  0  0  0  0  0  0  # atno 8009 bound_to 7997
  155.0129  140.0372  157.2396 H   0  0  0  0  0  0  0  0  0  0  0  0  # atno 8010 bound_to 7997
  140.7219  143.3686  151.1823 H   0  0  0  0  0  0  0  0  0  0  0  0  # atno 10167 bound_to 10162
  156.8958  130.9862  151.3043 H   0  0  0  0  0  0  0  0  0  0  0  0  # atno 10718 bound_to 10713
  152.9784  135.5867  154.4311 H   0  0  0  0  0  0  0  0  0  0  0  0  # atno 10763 bound_to 10752
  154.3924  135.2768  155.2148 H   0  0  0  0  0  0  0  0  0  0  0  0  # atno 10764 bound_to 10752
  154.4015  135.6102  153.5954 H   0  0  0  0  0  0  0  0  0  0  0  0  # atno 10765 bound_to 10752
  141.0765  133.6664  156.3600 H   0  0  0  0  0  0  0  0  0  0  0  0  # atno 11005 bound_to 11000
  146.1031  139.4028  143.0334 LP  0  0  0  0  0  0  0  0  0  0  0  0  # atno 17320 bound_to 7965
  145.7551  140.9957  143.1230 LP  0  0  0  0  0  0  0  0  0  0  0  0  # atno 17321 bound_to 7965
  139.7252  143.9159  152.3000 LP  0  0  0  0  0  0  0  0  0  0  0  0  # atno 17342 bound_to 10162
  139.8930  144.6955  150.8749 LP  0  0  0  0  0  0  0  0  0  0  0  0  # atno 17343 bound_to 10162
  157.6056  130.8545  149.8870 LP  0  0  0  0  0  0  0  0  0  0  0  0  # atno 17370 bound_to 10713
  156.0606  130.3700  150.0990 LP  0  0  0  0  0  0  0  0  0  0  0  0  # atno 17371 bound_to 10713
  140.5562  134.5979  157.5421 LP  0  0  0  0  0  0  0  0  0  0  0  0  # atno 17394 bound_to 11000
  139.9577  134.7506  156.0305 LP  0  0  0  0  0  0  0  0  0  0  0  0  # atno 17395 bound_to 11000

$$$$
