AV-unprocessed.smi:657|AV-procd|sdf|3221|dock8
  -GOLD-   22720 0163D 1   1.00000     0.00000
 Structure written by MMmdl.
 47 48  0  0  0  0  0  0  0  0  2 V2000
  147.1762  138.6258  153.7335 C   0  0  0  0  0  0  0  0  0  0  0  0
  146.9429  137.1775  154.2157 C   0  0  0  0  0  0  0  0  0  0  0  0
  148.1906  136.7255  155.0029 C   0  0  0  0  0  0  0  0  0  0  0  0
  146.6076  136.2340  153.0938 N   0  3  1  0  0  0  0  0  0  0  0  0
  146.7158  134.7872  153.4636 C   0  0  0  0  0  0  0  0  0  0  0  0
  146.5442  133.8581  152.2503 C   0  0  0  0  0  0  0  0  0  0  0  0
  145.2300  134.1311  151.5181 C   0  0  0  0  0  0  0  0  0  0  0  0
  145.1842  135.6077  151.1134 C   0  0  0  0  0  0  0  0  0  0  0  0
  145.3517  136.5528  152.3261 C   0  0  1  0  0  0  0  0  0  0  0  0
  144.0546  136.6163  153.1632 C   0  0  0  0  0  0  0  0  0  0  0  0
  143.6686  135.6544  153.8265 O   0  0  0  0  0  0  0  0  0  0  0  0
  143.3720  137.7692  153.0906 N   0  0  0  0  0  0  0  0  0  0  0  0
  142.0769  138.0308  153.7132 C   0  0  0  0  0  0  0  0  0  0  0  0
  141.0448  136.9102  153.4624 C   0  0  0  0  0  0  0  0  0  0  0  0
  139.6364  137.3155  153.8134 C   0  0  0  0  0  0  0  0  0  0  0  0
  138.8659  138.3842  153.2723 C   0  0  0  0  0  0  0  0  0  0  0  0
  137.6415  138.4382  153.7706 N   0  0  0  0  0  0  0  0  0  0  0  0
  137.5921  137.4191  154.6526 N   0  0  0  0  0  0  0  0  0  0  0  0
  136.3729  137.1713  155.3914 C   0  0  0  0  0  0  0  0  0  0  0  0
  138.7837  136.7303  154.7060 C   0  0  0  0  0  0  0  0  0  0  0  0
  147.5110  139.2625  154.5532 H   0  0  0  0  0  0  0  0  0  0  0  0
  146.2669  139.0865  153.3484 H   0  0  0  0  0  0  0  0  0  0  0  0
  147.9378  138.6686  152.9541 H   0  0  0  0  0  0  0  0  0  0  0  0
  146.1073  137.1947  154.9160 H   0  0  0  0  0  0  0  0  0  0  0  0
  148.4985  137.4867  155.7209 H   0  0  0  0  0  0  0  0  0  0  0  0
  149.0359  136.5416  154.3389 H   0  0  0  0  0  0  0  0  0  0  0  0
  148.0107  135.8232  155.5862 H   0  0  0  0  0  0  0  0  0  0  0  0
  147.6959  134.5703  153.8826 H   0  0  0  0  0  0  0  0  0  0  0  0
  145.9929  134.5333  154.2383 H   0  0  0  0  0  0  0  0  0  0  0  0
  147.3805  133.9963  151.5637 H   0  0  0  0  0  0  0  0  0  0  0  0
  146.5800  132.8169  152.5725 H   0  0  0  0  0  0  0  0  0  0  0  0
  145.1492  133.4959  150.6357 H   0  0  0  0  0  0  0  0  0  0  0  0
  144.3847  133.8829  152.1604 H   0  0  0  0  0  0  0  0  0  0  0  0
  145.9791  135.8053  150.3929 H   0  0  0  0  0  0  0  0  0  0  0  0
  144.2511  135.8148  150.5862 H   0  0  0  0  0  0  0  0  0  0  0  0
  145.4843  137.5425  151.8893 H   0  0  0  0  0  0  0  0  0  0  0  0
  143.7547  138.5103  152.5212 H   0  0  0  0  0  0  0  0  0  0  0  0
  142.1954  138.2148  154.7820 H   0  0  0  0  0  0  0  0  0  0  0  0
  141.7046  138.9600  153.2808 H   0  0  0  0  0  0  0  0  0  0  0  0
  141.0971  136.6170  152.4134 H   0  0  0  0  0  0  0  0  0  0  0  0
  141.3406  136.0229  154.0221 H   0  0  0  0  0  0  0  0  0  0  0  0
  139.1537  139.1069  152.5231 H   0  0  0  0  0  0  0  0  0  0  0  0
  136.5452  136.4088  156.1514 H   0  0  0  0  0  0  0  0  0  0  0  0
  135.5951  136.8244  154.7106 H   0  0  0  0  0  0  0  0  0  0  0  0
  136.0414  138.0886  155.8793 H   0  0  0  0  0  0  0  0  0  0  0  0
  138.9210  135.8786  155.3559 H   0  0  0  0  0  0  0  0  0  0  0  0
  147.3464  136.3747  152.4199 H   0  0  0  0  0  0  0  0  0  0  0  0
  1  2  1  0  0  0  0
  1 21  1  0  0  0  0
  1 22  1  0  0  0  0
  1 23  1  0  0  0  0
  2  3  1  0  0  0  0
  2  4  1  0  0  0  0
  2 24  1  0  0  0  0
  3 25  1  0  0  0  0
  3 26  1  0  0  0  0
  3 27  1  0  0  0  0
  4  9  1  0  0  0  0
  4  5  1  0  0  0  0
  4 47  1  0  0  0  0
  5  6  1  0  0  0  0
  5 28  1  0  0  0  0
  5 29  1  0  0  0  0
  6  7  1  0  0  0  0
  6 30  1  0  0  0  0
  6 31  1  0  0  0  0
  7  8  1  0  0  0  0
  7 32  1  0  0  0  0
  7 33  1  0  0  0  0
  8  9  1  0  0  0  0
  8 34  1  0  0  0  0
  8 35  1  0  0  0  0
  9 10  1  0  0  0  0
  9 36  1  0  0  0  0
 10 11  2  0  0  0  0
 10 12  1  0  0  0  0
 12 13  1  0  0  0  0
 12 37  1  0  0  0  0
 13 14  1  0  0  0  0
 13 38  1  0  0  0  0
 13 39  1  0  0  0  0
 14 15  1  0  0  0  0
 14 40  1  0  0  0  0
 14 41  1  0  0  0  0
 15 20  2  0  0  0  0
 15 16  1  0  0  0  0
 16 17  2  0  0  0  0
 16 42  1  0  0  0  0
 17 18  1  0  0  0  0
 18 19  1  0  0  0  0
 18 20  1  0  0  0  0
 19 43  1  0  0  0  0
 19 44  1  0  0  0  0
 19 45  1  0  0  0  0
 20 46  1  0  0  0  0
M  CHG  1   4   1
M  END
> <s_m_source_file>
AV-unprocessed.smi

> <i_m_source_file_index>
657

> <i_lp_mmshare_version>
43012

> <i_f3d_flags>
0

> <s_epik_input>
W0NIM11bQ0hdKFtDSDNdKU4xW0NIMl1bQ0gyXVtDSDJdW0NIMl1bQ0BIXTFDKD1PKVtOSF1bQ0gyXVtDSDJdYzJbY0hdbm4oW0NIM10pW2NIXTI=

> <s_epik_cmdline>
J2VwaWtfcHl0aG9uJywgJy1waCcsICc3LjAnLCAnLXRuJywgJzgnLCAnLW1hJywgJzIwMCcsICctbWV0YWxfYmluZGluZycsICctaW1hZScsICc8aW5maWxlLm1hZT4nLCAnLW9tYWUnLCAnPG91dGZpbGUubWFlPic=

> <r_lp_tautomer_probability>
1

> <r_epik_Ionization_Penalty>
0.0244317

> <r_epik_Ionization_Penalty_Charging>
0.0240236

> <r_epik_Ionization_Penalty_Neutral>
0.00040815

> <r_epik_State_Penalty>
0.0194773

> <r_epik_Charging_Adjusted_Penalty>
0.0435009

> <i_epik_Tot_Q>
1

> <i_epik_Tot_abs_Q>
1

> <r_epik_Metal_State_Penalty>
0.0361957

> <b_epik_Metal_Only>
0

> <s_lp_Force_Field>
OPLS_2005

> <r_lp_Energy>
18.2294

> <b_lp_Chiralities_Consistent>
1

> <s_lp_Variant>
AV-unprocessed.smi:657-2

> <Gold.Version>
5.8.1

> <Gold.Id.Protein>
6NUR|6NUR_protein|mol2

> <Gold.PLP.Fitness>
43.3165

> <Gold.PLP.PLP>
-29.6878

> <Gold.PLP.part.hbond>
-2.0000

> <Gold.PLP.part.metal>
0.0000

> <Gold.PLP.part.buried>
-2.3879

> <Gold.PLP.part.nonpolar>
-24.6171

> <Gold.PLP.part.repulsive>
0.0952

> <Gold.PLP.ligand.clash>
0.0000

> <Gold.PLP.ligand.torsion>
0.3483

> <Gold.PLP.Chemscore.Hbond>
2.7520

> <Gold.PLP.Chemscore.CHOScore>
1.9580

> <Gold.PLP.Chemscore.Metal>
0.0000

> <Gold.Chemscore.Hbonds>
donor molecule, donor type, donor heavy atom, donor atom, acceptor molecule, acceptor atom, score
      L1  H     4    47       P1  7948  2.00
      L1  H    12    37       P1 10175  0.74
      L1  C    16    42       P1 10160  1.00
      L1  C    20    46       P1 11000  0.93

> <Gold.PLP.Chemscore.Internal.Correction>
0.1953

> <Gold.Rescore>
     Score         DG    S(hbond)    S(metal)    S(lipo)     H(rot)  DE(clash)    DE(int)     intcor
     13.39     -15.08       1.85        0.00      64.75       1.63       0.15       1.54       ----

> <Gold.Chemscore.Fitness>
13.3865

> <Gold.Chemscore.DG>
-15.0793

> <Gold.Chemscore.ZeroCoef>
-5.4800

> <Gold.Chemscore.Hbond>
1.8536

> <Gold.Chemscore.Metal>
0.0000

> <Gold.Chemscore.Lipo>
64.7474

> <Gold.Chemscore.Internal_Hbond>
0.0000

> <Gold.Chemscore.DEClash>
0.1509

> <Gold.Chemscore.DEInternal>
1.5419

> <Gold.Chemscore.Rot>
1.6279

> <Gold.Chemscore.Internal.Correction>
   9.000000E+99

> <Gold.Chemscore.Hbonds>
donor molecule, donor type, donor heavy atom, donor atom, acceptor molecule, acceptor atom, score
      L1  H     4    47       P1  7948  0.98
      L1  H    12    37       P1 10175  0.74

> <Gold.Chemscore.Hbond.Weighted>
-6.1912

> <Gold.Chemscore.Metal.Weighted>
-0.0000

> <Gold.Chemscore.Lipo.Weighted>
-7.5754

> <Gold.Chemscore.Internal_Hbond.Weighted>
0.0000

> <Gold.Chemscore.DEClash.Weighted>
0.1509

> <Gold.Chemscore.DEInternal.Weighted>
1.5419

> <Gold.Chemscore.Rot.Weighted>
4.1673

> <Gold.Chemscore.Internal.Correction.Weighted>
   9.000000E+99

> <Gold.Protein.RotatedTorsions>
[ 6907 6896 6895 6894 ] final  -47.82 input  -60.11 | X-H torsion
[ 7974 7965 7964 7962 ] final  129.83 input  175.53 | X-H torsion
[ 8008 7997 7996 7995 ] final  116.81 input   59.86 | X-H torsion
[ 10167 10162 10161 10158 ] final   54.75 input  -65.29 | X-H torsion
[ 10718 10713 10712 10709 ] final   27.56 input   66.30 | X-H torsion
[ 10763 10752 10751 10750 ] final  122.51 input  -60.55 | X-H torsion
[ 11005 11000 10999 10996 ] final  -82.47 input  -57.11 | X-H torsion

> <Gold.Protein.ActiveResidues>
 VAL166  LYS551  ARG553  GLY616  TRP617  ASP618  TYR619  PRO620  LYS621  CYS622 
 ASP623  PHE694  ASN695  SER759  ASP760  ASP761  ALA762  ILE779  LEU786  VAL792 
 PHE793  MET794  SER795  GLU796  ALA797  LYS798  CYS799  TRP800  GLU811  SER814 

> <Gold.Protein.RotatedAtoms>
  150.8969  134.8378  159.7332 H   0  0  0  0  0  0  0  0  0  0  0  0  # atno 6907 bound_to 6896
  152.4870  134.4563  159.9600 H   0  0  0  0  0  0  0  0  0  0  0  0  # atno 6908 bound_to 6896
  151.4619  133.3551  159.2845 H   0  0  0  0  0  0  0  0  0  0  0  0  # atno 6909 bound_to 6896
  145.0244  139.4102  143.5181 H   0  0  0  0  0  0  0  0  0  0  0  0  # atno 7974 bound_to 7965
  156.2460  140.2909  156.0582 H   0  0  0  0  0  0  0  0  0  0  0  0  # atno 8008 bound_to 7997
  155.1806  140.0404  157.2898 H   0  0  0  0  0  0  0  0  0  0  0  0  # atno 8009 bound_to 7997
  154.6262  140.2488  155.7495 H   0  0  0  0  0  0  0  0  0  0  0  0  # atno 8010 bound_to 7997
  140.2267  144.3730  150.6429 H   0  0  0  0  0  0  0  0  0  0  0  0  # atno 10167 bound_to 10162
  157.2218  130.6982  149.6273 H   0  0  0  0  0  0  0  0  0  0  0  0  # atno 10718 bound_to 10713
  153.6309  135.3396  155.3041 H   0  0  0  0  0  0  0  0  0  0  0  0  # atno 10763 bound_to 10752
  154.8580  135.4295  154.2106 H   0  0  0  0  0  0  0  0  0  0  0  0  # atno 10764 bound_to 10752
  153.3002  135.7024  153.7284 H   0  0  0  0  0  0  0  0  0  0  0  0  # atno 10765 bound_to 10752
  141.1663  133.7246  156.8577 H   0  0  0  0  0  0  0  0  0  0  0  0  # atno 11005 bound_to 11000
  146.3490  139.9760  142.8701 LP  0  0  0  0  0  0  0  0  0  0  0  0  # atno 17320 bound_to 7965
  145.1853  140.9786  143.4242 LP  0  0  0  0  0  0  0  0  0  0  0  0  # atno 17321 bound_to 7965
  140.6215  143.2177  151.6684 LP  0  0  0  0  0  0  0  0  0  0  0  0  # atno 17342 bound_to 10162
  139.5124  144.3476  152.0682 LP  0  0  0  0  0  0  0  0  0  0  0  0  # atno 17343 bound_to 10162
  155.9682  130.4517  150.5747 LP  0  0  0  0  0  0  0  0  0  0  0  0  # atno 17370 bound_to 10713
  157.3568  131.0743  151.1669 LP  0  0  0  0  0  0  0  0  0  0  0  0  # atno 17371 bound_to 10713
  140.1871  134.8992  157.3016 LP  0  0  0  0  0  0  0  0  0  0  0  0  # atno 17394 bound_to 11000
  140.2331  134.3885  155.7513 LP  0  0  0  0  0  0  0  0  0  0  0  0  # atno 17395 bound_to 11000

$$$$
