AV-unprocessed.smi:610|AV-procd|sdf|3055|dock2
  -GOLD-   2262023573D 1   1.00000     0.00000
 Structure written by MMmdl.
 38 39  0  0  0  0  0  0  0  0  2 V2000
  151.8846  140.0747  158.0343 C   0  0  0  0  0  0  0  0  0  0  0  0
  151.0541  141.1364  157.2983 C   0  0  2  0  0  0  0  0  0  0  0  0
  150.2864  142.0416  158.2808 C   0  0  0  0  0  0  0  0  0  0  0  0
  151.1020  143.1441  158.7570 N   0  0  0  0  0  0  0  0  0  0  0  0
  150.8832  144.4995  158.5494 C   0  0  0  0  0  0  0  0  0  0  0  0
  151.8974  145.1653  159.1999 C   0  0  0  0  0  0  0  0  0  0  0  0
  152.7467  144.2450  159.8103 N   0  0  0  0  0  0  0  0  0  0  0  0
  152.2165  143.0699  159.4977 C   0  0  0  0  0  0  0  0  0  0  0  0
  150.1133  140.4902  156.3862 N   0  0  0  0  0  0  0  0  0  0  0  0
  150.4295  139.8593  155.2438 C   0  0  0  0  0  0  0  0  0  0  0  0
  151.5941  139.7149  154.8704 O   0  0  0  0  0  0  0  0  0  0  0  0
  149.2779  139.3270  154.3585 C   0  0  0  0  0  0  0  0  0  0  0  0
  149.8952  138.6647  153.1941 N   0  3  0  0  0  0  0  0  0  0  0  0
  148.3867  138.3524  155.1474 C   0  0  0  0  0  0  0  0  0  0  0  0
  147.3769  139.2382  155.8911 C   0  0  0  0  0  0  0  0  0  0  0  0
  147.2750  140.5424  155.0837 C   0  0  0  0  0  0  0  0  0  0  0  0
  148.2544  140.3922  153.9108 C   0  0  0  0  0  0  0  0  0  0  0  0
  152.5932  140.5388  158.7210 H   0  0  0  0  0  0  0  0  0  0  0  0
  152.4587  139.4669  157.3340 H   0  0  0  0  0  0  0  0  0  0  0  0
  151.2492  139.4046  158.6143 H   0  0  0  0  0  0  0  0  0  0  0  0
  151.7379  141.7669  156.7266 H   0  0  0  0  0  0  0  0  0  0  0  0
  149.3875  142.4452  157.8119 H   0  0  0  0  0  0  0  0  0  0  0  0
  149.9571  141.4658  159.1465 H   0  0  0  0  0  0  0  0  0  0  0  0
  150.0451  144.8675  157.9758 H   0  0  0  0  0  0  0  0  0  0  0  0
  152.0791  146.2274  159.2761 H   0  0  0  0  0  0  0  0  0  0  0  0
  152.6428  142.1331  159.8258 H   0  0  0  0  0  0  0  0  0  0  0  0
  149.1353  140.5592  156.6285 H   0  0  0  0  0  0  0  0  0  0  0  0
  149.9868  139.3250  152.4356 H   0  0  0  0  0  0  0  0  0  0  0  0
  149.3104  137.8938  152.9036 H   0  0  0  0  0  0  0  0  0  0  0  0
  147.8484  137.6997  154.4582 H   0  0  0  0  0  0  0  0  0  0  0  0
  148.9395  137.7046  155.8296 H   0  0  0  0  0  0  0  0  0  0  0  0
  146.4107  138.7430  155.9930 H   0  0  0  0  0  0  0  0  0  0  0  0
  147.7378  139.4561  156.8971 H   0  0  0  0  0  0  0  0  0  0  0  0
  146.2593  140.7243  154.7307 H   0  0  0  0  0  0  0  0  0  0  0  0
  147.5569  141.3893  155.7106 H   0  0  0  0  0  0  0  0  0  0  0  0
  148.6967  141.3426  153.6084 H   0  0  0  0  0  0  0  0  0  0  0  0
  147.7036  140.0242  153.0434 H   0  0  0  0  0  0  0  0  0  0  0  0
  150.8067  138.3137  153.4510 H   0  0  0  0  0  0  0  0  0  0  0  0
  1  2  1  0  0  0  0
  1 18  1  0  0  0  0
  1 19  1  0  0  0  0
  1 20  1  0  0  0  0
  2  3  1  0  0  0  0
  2  9  1  0  0  0  0
  2 21  1  0  0  0  0
  3  4  1  0  0  0  0
  3 22  1  0  0  0  0
  3 23  1  0  0  0  0
  4  8  1  0  0  0  0
  4  5  1  0  0  0  0
  5  6  2  0  0  0  0
  5 24  1  0  0  0  0
  6  7  1  0  0  0  0
  6 25  1  0  0  0  0
  7  8  2  0  0  0  0
  8 26  1  0  0  0  0
  9 10  1  0  0  0  0
  9 27  1  0  0  0  0
 10 11  2  0  0  0  0
 10 12  1  0  0  0  0
 12 17  1  0  0  0  0
 12 13  1  0  0  0  0
 12 14  1  0  0  0  0
 13 28  1  0  0  0  0
 13 29  1  0  0  0  0
 13 38  1  0  0  0  0
 14 15  1  0  0  0  0
 14 30  1  0  0  0  0
 14 31  1  0  0  0  0
 15 16  1  0  0  0  0
 15 32  1  0  0  0  0
 15 33  1  0  0  0  0
 16 17  1  0  0  0  0
 16 34  1  0  0  0  0
 16 35  1  0  0  0  0
 17 36  1  0  0  0  0
 17 37  1  0  0  0  0
M  CHG  1  13   1
M  END
> <s_m_source_file>
AV-unprocessed.smi

> <i_m_source_file_index>
610

> <i_lp_mmshare_version>
43012

> <i_f3d_flags>
0

> <s_epik_input>
W2NIXTFuW2NIXVtjSF1uMVtDSDJdW0NAQEhdKFtDSDNdKVtOSF1DKD1PKUMyKFtOSDJdKVtDSDJdW0NIMl1bQ0gyXVtDSDJdMg==

> <s_epik_cmdline>
J2VwaWtfcHl0aG9uJywgJy1waCcsICc3LjAnLCAnLXRuJywgJzgnLCAnLW1hJywgJzIwMCcsICctbWV0YWxfYmluZGluZycsICctaW1hZScsICc8aW5maWxlLm1hZT4nLCAnLW9tYWUnLCAnPG91dGZpbGUubWFlPic=

> <r_lp_tautomer_probability>
1

> <r_epik_Ionization_Penalty>
0.661147

> <r_epik_Ionization_Penalty_Charging>
0.661145

> <r_epik_Ionization_Penalty_Neutral>
1.19451e-06

> <r_epik_State_Penalty>
0.679243

> <r_epik_Charging_Adjusted_Penalty>
1.34039

> <i_epik_Tot_Q>
1

> <i_epik_Tot_abs_Q>
1

> <r_epik_Metal_State_Penalty>
0.372892

> <b_epik_Metal_Only>
0

> <s_lp_Force_Field>
OPLS_2005

> <r_lp_Energy>
25.3563

> <b_lp_Chiralities_Consistent>
1

> <s_lp_Variant>
AV-unprocessed.smi:610-3

> <Gold.Version>
5.8.1

> <Gold.Id.Protein>
6NUR|6NUR_protein|mol2

> <Gold.PLP.Fitness>
43.9878

> <Gold.PLP.PLP>
-29.6745

> <Gold.PLP.part.hbond>
-2.9281

> <Gold.PLP.part.metal>
0.0000

> <Gold.PLP.part.buried>
-1.6355

> <Gold.PLP.part.nonpolar>
-24.6237

> <Gold.PLP.part.repulsive>
0.2099

> <Gold.PLP.ligand.clash>
0.0000

> <Gold.PLP.ligand.torsion>
0.4783

> <Gold.PLP.Chemscore.Hbond>
3.9840

> <Gold.PLP.Chemscore.CHOScore>
1.0783

> <Gold.PLP.Chemscore.Metal>
0.0000

> <Gold.Chemscore.Hbonds>
donor molecule, donor type, donor heavy atom, donor atom, acceptor molecule, acceptor atom, score
      L1  H    13    28       P1  7957  0.91
      L1  H    13    29       P1  7948  2.00
      P1  H  7989  7998       L1    11  1.00
      L1  C     5    24       P1  8028  0.46
      L1  C     5    24       P1  8029  0.62

> <Gold.PLP.Chemscore.Internal.Correction>
0.0832

> <Gold.Rescore>
     Score         DG    S(hbond)    S(metal)    S(lipo)     H(rot)  DE(clash)    DE(int)     intcor
     13.23     -14.69       2.37        0.00      54.66       2.00       0.28       1.19       ----

> <Gold.Chemscore.Fitness>
13.2250

> <Gold.Chemscore.DG>
-14.6913

> <Gold.Chemscore.ZeroCoef>
-5.4800

> <Gold.Chemscore.Hbond>
2.3740

> <Gold.Chemscore.Metal>
0.0000

> <Gold.Chemscore.Lipo>
54.6575

> <Gold.Chemscore.Internal_Hbond>
0.0000

> <Gold.Chemscore.DEClash>
0.2788

> <Gold.Chemscore.DEInternal>
1.1874

> <Gold.Chemscore.Rot>
1.9972

> <Gold.Chemscore.Internal.Correction>
   9.000000E+99

> <Gold.Chemscore.Hbonds>
donor molecule, donor type, donor heavy atom, donor atom, acceptor molecule, acceptor atom, score
      L1  H    13    28       P1  7957  0.72
      L1  H    13    29       P1  7948  0.89
      P1  H  7989  7998       L1    11  0.30

> <Gold.Chemscore.Hbond.Weighted>
-7.9291

> <Gold.Chemscore.Metal.Weighted>
-0.0000

> <Gold.Chemscore.Lipo.Weighted>
-6.3949

> <Gold.Chemscore.Internal_Hbond.Weighted>
0.0000

> <Gold.Chemscore.DEClash.Weighted>
0.2788

> <Gold.Chemscore.DEInternal.Weighted>
1.1874

> <Gold.Chemscore.Rot.Weighted>
5.1127

> <Gold.Chemscore.Internal.Correction.Weighted>
   9.000000E+99

> <Gold.Protein.RotatedTorsions>
[ 6907 6896 6895 6894 ] final  -95.91 input  -60.11 | X-H torsion
[ 7974 7965 7964 7962 ] final  -96.15 input  175.53 | X-H torsion
[ 8008 7997 7996 7995 ] final   95.37 input   59.86 | X-H torsion
[ 10167 10162 10161 10158 ] final  -25.36 input  -65.29 | X-H torsion
[ 10718 10713 10712 10709 ] final   -3.48 input   66.30 | X-H torsion
[ 10763 10752 10751 10750 ] final  145.27 input  -60.55 | X-H torsion
[ 11005 11000 10999 10996 ] final -153.48 input  -57.11 | X-H torsion

> <Gold.Protein.ActiveResidues>
 VAL166  LYS551  ARG553  GLY616  TRP617  ASP618  TYR619  PRO620  LYS621  CYS622 
 ASP623  PHE694  ASN695  SER759  ASP760  ASP761  ALA762  ILE779  LEU786  VAL792 
 PHE793  MET794  SER795  GLU796  ALA797  LYS798  CYS799  TRP800  GLU811  SER814 

> <Gold.Protein.RotatedAtoms>
  150.6975  134.1585  159.4167 H   0  0  0  0  0  0  0  0  0  0  0  0  # atno 6907 bound_to 6896
  151.9566  135.0141  160.0554 H   0  0  0  0  0  0  0  0  0  0  0  0  # atno 6908 bound_to 6896
  152.1964  133.4774  159.5072 H   0  0  0  0  0  0  0  0  0  0  0  0  # atno 6909 bound_to 6896
  145.3506  140.9476  143.2556 H   0  0  0  0  0  0  0  0  0  0  0  0  # atno 7974 bound_to 7965
  156.0681  140.3287  155.7542 H   0  0  0  0  0  0  0  0  0  0  0  0  # atno 8008 bound_to 7997
  155.5349  140.0596  157.2899 H   0  0  0  0  0  0  0  0  0  0  0  0  # atno 8009 bound_to 7997
  154.4515  140.1921  156.0521 H   0  0  0  0  0  0  0  0  0  0  0  0  # atno 8010 bound_to 7997
  140.7286  143.4271  151.0859 H   0  0  0  0  0  0  0  0  0  0  0  0  # atno 10167 bound_to 10162
  156.7754  130.5313  149.5760 H   0  0  0  0  0  0  0  0  0  0  0  0  # atno 10718 bound_to 10713
  154.0026  135.2922  155.3401 H   0  0  0  0  0  0  0  0  0  0  0  0  # atno 10763 bound_to 10752
  154.7151  135.5133  153.8728 H   0  0  0  0  0  0  0  0  0  0  0  0  # atno 10764 bound_to 10752
  153.0759  135.6663  154.0266 H   0  0  0  0  0  0  0  0  0  0  0  0  # atno 10765 bound_to 10752
  140.7077  134.3867  157.5202 H   0  0  0  0  0  0  0  0  0  0  0  0  # atno 11005 bound_to 11000
  144.8720  139.5024  143.6763 LP  0  0  0  0  0  0  0  0  0  0  0  0  # atno 17320 bound_to 7965
  146.2969  139.7306  142.9120 LP  0  0  0  0  0  0  0  0  0  0  0  0  # atno 17321 bound_to 7965
  139.7924  143.8200  152.3153 LP  0  0  0  0  0  0  0  0  0  0  0  0  # atno 17342 bound_to 10162
  139.8188  144.7304  150.9600 LP  0  0  0  0  0  0  0  0  0  0  0  0  # atno 17343 bound_to 10162
  156.1251  130.6138  151.0252 LP  0  0  0  0  0  0  0  0  0  0  0  0  # atno 17370 bound_to 10713
  157.6671  131.0869  150.7701 LP  0  0  0  0  0  0  0  0  0  0  0  0  # atno 17371 bound_to 10713
  139.8880  134.8868  156.2499 LP  0  0  0  0  0  0  0  0  0  0  0  0  # atno 17394 bound_to 11000
  141.0111  133.7095  156.1113 LP  0  0  0  0  0  0  0  0  0  0  0  0  # atno 17395 bound_to 11000

$$$$
