AV-unprocessed.smi:1256|AV-procd|sdf|5283|dock8
  -GOLD-   22720 4403D 1   1.00000     0.00000
 Structure written by MMmdl.
 41 42  0  0  0  0  0  0  0  0  1 V2000
  156.1402  133.1025  161.1606 C   0  0  0  0  0  0  0  0  0  0  0  0
  155.7653  134.4534  161.6946 C   0  0  0  0  0  0  0  0  0  0  0  0
  155.8664  135.7154  161.0399 C   0  0  0  0  0  0  0  0  0  0  0  0
  155.3909  136.5836  161.9843 C   0  0  0  0  0  0  0  0  0  0  0  0
  155.2580  137.9348  161.9144 N   0  0  0  0  0  0  0  0  0  0  0  0
  154.6929  138.6751  160.9447 C   0  0  0  0  0  0  0  0  0  0  0  0
  154.1812  138.2343  159.9151 O   0  0  0  0  0  0  0  0  0  0  0  0
  154.7502  139.9818  161.2391 N   0  0  0  0  0  0  0  0  0  0  0  0
  154.2214  141.0517  160.4013 C   0  0  0  0  0  0  0  0  0  0  0  0
  153.3060  141.9938  161.2028 C   0  0  0  0  0  0  0  0  0  0  0  0
  152.5282  142.9537  160.3180 C   0  0  0  0  0  0  0  0  0  0  0  0
  152.6557  142.9455  158.9768 C   0  0  0  0  0  0  0  0  0  0  0  0
  151.9402  143.9077  158.0451 C   0  0  0  0  0  0  0  0  0  0  0  0
  151.3495  145.1151  158.7919 C   0  0  0  0  0  0  0  0  0  0  0  0
  150.6566  144.6788  160.0886 C   0  0  0  0  0  0  0  0  0  0  0  0
  151.6328  143.9583  161.0362 C   0  0  0  0  0  0  0  0  0  0  0  0
  155.0378  135.8693  163.1078 N   0  0  0  0  0  0  0  0  0  0  0  0
  154.4890  136.3400  164.3647 C   0  0  0  0  0  0  0  0  0  0  0  0
  155.2723  134.5520  162.9242 N   0  0  0  0  0  0  0  0  0  0  0  0
  156.5329  133.1751  160.1460 H   0  0  0  0  0  0  0  0  0  0  0  0
  155.2770  132.4371  161.1352 H   0  0  0  0  0  0  0  0  0  0  0  0
  156.9060  132.6340  161.7795 H   0  0  0  0  0  0  0  0  0  0  0  0
  156.2307  135.9245  160.0455 H   0  0  0  0  0  0  0  0  0  0  0  0
  155.6294  138.4441  162.7025 H   0  0  0  0  0  0  0  0  0  0  0  0
  155.1881  140.2577  162.1060 H   0  0  0  0  0  0  0  0  0  0  0  0
  155.0663  141.6115  159.9993 H   0  0  0  0  0  0  0  0  0  0  0  0
  153.6975  140.6244  159.5453 H   0  0  0  0  0  0  0  0  0  0  0  0
  152.5966  141.4222  161.8025 H   0  0  0  0  0  0  0  0  0  0  0  0
  153.9097  142.5670  161.9082 H   0  0  0  0  0  0  0  0  0  0  0  0
  153.2949  142.2151  158.5022 H   0  0  0  0  0  0  0  0  0  0  0  0
  152.6365  144.2507  157.2794 H   0  0  0  0  0  0  0  0  0  0  0  0
  151.1503  143.3573  157.5331 H   0  0  0  0  0  0  0  0  0  0  0  0
  152.1455  145.8214  159.0317 H   0  0  0  0  0  0  0  0  0  0  0  0
  150.6493  145.6464  158.1466 H   0  0  0  0  0  0  0  0  0  0  0  0
  150.2180  145.5402  160.5926 H   0  0  0  0  0  0  0  0  0  0  0  0
  149.8296  144.0111  159.8433 H   0  0  0  0  0  0  0  0  0  0  0  0
  151.0649  143.4631  161.8230 H   0  0  0  0  0  0  0  0  0  0  0  0
  152.2780  144.6867  161.5286 H   0  0  0  0  0  0  0  0  0  0  0  0
  153.6320  136.9858  164.1730 H   0  0  0  0  0  0  0  0  0  0  0  0
  155.2482  136.9046  164.9064 H   0  0  0  0  0  0  0  0  0  0  0  0
  154.1649  135.5002  164.9806 H   0  0  0  0  0  0  0  0  0  0  0  0
  1  2  1  0  0  0  0
  1 20  1  0  0  0  0
  1 21  1  0  0  0  0
  1 22  1  0  0  0  0
  2 19  2  0  0  0  0
  2  3  1  0  0  0  0
  3  4  2  0  0  0  0
  3 23  1  0  0  0  0
  4  5  1  0  0  0  0
  4 17  1  0  0  0  0
  5  6  1  0  0  0  0
  5 24  1  0  0  0  0
  6  7  2  0  0  0  0
  6  8  1  0  0  0  0
  8  9  1  0  0  0  0
  8 25  1  0  0  0  0
  9 10  1  0  0  0  0
  9 26  1  0  0  0  0
  9 27  1  0  0  0  0
 10 11  1  0  0  0  0
 10 28  1  0  0  0  0
 10 29  1  0  0  0  0
 11 16  1  0  0  0  0
 11 12  2  0  0  0  0
 12 13  1  0  0  0  0
 12 30  1  0  0  0  0
 13 14  1  0  0  0  0
 13 31  1  0  0  0  0
 13 32  1  0  0  0  0
 14 15  1  0  0  0  0
 14 33  1  0  0  0  0
 14 34  1  0  0  0  0
 15 16  1  0  0  0  0
 15 35  1  0  0  0  0
 15 36  1  0  0  0  0
 16 37  1  0  0  0  0
 16 38  1  0  0  0  0
 17 18  1  0  0  0  0
 17 19  1  0  0  0  0
 18 39  1  0  0  0  0
 18 40  1  0  0  0  0
 18 41  1  0  0  0  0
M  END
> <s_m_source_file>
AV-unprocessed.smi

> <i_m_source_file_index>
1256

> <i_lp_mmshare_version>
43012

> <i_f3d_flags>
0

> <s_epik_input>
W0NIM11jMVtjSF1jKG4objEpW0NIM10pW05IXUMoPU8pW05IXVtDSDJdW0NIMl1DMj1bQ0hdW0NIMl1bQ0gyXVtDSDJdW0NIMl0y

> <s_epik_cmdline>
J2VwaWtfcHl0aG9uJywgJy1waCcsICc3LjAnLCAnLXRuJywgJzgnLCAnLW1hJywgJzIwMCcsICctbWV0YWxfYmluZGluZycsICctaW1hZScsICc8aW5maWxlLm1hZT4nLCAnLW9tYWUnLCAnPG91dGZpbGUubWFlPic=

> <r_lp_tautomer_probability>
1

> <r_epik_Ionization_Penalty>
9.50632e-05

> <r_epik_Ionization_Penalty_Charging>
0

> <r_epik_Ionization_Penalty_Neutral>
9.50632e-05

> <r_epik_State_Penalty>
-0

> <r_epik_Charging_Adjusted_Penalty>
0

> <i_epik_Tot_Q>
0

> <i_epik_Tot_abs_Q>
0

> <r_epik_Metal_State_Penalty>
-0

> <b_epik_Metal_Only>
0

> <s_lp_Force_Field>
OPLS_2005

> <r_lp_Energy>
8.63058

> <b_lp_Chiralities_Consistent>
1

> <s_lp_Variant>
AV-unprocessed.smi:1256-1

> <Gold.Version>
5.8.1

> <Gold.Id.Protein>
6NUR|6NUR_protein|mol2

> <Gold.PLP.Fitness>
44.2366

> <Gold.PLP.PLP>
-45.2202

> <Gold.PLP.part.hbond>
0.0000

> <Gold.PLP.part.metal>
0.0000

> <Gold.PLP.part.buried>
-5.0027

> <Gold.PLP.part.nonpolar>
-40.6960

> <Gold.PLP.part.repulsive>
0.0082

> <Gold.PLP.ligand.clash>
0.0000

> <Gold.PLP.ligand.torsion>
0.4972

> <Gold.PLP.Chemscore.Hbond>
0.0000

> <Gold.PLP.Chemscore.CHOScore>
0.0000

> <Gold.PLP.Chemscore.Metal>
0.0000

> <Gold.PLP.Chemscore.Internal.Correction>
0.0108

> <Gold.Rescore>
     Score         DG    S(hbond)    S(metal)    S(lipo)     H(rot)  DE(clash)    DE(int)     intcor
     15.59     -16.01       0.00        0.00     120.56       1.40       0.12       0.30       ----

> <Gold.Chemscore.Fitness>
15.5920

> <Gold.Chemscore.DG>
-16.0119

> <Gold.Chemscore.ZeroCoef>
-5.4800

> <Gold.Chemscore.Hbond>
0.0000

> <Gold.Chemscore.Metal>
0.0000

> <Gold.Chemscore.Lipo>
120.5575

> <Gold.Chemscore.Internal_Hbond>
0.0000

> <Gold.Chemscore.DEClash>
0.1166

> <Gold.Chemscore.DEInternal>
0.3034

> <Gold.Chemscore.Rot>
1.3958

> <Gold.Chemscore.Internal.Correction>
   9.000000E+99

> <Gold.Chemscore.Hbond.Weighted>
-0.0000

> <Gold.Chemscore.Metal.Weighted>
-0.0000

> <Gold.Chemscore.Lipo.Weighted>
-14.1052

> <Gold.Chemscore.Internal_Hbond.Weighted>
0.0000

> <Gold.Chemscore.DEClash.Weighted>
0.1166

> <Gold.Chemscore.DEInternal.Weighted>
0.3034

> <Gold.Chemscore.Rot.Weighted>
3.5733

> <Gold.Chemscore.Internal.Correction.Weighted>
   9.000000E+99

> <Gold.Protein.RotatedTorsions>
[ 6907 6896 6895 6894 ] final    1.99 input  -60.11 | X-H torsion
[ 7974 7965 7964 7962 ] final  170.29 input  175.53 | X-H torsion
[ 8008 7997 7996 7995 ] final -109.46 input   59.86 | X-H torsion
[ 10167 10162 10161 10158 ] final -146.22 input  -65.29 | X-H torsion
[ 10718 10713 10712 10709 ] final  158.86 input   66.30 | X-H torsion
[ 10763 10752 10751 10750 ] final   99.22 input  -60.55 | X-H torsion
[ 11005 11000 10999 10996 ] final -119.10 input  -57.11 | X-H torsion

> <Gold.Protein.ActiveResidues>
 VAL166  LYS551  ARG553  GLY616  TRP617  ASP618  TYR619  PRO620  LYS621  CYS622 
 ASP623  PHE694  ASN695  SER759  ASP760  ASP761  ALA762  ILE779  LEU786  VAL792 
 PHE793  MET794  SER795  GLU796  ALA797  LYS798  CYS799  TRP800  GLU811  SER814 

> <Gold.Protein.RotatedAtoms>
  151.6017  135.1047  160.0061 H   0  0  0  0  0  0  0  0  0  0  0  0  # atno 6907 bound_to 6896
  152.4254  133.7183  159.6529 H   0  0  0  0  0  0  0  0  0  0  0  0  # atno 6908 bound_to 6896
  150.8143  133.8293  159.3190 H   0  0  0  0  0  0  0  0  0  0  0  0  # atno 6909 bound_to 6896
  144.7328  139.9179  143.6418 H   0  0  0  0  0  0  0  0  0  0  0  0  # atno 7974 bound_to 7965
  154.9597  140.0399  157.2184 H   0  0  0  0  0  0  0  0  0  0  0  0  # atno 8008 bound_to 7997
  154.7900  140.2834  155.5976 H   0  0  0  0  0  0  0  0  0  0  0  0  # atno 8009 bound_to 7997
  156.2948  140.2575  156.2746 H   0  0  0  0  0  0  0  0  0  0  0  0  # atno 8010 bound_to 7997
  139.7734  143.8205  152.2628 H   0  0  0  0  0  0  0  0  0  0  0  0  # atno 10167 bound_to 10162
  157.1721  131.0612  151.2177 H   0  0  0  0  0  0  0  0  0  0  0  0  # atno 10718 bound_to 10713
  153.2987  135.4121  155.1233 H   0  0  0  0  0  0  0  0  0  0  0  0  # atno 10763 bound_to 10752
  154.8543  135.3536  154.5882 H   0  0  0  0  0  0  0  0  0  0  0  0  # atno 10764 bound_to 10752
  153.6306  135.7061  153.5335 H   0  0  0  0  0  0  0  0  0  0  0  0  # atno 10765 bound_to 10752
  141.0239  134.0083  157.3243 H   0  0  0  0  0  0  0  0  0  0  0  0  # atno 11005 bound_to 11000
  146.0951  139.3943  143.0381 LP  0  0  0  0  0  0  0  0  0  0  0  0  # atno 17320 bound_to 7965
  145.7656  140.9917  143.1176 LP  0  0  0  0  0  0  0  0  0  0  0  0  # atno 17321 bound_to 7965
  139.8246  144.7281  150.9528 LP  0  0  0  0  0  0  0  0  0  0  0  0  # atno 17342 bound_to 10162
  140.7815  143.4126  151.0968 LP  0  0  0  0  0  0  0  0  0  0  0  0  # atno 17343 bound_to 10162
  157.4033  130.7345  149.6784 LP  0  0  0  0  0  0  0  0  0  0  0  0  # atno 17370 bound_to 10713
  155.9737  130.4115  150.3983 LP  0  0  0  0  0  0  0  0  0  0  0  0  # atno 17371 bound_to 10713
  139.9163  135.0197  156.7895 LP  0  0  0  0  0  0  0  0  0  0  0  0  # atno 17394 bound_to 11000
  140.6525  133.9718  155.7762 LP  0  0  0  0  0  0  0  0  0  0  0  0  # atno 17395 bound_to 11000

$$$$
