AV-unprocessed.smi:1197|AV-procd|sdf|5008|dock7
  -GOLD-   22720 4 23D 1   1.00000     0.00000
 Structure written by MMmdl.
 40 41  0  0  0  0  0  0  0  0  1 V2000
  153.9996  140.9893  161.6745 C   0  0  0  0  0  0  0  0  0  0  0  0
  153.6588  142.2953  161.2225 O   0  0  0  0  0  0  0  0  0  0  0  0
  152.8266  142.4132  160.1281 C   0  0  0  0  0  0  0  0  0  0  0  0
  152.5531  143.7004  159.6251 C   0  0  0  0  0  0  0  0  0  0  0  0
  151.7028  143.8308  158.5102 C   0  0  0  0  0  0  0  0  0  0  0  0
  151.1555  142.6629  157.9257 C   0  0  0  0  0  0  0  0  0  0  0  0
  150.2733  142.6497  156.8099 N   0  0  0  0  0  0  0  0  0  0  0  0
  150.0650  141.6806  155.9017 C   0  0  0  0  0  0  0  0  0  0  0  0
  150.6011  140.5732  155.8997 O   0  0  0  0  0  0  0  0  0  0  0  0
  149.1693  142.0667  154.9819 N   0  0  0  0  0  0  0  0  0  0  0  0
  148.7228  141.2545  153.8564 C   0  0  0  0  0  0  0  0  0  0  0  0
  147.2211  140.9258  153.9586 C   0  0  0  0  0  0  0  0  0  0  0  0
  146.4226  141.9161  154.6785 N   0  0  0  0  0  0  0  0  0  0  0  0
  145.2822  141.3231  155.3740 C   0  0  0  0  0  0  0  0  0  0  0  0
  144.4398  142.3844  156.1031 C   0  0  0  0  0  0  0  0  0  0  0  0
  144.0107  143.3763  155.1763 O   0  0  0  0  0  0  0  0  0  0  0  0
  145.0975  144.0115  154.5112 C   0  0  0  0  0  0  0  0  0  0  0  0
  145.9381  142.9542  153.7748 C   0  0  0  0  0  0  0  0  0  0  0  0
  151.4876  141.4229  158.5099 C   0  0  0  0  0  0  0  0  0  0  0  0
  152.3003  141.2907  159.5791 N   0  0  0  0  0  0  0  0  0  0  0  0
  154.6638  141.0678  162.5352 H   0  0  0  0  0  0  0  0  0  0  0  0
  154.5239  140.4232  160.9032 H   0  0  0  0  0  0  0  0  0  0  0  0
  153.1152  140.4332  161.9886 H   0  0  0  0  0  0  0  0  0  0  0  0
  152.9841  144.5749  160.0897 H   0  0  0  0  0  0  0  0  0  0  0  0
  151.4860  144.8210  158.1428 H   0  0  0  0  0  0  0  0  0  0  0  0
  149.7100  143.4802  156.7018 H   0  0  0  0  0  0  0  0  0  0  0  0
  148.7738  142.9921  155.0599 H   0  0  0  0  0  0  0  0  0  0  0  0
  148.9345  141.8177  152.9483 H   0  0  0  0  0  0  0  0  0  0  0  0
  149.3124  140.3376  153.8010 H   0  0  0  0  0  0  0  0  0  0  0  0
  146.8282  140.8366  152.9449 H   0  0  0  0  0  0  0  0  0  0  0  0
  147.0912  139.9439  154.4164 H   0  0  0  0  0  0  0  0  0  0  0  0
  144.6514  140.7885  154.6621 H   0  0  0  0  0  0  0  0  0  0  0  0
  145.6220  140.5895  156.1043 H   0  0  0  0  0  0  0  0  0  0  0  0
  143.5654  141.9236  156.5629 H   0  0  0  0  0  0  0  0  0  0  0  0
  145.0160  142.8503  156.9041 H   0  0  0  0  0  0  0  0  0  0  0  0
  144.7050  144.7435  153.8054 H   0  0  0  0  0  0  0  0  0  0  0  0
  145.7075  144.5564  155.2335 H   0  0  0  0  0  0  0  0  0  0  0  0
  146.7818  143.4432  153.2862 H   0  0  0  0  0  0  0  0  0  0  0  0
  145.3374  142.5044  152.9826 H   0  0  0  0  0  0  0  0  0  0  0  0
  151.0889  140.5034  158.1068 H   0  0  0  0  0  0  0  0  0  0  0  0
  1  2  1  0  0  0  0
  1 21  1  0  0  0  0
  1 22  1  0  0  0  0
  1 23  1  0  0  0  0
  2  3  1  0  0  0  0
  3 20  1  0  0  0  0
  3  4  2  0  0  0  0
  4  5  1  0  0  0  0
  4 24  1  0  0  0  0
  5  6  2  0  0  0  0
  5 25  1  0  0  0  0
  6  7  1  0  0  0  0
  6 19  1  0  0  0  0
  7  8  1  0  0  0  0
  7 26  1  0  0  0  0
  8  9  2  0  0  0  0
  8 10  1  0  0  0  0
 10 11  1  0  0  0  0
 10 27  1  0  0  0  0
 11 12  1  0  0  0  0
 11 28  1  0  0  0  0
 11 29  1  0  0  0  0
 12 13  1  0  0  0  0
 12 30  1  0  0  0  0
 12 31  1  0  0  0  0
 13 18  1  0  0  0  0
 13 14  1  0  0  0  0
 14 15  1  0  0  0  0
 14 32  1  0  0  0  0
 14 33  1  0  0  0  0
 15 16  1  0  0  0  0
 15 34  1  0  0  0  0
 15 35  1  0  0  0  0
 16 17  1  0  0  0  0
 17 18  1  0  0  0  0
 17 36  1  0  0  0  0
 17 37  1  0  0  0  0
 18 38  1  0  0  0  0
 18 39  1  0  0  0  0
 19 20  2  0  0  0  0
 19 40  1  0  0  0  0
M  END
> <s_m_source_file>
AV-unprocessed.smi

> <i_m_source_file_index>
1197

> <i_lp_mmshare_version>
43012

> <i_f3d_flags>
0

> <s_epik_input>
W0NIM11PYzFbY0hdW2NIXWMoW2NIXW4xKVtOSF1DKD1PKVtOSF1bQ0gyXVtDSDJdTjJbQ0gyXVtDSDJdT1tDSDJdW0NIMl0y

> <s_epik_cmdline>
J2VwaWtfcHl0aG9uJywgJy1waCcsICc3LjAnLCAnLXRuJywgJzgnLCAnLW1hJywgJzIwMCcsICctbWV0YWxfYmluZGluZycsICctaW1hZScsICc8aW5maWxlLm1hZT4nLCAnLW9tYWUnLCAnPG91dGZpbGUubWFlPic=

> <r_lp_tautomer_probability>
1

> <r_epik_Ionization_Penalty>
0.266083

> <r_epik_Ionization_Penalty_Charging>
0

> <r_epik_Ionization_Penalty_Neutral>
0.266083

> <r_epik_State_Penalty>
0.257924

> <r_epik_Charging_Adjusted_Penalty>
0.257924

> <i_epik_Tot_Q>
0

> <i_epik_Tot_abs_Q>
0

> <r_epik_Metal_State_Penalty>
0.257922

> <b_epik_Metal_Only>
0

> <s_lp_Force_Field>
OPLS_2005

> <r_lp_Energy>
24.2104

> <b_lp_Chiralities_Consistent>
1

> <s_lp_Variant>
AV-unprocessed.smi:1197-1

> <Gold.Version>
5.8.1

> <Gold.Id.Protein>
6NUR|6NUR_protein|mol2

> <Gold.PLP.Fitness>
42.5715

> <Gold.PLP.PLP>
-38.0088

> <Gold.PLP.part.hbond>
-2.0403

> <Gold.PLP.part.metal>
0.0000

> <Gold.PLP.part.buried>
-4.1947

> <Gold.PLP.part.nonpolar>
-31.5951

> <Gold.PLP.part.repulsive>
0.5615

> <Gold.PLP.ligand.clash>
0.0000

> <Gold.PLP.ligand.torsion>
0.7512

> <Gold.PLP.Chemscore.Hbond>
2.0000

> <Gold.PLP.Chemscore.CHOScore>
0.0000

> <Gold.PLP.Chemscore.Metal>
0.0000

> <Gold.Chemscore.Hbonds>
donor molecule, donor type, donor heavy atom, donor atom, acceptor molecule, acceptor atom, score
      L1  H     7    26       P1  8028  1.00
      L1  H    10    27       P1  8028  1.00

> <Gold.PLP.Chemscore.Internal.Correction>
0.0650

> <Gold.Rescore>
     Score         DG    S(hbond)    S(metal)    S(lipo)     H(rot)  DE(clash)    DE(int)     intcor
     14.14     -16.32       1.91        0.00      76.72       1.76       0.14       2.04       ----

> <Gold.Chemscore.Fitness>
14.1379

> <Gold.Chemscore.DG>
-16.3161

> <Gold.Chemscore.ZeroCoef>
-5.4800

> <Gold.Chemscore.Hbond>
1.9078

> <Gold.Chemscore.Metal>
0.0000

> <Gold.Chemscore.Lipo>
76.7204

> <Gold.Chemscore.Internal_Hbond>
0.0000

> <Gold.Chemscore.DEClash>
0.1360

> <Gold.Chemscore.DEInternal>
2.0423

> <Gold.Chemscore.Rot>
1.7626

> <Gold.Chemscore.Internal.Correction>
   9.000000E+99

> <Gold.Chemscore.Hbonds>
donor molecule, donor type, donor heavy atom, donor atom, acceptor molecule, acceptor atom, score
      L1  H     7    26       P1  8028  0.96
      L1  H    10    27       P1  8028  0.95

> <Gold.Chemscore.Hbond.Weighted>
-6.3722

> <Gold.Chemscore.Metal.Weighted>
-0.0000

> <Gold.Chemscore.Lipo.Weighted>
-8.9763

> <Gold.Chemscore.Internal_Hbond.Weighted>
0.0000

> <Gold.Chemscore.DEClash.Weighted>
0.1360

> <Gold.Chemscore.DEInternal.Weighted>
2.0423

> <Gold.Chemscore.Rot.Weighted>
4.5123

> <Gold.Chemscore.Internal.Correction.Weighted>
   9.000000E+99

> <Gold.Protein.RotatedTorsions>
[ 6907 6896 6895 6894 ] final  -85.63 input  -60.11 | X-H torsion
[ 7974 7965 7964 7962 ] final  -26.92 input  175.53 | X-H torsion
[ 8008 7997 7996 7995 ] final  -46.91 input   59.86 | X-H torsion
[ 10167 10162 10161 10158 ] final -139.09 input  -65.29 | X-H torsion
[ 10718 10713 10712 10709 ] final  154.02 input   66.30 | X-H torsion
[ 10763 10752 10751 10750 ] final   91.03 input  -60.55 | X-H torsion
[ 11005 11000 10999 10996 ] final  154.17 input  -57.11 | X-H torsion

> <Gold.Protein.ActiveResidues>
 VAL166  LYS551  ARG553  GLY616  TRP617  ASP618  TYR619  PRO620  LYS621  CYS622 
 ASP623  PHE694  ASN695  SER759  ASP760  ASP761  ALA762  ILE779  LEU786  VAL792 
 PHE793  MET794  SER795  GLU796  ALA797  LYS798  CYS799  TRP800  GLU811  SER814 

> <Gold.Protein.RotatedAtoms>
  150.6869  134.3175  159.4771 H   0  0  0  0  0  0  0  0  0  0  0  0  # atno 6907 bound_to 6896
  152.1054  134.9310  160.0577 H   0  0  0  0  0  0  0  0  0  0  0  0  # atno 6908 bound_to 6896
  152.0573  133.4011  159.4439 H   0  0  0  0  0  0  0  0  0  0  0  0  # atno 6909 bound_to 6896
  146.1393  140.5083  142.8659 H   0  0  0  0  0  0  0  0  0  0  0  0  # atno 7974 bound_to 7965
  154.4011  140.1360  156.4088 H   0  0  0  0  0  0  0  0  0  0  0  0  # atno 8008 bound_to 7997
  155.7753  140.3483  155.5248 H   0  0  0  0  0  0  0  0  0  0  0  0  # atno 8009 bound_to 7997
  155.8727  140.0974  157.1530 H   0  0  0  0  0  0  0  0  0  0  0  0  # atno 8010 bound_to 7997
  139.8414  143.7317  152.2663 H   0  0  0  0  0  0  0  0  0  0  0  0  # atno 10167 bound_to 10162
  157.2371  131.0751  151.1816 H   0  0  0  0  0  0  0  0  0  0  0  0  # atno 10718 bound_to 10713
  153.2039  135.4412  155.0300 H   0  0  0  0  0  0  0  0  0  0  0  0  # atno 10763 bound_to 10752
  154.8163  135.3316  154.7170 H   0  0  0  0  0  0  0  0  0  0  0  0  # atno 10764 bound_to 10752
  153.7613  135.6991  153.4980 H   0  0  0  0  0  0  0  0  0  0  0  0  # atno 10765 bound_to 10752
  140.1464  134.8704  157.2398 H   0  0  0  0  0  0  0  0  0  0  0  0  # atno 11005 bound_to 11000
  144.7774  140.5769  143.6628 LP  0  0  0  0  0  0  0  0  0  0  0  0  # atno 17320 bound_to 7965
  145.5084  139.1480  143.3618 LP  0  0  0  0  0  0  0  0  0  0  0  0  # atno 17321 bound_to 7965
  139.7555  144.7522  151.0442 LP  0  0  0  0  0  0  0  0  0  0  0  0  # atno 17342 bound_to 10162
  140.7797  143.4810  151.0017 LP  0  0  0  0  0  0  0  0  0  0  0  0  # atno 17343 bound_to 10162
  157.3418  130.7037  149.6386 LP  0  0  0  0  0  0  0  0  0  0  0  0  # atno 17370 bound_to 10713
  155.9672  130.4277  150.4758 LP  0  0  0  0  0  0  0  0  0  0  0  0  # atno 17371 bound_to 10713
  140.2658  134.3518  155.7390 LP  0  0  0  0  0  0  0  0  0  0  0  0  # atno 17394 bound_to 11000
  141.2193  133.7395  156.9148 LP  0  0  0  0  0  0  0  0  0  0  0  0  # atno 17395 bound_to 11000

$$$$
