AV-unprocessed.smi:3140|AV-procd|sdf|11961|dock7
  -GOLD-   2272017363D 1   1.00000     0.00000
 Structure written by MMmdl.
 37 38  0  0  0  0  0  0  0  0  1 V2000
  152.2012  139.2382  155.8284 C   0  0  0  0  0  0  0  0  0  0  0  0
  151.0245  140.1928  155.5595 C   0  0  1  0  0  0  0  0  0  0  0  0
  150.1403  139.6666  154.4108 C   0  0  0  0  0  0  0  0  0  0  0  0
  148.8731  140.3713  154.3167 N   0  0  0  0  0  0  0  0  0  0  0  0
  148.6314  141.7193  154.4782 C   0  0  0  0  0  0  0  0  0  0  0  0
  147.2924  141.9174  154.2984 C   0  0  0  0  0  0  0  0  0  0  0  0
  146.7926  140.6137  154.0236 C   0  0  0  0  0  0  0  0  0  0  0  0
  147.7411  139.6910  154.0320 N   0  0  0  0  0  0  0  0  0  0  0  0
  150.2076  140.3322  156.7607 N   0  0  0  0  0  0  0  0  0  0  0  0
  150.9856  140.7439  157.9189 C   0  0  0  0  0  0  0  0  0  0  0  0
  151.7031  142.0654  157.6061 C   0  0  0  0  0  0  0  0  0  0  0  0
  152.1781  142.7128  158.8252 N   0  0  0  0  0  0  0  0  0  0  0  0
  153.0671  142.0144  159.7383 C   0  0  0  0  0  0  0  0  0  0  0  0
  153.1711  142.9276  160.9684 C   0  0  0  0  0  0  0  0  0  0  0  0
  152.6022  144.2821  160.5313 C   0  0  0  0  0  0  0  0  0  0  0  0
  151.9141  143.9658  159.2142 C   0  0  0  0  0  0  0  0  0  0  0  0
  151.2152  144.7809  158.6136 O   0  0  0  0  0  0  0  0  0  0  0  0
  152.7922  139.0883  154.9247 H   0  0  0  0  0  0  0  0  0  0  0  0
  151.8521  138.2592  156.1588 H   0  0  0  0  0  0  0  0  0  0  0  0
  152.8781  139.6260  156.5892 H   0  0  0  0  0  0  0  0  0  0  0  0
  151.4152  141.1698  155.2712 H   0  0  0  0  0  0  0  0  0  0  0  0
  150.6558  139.7928  153.4581 H   0  0  0  0  0  0  0  0  0  0  0  0
  149.9538  138.5966  154.5211 H   0  0  0  0  0  0  0  0  0  0  0  0
  149.4241  142.4161  154.7073 H   0  0  0  0  0  0  0  0  0  0  0  0
  146.7525  142.8510  154.3541 H   0  0  0  0  0  0  0  0  0  0  0  0
  145.7758  140.3130  153.8177 H   0  0  0  0  0  0  0  0  0  0  0  0
  149.7128  139.4721  156.9497 H   0  0  0  0  0  0  0  0  0  0  0  0
  150.3364  140.8681  158.7849 H   0  0  0  0  0  0  0  0  0  0  0  0
  151.7160  139.9715  158.1628 H   0  0  0  0  0  0  0  0  0  0  0  0
  152.5489  141.8844  156.9408 H   0  0  0  0  0  0  0  0  0  0  0  0
  151.0334  142.7454  157.0765 H   0  0  0  0  0  0  0  0  0  0  0  0
  152.6777  141.0288  159.9968 H   0  0  0  0  0  0  0  0  0  0  0  0
  154.0405  141.8848  159.2636 H   0  0  0  0  0  0  0  0  0  0  0  0
  152.5742  142.5227  161.7866 H   0  0  0  0  0  0  0  0  0  0  0  0
  154.1989  143.0114  161.3229 H   0  0  0  0  0  0  0  0  0  0  0  0
  151.9007  144.6894  161.2600 H   0  0  0  0  0  0  0  0  0  0  0  0
  153.3950  145.0111  160.3609 H   0  0  0  0  0  0  0  0  0  0  0  0
  1  2  1  0  0  0  0
  1 18  1  0  0  0  0
  1 19  1  0  0  0  0
  1 20  1  0  0  0  0
  2  3  1  0  0  0  0
  2  9  1  0  0  0  0
  2 21  1  0  0  0  0
  3  4  1  0  0  0  0
  3 22  1  0  0  0  0
  3 23  1  0  0  0  0
  4  8  1  0  0  0  0
  4  5  1  0  0  0  0
  5  6  2  0  0  0  0
  5 24  1  0  0  0  0
  6  7  1  0  0  0  0
  6 25  1  0  0  0  0
  7  8  2  0  0  0  0
  7 26  1  0  0  0  0
  9 10  1  0  0  0  0
  9 27  1  0  0  0  0
 10 11  1  0  0  0  0
 10 28  1  0  0  0  0
 10 29  1  0  0  0  0
 11 12  1  0  0  0  0
 11 30  1  0  0  0  0
 11 31  1  0  0  0  0
 12 16  1  0  0  0  0
 12 13  1  0  0  0  0
 13 14  1  0  0  0  0
 13 32  1  0  0  0  0
 13 33  1  0  0  0  0
 14 15  1  0  0  0  0
 14 34  1  0  0  0  0
 14 35  1  0  0  0  0
 15 16  1  0  0  0  0
 15 36  1  0  0  0  0
 15 37  1  0  0  0  0
 16 17  2  0  0  0  0
M  END
> <s_m_source_file>
AV-unprocessed.smi

> <i_m_source_file_index>
3140

> <i_lp_mmshare_version>
43012

> <i_f3d_flags>
0

> <s_epik_input>
bjFbY0hdW2NIXVtjSF1uMVtDSDJdW0NAQEhdKFtDSDNdKVtOSF1bQ0gyXVtDSDJdTjJbQ0gyXVtDSDJdW0NIMl1DMj1P

> <s_epik_cmdline>
J2VwaWtfcHl0aG9uJywgJy1waCcsICc3LjAnLCAnLXRuJywgJzgnLCAnLW1hJywgJzIwMCcsICctbWV0YWxfYmluZGluZycsICctaW1hZScsICc8aW5maWxlLm1hZT4nLCAnLW9tYWUnLCAnPG91dGZpbGUubWFlPic=

> <r_lp_tautomer_probability>
1

> <r_epik_Ionization_Penalty>
2.53587

> <r_epik_Ionization_Penalty_Charging>
0

> <r_epik_Ionization_Penalty_Neutral>
2.53587

> <r_epik_State_Penalty>
2.70334

> <r_epik_Charging_Adjusted_Penalty>
2.70334

> <i_epik_Tot_Q>
0

> <i_epik_Tot_abs_Q>
0

> <r_epik_Metal_State_Penalty>
2.7033

> <b_epik_Metal_Only>
0

> <s_lp_Force_Field>
OPLS_2005

> <r_lp_Energy>
20.5339

> <b_lp_Chiralities_Consistent>
1

> <s_lp_Variant>
AV-unprocessed.smi:3140-4

> <Gold.Version>
5.8.1

> <Gold.Id.Protein>
6NUR|6NUR_protein|mol2

> <Gold.PLP.Fitness>
45.2104

> <Gold.PLP.PLP>
-40.4514

> <Gold.PLP.part.hbond>
0.0000

> <Gold.PLP.part.metal>
0.0000

> <Gold.PLP.part.buried>
-1.9333

> <Gold.PLP.part.nonpolar>
-37.2301

> <Gold.PLP.part.repulsive>
0.3209

> <Gold.PLP.ligand.clash>
0.0000

> <Gold.PLP.ligand.torsion>
0.4772

> <Gold.PLP.Chemscore.Hbond>
0.0000

> <Gold.PLP.Chemscore.CHOScore>
1.8849

> <Gold.PLP.Chemscore.Metal>
0.0000

> <Gold.Chemscore.Hbonds>
donor molecule, donor type, donor heavy atom, donor atom, acceptor molecule, acceptor atom, score
      L1  C     5    24       P1  8028  0.79
      L1  C     7    26       P1 10175  1.00

> <Gold.PLP.Chemscore.Internal.Correction>
0.0588

> <Gold.Rescore>
     Score         DG    S(hbond)    S(metal)    S(lipo)     H(rot)  DE(clash)    DE(int)     intcor
     10.61     -10.92       0.00        0.00      89.62       1.97       0.00       0.31       ----

> <Gold.Chemscore.Fitness>
10.6072

> <Gold.Chemscore.DG>
-10.9167

> <Gold.Chemscore.ZeroCoef>
-5.4800

> <Gold.Chemscore.Hbond>
0.0000

> <Gold.Chemscore.Metal>
0.0000

> <Gold.Chemscore.Lipo>
89.6190

> <Gold.Chemscore.Internal_Hbond>
0.0000

> <Gold.Chemscore.DEClash>
0.0038

> <Gold.Chemscore.DEInternal>
0.3057

> <Gold.Chemscore.Rot>
1.9722

> <Gold.Chemscore.Internal.Correction>
   9.000000E+99

> <Gold.Chemscore.Hbond.Weighted>
-0.0000

> <Gold.Chemscore.Metal.Weighted>
-0.0000

> <Gold.Chemscore.Lipo.Weighted>
-10.4854

> <Gold.Chemscore.Internal_Hbond.Weighted>
0.0000

> <Gold.Chemscore.DEClash.Weighted>
0.0038

> <Gold.Chemscore.DEInternal.Weighted>
0.3057

> <Gold.Chemscore.Rot.Weighted>
5.0487

> <Gold.Chemscore.Internal.Correction.Weighted>
   9.000000E+99

> <Gold.Protein.RotatedTorsions>
[ 6907 6896 6895 6894 ] final   43.95 input  -60.11 | X-H torsion
[ 7974 7965 7964 7962 ] final -165.32 input  175.53 | X-H torsion
[ 8008 7997 7996 7995 ] final  -54.74 input   59.86 | X-H torsion
[ 10167 10162 10161 10158 ] final   54.09 input  -65.29 | X-H torsion
[ 10718 10713 10712 10709 ] final  -45.52 input   66.30 | X-H torsion
[ 10763 10752 10751 10750 ] final   85.96 input  -60.55 | X-H torsion
[ 11005 11000 10999 10996 ] final  -36.64 input  -57.11 | X-H torsion

> <Gold.Protein.ActiveResidues>
 VAL166  LYS551  ARG553  GLY616  TRP617  ASP618  TYR619  PRO620  LYS621  CYS622 
 ASP623  PHE694  ASN695  SER759  ASP760  ASP761  ALA762  ILE779  LEU786  VAL792 
 PHE793  MET794  SER795  GLU796  ALA797  LYS798  CYS799  TRP800  GLU811  SER814 

> <Gold.Protein.RotatedAtoms>
  152.2266  134.8362  160.0478 H   0  0  0  0  0  0  0  0  0  0  0  0  # atno 6907 bound_to 6896
  151.9127  133.3560  159.3877 H   0  0  0  0  0  0  0  0  0  0  0  0  # atno 6908 bound_to 6896
  150.7014  134.4641  159.5438 H   0  0  0  0  0  0  0  0  0  0  0  0  # atno 6909 bound_to 6896
  144.7273  140.2832  143.6232 H   0  0  0  0  0  0  0  0  0  0  0  0  # atno 7974 bound_to 7965
  154.4172  140.1169  156.5364 H   0  0  0  0  0  0  0  0  0  0  0  0  # atno 8008 bound_to 7997
  155.6553  140.3496  155.4743 H   0  0  0  0  0  0  0  0  0  0  0  0  # atno 8009 bound_to 7997
  155.9759  140.1150  157.0761 H   0  0  0  0  0  0  0  0  0  0  0  0  # atno 8010 bound_to 7997
  140.2338  144.3658  150.6405 H   0  0  0  0  0  0  0  0  0  0  0  0  # atno 10167 bound_to 10162
  156.2275  130.4170  149.8916 H   0  0  0  0  0  0  0  0  0  0  0  0  # atno 10718 bound_to 10713
  153.1524  135.4598  154.9656 H   0  0  0  0  0  0  0  0  0  0  0  0  # atno 10763 bound_to 10752
  154.7835  135.3196  154.7939 H   0  0  0  0  0  0  0  0  0  0  0  0  # atno 10764 bound_to 10752
  153.8442  135.6927  153.4854 H   0  0  0  0  0  0  0  0  0  0  0  0  # atno 10765 bound_to 10752
  140.9890  133.7015  156.1817 H   0  0  0  0  0  0  0  0  0  0  0  0  # atno 11005 bound_to 11000
  145.7929  139.1934  143.2092 LP  0  0  0  0  0  0  0  0  0  0  0  0  # atno 17320 bound_to 7965
  146.0741  140.7837  142.9673 LP  0  0  0  0  0  0  0  0  0  0  0  0  # atno 17321 bound_to 7965
  140.6165  143.2173  151.6781 LP  0  0  0  0  0  0  0  0  0  0  0  0  # atno 17342 bound_to 10162
  139.5101  144.3555  152.0612 LP  0  0  0  0  0  0  0  0  0  0  0  0  # atno 17343 bound_to 10162
  156.6541  130.8755  151.3536 LP  0  0  0  0  0  0  0  0  0  0  0  0  # atno 17370 bound_to 10713
  157.7117  130.9448  150.1113 LP  0  0  0  0  0  0  0  0  0  0  0  0  # atno 17371 bound_to 10713
  140.7069  134.4503  157.5583 LP  0  0  0  0  0  0  0  0  0  0  0  0  # atno 17394 bound_to 11000
  139.8984  134.8615  156.2005 LP  0  0  0  0  0  0  0  0  0  0  0  0  # atno 17395 bound_to 11000

$$$$
