AV-unprocessed.smi:2756|AV-procd|sdf|10618|dock10
  -GOLD-   2272015 63D 1   1.00000     0.00000
 Structure written by MMmdl.
 19 19  0  0  0  0  0  0  0  0  3 V2000
  149.9120  142.0399  155.8446 N   0  0  0  0  0  0  0  0  0  0  0  0
  150.8421  142.2384  156.8652 C   0  0  0  0  0  0  0  0  0  0  0  0
  151.0483  143.5090  157.2780 N   0  3  0  0  0  0  0  0  0  0  0  0
  151.9132  143.8347  158.2629 C   0  0  0  0  0  0  0  0  0  0  0  0
  152.6508  142.8240  158.9092 C   0  0  0  0  0  0  0  0  0  0  0  0
  152.4711  141.4841  158.5106 C   0  0  0  0  0  0  0  0  0  0  0  0
  151.5592  141.1783  157.4751 C   0  0  0  0  0  0  0  0  0  0  0  0
  151.3701  139.7294  157.0461 C   0  0  0  0  0  0  0  0  0  0  0  0
  151.8999  139.5852  155.6193 C   0  0  0  0  0  0  0  0  0  0  0  0
  151.0508  139.4888  154.7063 O   0  0  0  0  0  0  0  0  0  0  0  0
  153.1410  139.5601  155.4707 O   0  5  0  0  0  0  0  0  0  0  0  0
  149.7164  141.1100  155.5004 H   0  0  0  0  0  0  0  0  0  0  0  0
  149.2735  142.7706  155.5662 H   0  0  0  0  0  0  0  0  0  0  0  0
  151.9858  144.8851  158.5038 H   0  0  0  0  0  0  0  0  0  0  0  0
  153.3431  143.0713  159.7005 H   0  0  0  0  0  0  0  0  0  0  0  0
  153.0267  140.6972  158.9995 H   0  0  0  0  0  0  0  0  0  0  0  0
  151.8915  139.0514  157.7228 H   0  0  0  0  0  0  0  0  0  0  0  0
  150.3142  139.4575  157.0757 H   0  0  0  0  0  0  0  0  0  0  0  0
  150.5222  144.2582  156.8280 H   0  0  0  0  0  0  0  0  0  0  0  0
  1  2  1  0  0  0  0
  1 12  1  0  0  0  0
  1 13  1  0  0  0  0
  2  7  1  0  0  0  0
  2  3  2  0  0  0  0
  3  4  1  0  0  0  0
  3 19  1  0  0  0  0
  4  5  2  0  0  0  0
  4 14  1  0  0  0  0
  5  6  1  0  0  0  0
  5 15  1  0  0  0  0
  6  7  2  0  0  0  0
  6 16  1  0  0  0  0
  7  8  1  0  0  0  0
  8  9  1  0  0  0  0
  8 17  1  0  0  0  0
  8 18  1  0  0  0  0
  9 10  2  0  0  0  0
  9 11  1  0  0  0  0
M  CHG  1   3   1
M  CHG  1  11  -1
M  END
> <s_m_source_file>
AV-unprocessed.smi

> <i_m_source_file_index>
2756

> <i_lp_mmshare_version>
43012

> <i_f3d_flags>
0

> <s_epik_input>
W05IMl1jMW5bY0hdW2NIXVtjSF1jMVtDSDJdQyg9TylbT0hd

> <s_epik_cmdline>
J2VwaWtfcHl0aG9uJywgJy1waCcsICc3LjAnLCAnLXRuJywgJzgnLCAnLW1hJywgJzIwMCcsICctbWV0YWxfYmluZGluZycsICctaW1hZScsICc8aW5maWxlLm1hZT4nLCAnLW9tYWUnLCAnPG91dGZpbGUubWFlPic=

> <r_lp_tautomer_probability>
0.999994

> <r_epik_Ionization_Penalty>
0.0994946

> <r_epik_Ionization_Penalty_Charging>
0.0994944

> <r_epik_Ionization_Penalty_Neutral>
2.48807e-07

> <r_epik_State_Penalty>
0.0891183

> <r_epik_Charging_Adjusted_Penalty>
0.188613

> <i_epik_Tot_Q>
0

> <i_epik_Tot_abs_Q>
2

> <r_epik_Metal_State_Penalty>
3.01912

> <b_epik_Metal_Only>
0

> <s_lp_Force_Field>
OPLS_2005

> <r_lp_Energy>
1.50311

> <b_lp_Chiralities_Consistent>
1

> <s_lp_Variant>
AV-unprocessed.smi:2756-1

> <Gold.Version>
5.8.1

> <Gold.Id.Protein>
6NUR|6NUR_protein|mol2

> <Gold.PLP.Fitness>
43.6463

> <Gold.PLP.PLP>
-23.9721

> <Gold.PLP.part.hbond>
-4.0000

> <Gold.PLP.part.metal>
0.0000

> <Gold.PLP.part.buried>
-4.0270

> <Gold.PLP.part.nonpolar>
-16.3907

> <Gold.PLP.part.repulsive>
0.2170

> <Gold.PLP.ligand.clash>
0.0000

> <Gold.PLP.ligand.torsion>
0.2312

> <Gold.PLP.Chemscore.Hbond>
6.7120

> <Gold.PLP.Chemscore.CHOScore>
0.0000

> <Gold.PLP.Chemscore.Metal>
0.0000

> <Gold.Chemscore.Hbonds>
donor molecule, donor type, donor heavy atom, donor atom, acceptor molecule, acceptor atom, score
      L1  H     1    13       P1  8028  1.82
      L1  H     3    19       P1  8028  1.87
      P1  H  7989  7998       L1    10  1.00
      P1  H  7997  8010       L1    11  2.00

> <Gold.PLP.Chemscore.Internal.Correction>
0.0007

> <Gold.Rescore>
     Score         DG    S(hbond)    S(metal)    S(lipo)     H(rot)  DE(clash)    DE(int)     intcor
     18.23     -18.80       3.68        0.00      43.46       1.58       0.00       0.57       ----

> <Gold.Chemscore.Fitness>
18.2293

> <Gold.Chemscore.DG>
-18.8008

> <Gold.Chemscore.ZeroCoef>
-5.4800

> <Gold.Chemscore.Hbond>
3.6801

> <Gold.Chemscore.Metal>
0.0000

> <Gold.Chemscore.Lipo>
43.4585

> <Gold.Chemscore.Internal_Hbond>
0.0000

> <Gold.Chemscore.DEClash>
0.0000

> <Gold.Chemscore.DEInternal>
0.5715

> <Gold.Chemscore.Rot>
1.5841

> <Gold.Chemscore.Internal.Correction>
   9.000000E+99

> <Gold.Chemscore.Hbonds>
donor molecule, donor type, donor heavy atom, donor atom, acceptor molecule, acceptor atom, score
      L1  H     1    13       P1  8028  0.87
      L1  H     3    19       P1  8028  0.82
      P1  H  7989  7998       L1    10  0.30
      P1  H  7997  8010       L1    11  0.94

> <Gold.Chemscore.Hbond.Weighted>
-12.2916

> <Gold.Chemscore.Metal.Weighted>
-0.0000

> <Gold.Chemscore.Lipo.Weighted>
-5.0846

> <Gold.Chemscore.Internal_Hbond.Weighted>
0.0000

> <Gold.Chemscore.DEClash.Weighted>
0.0000

> <Gold.Chemscore.DEInternal.Weighted>
0.5715

> <Gold.Chemscore.Rot.Weighted>
4.0554

> <Gold.Chemscore.Internal.Correction.Weighted>
   9.000000E+99

> <Gold.Protein.RotatedTorsions>
[ 6907 6896 6895 6894 ] final  -58.34 input  -60.11 | X-H torsion
[ 7974 7965 7964 7962 ] final  177.50 input  175.53 | X-H torsion
[ 8008 7997 7996 7995 ] final   81.63 input   59.86 | X-H torsion
[ 10167 10162 10161 10158 ] final  -59.65 input  -65.29 | X-H torsion
[ 10718 10713 10712 10709 ] final -176.36 input   66.30 | X-H torsion
[ 10763 10752 10751 10750 ] final   47.12 input  -60.55 | X-H torsion
[ 11005 11000 10999 10996 ] final   30.72 input  -57.11 | X-H torsion

> <Gold.Protein.ActiveResidues>
 VAL166  LYS551  ARG553  GLY616  TRP617  ASP618  TYR619  PRO620  LYS621  CYS622 
 ASP623  PHE694  ASN695  SER759  ASP760  ASP761  ALA762  ILE779  LEU786  VAL792 
 PHE793  MET794  SER795  GLU796  ALA797  LYS798  CYS799  TRP800  GLU811  SER814 

> <Gold.Protein.RotatedAtoms>
  150.8015  134.7111  159.6604 H   0  0  0  0  0  0  0  0  0  0  0  0  # atno 6907 bound_to 6896
  152.4132  134.6085  160.0029 H   0  0  0  0  0  0  0  0  0  0  0  0  # atno 6908 bound_to 6896
  151.6321  133.3294  159.3147 H   0  0  0  0  0  0  0  0  0  0  0  0  # atno 6909 bound_to 6896
  144.7168  140.0257  143.6439 H   0  0  0  0  0  0  0  0  0  0  0  0  # atno 7974 bound_to 7965
  155.8997  140.3434  155.6017 H   0  0  0  0  0  0  0  0  0  0  0  0  # atno 8008 bound_to 7997
  155.7514  140.0820  157.2218 H   0  0  0  0  0  0  0  0  0  0  0  0  # atno 8009 bound_to 7997
  154.4042  140.1552  156.2716 H   0  0  0  0  0  0  0  0  0  0  0  0  # atno 8010 bound_to 7997
  140.6122  143.2391  151.5683 H   0  0  0  0  0  0  0  0  0  0  0  0  # atno 10167 bound_to 10162
  156.8136  130.9595  151.3115 H   0  0  0  0  0  0  0  0  0  0  0  0  # atno 10718 bound_to 10713
  152.9803  135.5986  154.3711 H   0  0  0  0  0  0  0  0  0  0  0  0  # atno 10763 bound_to 10752
  154.3384  135.2768  155.2437 H   0  0  0  0  0  0  0  0  0  0  0  0  # atno 10764 bound_to 10752
  154.4529  135.5985  153.6259 H   0  0  0  0  0  0  0  0  0  0  0  0  # atno 10765 bound_to 10752
  140.2914  134.2860  155.7775 H   0  0  0  0  0  0  0  0  0  0  0  0  # atno 11005 bound_to 11000
  146.0144  139.3197  143.0851 LP  0  0  0  0  0  0  0  0  0  0  0  0  # atno 17320 bound_to 7965
  145.8643  140.9457  143.0683 LP  0  0  0  0  0  0  0  0  0  0  0  0  # atno 17321 bound_to 7965
  139.5370  144.2753  152.1272 LP  0  0  0  0  0  0  0  0  0  0  0  0  # atno 17342 bound_to 10162
  140.1955  144.4709  150.6457 LP  0  0  0  0  0  0  0  0  0  0  0  0  # atno 17343 bound_to 10162
  157.6493  130.8871  149.9601 LP  0  0  0  0  0  0  0  0  0  0  0  0  # atno 17370 bound_to 10713
  156.1030  130.3654  150.0184 LP  0  0  0  0  0  0  0  0  0  0  0  0  # atno 17371 bound_to 10713
  141.2145  133.7588  156.9631 LP  0  0  0  0  0  0  0  0  0  0  0  0  # atno 17394 bound_to 11000
  140.1192  134.9428  157.2178 LP  0  0  0  0  0  0  0  0  0  0  0  0  # atno 17395 bound_to 11000

$$$$
