AV-unprocessed.smi:1703|AV-procd|sdf|6876|dock8
  -GOLD-   22720 8 73D 1   1.00000     0.00000
 Structure written by MMmdl.
 50 52  0  0  0  0  0  0  0  0  3 V2000
  149.5774  141.5022  154.8600 C   0  0  0  0  0  0  0  0  0  0  0  0
  149.9138  140.0262  155.0977 C   0  0  1  0  0  0  0  0  0  0  0  0
  149.1750  139.1010  154.1068 C   0  0  0  0  0  0  0  0  0  0  0  0
  149.5924  137.6829  154.2616 N   0  3  2  0  0  0  0  0  0  0  0  0
  149.0049  136.9817  155.4353 C   0  0  0  0  0  0  0  0  0  0  0  0
  149.1224  135.4432  155.3430 C   0  0  1  0  0  0  0  0  0  0  0  0
  149.7828  134.9570  156.4935 O   0  0  0  0  0  0  0  0  0  0  0  0
  147.7608  134.7255  155.2518 C   0  0  0  0  0  0  0  0  0  0  0  0
  147.5755  134.0036  153.9801 N   0  0  0  0  0  0  0  0  0  0  0  0
  148.1876  132.8736  153.5189 C   0  0  0  0  0  0  0  0  0  0  0  0
  149.2463  132.0759  154.2062 C   0  0  0  0  0  0  0  0  0  0  0  0
  148.8801  130.7213  154.3566 O   0  0  0  0  0  0  0  0  0  0  0  0
  147.6712  132.6075  152.2867 N   0  3  0  0  0  0  0  0  0  0  0  0
  146.7204  133.5718  151.9534 C   0  0  0  0  0  0  0  0  0  0  0  0
  145.9374  133.7178  150.8124 C   0  0  0  0  0  0  0  0  0  0  0  0
  145.0628  134.8231  150.7822 C   0  0  0  0  0  0  0  0  0  0  0  0
  144.9933  135.7323  151.8570 C   0  0  0  0  0  0  0  0  0  0  0  0
  145.7925  135.5742  153.0086 C   0  0  0  0  0  0  0  0  0  0  0  0
  146.6529  134.4751  153.0350 C   0  0  0  0  0  0  0  0  0  0  0  0
  151.0698  137.5745  154.1896 C   0  0  0  0  0  0  0  0  0  0  0  0
  151.7518  138.5268  155.1942 C   0  0  1  0  0  0  0  0  0  0  0  0
  153.2791  138.4921  155.0758 C   0  0  0  0  0  0  0  0  0  0  0  0
  151.3181  139.8582  154.9359 O   0  0  0  0  0  0  0  0  0  0  0  0
  148.5097  141.6855  154.9850 H   0  0  0  0  0  0  0  0  0  0  0  0
  149.8554  141.8146  153.8529 H   0  0  0  0  0  0  0  0  0  0  0  0
  150.1084  142.1417  155.5653 H   0  0  0  0  0  0  0  0  0  0  0  0
  149.6398  139.7813  156.1247 H   0  0  0  0  0  0  0  0  0  0  0  0
  148.0971  139.2130  154.2113 H   0  0  0  0  0  0  0  0  0  0  0  0
  149.4097  139.4077  153.0866 H   0  0  0  0  0  0  0  0  0  0  0  0
  149.5023  137.3095  156.3495 H   0  0  0  0  0  0  0  0  0  0  0  0
  147.9652  137.2856  155.5418 H   0  0  0  0  0  0  0  0  0  0  0  0
  149.7127  135.1522  154.4762 H   0  0  0  0  0  0  0  0  0  0  0  0
  150.0629  134.0683  156.3367 H   0  0  0  0  0  0  0  0  0  0  0  0
  147.6694  133.9933  156.0550 H   0  0  0  0  0  0  0  0  0  0  0  0
  146.9423  135.4288  155.3985 H   0  0  0  0  0  0  0  0  0  0  0  0
  150.1792  132.1353  153.6455 H   0  0  0  0  0  0  0  0  0  0  0  0
  149.4376  132.5039  155.1907 H   0  0  0  0  0  0  0  0  0  0  0  0
  148.7676  130.3440  153.4968 H   0  0  0  0  0  0  0  0  0  0  0  0
  145.9903  133.0235  149.9863 H   0  0  0  0  0  0  0  0  0  0  0  0
  144.4337  134.9770  149.9170 H   0  0  0  0  0  0  0  0  0  0  0  0
  144.3114  136.5685  151.7975 H   0  0  0  0  0  0  0  0  0  0  0  0
  145.7250  136.2829  153.8200 H   0  0  0  0  0  0  0  0  0  0  0  0
  151.3855  136.5431  154.3520 H   0  0  0  0  0  0  0  0  0  0  0  0
  151.3808  137.8313  153.1759 H   0  0  0  0  0  0  0  0  0  0  0  0
  151.4822  138.2520  156.2152 H   0  0  0  0  0  0  0  0  0  0  0  0
  153.6660  137.4921  155.2738 H   0  0  0  0  0  0  0  0  0  0  0  0
  153.7412  139.1738  155.7903 H   0  0  0  0  0  0  0  0  0  0  0  0
  153.6053  138.7858  154.0777 H   0  0  0  0  0  0  0  0  0  0  0  0
  149.2413  137.1870  153.4548 H   0  0  0  0  0  0  0  0  0  0  0  0
  147.9534  131.8214  151.7150 H   0  0  0  0  0  0  0  0  0  0  0  0
  1  2  1  0  0  0  0
  1 24  1  0  0  0  0
  1 25  1  0  0  0  0
  1 26  1  0  0  0  0
  2 23  1  0  0  0  0
  2  3  1  0  0  0  0
  2 27  1  0  0  0  0
  3  4  1  0  0  0  0
  3 28  1  0  0  0  0
  3 29  1  0  0  0  0
  4  5  1  0  0  0  0
  4 20  1  0  0  0  0
  4 49  1  0  0  0  0
  5  6  1  0  0  0  0
  5 30  1  0  0  0  0
  5 31  1  0  0  0  0
  6  7  1  0  0  0  0
  6  8  1  0  0  0  0
  6 32  1  0  0  0  0
  7 33  1  0  0  0  0
  8  9  1  0  0  0  0
  8 34  1  0  0  0  0
  8 35  1  0  0  0  0
  9 19  1  0  0  0  0
  9 10  1  0  0  0  0
 10 11  1  0  0  0  0
 10 13  2  0  0  0  0
 11 12  1  0  0  0  0
 11 36  1  0  0  0  0
 11 37  1  0  0  0  0
 12 38  1  0  0  0  0
 13 14  1  0  0  0  0
 13 50  1  0  0  0  0
 14 19  2  0  0  0  0
 14 15  1  0  0  0  0
 15 16  2  0  0  0  0
 15 39  1  0  0  0  0
 16 17  1  0  0  0  0
 16 40  1  0  0  0  0
 17 18  2  0  0  0  0
 17 41  1  0  0  0  0
 18 19  1  0  0  0  0
 18 42  1  0  0  0  0
 20 21  1  0  0  0  0
 20 43  1  0  0  0  0
 20 44  1  0  0  0  0
 21 22  1  0  0  0  0
 21 23  1  0  0  0  0
 21 45  1  0  0  0  0
 22 46  1  0  0  0  0
 22 47  1  0  0  0  0
 22 48  1  0  0  0  0
M  CHG  1   4   1
M  CHG  1  13   1
M  END
> <s_m_source_file>
AV-unprocessed.smi

> <i_m_source_file_index>
1703

> <i_lp_mmshare_version>
43012

> <i_f3d_flags>
0

> <s_epik_input>
W0NIM11bQ0BASF0xW0NIMl1OKFtDSDJdW0NASF0oTzEpW0NIM10pW0NIMl1bQ0BIXShbT0hdKVtDSDJdbihjKG4yKVtDSDJdW09IXSljKGMyMylbY0hdW2NIXVtjSF1bY0hdMw==

> <s_epik_cmdline>
J2VwaWtfcHl0aG9uJywgJy1waCcsICc3LjAnLCAnLXRuJywgJzgnLCAnLW1hJywgJzIwMCcsICctbWV0YWxfYmluZGluZycsICctaW1hZScsICc8aW5maWxlLm1hZT4nLCAnLW9tYWUnLCAnPG91dGZpbGUubWFlPic=

> <r_epik_Ionization_Penalty>
2.22579

> <r_epik_Ionization_Penalty_Charging>
2.22492

> <r_epik_Ionization_Penalty_Neutral>
0.000870007

> <r_epik_State_Penalty>
2.3141

> <r_epik_Charging_Adjusted_Penalty>
4.53902

> <i_epik_Tot_Q>
2

> <i_epik_Tot_abs_Q>
2

> <r_epik_Metal_State_Penalty>
6.36517

> <b_epik_Metal_Only>
0

> <s_lp_Force_Field>
OPLS_2005

> <r_lp_Energy>
31.3011

> <b_lp_Chiralities_Consistent>
1

> <s_lp_Variant>
AV-unprocessed.smi:1703-24

> <Gold.Version>
5.8.1

> <Gold.Id.Protein>
6NUR|6NUR_protein|mol2

> <Gold.PLP.Fitness>
48.4167

> <Gold.PLP.PLP>
-39.7023

> <Gold.PLP.part.hbond>
-3.0000

> <Gold.PLP.part.metal>
0.0000

> <Gold.PLP.part.buried>
-2.6568

> <Gold.PLP.part.nonpolar>
-34.9772

> <Gold.PLP.part.repulsive>
0.0776

> <Gold.PLP.ligand.clash>
0.0000

> <Gold.PLP.ligand.torsion>
1.6764

> <Gold.PLP.Chemscore.Hbond>
4.0000

> <Gold.PLP.Chemscore.CHOScore>
0.0000

> <Gold.PLP.Chemscore.Metal>
0.0000

> <Gold.Chemscore.Hbonds>
donor molecule, donor type, donor heavy atom, donor atom, acceptor molecule, acceptor atom, score
      L1  H     4    49       P1  7948  2.00
      L1  H    13    50       P1 10747  1.00
      P1  H  7989  7998       L1    23  1.00

> <Gold.PLP.Chemscore.Internal.Correction>
0.0673

> <Gold.Rescore>
     Score         DG    S(hbond)    S(metal)    S(lipo)     H(rot)  DE(clash)    DE(int)     intcor
     15.94     -17.65       2.84        0.00      89.34       3.04       0.11       1.59       ----

> <Gold.Chemscore.Fitness>
15.9445

> <Gold.Chemscore.DG>
-17.6485

> <Gold.Chemscore.ZeroCoef>
-5.4800

> <Gold.Chemscore.Hbond>
2.8420

> <Gold.Chemscore.Metal>
0.0000

> <Gold.Chemscore.Lipo>
89.3420

> <Gold.Chemscore.Internal_Hbond>
0.0000

> <Gold.Chemscore.DEClash>
0.1114

> <Gold.Chemscore.DEInternal>
1.5926

> <Gold.Chemscore.Rot>
3.0378

> <Gold.Chemscore.Internal.Correction>
   9.000000E+99

> <Gold.Chemscore.Hbonds>
donor molecule, donor type, donor heavy atom, donor atom, acceptor molecule, acceptor atom, score
      L1  H     4    49       P1  7948  0.99
      L1  H    13    50       P1 10747  0.94
      P1  H  7989  7998       L1    23  0.35

> <Gold.Chemscore.Hbond.Weighted>
-9.4922

> <Gold.Chemscore.Metal.Weighted>
-0.0000

> <Gold.Chemscore.Lipo.Weighted>
-10.4530

> <Gold.Chemscore.Internal_Hbond.Weighted>
0.0000

> <Gold.Chemscore.DEClash.Weighted>
0.1114

> <Gold.Chemscore.DEInternal.Weighted>
1.5926

> <Gold.Chemscore.Rot.Weighted>
7.7767

> <Gold.Chemscore.Internal.Correction.Weighted>
   9.000000E+99

> <Gold.Protein.RotatedTorsions>
[ 6907 6896 6895 6894 ] final   54.00 input  -60.11 | X-H torsion
[ 7974 7965 7964 7962 ] final   28.66 input  175.53 | X-H torsion
[ 8008 7997 7996 7995 ] final   -7.52 input   59.86 | X-H torsion
[ 10167 10162 10161 10158 ] final -144.56 input  -65.29 | X-H torsion
[ 10718 10713 10712 10709 ] final   65.63 input   66.30 | X-H torsion
[ 10763 10752 10751 10750 ] final  -62.05 input  -60.55 | X-H torsion
[ 11005 11000 10999 10996 ] final   26.50 input  -57.11 | X-H torsion

> <Gold.Protein.ActiveResidues>
 VAL166  LYS551  ARG553  GLY616  TRP617  ASP618  TYR619  PRO620  LYS621  CYS622 
 ASP623  PHE694  ASN695  SER759  ASP760  ASP761  ALA762  ILE779  LEU786  VAL792 
 PHE793  MET794  SER795  GLU796  ALA797  LYS798  CYS799  TRP800  GLU811  SER814 

> <Gold.Protein.RotatedAtoms>
  152.3394  134.7154  160.0267 H   0  0  0  0  0  0  0  0  0  0  0  0  # atno 6907 bound_to 6896
  151.7544  133.3324  159.3408 H   0  0  0  0  0  0  0  0  0  0  0  0  # atno 6908 bound_to 6896
  150.7470  134.6095  159.6123 H   0  0  0  0  0  0  0  0  0  0  0  0  # atno 6909 bound_to 6896
  146.1716  139.7026  142.8963 H   0  0  0  0  0  0  0  0  0  0  0  0  # atno 7974 bound_to 7965
  154.5830  140.2405  155.8027 H   0  0  0  0  0  0  0  0  0  0  0  0  # atno 8008 bound_to 7997
  156.2193  140.3002  155.9870 H   0  0  0  0  0  0  0  0  0  0  0  0  # atno 8009 bound_to 7997
  155.2507  140.0410  157.2977 H   0  0  0  0  0  0  0  0  0  0  0  0  # atno 8010 bound_to 7997
  139.7887  143.7997  152.2647 H   0  0  0  0  0  0  0  0  0  0  0  0  # atno 10167 bound_to 10162
  157.6118  130.9224  150.0002 H   0  0  0  0  0  0  0  0  0  0  0  0  # atno 10718 bound_to 10713
  154.2940  135.6248  153.5397 H   0  0  0  0  0  0  0  0  0  0  0  0  # atno 10763 bound_to 10752
  152.9849  135.5662  154.5358 H   0  0  0  0  0  0  0  0  0  0  0  0  # atno 10764 bound_to 10752
  154.4975  135.2870  155.1423 H   0  0  0  0  0  0  0  0  0  0  0  0  # atno 10765 bound_to 10752
  140.3364  134.2382  155.7695 H   0  0  0  0  0  0  0  0  0  0  0  0  # atno 11005 bound_to 11000
  145.4324  141.0416  143.2903 LP  0  0  0  0  0  0  0  0  0  0  0  0  # atno 17320 bound_to 7965
  144.8172  139.5856  143.7003 LP  0  0  0  0  0  0  0  0  0  0  0  0  # atno 17321 bound_to 7965
  139.8081  144.7347  150.9733 LP  0  0  0  0  0  0  0  0  0  0  0  0  # atno 17342 bound_to 10162
  140.7820  143.4277  151.0742 LP  0  0  0  0  0  0  0  0  0  0  0  0  # atno 17343 bound_to 10162
  156.1224  130.3645  149.9866 LP  0  0  0  0  0  0  0  0  0  0  0  0  # atno 17370 bound_to 10713
  156.7943  130.9267  151.3646 LP  0  0  0  0  0  0  0  0  0  0  0  0  # atno 17371 bound_to 10713
  141.2050  133.7871  157.0256 LP  0  0  0  0  0  0  0  0  0  0  0  0  # atno 17394 bound_to 11000
  140.0818  134.9644  157.1636 LP  0  0  0  0  0  0  0  0  0  0  0  0  # atno 17395 bound_to 11000

$$$$
