AV-unprocessed.smi:1433|AV-procd|sdf|5840|dock8
  -GOLD-   22720 5503D 1   1.00000     0.00000
 Structure written by MMmdl.
 44 45  0  0  0  0  0  0  0  0  1 V2000
  149.7406  142.4151  157.3523 C   0  0  0  0  0  0  0  0  0  0  0  0
  150.7243  142.6453  158.5043 C   0  0  1  0  0  0  0  0  0  0  0  0
  151.7786  141.5273  158.5962 C   0  0  0  0  0  0  0  0  0  0  0  0
  152.7799  141.7713  159.6386 N   0  0  0  0  0  0  0  0  0  0  0  0
  153.7860  140.6875  159.7359 C   0  0  1  0  0  0  0  0  0  0  0  0
  154.7934  140.9094  160.8948 C   0  0  0  0  0  0  0  0  0  0  0  0
  153.1573  139.2741  159.8829 C   0  0  0  0  0  0  0  0  0  0  0  0
  153.2296  138.5087  158.6444 N   0  0  0  0  0  0  0  0  0  0  0  0
  152.4103  137.5010  158.3103 C   0  0  0  0  0  0  0  0  0  0  0  0
  151.4566  137.1430  159.0007 O   0  0  0  0  0  0  0  0  0  0  0  0
  152.7172  136.7835  156.9943 C   0  0  0  0  0  0  0  0  0  0  0  0
  152.4777  137.6516  155.8540 N   0  0  0  0  0  0  0  0  0  0  0  0
  152.7899  138.9880  155.7150 C   0  0  0  0  0  0  0  0  0  0  0  0
  152.3594  139.3798  154.4799 C   0  0  0  0  0  0  0  0  0  0  0  0
  151.7897  138.1978  153.9295 C   0  0  0  0  0  0  0  0  0  0  0  0
  151.8612  137.1651  154.7538 N   0  0  0  0  0  0  0  0  0  0  0  0
  153.3897  143.0810  159.3803 C   0  0  0  0  0  0  0  0  0  0  0  0
  152.3667  144.2267  159.2499 C   0  0  2  0  0  0  0  0  0  0  0  0
  151.7488  144.6488  160.5941 C   0  0  0  0  0  0  0  0  0  0  0  0
  151.3703  143.8946  158.2863 O   0  0  0  0  0  0  0  0  0  0  0  0
  149.2052  141.4734  157.4745 H   0  0  0  0  0  0  0  0  0  0  0  0
  150.2571  142.3845  156.3925 H   0  0  0  0  0  0  0  0  0  0  0  0
  149.0002  143.2143  157.3068 H   0  0  0  0  0  0  0  0  0  0  0  0
  150.1562  142.6865  159.4341 H   0  0  0  0  0  0  0  0  0  0  0  0
  151.2361  140.6048  158.7924 H   0  0  0  0  0  0  0  0  0  0  0  0
  152.2729  141.4067  157.6309 H   0  0  0  0  0  0  0  0  0  0  0  0
  154.3633  140.6821  158.8098 H   0  0  0  0  0  0  0  0  0  0  0  0
  155.4992  140.0863  161.0031 H   0  0  0  0  0  0  0  0  0  0  0  0
  154.2767  141.0226  161.8485 H   0  0  0  0  0  0  0  0  0  0  0  0
  155.4139  141.7908  160.7407 H   0  0  0  0  0  0  0  0  0  0  0  0
  153.6532  138.7328  160.6909 H   0  0  0  0  0  0  0  0  0  0  0  0
  152.0986  139.3249  160.1316 H   0  0  0  0  0  0  0  0  0  0  0  0
  153.9849  138.7330  158.0124 H   0  0  0  0  0  0  0  0  0  0  0  0
  153.7594  136.4619  156.9762 H   0  0  0  0  0  0  0  0  0  0  0  0
  152.1017  135.8864  156.9086 H   0  0  0  0  0  0  0  0  0  0  0  0
  153.2836  139.5421  156.5001 H   0  0  0  0  0  0  0  0  0  0  0  0
  152.4387  140.3615  154.0373 H   0  0  0  0  0  0  0  0  0  0  0  0
  151.3286  138.0608  152.9624 H   0  0  0  0  0  0  0  0  0  0  0  0
  154.0786  143.3538  160.1778 H   0  0  0  0  0  0  0  0  0  0  0  0
  153.9797  143.0293  158.4638 H   0  0  0  0  0  0  0  0  0  0  0  0
  152.8908  145.0979  158.8562 H   0  0  0  0  0  0  0  0  0  0  0  0
  152.5172  145.0177  161.2738 H   0  0  0  0  0  0  0  0  0  0  0  0
  151.2452  143.8212  161.0933 H   0  0  0  0  0  0  0  0  0  0  0  0
  151.0212  145.4483  160.4537 H   0  0  0  0  0  0  0  0  0  0  0  0
  1  2  1  0  0  0  0
  1 21  1  0  0  0  0
  1 22  1  0  0  0  0
  1 23  1  0  0  0  0
  2 20  1  0  0  0  0
  2  3  1  0  0  0  0
  2 24  1  0  0  0  0
  3  4  1  0  0  0  0
  3 25  1  0  0  0  0
  3 26  1  0  0  0  0
  4  5  1  0  0  0  0
  4 17  1  0  0  0  0
  5  6  1  0  0  0  0
  5  7  1  0  0  0  0
  5 27  1  0  0  0  0
  6 28  1  0  0  0  0
  6 29  1  0  0  0  0
  6 30  1  0  0  0  0
  7  8  1  0  0  0  0
  7 31  1  0  0  0  0
  7 32  1  0  0  0  0
  8  9  1  0  0  0  0
  8 33  1  0  0  0  0
  9 10  2  0  0  0  0
  9 11  1  0  0  0  0
 11 12  1  0  0  0  0
 11 34  1  0  0  0  0
 11 35  1  0  0  0  0
 12 16  1  0  0  0  0
 12 13  1  0  0  0  0
 13 14  2  0  0  0  0
 13 36  1  0  0  0  0
 14 15  1  0  0  0  0
 14 37  1  0  0  0  0
 15 16  2  0  0  0  0
 15 38  1  0  0  0  0
 17 18  1  0  0  0  0
 17 39  1  0  0  0  0
 17 40  1  0  0  0  0
 18 19  1  0  0  0  0
 18 20  1  0  0  0  0
 18 41  1  0  0  0  0
 19 42  1  0  0  0  0
 19 43  1  0  0  0  0
 19 44  1  0  0  0  0
M  END
> <s_m_source_file>
AV-unprocessed.smi

> <i_m_source_file_index>
1433

> <i_lp_mmshare_version>
43012

> <i_f3d_flags>
0

> <s_epik_input>
W0NIM11bQ0BASF0xW0NIMl1OKFtDSDJdW0NASF0oTzEpW0NIM10pW0NASF0oW0NIM10pW0NIMl1bTkhdQyg9TylbQ0gyXW4yW2NIXVtjSF1bY0hdbjI=

> <s_epik_cmdline>
J2VwaWtfcHl0aG9uJywgJy1waCcsICc3LjAnLCAnLXRuJywgJzgnLCAnLW1hJywgJzIwMCcsICctbWV0YWxfYmluZGluZycsICctaW1hZScsICc8aW5maWxlLm1hZT4nLCAnLW9tYWUnLCAnPG91dGZpbGUubWFlPic=

> <r_lp_tautomer_probability>
1

> <r_epik_Ionization_Penalty>
0.196927

> <r_epik_Ionization_Penalty_Charging>
0

> <r_epik_Ionization_Penalty_Neutral>
0.196927

> <r_epik_State_Penalty>
0.186684

> <r_epik_Charging_Adjusted_Penalty>
0.186684

> <i_epik_Tot_Q>
0

> <i_epik_Tot_abs_Q>
0

> <r_epik_Metal_State_Penalty>
0.186682

> <b_epik_Metal_Only>
0

> <s_lp_Force_Field>
OPLS_2005

> <r_lp_Energy>
30.3055

> <b_lp_Chiralities_Consistent>
1

> <s_lp_Variant>
AV-unprocessed.smi:1433-6

> <Gold.Version>
5.8.1

> <Gold.Id.Protein>
6NUR|6NUR_protein|mol2

> <Gold.PLP.Fitness>
44.2285

> <Gold.PLP.PLP>
-37.2049

> <Gold.PLP.part.hbond>
-2.0000

> <Gold.PLP.part.metal>
0.0000

> <Gold.PLP.part.buried>
-3.4018

> <Gold.PLP.part.nonpolar>
-31.7521

> <Gold.PLP.part.repulsive>
0.3030

> <Gold.PLP.ligand.clash>
0.0000

> <Gold.PLP.ligand.torsion>
1.1716

> <Gold.PLP.Chemscore.Hbond>
2.0000

> <Gold.PLP.Chemscore.CHOScore>
1.1057

> <Gold.PLP.Chemscore.Metal>
0.0000

> <Gold.Chemscore.Hbonds>
donor molecule, donor type, donor heavy atom, donor atom, acceptor molecule, acceptor atom, score
      P1  H  6896  6908       L1    10  0.57
      P1  H 10752 10764       L1    16  0.98
      L1  C    15    38       P1  7949  0.98

> <Gold.PLP.Chemscore.Internal.Correction>
0.0496

> <Gold.Rescore>
     Score         DG    S(hbond)    S(metal)    S(lipo)     H(rot)  DE(clash)    DE(int)     intcor
     18.09     -19.57       1.84        0.00     107.40       1.80       0.06       1.41       ----

> <Gold.Chemscore.Fitness>
18.0934

> <Gold.Chemscore.DG>
-19.5656

> <Gold.Chemscore.ZeroCoef>
-5.4800

> <Gold.Chemscore.Hbond>
1.8377

> <Gold.Chemscore.Metal>
0.0000

> <Gold.Chemscore.Lipo>
107.3980

> <Gold.Chemscore.Internal_Hbond>
0.0000

> <Gold.Chemscore.DEClash>
0.0636

> <Gold.Chemscore.DEInternal>
1.4086

> <Gold.Chemscore.Rot>
1.8038

> <Gold.Chemscore.Internal.Correction>
   9.000000E+99

> <Gold.Chemscore.Hbonds>
donor molecule, donor type, donor heavy atom, donor atom, acceptor molecule, acceptor atom, score
      P1  H  6896  6908       L1    10  0.54
      P1  H 10752 10764       L1    16  0.32

> <Gold.Chemscore.Hbond.Weighted>
-6.1378

> <Gold.Chemscore.Metal.Weighted>
-0.0000

> <Gold.Chemscore.Lipo.Weighted>
-12.5656

> <Gold.Chemscore.Internal_Hbond.Weighted>
0.0000

> <Gold.Chemscore.DEClash.Weighted>
0.0636

> <Gold.Chemscore.DEInternal.Weighted>
1.4086

> <Gold.Chemscore.Rot.Weighted>
4.6178

> <Gold.Chemscore.Internal.Correction.Weighted>
   9.000000E+99

> <Gold.Protein.RotatedTorsions>
[ 6907 6896 6895 6894 ] final -138.42 input  -60.11 | X-H torsion
[ 7974 7965 7964 7962 ] final  138.37 input  175.53 | X-H torsion
[ 8008 7997 7996 7995 ] final -140.45 input   59.86 | X-H torsion
[ 10167 10162 10161 10158 ] final    1.09 input  -65.29 | X-H torsion
[ 10718 10713 10712 10709 ] final  -26.17 input   66.30 | X-H torsion
[ 10763 10752 10751 10750 ] final  -75.15 input  -60.55 | X-H torsion
[ 11005 11000 10999 10996 ] final  -75.25 input  -57.11 | X-H torsion

> <Gold.Protein.ActiveResidues>
 VAL166  LYS551  ARG553  GLY616  TRP617  ASP618  TYR619  PRO620  LYS621  CYS622 
 ASP623  PHE694  ASN695  SER759  ASP760  ASP761  ALA762  ILE779  LEU786  VAL792 
 PHE793  MET794  SER795  GLU796  ALA797  LYS798  CYS799  TRP800  GLU811  SER814 

> <Gold.Protein.RotatedAtoms>
  151.0348  133.5758  159.2656 H   0  0  0  0  0  0  0  0  0  0  0  0  # atno 6907 bound_to 6896
  151.2826  135.0717  159.9185 H   0  0  0  0  0  0  0  0  0  0  0  0  # atno 6908 bound_to 6896
  152.5352  134.0060  159.7970 H   0  0  0  0  0  0  0  0  0  0  0  0  # atno 6909 bound_to 6896
  144.9378  139.4967  143.5586 H   0  0  0  0  0  0  0  0  0  0  0  0  # atno 7974 bound_to 7965
  155.4615  140.0546  157.2990 H   0  0  0  0  0  0  0  0  0  0  0  0  # atno 8008 bound_to 7997
  154.4735  140.2051  155.9890 H   0  0  0  0  0  0  0  0  0  0  0  0  # atno 8009 bound_to 7997
  156.1094  140.3206  155.8057 H   0  0  0  0  0  0  0  0  0  0  0  0  # atno 8010 bound_to 7997
  140.6699  143.7078  150.7901 H   0  0  0  0  0  0  0  0  0  0  0  0  # atno 10167 bound_to 10162
  156.4547  130.4491  149.6967 H   0  0  0  0  0  0  0  0  0  0  0  0  # atno 10718 bound_to 10713
  154.4826  135.5841  153.6401 H   0  0  0  0  0  0  0  0  0  0  0  0  # atno 10763 bound_to 10752
  152.9850  135.6093  154.3227 H   0  0  0  0  0  0  0  0  0  0  0  0  # atno 10764 bound_to 10752
  154.3119  135.2845  155.2541 H   0  0  0  0  0  0  0  0  0  0  0  0  # atno 10765 bound_to 10752
  141.1643  133.6940  156.7488 H   0  0  0  0  0  0  0  0  0  0  0  0  # atno 11005 bound_to 11000
  146.3274  139.8376  142.8896 LP  0  0  0  0  0  0  0  0  0  0  0  0  # atno 17320 bound_to 7965
  145.3039  141.0201  143.3593 LP  0  0  0  0  0  0  0  0  0  0  0  0  # atno 17321 bound_to 7965
  140.0761  143.5014  152.2554 LP  0  0  0  0  0  0  0  0  0  0  0  0  # atno 17342 bound_to 10162
  139.5963  144.7568  151.3279 LP  0  0  0  0  0  0  0  0  0  0  0  0  # atno 17343 bound_to 10162
  156.3779  130.7564  151.2554 LP  0  0  0  0  0  0  0  0  0  0  0  0  # atno 17370 bound_to 10713
  157.7501  131.0304  150.4136 LP  0  0  0  0  0  0  0  0  0  0  0  0  # atno 17371 bound_to 10713
  140.2620  134.8459  157.3767 LP  0  0  0  0  0  0  0  0  0  0  0  0  # atno 17394 bound_to 11000
  140.1602  134.4738  155.7900 LP  0  0  0  0  0  0  0  0  0  0  0  0  # atno 17395 bound_to 11000

$$$$
