AV-unprocessed.smi:1399|AV-procd|sdf|5685|dock6
  -GOLD-   22720 5313D 1   1.00000     0.00000
 Structure written by MMmdl.
 37 38  0  0  0  0  0  0  0  0  3 V2000
  153.4728  139.1618  155.2601 N   0  5  0  0  0  0  0  0  0  0  0  0
  152.1316  139.2847  155.2792 C   0  0  0  0  0  0  0  0  0  0  0  0
  151.4660  140.3155  155.2034 O   0  0  0  0  0  0  0  0  0  0  0  0
  151.4197  137.9320  155.3872 C   0  0  0  0  0  0  0  0  0  0  0  0
  149.9474  138.1228  155.3748 N   0  3  2  0  0  0  0  0  0  0  0  0
  149.2160  136.8664  155.6777 C   0  0  0  0  0  0  0  0  0  0  0  0
  147.7027  137.1175  155.8008 C   0  0  0  0  0  0  0  0  0  0  0  0
  147.1246  137.7928  154.5413 C   0  0  2  0  0  0  0  0  0  0  0  0
  147.1035  136.8839  153.3954 N   0  0  0  0  0  0  0  0  0  0  0  0
  146.0029  136.3366  152.8598 C   0  0  0  0  0  0  0  0  0  0  0  0
  144.8670  136.5313  153.2920 O   0  0  0  0  0  0  0  0  0  0  0  0
  146.3076  135.5589  151.8086 N   0  0  0  0  0  0  0  0  0  0  0  0
  145.4079  134.8268  150.9944 C   0  0  0  0  0  0  0  0  0  0  0  0
  145.5269  133.5005  150.4838 C   0  0  0  0  0  0  0  0  0  0  0  0
  144.4682  133.1698  149.7581 N   0  0  0  0  0  0  0  0  0  0  0  0
  143.6781  134.2660  149.8004 N   0  0  0  0  0  0  0  0  0  0  0  0
  144.2115  135.2971  150.5416 C   0  0  0  0  0  0  0  0  0  0  0  0
  147.9409  139.0541  154.2116 C   0  0  0  0  0  0  0  0  0  0  0  0
  149.4495  138.7603  154.1257 C   0  0  0  0  0  0  0  0  0  0  0  0
  142.7882  134.2946  149.3231 H   0  0  0  0  0  0  0  0  0  0  0  0
  153.8948  138.3930  154.7255 H   0  0  0  0  0  0  0  0  0  0  0  0
  151.7204  137.2309  154.6055 H   0  0  0  0  0  0  0  0  0  0  0  0
  151.7296  137.4889  156.3347 H   0  0  0  0  0  0  0  0  0  0  0  0
  149.4173  136.1286  154.8996 H   0  0  0  0  0  0  0  0  0  0  0  0
  149.5825  136.4451  156.6146 H   0  0  0  0  0  0  0  0  0  0  0  0
  147.1837  136.1814  156.0095 H   0  0  0  0  0  0  0  0  0  0  0  0
  147.5200  137.7590  156.6637 H   0  0  0  0  0  0  0  0  0  0  0  0
  146.0971  138.0991  154.7457 H   0  0  0  0  0  0  0  0  0  0  0  0
  147.9930  136.6681  152.9697 H   0  0  0  0  0  0  0  0  0  0  0  0
  147.2837  135.4835  151.5628 H   0  0  0  0  0  0  0  0  0  0  0  0
  146.3202  132.7783  150.6059 H   0  0  0  0  0  0  0  0  0  0  0  0
  143.7078  136.2432  150.6756 H   0  0  0  0  0  0  0  0  0  0  0  0
  147.5915  139.4989  153.2790 H   0  0  0  0  0  0  0  0  0  0  0  0
  147.7701  139.8034  154.9859 H   0  0  0  0  0  0  0  0  0  0  0  0
  149.9788  139.6956  153.9423 H   0  0  0  0  0  0  0  0  0  0  0  0
  149.6615  138.1108  153.2751 H   0  0  0  0  0  0  0  0  0  0  0  0
  149.7469  138.7609  156.1320 H   0  0  0  0  0  0  0  0  0  0  0  0
  1  2  1  0  0  0  0
  1 21  1  0  0  0  0
  2  3  2  0  0  0  0
  2  4  1  0  0  0  0
  4  5  1  0  0  0  0
  4 22  1  0  0  0  0
  4 23  1  0  0  0  0
  5 19  1  0  0  0  0
  5  6  1  0  0  0  0
  5 37  1  0  0  0  0
  6  7  1  0  0  0  0
  6 24  1  0  0  0  0
  6 25  1  0  0  0  0
  7  8  1  0  0  0  0
  7 26  1  0  0  0  0
  7 27  1  0  0  0  0
  8  9  1  0  0  0  0
  8 18  1  0  0  0  0
  8 28  1  0  0  0  0
  9 10  1  0  0  0  0
  9 29  1  0  0  0  0
 10 11  2  0  0  0  0
 10 12  1  0  0  0  0
 12 13  1  0  0  0  0
 12 30  1  0  0  0  0
 13 17  2  0  0  0  0
 13 14  1  0  0  0  0
 14 15  2  0  0  0  0
 14 31  1  0  0  0  0
 15 16  1  0  0  0  0
 16 20  1  0  0  0  0
 16 17  1  0  0  0  0
 17 32  1  0  0  0  0
 18 19  1  0  0  0  0
 18 33  1  0  0  0  0
 18 34  1  0  0  0  0
 19 35  1  0  0  0  0
 19 36  1  0  0  0  0
M  CHG  1   1  -1
M  CHG  1   5   1
M  END
> <s_m_source_file>
AV-unprocessed.smi

> <i_m_source_file_index>
1399

> <i_lp_mmshare_version>
43012

> <i_f3d_flags>
0

> <s_epik_input>
W05IMl1DKD1PKVtDSDJdTjFbQ0gyXVtDSDJdW0NIXShbQ0gyXVtDSDJdMSlbTkhdQyg9TylbTkhdYzJbY0hdbltuSF1bY0hdMg==

> <s_epik_cmdline>
J2VwaWtfcHl0aG9uJywgJy1waCcsICc3LjAnLCAnLXRuJywgJzgnLCAnLW1hJywgJzIwMCcsICctbWV0YWxfYmluZGluZycsICctaW1hZScsICc8aW5maWxlLm1hZT4nLCAnLW9tYWUnLCAnPG91dGZpbGUubWFlPic=

> <r_lp_tautomer_probability>
0.5

> <r_epik_Ionization_Penalty>
5.72885

> <r_epik_Ionization_Penalty_Charging>
5.7288

> <r_epik_Ionization_Penalty_Neutral>
4.21226e-05

> <r_epik_State_Penalty>
6.54882

> <r_epik_Charging_Adjusted_Penalty>
12.2776

> <i_epik_Tot_Q>
0

> <i_epik_Tot_abs_Q>
2

> <r_epik_Metal_State_Penalty>
2.51297

> <b_epik_Metal_Only>
1

> <s_lp_Force_Field>
OPLS_2005

> <r_lp_Energy>
10.897

> <b_lp_Chiralities_Consistent>
1

> <s_lp_Variant>
AV-unprocessed.smi:1399-5

> <Gold.Version>
5.8.1

> <Gold.Id.Protein>
6NUR|6NUR_protein|mol2

> <Gold.PLP.Fitness>
44.0786

> <Gold.PLP.PLP>
-24.6186

> <Gold.PLP.part.hbond>
-4.8227

> <Gold.PLP.part.metal>
0.0000

> <Gold.PLP.part.buried>
-4.4055

> <Gold.PLP.part.nonpolar>
-15.8884

> <Gold.PLP.part.repulsive>
0.4601

> <Gold.PLP.ligand.clash>
0.0000

> <Gold.PLP.ligand.torsion>
0.4603

> <Gold.PLP.Chemscore.Hbond>
5.7840

> <Gold.PLP.Chemscore.CHOScore>
1.0000

> <Gold.PLP.Chemscore.Metal>
0.0000

> <Gold.Chemscore.Hbonds>
donor molecule, donor type, donor heavy atom, donor atom, acceptor molecule, acceptor atom, score
      L1  H     9    29       P1  7948  0.99
      L1  H    12    30       P1  7948  0.90
      L1  H    16    20       P1 10186  0.90
      P1  H  7989  7998       L1     3  0.96
      P1  H  7997  8008       L1     1  2.00
      L1  C    17    32       P1 10171  1.00

> <Gold.PLP.Chemscore.Internal.Correction>
0.0287

> <Gold.Rescore>
     Score         DG    S(hbond)    S(metal)    S(lipo)     H(rot)  DE(clash)    DE(int)     intcor
     18.30     -20.45       4.70        0.00      38.78       2.06       0.03       2.12       ----

> <Gold.Chemscore.Fitness>
18.2969

> <Gold.Chemscore.DG>
-20.4488

> <Gold.Chemscore.ZeroCoef>
-5.4800

> <Gold.Chemscore.Hbond>
4.7010

> <Gold.Chemscore.Metal>
0.0000

> <Gold.Chemscore.Lipo>
38.7771

> <Gold.Chemscore.Internal_Hbond>
0.0000

> <Gold.Chemscore.DEClash>
0.0314

> <Gold.Chemscore.DEInternal>
2.1205

> <Gold.Chemscore.Rot>
2.0584

> <Gold.Chemscore.Internal.Correction>
   9.000000E+99

> <Gold.Chemscore.Hbonds>
donor molecule, donor type, donor heavy atom, donor atom, acceptor molecule, acceptor atom, score
      L1  H     9    29       P1  7948  0.91
      L1  H    12    30       P1  7948  0.86
      L1  H    16    20       P1 10186  0.88
      P1  H  7989  7998       L1     3  0.46
      P1  H  7997  8008       L1     1  0.90

> <Gold.Chemscore.Hbond.Weighted>
-15.7013

> <Gold.Chemscore.Metal.Weighted>
-0.0000

> <Gold.Chemscore.Lipo.Weighted>
-4.5369

> <Gold.Chemscore.Internal_Hbond.Weighted>
0.0000

> <Gold.Chemscore.DEClash.Weighted>
0.0314

> <Gold.Chemscore.DEInternal.Weighted>
2.1205

> <Gold.Chemscore.Rot.Weighted>
5.2695

> <Gold.Chemscore.Internal.Correction.Weighted>
   9.000000E+99

> <Gold.Protein.RotatedTorsions>
[ 6907 6896 6895 6894 ] final  160.83 input  -60.11 | X-H torsion
[ 7974 7965 7964 7962 ] final   87.31 input  175.53 | X-H torsion
[ 8008 7997 7996 7995 ] final  -28.87 input   59.86 | X-H torsion
[ 10167 10162 10161 10158 ] final  119.56 input  -65.29 | X-H torsion
[ 10718 10713 10712 10709 ] final  -13.41 input   66.30 | X-H torsion
[ 10763 10752 10751 10750 ] final -162.82 input  -60.55 | X-H torsion
[ 11005 11000 10999 10996 ] final   99.32 input  -57.11 | X-H torsion

> <Gold.Protein.ActiveResidues>
 VAL166  LYS551  ARG553  GLY616  TRP617  ASP618  TYR619  PRO620  LYS621  CYS622 
 ASP623  PHE694  ASN695  SER759  ASP760  ASP761  ALA762  ILE779  LEU786  VAL792 
 PHE793  MET794  SER795  GLU796  ALA797  LYS798  CYS799  TRP800  GLU811  SER814 

> <Gold.Protein.RotatedAtoms>
  151.9648  133.3707  159.4048 H   0  0  0  0  0  0  0  0  0  0  0  0  # atno 6907 bound_to 6896
  150.6958  134.4202  159.5211 H   0  0  0  0  0  0  0  0  0  0  0  0  # atno 6908 bound_to 6896
  152.1897  134.8683  160.0569 H   0  0  0  0  0  0  0  0  0  0  0  0  # atno 6909 bound_to 6896
  145.5606  139.2303  143.2461 H   0  0  0  0  0  0  0  0  0  0  0  0  # atno 7974 bound_to 7965
  154.4313  140.1833  156.1158 H   0  0  0  0  0  0  0  0  0  0  0  0  # atno 8008 bound_to 7997
  156.0182  140.3343  155.6985 H   0  0  0  0  0  0  0  0  0  0  0  0  # atno 8009 bound_to 7997
  155.6015  140.0641  157.2722 H   0  0  0  0  0  0  0  0  0  0  0  0  # atno 8010 bound_to 7997
  139.6038  144.7064  151.3001 H   0  0  0  0  0  0  0  0  0  0  0  0  # atno 10167 bound_to 10162
  156.6306  130.4900  149.6130 H   0  0  0  0  0  0  0  0  0  0  0  0  # atno 10718 bound_to 10713
  154.7179  135.3019  154.9094 H   0  0  0  0  0  0  0  0  0  0  0  0  # atno 10763 bound_to 10752
  153.9975  135.6711  153.4761 H   0  0  0  0  0  0  0  0  0  0  0  0  # atno 10764 bound_to 10752
  153.0809  135.5009  154.8416 H   0  0  0  0  0  0  0  0  0  0  0  0  # atno 10765 bound_to 10752
  139.8771  134.9090  156.4589 H   0  0  0  0  0  0  0  0  0  0  0  0  # atno 11005 bound_to 11000
  146.1854  140.6431  142.9170 LP  0  0  0  0  0  0  0  0  0  0  0  0  # atno 17320 bound_to 7965
  144.7485  140.5129  143.6819 LP  0  0  0  0  0  0  0  0  0  0  0  0  # atno 17321 bound_to 7965
  140.7269  143.6976  150.7871 LP  0  0  0  0  0  0  0  0  0  0  0  0  # atno 17342 bound_to 10162
  140.0558  143.5204  152.2652 LP  0  0  0  0  0  0  0  0  0  0  0  0  # atno 17343 bound_to 10162
  156.2237  130.6753  151.1395 LP  0  0  0  0  0  0  0  0  0  0  0  0  # atno 17370 bound_to 10713
  157.7201  131.0687  150.6171 LP  0  0  0  0  0  0  0  0  0  0  0  0  # atno 17371 bound_to 10713
  140.8878  133.7870  155.9538 LP  0  0  0  0  0  0  0  0  0  0  0  0  # atno 17394 bound_to 11000
  140.8786  134.2639  157.5156 LP  0  0  0  0  0  0  0  0  0  0  0  0  # atno 17395 bound_to 11000

$$$$
