AV-unprocessed.smi:1268|AV-procd|sdf|5326|dock3
  -GOLD-   22720 4453D 1   1.00000     0.00000
 Structure written by MMmdl.
 39 40  0  0  0  0  0  0  0  0  3 V2000
  144.5062  136.3131  151.9459 O   0  0  0  0  0  0  0  0  0  0  0  0
  145.6850  136.1044  151.6482 C   0  0  0  0  0  0  0  0  0  0  0  0
  146.5705  137.1105  151.6833 N   0  0  0  0  0  0  0  0  0  0  0  0
  146.2779  138.4896  152.0609 C   0  0  0  0  0  0  0  0  0  0  0  0
  147.2398  139.0016  153.1529 C   0  0  1  0  0  0  0  0  0  0  0  0
  148.5333  138.5052  152.8694 O   0  0  0  0  0  0  0  0  0  0  0  0
  147.3212  140.5407  153.1585 C   0  0  0  0  0  0  0  0  0  0  0  0
  146.2030  141.1650  153.9108 N   0  3  0  0  0  0  0  0  0  0  0  0
  146.2978  142.6484  153.9813 C   0  0  0  0  0  0  0  0  0  0  0  0
  145.0509  143.2522  154.6493 C   0  0  0  0  0  0  0  0  0  0  0  0
  144.8309  142.6547  156.0450 C   0  0  0  0  0  0  0  0  0  0  0  0
  144.7733  141.1242  155.9559 C   0  0  0  0  0  0  0  0  0  0  0  0
  146.0242  140.5640  155.2580 C   0  0  0  0  0  0  0  0  0  0  0  0
  146.2219  134.9201  151.2796 N   0  5  0  0  0  0  0  0  0  0  0  0
  145.4528  133.8201  151.2299 C   0  0  0  0  0  0  0  0  0  0  0  0
  144.1175  133.8663  151.1618 N   0  0  0  0  0  0  0  0  0  0  0  0
  143.5199  132.6055  151.1134 C   0  0  0  0  0  0  0  0  0  0  0  0
  144.4220  131.5752  151.1381 C   0  0  0  0  0  0  0  0  0  0  0  0
  146.0587  132.1614  151.2219 S   0  0  0  0  0  0  0  0  0  0  0  0
  147.5234  136.8977  151.4262 H   0  0  0  0  0  0  0  0  0  0  0  0
  146.3134  139.1249  151.1751 H   0  0  0  0  0  0  0  0  0  0  0  0
  145.2469  138.5308  152.4167 H   0  0  0  0  0  0  0  0  0  0  0  0
  146.9256  138.6372  154.1303 H   0  0  0  0  0  0  0  0  0  0  0  0
  148.9895  139.1486  152.3474 H   0  0  0  0  0  0  0  0  0  0  0  0
  148.2774  140.8351  153.5947 H   0  0  0  0  0  0  0  0  0  0  0  0
  147.3226  140.9291  152.1387 H   0  0  0  0  0  0  0  0  0  0  0  0
  147.1930  142.9304  154.5378 H   0  0  0  0  0  0  0  0  0  0  0  0
  146.4030  143.0733  152.9838 H   0  0  0  0  0  0  0  0  0  0  0  0
  145.1527  144.3355  154.7197 H   0  0  0  0  0  0  0  0  0  0  0  0
  144.1751  143.0636  154.0267 H   0  0  0  0  0  0  0  0  0  0  0  0
  145.6429  142.9559  156.7083 H   0  0  0  0  0  0  0  0  0  0  0  0
  143.9098  143.0426  156.4810 H   0  0  0  0  0  0  0  0  0  0  0  0
  144.6798  140.6965  156.9546 H   0  0  0  0  0  0  0  0  0  0  0  0
  143.8810  140.8225  155.4055 H   0  0  0  0  0  0  0  0  0  0  0  0
  145.9258  139.4813  155.1685 H   0  0  0  0  0  0  0  0  0  0  0  0
  146.9121  140.7537  155.8632 H   0  0  0  0  0  0  0  0  0  0  0  0
  142.4437  132.5348  151.0607 H   0  0  0  0  0  0  0  0  0  0  0  0
  144.2262  130.5141  151.1110 H   0  0  0  0  0  0  0  0  0  0  0  0
  145.3641  140.9462  153.3918 H   0  0  0  0  0  0  0  0  0  0  0  0
  1  2  2  0  0  0  0
  2  3  1  0  0  0  0
  2 14  1  0  0  0  0
  3  4  1  0  0  0  0
  3 20  1  0  0  0  0
  4  5  1  0  0  0  0
  4 21  1  0  0  0  0
  4 22  1  0  0  0  0
  5  6  1  0  0  0  0
  5  7  1  0  0  0  0
  5 23  1  0  0  0  0
  6 24  1  0  0  0  0
  7  8  1  0  0  0  0
  7 25  1  0  0  0  0
  7 26  1  0  0  0  0
  8 13  1  0  0  0  0
  8  9  1  0  0  0  0
  8 39  1  0  0  0  0
  9 10  1  0  0  0  0
  9 27  1  0  0  0  0
  9 28  1  0  0  0  0
 10 11  1  0  0  0  0
 10 29  1  0  0  0  0
 10 30  1  0  0  0  0
 11 12  1  0  0  0  0
 11 31  1  0  0  0  0
 11 32  1  0  0  0  0
 12 13  1  0  0  0  0
 12 33  1  0  0  0  0
 12 34  1  0  0  0  0
 13 35  1  0  0  0  0
 13 36  1  0  0  0  0
 14 15  1  0  0  0  0
 15 19  1  0  0  0  0
 15 16  2  0  0  0  0
 16 17  1  0  0  0  0
 17 18  2  0  0  0  0
 17 37  1  0  0  0  0
 18 19  1  0  0  0  0
 18 38  1  0  0  0  0
M  CHG  1   8   1
M  CHG  1  14  -1
M  END
> <s_m_source_file>
AV-unprocessed.smi

> <i_m_source_file_index>
1268

> <i_lp_mmshare_version>
43012

> <i_f3d_flags>
0

> <s_epik_input>
czFbY0hdW2NIXW5jMVtOSF1DKD1PKVtOSF1bQ0gyXVtDQEhdKFtPSF0pW0NIMl1OMltDSDJdW0NIMl1bQ0gyXVtDSDJdW0NIMl0y

> <s_epik_cmdline>
J2VwaWtfcHl0aG9uJywgJy1waCcsICc3LjAnLCAnLXRuJywgJzgnLCAnLW1hJywgJzIwMCcsICctbWV0YWxfYmluZGluZycsICctaW1hZScsICc8aW5maWxlLm1hZT4nLCAnLW9tYWUnLCAnPG91dGZpbGUubWFlPic=

> <r_lp_tautomer_probability>
0.999

> <r_epik_Ionization_Penalty>
6.36291

> <r_epik_Ionization_Penalty_Charging>
5.4816

> <r_epik_Ionization_Penalty_Neutral>
0.881305

> <r_epik_State_Penalty>
5.4805

> <r_epik_Charging_Adjusted_Penalty>
10.9621

> <i_epik_Tot_Q>
0

> <i_epik_Tot_abs_Q>
2

> <r_epik_Metal_State_Penalty>
1.48871

> <b_epik_Metal_Only>
1

> <s_lp_Force_Field>
OPLS_2005

> <r_lp_Energy>
8.43067

> <b_lp_Chiralities_Consistent>
1

> <s_lp_Variant>
AV-unprocessed.smi:1268-4

> <Gold.Version>
5.8.1

> <Gold.Id.Protein>
6NUR|6NUR_protein|mol2

> <Gold.PLP.Fitness>
48.3715

> <Gold.PLP.PLP>
-34.7202

> <Gold.PLP.part.hbond>
-3.7942

> <Gold.PLP.part.metal>
0.0000

> <Gold.PLP.part.buried>
-4.5049

> <Gold.PLP.part.nonpolar>
-28.7163

> <Gold.PLP.part.repulsive>
1.9081

> <Gold.PLP.ligand.clash>
0.0000

> <Gold.PLP.ligand.torsion>
0.5695

> <Gold.PLP.Chemscore.Hbond>
4.0000

> <Gold.PLP.Chemscore.CHOScore>
0.8993

> <Gold.PLP.Chemscore.Metal>
0.0000

> <Gold.Chemscore.Hbonds>
donor molecule, donor type, donor heavy atom, donor atom, acceptor molecule, acceptor atom, score
      L1  H     3    20       P1  7948  0.99
      L1  H     6    24       P1  7957  1.00
      L1  H     8    39       P1 10175  2.00
      L1  C    17    37       P1 10186  0.26

> <Gold.PLP.Chemscore.Internal.Correction>
0.0924

> <Gold.Rescore>
     Score         DG    S(hbond)    S(metal)    S(lipo)     H(rot)  DE(clash)    DE(int)     intcor
     14.14     -16.41       2.93        0.00      64.00       2.48       0.03       2.23       ----

> <Gold.Chemscore.Fitness>
14.1445

> <Gold.Chemscore.DG>
-16.4126

> <Gold.Chemscore.ZeroCoef>
-5.4800

> <Gold.Chemscore.Hbond>
2.9347

> <Gold.Chemscore.Metal>
0.0000

> <Gold.Chemscore.Lipo>
64.0024

> <Gold.Chemscore.Internal_Hbond>
0.0000

> <Gold.Chemscore.DEClash>
0.0343

> <Gold.Chemscore.DEInternal>
2.2338

> <Gold.Chemscore.Rot>
2.4834

> <Gold.Chemscore.Internal.Correction>
   9.000000E+99

> <Gold.Chemscore.Hbonds>
donor molecule, donor type, donor heavy atom, donor atom, acceptor molecule, acceptor atom, score
      L1  H     3    20       P1  7948  0.92
      L1  H     6    24       P1  7957  0.98
      L1  H     8    39       P1 10175  0.64

> <Gold.Chemscore.Hbond.Weighted>
-9.8018

> <Gold.Chemscore.Metal.Weighted>
-0.0000

> <Gold.Chemscore.Lipo.Weighted>
-7.4883

> <Gold.Chemscore.Internal_Hbond.Weighted>
0.0000

> <Gold.Chemscore.DEClash.Weighted>
0.0343

> <Gold.Chemscore.DEInternal.Weighted>
2.2338

> <Gold.Chemscore.Rot.Weighted>
6.3575

> <Gold.Chemscore.Internal.Correction.Weighted>
   9.000000E+99

> <Gold.Protein.RotatedTorsions>
[ 6907 6896 6895 6894 ] final -139.77 input  -60.11 | X-H torsion
[ 7974 7965 7964 7962 ] final  -18.47 input  175.53 | X-H torsion
[ 8008 7997 7996 7995 ] final -159.85 input   59.86 | X-H torsion
[ 10167 10162 10161 10158 ] final   38.79 input  -65.29 | X-H torsion
[ 10718 10713 10712 10709 ] final   39.04 input   66.30 | X-H torsion
[ 10763 10752 10751 10750 ] final   -6.37 input  -60.55 | X-H torsion
[ 11005 11000 10999 10996 ] final -152.61 input  -57.11 | X-H torsion

> <Gold.Protein.ActiveResidues>
 VAL166  LYS551  ARG553  GLY616  TRP617  ASP618  TYR619  PRO620  LYS621  CYS622 
 ASP623  PHE694  ASN695  SER759  ASP760  ASP761  ALA762  ILE779  LEU786  VAL792 
 PHE793  MET794  SER795  GLU796  ALA797  LYS798  CYS799  TRP800  GLU811  SER814 

> <Gold.Protein.RotatedAtoms>
  151.0521  133.5615  159.2641 H   0  0  0  0  0  0  0  0  0  0  0  0  # atno 6907 bound_to 6896
  151.2622  135.0657  159.9112 H   0  0  0  0  0  0  0  0  0  0  0  0  # atno 6908 bound_to 6896
  152.5383  134.0265  159.8059 H   0  0  0  0  0  0  0  0  0  0  0  0  # atno 6909 bound_to 6896
  146.1891  140.3925  142.8465 H   0  0  0  0  0  0  0  0  0  0  0  0  # atno 7974 bound_to 7965
  155.7688  140.0849  157.2118 H   0  0  0  0  0  0  0  0  0  0  0  0  # atno 8008 bound_to 7997
  154.3998  140.1529  156.2974 H   0  0  0  0  0  0  0  0  0  0  0  0  # atno 8009 bound_to 7997
  155.8768  140.3422  155.5862 H   0  0  0  0  0  0  0  0  0  0  0  0  # atno 8010 bound_to 7997
  140.3903  144.1862  150.6131 H   0  0  0  0  0  0  0  0  0  0  0  0  # atno 10167 bound_to 10162
  157.3659  130.7674  149.7082 H   0  0  0  0  0  0  0  0  0  0  0  0  # atno 10718 bound_to 10713
  153.4115  135.7008  153.6356 H   0  0  0  0  0  0  0  0  0  0  0  0  # atno 10763 bound_to 10752
  153.4848  135.3685  155.2461 H   0  0  0  0  0  0  0  0  0  0  0  0  # atno 10764 bound_to 10752
  154.8717  135.4075  154.3467 H   0  0  0  0  0  0  0  0  0  0  0  0  # atno 10765 bound_to 10752
  140.7170  134.3769  157.5189 H   0  0  0  0  0  0  0  0  0  0  0  0  # atno 11005 bound_to 11000
  144.8452  140.6918  143.6204 LP  0  0  0  0  0  0  0  0  0  0  0  0  # atno 17320 bound_to 7965
  145.3849  139.1629  143.4260 LP  0  0  0  0  0  0  0  0  0  0  0  0  # atno 17321 bound_to 7965
  140.4847  143.2367  151.8905 LP  0  0  0  0  0  0  0  0  0  0  0  0  # atno 17342 bound_to 10162
  139.4789  144.5231  151.8773 LP  0  0  0  0  0  0  0  0  0  0  0  0  # atno 17343 bound_to 10162
  155.9746  130.4101  150.3912 LP  0  0  0  0  0  0  0  0  0  0  0  0  # atno 17370 bound_to 10713
  157.1996  131.0435  151.2657 LP  0  0  0  0  0  0  0  0  0  0  0  0  # atno 17371 bound_to 10713
  139.8857  134.8929  156.2626 LP  0  0  0  0  0  0  0  0  0  0  0  0  # atno 17394 bound_to 11000
  141.0036  133.7137  156.0999 LP  0  0  0  0  0  0  0  0  0  0  0  0  # atno 17395 bound_to 11000

$$$$
