AV-unprocessed.smi:2611|AV-procd|sdf|10210|dock4
  -GOLD-   2272014213D 1   1.00000     0.00000
 Structure written by MMmdl.
 39 40  0  0  0  0  0  0  0  0  1 V2000
  146.7509  142.5543  153.9196 C   0  0  0  0  0  0  0  0  0  0  0  0
  146.8074  141.0817  154.3521 C   0  0  0  0  0  0  0  0  0  0  0  0
  146.0918  140.8212  155.6857 C   0  0  0  0  0  0  0  0  0  0  0  0
  148.2121  140.5610  154.3650 C   0  0  0  0  0  0  0  0  0  0  0  0
  149.2339  141.3260  153.9979 N   0  0  0  0  0  0  0  0  0  0  0  0
  150.3444  140.4852  154.1586 O   0  0  0  0  0  0  0  0  0  0  0  0
  149.8509  139.3000  154.5898 C   0  0  0  0  0  0  0  0  0  0  0  0
  150.8024  138.1953  154.9051 C   0  0  0  0  0  0  0  0  0  0  0  0
  151.9785  138.6659  155.7753 C   0  0  0  0  0  0  0  0  0  0  0  0
  151.5733  139.7202  156.6977 N   0  0  0  0  0  0  0  0  0  0  0  0
  152.2758  140.1292  157.7680 C   0  0  0  0  0  0  0  0  0  0  0  0
  153.3463  139.6090  158.0856 O   0  0  0  0  0  0  0  0  0  0  0  0
  151.7012  141.1364  158.4740 N   0  0  0  0  0  0  0  0  0  0  0  0
  150.6308  142.0252  157.9927 C   0  0  0  0  0  0  0  0  0  0  0  0
  151.2602  143.3155  157.4420 C   0  0  0  0  0  0  0  0  0  0  0  0
  152.1449  144.2184  158.7519 S   0  0  0  0  0  0  0  0  0  0  0  0
  153.1508  142.8632  159.4345 C   0  0  0  0  0  0  0  0  0  0  0  0
  152.2858  141.6256  159.7281 C   0  0  0  0  0  0  0  0  0  0  0  0
  148.5306  139.2942  154.7529 N   0  0  0  0  0  0  0  0  0  0  0  0
  147.2032  142.6922  152.9371 H   0  0  0  0  0  0  0  0  0  0  0  0
  147.2814  143.1956  154.6240 H   0  0  0  0  0  0  0  0  0  0  0  0
  145.7209  142.9068  153.8613 H   0  0  0  0  0  0  0  0  0  0  0  0
  146.2596  140.5184  153.5947 H   0  0  0  0  0  0  0  0  0  0  0  0
  146.0848  139.7575  155.9254 H   0  0  0  0  0  0  0  0  0  0  0  0
  145.0556  141.1576  155.6466 H   0  0  0  0  0  0  0  0  0  0  0  0
  146.5799  141.3455  156.5081 H   0  0  0  0  0  0  0  0  0  0  0  0
  150.2524  137.3984  155.4072 H   0  0  0  0  0  0  0  0  0  0  0  0
  151.1714  137.7775  153.9675 H   0  0  0  0  0  0  0  0  0  0  0  0
  152.3601  137.8322  156.3653 H   0  0  0  0  0  0  0  0  0  0  0  0
  152.8052  139.0084  155.1505 H   0  0  0  0  0  0  0  0  0  0  0  0
  150.6963  140.1819  156.5048 H   0  0  0  0  0  0  0  0  0  0  0  0
  150.0004  141.5642  157.2321 H   0  0  0  0  0  0  0  0  0  0  0  0
  149.9503  142.2642  158.8113 H   0  0  0  0  0  0  0  0  0  0  0  0
  151.9559  143.0856  156.6341 H   0  0  0  0  0  0  0  0  0  0  0  0
  150.4918  143.9674  157.0269 H   0  0  0  0  0  0  0  0  0  0  0  0
  153.9416  142.6152  158.7256 H   0  0  0  0  0  0  0  0  0  0  0  0
  153.6372  143.2128  160.3453 H   0  0  0  0  0  0  0  0  0  0  0  0
  151.4975  141.8768  160.4390 H   0  0  0  0  0  0  0  0  0  0  0  0
  152.8860  140.8602  160.2223 H   0  0  0  0  0  0  0  0  0  0  0  0
  1  2  1  0  0  0  0
  1 20  1  0  0  0  0
  1 21  1  0  0  0  0
  1 22  1  0  0  0  0
  2  3  1  0  0  0  0
  2  4  1  0  0  0  0
  2 23  1  0  0  0  0
  3 24  1  0  0  0  0
  3 25  1  0  0  0  0
  3 26  1  0  0  0  0
  4 19  1  0  0  0  0
  4  5  2  0  0  0  0
  5  6  1  0  0  0  0
  6  7  1  0  0  0  0
  7  8  1  0  0  0  0
  7 19  2  0  0  0  0
  8  9  1  0  0  0  0
  8 27  1  0  0  0  0
  8 28  1  0  0  0  0
  9 10  1  0  0  0  0
  9 29  1  0  0  0  0
  9 30  1  0  0  0  0
 10 11  1  0  0  0  0
 10 31  1  0  0  0  0
 11 12  2  0  0  0  0
 11 13  1  0  0  0  0
 13 18  1  0  0  0  0
 13 14  1  0  0  0  0
 14 15  1  0  0  0  0
 14 32  1  0  0  0  0
 14 33  1  0  0  0  0
 15 16  1  0  0  0  0
 15 34  1  0  0  0  0
 15 35  1  0  0  0  0
 16 17  1  0  0  0  0
 17 18  1  0  0  0  0
 17 36  1  0  0  0  0
 17 37  1  0  0  0  0
 18 38  1  0  0  0  0
 18 39  1  0  0  0  0
M  END
> <s_m_source_file>
AV-unprocessed.smi

> <i_m_source_file_index>
2611

> <i_lp_mmshare_version>
43012

> <i_f3d_flags>
0

> <s_epik_input>
W0NIM11bQ0hdKFtDSDNdKWMxbm9jKG4xKVtDSDJdW0NIMl1bTkhdQyg9TylOMltDSDJdW0NIMl1TW0NIMl1bQ0gyXTI=

> <s_epik_cmdline>
J2VwaWtfcHl0aG9uJywgJy1waCcsICc3LjAnLCAnLXRuJywgJzgnLCAnLW1hJywgJzIwMCcsICctbWV0YWxfYmluZGluZycsICctaW1hZScsICc8aW5maWxlLm1hZT4nLCAnLW9tYWUnLCAnPG91dGZpbGUubWFlPic=

> <r_lp_tautomer_probability>
1

> <r_epik_Ionization_Penalty>
4.28847e-05

> <r_epik_Ionization_Penalty_Charging>
0

> <r_epik_Ionization_Penalty_Neutral>
4.28847e-05

> <r_epik_State_Penalty>
-0

> <r_epik_Charging_Adjusted_Penalty>
0

> <i_epik_Tot_Q>
0

> <i_epik_Tot_abs_Q>
0

> <r_epik_Metal_State_Penalty>
-0

> <b_epik_Metal_Only>
0

> <s_lp_Force_Field>
OPLS_2005

> <r_lp_Energy>
14.602

> <b_lp_Chiralities_Consistent>
1

> <s_lp_Variant>
AV-unprocessed.smi:2611-1

> <Gold.Version>
5.8.1

> <Gold.Id.Protein>
6NUR|6NUR_protein|mol2

> <Gold.PLP.Fitness>
44.1337

> <Gold.PLP.PLP>
-37.6608

> <Gold.PLP.part.hbond>
-3.4153

> <Gold.PLP.part.metal>
0.0000

> <Gold.PLP.part.buried>
-5.1794

> <Gold.PLP.part.nonpolar>
-30.4393

> <Gold.PLP.part.repulsive>
0.5699

> <Gold.PLP.ligand.clash>
0.0000

> <Gold.PLP.ligand.torsion>
0.5198

> <Gold.PLP.Chemscore.Hbond>
2.4646

> <Gold.PLP.Chemscore.CHOScore>
0.0000

> <Gold.PLP.Chemscore.Metal>
0.0000

> <Gold.Chemscore.Hbonds>
donor molecule, donor type, donor heavy atom, donor atom, acceptor molecule, acceptor atom, score
      P1  H  7989  7998       L1     6  0.79
      P1  H  7997  8009       L1    12  1.00
      P1  H  8011  8017       L1     5  0.70

> <Gold.PLP.Chemscore.Internal.Correction>
0.1186

> <Gold.Rescore>
     Score         DG    S(hbond)    S(metal)    S(lipo)     H(rot)  DE(clash)    DE(int)     intcor
     16.28     -16.76       1.91        0.00      79.64       1.72       0.10       0.38       ----

> <Gold.Chemscore.Fitness>
16.2847

> <Gold.Chemscore.DG>
-16.7635

> <Gold.Chemscore.ZeroCoef>
-5.4800

> <Gold.Chemscore.Hbond>
1.9063

> <Gold.Chemscore.Metal>
0.0000

> <Gold.Chemscore.Lipo>
79.6414

> <Gold.Chemscore.Internal_Hbond>
0.0000

> <Gold.Chemscore.DEClash>
0.0962

> <Gold.Chemscore.DEInternal>
0.3826

> <Gold.Chemscore.Rot>
1.7193

> <Gold.Chemscore.Internal.Correction>
   9.000000E+99

> <Gold.Chemscore.Hbonds>
donor molecule, donor type, donor heavy atom, donor atom, acceptor molecule, acceptor atom, score
      P1  H  7989  7998       L1     6  0.70
      P1  H  7997  8009       L1    12  0.43
      P1  H  8011  8017       L1     5  0.20

> <Gold.Chemscore.Hbond.Weighted>
-6.3669

> <Gold.Chemscore.Metal.Weighted>
-0.0000

> <Gold.Chemscore.Lipo.Weighted>
-9.3180

> <Gold.Chemscore.Internal_Hbond.Weighted>
0.0000

> <Gold.Chemscore.DEClash.Weighted>
0.0962

> <Gold.Chemscore.DEInternal.Weighted>
0.3826

> <Gold.Chemscore.Rot.Weighted>
4.4015

> <Gold.Chemscore.Internal.Correction.Weighted>
   9.000000E+99

> <Gold.Protein.RotatedTorsions>
[ 6907 6896 6895 6894 ] final -165.60 input  -60.11 | X-H torsion
[ 7974 7965 7964 7962 ] final   28.66 input  175.53 | X-H torsion
[ 8008 7997 7996 7995 ] final  172.13 input   59.86 | X-H torsion
[ 10167 10162 10161 10158 ] final -135.35 input  -65.29 | X-H torsion
[ 10718 10713 10712 10709 ] final  172.53 input   66.30 | X-H torsion
[ 10763 10752 10751 10750 ] final   63.69 input  -60.55 | X-H torsion
[ 11005 11000 10999 10996 ] final  -78.60 input  -57.11 | X-H torsion

> <Gold.Protein.ActiveResidues>
 VAL166  LYS551  ARG553  GLY616  TRP617  ASP618  TYR619  PRO620  LYS621  CYS622 
 ASP623  PHE694  ASN695  SER759  ASP760  ASP761  ALA762  ILE779  LEU786  VAL792 
 PHE793  MET794  SER795  GLU796  ALA797  LYS798  CYS799  TRP800  GLU811  SER814 

> <Gold.Protein.RotatedAtoms>
  151.4303  133.3672  159.2767 H   0  0  0  0  0  0  0  0  0  0  0  0  # atno 6907 bound_to 6896
  150.9230  134.8648  159.7512 H   0  0  0  0  0  0  0  0  0  0  0  0  # atno 6908 bound_to 6896
  152.4991  134.4242  159.9543 H   0  0  0  0  0  0  0  0  0  0  0  0  # atno 6909 bound_to 6896
  146.1716  139.7026  142.8963 H   0  0  0  0  0  0  0  0  0  0  0  0  # atno 7974 bound_to 7965
  156.1204  140.1494  156.9212 H   0  0  0  0  0  0  0  0  0  0  0  0  # atno 8008 bound_to 7997
  154.4832  140.0873  156.7467 H   0  0  0  0  0  0  0  0  0  0  0  0  # atno 8009 bound_to 7997
  155.4438  140.3432  155.4295 H   0  0  0  0  0  0  0  0  0  0  0  0  # atno 8010 bound_to 7997
  139.8787  143.6866  152.2630 H   0  0  0  0  0  0  0  0  0  0  0  0  # atno 10167 bound_to 10162
  156.9777  131.0109  151.2889 H   0  0  0  0  0  0  0  0  0  0  0  0  # atno 10718 bound_to 10713
  153.0027  135.5420  154.6392 H   0  0  0  0  0  0  0  0  0  0  0  0  # atno 10763 bound_to 10752
  154.5651  135.2837  155.0884 H   0  0  0  0  0  0  0  0  0  0  0  0  # atno 10764 bound_to 10752
  154.2071  135.6474  153.5157 H   0  0  0  0  0  0  0  0  0  0  0  0  # atno 10765 bound_to 10752
  141.1665  133.7070  156.7996 H   0  0  0  0  0  0  0  0  0  0  0  0  # atno 11005 bound_to 11000
  145.4324  141.0416  143.2903 LP  0  0  0  0  0  0  0  0  0  0  0  0  # atno 17320 bound_to 7965
  144.8172  139.5855  143.7003 LP  0  0  0  0  0  0  0  0  0  0  0  0  # atno 17321 bound_to 7965
  139.7216  144.7601  151.0947 LP  0  0  0  0  0  0  0  0  0  0  0  0  # atno 17342 bound_to 10162
  140.7748  143.5201  150.9547 LP  0  0  0  0  0  0  0  0  0  0  0  0  # atno 17343 bound_to 10162
  157.5548  130.8206  149.8191 LP  0  0  0  0  0  0  0  0  0  0  0  0  # atno 17370 bound_to 10713
  156.0257  130.3780  150.1830 LP  0  0  0  0  0  0  0  0  0  0  0  0  # atno 17371 bound_to 10713
  140.2266  134.8717  157.3433 LP  0  0  0  0  0  0  0  0  0  0  0  0  # atno 17394 bound_to 11000
  140.1934  134.4344  155.7703 LP  0  0  0  0  0  0  0  0  0  0  0  0  # atno 17395 bound_to 11000

$$$$
