AV-unprocessed.smi:1807|AV-procd|sdf|7301|dock4
  -GOLD-   22720 8553D 1   1.00000     0.00000
 Structure written by MMmdl.
 44 45  0  0  0  0  0  0  0  0  1 V2000
  151.7836  145.2922  159.8279 C   0  0  0  0  0  0  0  0  0  0  0  0
  152.0251  143.9432  160.5283 C   0  0  2  0  0  0  0  0  0  0  0  0
  152.5116  144.1622  161.9753 C   0  0  0  0  0  0  0  0  0  0  0  0
  152.7455  142.8324  162.7080 C   0  0  0  0  0  0  0  0  0  0  0  0
  153.7367  141.9468  161.9410 C   0  0  0  0  0  0  0  0  0  0  0  0
  153.2604  141.7116  160.5012 C   0  0  0  0  0  0  0  0  0  0  0  0
  153.0159  143.0395  159.7531 C   0  0  1  0  0  0  0  0  0  0  0  0
  152.5052  142.7501  158.4158 N   0  0  0  0  0  0  0  0  0  0  0  0
  151.2430  142.4034  158.1237 C   0  0  0  0  0  0  0  0  0  0  0  0
  150.3751  142.2131  158.9768 O   0  0  0  0  0  0  0  0  0  0  0  0
  150.9147  142.2557  156.6334 C   0  0  0  0  0  0  0  0  0  0  0  0
  151.1991  140.9140  156.1346 N   0  0  0  0  0  0  0  0  0  0  0  0
  150.2623  140.2641  155.3192 C   0  0  0  0  0  0  0  0  0  0  0  0
  150.4758  138.9510  154.8188 C   0  0  0  0  0  0  0  0  0  0  0  0
  149.3292  138.6920  154.1223 C   0  0  0  0  0  0  0  0  0  0  0  0
  148.5174  139.8048  154.2277 N   0  0  0  0  0  0  0  0  0  0  0  0
  147.1878  140.0096  153.6801 C   0  0  0  0  0  0  0  0  0  0  0  0
  146.7168  138.7981  152.8700 C   0  0  0  0  0  0  0  0  0  0  0  0
  147.3625  138.5319  151.7310 N   0  0  0  0  0  0  0  0  0  0  0  0
  145.7728  138.1161  153.2624 O   0  0  0  0  0  0  0  0  0  0  0  0
  149.1009  140.7845  154.9513 N   0  0  0  0  0  0  0  0  0  0  0  0
  152.7135  145.8496  159.7129 H   0  0  0  0  0  0  0  0  0  0  0  0
  151.0936  145.9125  160.4005 H   0  0  0  0  0  0  0  0  0  0  0  0
  151.3502  145.1601  158.8362 H   0  0  0  0  0  0  0  0  0  0  0  0
  151.0656  143.4259  160.5796 H   0  0  0  0  0  0  0  0  0  0  0  0
  153.4374  144.7394  161.9688 H   0  0  0  0  0  0  0  0  0  0  0  0
  151.7834  144.7567  162.5281 H   0  0  0  0  0  0  0  0  0  0  0  0
  153.1188  143.0224  163.7145 H   0  0  0  0  0  0  0  0  0  0  0  0
  151.7972  142.3058  162.8230 H   0  0  0  0  0  0  0  0  0  0  0  0
  154.7200  142.4190  161.9296 H   0  0  0  0  0  0  0  0  0  0  0  0
  153.8564  140.9916  162.4529 H   0  0  0  0  0  0  0  0  0  0  0  0
  153.9947  141.1057  159.9691 H   0  0  0  0  0  0  0  0  0  0  0  0
  152.3387  141.1287  160.5202 H   0  0  0  0  0  0  0  0  0  0  0  0
  153.9650  143.5727  159.6679 H   0  0  0  0  0  0  0  0  0  0  0  0
  153.1485  142.8753  157.6478 H   0  0  0  0  0  0  0  0  0  0  0  0
  149.8722  142.5121  156.4370 H   0  0  0  0  0  0  0  0  0  0  0  0
  151.5215  142.9675  156.0736 H   0  0  0  0  0  0  0  0  0  0  0  0
  151.9081  140.3675  156.6016 H   0  0  0  0  0  0  0  0  0  0  0  0
  151.3252  138.2986  154.9580 H   0  0  0  0  0  0  0  0  0  0  0  0
  149.0225  137.8146  153.5725 H   0  0  0  0  0  0  0  0  0  0  0  0
  146.4935  140.2070  154.4984 H   0  0  0  0  0  0  0  0  0  0  0  0
  147.1965  140.8965  153.0453 H   0  0  0  0  0  0  0  0  0  0  0  0
  147.0820  137.7466  151.1622 H   0  0  0  0  0  0  0  0  0  0  0  0
  148.1275  139.1233  151.4401 H   0  0  0  0  0  0  0  0  0  0  0  0
  1  2  1  0  0  0  0
  1 22  1  0  0  0  0
  1 23  1  0  0  0  0
  1 24  1  0  0  0  0
  2  7  1  0  0  0  0
  2  3  1  0  0  0  0
  2 25  1  0  0  0  0
  3  4  1  0  0  0  0
  3 26  1  0  0  0  0
  3 27  1  0  0  0  0
  4  5  1  0  0  0  0
  4 28  1  0  0  0  0
  4 29  1  0  0  0  0
  5  6  1  0  0  0  0
  5 30  1  0  0  0  0
  5 31  1  0  0  0  0
  6  7  1  0  0  0  0
  6 32  1  0  0  0  0
  6 33  1  0  0  0  0
  7  8  1  0  0  0  0
  7 34  1  0  0  0  0
  8  9  1  0  0  0  0
  8 35  1  0  0  0  0
  9 10  2  0  0  0  0
  9 11  1  0  0  0  0
 11 12  1  0  0  0  0
 11 36  1  0  0  0  0
 11 37  1  0  0  0  0
 12 13  1  0  0  0  0
 12 38  1  0  0  0  0
 13 21  2  0  0  0  0
 13 14  1  0  0  0  0
 14 15  2  0  0  0  0
 14 39  1  0  0  0  0
 15 16  1  0  0  0  0
 15 40  1  0  0  0  0
 16 17  1  0  0  0  0
 16 21  1  0  0  0  0
 17 18  1  0  0  0  0
 17 41  1  0  0  0  0
 17 42  1  0  0  0  0
 18 19  1  0  0  0  0
 18 20  2  0  0  0  0
 19 43  1  0  0  0  0
 19 44  1  0  0  0  0
M  END
> <s_m_source_file>
AV-unprocessed.smi

> <i_m_source_file_index>
1807

> <i_lp_mmshare_version>
43012

> <i_f3d_flags>
0

> <s_epik_input>
W0NIM11bQ0BASF0xW0NIMl1bQ0gyXVtDSDJdW0NIMl1bQ0BIXTFbTkhdQyg9TylbQ0gyXVtOSF1jMltjSF1bY0hdbihuMilbQ0gyXUMoPU8pW05IMl0=

> <s_epik_cmdline>
J2VwaWtfcHl0aG9uJywgJy1waCcsICc3LjAnLCAnLXRuJywgJzgnLCAnLW1hJywgJzIwMCcsICctbWV0YWxfYmluZGluZycsICctaW1hZScsICc8aW5maWxlLm1hZT4nLCAnLW9tYWUnLCAnPG91dGZpbGUubWFlPic=

> <r_lp_tautomer_probability>
1

> <r_epik_Ionization_Penalty>
0.000167642

> <r_epik_Ionization_Penalty_Charging>
0

> <r_epik_Ionization_Penalty_Neutral>
0.000167642

> <r_epik_State_Penalty>
-0

> <r_epik_Charging_Adjusted_Penalty>
0

> <i_epik_Tot_Q>
0

> <i_epik_Tot_abs_Q>
0

> <r_epik_Metal_State_Penalty>
-0

> <b_epik_Metal_Only>
0

> <s_lp_Force_Field>
OPLS_2005

> <r_lp_Energy>
5.76299

> <b_lp_Chiralities_Consistent>
1

> <s_lp_Variant>
AV-unprocessed.smi:1807-1

> <Gold.Version>
5.8.1

> <Gold.Id.Protein>
6NUR|6NUR_protein|mol2

> <Gold.PLP.Fitness>
53.0485

> <Gold.PLP.PLP>
-48.4671

> <Gold.PLP.part.hbond>
-2.8770

> <Gold.PLP.part.metal>
0.0000

> <Gold.PLP.part.buried>
-4.3056

> <Gold.PLP.part.nonpolar>
-42.2178

> <Gold.PLP.part.repulsive>
1.4219

> <Gold.PLP.ligand.clash>
0.0000

> <Gold.PLP.ligand.torsion>
0.7317

> <Gold.PLP.Chemscore.Hbond>
1.0000

> <Gold.PLP.Chemscore.CHOScore>
1.0000

> <Gold.PLP.Chemscore.Metal>
0.0000

> <Gold.Chemscore.Hbonds>
donor molecule, donor type, donor heavy atom, donor atom, acceptor molecule, acceptor atom, score
      L1  H    19    44       P1  7957  1.00
      L1  C    15    40       P1  7948  1.00

> <Gold.PLP.Chemscore.Internal.Correction>
0.0448

> <Gold.Rescore>
     Score         DG    S(hbond)    S(metal)    S(lipo)     H(rot)  DE(clash)    DE(int)     intcor
     12.61     -14.67       0.94        0.00     109.45       2.64       0.29       1.77       ----

> <Gold.Chemscore.Fitness>
12.6099

> <Gold.Chemscore.DG>
-14.6676

> <Gold.Chemscore.ZeroCoef>
-5.4800

> <Gold.Chemscore.Hbond>
0.9378

> <Gold.Chemscore.Metal>
0.0000

> <Gold.Chemscore.Lipo>
109.4490

> <Gold.Chemscore.Internal_Hbond>
0.0000

> <Gold.Chemscore.DEClash>
0.2865

> <Gold.Chemscore.DEInternal>
1.7712

> <Gold.Chemscore.Rot>
2.6369

> <Gold.Chemscore.Internal.Correction>
   9.000000E+99

> <Gold.Chemscore.Hbonds>
donor molecule, donor type, donor heavy atom, donor atom, acceptor molecule, acceptor atom, score
      L1  H    19    44       P1  7957  0.78

> <Gold.Chemscore.Hbond.Weighted>
-3.1324

> <Gold.Chemscore.Metal.Weighted>
-0.0000

> <Gold.Chemscore.Lipo.Weighted>
-12.8055

> <Gold.Chemscore.Internal_Hbond.Weighted>
0.0000

> <Gold.Chemscore.DEClash.Weighted>
0.2865

> <Gold.Chemscore.DEInternal.Weighted>
1.7712

> <Gold.Chemscore.Rot.Weighted>
6.7504

> <Gold.Chemscore.Internal.Correction.Weighted>
   9.000000E+99

> <Gold.Protein.RotatedTorsions>
[ 6907 6896 6895 6894 ] final -150.81 input  -60.11 | X-H torsion
[ 7974 7965 7964 7962 ] final -120.50 input  175.53 | X-H torsion
[ 8008 7997 7996 7995 ] final  112.33 input   59.86 | X-H torsion
[ 10167 10162 10161 10158 ] final  -26.93 input  -65.29 | X-H torsion
[ 10718 10713 10712 10709 ] final  -91.79 input   66.30 | X-H torsion
[ 10763 10752 10751 10750 ] final  133.86 input  -60.55 | X-H torsion
[ 11005 11000 10999 10996 ] final  124.86 input  -57.11 | X-H torsion

> <Gold.Protein.ActiveResidues>
 VAL166  LYS551  ARG553  GLY616  TRP617  ASP618  TYR619  PRO620  LYS621  CYS622 
 ASP623  PHE694  ASN695  SER759  ASP760  ASP761  ALA762  ILE779  LEU786  VAL792 
 PHE793  MET794  SER795  GLU796  ALA797  LYS798  CYS799  TRP800  GLU811  SER814 

> <Gold.Protein.RotatedAtoms>
  151.2040  133.4594  159.2596 H   0  0  0  0  0  0  0  0  0  0  0  0  # atno 6907 bound_to 6896
  151.1042  134.9989  159.8473 H   0  0  0  0  0  0  0  0  0  0  0  0  # atno 6908 bound_to 6896
  152.5445  134.1964  159.8747 H   0  0  0  0  0  0  0  0  0  0  0  0  # atno 6909 bound_to 6896
  145.0506  140.8216  143.4211 H   0  0  0  0  0  0  0  0  0  0  0  0  # atno 7974 bound_to 7965
  156.2185  140.3002  155.9895 H   0  0  0  0  0  0  0  0  0  0  0  0  # atno 8008 bound_to 7997
  155.2544  140.0427  157.3007 H   0  0  0  0  0  0  0  0  0  0  0  0  # atno 8009 bound_to 7997
  154.5804  140.2373  155.8070 H   0  0  0  0  0  0  0  0  0  0  0  0  # atno 8010 bound_to 7997
  140.7280  143.4136  151.1064 H   0  0  0  0  0  0  0  0  0  0  0  0  # atno 10167 bound_to 10162
  155.9996  130.4961  150.5527 H   0  0  0  0  0  0  0  0  0  0  0  0  # atno 10718 bound_to 10713
  153.8141  135.3125  155.3404 H   0  0  0  0  0  0  0  0  0  0  0  0  # atno 10763 bound_to 10752
  154.8039  135.4709  154.0347 H   0  0  0  0  0  0  0  0  0  0  0  0  # atno 10764 bound_to 10752
  153.1735  135.6882  153.8664 H   0  0  0  0  0  0  0  0  0  0  0  0  # atno 10765 bound_to 10752
  139.9379  134.9638  156.8472 H   0  0  0  0  0  0  0  0  0  0  0  0  # atno 11005 bound_to 11000
  145.1532  139.2502  143.5430 LP  0  0  0  0  0  0  0  0  0  0  0  0  # atno 17320 bound_to 7965
  146.3517  140.1239  142.8599 LP  0  0  0  0  0  0  0  0  0  0  0  0  # atno 17321 bound_to 7965
  139.7773  143.8407  152.3131 LP  0  0  0  0  0  0  0  0  0  0  0  0  # atno 17342 bound_to 10162
  139.8346  144.7238  150.9408 LP  0  0  0  0  0  0  0  0  0  0  0  0  # atno 17343 bound_to 10162
  157.3448  131.0723  151.1760 LP  0  0  0  0  0  0  0  0  0  0  0  0  # atno 17370 bound_to 10713
  157.2596  130.6653  149.5968 LP  0  0  0  0  0  0  0  0  0  0  0  0  # atno 17371 bound_to 10713
  140.6029  134.0155  155.7544 LP  0  0  0  0  0  0  0  0  0  0  0  0  # atno 17394 bound_to 11000
  141.1000  133.9783  157.3094 LP  0  0  0  0  0  0  0  0  0  0  0  0  # atno 17395 bound_to 11000

$$$$
