AV-unprocessed.smi:38|AV-procd|sdf|350|dock3
  -GOLD-   2262016193D 1   1.00000     0.00000
 Structure written by MMmdl.
 27 28  0  0  0  0  0  0  0  0  2 V2000
  153.0267  136.4466  158.7553 O   0  0  0  0  0  0  0  0  0  0  0  0
  152.6622  137.3173  157.9667 C   0  0  0  0  0  0  0  0  0  0  0  0
  153.1106  137.3830  156.6796 N   0  5  0  0  0  0  0  0  0  0  0  0
  152.7040  138.3497  155.8052 C   0  0  0  0  0  0  0  0  0  0  0  0
  153.1184  138.4267  154.6484 O   0  0  0  0  0  0  0  0  0  0  0  0
  151.7655  139.3239  156.2442 N   0  0  0  0  0  0  0  0  0  0  0  0
  151.3135  140.4018  155.2807 C   0  0  2  0  0  0  0  0  0  0  0  0
  150.5254  141.4833  156.0241 C   0  0  0  0  0  0  0  0  0  0  0  0
  149.0974  141.0347  155.7950 C   0  0  1  0  0  0  0  0  0  0  0  0
  148.2036  142.1240  155.8988 O   0  0  0  0  0  0  0  0  0  0  0  0
  149.1726  140.4692  154.3747 C   0  0  2  0  0  0  0  0  0  0  0  0
  148.0672  139.4490  154.0589 C   0  0  0  0  0  0  0  0  0  0  0  0
  148.2332  138.9385  152.7531 O   0  0  0  0  0  0  0  0  0  0  0  0
  150.4555  139.8440  154.3252 O   0  0  0  0  0  0  0  0  0  0  0  0
  151.3025  139.2875  157.5491 C   0  0  0  0  0  0  0  0  0  0  0  0
  151.7111  138.3341  158.4108 C   0  0  0  0  0  0  0  0  0  0  0  0
  151.2446  138.3271  159.6713 F   0  0  0  0  0  0  0  0  0  0  0  0
  152.2168  140.7685  154.7908 H   0  0  0  0  0  0  0  0  0  0  0  0
  148.8280  140.2561  156.5101 H   0  0  0  0  0  0  0  0  0  0  0  0
  149.1621  141.2934  153.6584 H   0  0  0  0  0  0  0  0  0  0  0  0
  150.8055  141.5601  157.0757 H   0  0  0  0  0  0  0  0  0  0  0  0
  150.7196  142.4401  155.5368 H   0  0  0  0  0  0  0  0  0  0  0  0
  148.6812  142.9199  155.7221 H   0  0  0  0  0  0  0  0  0  0  0  0
  148.0516  138.6361  154.7846 H   0  0  0  0  0  0  0  0  0  0  0  0
  147.0910  139.9328  154.0967 H   0  0  0  0  0  0  0  0  0  0  0  0
  148.5364  138.0459  152.8162 H   0  0  0  0  0  0  0  0  0  0  0  0
  150.6051  140.0318  157.8992 H   0  0  0  0  0  0  0  0  0  0  0  0
  1  2  2  0  0  0  0
  2 16  1  0  0  0  0
  2  3  1  0  0  0  0
  3  4  1  0  0  0  0
  4  5  2  0  0  0  0
  4  6  1  0  0  0  0
  6  7  1  0  0  0  0
  6 15  1  0  0  0  0
  7 18  1  0  0  0  0
  7 14  1  0  0  0  0
  7  8  1  0  0  0  0
  8  9  1  0  0  0  0
  8 21  1  0  0  0  0
  8 22  1  0  0  0  0
  9 19  1  0  0  0  0
  9 10  1  0  0  0  0
  9 11  1  0  0  0  0
 10 23  1  0  0  0  0
 11 20  1  0  0  0  0
 11 12  1  0  0  0  0
 11 14  1  0  0  0  0
 12 13  1  0  0  0  0
 12 24  1  0  0  0  0
 12 25  1  0  0  0  0
 13 26  1  0  0  0  0
 15 16  2  0  0  0  0
 15 27  1  0  0  0  0
 16 17  1  0  0  0  0
M  CHG  1   3  -1
M  END
> <s_m_source_file>
AV-unprocessed.smi

> <i_m_source_file_index>
38

> <i_lp_mmshare_version>
43012

> <i_f3d_flags>
0

> <s_epik_input>
Tz1jMVtuSF1jKD1PKW4oW2NIXWMxRilbQ0BIXTJbQ0gyXVtDQEhdKFtPSF0pW0NASF0oTzIpW0NIMl1bT0hd

> <s_epik_cmdline>
J2VwaWtfcHl0aG9uJywgJy1waCcsICc3LjAnLCAnLXRuJywgJzgnLCAnLW1hJywgJzIwMCcsICctbWV0YWxfYmluZGluZycsICctaW1hZScsICc8aW5maWxlLm1hZT4nLCAnLW9tYWUnLCAnPG91dGZpbGUubWFlPic=

> <r_epik_Ionization_Penalty>
1.68146

> <r_epik_Ionization_Penalty_Charging>
3.4211e-08

> <r_epik_Ionization_Penalty_Neutral>
1.68146

> <r_epik_State_Penalty>
1.78593

> <r_epik_Charging_Adjusted_Penalty>
1.78593

> <i_epik_Tot_Q>
-1

> <i_epik_Tot_abs_Q>
1

> <r_epik_Metal_State_Penalty>
0.0113696

> <b_epik_Metal_Only>
0

> <s_epik_Chemistry_Notes>
This compound contains an acetal/aminal-like group ( X-CH(R)-Y where X, Y are N, S, or O) that may be acid/base labile, releasing an aldehyde.

> <s_lp_Force_Field>
OPLS_2005

> <r_lp_Energy>
36.3433

> <b_lp_Chiralities_Consistent>
1

> <s_lp_Variant>
AV-unprocessed.smi:38-16

> <Gold.Version>
5.8.1

> <Gold.Id.Protein>
6NUR|6NUR_protein|mol2

> <Gold.PLP.Fitness>
37.2457

> <Gold.PLP.PLP>
-26.0780

> <Gold.PLP.part.hbond>
-6.4104

> <Gold.PLP.part.metal>
0.0000

> <Gold.PLP.part.buried>
-2.0852

> <Gold.PLP.part.nonpolar>
-18.5154

> <Gold.PLP.part.repulsive>
0.1900

> <Gold.PLP.ligand.clash>
0.0000

> <Gold.PLP.ligand.torsion>
0.2354

> <Gold.PLP.Chemscore.Hbond>
3.8760

> <Gold.PLP.Chemscore.CHOScore>
0.0000

> <Gold.PLP.Chemscore.Metal>
0.0000

> <Gold.Chemscore.Hbonds>
donor molecule, donor type, donor heavy atom, donor atom, acceptor molecule, acceptor atom, score
      L1  H    10    23       P1  8028  1.00
      L1  H    13    26       P1  7948  0.87
      P1  H  6896  6908       L1     1  0.20
      P1  H 10752 10765       L1     3  0.02

> <Gold.PLP.Chemscore.Internal.Correction>
0.0104

> <Gold.Rescore>
     Score         DG    S(hbond)    S(metal)    S(lipo)     H(rot)  DE(clash)    DE(int)     intcor
      9.11     -10.69       2.61        0.00      32.98       2.88       0.47       1.11       ----

> <Gold.Chemscore.Fitness>
9.1134

> <Gold.Chemscore.DG>
-10.6868

> <Gold.Chemscore.ZeroCoef>
-5.4800

> <Gold.Chemscore.Hbond>
2.6123

> <Gold.Chemscore.Metal>
0.0000

> <Gold.Chemscore.Lipo>
32.9755

> <Gold.Chemscore.Internal_Hbond>
0.0000

> <Gold.Chemscore.DEClash>
0.4682

> <Gold.Chemscore.DEInternal>
1.1052

> <Gold.Chemscore.Rot>
2.8815

> <Gold.Chemscore.Internal.Correction>
   9.000000E+99

> <Gold.Chemscore.Hbonds>
donor molecule, donor type, donor heavy atom, donor atom, acceptor molecule, acceptor atom, score
      L1  H    10    23       P1  8028  0.97
      L1  H    13    26       P1  7948  0.80
      P1  H  6896  6908       L1     1  0.20
      P1  H 10752 10765       L1     3  0.03

> <Gold.Chemscore.Hbond.Weighted>
-8.7252

> <Gold.Chemscore.Metal.Weighted>
-0.0000

> <Gold.Chemscore.Lipo.Weighted>
-3.8581

> <Gold.Chemscore.Internal_Hbond.Weighted>
0.0000

> <Gold.Chemscore.DEClash.Weighted>
0.4682

> <Gold.Chemscore.DEInternal.Weighted>
1.1052

> <Gold.Chemscore.Rot.Weighted>
7.3765

> <Gold.Chemscore.Internal.Correction.Weighted>
   9.000000E+99

> <Gold.Protein.RotatedTorsions>
[ 6907 6896 6895 6894 ] final  -53.57 input  -60.11 | X-H torsion
[ 7974 7965 7964 7962 ] final -156.05 input  175.53 | X-H torsion
[ 8008 7997 7996 7995 ] final   86.42 input   59.86 | X-H torsion
[ 10167 10162 10161 10158 ] final    5.44 input  -65.29 | X-H torsion
[ 10718 10713 10712 10709 ] final  168.88 input   66.30 | X-H torsion
[ 10763 10752 10751 10750 ] final -127.47 input  -60.55 | X-H torsion
[ 11005 11000 10999 10996 ] final  164.06 input  -57.11 | X-H torsion

> <Gold.Protein.ActiveResidues>
 VAL166  LYS551  ARG553  GLY616  TRP617  ASP618  TYR619  PRO620  LYS621  CYS622 
 ASP623  PHE694  ASN695  SER759  ASP760  ASP761  ALA762  ILE779  LEU786  VAL792 
 PHE793  MET794  SER795  GLU796  ALA797  LYS798  CYS799  TRP800  GLU811  SER814 

> <Gold.Protein.RotatedAtoms>
  150.8415  134.7708  159.6935 H   0  0  0  0  0  0  0  0  0  0  0  0  # atno 6907 bound_to 6896
  152.4501  134.5409  159.9848 H   0  0  0  0  0  0  0  0  0  0  0  0  # atno 6908 bound_to 6896
  151.5548  133.3374  159.2995 H   0  0  0  0  0  0  0  0  0  0  0  0  # atno 6909 bound_to 6896
  144.7611  140.4163  143.5976 H   0  0  0  0  0  0  0  0  0  0  0  0  # atno 7974 bound_to 7965
  155.9626  140.3392  155.6504 H   0  0  0  0  0  0  0  0  0  0  0  0  # atno 8008 bound_to 7997
  155.6778  140.0734  157.2514 H   0  0  0  0  0  0  0  0  0  0  0  0  # atno 8009 bound_to 7997
  154.4147  140.1680  156.1937 H   0  0  0  0  0  0  0  0  0  0  0  0  # atno 8010 bound_to 7997
  140.6482  143.7611  150.7532 H   0  0  0  0  0  0  0  0  0  0  0  0  # atno 10167 bound_to 10162
  157.0307  131.0258  151.2745 H   0  0  0  0  0  0  0  0  0  0  0  0  # atno 10718 bound_to 10713
  154.8752  135.3961  154.3599 H   0  0  0  0  0  0  0  0  0  0  0  0  # atno 10763 bound_to 10752
  153.4373  135.7026  153.6197 H   0  0  0  0  0  0  0  0  0  0  0  0  # atno 10764 bound_to 10752
  153.4793  135.3773  155.2403 H   0  0  0  0  0  0  0  0  0  0  0  0  # atno 10765 bound_to 10752
  140.2421  134.8043  157.3420 H   0  0  0  0  0  0  0  0  0  0  0  0  # atno 11005 bound_to 11000
  145.6617  139.1582  143.2804 LP  0  0  0  0  0  0  0  0  0  0  0  0  # atno 17320 bound_to 7965
  146.1674  140.6697  142.9249 LP  0  0  0  0  0  0  0  0  0  0  0  0  # atno 17321 bound_to 7965
  140.1256  143.4572  152.2286 LP  0  0  0  0  0  0  0  0  0  0  0  0  # atno 17342 bound_to 10162
  139.5694  144.7454  151.3933 LP  0  0  0  0  0  0  0  0  0  0  0  0  # atno 17343 bound_to 10162
  157.5180  130.7980  149.7777 LP  0  0  0  0  0  0  0  0  0  0  0  0  # atno 17370 bound_to 10713
  156.0071  130.3850  150.2394 LP  0  0  0  0  0  0  0  0  0  0  0  0  # atno 17371 bound_to 10713
  140.1643  134.4689  155.7873 LP  0  0  0  0  0  0  0  0  0  0  0  0  # atno 17394 bound_to 11000
  141.2209  133.6914  156.7598 LP  0  0  0  0  0  0  0  0  0  0  0  0  # atno 17395 bound_to 11000

$$$$
