AV-unprocessed.smi:2614|AV-procd|sdf|10214|dock10
  -GOLD-   2272014223D 1   1.00000     0.00000
 Structure written by MMmdl.
 24 25  0  0  0  0  0  0  0  0  2 V2000
  154.6896  139.9876  160.4905 C   0  0  0  0  0  0  0  0  0  0  0  0
  153.8046  141.1843  160.4094 C   0  0  0  0  0  0  0  0  0  0  0  0
  153.5480  141.9929  161.4787 N   0  0  0  0  0  0  0  0  0  0  0  0
  152.7350  142.8788  160.9141 C   0  0  0  0  0  0  0  0  0  0  0  0
  152.1122  144.0314  161.6314 C   0  0  0  0  0  0  0  0  0  0  0  0
  152.5210  142.6356  159.6136 N   0  0  0  0  0  0  0  0  0  0  0  0
  151.7094  143.3330  158.6553 C   0  0  0  0  0  0  0  0  0  0  0  0
  151.8976  144.8222  158.3562 C   0  0  0  0  0  0  0  0  0  0  0  0
  150.4572  144.8987  158.1495 N   0  3  0  0  0  0  0  0  0  0  0  0
  150.2739  143.7263  158.9966 C   0  0  0  0  0  0  0  0  0  0  0  0
  153.2104  141.5228  159.2676 N   0  0  0  0  0  0  0  0  0  0  0  0
  155.1500  139.9136  161.4762 H   0  0  0  0  0  0  0  0  0  0  0  0
  155.4820  140.0514  159.7444 H   0  0  0  0  0  0  0  0  0  0  0  0
  154.1135  139.0800  160.3094 H   0  0  0  0  0  0  0  0  0  0  0  0
  152.4215  144.0418  162.6770 H   0  0  0  0  0  0  0  0  0  0  0  0
  151.0254  143.9554  161.5926 H   0  0  0  0  0  0  0  0  0  0  0  0
  152.4173  144.9709  161.1705 H   0  0  0  0  0  0  0  0  0  0  0  0
  151.7468  142.7491  157.7327 H   0  0  0  0  0  0  0  0  0  0  0  0
  152.2132  145.4173  159.2156 H   0  0  0  0  0  0  0  0  0  0  0  0
  152.4867  145.0418  157.4654 H   0  0  0  0  0  0  0  0  0  0  0  0
  150.0338  145.7404  158.5139 H   0  0  0  0  0  0  0  0  0  0  0  0
  149.5097  143.0348  158.6406 H   0  0  0  0  0  0  0  0  0  0  0  0
  150.1322  143.9932  160.0458 H   0  0  0  0  0  0  0  0  0  0  0  0
  150.2115  144.7047  157.1892 H   0  0  0  0  0  0  0  0  0  0  0  0
  1  2  1  0  0  0  0
  1 12  1  0  0  0  0
  1 13  1  0  0  0  0
  1 14  1  0  0  0  0
  2 11  2  0  0  0  0
  2  3  1  0  0  0  0
  3  4  2  0  0  0  0
  4  5  1  0  0  0  0
  4  6  1  0  0  0  0
  5 15  1  0  0  0  0
  5 16  1  0  0  0  0
  5 17  1  0  0  0  0
  6  7  1  0  0  0  0
  6 11  1  0  0  0  0
  7 10  1  0  0  0  0
  7  8  1  0  0  0  0
  7 18  1  0  0  0  0
  8  9  1  0  0  0  0
  8 19  1  0  0  0  0
  8 20  1  0  0  0  0
  9 10  1  0  0  0  0
  9 21  1  0  0  0  0
  9 24  1  0  0  0  0
 10 22  1  0  0  0  0
 10 23  1  0  0  0  0
M  CHG  1   9   1
M  END
> <s_m_source_file>
AV-unprocessed.smi

> <i_m_source_file_index>
2614

> <i_lp_mmshare_version>
43012

> <i_f3d_flags>
0

> <s_epik_input>
W0NIM11jMW5jKFtDSDNdKW4objEpW0NIXTJbQ0gyXVtOSF1bQ0gyXTI=

> <s_epik_cmdline>
J2VwaWtfcHl0aG9uJywgJy1waCcsICc3LjAnLCAnLXRuJywgJzgnLCAnLW1hJywgJzIwMCcsICctbWV0YWxfYmluZGluZycsICctaW1hZScsICc8aW5maWxlLm1hZT4nLCAnLW9tYWUnLCAnPG91dGZpbGUubWFlPic=

> <r_lp_tautomer_probability>
1

> <r_epik_Ionization_Penalty>
0.00796611

> <r_epik_Ionization_Penalty_Charging>
0.00792139

> <r_epik_Ionization_Penalty_Neutral>
4.47227e-05

> <r_epik_State_Penalty>
0.00594323

> <r_epik_Charging_Adjusted_Penalty>
0.0138646

> <i_epik_Tot_Q>
1

> <i_epik_Tot_abs_Q>
1

> <r_epik_Metal_State_Penalty>
-0

> <b_epik_Metal_Only>
0

> <s_lp_Force_Field>
OPLS_2005

> <r_lp_Energy>
14.7939

> <b_lp_Chiralities_Consistent>
1

> <s_lp_Variant>
AV-unprocessed.smi:2614-1

> <Gold.Version>
5.8.1

> <Gold.Id.Protein>
6NUR|6NUR_protein|mol2

> <Gold.PLP.Fitness>
35.8795

> <Gold.PLP.PLP>
-29.9206

> <Gold.PLP.part.hbond>
-2.0000

> <Gold.PLP.part.metal>
0.0000

> <Gold.PLP.part.buried>
-3.8181

> <Gold.PLP.part.nonpolar>
-24.1361

> <Gold.PLP.part.repulsive>
0.1812

> <Gold.PLP.ligand.clash>
0.0000

> <Gold.PLP.ligand.torsion>
0.1421

> <Gold.PLP.Chemscore.Hbond>
2.0000

> <Gold.PLP.Chemscore.CHOScore>
0.0000

> <Gold.PLP.Chemscore.Metal>
0.0000

> <Gold.Chemscore.Hbonds>
donor molecule, donor type, donor heavy atom, donor atom, acceptor molecule, acceptor atom, score
      L1  H     9    24       P1  8028  2.00

> <Gold.PLP.Chemscore.Internal.Correction>
0.2431

> <Gold.Rescore>
     Score         DG    S(hbond)    S(metal)    S(lipo)     H(rot)  DE(clash)    DE(int)     intcor
     11.34     -11.56       0.75        0.00      52.49       1.00       0.07       0.16       ----

> <Gold.Chemscore.Fitness>
11.3353

> <Gold.Chemscore.DG>
-11.5604

> <Gold.Chemscore.ZeroCoef>
-5.4800

> <Gold.Chemscore.Hbond>
0.7483

> <Gold.Chemscore.Metal>
0.0000

> <Gold.Chemscore.Lipo>
52.4866

> <Gold.Chemscore.Internal_Hbond>
0.0000

> <Gold.Chemscore.DEClash>
0.0650

> <Gold.Chemscore.DEInternal>
0.1600

> <Gold.Chemscore.Rot>
1.0000

> <Gold.Chemscore.Internal.Correction>
   9.000000E+99

> <Gold.Chemscore.Hbonds>
donor molecule, donor type, donor heavy atom, donor atom, acceptor molecule, acceptor atom, score
      L1  H     9    24       P1  8028  0.32

> <Gold.Chemscore.Hbond.Weighted>
-2.4994

> <Gold.Chemscore.Metal.Weighted>
-0.0000

> <Gold.Chemscore.Lipo.Weighted>
-6.1409

> <Gold.Chemscore.Internal_Hbond.Weighted>
0.0000

> <Gold.Chemscore.DEClash.Weighted>
0.0650

> <Gold.Chemscore.DEInternal.Weighted>
0.1600

> <Gold.Chemscore.Rot.Weighted>
2.5600

> <Gold.Chemscore.Internal.Correction.Weighted>
   9.000000E+99

> <Gold.Protein.RotatedTorsions>
[ 6907 6896 6895 6894 ] final   99.36 input  -60.11 | X-H torsion
[ 7974 7965 7964 7962 ] final  -71.40 input  175.53 | X-H torsion
[ 8008 7997 7996 7995 ] final  -84.56 input   59.86 | X-H torsion
[ 10167 10162 10161 10158 ] final -145.75 input  -65.29 | X-H torsion
[ 10718 10713 10712 10709 ] final -101.60 input   66.30 | X-H torsion
[ 10763 10752 10751 10750 ] final   59.46 input  -60.55 | X-H torsion
[ 11005 11000 10999 10996 ] final  -62.19 input  -57.11 | X-H torsion

> <Gold.Protein.ActiveResidues>
 VAL166  LYS551  ARG553  GLY616  TRP617  ASP618  TYR619  PRO620  LYS621  CYS622 
 ASP623  PHE694  ASN695  SER759  ASP760  ASP761  ALA762  ILE779  LEU786  VAL792 
 PHE793  MET794  SER795  GLU796  ALA797  LYS798  CYS799  TRP800  GLU811  SER814 

> <Gold.Protein.RotatedAtoms>
  152.5393  134.0441  159.8080 H   0  0  0  0  0  0  0  0  0  0  0  0  # atno 6907 bound_to 6896
  151.0592  133.5551  159.2643 H   0  0  0  0  0  0  0  0  0  0  0  0  # atno 6908 bound_to 6896
  151.2456  135.0612  159.9096 H   0  0  0  0  0  0  0  0  0  0  0  0  # atno 6909 bound_to 6896
  145.6786  140.9196  143.0844 H   0  0  0  0  0  0  0  0  0  0  0  0  # atno 7974 bound_to 7965
  154.6312  140.0603  156.9734 H   0  0  0  0  0  0  0  0  0  0  0  0  # atno 8008 bound_to 7997
  155.1663  140.3287  155.4383 H   0  0  0  0  0  0  0  0  0  0  0  0  # atno 8009 bound_to 7997
  156.2484  140.1922  156.6767 H   0  0  0  0  0  0  0  0  0  0  0  0  # atno 8010 bound_to 7997
  139.7777  143.8146  152.2634 H   0  0  0  0  0  0  0  0  0  0  0  0  # atno 10167 bound_to 10162
  156.0200  130.5381  150.6987 H   0  0  0  0  0  0  0  0  0  0  0  0  # atno 10718 bound_to 10713
  152.9895  135.5571  154.5717 H   0  0  0  0  0  0  0  0  0  0  0  0  # atno 10763 bound_to 10752
  154.5116  135.2802  155.1340 H   0  0  0  0  0  0  0  0  0  0  0  0  # atno 10764 bound_to 10752
  154.2729  135.6359  153.5370 H   0  0  0  0  0  0  0  0  0  0  0  0  # atno 10765 bound_to 10752
  141.1351  133.6637  156.5490 H   0  0  0  0  0  0  0  0  0  0  0  0  # atno 11005 bound_to 11000
  144.7033  139.8667  143.7437 LP  0  0  0  0  0  0  0  0  0  0  0  0  # atno 17320 bound_to 7965
  146.0984  139.3977  143.0362 LP  0  0  0  0  0  0  0  0  0  0  0  0  # atno 17321 bound_to 7965
  139.8199  144.7300  150.9586 LP  0  0  0  0  0  0  0  0  0  0  0  0  # atno 17342 bound_to 10162
  140.7817  143.4169  151.0903 LP  0  0  0  0  0  0  0  0  0  0  0  0  # atno 17343 bound_to 10162
  157.4652  131.0887  151.0703 LP  0  0  0  0  0  0  0  0  0  0  0  0  # atno 17370 bound_to 10713
  157.1179  130.6049  149.5498 LP  0  0  0  0  0  0  0  0  0  0  0  0  # atno 17371 bound_to 10713
  140.4079  134.7298  157.4818 LP  0  0  0  0  0  0  0  0  0  0  0  0  # atno 17394 bound_to 11000
  140.0448  134.6215  155.8934 LP  0  0  0  0  0  0  0  0  0  0  0  0  # atno 17395 bound_to 11000

$$$$
