AV-unprocessed.smi:98|AV-procd|sdf|864|dock6
  -GOLD-   2262017313D 1   1.00000     0.00000
 Structure written by MMmdl.
 56 59  0  0  0  0  0  0  0  0  1 V2000
  149.4950  138.7820  156.7408 O   0  0  0  0  0  0  0  0  0  0  0  0
  149.8425  139.4269  155.7506 C   0  0  0  0  0  0  0  0  0  0  0  0
  151.0589  140.3634  155.8219 C   0  0  0  0  0  0  0  0  0  0  0  0
  151.5946  140.5197  157.1921 N   0  0  0  0  0  0  0  0  0  0  0  0
  152.2042  139.3978  157.8067 C   0  0  0  0  0  0  0  0  0  0  0  0
  152.2975  138.3195  157.2180 O   0  0  0  0  0  0  0  0  0  0  0  0
  152.7019  139.6139  159.1602 C   0  0  0  0  0  0  0  0  0  0  0  0
  153.2666  138.5966  159.8325 F   0  0  0  0  0  0  0  0  0  0  0  0
  152.5998  140.8214  159.7523 C   0  0  0  0  0  0  0  0  0  0  0  0
  152.0407  141.9183  159.1272 N   0  0  0  0  0  0  0  0  0  0  0  0
  151.9420  143.2255  159.8789 C   0  0  1  0  0  0  0  0  0  0  0  0
  152.4812  144.4329  159.0888 C   0  0  0  0  0  0  0  0  0  0  0  0
  151.2811  145.3638  159.0307 C   0  0  0  0  0  0  0  0  0  0  0  0
  150.4180  144.8793  160.1907 C   0  0  0  0  0  0  0  0  0  0  0  0
  150.6008  143.4723  160.1691 O   0  0  0  0  0  0  0  0  0  0  0  0
  151.4970  141.7806  157.8289 C   0  0  0  0  0  0  0  0  0  0  0  0
  150.9545  142.7317  157.2640 O   0  0  0  0  0  0  0  0  0  0  0  0
  149.2188  139.3824  154.5594 N   0  0  0  0  0  0  0  0  0  0  0  0
  148.0859  138.6086  154.1934 C   0  0  0  0  0  0  0  0  0  0  0  0
  147.8538  137.4137  154.9073 C   0  0  0  0  0  0  0  0  0  0  0  0
  146.7359  136.6102  154.6111 C   0  0  0  0  0  0  0  0  0  0  0  0
  145.8366  137.0121  153.6042 C   0  0  0  0  0  0  0  0  0  0  0  0
  144.4090  135.9995  153.2269 S   0  0  0  0  0  0  0  0  0  0  0  0
  143.9029  135.4163  154.4796 O   0  0  0  0  0  0  0  0  0  0  0  0
  143.5093  136.7705  152.3545 O   0  0  0  0  0  0  0  0  0  0  0  0
  145.0988  134.7187  152.2835 N   0  0  0  0  0  0  0  0  0  0  0  0
  144.7312  134.6169  150.8611 C   0  0  0  0  0  0  0  0  0  0  0  0
  145.1365  133.2518  150.2829 C   0  0  0  0  0  0  0  0  0  0  0  0
  146.5131  133.0064  150.5283 O   0  0  0  0  0  0  0  0  0  0  0  0
  146.7871  132.9372  151.9194 C   0  0  0  0  0  0  0  0  0  0  0  0
  146.4719  134.2841  152.5901 C   0  0  0  0  0  0  0  0  0  0  0  0
  146.0457  138.2126  152.8979 C   0  0  0  0  0  0  0  0  0  0  0  0
  147.1673  139.0113  153.1934 C   0  0  0  0  0  0  0  0  0  0  0  0
  151.8181  139.9832  155.1369 H   0  0  0  0  0  0  0  0  0  0  0  0
  150.7939  141.3361  155.4032 H   0  0  0  0  0  0  0  0  0  0  0  0
  152.9801  140.9274  160.7580 H   0  0  0  0  0  0  0  0  0  0  0  0
  152.4878  143.0787  160.8122 H   0  0  0  0  0  0  0  0  0  0  0  0
  153.2994  144.8805  159.6539 H   0  0  0  0  0  0  0  0  0  0  0  0
  152.8543  144.1565  158.1021 H   0  0  0  0  0  0  0  0  0  0  0  0
  151.5539  146.4157  159.1161 H   0  0  0  0  0  0  0  0  0  0  0  0
  150.7468  145.2303  158.0896 H   0  0  0  0  0  0  0  0  0  0  0  0
  150.7787  145.2803  161.1393 H   0  0  0  0  0  0  0  0  0  0  0  0
  149.3681  145.1505  160.0775 H   0  0  0  0  0  0  0  0  0  0  0  0
  149.5427  140.0393  153.8641 H   0  0  0  0  0  0  0  0  0  0  0  0
  148.5396  137.1035  155.6824 H   0  0  0  0  0  0  0  0  0  0  0  0
  146.5756  135.6921  155.1568 H   0  0  0  0  0  0  0  0  0  0  0  0
  143.6577  134.7638  150.7424 H   0  0  0  0  0  0  0  0  0  0  0  0
  145.2284  135.4157  150.3099 H   0  0  0  0  0  0  0  0  0  0  0  0
  144.5295  132.4533  150.7130 H   0  0  0  0  0  0  0  0  0  0  0  0
  144.9617  133.2361  149.2071 H   0  0  0  0  0  0  0  0  0  0  0  0
  146.2084  132.1325  152.3760 H   0  0  0  0  0  0  0  0  0  0  0  0
  147.8388  132.6873  152.0600 H   0  0  0  0  0  0  0  0  0  0  0  0
  147.1687  135.0472  152.2416 H   0  0  0  0  0  0  0  0  0  0  0  0
  146.6034  134.1976  153.6686 H   0  0  0  0  0  0  0  0  0  0  0  0
  145.3505  138.5247  152.1325 H   0  0  0  0  0  0  0  0  0  0  0  0
  147.2985  139.9371  152.6538 H   0  0  0  0  0  0  0  0  0  0  0  0
  1  2  2  0  0  0  0
  2  3  1  0  0  0  0
  2 18  1  0  0  0  0
  3  4  1  0  0  0  0
  3 34  1  0  0  0  0
  3 35  1  0  0  0  0
  4 16  1  0  0  0  0
  4  5  1  0  0  0  0
  5  6  2  0  0  0  0
  5  7  1  0  0  0  0
  7  8  1  0  0  0  0
  7  9  2  0  0  0  0
  9 10  1  0  0  0  0
  9 36  1  0  0  0  0
 10 11  1  0  0  0  0
 10 16  1  0  0  0  0
 11 15  1  0  0  0  0
 11 12  1  0  0  0  0
 11 37  1  0  0  0  0
 12 13  1  0  0  0  0
 12 38  1  0  0  0  0
 12 39  1  0  0  0  0
 13 14  1  0  0  0  0
 13 40  1  0  0  0  0
 13 41  1  0  0  0  0
 14 15  1  0  0  0  0
 14 42  1  0  0  0  0
 14 43  1  0  0  0  0
 16 17  2  0  0  0  0
 18 19  1  0  0  0  0
 18 44  1  0  0  0  0
 19 33  1  0  0  0  0
 19 20  2  0  0  0  0
 20 21  1  0  0  0  0
 20 45  1  0  0  0  0
 21 22  2  0  0  0  0
 21 46  1  0  0  0  0
 22 23  1  0  0  0  0
 22 32  1  0  0  0  0
 23 24  2  0  0  0  0
 23 25  2  0  0  0  0
 23 26  1  0  0  0  0
 26 31  1  0  0  0  0
 26 27  1  0  0  0  0
 27 28  1  0  0  0  0
 27 47  1  0  0  0  0
 27 48  1  0  0  0  0
 28 29  1  0  0  0  0
 28 49  1  0  0  0  0
 28 50  1  0  0  0  0
 29 30  1  0  0  0  0
 30 31  1  0  0  0  0
 30 51  1  0  0  0  0
 30 52  1  0  0  0  0
 31 53  1  0  0  0  0
 31 54  1  0  0  0  0
 32 33  2  0  0  0  0
 32 55  1  0  0  0  0
 33 56  1  0  0  0  0
M  END
> <s_m_source_file>
AV-unprocessed.smi

> <i_m_source_file_index>
98

> <i_lp_mmshare_version>
43012

> <i_f3d_flags>
0

> <s_epik_input>
TzFbQ0gyXVtDSDJdW0NIMl1bQ0BIXTFuKGMyPU8pW2NIXWMoRiljKD1PKW4yW0NIMl1DKD1PKVtOSF1jM1tjSF1bY0hdYyhbY0hdW2NIXTMpUyg9TykoPU8pTjRbQ0gyXVtDSDJdT1tDSDJdW0NIMl00

> <s_epik_cmdline>
J2VwaWtfcHl0aG9uJywgJy1waCcsICc3LjAnLCAnLXRuJywgJzgnLCAnLW1hJywgJzIwMCcsICctbWV0YWxfYmluZGluZycsICctaW1hZScsICc8aW5maWxlLm1hZT4nLCAnLW9tYWUnLCAnPG91dGZpbGUubWFlPic=

> <r_lp_tautomer_probability>
1

> <r_epik_Ionization_Penalty>
1.9271e-06

> <r_epik_Ionization_Penalty_Charging>
3.88729e-08

> <r_epik_Ionization_Penalty_Neutral>
1.88823e-06

> <r_epik_State_Penalty>
-0

> <r_epik_Charging_Adjusted_Penalty>
3.88729e-08

> <i_epik_Tot_Q>
0

> <i_epik_Tot_abs_Q>
0

> <r_epik_Metal_State_Penalty>
-0

> <b_epik_Metal_Only>
0

> <s_epik_Chemistry_Notes>
This compound contains an acetal/aminal-like group ( X-CH(R)-Y where X, Y are N, S, or O) that may be acid/base labile, releasing an aldehyde.

> <s_lp_Force_Field>
OPLS_2005

> <r_lp_Energy>
28.5933

> <b_lp_Chiralities_Consistent>
1

> <s_lp_Variant>
AV-unprocessed.smi:98-2

> <Gold.Version>
5.8.1

> <Gold.Id.Protein>
6NUR|6NUR_protein|mol2

> <Gold.PLP.Fitness>
48.9547

> <Gold.PLP.PLP>
-49.8374

> <Gold.PLP.part.hbond>
-1.0000

> <Gold.PLP.part.metal>
0.0000

> <Gold.PLP.part.buried>
-7.5805

> <Gold.PLP.part.nonpolar>
-41.8238

> <Gold.PLP.part.repulsive>
1.4807

> <Gold.PLP.ligand.clash>
0.0000

> <Gold.PLP.ligand.torsion>
2.5249

> <Gold.PLP.Chemscore.Hbond>
0.0000

> <Gold.PLP.Chemscore.CHOScore>
0.0000

> <Gold.PLP.Chemscore.Metal>
0.0000

> <Gold.PLP.Chemscore.Internal.Correction>
4.1672

> <Gold.Rescore>
     Score         DG    S(hbond)    S(metal)    S(lipo)     H(rot)  DE(clash)    DE(int)     intcor
      7.11     -12.67       0.00        0.00      98.05       1.67       0.09       5.47       ----

> <Gold.Chemscore.Fitness>
7.1133

> <Gold.Chemscore.DG>
-12.6721

> <Gold.Chemscore.ZeroCoef>
-5.4800

> <Gold.Chemscore.Hbond>
0.0020

> <Gold.Chemscore.Metal>
0.0000

> <Gold.Chemscore.Lipo>
98.0511

> <Gold.Chemscore.Internal_Hbond>
0.0000

> <Gold.Chemscore.DEClash>
0.0939

> <Gold.Chemscore.DEInternal>
5.4650

> <Gold.Chemscore.Rot>
1.6744

> <Gold.Chemscore.Internal.Correction>
   9.000000E+99

> <Gold.Chemscore.Hbond.Weighted>
-0.0066

> <Gold.Chemscore.Metal.Weighted>
-0.0000

> <Gold.Chemscore.Lipo.Weighted>
-11.4720

> <Gold.Chemscore.Internal_Hbond.Weighted>
0.0000

> <Gold.Chemscore.DEClash.Weighted>
0.0939

> <Gold.Chemscore.DEInternal.Weighted>
5.4650

> <Gold.Chemscore.Rot.Weighted>
4.2865

> <Gold.Chemscore.Internal.Correction.Weighted>
   9.000000E+99

> <Gold.Protein.RotatedTorsions>
[ 6907 6896 6895 6894 ] final  -39.59 input  -60.11 | X-H torsion
[ 7974 7965 7964 7962 ] final  -61.41 input  175.53 | X-H torsion
[ 8008 7997 7996 7995 ] final  157.84 input   59.86 | X-H torsion
[ 10167 10162 10161 10158 ] final  -99.47 input  -65.29 | X-H torsion
[ 10718 10713 10712 10709 ] final  120.61 input   66.30 | X-H torsion
[ 10763 10752 10751 10750 ] final   40.47 input  -60.55 | X-H torsion
[ 11005 11000 10999 10996 ] final  147.84 input  -57.11 | X-H torsion

> <Gold.Protein.ActiveResidues>
 VAL166  LYS551  ARG553  GLY616  TRP617  ASP618  TYR619  PRO620  LYS621  CYS622 
 ASP623  PHE694  ASN695  SER759  ASP760  ASP761  ALA762  ILE779  LEU786  VAL792 
 PHE793  MET794  SER795  GLU796  ALA797  LYS798  CYS799  TRP800  GLU811  SER814 

> <Gold.Protein.RotatedAtoms>
  150.9885  134.9225  159.7885 H   0  0  0  0  0  0  0  0  0  0  0  0  # atno 6907 bound_to 6896
  152.5244  134.3313  159.9194 H   0  0  0  0  0  0  0  0  0  0  0  0  # atno 6908 bound_to 6896
  151.3320  133.3956  159.2698 H   0  0  0  0  0  0  0  0  0  0  0  0  # atno 6909 bound_to 6896
  145.8037  140.8640  143.0218 H   0  0  0  0  0  0  0  0  0  0  0  0  # atno 7974 bound_to 7965
  156.2339  140.1874  156.7170 H   0  0  0  0  0  0  0  0  0  0  0  0  # atno 8008 bound_to 7997
  154.6072  140.0627  156.9474 H   0  0  0  0  0  0  0  0  0  0  0  0  # atno 8009 bound_to 7997
  155.2076  140.3297  155.4336 H   0  0  0  0  0  0  0  0  0  0  0  0  # atno 8010 bound_to 7997
  140.2621  143.3400  152.0616 H   0  0  0  0  0  0  0  0  0  0  0  0  # atno 10167 bound_to 10162
  157.5878  131.1068  150.8059 H   0  0  0  0  0  0  0  0  0  0  0  0  # atno 10718 bound_to 10713
  152.9935  135.6190  154.2632 H   0  0  0  0  0  0  0  0  0  0  0  0  # atno 10763 bound_to 10752
  154.2367  135.2790  155.2871 H   0  0  0  0  0  0  0  0  0  0  0  0  # atno 10764 bound_to 10752
  154.5403  135.5762  153.6892 H   0  0  0  0  0  0  0  0  0  0  0  0  # atno 10765 bound_to 10752
  140.0910  134.9041  157.1650 H   0  0  0  0  0  0  0  0  0  0  0  0  # atno 11005 bound_to 11000
  144.6765  140.0296  143.7483 LP  0  0  0  0  0  0  0  0  0  0  0  0  # atno 17320 bound_to 7965
  145.9850  139.2971  143.1019 LP  0  0  0  0  0  0  0  0  0  0  0  0  # atno 17321 bound_to 7965
  139.5014  144.6712  151.6238 LP  0  0  0  0  0  0  0  0  0  0  0  0  # atno 17342 bound_to 10162
  140.5958  143.9699  150.6353 LP  0  0  0  0  0  0  0  0  0  0  0  0  # atno 17343 bound_to 10162
  156.8488  130.5073  149.5314 LP  0  0  0  0  0  0  0  0  0  0  0  0  # atno 17370 bound_to 10713
  156.0929  130.5910  150.9764 LP  0  0  0  0  0  0  0  0  0  0  0  0  # atno 17371 bound_to 10713
  140.3353  134.2765  155.7221 LP  0  0  0  0  0  0  0  0  0  0  0  0  # atno 17394 bound_to 11000
  141.2078  133.7796  157.0099 LP  0  0  0  0  0  0  0  0  0  0  0  0  # atno 17395 bound_to 11000

$$$$
