AV-unprocessed.smi:3078|AV-procd|sdf|11735|dock5
  -GOLD-   2272017133D 1   1.00000     0.00000
 Structure written by MMmdl.
 24 24  0  0  0  0  0  0  0  0  3 V2000
  152.1474  138.4532  154.9581 C   0  0  0  0  0  0  0  0  0  0  0  0
  150.7846  138.8186  154.6354 N   0  0  0  0  0  0  0  0  0  0  0  0
  149.7388  138.0022  154.2635 C   0  0  0  0  0  0  0  0  0  0  0  0
  148.6454  138.7996  154.0588 C   0  0  0  0  0  0  0  0  0  0  0  0
  147.2469  138.4199  153.6410 C   0  0  2  0  0  0  0  0  0  0  0  0
  147.1075  136.9527  153.6674 N   0  3  0  0  0  0  0  0  0  0  0  0
  146.8690  138.9815  152.2559 C   0  0  0  0  0  0  0  0  0  0  0  0
  145.4486  138.7472  151.9342 N   0  3  0  0  0  0  0  0  0  0  0  0
  149.1374  140.1066  154.3413 C   0  0  0  0  0  0  0  0  0  0  0  0
  150.4149  140.1142  154.6810 N   0  0  0  0  0  0  0  0  0  0  0  0
  152.2389  137.3686  155.0261 H   0  0  0  0  0  0  0  0  0  0  0  0
  152.4329  138.8922  155.9148 H   0  0  0  0  0  0  0  0  0  0  0  0
  152.8201  138.8184  154.1816 H   0  0  0  0  0  0  0  0  0  0  0  0
  149.8598  136.9322  154.1769 H   0  0  0  0  0  0  0  0  0  0  0  0
  146.5283  138.8025  154.3673 H   0  0  0  0  0  0  0  0  0  0  0  0
  146.1545  136.7017  153.4435 H   0  0  0  0  0  0  0  0  0  0  0  0
  147.3345  136.6043  154.5880 H   0  0  0  0  0  0  0  0  0  0  0  0
  147.0722  140.0517  152.2013 H   0  0  0  0  0  0  0  0  0  0  0  0
  147.4711  138.5055  151.4811 H   0  0  0  0  0  0  0  0  0  0  0  0
  145.1288  137.9110  152.4025 H   0  0  0  0  0  0  0  0  0  0  0  0
  145.3414  138.6323  150.9360 H   0  0  0  0  0  0  0  0  0  0  0  0
  148.6061  141.0464  154.3067 H   0  0  0  0  0  0  0  0  0  0  0  0
  144.8940  139.5338  152.2413 H   0  0  0  0  0  0  0  0  0  0  0  0
  147.7294  136.5379  152.9880 H   0  0  0  0  0  0  0  0  0  0  0  0
  1  2  1  0  0  0  0
  1 11  1  0  0  0  0
  1 12  1  0  0  0  0
  1 13  1  0  0  0  0
  2 10  1  0  0  0  0
  2  3  1  0  0  0  0
  3  4  2  0  0  0  0
  3 14  1  0  0  0  0
  4  5  1  0  0  0  0
  4  9  1  0  0  0  0
  5  6  1  0  0  0  0
  5  7  1  0  0  0  0
  5 15  1  0  0  0  0
  6 16  1  0  0  0  0
  6 17  1  0  0  0  0
  6 24  1  0  0  0  0
  7  8  1  0  0  0  0
  7 18  1  0  0  0  0
  7 19  1  0  0  0  0
  8 20  1  0  0  0  0
  8 21  1  0  0  0  0
  8 23  1  0  0  0  0
  9 10  2  0  0  0  0
  9 22  1  0  0  0  0
M  CHG  1   6   1
M  CHG  1   8   1
M  END
> <s_m_source_file>
AV-unprocessed.smi

> <i_m_source_file_index>
3078

> <i_lp_mmshare_version>
43012

> <i_f3d_flags>
0

> <s_epik_input>
W0NIM11uMVtjSF1jKFtjSF1uMSlbQ0BIXShbTkgyXSlbQ0gyXVtOSDJd

> <s_epik_cmdline>
J2VwaWtfcHl0aG9uJywgJy1waCcsICc3LjAnLCAnLXRuJywgJzgnLCAnLW1hJywgJzIwMCcsICctbWV0YWxfYmluZGluZycsICctaW1hZScsICc8aW5maWxlLm1hZT4nLCAnLW9tYWUnLCAnPG91dGZpbGUubWFlPic=

> <r_lp_tautomer_probability>
1

> <r_epik_Ionization_Penalty>
2.39325

> <r_epik_Ionization_Penalty_Charging>
2.39325

> <r_epik_Ionization_Penalty_Neutral>
1.68997e-07

> <r_epik_State_Penalty>
1.77229

> <r_epik_Charging_Adjusted_Penalty>
4.16555

> <i_epik_Tot_Q>
2

> <i_epik_Tot_abs_Q>
2

> <r_epik_Metal_State_Penalty>
1.77233

> <b_epik_Metal_Only>
0

> <s_lp_Force_Field>
OPLS_2005

> <r_lp_Energy>
8.51806

> <b_lp_Chiralities_Consistent>
1

> <s_lp_Variant>
AV-unprocessed.smi:3078-5

> <Gold.Version>
5.8.1

> <Gold.Id.Protein>
6NUR|6NUR_protein|mol2

> <Gold.PLP.Fitness>
40.2215

> <Gold.PLP.PLP>
-20.8781

> <Gold.PLP.part.hbond>
-3.7644

> <Gold.PLP.part.metal>
0.0000

> <Gold.PLP.part.buried>
-1.3159

> <Gold.PLP.part.nonpolar>
-16.5461

> <Gold.PLP.part.repulsive>
0.0957

> <Gold.PLP.ligand.clash>
0.0000

> <Gold.PLP.ligand.torsion>
0.1256

> <Gold.PLP.Chemscore.Hbond>
5.9440

> <Gold.PLP.Chemscore.CHOScore>
0.5819

> <Gold.PLP.Chemscore.Metal>
0.0000

> <Gold.Chemscore.Hbonds>
donor molecule, donor type, donor heavy atom, donor atom, acceptor molecule, acceptor atom, score
      L1  H     6    24       P1  7948  2.00
      L1  H     8    21       P1 10171  0.67
      L1  H     8    23       P1 10175  2.00
      P1  H  7989  7998       L1    10  1.00
      L1  C     3    14       P1  7948  0.53

> <Gold.PLP.Chemscore.Internal.Correction>
0.0169

> <Gold.Rescore>
     Score         DG    S(hbond)    S(metal)    S(lipo)     H(rot)  DE(clash)    DE(int)     intcor
     17.66     -17.99       3.42        0.00      40.52       1.43       0.32       0.02       ----

> <Gold.Chemscore.Fitness>
17.6641

> <Gold.Chemscore.DG>
-17.9948

> <Gold.Chemscore.ZeroCoef>
-5.4800

> <Gold.Chemscore.Hbond>
3.4238

> <Gold.Chemscore.Metal>
0.0000

> <Gold.Chemscore.Lipo>
40.5230

> <Gold.Chemscore.Internal_Hbond>
0.0000

> <Gold.Chemscore.DEClash>
0.3154

> <Gold.Chemscore.DEInternal>
0.0152

> <Gold.Chemscore.Rot>
1.4304

> <Gold.Chemscore.Internal.Correction>
   9.000000E+99

> <Gold.Chemscore.Hbonds>
donor molecule, donor type, donor heavy atom, donor atom, acceptor molecule, acceptor atom, score
      L1  H     6    24       P1  7948  1.00
      L1  H     8    21       P1 10171  0.68
      L1  H     8    23       P1 10175  0.94
      P1  H  7989  7998       L1    10  0.29

> <Gold.Chemscore.Hbond.Weighted>
-11.4354

> <Gold.Chemscore.Metal.Weighted>
-0.0000

> <Gold.Chemscore.Lipo.Weighted>
-4.7412

> <Gold.Chemscore.Internal_Hbond.Weighted>
0.0000

> <Gold.Chemscore.DEClash.Weighted>
0.3154

> <Gold.Chemscore.DEInternal.Weighted>
0.0152

> <Gold.Chemscore.Rot.Weighted>
3.6618

> <Gold.Chemscore.Internal.Correction.Weighted>
   9.000000E+99

> <Gold.Protein.RotatedTorsions>
[ 6907 6896 6895 6894 ] final  -24.48 input  -60.11 | X-H torsion
[ 7974 7965 7964 7962 ] final  -68.38 input  175.53 | X-H torsion
[ 8008 7997 7996 7995 ] final   84.63 input   59.86 | X-H torsion
[ 10167 10162 10161 10158 ] final   -6.93 input  -65.29 | X-H torsion
[ 10718 10713 10712 10709 ] final   64.11 input   66.30 | X-H torsion
[ 10763 10752 10751 10750 ] final   43.24 input  -60.55 | X-H torsion
[ 11005 11000 10999 10996 ] final  175.42 input  -57.11 | X-H torsion

> <Gold.Protein.ActiveResidues>
 VAL166  LYS551  ARG553  GLY616  TRP617  ASP618  TYR619  PRO620  LYS621  CYS622 
 ASP623  PHE694  ASN695  SER759  ASP760  ASP761  ALA762  ILE779  LEU786  VAL792 
 PHE793  MET794  SER795  GLU796  ALA797  LYS798  CYS799  TRP800  GLU811  SER814 

> <Gold.Protein.RotatedAtoms>
  151.1889  135.0394  159.8823 H   0  0  0  0  0  0  0  0  0  0  0  0  # atno 6907 bound_to 6896
  152.5440  134.0978  159.8315 H   0  0  0  0  0  0  0  0  0  0  0  0  # atno 6908 bound_to 6896
  151.1104  133.5130  159.2638 H   0  0  0  0  0  0  0  0  0  0  0  0  # atno 6909 bound_to 6896
  145.7172  140.9054  143.0649 H   0  0  0  0  0  0  0  0  0  0  0  0  # atno 7974 bound_to 7965
  155.9395  140.3409  155.6315 H   0  0  0  0  0  0  0  0  0  0  0  0  # atno 8008 bound_to 7997
  155.7057  140.0765  157.2410 H   0  0  0  0  0  0  0  0  0  0  0  0  # atno 8009 bound_to 7997
  154.4100  140.1632  156.2228 H   0  0  0  0  0  0  0  0  0  0  0  0  # atno 8010 bound_to 7997
  140.7012  143.6139  150.8677 H   0  0  0  0  0  0  0  0  0  0  0  0  # atno 10167 bound_to 10162
  157.6017  130.9142  149.9803 H   0  0  0  0  0  0  0  0  0  0  0  0  # atno 10718 bound_to 10713
  152.9865  135.6107  154.3080 H   0  0  0  0  0  0  0  0  0  0  0  0  # atno 10763 bound_to 10752
  154.2797  135.2777  155.2704 H   0  0  0  0  0  0  0  0  0  0  0  0  # atno 10764 bound_to 10752
  154.5049  135.5857  153.6616 H   0  0  0  0  0  0  0  0  0  0  0  0  # atno 10765 bound_to 10752
  140.3621  134.7104  157.4337 H   0  0  0  0  0  0  0  0  0  0  0  0  # atno 11005 bound_to 11000
  144.6926  139.9154  143.7465 LP  0  0  0  0  0  0  0  0  0  0  0  0  # atno 17320 bound_to 7965
  146.0659  139.3649  143.0553 LP  0  0  0  0  0  0  0  0  0  0  0  0  # atno 17321 bound_to 7965
  139.9861  143.5898  152.2926 LP  0  0  0  0  0  0  0  0  0  0  0  0  # atno 17342 bound_to 10162
  139.6536  144.7661  151.2099 LP  0  0  0  0  0  0  0  0  0  0  0  0  # atno 17343 bound_to 10162
  156.1093  130.3651  150.0078 LP  0  0  0  0  0  0  0  0  0  0  0  0  # atno 17370 bound_to 10713
  156.8179  130.9348  151.3642 LP  0  0  0  0  0  0  0  0  0  0  0  0  # atno 17371 bound_to 10713
  140.0619  134.5984  155.8739 LP  0  0  0  0  0  0  0  0  0  0  0  0  # atno 17394 bound_to 11000
  141.1981  133.6599  156.5775 LP  0  0  0  0  0  0  0  0  0  0  0  0  # atno 17395 bound_to 11000

$$$$
