AV-unprocessed.smi:1240|AV-procd|sdf|5205|dock5
  -GOLD-   22720 4293D 1   1.00000     0.00000
 Structure written by MMmdl.
 48 50  0  0  0  0  0  0  0  0  2 V2000
  145.9971  131.0236  153.5623 O   0  0  0  0  0  0  0  0  0  0  0  0
  146.8768  131.0321  152.7017 C   0  0  0  0  0  0  0  0  0  0  0  0
  148.1258  130.5966  152.9188 N   0  0  0  0  0  0  0  0  0  0  0  0
  148.6177  130.0586  154.1850 C   0  0  0  0  0  0  0  0  0  0  0  0
  149.9957  129.3336  154.0649 C   0  0  2  0  0  0  0  0  0  0  0  0
  149.7496  127.8012  153.8443 C   0  0  1  0  0  0  0  0  0  0  0  0
  148.9631  127.0033  154.8702 C   0  0  0  0  0  0  0  0  0  0  0  0
  148.7120  125.7031  154.1167 C   0  0  0  0  0  0  0  0  0  0  0  0
  148.5188  126.0944  152.7615 O   0  0  0  0  0  0  0  0  0  0  0  0
  148.9855  127.4280  152.5680 C   0  0  0  0  0  0  0  0  0  0  0  0
  150.9609  129.6313  155.1539 N   0  0  0  0  0  0  0  0  0  0  0  0
  152.3410  129.3165  154.7604 C   0  0  0  0  0  0  0  0  0  0  0  0
  153.3345  129.5152  155.9163 C   0  0  0  0  0  0  0  0  0  0  0  0
  153.2736  130.8655  156.3585 O   0  0  0  0  0  0  0  0  0  0  0  0
  151.9668  131.2428  156.7737 C   0  0  0  0  0  0  0  0  0  0  0  0
  150.9650  131.0201  155.6256 C   0  0  0  0  0  0  0  0  0  0  0  0
  146.7308  131.4907  151.4464 N   0  0  0  0  0  0  0  0  0  0  0  0
  145.5725  132.0473  150.8385 C   0  0  0  0  0  0  0  0  0  0  0  0
  144.4495  132.2822  151.6628 C   0  0  0  0  0  0  0  0  0  0  0  0
  143.2825  132.8434  151.1053 C   0  0  0  0  0  0  0  0  0  0  0  0
  143.2500  133.1618  149.7936 N   0  3  0  0  0  0  0  0  0  0  0  0
  144.3023  132.9709  148.9696 C   0  0  0  0  0  0  0  0  0  0  0  0
  145.4963  132.4129  149.4701 C   0  0  0  0  0  0  0  0  0  0  0  0
  148.7882  130.6416  152.1581 H   0  0  0  0  0  0  0  0  0  0  0  0
  148.6719  130.8932  154.8852 H   0  0  0  0  0  0  0  0  0  0  0  0
  147.8603  129.3800  154.5780 H   0  0  0  0  0  0  0  0  0  0  0  0
  150.4362  129.7104  153.1406 H   0  0  0  0  0  0  0  0  0  0  0  0
  150.7265  127.3186  153.7865 H   0  0  0  0  0  0  0  0  0  0  0  0
  149.4950  126.8550  155.8103 H   0  0  0  0  0  0  0  0  0  0  0  0
  147.9950  127.4606  155.0740 H   0  0  0  0  0  0  0  0  0  0  0  0
  149.5852  125.0520  154.1748 H   0  0  0  0  0  0  0  0  0  0  0  0
  147.8523  125.1547  154.5020 H   0  0  0  0  0  0  0  0  0  0  0  0
  148.1226  128.0803  152.4281 H   0  0  0  0  0  0  0  0  0  0  0  0
  149.6057  127.4915  151.6737 H   0  0  0  0  0  0  0  0  0  0  0  0
  152.4417  128.3039  154.3843 H   0  0  0  0  0  0  0  0  0  0  0  0
  152.6373  129.9606  153.9310 H   0  0  0  0  0  0  0  0  0  0  0  0
  153.1097  128.8381  156.7420 H   0  0  0  0  0  0  0  0  0  0  0  0
  154.3499  129.2951  155.5864 H   0  0  0  0  0  0  0  0  0  0  0  0
  151.6781  130.6646  157.6529 H   0  0  0  0  0  0  0  0  0  0  0  0
  151.9771  132.2917  157.0698 H   0  0  0  0  0  0  0  0  0  0  0  0
  151.2008  131.6951  154.8015 H   0  0  0  0  0  0  0  0  0  0  0  0
  149.9793  131.2982  155.9975 H   0  0  0  0  0  0  0  0  0  0  0  0
  147.5670  131.5047  150.8810 H   0  0  0  0  0  0  0  0  0  0  0  0
  144.4758  132.0289  152.7130 H   0  0  0  0  0  0  0  0  0  0  0  0
  142.3815  133.0471  151.6654 H   0  0  0  0  0  0  0  0  0  0  0  0
  144.1611  133.2736  147.9422 H   0  0  0  0  0  0  0  0  0  0  0  0
  146.3314  132.2874  148.7979 H   0  0  0  0  0  0  0  0  0  0  0  0
  142.3963  133.5682  149.4097 H   0  0  0  0  0  0  0  0  0  0  0  0
  1  2  2  0  0  0  0
  2  3  1  0  0  0  0
  2 17  1  0  0  0  0
  3  4  1  0  0  0  0
  3 24  1  0  0  0  0
  4  5  1  0  0  0  0
  4 25  1  0  0  0  0
  4 26  1  0  0  0  0
  5  6  1  0  0  0  0
  5 11  1  0  0  0  0
  5 27  1  0  0  0  0
  6 10  1  0  0  0  0
  6  7  1  0  0  0  0
  6 28  1  0  0  0  0
  7  8  1  0  0  0  0
  7 29  1  0  0  0  0
  7 30  1  0  0  0  0
  8  9  1  0  0  0  0
  8 31  1  0  0  0  0
  8 32  1  0  0  0  0
  9 10  1  0  0  0  0
 10 33  1  0  0  0  0
 10 34  1  0  0  0  0
 11 16  1  0  0  0  0
 11 12  1  0  0  0  0
 12 13  1  0  0  0  0
 12 35  1  0  0  0  0
 12 36  1  0  0  0  0
 13 14  1  0  0  0  0
 13 37  1  0  0  0  0
 13 38  1  0  0  0  0
 14 15  1  0  0  0  0
 15 16  1  0  0  0  0
 15 39  1  0  0  0  0
 15 40  1  0  0  0  0
 16 41  1  0  0  0  0
 16 42  1  0  0  0  0
 17 18  1  0  0  0  0
 17 43  1  0  0  0  0
 18 23  1  0  0  0  0
 18 19  2  0  0  0  0
 19 20  1  0  0  0  0
 19 44  1  0  0  0  0
 20 21  2  0  0  0  0
 20 45  1  0  0  0  0
 21 22  1  0  0  0  0
 21 48  1  0  0  0  0
 22 23  2  0  0  0  0
 22 46  1  0  0  0  0
 23 47  1  0  0  0  0
M  CHG  1  21   1
M  END
> <s_m_source_file>
AV-unprocessed.smi

> <i_m_source_file_index>
1240

> <i_lp_mmshare_version>
43012

> <i_f3d_flags>
0

> <s_epik_input>
W2NIXTFbY0hdbltjSF1bY0hdYzFbTkhdQyg9TylbTkhdW0NIMl1bQ0BIXShbQ0BASF0yW0NIMl1bQ0gyXU9bQ0gyXTIpTjNbQ0gyXVtDSDJdT1tDSDJdW0NIMl0z

> <s_epik_cmdline>
J2VwaWtfcHl0aG9uJywgJy1waCcsICc3LjAnLCAnLXRuJywgJzgnLCAnLW1hJywgJzIwMCcsICctbWV0YWxfYmluZGluZycsICctaW1hZScsICc8aW5maWxlLm1hZT4nLCAnLW9tYWUnLCAnPG91dGZpbGUubWFlPic=

> <r_epik_Ionization_Penalty>
1.15944

> <r_epik_Ionization_Penalty_Charging>
1.0344

> <r_epik_Ionization_Penalty_Neutral>
0.125034

> <r_epik_State_Penalty>
1.2199

> <r_epik_Charging_Adjusted_Penalty>
2.25431

> <i_epik_Tot_Q>
1

> <i_epik_Tot_abs_Q>
1

> <r_epik_Metal_State_Penalty>
1.3155

> <b_epik_Metal_Only>
0

> <s_lp_Force_Field>
OPLS_2005

> <r_lp_Energy>
67.1195

> <b_lp_Chiralities_Consistent>
1

> <s_lp_Variant>
AV-unprocessed.smi:1240-11

> <Gold.Version>
5.8.1

> <Gold.Id.Protein>
6NUR|6NUR_protein|mol2

> <Gold.PLP.Fitness>
46.7148

> <Gold.PLP.PLP>
-36.5892

> <Gold.PLP.part.hbond>
-3.0000

> <Gold.PLP.part.metal>
0.0000

> <Gold.PLP.part.buried>
-5.1283

> <Gold.PLP.part.nonpolar>
-28.4335

> <Gold.PLP.part.repulsive>
0.3755

> <Gold.PLP.ligand.clash>
0.0000

> <Gold.PLP.ligand.torsion>
0.9702

> <Gold.PLP.Chemscore.Hbond>
3.9600

> <Gold.PLP.Chemscore.CHOScore>
0.0000

> <Gold.PLP.Chemscore.Metal>
0.0000

> <Gold.Chemscore.Hbonds>
donor molecule, donor type, donor heavy atom, donor atom, acceptor molecule, acceptor atom, score
      L1  H     3    24       P1 10747  0.93
      L1  H    17    43       P1 10747  1.00
      L1  H    21    48       P1 10186  2.00

> <Gold.PLP.Chemscore.Internal.Correction>
0.1860

> <Gold.Rescore>
     Score         DG    S(hbond)    S(metal)    S(lipo)     H(rot)  DE(clash)    DE(int)     intcor
     17.48     -20.04       2.50        0.00      90.00       1.69       0.29       2.27       ----

> <Gold.Chemscore.Fitness>
17.4843

> <Gold.Chemscore.DG>
-20.0416

> <Gold.Chemscore.ZeroCoef>
-5.4800

> <Gold.Chemscore.Hbond>
2.5034

> <Gold.Chemscore.Metal>
0.0000

> <Gold.Chemscore.Lipo>
89.9990

> <Gold.Chemscore.Internal_Hbond>
0.0000

> <Gold.Chemscore.DEClash>
0.2867

> <Gold.Chemscore.DEInternal>
2.2706

> <Gold.Chemscore.Rot>
1.6912

> <Gold.Chemscore.Internal.Correction>
   9.000000E+99

> <Gold.Chemscore.Hbonds>
donor molecule, donor type, donor heavy atom, donor atom, acceptor molecule, acceptor atom, score
      L1  H     3    24       P1 10747  0.49
      L1  H    17    43       P1 10747  0.97
      L1  H    21    48       P1 10186  0.96

> <Gold.Chemscore.Hbond.Weighted>
-8.3612

> <Gold.Chemscore.Metal.Weighted>
-0.0000

> <Gold.Chemscore.Lipo.Weighted>
-10.5299

> <Gold.Chemscore.Internal_Hbond.Weighted>
0.0000

> <Gold.Chemscore.DEClash.Weighted>
0.2867

> <Gold.Chemscore.DEInternal.Weighted>
2.2706

> <Gold.Chemscore.Rot.Weighted>
4.3295

> <Gold.Chemscore.Internal.Correction.Weighted>
   9.000000E+99

> <Gold.Protein.RotatedTorsions>
[ 6907 6896 6895 6894 ] final -149.81 input  -60.11 | X-H torsion
[ 7974 7965 7964 7962 ] final -164.55 input  175.53 | X-H torsion
[ 8008 7997 7996 7995 ] final  148.52 input   59.86 | X-H torsion
[ 10167 10162 10161 10158 ] final   23.78 input  -65.29 | X-H torsion
[ 10718 10713 10712 10709 ] final  -36.75 input   66.30 | X-H torsion
[ 10763 10752 10751 10750 ] final -111.08 input  -60.55 | X-H torsion
[ 11005 11000 10999 10996 ] final  -50.67 input  -57.11 | X-H torsion

> <Gold.Protein.ActiveResidues>
 VAL166  LYS551  ARG553  GLY616  TRP617  ASP618  TYR619  PRO620  LYS621  CYS622 
 ASP623  PHE694  ASN695  SER759  ASP760  ASP761  ALA762  ILE779  LEU786  VAL792 
 PHE793  MET794  SER795  GLU796  ALA797  LYS798  CYS799  TRP800  GLU811  SER814 

> <Gold.Protein.RotatedAtoms>
  151.1895  133.4676  159.2594 H   0  0  0  0  0  0  0  0  0  0  0  0  # atno 6907 bound_to 6896
  151.1178  135.0062  159.8534 H   0  0  0  0  0  0  0  0  0  0  0  0  # atno 6908 bound_to 6896
  152.5454  134.1809  159.8688 H   0  0  0  0  0  0  0  0  0  0  0  0  # atno 6909 bound_to 6896
  144.7294  140.2944  143.6215 H   0  0  0  0  0  0  0  0  0  0  0  0  # atno 7974 bound_to 7965
  156.2788  140.2126  156.5711 H   0  0  0  0  0  0  0  0  0  0  0  0  # atno 8008 bound_to 7997
  154.7135  140.0510  157.0595 H   0  0  0  0  0  0  0  0  0  0  0  0  # atno 8009 bound_to 7997
  155.0574  140.3163  155.4675 H   0  0  0  0  0  0  0  0  0  0  0  0  # atno 8010 bound_to 7997
  140.5241  143.9953  150.6431 H   0  0  0  0  0  0  0  0  0  0  0  0  # atno 10167 bound_to 10162
  156.3232  130.4268  149.7941 H   0  0  0  0  0  0  0  0  0  0  0  0  # atno 10718 bound_to 10713
  154.8282  135.4540  154.0984 H   0  0  0  0  0  0  0  0  0  0  0  0  # atno 10763 bound_to 10752
  153.2280  135.6902  153.7929 H   0  0  0  0  0  0  0  0  0  0  0  0  # atno 10764 bound_to 10752
  153.7322  135.3325  155.3264 H   0  0  0  0  0  0  0  0  0  0  0  0  # atno 10765 bound_to 10752
  141.0829  133.6649  156.3765 H   0  0  0  0  0  0  0  0  0  0  0  0  # atno 11005 bound_to 11000
  145.7822  139.1896  143.2151 LP  0  0  0  0  0  0  0  0  0  0  0  0  # atno 17320 bound_to 7965
  146.0824  140.7749  142.9635 LP  0  0  0  0  0  0  0  0  0  0  0  0  # atno 17321 bound_to 7965
  140.3310  143.3078  152.0687 LP  0  0  0  0  0  0  0  0  0  0  0  0  # atno 17342 bound_to 10162
  139.4932  144.6509  151.6677 LP  0  0  0  0  0  0  0  0  0  0  0  0  # atno 17343 bound_to 10162
  156.5241  130.8228  151.3214 LP  0  0  0  0  0  0  0  0  0  0  0  0  # atno 17370 bound_to 10713
  157.7416  130.9873  150.2456 LP  0  0  0  0  0  0  0  0  0  0  0  0  # atno 17371 bound_to 10713
  140.5429  134.6103  157.5385 LP  0  0  0  0  0  0  0  0  0  0  0  0  # atno 17394 bound_to 11000
  139.9644  134.7398  156.0169 LP  0  0  0  0  0  0  0  0  0  0  0  0  # atno 17395 bound_to 11000

$$$$
