AV-unprocessed.smi:914|AV-procd|sdf|4153|dock4
  -GOLD-   22720 2 53D 1   1.00000     0.00000
 Structure written by MMmdl.
 32 33  0  0  0  0  0  0  0  0  2 V2000
  148.7916  141.4965  153.8657 O   0  0  0  0  0  0  0  0  0  0  0  0
  149.4073  141.0324  154.8245 C   0  0  0  0  0  0  0  0  0  0  0  0
  150.6407  140.4605  154.7011 N   0  5  0  0  0  0  0  0  0  0  0  0
  151.3438  139.9443  155.7563 C   0  0  0  0  0  0  0  0  0  0  0  0
  152.4535  139.4300  155.6162 O   0  0  0  0  0  0  0  0  0  0  0  0
  150.7936  140.0058  157.0058 N   0  0  0  0  0  0  0  0  0  0  0  0
  151.4708  139.4795  158.1995 C   0  0  0  0  0  0  0  0  0  0  0  0
  151.6308  140.5557  159.2847 C   0  0  0  0  0  0  0  0  0  0  0  0
  152.6429  141.4719  158.9036 O   0  0  0  0  0  0  0  0  0  0  0  0
  153.2287  142.1395  160.0072 C   0  0  0  0  0  0  0  0  0  0  0  0
  152.7516  143.5965  160.0102 C   0  0  1  0  0  0  0  0  0  0  0  0
  152.7797  144.2544  158.6335 C   0  0  0  0  0  0  0  0  0  0  0  0
  151.7987  145.3901  158.8205 C   0  0  0  0  0  0  0  0  0  0  0  0
  150.7491  144.7714  159.7430 C   0  0  0  0  0  0  0  0  0  0  0  0
  151.3811  143.6683  160.3882 O   0  0  0  0  0  0  0  0  0  0  0  0
  149.5225  140.5763  157.1858 C   0  0  0  0  0  0  0  0  0  0  0  0
  148.8142  141.0854  156.1592 C   0  0  0  0  0  0  0  0  0  0  0  0
  147.2519  141.7785  156.4112 Cl  0  0  0  0  0  0  0  0  0  0  0  0
  150.9539  138.6101  158.6087 H   0  0  0  0  0  0  0  0  0  0  0  0
  152.4568  139.1109  157.9132 H   0  0  0  0  0  0  0  0  0  0  0  0
  150.6868  141.0875  159.4121 H   0  0  0  0  0  0  0  0  0  0  0  0
  151.8756  140.0954  160.2432 H   0  0  0  0  0  0  0  0  0  0  0  0
  152.9166  141.6435  160.9276 H   0  0  0  0  0  0  0  0  0  0  0  0
  154.3181  142.0965  159.9614 H   0  0  0  0  0  0  0  0  0  0  0  0
  153.3434  144.1933  160.7065 H   0  0  0  0  0  0  0  0  0  0  0  0
  153.7748  144.5927  158.3432 H   0  0  0  0  0  0  0  0  0  0  0  0
  152.4139  143.5656  157.8706 H   0  0  0  0  0  0  0  0  0  0  0  0
  152.2899  146.2254  159.3212 H   0  0  0  0  0  0  0  0  0  0  0  0
  151.3804  145.7542  157.8819 H   0  0  0  0  0  0  0  0  0  0  0  0
  150.3760  145.4908  160.4723 H   0  0  0  0  0  0  0  0  0  0  0  0
  149.8992  144.3982  159.1710 H   0  0  0  0  0  0  0  0  0  0  0  0
  149.1606  140.5692  158.2036 H   0  0  0  0  0  0  0  0  0  0  0  0
  1  2  2  0  0  0  0
  2 17  1  0  0  0  0
  2  3  1  0  0  0  0
  3  4  1  0  0  0  0
  4  5  2  0  0  0  0
  4  6  1  0  0  0  0
  6  7  1  0  0  0  0
  6 16  1  0  0  0  0
  7  8  1  0  0  0  0
  7 19  1  0  0  0  0
  7 20  1  0  0  0  0
  8  9  1  0  0  0  0
  8 21  1  0  0  0  0
  8 22  1  0  0  0  0
  9 10  1  0  0  0  0
 10 11  1  0  0  0  0
 10 23  1  0  0  0  0
 10 24  1  0  0  0  0
 11 15  1  0  0  0  0
 11 12  1  0  0  0  0
 11 25  1  0  0  0  0
 12 13  1  0  0  0  0
 12 26  1  0  0  0  0
 12 27  1  0  0  0  0
 13 14  1  0  0  0  0
 13 28  1  0  0  0  0
 13 29  1  0  0  0  0
 14 15  1  0  0  0  0
 14 30  1  0  0  0  0
 14 31  1  0  0  0  0
 16 17  2  0  0  0  0
 16 32  1  0  0  0  0
 17 18  1  0  0  0  0
M  CHG  1   3  -1
M  END
> <s_m_source_file>
AV-unprocessed.smi

> <i_m_source_file_index>
914

> <i_lp_mmshare_version>
43012

> <i_f3d_flags>
0

> <s_epik_input>
Tz1jMVtuSF1jKD1PKW4oW2NIXWMxQ2wpW0NIMl1bQ0gyXU9bQ0gyXVtDQEBIXTJbQ0gyXVtDSDJdW0NIMl1PMg==

> <s_epik_cmdline>
J2VwaWtfcHl0aG9uJywgJy1waCcsICc3LjAnLCAnLXRuJywgJzgnLCAnLW1hJywgJzIwMCcsICctbWV0YWxfYmluZGluZycsICctaW1hZScsICc8aW5maWxlLm1hZT4nLCAnLW9tYWUnLCAnPG91dGZpbGUubWFlPic=

> <r_epik_Ionization_Penalty>
1.76812

> <r_epik_Ionization_Penalty_Charging>
1.60097e-08

> <r_epik_Ionization_Penalty_Neutral>
1.76812

> <r_epik_State_Penalty>
1.87929

> <r_epik_Charging_Adjusted_Penalty>
1.87929

> <i_epik_Tot_Q>
-1

> <i_epik_Tot_abs_Q>
1

> <r_epik_Metal_State_Penalty>
0.0133872

> <b_epik_Metal_Only>
0

> <s_lp_Force_Field>
OPLS_2005

> <r_lp_Energy>
30.6138

> <b_lp_Chiralities_Consistent>
1

> <s_lp_Variant>
AV-unprocessed.smi:914-4

> <Gold.Version>
5.8.1

> <Gold.Id.Protein>
6NUR|6NUR_protein|mol2

> <Gold.PLP.Fitness>
45.6069

> <Gold.PLP.PLP>
-38.6965

> <Gold.PLP.part.hbond>
-3.3030

> <Gold.PLP.part.metal>
0.0000

> <Gold.PLP.part.buried>
-6.1872

> <Gold.PLP.part.nonpolar>
-30.2515

> <Gold.PLP.part.repulsive>
0.3680

> <Gold.PLP.ligand.clash>
0.0000

> <Gold.PLP.ligand.torsion>
0.6180

> <Gold.PLP.Chemscore.Hbond>
2.7040

> <Gold.PLP.Chemscore.CHOScore>
0.0000

> <Gold.PLP.Chemscore.Metal>
0.0000

> <Gold.Chemscore.Hbonds>
donor molecule, donor type, donor heavy atom, donor atom, acceptor molecule, acceptor atom, score
      P1  H  7989  7998       L1     3  1.00
      P1  H  7997  8010       L1     5  0.76
      P1  H  8011  8017       L1     1  0.67

> <Gold.PLP.Chemscore.Internal.Correction>
0.0345

> <Gold.Rescore>
     Score         DG    S(hbond)    S(metal)    S(lipo)     H(rot)  DE(clash)    DE(int)     intcor
     17.51     -18.18       2.51        0.00      82.06       2.07       0.04       0.63       ----

> <Gold.Chemscore.Fitness>
17.5150

> <Gold.Chemscore.DG>
-18.1824

> <Gold.Chemscore.ZeroCoef>
-5.4800

> <Gold.Chemscore.Hbond>
2.5134

> <Gold.Chemscore.Metal>
0.0000

> <Gold.Chemscore.Lipo>
82.0623

> <Gold.Chemscore.Internal_Hbond>
0.0000

> <Gold.Chemscore.DEClash>
0.0368

> <Gold.Chemscore.DEInternal>
0.6307

> <Gold.Chemscore.Rot>
2.0678

> <Gold.Chemscore.Internal.Correction>
   9.000000E+99

> <Gold.Chemscore.Hbonds>
donor molecule, donor type, donor heavy atom, donor atom, acceptor molecule, acceptor atom, score
      P1  H  7989  7998       L1     3  0.75
      P1  H  7997  8010       L1     5  0.75
      P1  H  8011  8017       L1     1  0.63

> <Gold.Chemscore.Hbond.Weighted>
-8.3947

> <Gold.Chemscore.Metal.Weighted>
-0.0000

> <Gold.Chemscore.Lipo.Weighted>
-9.6013

> <Gold.Chemscore.Internal_Hbond.Weighted>
0.0000

> <Gold.Chemscore.DEClash.Weighted>
0.0368

> <Gold.Chemscore.DEInternal.Weighted>
0.6307

> <Gold.Chemscore.Rot.Weighted>
5.2935

> <Gold.Chemscore.Internal.Correction.Weighted>
   9.000000E+99

> <Gold.Protein.RotatedTorsions>
[ 6907 6896 6895 6894 ] final -150.74 input  -60.11 | X-H torsion
[ 7974 7965 7964 7962 ] final   33.31 input  175.53 | X-H torsion
[ 8008 7997 7996 7995 ] final   99.28 input   59.86 | X-H torsion
[ 10167 10162 10161 10158 ] final  -96.05 input  -65.29 | X-H torsion
[ 10718 10713 10712 10709 ] final  172.84 input   66.30 | X-H torsion
[ 10763 10752 10751 10750 ] final  107.94 input  -60.55 | X-H torsion
[ 11005 11000 10999 10996 ] final   62.46 input  -57.11 | X-H torsion

> <Gold.Protein.ActiveResidues>
 VAL166  LYS551  ARG553  GLY616  TRP617  ASP618  TYR619  PRO620  LYS621  CYS622 
 ASP623  PHE694  ASN695  SER759  ASP760  ASP761  ALA762  ILE779  LEU786  VAL792 
 PHE793  MET794  SER795  GLU796  ALA797  LYS798  CYS799  TRP800  GLU811  SER814 

> <Gold.Protein.RotatedAtoms>
  151.2030  133.4600  159.2596 H   0  0  0  0  0  0  0  0  0  0  0  0  # atno 6907 bound_to 6896
  151.1051  134.9995  159.8477 H   0  0  0  0  0  0  0  0  0  0  0  0  # atno 6908 bound_to 6896
  152.5446  134.1953  159.8743 H   0  0  0  0  0  0  0  0  0  0  0  0  # atno 6909 bound_to 6896
  146.1429  139.6414  142.9151 H   0  0  0  0  0  0  0  0  0  0  0  0  # atno 7974 bound_to 7965
  156.1089  140.3231  155.8045 H   0  0  0  0  0  0  0  0  0  0  0  0  # atno 8008 bound_to 7997
  155.4708  140.0546  157.2997 H   0  0  0  0  0  0  0  0  0  0  0  0  # atno 8009 bound_to 7997
  154.4746  140.2026  155.9924 H   0  0  0  0  0  0  0  0  0  0  0  0  # atno 8010 bound_to 7997
  140.2978  143.3181  152.0279 H   0  0  0  0  0  0  0  0  0  0  0  0  # atno 10167 bound_to 10162
  156.9730  131.0096  151.2900 H   0  0  0  0  0  0  0  0  0  0  0  0  # atno 10718 bound_to 10713
  153.4137  135.3828  155.2067 H   0  0  0  0  0  0  0  0  0  0  0  0  # atno 10763 bound_to 10752
  154.8740  135.3800  154.4469 H   0  0  0  0  0  0  0  0  0  0  0  0  # atno 10764 bound_to 10752
  153.4981  135.7088  153.5909 H   0  0  0  0  0  0  0  0  0  0  0  0  # atno 10765 bound_to 10752
  140.0091  134.6324  155.9809 H   0  0  0  0  0  0  0  0  0  0  0  0  # atno 11005 bound_to 11000
  145.5004  141.0437  143.2543 LP  0  0  0  0  0  0  0  0  0  0  0  0  # atno 17320 bound_to 7965
  144.7813  139.6520  143.7153 LP  0  0  0  0  0  0  0  0  0  0  0  0  # atno 17321 bound_to 7965
  139.4922  144.6478  151.6741 LP  0  0  0  0  0  0  0  0  0  0  0  0  # atno 17342 bound_to 10162
  140.5677  144.0162  150.6200 LP  0  0  0  0  0  0  0  0  0  0  0  0  # atno 17343 bound_to 10162
  157.5579  130.8226  149.8228 LP  0  0  0  0  0  0  0  0  0  0  0  0  # atno 17370 bound_to 10713
  156.0275  130.3775  150.1781 LP  0  0  0  0  0  0  0  0  0  0  0  0  # atno 17371 bound_to 10713
  141.1698  133.6537  156.4610 LP  0  0  0  0  0  0  0  0  0  0  0  0  # atno 17394 bound_to 11000
  140.4588  134.6861  157.5075 LP  0  0  0  0  0  0  0  0  0  0  0  0  # atno 17395 bound_to 11000

$$$$
