AV-unprocessed.smi:2786|AV-procd|sdf|10750|dock2
  -GOLD-   2272015183D 1   1.00000     0.00000
 Structure written by MMmdl.
 28 29  0  0  0  0  0  0  0  0  3 V2000
  152.2992  141.3134  159.3351 C   0  0  0  0  0  0  0  0  0  0  0  0
  152.0145  142.6176  158.7330 N   0  0  0  0  0  0  0  0  0  0  0  0
  152.5074  143.8295  159.1446 C   0  0  0  0  0  0  0  0  0  0  0  0
  151.9904  144.7728  158.2961 C   0  0  0  0  0  0  0  0  0  0  0  0
  151.2029  144.0983  157.4033 N   0  3  0  0  0  0  0  0  0  0  0  0
  151.2080  142.7857  157.6710 C   0  0  0  0  0  0  0  0  0  0  0  0
  150.4720  141.7263  156.9012 C   0  0  2  0  0  0  0  0  0  0  0  0
  151.3951  140.5328  156.5645 C   0  0  0  0  0  0  0  0  0  0  0  0
  150.6458  139.4817  155.8449 N   0  3  0  0  0  0  0  0  0  0  0  0
  149.9916  140.0253  154.6386 C   0  0  0  0  0  0  0  0  0  0  0  0
  149.0916  141.2140  155.0204 C   0  0  0  0  0  0  0  0  0  0  0  0
  149.8882  142.2529  155.6670 N   0  0  0  0  0  0  0  0  0  0  0  0
  153.0557  141.4274  160.1126 H   0  0  0  0  0  0  0  0  0  0  0  0
  152.6721  140.6320  158.5697 H   0  0  0  0  0  0  0  0  0  0  0  0
  151.3860  140.9134  159.7764 H   0  0  0  0  0  0  0  0  0  0  0  0
  153.1748  143.9298  159.9889 H   0  0  0  0  0  0  0  0  0  0  0  0
  152.1215  145.8447  158.2612 H   0  0  0  0  0  0  0  0  0  0  0  0
  149.6576  141.3946  157.5464 H   0  0  0  0  0  0  0  0  0  0  0  0
  152.2387  140.8572  155.9531 H   0  0  0  0  0  0  0  0  0  0  0  0
  151.8102  140.1010  157.4755 H   0  0  0  0  0  0  0  0  0  0  0  0
  151.2759  138.7380  155.5796 H   0  0  0  0  0  0  0  0  0  0  0  0
  150.7504  140.3324  153.9172 H   0  0  0  0  0  0  0  0  0  0  0  0
  149.4020  139.2384  154.1677 H   0  0  0  0  0  0  0  0  0  0  0  0
  148.6252  141.6313  154.1275 H   0  0  0  0  0  0  0  0  0  0  0  0
  148.2854  140.8953  155.6828 H   0  0  0  0  0  0  0  0  0  0  0  0
  149.2966  143.0445  155.8801 H   0  0  0  0  0  0  0  0  0  0  0  0
  149.9346  139.1090  156.4577 H   0  0  0  0  0  0  0  0  0  0  0  0
  150.6826  144.5288  156.6488 H   0  0  0  0  0  0  0  0  0  0  0  0
  1  2  1  0  0  0  0
  1 13  1  0  0  0  0
  1 14  1  0  0  0  0
  1 15  1  0  0  0  0
  2  6  1  0  0  0  0
  2  3  1  0  0  0  0
  3  4  2  0  0  0  0
  3 16  1  0  0  0  0
  4  5  1  0  0  0  0
  4 17  1  0  0  0  0
  5  6  2  0  0  0  0
  5 28  1  0  0  0  0
  6  7  1  0  0  0  0
  7 12  1  0  0  0  0
  7  8  1  0  0  0  0
  7 18  1  0  0  0  0
  8  9  1  0  0  0  0
  8 19  1  0  0  0  0
  8 20  1  0  0  0  0
  9 10  1  0  0  0  0
  9 21  1  0  0  0  0
  9 27  1  0  0  0  0
 10 11  1  0  0  0  0
 10 22  1  0  0  0  0
 10 23  1  0  0  0  0
 11 12  1  0  0  0  0
 11 24  1  0  0  0  0
 11 25  1  0  0  0  0
 12 26  1  0  0  0  0
M  CHG  1   5   1
M  CHG  1   9   1
M  END
> <s_m_source_file>
AV-unprocessed.smi

> <i_m_source_file_index>
2786

> <i_lp_mmshare_version>
43012

> <i_f3d_flags>
0

> <s_epik_input>
W0NIM11uMVtjSF1bY0hdbmMxW0NAQEhdMltDSDJdW05IXVtDSDJdW0NIMl1bTkhdMg==

> <s_epik_cmdline>
J2VwaWtfcHl0aG9uJywgJy1waCcsICc3LjAnLCAnLXRuJywgJzgnLCAnLW1hJywgJzIwMCcsICctbWV0YWxfYmluZGluZycsICctaW1hZScsICc8aW5maWxlLm1hZT4nLCAnLW9tYWUnLCAnPG91dGZpbGUubWFlPic=

> <r_lp_tautomer_probability>
1

> <r_epik_Ionization_Penalty>
1.19986

> <r_epik_Ionization_Penalty_Charging>
0.069211

> <r_epik_Ionization_Penalty_Neutral>
1.13065

> <r_epik_State_Penalty>
0.776615

> <r_epik_Charging_Adjusted_Penalty>
0.845826

> <i_epik_Tot_Q>
2

> <i_epik_Tot_abs_Q>
2

> <r_epik_Metal_State_Penalty>
4.73559

> <b_epik_Metal_Only>
0

> <s_lp_Force_Field>
OPLS_2005

> <r_lp_Energy>
18.3539

> <b_lp_Chiralities_Consistent>
1

> <s_lp_Variant>
AV-unprocessed.smi:2786-3

> <Gold.Version>
5.8.1

> <Gold.Id.Protein>
6NUR|6NUR_protein|mol2

> <Gold.PLP.Fitness>
37.1191

> <Gold.PLP.PLP>
-28.7096

> <Gold.PLP.part.hbond>
-2.0000

> <Gold.PLP.part.metal>
0.0000

> <Gold.PLP.part.buried>
-3.4736

> <Gold.PLP.part.nonpolar>
-24.1079

> <Gold.PLP.part.repulsive>
0.0907

> <Gold.PLP.ligand.clash>
0.0000

> <Gold.PLP.ligand.torsion>
0.2285

> <Gold.PLP.Chemscore.Hbond>
2.9520

> <Gold.PLP.Chemscore.CHOScore>
0.0000

> <Gold.PLP.Chemscore.Metal>
0.0000

> <Gold.Chemscore.Hbonds>
donor molecule, donor type, donor heavy atom, donor atom, acceptor molecule, acceptor atom, score
      L1  H     5    28       P1  8028  1.95
      L1  H    12    26       P1  8028  0.99

> <Gold.PLP.Chemscore.Internal.Correction>
0.0105

> <Gold.Rescore>
     Score         DG    S(hbond)    S(metal)    S(lipo)     H(rot)  DE(clash)    DE(int)     intcor
     15.72     -15.78       1.73        0.00      60.44       1.00       0.01       0.05       ----

> <Gold.Chemscore.Fitness>
15.7170

> <Gold.Chemscore.DG>
-15.7837

> <Gold.Chemscore.ZeroCoef>
-5.4800

> <Gold.Chemscore.Hbond>
1.7344

> <Gold.Chemscore.Metal>
0.0000

> <Gold.Chemscore.Lipo>
60.4352

> <Gold.Chemscore.Internal_Hbond>
0.0000

> <Gold.Chemscore.DEClash>
0.0137

> <Gold.Chemscore.DEInternal>
0.0530

> <Gold.Chemscore.Rot>
1.0000

> <Gold.Chemscore.Internal.Correction>
   9.000000E+99

> <Gold.Chemscore.Hbonds>
donor molecule, donor type, donor heavy atom, donor atom, acceptor molecule, acceptor atom, score
      L1  H     5    28       P1  8028  0.85
      L1  H    12    26       P1  8028  0.94

> <Gold.Chemscore.Hbond.Weighted>
-5.7928

> <Gold.Chemscore.Metal.Weighted>
-0.0000

> <Gold.Chemscore.Lipo.Weighted>
-7.0709

> <Gold.Chemscore.Internal_Hbond.Weighted>
0.0000

> <Gold.Chemscore.DEClash.Weighted>
0.0137

> <Gold.Chemscore.DEInternal.Weighted>
0.0530

> <Gold.Chemscore.Rot.Weighted>
2.5600

> <Gold.Chemscore.Internal.Correction.Weighted>
   9.000000E+99

> <Gold.Protein.RotatedTorsions>
[ 6907 6896 6895 6894 ] final   49.32 input  -60.11 | X-H torsion
[ 7974 7965 7964 7962 ] final -110.94 input  175.53 | X-H torsion
[ 8008 7997 7996 7995 ] final  -43.72 input   59.86 | X-H torsion
[ 10167 10162 10161 10158 ] final   24.02 input  -65.29 | X-H torsion
[ 10718 10713 10712 10709 ] final  -83.78 input   66.30 | X-H torsion
[ 10763 10752 10751 10750 ] final   99.50 input  -60.55 | X-H torsion
[ 11005 11000 10999 10996 ] final -125.71 input  -57.11 | X-H torsion

> <Gold.Protein.ActiveResidues>
 VAL166  LYS551  ARG553  GLY616  TRP617  ASP618  TYR619  PRO620  LYS621  CYS622 
 ASP623  PHE694  ASN695  SER759  ASP760  ASP761  ALA762  ILE779  LEU786  VAL792 
 PHE793  MET794  SER795  GLU796  ALA797  LYS798  CYS799  TRP800  GLU811  SER814 

> <Gold.Protein.RotatedAtoms>
  152.2895  134.7738  160.0380 H   0  0  0  0  0  0  0  0  0  0  0  0  # atno 6907 bound_to 6896
  151.8289  133.3400  159.3615 H   0  0  0  0  0  0  0  0  0  0  0  0  # atno 6908 bound_to 6896
  150.7224  134.5431  159.5801 H   0  0  0  0  0  0  0  0  0  0  0  0  # atno 6909 bound_to 6896
  145.1621  140.8883  143.3585 H   0  0  0  0  0  0  0  0  0  0  0  0  # atno 7974 bound_to 7965
  154.3997  140.1440  156.3566 H   0  0  0  0  0  0  0  0  0  0  0  0  # atno 8008 bound_to 7997
  155.8220  140.3469  155.5499 H   0  0  0  0  0  0  0  0  0  0  0  0  # atno 8009 bound_to 7997
  155.8278  140.0907  157.1801 H   0  0  0  0  0  0  0  0  0  0  0  0  # atno 8010 bound_to 7997
  140.5222  143.9984  150.6422 H   0  0  0  0  0  0  0  0  0  0  0  0  # atno 10167 bound_to 10162
  156.0014  130.4676  150.4310 H   0  0  0  0  0  0  0  0  0  0  0  0  # atno 10718 bound_to 10713
  153.3022  135.4111  155.1263 H   0  0  0  0  0  0  0  0  0  0  0  0  # atno 10763 bound_to 10752
  154.8552  135.3544  154.5836 H   0  0  0  0  0  0  0  0  0  0  0  0  # atno 10764 bound_to 10752
  153.6262  135.7062  153.5350 H   0  0  0  0  0  0  0  0  0  0  0  0  # atno 10765 bound_to 10752
  140.9740  134.0766  157.3838 H   0  0  0  0  0  0  0  0  0  0  0  0  # atno 11005 bound_to 11000
  145.0320  139.3332  143.6019 LP  0  0  0  0  0  0  0  0  0  0  0  0  # atno 17320 bound_to 7965
  146.3481  139.9662  142.8711 LP  0  0  0  0  0  0  0  0  0  0  0  0  # atno 17321 bound_to 7965
  140.3336  143.3062  152.0662 LP  0  0  0  0  0  0  0  0  0  0  0  0  # atno 17342 bound_to 10162
  139.4927  144.6492  151.6712 LP  0  0  0  0  0  0  0  0  0  0  0  0  # atno 17343 bound_to 10162
  157.2358  131.0514  151.2465 LP  0  0  0  0  0  0  0  0  0  0  0  0  # atno 17370 bound_to 10713
  157.3667  130.7160  149.6537 LP  0  0  0  0  0  0  0  0  0  0  0  0  # atno 17371 bound_to 10713
  139.8923  135.0124  156.6840 LP  0  0  0  0  0  0  0  0  0  0  0  0  # atno 17394 bound_to 11000
  140.7286  133.9078  155.8196 LP  0  0  0  0  0  0  0  0  0  0  0  0  # atno 17395 bound_to 11000

$$$$
