AV-unprocessed.smi:2680|AV-procd|sdf|10372|dock1
  -GOLD-   2272014403D 1   1.00000     0.00000
 Structure written by MMmdl.
 37 38  0  0  0  0  0  0  0  0  2 V2000
  153.2991  142.6548  162.8806 C   0  0  0  0  0  0  0  0  0  0  0  0
  152.7443  143.2800  161.6335 C   0  0  0  0  0  0  0  0  0  0  0  0
  152.1313  144.5573  161.4914 C   0  0  0  0  0  0  0  0  0  0  0  0
  151.7538  144.8121  160.2492 N   0  0  0  0  0  0  0  0  0  0  0  0
  152.1213  143.7155  159.5522 N   0  0  0  0  0  0  0  0  0  0  0  0
  151.8603  143.6476  158.1218 C   0  0  0  0  0  0  0  0  0  0  0  0
  150.8869  142.5185  157.7700 C   0  0  0  0  0  0  0  0  0  0  0  0
  149.8338  142.4199  158.3976 O   0  0  0  0  0  0  0  0  0  0  0  0
  151.2780  141.6975  156.7758 N   0  0  0  0  0  0  0  0  0  0  0  0
  150.6901  140.4713  156.2146 C   0  0  0  0  0  0  0  0  0  0  0  0
  151.9033  139.6727  155.6710 C   0  0  0  0  0  0  0  0  0  0  0  0
  152.8193  139.3829  156.4732 O   0  0  0  0  0  0  0  0  0  0  0  0
  151.9289  139.4040  154.4487 O   0  5  0  0  0  0  0  0  0  0  0  0
  149.8625  139.6160  157.2269 C   0  0  0  0  0  0  0  0  0  0  0  0
  149.1411  138.4250  156.5663 C   0  0  0  0  0  0  0  0  0  0  0  0
  148.2248  138.8959  155.4278 C   0  0  0  0  0  0  0  0  0  0  0  0
  149.0022  139.7264  154.3967 C   0  0  0  0  0  0  0  0  0  0  0  0
  149.7365  140.9061  155.0651 C   0  0  0  0  0  0  0  0  0  0  0  0
  152.7091  142.7692  160.3674 C   0  0  0  0  0  0  0  0  0  0  0  0
  153.1202  143.2743  163.7597 H   0  0  0  0  0  0  0  0  0  0  0  0
  154.3766  142.5049  162.8076 H   0  0  0  0  0  0  0  0  0  0  0  0
  152.8506  141.6809  163.0764 H   0  0  0  0  0  0  0  0  0  0  0  0
  151.9505  145.3030  162.2513 H   0  0  0  0  0  0  0  0  0  0  0  0
  151.4530  144.6072  157.8012 H   0  0  0  0  0  0  0  0  0  0  0  0
  152.7962  143.4961  157.5816 H   0  0  0  0  0  0  0  0  0  0  0  0
  152.1746  141.9272  156.3718 H   0  0  0  0  0  0  0  0  0  0  0  0
  150.4871  139.2527  158.0441 H   0  0  0  0  0  0  0  0  0  0  0  0
  149.0964  140.2402  157.6882 H   0  0  0  0  0  0  0  0  0  0  0  0
  149.8674  137.7075  156.1832 H   0  0  0  0  0  0  0  0  0  0  0  0
  148.5532  137.8919  157.3138 H   0  0  0  0  0  0  0  0  0  0  0  0
  147.7617  138.0367  154.9420 H   0  0  0  0  0  0  0  0  0  0  0  0
  147.4117  139.4950  155.8395 H   0  0  0  0  0  0  0  0  0  0  0  0
  149.7140  139.0877  153.8731 H   0  0  0  0  0  0  0  0  0  0  0  0
  148.3174  140.1032  153.6366 H   0  0  0  0  0  0  0  0  0  0  0  0
  148.9899  141.5933  155.4660 H   0  0  0  0  0  0  0  0  0  0  0  0
  150.2721  141.4781  154.3056 H   0  0  0  0  0  0  0  0  0  0  0  0
  153.0616  141.8247  159.9791 H   0  0  0  0  0  0  0  0  0  0  0  0
  1  2  1  0  0  0  0
  1 20  1  0  0  0  0
  1 21  1  0  0  0  0
  1 22  1  0  0  0  0
  2 19  2  0  0  0  0
  2  3  1  0  0  0  0
  3  4  2  0  0  0  0
  3 23  1  0  0  0  0
  4  5  1  0  0  0  0
  5  6  1  0  0  0  0
  5 19  1  0  0  0  0
  6  7  1  0  0  0  0
  6 24  1  0  0  0  0
  6 25  1  0  0  0  0
  7  8  2  0  0  0  0
  7  9  1  0  0  0  0
  9 10  1  0  0  0  0
  9 26  1  0  0  0  0
 10 18  1  0  0  0  0
 10 11  1  0  0  0  0
 10 14  1  0  0  0  0
 11 12  2  0  0  0  0
 11 13  1  0  0  0  0
 14 15  1  0  0  0  0
 14 27  1  0  0  0  0
 14 28  1  0  0  0  0
 15 16  1  0  0  0  0
 15 29  1  0  0  0  0
 15 30  1  0  0  0  0
 16 17  1  0  0  0  0
 16 31  1  0  0  0  0
 16 32  1  0  0  0  0
 17 18  1  0  0  0  0
 17 33  1  0  0  0  0
 17 34  1  0  0  0  0
 18 35  1  0  0  0  0
 18 36  1  0  0  0  0
 19 37  1  0  0  0  0
M  CHG  1  13  -1
M  END
> <s_m_source_file>
AV-unprocessed.smi

> <i_m_source_file_index>
2680

> <i_lp_mmshare_version>
43012

> <i_f3d_flags>
0

> <s_epik_input>
W0NIM11jMVtjSF1ubihbY0hdMSlbQ0gyXUMoPU8pW05IXUMyKEMoPU8pW09IXSlbQ0gyXVtDSDJdW0NIMl1bQ0gyXVtDSDJdMg==

> <s_epik_cmdline>
J2VwaWtfcHl0aG9uJywgJy1waCcsICc3LjAnLCAnLXRuJywgJzgnLCAnLW1hJywgJzIwMCcsICctbWV0YWxfYmluZGluZycsICctaW1hZScsICc8aW5maWxlLm1hZT4nLCAnLW9tYWUnLCAnPG91dGZpbGUubWFlPic=

> <r_lp_tautomer_probability>
1

> <r_epik_Ionization_Penalty>
0.000361632

> <r_epik_Ionization_Penalty_Charging>
0.000323848

> <r_epik_Ionization_Penalty_Neutral>
3.77838e-05

> <r_epik_State_Penalty>
0.000195685

> <r_epik_Charging_Adjusted_Penalty>
0.000519533

> <i_epik_Tot_Q>
-1

> <i_epik_Tot_abs_Q>
1

> <r_epik_Metal_State_Penalty>
-0

> <b_epik_Metal_Only>
0

> <s_lp_Force_Field>
OPLS_2005

> <r_lp_Energy>
4.37628

> <b_lp_Chiralities_Consistent>
1

> <s_lp_Variant>
AV-unprocessed.smi:2680-1

> <Gold.Version>
5.8.1

> <Gold.Id.Protein>
6NUR|6NUR_protein|mol2

> <Gold.PLP.Fitness>
45.9529

> <Gold.PLP.PLP>
-38.5447

> <Gold.PLP.part.hbond>
-2.0000

> <Gold.PLP.part.metal>
0.0000

> <Gold.PLP.part.buried>
-2.5641

> <Gold.PLP.part.nonpolar>
-32.6332

> <Gold.PLP.part.repulsive>
0.4065

> <Gold.PLP.ligand.clash>
0.0000

> <Gold.PLP.ligand.torsion>
0.7429

> <Gold.PLP.Chemscore.Hbond>
2.9440

> <Gold.PLP.Chemscore.CHOScore>
0.0000

> <Gold.PLP.Chemscore.Metal>
0.0000

> <Gold.Chemscore.Hbonds>
donor molecule, donor type, donor heavy atom, donor atom, acceptor molecule, acceptor atom, score
      P1  H  7989  7998       L1    13  0.93
      P1  H  7997  8009       L1    12  2.00

> <Gold.PLP.Chemscore.Internal.Correction>
0.0620

> <Gold.Rescore>
     Score         DG    S(hbond)    S(metal)    S(lipo)     H(rot)  DE(clash)    DE(int)     intcor
     12.92     -16.18       1.85        0.00      81.59       1.96       0.51       2.75       ----

> <Gold.Chemscore.Fitness>
12.9163

> <Gold.Chemscore.DG>
-16.1767

> <Gold.Chemscore.ZeroCoef>
-5.4800

> <Gold.Chemscore.Hbond>
1.8485

> <Gold.Chemscore.Metal>
0.0000

> <Gold.Chemscore.Lipo>
81.5900

> <Gold.Chemscore.Internal_Hbond>
0.0000

> <Gold.Chemscore.DEClash>
0.5089

> <Gold.Chemscore.DEInternal>
2.7515

> <Gold.Chemscore.Rot>
1.9622

> <Gold.Chemscore.Internal.Correction>
   9.000000E+99

> <Gold.Chemscore.Hbonds>
donor molecule, donor type, donor heavy atom, donor atom, acceptor molecule, acceptor atom, score
      P1  H  7989  7998       L1    13  0.70
      P1  H  7997  8009       L1    12  0.96

> <Gold.Chemscore.Hbond.Weighted>
-6.1740

> <Gold.Chemscore.Metal.Weighted>
-0.0000

> <Gold.Chemscore.Lipo.Weighted>
-9.5460

> <Gold.Chemscore.Internal_Hbond.Weighted>
0.0000

> <Gold.Chemscore.DEClash.Weighted>
0.5089

> <Gold.Chemscore.DEInternal.Weighted>
2.7515

> <Gold.Chemscore.Rot.Weighted>
5.0233

> <Gold.Chemscore.Internal.Correction.Weighted>
   9.000000E+99

> <Gold.Protein.RotatedTorsions>
[ 6907 6896 6895 6894 ] final  -34.46 input  -60.11 | X-H torsion
[ 7974 7965 7964 7962 ] final    4.63 input  175.53 | X-H torsion
[ 8008 7997 7996 7995 ] final -157.09 input   59.86 | X-H torsion
[ 10167 10162 10161 10158 ] final  -26.13 input  -65.29 | X-H torsion
[ 10718 10713 10712 10709 ] final -123.77 input   66.30 | X-H torsion
[ 10763 10752 10751 10750 ] final -168.99 input  -60.55 | X-H torsion
[ 11005 11000 10999 10996 ] final   92.19 input  -57.11 | X-H torsion

> <Gold.Protein.ActiveResidues>
 VAL166  LYS551  ARG553  GLY616  TRP617  ASP618  TYR619  PRO620  LYS621  CYS622 
 ASP623  PHE694  ASN695  SER759  ASP760  ASP761  ALA762  ILE779  LEU786  VAL792 
 PHE793  MET794  SER795  GLU796  ALA797  LYS798  CYS799  TRP800  GLU811  SER814 

> <Gold.Protein.RotatedAtoms>
  151.0523  134.9681  159.8217 H   0  0  0  0  0  0  0  0  0  0  0  0  # atno 6907 bound_to 6896
  152.5382  134.2522  159.8913 H   0  0  0  0  0  0  0  0  0  0  0  0  # atno 6908 bound_to 6896
  151.2538  133.4293  159.2646 H   0  0  0  0  0  0  0  0  0  0  0  0  # atno 6909 bound_to 6896
  146.2443  140.0505  142.8375 H   0  0  0  0  0  0  0  0  0  0  0  0  # atno 7974 bound_to 7965
  155.7271  140.0797  157.2305 H   0  0  0  0  0  0  0  0  0  0  0  0  # atno 8008 bound_to 7997
  154.4037  140.1602  156.2522 H   0  0  0  0  0  0  0  0  0  0  0  0  # atno 8009 bound_to 7997
  155.9143  140.3402  155.6125 H   0  0  0  0  0  0  0  0  0  0  0  0  # atno 8010 bound_to 7997
  140.7284  143.4205  151.0960 H   0  0  0  0  0  0  0  0  0  0  0  0  # atno 10167 bound_to 10162
  156.1530  130.6548  150.9941 H   0  0  0  0  0  0  0  0  0  0  0  0  # atno 10718 bound_to 10713
  154.6570  135.2919  154.9915 H   0  0  0  0  0  0  0  0  0  0  0  0  # atno 10763 bound_to 10752
  154.0987  135.6580  153.4868 H   0  0  0  0  0  0  0  0  0  0  0  0  # atno 10764 bound_to 10752
  153.0408  135.5237  154.7504 H   0  0  0  0  0  0  0  0  0  0  0  0  # atno 10765 bound_to 10752
  139.8827  134.8718  156.3536 H   0  0  0  0  0  0  0  0  0  0  0  0  # atno 11005 bound_to 11000
  145.0989  140.9333  143.4725 LP  0  0  0  0  0  0  0  0  0  0  0  0  # atno 17320 bound_to 7965
  145.0693  139.3044  143.5840 LP  0  0  0  0  0  0  0  0  0  0  0  0  # atno 17321 bound_to 7965
  139.7850  143.8301  152.3143 LP  0  0  0  0  0  0  0  0  0  0  0  0  # atno 17342 bound_to 10162
  139.8265  144.7273  150.9505 LP  0  0  0  0  0  0  0  0  0  0  0  0  # atno 17343 bound_to 10162
  157.6672  131.0869  150.7699 LP  0  0  0  0  0  0  0  0  0  0  0  0  # atno 17370 bound_to 10713
  156.7766  130.4846  149.5408 LP  0  0  0  0  0  0  0  0  0  0  0  0  # atno 17371 bound_to 10713
  140.9577  133.7409  156.0358 LP  0  0  0  0  0  0  0  0  0  0  0  0  # atno 17394 bound_to 11000
  140.8028  134.3489  157.5434 LP  0  0  0  0  0  0  0  0  0  0  0  0  # atno 17395 bound_to 11000

$$$$
