AV-unprocessed.smi:2290|AV-procd|sdf|9211|dock2
  -GOLD-   2272012433D 1   1.00000     0.00000
 Structure written by MMmdl.
 38 39  0  0  0  0  0  0  0  0  1 V2000
  151.8882  144.0010  160.7215 C   0  0  0  0  0  0  0  0  0  0  0  0
  151.8490  143.0525  159.5365 C   0  0  0  0  0  0  0  0  0  0  0  0
  151.0404  143.4529  158.4688 N   0  0  0  0  0  0  0  0  0  0  0  0
  150.9460  142.7076  157.4165 C   0  0  0  0  0  0  0  0  0  0  0  0
  151.6415  141.4925  157.3082 N   0  0  0  0  0  0  0  0  0  0  0  0
  151.4396  140.7351  156.0621 C   0  0  0  0  0  0  0  0  0  0  0  0
  150.0862  141.0670  155.3944 C   0  0  1  0  0  0  0  0  0  0  0  0
  150.0633  140.5946  154.0628 O   0  0  0  0  0  0  0  0  0  0  0  0
  148.8849  140.4474  156.1264 C   0  0  0  0  0  0  0  0  0  0  0  0
  147.7936  141.3534  156.1131 O   0  0  0  0  0  0  0  0  0  0  0  0
  147.0040  141.2478  154.9402 C   0  0  0  0  0  0  0  0  0  0  0  0
  145.9304  142.2888  155.0060 C   0  0  0  0  0  0  0  0  0  0  0  0
  144.9896  142.4304  155.9940 C   0  0  0  0  0  0  0  0  0  0  0  0
  144.0933  143.5163  155.7697 C   0  0  0  0  0  0  0  0  0  0  0  0
  144.3580  144.1923  154.6089 C   0  0  0  0  0  0  0  0  0  0  0  0
  145.7171  143.5038  153.7644 S   0  0  0  0  0  0  0  0  0  0  0  0
  152.4436  141.0226  158.3069 C   0  0  0  0  0  0  0  0  0  0  0  0
  153.0348  139.9454  158.2089 O   0  0  0  0  0  0  0  0  0  0  0  0
  152.5454  141.8837  159.4963 C   0  0  0  0  0  0  0  0  0  0  0  0
  153.4412  141.3963  160.6284 C   0  0  0  0  0  0  0  0  0  0  0  0
  152.9043  144.3582  160.8911 H   0  0  0  0  0  0  0  0  0  0  0  0
  151.5392  143.4987  161.6239 H   0  0  0  0  0  0  0  0  0  0  0  0
  151.2512  144.8709  160.5563 H   0  0  0  0  0  0  0  0  0  0  0  0
  150.3245  142.9715  156.5590 H   0  0  0  0  0  0  0  0  0  0  0  0
  152.2609  140.8782  155.3564 H   0  0  0  0  0  0  0  0  0  0  0  0
  151.4734  139.6694  156.2972 H   0  0  0  0  0  0  0  0  0  0  0  0
  149.9353  142.1466  155.3605 H   0  0  0  0  0  0  0  0  0  0  0  0
  149.1621  140.5361  153.7833 H   0  0  0  0  0  0  0  0  0  0  0  0
  148.5881  139.5309  155.6142 H   0  0  0  0  0  0  0  0  0  0  0  0
  149.1517  140.1723  157.1484 H   0  0  0  0  0  0  0  0  0  0  0  0
  147.6189  141.4024  154.0524 H   0  0  0  0  0  0  0  0  0  0  0  0
  146.5588  140.2541  154.8717 H   0  0  0  0  0  0  0  0  0  0  0  0
  144.9149  141.7957  156.8648 H   0  0  0  0  0  0  0  0  0  0  0  0
  143.2966  143.7594  156.4574 H   0  0  0  0  0  0  0  0  0  0  0  0
  143.8398  145.0468  154.1995 H   0  0  0  0  0  0  0  0  0  0  0  0
  153.0779  140.4420  161.0108 H   0  0  0  0  0  0  0  0  0  0  0  0
  153.4902  142.0892  161.4666 H   0  0  0  0  0  0  0  0  0  0  0  0
  154.4589  141.2495  160.2656 H   0  0  0  0  0  0  0  0  0  0  0  0
  1  2  1  0  0  0  0
  1 21  1  0  0  0  0
  1 22  1  0  0  0  0
  1 23  1  0  0  0  0
  2 19  2  0  0  0  0
  2  3  1  0  0  0  0
  3  4  2  0  0  0  0
  4  5  1  0  0  0  0
  4 24  1  0  0  0  0
  5  6  1  0  0  0  0
  5 17  1  0  0  0  0
  6  7  1  0  0  0  0
  6 25  1  0  0  0  0
  6 26  1  0  0  0  0
  7  8  1  0  0  0  0
  7  9  1  0  0  0  0
  7 27  1  0  0  0  0
  8 28  1  0  0  0  0
  9 10  1  0  0  0  0
  9 29  1  0  0  0  0
  9 30  1  0  0  0  0
 10 11  1  0  0  0  0
 11 12  1  0  0  0  0
 11 31  1  0  0  0  0
 11 32  1  0  0  0  0
 12 16  1  0  0  0  0
 12 13  2  0  0  0  0
 13 14  1  0  0  0  0
 13 33  1  0  0  0  0
 14 15  2  0  0  0  0
 14 34  1  0  0  0  0
 15 16  1  0  0  0  0
 15 35  1  0  0  0  0
 17 18  2  0  0  0  0
 17 19  1  0  0  0  0
 19 20  1  0  0  0  0
 20 36  1  0  0  0  0
 20 37  1  0  0  0  0
 20 38  1  0  0  0  0
M  END
> <s_m_source_file>
AV-unprocessed.smi

> <i_m_source_file_index>
2290

> <i_lp_mmshare_version>
43012

> <i_f3d_flags>
0

> <s_epik_input>
W0NIM11jMW5bY0hdbihjKD1PKWMxW0NIM10pW0NIMl1bQ0BIXShbT0hdKVtDSDJdT1tDSDJdYzJbY0hdW2NIXVtjSF1zMg==

> <s_epik_cmdline>
J2VwaWtfcHl0aG9uJywgJy1waCcsICc3LjAnLCAnLXRuJywgJzgnLCAnLW1hJywgJzIwMCcsICctbWV0YWxfYmluZGluZycsICctaW1hZScsICc8aW5maWxlLm1hZT4nLCAnLW9tYWUnLCAnPG91dGZpbGUubWFlPic=

> <r_lp_tautomer_probability>
1

> <r_epik_Ionization_Penalty>
4.77825e-05

> <r_epik_Ionization_Penalty_Charging>
1.20754e-07

> <r_epik_Ionization_Penalty_Neutral>
4.76618e-05

> <r_epik_State_Penalty>
-0

> <r_epik_Charging_Adjusted_Penalty>
1.20754e-07

> <i_epik_Tot_Q>
0

> <i_epik_Tot_abs_Q>
0

> <r_epik_Metal_State_Penalty>
-0

> <b_epik_Metal_Only>
0

> <s_lp_Force_Field>
OPLS_2005

> <r_lp_Energy>
16.3979

> <b_lp_Chiralities_Consistent>
1

> <s_lp_Variant>
AV-unprocessed.smi:2290-2

> <Gold.Version>
5.8.1

> <Gold.Id.Protein>
6NUR|6NUR_protein|mol2

> <Gold.PLP.Fitness>
48.5486

> <Gold.PLP.PLP>
-42.3831

> <Gold.PLP.part.hbond>
-3.0000

> <Gold.PLP.part.metal>
0.0000

> <Gold.PLP.part.buried>
-6.6531

> <Gold.PLP.part.nonpolar>
-31.6489

> <Gold.PLP.part.repulsive>
0.2241

> <Gold.PLP.ligand.clash>
0.2835

> <Gold.PLP.ligand.torsion>
1.1180

> <Gold.PLP.Chemscore.Hbond>
1.8320

> <Gold.PLP.Chemscore.CHOScore>
1.0000

> <Gold.PLP.Chemscore.Metal>
0.0000

> <Gold.Chemscore.Hbonds>
donor molecule, donor type, donor heavy atom, donor atom, acceptor molecule, acceptor atom, score
      P1  H  7989  7998       L1     8  0.72
      P1  H  7997  8010       L1    18  1.00
      L1  C     4    24       P1  8028  1.00

> <Gold.PLP.Chemscore.Internal.Correction>
0.1889

> <Gold.Rescore>
     Score         DG    S(hbond)    S(metal)    S(lipo)     H(rot)  DE(clash)    DE(int)     intcor
     13.57     -14.70       1.61        0.00      88.62       2.55       0.13       1.00       ----

> <Gold.Chemscore.Fitness>
13.5719

> <Gold.Chemscore.DG>
-14.7008

> <Gold.Chemscore.ZeroCoef>
-5.4800

> <Gold.Chemscore.Hbond>
1.6114

> <Gold.Chemscore.Metal>
0.0000

> <Gold.Chemscore.Lipo>
88.6208

> <Gold.Chemscore.Internal_Hbond>
0.0000

> <Gold.Chemscore.DEClash>
0.1254

> <Gold.Chemscore.DEInternal>
1.0035

> <Gold.Chemscore.Rot>
2.5507

> <Gold.Chemscore.Internal.Correction>
   9.000000E+99

> <Gold.Chemscore.Hbonds>
donor molecule, donor type, donor heavy atom, donor atom, acceptor molecule, acceptor atom, score
      P1  H  7989  7998       L1     8  0.36
      P1  H  7997  8010       L1    18  0.80

> <Gold.Chemscore.Hbond.Weighted>
-5.3820

> <Gold.Chemscore.Metal.Weighted>
-0.0000

> <Gold.Chemscore.Lipo.Weighted>
-10.3686

> <Gold.Chemscore.Internal_Hbond.Weighted>
0.0000

> <Gold.Chemscore.DEClash.Weighted>
0.1254

> <Gold.Chemscore.DEInternal.Weighted>
1.0035

> <Gold.Chemscore.Rot.Weighted>
6.5298

> <Gold.Chemscore.Internal.Correction.Weighted>
   9.000000E+99

> <Gold.Protein.RotatedTorsions>
[ 6907 6896 6895 6894 ] final  161.92 input  -60.11 | X-H torsion
[ 7974 7965 7964 7962 ] final  158.18 input  175.53 | X-H torsion
[ 8008 7997 7996 7995 ] final   34.26 input   59.86 | X-H torsion
[ 10167 10162 10161 10158 ] final   56.20 input  -65.29 | X-H torsion
[ 10718 10713 10712 10709 ] final  -19.52 input   66.30 | X-H torsion
[ 10763 10752 10751 10750 ] final   -8.14 input  -60.55 | X-H torsion
[ 11005 11000 10999 10996 ] final  113.22 input  -57.11 | X-H torsion

> <Gold.Protein.ActiveResidues>
 VAL166  LYS551  ARG553  GLY616  TRP617  ASP618  TYR619  PRO620  LYS621  CYS622 
 ASP623  PHE694  ASN695  SER759  ASP760  ASP761  ALA762  ILE779  LEU786  VAL792 
 PHE793  MET794  SER795  GLU796  ALA797  LYS798  CYS799  TRP800  GLU811  SER814 

> <Gold.Protein.RotatedAtoms>
  151.9482  133.3658  159.3990 H   0  0  0  0  0  0  0  0  0  0  0  0  # atno 6907 bound_to 6896
  150.6985  134.4367  159.5283 H   0  0  0  0  0  0  0  0  0  0  0  0  # atno 6908 bound_to 6896
  152.2036  134.8565  160.0556 H   0  0  0  0  0  0  0  0  0  0  0  0  # atno 6909 bound_to 6896
  144.7860  139.7443  143.6240 H   0  0  0  0  0  0  0  0  0  0  0  0  # atno 7974 bound_to 7965
  155.1519  140.3275  155.4429 H   0  0  0  0  0  0  0  0  0  0  0  0  # atno 8008 bound_to 7997
  156.2571  140.1975  156.6580 H   0  0  0  0  0  0  0  0  0  0  0  0  # atno 8009 bound_to 7997
  154.6467  140.0563  156.9895 H   0  0  0  0  0  0  0  0  0  0  0  0  # atno 8010 bound_to 7997
  140.2113  144.3886  150.6487 H   0  0  0  0  0  0  0  0  0  0  0  0  # atno 10167 bound_to 10162
  156.5446  130.4686  149.6482 H   0  0  0  0  0  0  0  0  0  0  0  0  # atno 10718 bound_to 10713
  153.4362  135.7013  153.6198 H   0  0  0  0  0  0  0  0  0  0  0  0  # atno 10763 bound_to 10752
  153.4592  135.3740  155.2329 H   0  0  0  0  0  0  0  0  0  0  0  0  # atno 10764 bound_to 10752
  154.8726  135.4016  154.3753 H   0  0  0  0  0  0  0  0  0  0  0  0  # atno 10765 bound_to 10752
  139.8947  134.9545  156.6706 H   0  0  0  0  0  0  0  0  0  0  0  0  # atno 11005 bound_to 11000
  146.2092  139.5437  142.9692 LP  0  0  0  0  0  0  0  0  0  0  0  0  # atno 17320 bound_to 7965
  145.5920  141.0368  143.2065 LP  0  0  0  0  0  0  0  0  0  0  0  0  # atno 17321 bound_to 7965
  140.6321  143.2189  151.6473 LP  0  0  0  0  0  0  0  0  0  0  0  0  # atno 17342 bound_to 10162
  139.5179  144.3302  152.0833 LP  0  0  0  0  0  0  0  0  0  0  0  0  # atno 17343 bound_to 10162
  156.2940  130.7140  151.1996 LP  0  0  0  0  0  0  0  0  0  0  0  0  # atno 17370 bound_to 10713
  157.7399  131.0523  150.5202 LP  0  0  0  0  0  0  0  0  0  0  0  0  # atno 17371 bound_to 10713
  140.7376  133.9005  155.8255 LP  0  0  0  0  0  0  0  0  0  0  0  0  # atno 17394 bound_to 11000
  141.0103  134.1029  157.4228 LP  0  0  0  0  0  0  0  0  0  0  0  0  # atno 17395 bound_to 11000

$$$$
