AV-unprocessed.smi:790|AV-procd|sdf|3744|dock3
  -GOLD-   22720 1173D 1   1.00000     0.00000
 Structure written by MMmdl.
 38 40  0  0  0  0  0  0  0  0  1 V2000
  145.4555  137.1628  154.4330 O   0  0  0  0  0  0  0  0  0  0  0  0
  146.3588  136.9486  153.6254 C   0  0  0  0  0  0  0  0  0  0  0  0
  147.3626  137.7954  153.3388 N   0  0  0  0  0  0  0  0  0  0  0  0
  147.5865  139.1087  153.8344 C   0  0  0  0  0  0  0  0  0  0  0  0
  148.8636  139.6463  154.1267 C   0  0  0  0  0  0  0  0  0  0  0  0
  148.9495  140.9576  154.6328 C   0  0  0  0  0  0  0  0  0  0  0  0
  147.7581  141.6803  154.8356 C   0  0  0  0  0  0  0  0  0  0  0  0
  146.5337  141.1763  154.5735 N   0  0  0  0  0  0  0  0  0  0  0  0
  146.4592  139.9187  154.0883 C   0  0  0  0  0  0  0  0  0  0  0  0
  146.4751  135.8132  152.9232 N   0  0  0  0  0  0  0  0  0  0  0  0
  145.5640  134.6678  152.9845 C   0  0  2  0  0  0  0  0  0  0  0  0
  146.3086  133.3247  153.1926 C   0  0  2  0  0  0  0  0  0  0  0  0
  147.4797  133.1697  152.1990 C   0  0  0  0  0  0  0  0  0  0  0  0
  146.7542  132.9757  150.8550 C   0  0  0  0  0  0  0  0  0  0  0  0
  145.2643  132.9992  151.2585 C   0  0  1  0  0  0  0  0  0  0  0  0
  145.3155  132.3175  152.6208 C   0  0  0  0  0  0  0  0  0  0  0  0
  144.7901  134.4176  151.6596 C   0  0  2  0  0  0  0  0  0  0  0  0
  144.8891  135.5049  150.5658 C   0  0  0  0  0  0  0  0  0  0  0  0
  144.1614  135.1148  149.4206 O   0  0  0  0  0  0  0  0  0  0  0  0
  148.0770  137.4419  152.7193 H   0  0  0  0  0  0  0  0  0  0  0  0
  149.7722  139.0816  153.9888 H   0  0  0  0  0  0  0  0  0  0  0  0
  149.9081  141.3976  154.8653 H   0  0  0  0  0  0  0  0  0  0  0  0
  147.7892  142.6875  155.2242 H   0  0  0  0  0  0  0  0  0  0  0  0
  145.4633  139.5477  153.8932 H   0  0  0  0  0  0  0  0  0  0  0  0
  147.2572  135.7295  152.2905 H   0  0  0  0  0  0  0  0  0  0  0  0
  144.8384  134.7968  153.7898 H   0  0  0  0  0  0  0  0  0  0  0  0
  146.5949  133.1438  154.2290 H   0  0  0  0  0  0  0  0  0  0  0  0
  148.1679  134.0147  152.1904 H   0  0  0  0  0  0  0  0  0  0  0  0
  148.0657  132.2820  152.4409 H   0  0  0  0  0  0  0  0  0  0  0  0
  147.0149  133.7384  150.1228 H   0  0  0  0  0  0  0  0  0  0  0  0
  147.0173  132.0099  150.4218 H   0  0  0  0  0  0  0  0  0  0  0  0
  144.6100  132.5116  150.5350 H   0  0  0  0  0  0  0  0  0  0  0  0
  145.7038  131.2979  152.5814 H   0  0  0  0  0  0  0  0  0  0  0  0
  144.3561  132.3110  153.1415 H   0  0  0  0  0  0  0  0  0  0  0  0
  143.7325  134.3404  151.9197 H   0  0  0  0  0  0  0  0  0  0  0  0
  144.4674  136.4415  150.9324 H   0  0  0  0  0  0  0  0  0  0  0  0
  145.9197  135.7138  150.2812 H   0  0  0  0  0  0  0  0  0  0  0  0
  144.7407  135.1349  148.6741 H   0  0  0  0  0  0  0  0  0  0  0  0
  1  2  2  0  0  0  0
  2  3  1  0  0  0  0
  2 10  1  0  0  0  0
  3  4  1  0  0  0  0
  3 20  1  0  0  0  0
  4  9  1  0  0  0  0
  4  5  2  0  0  0  0
  5  6  1  0  0  0  0
  5 21  1  0  0  0  0
  6  7  2  0  0  0  0
  6 22  1  0  0  0  0
  7  8  1  0  0  0  0
  7 23  1  0  0  0  0
  8  9  2  0  0  0  0
  9 24  1  0  0  0  0
 10 11  1  0  0  0  0
 10 25  1  0  0  0  0
 11 17  1  0  0  0  0
 11 12  1  0  0  0  0
 11 26  1  0  0  0  0
 12 16  1  0  0  0  0
 12 13  1  0  0  0  0
 12 27  1  0  0  0  0
 13 14  1  0  0  0  0
 13 28  1  0  0  0  0
 13 29  1  0  0  0  0
 14 15  1  0  0  0  0
 14 30  1  0  0  0  0
 14 31  1  0  0  0  0
 15 16  1  0  0  0  0
 15 17  1  0  0  0  0
 15 32  1  0  0  0  0
 16 33  1  0  0  0  0
 16 34  1  0  0  0  0
 17 18  1  0  0  0  0
 17 35  1  0  0  0  0
 18 19  1  0  0  0  0
 18 36  1  0  0  0  0
 18 37  1  0  0  0  0
 19 38  1  0  0  0  0
M  END
> <s_m_source_file>
AV-unprocessed.smi

> <i_m_source_file_index>
790

> <i_lp_mmshare_version>
43012

> <i_f3d_flags>
0

> <s_epik_input>
W0NIMl0xW0NIMl1bQ0BASF0oW0NIMl0yKVtDQEBIXShbQ0gyXVtPSF0pW0NAQEhdKFtDQEhdMTIpW05IXUMoPU8pW05IXWMzW2NIXVtjSF1bY0hdbltjSF0z

> <s_epik_cmdline>
J2VwaWtfcHl0aG9uJywgJy1waCcsICc3LjAnLCAnLXRuJywgJzgnLCAnLW1hJywgJzIwMCcsICctbWV0YWxfYmluZGluZycsICctaW1hZScsICc8aW5maWxlLm1hZT4nLCAnLW9tYWUnLCAnPG91dGZpbGUubWFlPic=

> <r_epik_Ionization_Penalty>
0.00497582

> <r_epik_Ionization_Penalty_Charging>
0

> <r_epik_Ionization_Penalty_Neutral>
0.00497582

> <r_epik_State_Penalty>
0.00358602

> <r_epik_Charging_Adjusted_Penalty>
0.00358602

> <i_epik_Tot_Q>
0

> <i_epik_Tot_abs_Q>
0

> <r_epik_Metal_State_Penalty>
-0

> <b_epik_Metal_Only>
0

> <s_lp_Force_Field>
OPLS_2005

> <r_lp_Energy>
54.3883

> <b_lp_Chiralities_Consistent>
1

> <s_lp_Variant>
AV-unprocessed.smi:790-5

> <Gold.Version>
5.8.1

> <Gold.Id.Protein>
6NUR|6NUR_protein|mol2

> <Gold.PLP.Fitness>
42.6553

> <Gold.PLP.PLP>
-28.4282

> <Gold.PLP.part.hbond>
-3.5701

> <Gold.PLP.part.metal>
0.0000

> <Gold.PLP.part.buried>
-1.8728

> <Gold.PLP.part.nonpolar>
-24.5329

> <Gold.PLP.part.repulsive>
0.2219

> <Gold.PLP.ligand.clash>
0.0000

> <Gold.PLP.ligand.torsion>
0.3231

> <Gold.PLP.Chemscore.Hbond>
2.9600

> <Gold.PLP.Chemscore.CHOScore>
1.9941

> <Gold.PLP.Chemscore.Metal>
0.0000

> <Gold.Chemscore.Hbonds>
donor molecule, donor type, donor heavy atom, donor atom, acceptor molecule, acceptor atom, score
      L1  H     3    20       P1  7948  1.00
      L1  H    10    25       P1  7948  0.99
      L1  H    19    38       P1  7921  1.00
      L1  C     7    23       P1  8028  1.00
      L1  C     9    24       P1 10175  1.00

> <Gold.PLP.Chemscore.Internal.Correction>
0.0109

> <Gold.Rescore>
     Score         DG    S(hbond)    S(metal)    S(lipo)     H(rot)  DE(clash)    DE(int)     intcor
     17.72     -19.34       2.93        0.00      73.86       1.78       0.08       1.54       ----

> <Gold.Chemscore.Fitness>
17.7175

> <Gold.Chemscore.DG>
-19.3413

> <Gold.Chemscore.ZeroCoef>
-5.4800

> <Gold.Chemscore.Hbond>
2.9259

> <Gold.Chemscore.Metal>
0.0000

> <Gold.Chemscore.Lipo>
73.8568

> <Gold.Chemscore.Internal_Hbond>
0.0000

> <Gold.Chemscore.DEClash>
0.0796

> <Gold.Chemscore.DEInternal>
1.5442

> <Gold.Chemscore.Rot>
1.7783

> <Gold.Chemscore.Internal.Correction>
   9.000000E+99

> <Gold.Chemscore.Hbonds>
donor molecule, donor type, donor heavy atom, donor atom, acceptor molecule, acceptor atom, score
      L1  H     3    20       P1  7948  0.99
      L1  H    10    25       P1  7948  0.93
      L1  H    19    38       P1  7921  1.00

> <Gold.Chemscore.Hbond.Weighted>
-9.7726

> <Gold.Chemscore.Metal.Weighted>
-0.0000

> <Gold.Chemscore.Lipo.Weighted>
-8.6412

> <Gold.Chemscore.Internal_Hbond.Weighted>
0.0000

> <Gold.Chemscore.DEClash.Weighted>
0.0796

> <Gold.Chemscore.DEInternal.Weighted>
1.5442

> <Gold.Chemscore.Rot.Weighted>
4.5525

> <Gold.Chemscore.Internal.Correction.Weighted>
   9.000000E+99

> <Gold.Protein.RotatedTorsions>
[ 6907 6896 6895 6894 ] final -103.46 input  -60.11 | X-H torsion
[ 7974 7965 7964 7962 ] final  -70.77 input  175.53 | X-H torsion
[ 8008 7997 7996 7995 ] final  -74.26 input   59.86 | X-H torsion
[ 10167 10162 10161 10158 ] final  -58.43 input  -65.29 | X-H torsion
[ 10718 10713 10712 10709 ] final   -1.74 input   66.30 | X-H torsion
[ 10763 10752 10751 10750 ] final   43.88 input  -60.55 | X-H torsion
[ 11005 11000 10999 10996 ] final  -87.56 input  -57.11 | X-H torsion

> <Gold.Protein.ActiveResidues>
 VAL166  LYS551  ARG553  GLY616  TRP617  ASP618  TYR619  PRO620  LYS621  CYS622 
 ASP623  PHE694  ASN695  SER759  ASP760  ASP761  ALA762  ILE779  LEU786  VAL792 
 PHE793  MET794  SER795  GLU796  ALA797  LYS798  CYS799  TRP800  GLU811  SER814 

> <Gold.Protein.RotatedAtoms>
  150.7241  134.0425  159.3770 H   0  0  0  0  0  0  0  0  0  0  0  0  # atno 6907 bound_to 6896
  151.8399  135.0591  160.0456 H   0  0  0  0  0  0  0  0  0  0  0  0  # atno 6908 bound_to 6896
  152.2870  133.5489  159.5570 H   0  0  0  0  0  0  0  0  0  0  0  0  # atno 6909 bound_to 6896
  145.6867  140.9168  143.0803 H   0  0  0  0  0  0  0  0  0  0  0  0  # atno 7974 bound_to 7965
  154.5315  140.0764  156.8354 H   0  0  0  0  0  0  0  0  0  0  0  0  # atno 8008 bound_to 7997
  155.3364  140.3405  155.4221 H   0  0  0  0  0  0  0  0  0  0  0  0  # atno 8009 bound_to 7997
  156.1786  140.1644  156.8303 H   0  0  0  0  0  0  0  0  0  0  0  0  # atno 8010 bound_to 7997
  140.6198  143.2415  151.5509 H   0  0  0  0  0  0  0  0  0  0  0  0  # atno 10167 bound_to 10162
  156.8012  130.5393  149.5721 H   0  0  0  0  0  0  0  0  0  0  0  0  # atno 10718 bound_to 10713
  152.9852  135.6088  154.3183 H   0  0  0  0  0  0  0  0  0  0  0  0  # atno 10763 bound_to 10752
  154.2894  135.2775  155.2663 H   0  0  0  0  0  0  0  0  0  0  0  0  # atno 10764 bound_to 10752
  154.4966  135.5878  153.6555 H   0  0  0  0  0  0  0  0  0  0  0  0  # atno 10765 bound_to 10752
  141.1615  133.7518  156.9325 H   0  0  0  0  0  0  0  0  0  0  0  0  # atno 11005 bound_to 11000
  144.7009  139.8767  143.7444 LP  0  0  0  0  0  0  0  0  0  0  0  0  # atno 17320 bound_to 7965
  146.0918  139.3908  143.0401 LP  0  0  0  0  0  0  0  0  0  0  0  0  # atno 17321 bound_to 7965
  139.5428  144.2600  152.1385 LP  0  0  0  0  0  0  0  0  0  0  0  0  # atno 17342 bound_to 10162
  140.1817  144.4837  150.6524 LP  0  0  0  0  0  0  0  0  0  0  0  0  # atno 17343 bound_to 10162
  156.1100  130.6033  151.0032 LP  0  0  0  0  0  0  0  0  0  0  0  0  # atno 17370 bound_to 10713
  157.6553  131.0890  150.7961 LP  0  0  0  0  0  0  0  0  0  0  0  0  # atno 17371 bound_to 10713
  140.1377  134.9314  157.2424 LP  0  0  0  0  0  0  0  0  0  0  0  0  # atno 17394 bound_to 11000
  140.2875  134.3279  155.7325 LP  0  0  0  0  0  0  0  0  0  0  0  0  # atno 17395 bound_to 11000

$$$$
