AV-unprocessed.smi:3037|AV-procd|sdf|11587|dock7
  -GOLD-   2272016563D 1   1.00000     0.00000
 Structure written by MMmdl.
 47 48  0  0  0  0  0  0  0  0  2 V2000
  143.9430  142.4304  155.5874 C   0  0  0  0  0  0  0  0  0  0  0  0
  145.3972  142.0621  155.5244 C   0  0  0  0  0  0  0  0  0  0  0  0
  146.3903  142.2410  156.5291 C   0  0  0  0  0  0  0  0  0  0  0  0
  147.5829  141.8054  156.1566 N   0  0  0  0  0  0  0  0  0  0  0  0
  147.3944  141.3362  154.9052 N   0  0  0  0  0  0  0  0  0  0  0  0
  148.5096  140.7693  154.1684 C   0  0  0  0  0  0  0  0  0  0  0  0
  148.3152  139.2701  153.8440 C   0  0  1  0  0  0  0  0  0  0  0  0
  147.2940  139.0322  152.7186 C   0  0  0  0  0  0  0  0  0  0  0  0
  149.6006  138.6370  153.4736 N   0  3  0  0  0  0  0  0  0  0  0  0
  150.5541  138.4370  154.5852 C   0  0  0  0  0  0  0  0  0  0  0  0
  151.3606  139.7211  154.8495 C   0  0  0  0  0  0  0  0  0  0  0  0
  152.1723  139.6885  156.1567 C   0  0  0  0  0  0  0  0  0  0  0  0
  153.2057  139.0190  156.1971 O   0  0  0  0  0  0  0  0  0  0  0  0
  151.7299  140.4003  157.2224 N   0  0  0  0  0  0  0  0  0  0  0  0
  152.4847  140.4974  158.4795 C   0  0  0  0  0  0  0  0  0  0  0  0
  153.0232  141.9325  158.6289 C   0  0  0  0  0  0  0  0  0  0  0  0
  151.8797  142.9617  158.5568 C   0  0  0  0  0  0  0  0  0  0  0  0
  150.9857  142.7310  157.3241 C   0  0  0  0  0  0  0  0  0  0  0  0
  150.5380  141.2607  157.2398 C   0  0  0  0  0  0  0  0  0  0  0  0
  146.0843  141.4762  154.4994 C   0  0  0  0  0  0  0  0  0  0  0  0
  143.7057  142.9928  156.4906 H   0  0  0  0  0  0  0  0  0  0  0  0
  143.3044  141.5470  155.5819 H   0  0  0  0  0  0  0  0  0  0  0  0
  143.6472  143.0472  154.7384 H   0  0  0  0  0  0  0  0  0  0  0  0
  146.2797  142.6721  157.5130 H   0  0  0  0  0  0  0  0  0  0  0  0
  148.6482  141.3390  153.2477 H   0  0  0  0  0  0  0  0  0  0  0  0
  149.4080  140.9244  154.7654 H   0  0  0  0  0  0  0  0  0  0  0  0
  147.9362  138.7645  154.7335 H   0  0  0  0  0  0  0  0  0  0  0  0
  146.2996  139.3827  152.9959 H   0  0  0  0  0  0  0  0  0  0  0  0
  147.2050  137.9702  152.4878 H   0  0  0  0  0  0  0  0  0  0  0  0
  147.5859  139.5483  151.8033 H   0  0  0  0  0  0  0  0  0  0  0  0
  149.3900  137.7244  153.0950 H   0  0  0  0  0  0  0  0  0  0  0  0
  150.0124  138.1460  155.4857 H   0  0  0  0  0  0  0  0  0  0  0  0
  151.2279  137.6172  154.3306 H   0  0  0  0  0  0  0  0  0  0  0  0
  152.0475  139.8843  154.0179 H   0  0  0  0  0  0  0  0  0  0  0  0
  150.6791  140.5720  154.8826 H   0  0  0  0  0  0  0  0  0  0  0  0
  151.8272  140.2544  159.3154 H   0  0  0  0  0  0  0  0  0  0  0  0
  153.3099  139.7866  158.5369 H   0  0  0  0  0  0  0  0  0  0  0  0
  153.5595  142.0363  159.5726 H   0  0  0  0  0  0  0  0  0  0  0  0
  153.7466  142.1340  157.8376 H   0  0  0  0  0  0  0  0  0  0  0  0
  151.2706  142.8802  159.4580 H   0  0  0  0  0  0  0  0  0  0  0  0
  152.2827  143.9748  158.5479 H   0  0  0  0  0  0  0  0  0  0  0  0
  150.1159  143.3871  157.3671 H   0  0  0  0  0  0  0  0  0  0  0  0
  151.5325  142.9990  156.4191 H   0  0  0  0  0  0  0  0  0  0  0  0
  149.8812  141.1231  156.3826 H   0  0  0  0  0  0  0  0  0  0  0  0
  149.9304  141.0087  158.1102 H   0  0  0  0  0  0  0  0  0  0  0  0
  145.7526  141.1518  153.5240 H   0  0  0  0  0  0  0  0  0  0  0  0
  150.0399  139.1889  152.7506 H   0  0  0  0  0  0  0  0  0  0  0  0
  1  2  1  0  0  0  0
  1 21  1  0  0  0  0
  1 22  1  0  0  0  0
  1 23  1  0  0  0  0
  2 20  2  0  0  0  0
  2  3  1  0  0  0  0
  3  4  2  0  0  0  0
  3 24  1  0  0  0  0
  4  5  1  0  0  0  0
  5  6  1  0  0  0  0
  5 20  1  0  0  0  0
  6  7  1  0  0  0  0
  6 25  1  0  0  0  0
  6 26  1  0  0  0  0
  7  8  1  0  0  0  0
  7  9  1  0  0  0  0
  7 27  1  0  0  0  0
  8 28  1  0  0  0  0
  8 29  1  0  0  0  0
  8 30  1  0  0  0  0
  9 10  1  0  0  0  0
  9 31  1  0  0  0  0
  9 47  1  0  0  0  0
 10 11  1  0  0  0  0
 10 32  1  0  0  0  0
 10 33  1  0  0  0  0
 11 12  1  0  0  0  0
 11 34  1  0  0  0  0
 11 35  1  0  0  0  0
 12 13  2  0  0  0  0
 12 14  1  0  0  0  0
 14 19  1  0  0  0  0
 14 15  1  0  0  0  0
 15 16  1  0  0  0  0
 15 36  1  0  0  0  0
 15 37  1  0  0  0  0
 16 17  1  0  0  0  0
 16 38  1  0  0  0  0
 16 39  1  0  0  0  0
 17 18  1  0  0  0  0
 17 40  1  0  0  0  0
 17 41  1  0  0  0  0
 18 19  1  0  0  0  0
 18 42  1  0  0  0  0
 18 43  1  0  0  0  0
 19 44  1  0  0  0  0
 19 45  1  0  0  0  0
 20 46  1  0  0  0  0
M  CHG  1   9   1
M  END
> <s_m_source_file>
AV-unprocessed.smi

> <i_m_source_file_index>
3037

> <i_lp_mmshare_version>
43012

> <i_f3d_flags>
0

> <s_epik_input>
W0NIM11jMVtjSF1ubihbY0hdMSlbQ0gyXVtDQEhdKFtDSDNdKVtOSF1bQ0gyXVtDSDJdQyg9TylOMltDSDJdW0NIMl1bQ0gyXVtDSDJdW0NIMl0y

> <s_epik_cmdline>
J2VwaWtfcHl0aG9uJywgJy1waCcsICc3LjAnLCAnLXRuJywgJzgnLCAnLW1hJywgJzIwMCcsICctbWV0YWxfYmluZGluZycsICctaW1hZScsICc8aW5maWxlLm1hZT4nLCAnLW9tYWUnLCAnPG91dGZpbGUubWFlPic=

> <r_lp_tautomer_probability>
1

> <r_epik_Ionization_Penalty>
0.00574983

> <r_epik_Ionization_Penalty_Charging>
0.00574185

> <r_epik_Ionization_Penalty_Neutral>
7.97936e-06

> <r_epik_State_Penalty>
0.00421386

> <r_epik_Charging_Adjusted_Penalty>
0.00995571

> <i_epik_Tot_Q>
1

> <i_epik_Tot_abs_Q>
1

> <r_epik_Metal_State_Penalty>
-0

> <b_epik_Metal_Only>
0

> <s_lp_Force_Field>
OPLS_2005

> <r_lp_Energy>
26.5412

> <b_lp_Chiralities_Consistent>
1

> <s_lp_Variant>
AV-unprocessed.smi:3037-2

> <Gold.Version>
5.8.1

> <Gold.Id.Protein>
6NUR|6NUR_protein|mol2

> <Gold.PLP.Fitness>
48.9948

> <Gold.PLP.PLP>
-35.9379

> <Gold.PLP.part.hbond>
-3.0000

> <Gold.PLP.part.metal>
0.0000

> <Gold.PLP.part.buried>
-2.1966

> <Gold.PLP.part.nonpolar>
-32.2849

> <Gold.PLP.part.repulsive>
0.9233

> <Gold.PLP.ligand.clash>
0.0000

> <Gold.PLP.ligand.torsion>
0.5887

> <Gold.PLP.Chemscore.Hbond>
3.8000

> <Gold.PLP.Chemscore.CHOScore>
0.9099

> <Gold.PLP.Chemscore.Metal>
0.0000

> <Gold.Chemscore.Hbonds>
donor molecule, donor type, donor heavy atom, donor atom, acceptor molecule, acceptor atom, score
      L1  H     9    31       P1  7948  2.00
      L1  H     9    47       P1  7957  0.80
      P1  H  7997  8009       L1    13  1.00
      L1  C    20    46       P1 10175  1.00

> <Gold.PLP.Chemscore.Internal.Correction>
0.1048

> <Gold.Rescore>
     Score         DG    S(hbond)    S(metal)    S(lipo)     H(rot)  DE(clash)    DE(int)     intcor
     18.25     -19.38       2.67        0.00      82.89       1.84       0.33       0.80       ----

> <Gold.Chemscore.Fitness>
18.2481

> <Gold.Chemscore.DG>
-19.3772

> <Gold.Chemscore.ZeroCoef>
-5.4800

> <Gold.Chemscore.Hbond>
2.6663

> <Gold.Chemscore.Metal>
0.0000

> <Gold.Chemscore.Lipo>
82.8872

> <Gold.Chemscore.Internal_Hbond>
0.0000

> <Gold.Chemscore.DEClash>
0.3268

> <Gold.Chemscore.DEInternal>
0.8024

> <Gold.Chemscore.Rot>
1.8383

> <Gold.Chemscore.Internal.Correction>
   9.000000E+99

> <Gold.Chemscore.Hbonds>
donor molecule, donor type, donor heavy atom, donor atom, acceptor molecule, acceptor atom, score
      L1  H     9    31       P1  7948  0.93
      L1  H     9    47       P1  7957  0.68
      P1  H  7997  8009       L1    13  0.43

> <Gold.Chemscore.Hbond.Weighted>
-8.9056

> <Gold.Chemscore.Metal.Weighted>
-0.0000

> <Gold.Chemscore.Lipo.Weighted>
-9.6978

> <Gold.Chemscore.Internal_Hbond.Weighted>
0.0000

> <Gold.Chemscore.DEClash.Weighted>
0.3268

> <Gold.Chemscore.DEInternal.Weighted>
0.8024

> <Gold.Chemscore.Rot.Weighted>
4.7062

> <Gold.Chemscore.Internal.Correction.Weighted>
   9.000000E+99

> <Gold.Protein.RotatedTorsions>
[ 6907 6896 6895 6894 ] final  -13.52 input  -60.11 | X-H torsion
[ 7974 7965 7964 7962 ] final   96.61 input  175.53 | X-H torsion
[ 8008 7997 7996 7995 ] final -163.44 input   59.86 | X-H torsion
[ 10167 10162 10161 10158 ] final   70.20 input  -65.29 | X-H torsion
[ 10718 10713 10712 10709 ] final -179.99 input   66.30 | X-H torsion
[ 10763 10752 10751 10750 ] final -103.40 input  -60.55 | X-H torsion
[ 11005 11000 10999 10996 ] final  -25.13 input  -57.11 | X-H torsion

> <Gold.Protein.ActiveResidues>
 VAL166  LYS551  ARG553  GLY616  TRP617  ASP618  TYR619  PRO620  LYS621  CYS622 
 ASP623  PHE694  ASN695  SER759  ASP760  ASP761  ALA762  ILE779  LEU786  VAL792 
 PHE793  MET794  SER795  GLU796  ALA797  LYS798  CYS799  TRP800  GLU811  SER814 

> <Gold.Protein.RotatedAtoms>
  151.3536  135.0889  159.9410 H   0  0  0  0  0  0  0  0  0  0  0  0  # atno 6907 bound_to 6896
  152.5181  133.9328  159.7599 H   0  0  0  0  0  0  0  0  0  0  0  0  # atno 6908 bound_to 6896
  150.9708  133.6292  159.2768 H   0  0  0  0  0  0  0  0  0  0  0  0  # atno 6909 bound_to 6896
  145.4366  139.2305  143.3115 H   0  0  0  0  0  0  0  0  0  0  0  0  # atno 7974 bound_to 7965
  155.8213  140.0920  157.1847 H   0  0  0  0  0  0  0  0  0  0  0  0  # atno 8008 bound_to 7997
  154.3979  140.1436  156.3563 H   0  0  0  0  0  0  0  0  0  0  0  0  # atno 8009 bound_to 7997
  155.8263  140.3444  155.5547 H   0  0  0  0  0  0  0  0  0  0  0  0  # atno 8010 bound_to 7997
  140.0595  144.5244  150.7304 H   0  0  0  0  0  0  0  0  0  0  0  0  # atno 10167 bound_to 10162
  156.8672  130.9772  151.3077 H   0  0  0  0  0  0  0  0  0  0  0  0  # atno 10718 bound_to 10713
  154.7805  135.4824  153.9834 H   0  0  0  0  0  0  0  0  0  0  0  0  # atno 10763 bound_to 10752
  153.1487  135.6787  153.8922 H   0  0  0  0  0  0  0  0  0  0  0  0  # atno 10764 bound_to 10752
  153.8574  135.3159  155.3414 H   0  0  0  0  0  0  0  0  0  0  0  0  # atno 10765 bound_to 10752
  140.8909  133.7589  156.0420 H   0  0  0  0  0  0  0  0  0  0  0  0  # atno 11005 bound_to 11000
  146.2579  140.5109  142.8866 LP  0  0  0  0  0  0  0  0  0  0  0  0  # atno 17320 bound_to 7965
  144.8148  140.6449  143.6391 LP  0  0  0  0  0  0  0  0  0  0  0  0  # atno 17321 bound_to 7965
  140.7178  143.2561  151.4376 LP  0  0  0  0  0  0  0  0  0  0  0  0  # atno 17342 bound_to 10162
  139.5902  144.1515  152.2079 LP  0  0  0  0  0  0  0  0  0  0  0  0  # atno 17343 bound_to 10162
  157.6216  130.8659  149.9119 LP  0  0  0  0  0  0  0  0  0  0  0  0  # atno 17370 bound_to 10713
  156.0745  130.3680  150.0706 LP  0  0  0  0  0  0  0  0  0  0  0  0  # atno 17371 bound_to 10713
  140.8348  134.3136  157.5335 LP  0  0  0  0  0  0  0  0  0  0  0  0  # atno 17394 bound_to 11000
  139.8729  134.9383  156.3711 LP  0  0  0  0  0  0  0  0  0  0  0  0  # atno 17395 bound_to 11000

$$$$
