AV-unprocessed.smi:1669|AV-procd|sdf|6684|dock3
  -GOLD-   22720 7403D 1   1.00000     0.00000
 Structure written by MMmdl.
 48 50  0  0  0  0  0  0  0  0  2 V2000
  145.5131  136.7319  150.6788 C   0  0  0  0  0  0  0  0  0  0  0  0
  145.9794  136.5597  152.0776 N   0  3  2  0  0  0  0  0  0  0  0  0
  145.3883  135.3682  152.7396 C   0  0  0  0  0  0  0  0  0  0  0  0
  145.2046  134.2012  151.7843 C   0  0  0  0  0  0  0  0  0  0  0  0
  146.3272  133.5593  151.2191 C   0  0  0  0  0  0  0  0  0  0  0  0
  146.1528  132.4746  150.3378 C   0  0  0  0  0  0  0  0  0  0  0  0
  144.8562  132.0291  150.0163 C   0  0  0  0  0  0  0  0  0  0  0  0
  143.7334  132.6696  150.5754 C   0  0  0  0  0  0  0  0  0  0  0  0
  143.9069  133.7547  151.4567 C   0  0  0  0  0  0  0  0  0  0  0  0
  145.8088  137.7927  152.8885 C   0  0  0  0  0  0  0  0  0  0  0  0
  147.0903  138.1666  153.6660 C   0  0  2  0  0  0  0  0  0  0  0  0
  146.7215  138.6118  154.9551 O   0  0  0  0  0  0  0  0  0  0  0  0
  147.9186  139.2831  152.9978 C   0  0  0  0  0  0  0  0  0  0  0  0
  148.8457  139.9192  153.9243 N   0  0  0  0  0  0  0  0  0  0  0  0
  148.7423  141.1323  154.5259 C   0  0  0  0  0  0  0  0  0  0  0  0
  147.5592  142.0297  154.2931 C   0  0  0  0  0  0  0  0  0  0  0  0
  147.0733  142.6542  155.4638 O   0  0  0  0  0  0  0  0  0  0  0  0
  149.7554  141.4632  155.3298 N   0  0  0  0  0  0  0  0  0  0  0  0
  150.5867  140.3642  155.2476 C   0  0  0  0  0  0  0  0  0  0  0  0
  151.8283  140.1024  155.8694 C   0  0  0  0  0  0  0  0  0  0  0  0
  152.5043  138.8881  155.6301 C   0  0  0  0  0  0  0  0  0  0  0  0
  151.9494  137.9204  154.7679 C   0  0  0  0  0  0  0  0  0  0  0  0
  150.7136  138.1618  154.1376 C   0  0  0  0  0  0  0  0  0  0  0  0
  150.0440  139.3765  154.3786 C   0  0  0  0  0  0  0  0  0  0  0  0
  144.4299  136.8540  150.6429 H   0  0  0  0  0  0  0  0  0  0  0  0
  145.7784  135.8718  150.0647 H   0  0  0  0  0  0  0  0  0  0  0  0
  145.9646  137.6044  150.2087 H   0  0  0  0  0  0  0  0  0  0  0  0
  146.0406  135.0295  153.5459 H   0  0  0  0  0  0  0  0  0  0  0  0
  144.4357  135.6344  153.2006 H   0  0  0  0  0  0  0  0  0  0  0  0
  147.3254  133.8937  151.4619 H   0  0  0  0  0  0  0  0  0  0  0  0
  147.0138  131.9837  149.9082 H   0  0  0  0  0  0  0  0  0  0  0  0
  144.7230  131.1968  149.3407 H   0  0  0  0  0  0  0  0  0  0  0  0
  142.7391  132.3280  150.3277 H   0  0  0  0  0  0  0  0  0  0  0  0
  143.0411  134.2409  151.8819 H   0  0  0  0  0  0  0  0  0  0  0  0
  145.4957  138.5998  152.2253 H   0  0  0  0  0  0  0  0  0  0  0  0
  144.9991  137.6662  153.6086 H   0  0  0  0  0  0  0  0  0  0  0  0
  147.7288  137.2929  153.7881 H   0  0  0  0  0  0  0  0  0  0  0  0
  145.9245  139.1159  154.8851 H   0  0  0  0  0  0  0  0  0  0  0  0
  148.4646  138.8929  152.1391 H   0  0  0  0  0  0  0  0  0  0  0  0
  147.2557  140.0558  152.6055 H   0  0  0  0  0  0  0  0  0  0  0  0
  147.8292  142.8123  153.5844 H   0  0  0  0  0  0  0  0  0  0  0  0
  146.7548  141.4448  153.8467 H   0  0  0  0  0  0  0  0  0  0  0  0
  147.5767  143.4385  155.6191 H   0  0  0  0  0  0  0  0  0  0  0  0
  152.2610  140.8368  156.5326 H   0  0  0  0  0  0  0  0  0  0  0  0
  153.4523  138.6981  156.1121 H   0  0  0  0  0  0  0  0  0  0  0  0
  152.4732  136.9921  154.5917 H   0  0  0  0  0  0  0  0  0  0  0  0
  150.2867  137.4205  153.4786 H   0  0  0  0  0  0  0  0  0  0  0  0
  146.9746  136.3895  152.0408 H   0  0  0  0  0  0  0  0  0  0  0  0
  1  2  1  0  0  0  0
  1 25  1  0  0  0  0
  1 26  1  0  0  0  0
  1 27  1  0  0  0  0
  2  3  1  0  0  0  0
  2 10  1  0  0  0  0
  2 48  1  0  0  0  0
  3  4  1  0  0  0  0
  3 28  1  0  0  0  0
  3 29  1  0  0  0  0
  4  9  1  0  0  0  0
  4  5  2  0  0  0  0
  5  6  1  0  0  0  0
  5 30  1  0  0  0  0
  6  7  2  0  0  0  0
  6 31  1  0  0  0  0
  7  8  1  0  0  0  0
  7 32  1  0  0  0  0
  8  9  2  0  0  0  0
  8 33  1  0  0  0  0
  9 34  1  0  0  0  0
 10 11  1  0  0  0  0
 10 35  1  0  0  0  0
 10 36  1  0  0  0  0
 11 12  1  0  0  0  0
 11 13  1  0  0  0  0
 11 37  1  0  0  0  0
 12 38  1  0  0  0  0
 13 14  1  0  0  0  0
 13 39  1  0  0  0  0
 13 40  1  0  0  0  0
 14 24  1  0  0  0  0
 14 15  1  0  0  0  0
 15 16  1  0  0  0  0
 15 18  2  0  0  0  0
 16 17  1  0  0  0  0
 16 41  1  0  0  0  0
 16 42  1  0  0  0  0
 17 43  1  0  0  0  0
 18 19  1  0  0  0  0
 19 24  2  0  0  0  0
 19 20  1  0  0  0  0
 20 21  2  0  0  0  0
 20 44  1  0  0  0  0
 21 22  1  0  0  0  0
 21 45  1  0  0  0  0
 22 23  2  0  0  0  0
 22 46  1  0  0  0  0
 23 24  1  0  0  0  0
 23 47  1  0  0  0  0
M  CHG  1   2   1
M  END
> <s_m_source_file>
AV-unprocessed.smi

> <i_m_source_file_index>
1669

> <i_lp_mmshare_version>
43012

> <i_f3d_flags>
0

> <s_epik_input>
W2NIXTFbY0hdW2NIXVtjSF1bY0hdYzFbQ0gyXU4oW0NIM10pW0NIMl1bQ0BIXShbT0hdKVtDSDJdbihjKG4yKVtDSDJdW09IXSljKGMyMylbY0hdW2NIXVtjSF1bY0hdMw==

> <s_epik_cmdline>
J2VwaWtfcHl0aG9uJywgJy1waCcsICc3LjAnLCAnLXRuJywgJzgnLCAnLW1hJywgJzIwMCcsICctbWV0YWxfYmluZGluZycsICctaW1hZScsICc8aW5maWxlLm1hZT4nLCAnLW9tYWUnLCAnPG91dGZpbGUubWFlPic=

> <r_epik_Ionization_Penalty>
0.0949884

> <r_epik_Ionization_Penalty_Charging>
0.0475377

> <r_epik_Ionization_Penalty_Neutral>
0.0474507

> <r_epik_State_Penalty>
0.078247

> <r_epik_Charging_Adjusted_Penalty>
0.125785

> <i_epik_Tot_Q>
1

> <i_epik_Tot_abs_Q>
1

> <r_epik_Metal_State_Penalty>
0.0403451

> <b_epik_Metal_Only>
0

> <s_lp_Force_Field>
OPLS_2005

> <r_lp_Energy>
17.3617

> <b_lp_Chiralities_Consistent>
1

> <s_lp_Variant>
AV-unprocessed.smi:1669-2

> <Gold.Version>
5.8.1

> <Gold.Id.Protein>
6NUR|6NUR_protein|mol2

> <Gold.PLP.Fitness>
50.2913

> <Gold.PLP.PLP>
-45.8228

> <Gold.PLP.part.hbond>
-2.0000

> <Gold.PLP.part.metal>
0.0000

> <Gold.PLP.part.buried>
5.6407

> <Gold.PLP.part.nonpolar>
-49.4786

> <Gold.PLP.part.repulsive>
0.1485

> <Gold.PLP.ligand.clash>
0.0000

> <Gold.PLP.ligand.torsion>
2.0470

> <Gold.PLP.Chemscore.Hbond>
2.6500

> <Gold.PLP.Chemscore.CHOScore>
0.0000

> <Gold.PLP.Chemscore.Metal>
0.0000

> <Gold.Chemscore.Hbonds>
donor molecule, donor type, donor heavy atom, donor atom, acceptor molecule, acceptor atom, score
      L1  H     2    48       P1  7948  2.00
      L1  H    17    43       P1  8028  0.70

> <Gold.PLP.Chemscore.Internal.Correction>
0.6124

> <Gold.Rescore>
     Score         DG    S(hbond)    S(metal)    S(lipo)     H(rot)  DE(clash)    DE(int)     intcor
     11.01     -16.01       1.10        0.00     127.91       3.17       3.12       1.88       ----

> <Gold.Chemscore.Fitness>
11.0118

> <Gold.Chemscore.DG>
-16.0086

> <Gold.Chemscore.ZeroCoef>
-5.4800

> <Gold.Chemscore.Hbond>
1.1037

> <Gold.Chemscore.Metal>
0.0000

> <Gold.Chemscore.Lipo>
127.9075

> <Gold.Chemscore.Internal_Hbond>
0.0000

> <Gold.Chemscore.DEClash>
3.1199

> <Gold.Chemscore.DEInternal>
1.8769

> <Gold.Chemscore.Rot>
3.1731

> <Gold.Chemscore.Internal.Correction>
   9.000000E+99

> <Gold.Chemscore.Hbonds>
donor molecule, donor type, donor heavy atom, donor atom, acceptor molecule, acceptor atom, score
      L1  H     2    48       P1  7948  0.98
      L1  H    17    43       P1  8028  0.07

> <Gold.Chemscore.Hbond.Weighted>
-3.6865

> <Gold.Chemscore.Metal.Weighted>
-0.0000

> <Gold.Chemscore.Lipo.Weighted>
-14.9652

> <Gold.Chemscore.Internal_Hbond.Weighted>
0.0000

> <Gold.Chemscore.DEClash.Weighted>
3.1199

> <Gold.Chemscore.DEInternal.Weighted>
1.8769

> <Gold.Chemscore.Rot.Weighted>
8.1230

> <Gold.Chemscore.Internal.Correction.Weighted>
   9.000000E+99

> <Gold.Protein.RotatedTorsions>
[ 6907 6896 6895 6894 ] final  146.54 input  -60.11 | X-H torsion
[ 7974 7965 7964 7962 ] final  -72.14 input  175.53 | X-H torsion
[ 8008 7997 7996 7995 ] final  -16.90 input   59.86 | X-H torsion
[ 10167 10162 10161 10158 ] final  176.38 input  -65.29 | X-H torsion
[ 10718 10713 10712 10709 ] final  147.35 input   66.30 | X-H torsion
[ 10763 10752 10751 10750 ] final  101.75 input  -60.55 | X-H torsion
[ 11005 11000 10999 10996 ] final  -16.04 input  -57.11 | X-H torsion

> <Gold.Protein.ActiveResidues>
 VAL166  LYS551  ARG553  GLY616  TRP617  ASP618  TYR619  PRO620  LYS621  CYS622 
 ASP623  PHE694  ASN695  SER759  ASP760  ASP761  ALA762  ILE779  LEU786  VAL792 
 PHE793  MET794  SER795  GLU796  ALA797  LYS798  CYS799  TRP800  GLU811  SER814 

> <Gold.Protein.RotatedAtoms>
  152.1666  133.4616  159.4887 H   0  0  0  0  0  0  0  0  0  0  0  0  # atno 6907 bound_to 6896
  150.6914  134.2005  159.4329 H   0  0  0  0  0  0  0  0  0  0  0  0  # atno 6908 bound_to 6896
  151.9910  134.9979  160.0612 H   0  0  0  0  0  0  0  0  0  0  0  0  # atno 6909 bound_to 6896
  145.6690  140.9227  143.0893 H   0  0  0  0  0  0  0  0  0  0  0  0  # atno 7974 bound_to 7965
  154.5018  140.2157  155.9331 H   0  0  0  0  0  0  0  0  0  0  0  0  # atno 8008 bound_to 7997
  156.1443  140.3173  155.8513 H   0  0  0  0  0  0  0  0  0  0  0  0  # atno 8009 bound_to 7997
  155.4060  140.0487  157.3025 H   0  0  0  0  0  0  0  0  0  0  0  0  # atno 8010 bound_to 7997
  139.5212  144.2922  152.0453 H   0  0  0  0  0  0  0  0  0  0  0  0  # atno 10167 bound_to 10162
  157.3220  131.0906  151.1233 H   0  0  0  0  0  0  0  0  0  0  0  0  # atno 10718 bound_to 10713
  153.3307  135.4034  155.1493 H   0  0  0  0  0  0  0  0  0  0  0  0  # atno 10763 bound_to 10752
  154.8622  135.3610  154.5475 H   0  0  0  0  0  0  0  0  0  0  0  0  # atno 10764 bound_to 10752
  153.5913  135.7074  153.5481 H   0  0  0  0  0  0  0  0  0  0  0  0  # atno 10765 bound_to 10752
  140.8028  133.8201  155.9486 H   0  0  0  0  0  0  0  0  0  0  0  0  # atno 11005 bound_to 11000
  144.7063  139.8548  143.7429 LP  0  0  0  0  0  0  0  0  0  0  0  0  # atno 17320 bound_to 7965
  146.1061  139.4061  143.0316 LP  0  0  0  0  0  0  0  0  0  0  0  0  # atno 17321 bound_to 7965
  140.2373  144.4306  150.6275 LP  0  0  0  0  0  0  0  0  0  0  0  0  # atno 17342 bound_to 10162
  140.6315  143.2188  151.6486 LP  0  0  0  0  0  0  0  0  0  0  0  0  # atno 17343 bound_to 10162
  157.2514  130.6616  149.5933 LP  0  0  0  0  0  0  0  0  0  0  0  0  # atno 17370 bound_to 10713
  155.9687  130.4537  150.5822 LP  0  0  0  0  0  0  0  0  0  0  0  0  # atno 17371 bound_to 10713
  140.9277  134.2061  157.4884 LP  0  0  0  0  0  0  0  0  0  0  0  0  # atno 17394 bound_to 11000
  139.8720  134.9820  156.5137 LP  0  0  0  0  0  0  0  0  0  0  0  0  # atno 17395 bound_to 11000

$$$$
