AV-unprocessed.smi:775|AV-procd|sdf|3695|dock1
  -GOLD-   22720 1113D 1   1.00000     0.00000
 Structure written by MMmdl.
 39 40  0  0  0  0  0  0  0  0  2 V2000
  147.7145  131.9624  153.8605 C   0  0  0  0  0  0  0  0  0  0  0  0
  147.4119  133.3373  153.2440 C   0  0  2  0  0  0  0  0  0  0  0  0
  147.3659  133.3015  151.6966 C   0  0  0  0  0  0  0  0  0  0  0  0
  146.0625  132.9466  151.1583 N   0  0  0  0  0  0  0  0  0  0  0  0
  145.7356  131.8936  150.3284 C   0  0  0  0  0  0  0  0  0  0  0  0
  144.3939  131.9670  150.0872 C   0  0  0  0  0  0  0  0  0  0  0  0
  143.9817  133.1177  150.8155 C   0  0  0  0  0  0  0  0  0  0  0  0
  144.9829  133.7021  151.4535 N   0  0  0  0  0  0  0  0  0  0  0  0
  148.3867  134.3291  153.7530 N   0  3  0  0  0  0  0  0  0  0  0  0
  148.0022  135.0240  155.0020 C   0  0  0  0  0  0  0  0  0  0  0  0
  149.0875  135.9976  155.4878 C   0  0  0  0  0  0  0  0  0  0  0  0
  150.1439  135.5327  155.9199 O   0  0  0  0  0  0  0  0  0  0  0  0
  148.8532  137.3323  155.4260 N   0  0  0  0  0  0  0  0  0  0  0  0
  147.6317  137.9402  154.8881 C   0  0  0  0  0  0  0  0  0  0  0  0
  147.9846  138.6458  153.5672 C   0  0  0  0  0  0  0  0  0  0  0  0
  149.1948  139.4614  153.6836 N   0  0  0  0  0  0  0  0  0  0  0  0
  150.1031  139.3677  154.6728 C   0  0  0  0  0  0  0  0  0  0  0  0
  151.0944  140.0924  154.7092 O   0  0  0  0  0  0  0  0  0  0  0  0
  149.8848  138.3204  155.7821 C   0  0  0  0  0  0  0  0  0  0  0  0
  147.0168  131.2071  153.4978 H   0  0  0  0  0  0  0  0  0  0  0  0
  147.6269  131.9936  154.9472 H   0  0  0  0  0  0  0  0  0  0  0  0
  148.7238  131.6247  153.6238 H   0  0  0  0  0  0  0  0  0  0  0  0
  146.4247  133.6344  153.6007 H   0  0  0  0  0  0  0  0  0  0  0  0
  147.6480  134.2779  151.2994 H   0  0  0  0  0  0  0  0  0  0  0  0
  148.1021  132.6028  151.2994 H   0  0  0  0  0  0  0  0  0  0  0  0
  146.4752  131.1864  149.9825 H   0  0  0  0  0  0  0  0  0  0  0  0
  143.7975  131.3026  149.4794 H   0  0  0  0  0  0  0  0  0  0  0  0
  142.9924  133.5433  150.8983 H   0  0  0  0  0  0  0  0  0  0  0  0
  149.2539  133.8445  153.9365 H   0  0  0  0  0  0  0  0  0  0  0  0
  147.0817  135.5829  154.8354 H   0  0  0  0  0  0  0  0  0  0  0  0
  147.8144  134.2801  155.7773 H   0  0  0  0  0  0  0  0  0  0  0  0
  146.8033  137.2496  154.7385 H   0  0  0  0  0  0  0  0  0  0  0  0
  147.2691  138.6740  155.6098 H   0  0  0  0  0  0  0  0  0  0  0  0
  148.1484  137.9063  152.7824 H   0  0  0  0  0  0  0  0  0  0  0  0
  147.1565  139.2756  153.2411 H   0  0  0  0  0  0  0  0  0  0  0  0
  149.3515  140.1531  152.9644 H   0  0  0  0  0  0  0  0  0  0  0  0
  149.5711  138.8389  156.6887 H   0  0  0  0  0  0  0  0  0  0  0  0
  150.8516  137.8682  156.0083 H   0  0  0  0  0  0  0  0  0  0  0  0
  148.5580  135.0172  153.0333 H   0  0  0  0  0  0  0  0  0  0  0  0
  1  2  1  0  0  0  0
  1 20  1  0  0  0  0
  1 21  1  0  0  0  0
  1 22  1  0  0  0  0
  2  3  1  0  0  0  0
  2  9  1  0  0  0  0
  2 23  1  0  0  0  0
  3  4  1  0  0  0  0
  3 24  1  0  0  0  0
  3 25  1  0  0  0  0
  4  8  1  0  0  0  0
  4  5  1  0  0  0  0
  5  6  2  0  0  0  0
  5 26  1  0  0  0  0
  6  7  1  0  0  0  0
  6 27  1  0  0  0  0
  7  8  2  0  0  0  0
  7 28  1  0  0  0  0
  9 10  1  0  0  0  0
  9 29  1  0  0  0  0
  9 39  1  0  0  0  0
 10 11  1  0  0  0  0
 10 30  1  0  0  0  0
 10 31  1  0  0  0  0
 11 12  2  0  0  0  0
 11 13  1  0  0  0  0
 13 19  1  0  0  0  0
 13 14  1  0  0  0  0
 14 15  1  0  0  0  0
 14 32  1  0  0  0  0
 14 33  1  0  0  0  0
 15 16  1  0  0  0  0
 15 34  1  0  0  0  0
 15 35  1  0  0  0  0
 16 17  1  0  0  0  0
 16 36  1  0  0  0  0
 17 18  2  0  0  0  0
 17 19  1  0  0  0  0
 19 37  1  0  0  0  0
 19 38  1  0  0  0  0
M  CHG  1   9   1
M  END
> <s_m_source_file>
AV-unprocessed.smi

> <i_m_source_file_index>
775

> <i_lp_mmshare_version>
43012

> <i_f3d_flags>
0

> <s_epik_input>
bjFbY0hdW2NIXVtjSF1uMVtDSDJdW0NAQEhdKFtDSDNdKVtOSF1bQ0gyXUMoPU8pTjJbQ0gyXVtDSDJdW05IXUMoPU8pW0NIMl0y

> <s_epik_cmdline>
J2VwaWtfcHl0aG9uJywgJy1waCcsICc3LjAnLCAnLXRuJywgJzgnLCAnLW1hJywgJzIwMCcsICctbWV0YWxfYmluZGluZycsICctaW1hZScsICc8aW5maWxlLm1hZT4nLCAnLW9tYWUnLCAnPG91dGZpbGUubWFlPic=

> <r_lp_tautomer_probability>
1

> <r_epik_Ionization_Penalty>
0.165651

> <r_epik_Ionization_Penalty_Charging>
0.165647

> <r_epik_Ionization_Penalty_Neutral>
3.4358e-06

> <r_epik_State_Penalty>
0.15499

> <r_epik_Charging_Adjusted_Penalty>
0.320637

> <i_epik_Tot_Q>
1

> <i_epik_Tot_abs_Q>
1

> <r_epik_Metal_State_Penalty>
0.155003

> <b_epik_Metal_Only>
0

> <s_lp_Force_Field>
OPLS_2005

> <r_lp_Energy>
21.6432

> <b_lp_Chiralities_Consistent>
1

> <s_lp_Variant>
AV-unprocessed.smi:775-1

> <Gold.Version>
5.8.1

> <Gold.Id.Protein>
6NUR|6NUR_protein|mol2

> <Gold.PLP.Fitness>
42.6620

> <Gold.PLP.PLP>
-27.3005

> <Gold.PLP.part.hbond>
-2.9860

> <Gold.PLP.part.metal>
0.0000

> <Gold.PLP.part.buried>
-3.7981

> <Gold.PLP.part.nonpolar>
-21.0626

> <Gold.PLP.part.repulsive>
0.3598

> <Gold.PLP.ligand.clash>
0.0000

> <Gold.PLP.ligand.torsion>
0.8581

> <Gold.PLP.Chemscore.Hbond>
3.6720

> <Gold.PLP.Chemscore.CHOScore>
1.9961

> <Gold.PLP.Chemscore.Metal>
0.0000

> <Gold.Chemscore.Hbonds>
donor molecule, donor type, donor heavy atom, donor atom, acceptor molecule, acceptor atom, score
      L1  H     9    39       P1  7948  2.00
      L1  H    16    36       P1  7957  0.67
      P1  H  7989  7998       L1    18  1.00
      L1  C     5    26       P1 10747  1.00
      L1  C     7    28       P1 10186  0.95

> <Gold.PLP.Chemscore.Internal.Correction>
0.0733

> <Gold.Rescore>
     Score         DG    S(hbond)    S(metal)    S(lipo)     H(rot)  DE(clash)    DE(int)     intcor
     14.44     -15.40       2.68        0.00      56.16       2.18       0.07       0.89       ----

> <Gold.Chemscore.Fitness>
14.4371

> <Gold.Chemscore.DG>
-15.3973

> <Gold.Chemscore.ZeroCoef>
-5.4800

> <Gold.Chemscore.Hbond>
2.6750

> <Gold.Chemscore.Metal>
0.0000

> <Gold.Chemscore.Lipo>
56.1603

> <Gold.Chemscore.Internal_Hbond>
0.0000

> <Gold.Chemscore.DEClash>
0.0689

> <Gold.Chemscore.DEInternal>
0.8913

> <Gold.Chemscore.Rot>
2.1828

> <Gold.Chemscore.Internal.Correction>
   9.000000E+99

> <Gold.Chemscore.Hbonds>
donor molecule, donor type, donor heavy atom, donor atom, acceptor molecule, acceptor atom, score
      L1  H     9    39       P1  7948  0.65
      L1  H    16    36       P1  7957  0.66
      P1  H  7989  7998       L1    18  0.93

> <Gold.Chemscore.Hbond.Weighted>
-8.9346

> <Gold.Chemscore.Metal.Weighted>
-0.0000

> <Gold.Chemscore.Lipo.Weighted>
-6.5707

> <Gold.Chemscore.Internal_Hbond.Weighted>
0.0000

> <Gold.Chemscore.DEClash.Weighted>
0.0689

> <Gold.Chemscore.DEInternal.Weighted>
0.8913

> <Gold.Chemscore.Rot.Weighted>
5.5880

> <Gold.Chemscore.Internal.Correction.Weighted>
   9.000000E+99

> <Gold.Protein.RotatedTorsions>
[ 6907 6896 6895 6894 ] final   57.67 input  -60.11 | X-H torsion
[ 7974 7965 7964 7962 ] final   98.91 input  175.53 | X-H torsion
[ 8008 7997 7996 7995 ] final -155.00 input   59.86 | X-H torsion
[ 10167 10162 10161 10158 ] final  -10.72 input  -65.29 | X-H torsion
[ 10718 10713 10712 10709 ] final   85.10 input   66.30 | X-H torsion
[ 10763 10752 10751 10750 ] final    8.58 input  -60.55 | X-H torsion
[ 11005 11000 10999 10996 ] final   -1.45 input  -57.11 | X-H torsion

> <Gold.Protein.ActiveResidues>
 VAL166  LYS551  ARG553  GLY616  TRP617  ASP618  TYR619  PRO620  LYS621  CYS622 
 ASP623  PHE694  ASN695  SER759  ASP760  ASP761  ALA762  ILE779  LEU786  VAL792 
 PHE793  MET794  SER795  GLU796  ALA797  LYS798  CYS799  TRP800  GLU811  SER814 

> <Gold.Protein.RotatedAtoms>
  152.3753  134.6673  160.0161 H   0  0  0  0  0  0  0  0  0  0  0  0  # atno 6907 bound_to 6896
  151.6953  133.3305  159.3261 H   0  0  0  0  0  0  0  0  0  0  0  0  # atno 6908 bound_to 6896
  150.7705  134.6598  159.6378 H   0  0  0  0  0  0  0  0  0  0  0  0  # atno 6909 bound_to 6896
  145.4059  139.2340  143.3274 H   0  0  0  0  0  0  0  0  0  0  0  0  # atno 7974 bound_to 7965
  155.6950  140.0760  157.2433 H   0  0  0  0  0  0  0  0  0  0  0  0  # atno 8008 bound_to 7997
  154.4082  140.1657  156.2181 H   0  0  0  0  0  0  0  0  0  0  0  0  # atno 8009 bound_to 7997
  155.9418  140.3384  155.6337 H   0  0  0  0  0  0  0  0  0  0  0  0  # atno 8010 bound_to 7997
  140.7121  143.5717  150.9086 H   0  0  0  0  0  0  0  0  0  0  0  0  # atno 10167 bound_to 10162
  157.6909  131.0161  150.2772 H   0  0  0  0  0  0  0  0  0  0  0  0  # atno 10718 bound_to 10713
  153.2234  135.6884  153.7973 H   0  0  0  0  0  0  0  0  0  0  0  0  # atno 10763 bound_to 10752
  153.7163  135.3274  155.3258 H   0  0  0  0  0  0  0  0  0  0  0  0  # atno 10764 bound_to 10752
  154.8280  135.4602  154.1091 H   0  0  0  0  0  0  0  0  0  0  0  0  # atno 10765 bound_to 10752
  140.6474  133.9435  155.8361 H   0  0  0  0  0  0  0  0  0  0  0  0  # atno 11005 bound_to 11000
  146.2729  140.4764  142.8807 LP  0  0  0  0  0  0  0  0  0  0  0  0  # atno 17320 bound_to 7965
  144.8342  140.6755  143.6271 LP  0  0  0  0  0  0  0  0  0  0  0  0  # atno 17321 bound_to 7965
  139.9443  143.6346  152.3046 LP  0  0  0  0  0  0  0  0  0  0  0  0  # atno 17342 bound_to 10162
  139.6841  144.7653  151.1555 LP  0  0  0  0  0  0  0  0  0  0  0  0  # atno 17343 bound_to 10162
  156.3325  130.3802  149.7479 LP  0  0  0  0  0  0  0  0  0  0  0  0  # atno 17370 bound_to 10713
  156.5014  130.8130  151.3134 LP  0  0  0  0  0  0  0  0  0  0  0  0  # atno 17371 bound_to 10713
  141.0562  134.0413  157.3720 LP  0  0  0  0  0  0  0  0  0  0  0  0  # atno 17394 bound_to 11000
  139.9058  135.0179  156.7478 LP  0  0  0  0  0  0  0  0  0  0  0  0  # atno 17395 bound_to 11000

$$$$
