AV-unprocessed.smi:1073|AV-procd|sdf|4689|dock10
  -GOLD-   22720 3213D 1   1.00000     0.00000
 Structure written by MMmdl.
 44 44  0  0  0  0  0  0  0  0  1 V2000
  153.8874  138.7214  160.0376 C   0  0  0  0  0  0  0  0  0  0  0  0
  152.9495  138.6365  158.9290 N   0  0  0  0  0  0  0  0  0  0  0  0
  151.8492  137.8700  158.9278 C   0  0  0  0  0  0  0  0  0  0  0  0
  151.5199  137.1670  159.8847 O   0  0  0  0  0  0  0  0  0  0  0  0
  150.9792  137.9255  157.6647 C   0  0  2  0  0  0  0  0  0  0  0  0
  150.5204  139.3681  157.3425 C   0  0  0  0  0  0  0  0  0  0  0  0
  150.0338  139.6202  155.8967 C   0  0  0  0  0  0  0  0  0  0  0  0
  151.0180  139.0851  154.8429 C   0  0  0  0  0  0  0  0  0  0  0  0
  149.7752  141.1173  155.6691 C   0  0  0  0  0  0  0  0  0  0  0  0
  149.8271  137.0343  157.8111 N   0  0  0  0  0  0  0  0  0  0  0  0
  148.7507  137.2477  158.5838 C   0  0  0  0  0  0  0  0  0  0  0  0
  148.6134  138.2446  159.2939 O   0  0  0  0  0  0  0  0  0  0  0  0
  147.6811  136.1468  158.5529 C   0  0  0  0  0  0  0  0  0  0  0  0
  147.6416  135.3336  159.7796 N   0  0  0  0  0  0  0  0  0  0  0  0
  147.8095  133.9429  159.6308 C   0  0  0  0  0  0  0  0  0  0  0  0
  147.7866  133.0866  160.6700 C   0  0  0  0  0  0  0  0  0  0  0  0
  148.0327  131.5975  160.4831 C   0  0  0  0  0  0  0  0  0  0  0  0
  147.0415  131.0284  159.7969 F   0  0  0  0  0  0  0  0  0  0  0  0
  149.1666  131.4072  159.8100 F   0  0  0  0  0  0  0  0  0  0  0  0
  148.1391  130.9766  161.6586 F   0  0  0  0  0  0  0  0  0  0  0  0
  147.6087  133.6720  161.9845 C   0  0  0  0  0  0  0  0  0  0  0  0
  147.4613  135.0016  162.1456 C   0  0  0  0  0  0  0  0  0  0  0  0
  147.4718  135.9183  161.0031 C   0  0  0  0  0  0  0  0  0  0  0  0
  147.3381  137.1348  161.1376 O   0  0  0  0  0  0  0  0  0  0  0  0
  154.6961  139.4087  159.7889 H   0  0  0  0  0  0  0  0  0  0  0  0
  154.3234  137.7451  160.2526 H   0  0  0  0  0  0  0  0  0  0  0  0
  153.3930  139.0881  160.9380 H   0  0  0  0  0  0  0  0  0  0  0  0
  153.1501  139.1908  158.1092 H   0  0  0  0  0  0  0  0  0  0  0  0
  151.6088  137.5664  156.8495 H   0  0  0  0  0  0  0  0  0  0  0  0
  149.7199  139.6338  158.0351 H   0  0  0  0  0  0  0  0  0  0  0  0
  151.3336  140.0633  157.5582 H   0  0  0  0  0  0  0  0  0  0  0  0
  149.0794  139.1140  155.7534 H   0  0  0  0  0  0  0  0  0  0  0  0
  152.0025  139.5411  154.9521 H   0  0  0  0  0  0  0  0  0  0  0  0
  150.6639  139.2989  153.8341 H   0  0  0  0  0  0  0  0  0  0  0  0
  151.1411  138.0050  154.9137 H   0  0  0  0  0  0  0  0  0  0  0  0
  150.6883  141.7008  155.7918 H   0  0  0  0  0  0  0  0  0  0  0  0
  149.0370  141.5022  156.3736 H   0  0  0  0  0  0  0  0  0  0  0  0
  149.3943  141.3028  154.6643 H   0  0  0  0  0  0  0  0  0  0  0  0
  149.8479  136.1881  157.2599 H   0  0  0  0  0  0  0  0  0  0  0  0
  146.7051  136.6002  158.3694 H   0  0  0  0  0  0  0  0  0  0  0  0
  147.8684  135.5149  157.6837 H   0  0  0  0  0  0  0  0  0  0  0  0
  147.9705  133.6164  158.6135 H   0  0  0  0  0  0  0  0  0  0  0  0
  147.5913  133.0336  162.8555 H   0  0  0  0  0  0  0  0  0  0  0  0
  147.3309  135.4027  163.1400 H   0  0  0  0  0  0  0  0  0  0  0  0
  1  2  1  0  0  0  0
  1 25  1  0  0  0  0
  1 26  1  0  0  0  0
  1 27  1  0  0  0  0
  2  3  1  0  0  0  0
  2 28  1  0  0  0  0
  3  4  2  0  0  0  0
  3  5  1  0  0  0  0
  5  6  1  0  0  0  0
  5 10  1  0  0  0  0
  5 29  1  0  0  0  0
  6  7  1  0  0  0  0
  6 30  1  0  0  0  0
  6 31  1  0  0  0  0
  7  8  1  0  0  0  0
  7  9  1  0  0  0  0
  7 32  1  0  0  0  0
  8 33  1  0  0  0  0
  8 34  1  0  0  0  0
  8 35  1  0  0  0  0
  9 36  1  0  0  0  0
  9 37  1  0  0  0  0
  9 38  1  0  0  0  0
 10 11  1  0  0  0  0
 10 39  1  0  0  0  0
 11 12  2  0  0  0  0
 11 13  1  0  0  0  0
 13 14  1  0  0  0  0
 13 40  1  0  0  0  0
 13 41  1  0  0  0  0
 14 23  1  0  0  0  0
 14 15  1  0  0  0  0
 15 16  2  0  0  0  0
 15 42  1  0  0  0  0
 16 17  1  0  0  0  0
 16 21  1  0  0  0  0
 17 18  1  0  0  0  0
 17 19  1  0  0  0  0
 17 20  1  0  0  0  0
 21 22  2  0  0  0  0
 21 43  1  0  0  0  0
 22 23  1  0  0  0  0
 22 44  1  0  0  0  0
 23 24  2  0  0  0  0
M  END
> <s_m_source_file>
AV-unprocessed.smi

> <i_m_source_file_index>
1073

> <i_lp_mmshare_version>
43012

> <i_f3d_flags>
0

> <s_epik_input>
W0NIM11bTkhdQyg9TylbQ0BIXShbQ0gyXVtDSF0oW0NIM10pW0NIM10pW05IXUMoPU8pW0NIMl1uMVtjSF1jKEMoRikoRilGKVtjSF1bY0hdYzE9Tw==

> <s_epik_cmdline>
J2VwaWtfcHl0aG9uJywgJy1waCcsICc3LjAnLCAnLXRuJywgJzgnLCAnLW1hJywgJzIwMCcsICctbWV0YWxfYmluZGluZycsICctaW1hZScsICc8aW5maWxlLm1hZT4nLCAnLW9tYWUnLCAnPG91dGZpbGUubWFlPic=

> <r_lp_tautomer_probability>
1

> <r_epik_Ionization_Penalty>
7.02352e-08

> <r_epik_Ionization_Penalty_Charging>
1.57869e-08

> <r_epik_Ionization_Penalty_Neutral>
5.44484e-08

> <r_epik_State_Penalty>
-0

> <r_epik_Charging_Adjusted_Penalty>
1.57869e-08

> <i_epik_Tot_Q>
0

> <i_epik_Tot_abs_Q>
0

> <r_epik_Metal_State_Penalty>
-0

> <b_epik_Metal_Only>
0

> <s_lp_Force_Field>
OPLS_2005

> <r_lp_Energy>
18.1755

> <b_lp_Chiralities_Consistent>
1

> <s_lp_Variant>
AV-unprocessed.smi:1073-1

> <Gold.Version>
5.8.1

> <Gold.Id.Protein>
6NUR|6NUR_protein|mol2

> <Gold.PLP.Fitness>
41.8638

> <Gold.PLP.PLP>
-34.3822

> <Gold.PLP.part.hbond>
-5.0000

> <Gold.PLP.part.metal>
0.0000

> <Gold.PLP.part.buried>
-2.9722

> <Gold.PLP.part.nonpolar>
-25.6669

> <Gold.PLP.part.repulsive>
0.1448

> <Gold.PLP.ligand.clash>
0.0000

> <Gold.PLP.ligand.torsion>
0.5754

> <Gold.PLP.Chemscore.Hbond>
2.8240

> <Gold.PLP.Chemscore.CHOScore>
0.0000

> <Gold.PLP.Chemscore.Metal>
0.0000

> <Gold.Chemscore.Hbonds>
donor molecule, donor type, donor heavy atom, donor atom, acceptor molecule, acceptor atom, score
      P1  H  6896  6907       L1     4  0.93
      P1  H  6931  6943       L1    24  0.59
      P1  H  6934  6947       L1    24  1.00

> <Gold.PLP.Chemscore.Internal.Correction>
0.1603

> <Gold.Rescore>
     Score         DG    S(hbond)    S(metal)    S(lipo)     H(rot)  DE(clash)    DE(int)     intcor
     11.23     -15.68       2.74        0.00      63.93       2.51       0.01       4.44       ----

> <Gold.Chemscore.Fitness>
11.2287

> <Gold.Chemscore.DG>
-15.6773

> <Gold.Chemscore.ZeroCoef>
-5.4800

> <Gold.Chemscore.Hbond>
2.7413

> <Gold.Chemscore.Metal>
0.0000

> <Gold.Chemscore.Lipo>
63.9262

> <Gold.Chemscore.Internal_Hbond>
0.0000

> <Gold.Chemscore.DEClash>
0.0081

> <Gold.Chemscore.DEInternal>
4.4405

> <Gold.Chemscore.Rot>
2.5149

> <Gold.Chemscore.Internal.Correction>
   9.000000E+99

> <Gold.Chemscore.Hbonds>
donor molecule, donor type, donor heavy atom, donor atom, acceptor molecule, acceptor atom, score
      P1  H  6896  6907       L1     4  0.86
      P1  H  6931  6943       L1    24  0.55
      P1  H  6934  6947       L1    24  0.97

> <Gold.Chemscore.Hbond.Weighted>
-9.1561

> <Gold.Chemscore.Metal.Weighted>
-0.0000

> <Gold.Chemscore.Lipo.Weighted>
-7.4794

> <Gold.Chemscore.Internal_Hbond.Weighted>
0.0000

> <Gold.Chemscore.DEClash.Weighted>
0.0081

> <Gold.Chemscore.DEInternal.Weighted>
4.4405

> <Gold.Chemscore.Rot.Weighted>
6.4381

> <Gold.Chemscore.Internal.Correction.Weighted>
   9.000000E+99

> <Gold.Protein.RotatedTorsions>
[ 6907 6896 6895 6894 ] final   15.60 input  -60.11 | X-H torsion
[ 7974 7965 7964 7962 ] final  110.42 input  175.53 | X-H torsion
[ 8008 7997 7996 7995 ] final   85.17 input   59.86 | X-H torsion
[ 10167 10162 10161 10158 ] final   35.11 input  -65.29 | X-H torsion
[ 10718 10713 10712 10709 ] final -155.04 input   66.30 | X-H torsion
[ 10763 10752 10751 10750 ] final  156.25 input  -60.55 | X-H torsion
[ 11005 11000 10999 10996 ] final  -81.89 input  -57.11 | X-H torsion

> <Gold.Protein.ActiveResidues>
 VAL166  LYS551  ARG553  GLY616  TRP617  ASP618  TYR619  PRO620  LYS621  CYS622 
 ASP623  PHE694  ASN695  SER759  ASP760  ASP761  ALA762  ILE779  LEU786  VAL792 
 PHE793  MET794  SER795  GLU796  ALA797  LYS798  CYS799  TRP800  GLU811  SER814 

> <Gold.Protein.RotatedAtoms>
  151.8206  135.0653  160.0424 H   0  0  0  0  0  0  0  0  0  0  0  0  # atno 6907 bound_to 6896
  152.2954  133.5598  159.5592 H   0  0  0  0  0  0  0  0  0  0  0  0  # atno 6908 bound_to 6896
  150.7249  134.0285  159.3767 H   0  0  0  0  0  0  0  0  0  0  0  0  # atno 6909 bound_to 6896
  145.2552  139.2724  143.4046 H   0  0  0  0  0  0  0  0  0  0  0  0  # atno 7974 bound_to 7965
  155.9465  140.3404  155.6372 H   0  0  0  0  0  0  0  0  0  0  0  0  # atno 8008 bound_to 7997
  155.6973  140.0756  157.2442 H   0  0  0  0  0  0  0  0  0  0  0  0  # atno 8009 bound_to 7997
  154.4113  140.1646  156.2140 H   0  0  0  0  0  0  0  0  0  0  0  0  # atno 8010 bound_to 7997
  140.4253  144.1402  150.6152 H   0  0  0  0  0  0  0  0  0  0  0  0  # atno 10167 bound_to 10162
  156.5075  130.8419  151.2633 H   0  0  0  0  0  0  0  0  0  0  0  0  # atno 10718 bound_to 10713
  154.1813  135.2799  155.3051 H   0  0  0  0  0  0  0  0  0  0  0  0  # atno 10763 bound_to 10752
  154.6000  135.5532  153.7368 H   0  0  0  0  0  0  0  0  0  0  0  0  # atno 10764 bound_to 10752
  153.0137  135.6389  154.1952 H   0  0  0  0  0  0  0  0  0  0  0  0  # atno 10765 bound_to 10752
  141.1665  133.7218  156.8489 H   0  0  0  0  0  0  0  0  0  0  0  0  # atno 11005 bound_to 11000
  146.3291  140.2954  142.8617 LP  0  0  0  0  0  0  0  0  0  0  0  0  # atno 17320 bound_to 7965
  144.9467  140.8136  143.5597 LP  0  0  0  0  0  0  0  0  0  0  0  0  # atno 17321 bound_to 7965
  140.4488  143.2495  151.9375 LP  0  0  0  0  0  0  0  0  0  0  0  0  # atno 17342 bound_to 10162
  139.4783  144.5582  151.8280 LP  0  0  0  0  0  0  0  0  0  0  0  0  # atno 17343 bound_to 10162
  157.7455  130.9961  150.2767 LP  0  0  0  0  0  0  0  0  0  0  0  0  # atno 17370 bound_to 10713
  156.3272  130.3795  149.7522 LP  0  0  0  0  0  0  0  0  0  0  0  0  # atno 17371 bound_to 10713
  140.1929  134.8952  157.3082 LP  0  0  0  0  0  0  0  0  0  0  0  0  # atno 17394 bound_to 11000
  140.2270  134.3955  155.7539 LP  0  0  0  0  0  0  0  0  0  0  0  0  # atno 17395 bound_to 11000

$$$$
