AV-unprocessed.smi:474|AV-procd|sdf|2666|dock1
  -GOLD-   2262023 83D 1   1.00000     0.00000
 Structure written by MMmdl.
 36 37  0  0  0  0  0  0  0  0  2 V2000
  145.5502  135.6737  161.5259 C   0  0  0  0  0  0  0  0  0  0  0  0
  146.6364  136.1072  160.6019 C   0  0  0  0  0  0  0  0  0  0  0  0
  147.6116  135.4243  159.9322 C   0  0  0  0  0  0  0  0  0  0  0  0
  148.3107  136.4507  159.2399 C   0  0  0  0  0  0  0  0  0  0  0  0
  149.3628  136.2783  158.4248 N   0  5  0  0  0  0  0  0  0  0  0  0
  150.4648  137.0517  158.5625 C   0  0  0  0  0  0  0  0  0  0  0  0
  151.6175  136.6558  158.7514 O   0  0  0  0  0  0  0  0  0  0  0  0
  150.2189  138.3661  158.4736 N   0  0  0  0  0  0  0  0  0  0  0  0
  151.2249  139.4146  158.5798 C   0  0  0  0  0  0  0  0  0  0  0  0
  150.6344  140.7753  158.1812 C   0  0  0  0  0  0  0  0  0  0  0  0
  151.3376  141.9424  158.8548 C   0  0  0  0  0  0  0  0  0  0  0  0
  151.0901  143.2206  158.5077 C   0  0  0  0  0  0  0  0  0  0  0  0
  151.7511  144.4244  159.1558 C   0  0  0  0  0  0  0  0  0  0  0  0
  152.4650  144.0644  160.4694 C   0  0  0  0  0  0  0  0  0  0  0  0
  153.2582  142.7593  160.3281 C   0  0  0  0  0  0  0  0  0  0  0  0
  152.3398  141.5846  159.9470 C   0  0  0  0  0  0  0  0  0  0  0  0
  147.7930  137.6484  159.4558 N   0  0  0  0  0  0  0  0  0  0  0  0
  146.7231  137.4376  160.3338 O   0  0  0  0  0  0  0  0  0  0  0  0
  144.9801  134.8522  161.0919 H   0  0  0  0  0  0  0  0  0  0  0  0
  144.8594  136.4916  161.7328 H   0  0  0  0  0  0  0  0  0  0  0  0
  145.9653  135.3338  162.4746 H   0  0  0  0  0  0  0  0  0  0  0  0
  147.8003  134.3615  159.9399 H   0  0  0  0  0  0  0  0  0  0  0  0
  149.2638  138.6553  158.3216 H   0  0  0  0  0  0  0  0  0  0  0  0
  151.5964  139.4532  159.6050 H   0  0  0  0  0  0  0  0  0  0  0  0
  152.0698  139.1634  157.9371 H   0  0  0  0  0  0  0  0  0  0  0  0
  150.6943  140.9090  157.1004 H   0  0  0  0  0  0  0  0  0  0  0  0
  149.5734  140.7977  158.4348 H   0  0  0  0  0  0  0  0  0  0  0  0
  150.3877  143.4358  157.7156 H   0  0  0  0  0  0  0  0  0  0  0  0
  152.4621  144.8424  158.4427 H   0  0  0  0  0  0  0  0  0  0  0  0
  150.9984  145.1910  159.3411 H   0  0  0  0  0  0  0  0  0  0  0  0
  153.1224  144.8796  160.7727 H   0  0  0  0  0  0  0  0  0  0  0  0
  151.7277  143.9495  161.2650 H   0  0  0  0  0  0  0  0  0  0  0  0
  154.0233  142.8870  159.5613 H   0  0  0  0  0  0  0  0  0  0  0  0
  153.7854  142.5333  161.2554 H   0  0  0  0  0  0  0  0  0  0  0  0
  151.7833  141.2556  160.8252 H   0  0  0  0  0  0  0  0  0  0  0  0
  152.9468  140.7386  159.6229 H   0  0  0  0  0  0  0  0  0  0  0  0
  1  2  1  0  0  0  0
  1 19  1  0  0  0  0
  1 20  1  0  0  0  0
  1 21  1  0  0  0  0
  2 18  1  0  0  0  0
  2  3  2  0  0  0  0
  3  4  1  0  0  0  0
  3 22  1  0  0  0  0
  4  5  1  0  0  0  0
  4 17  2  0  0  0  0
  5  6  1  0  0  0  0
  6  7  2  0  0  0  0
  6  8  1  0  0  0  0
  8  9  1  0  0  0  0
  8 23  1  0  0  0  0
  9 10  1  0  0  0  0
  9 24  1  0  0  0  0
  9 25  1  0  0  0  0
 10 11  1  0  0  0  0
 10 26  1  0  0  0  0
 10 27  1  0  0  0  0
 11 16  1  0  0  0  0
 11 12  2  0  0  0  0
 12 13  1  0  0  0  0
 12 28  1  0  0  0  0
 13 14  1  0  0  0  0
 13 29  1  0  0  0  0
 13 30  1  0  0  0  0
 14 15  1  0  0  0  0
 14 31  1  0  0  0  0
 14 32  1  0  0  0  0
 15 16  1  0  0  0  0
 15 33  1  0  0  0  0
 15 34  1  0  0  0  0
 16 35  1  0  0  0  0
 16 36  1  0  0  0  0
 17 18  1  0  0  0  0
M  CHG  1   5  -1
M  END
> <s_m_source_file>
AV-unprocessed.smi

> <i_m_source_file_index>
474

> <i_lp_mmshare_version>
43012

> <i_f3d_flags>
0

> <s_epik_input>
W0NIM11jMVtjSF1jKG5vMSlbTkhdQyg9TylbTkhdW0NIMl1bQ0gyXUMyPVtDSF1bQ0gyXVtDSDJdW0NIMl1bQ0gyXTI=

> <s_epik_cmdline>
J2VwaWtfcHl0aG9uJywgJy1waCcsICc3LjAnLCAnLXRuJywgJzgnLCAnLW1hJywgJzIwMCcsICctbWV0YWxfYmluZGluZycsICctaW1hZScsICc8aW5maWxlLm1hZT4nLCAnLW9tYWUnLCAnPG91dGZpbGUubWFlPic=

> <r_lp_tautomer_probability>
1

> <r_epik_Ionization_Penalty>
6.63591

> <r_epik_Ionization_Penalty_Charging>
6.63578

> <r_epik_Ionization_Penalty_Neutral>
0.000126188

> <r_epik_State_Penalty>
6.63578

> <r_epik_Charging_Adjusted_Penalty>
13.2716

> <i_epik_Tot_Q>
-1

> <i_epik_Tot_abs_Q>
1

> <r_epik_Metal_State_Penalty>
2.55901

> <b_epik_Metal_Only>
1

> <s_lp_Force_Field>
OPLS_2005

> <r_lp_Energy>
1.29759

> <b_lp_Chiralities_Consistent>
1

> <s_lp_Variant>
AV-unprocessed.smi:474-2

> <Gold.Version>
5.8.1

> <Gold.Id.Protein>
6NUR|6NUR_protein|mol2

> <Gold.PLP.Fitness>
44.0338

> <Gold.PLP.PLP>
-36.7500

> <Gold.PLP.part.hbond>
-5.2661

> <Gold.PLP.part.metal>
0.0000

> <Gold.PLP.part.buried>
-3.4703

> <Gold.PLP.part.nonpolar>
-29.3588

> <Gold.PLP.part.repulsive>
0.1115

> <Gold.PLP.ligand.clash>
0.0000

> <Gold.PLP.ligand.torsion>
1.2336

> <Gold.PLP.Chemscore.Hbond>
3.2122

> <Gold.PLP.Chemscore.CHOScore>
0.0000

> <Gold.PLP.Chemscore.Metal>
0.0000

> <Gold.Chemscore.Hbonds>
donor molecule, donor type, donor heavy atom, donor atom, acceptor molecule, acceptor atom, score
      P1  H  6896  6907       L1     5  0.02
      P1  H  6896  6908       L1     7  0.01
      P1  H  6934  6947       L1    18  0.15

> <Gold.PLP.Chemscore.Internal.Correction>
0.1145

> <Gold.Rescore>
     Score         DG    S(hbond)    S(metal)    S(lipo)     H(rot)  DE(clash)    DE(int)     intcor
     14.36     -17.19       1.42        0.00      91.29       1.45       0.27       2.57       ----

> <Gold.Chemscore.Fitness>
14.3580

> <Gold.Chemscore.DG>
-17.1939

> <Gold.Chemscore.ZeroCoef>
-5.4800

> <Gold.Chemscore.Hbond>
1.4228

> <Gold.Chemscore.Metal>
0.0000

> <Gold.Chemscore.Lipo>
91.2929

> <Gold.Chemscore.Internal_Hbond>
0.0000

> <Gold.Chemscore.DEClash>
0.2654

> <Gold.Chemscore.DEInternal>
2.5705

> <Gold.Chemscore.Rot>
1.4529

> <Gold.Chemscore.Internal.Correction>
   9.000000E+99

> <Gold.Chemscore.Hbonds>
donor molecule, donor type, donor heavy atom, donor atom, acceptor molecule, acceptor atom, score
      P1  H  6896  6908       L1     7  0.02

> <Gold.Chemscore.Hbond.Weighted>
-4.7521

> <Gold.Chemscore.Metal.Weighted>
-0.0000

> <Gold.Chemscore.Lipo.Weighted>
-10.6813

> <Gold.Chemscore.Internal_Hbond.Weighted>
0.0000

> <Gold.Chemscore.DEClash.Weighted>
0.2654

> <Gold.Chemscore.DEInternal.Weighted>
2.5705

> <Gold.Chemscore.Rot.Weighted>
3.7194

> <Gold.Chemscore.Internal.Correction.Weighted>
   9.000000E+99

> <Gold.Protein.RotatedTorsions>
[ 6907 6896 6895 6894 ] final  -66.67 input  -60.11 | X-H torsion
[ 7974 7965 7964 7962 ] final  168.34 input  175.53 | X-H torsion
[ 8008 7997 7996 7995 ] final  -58.84 input   59.86 | X-H torsion
[ 10167 10162 10161 10158 ] final -141.32 input  -65.29 | X-H torsion
[ 10718 10713 10712 10709 ] final  -60.78 input   66.30 | X-H torsion
[ 10763 10752 10751 10750 ] final  -48.36 input  -60.55 | X-H torsion
[ 11005 11000 10999 10996 ] final  133.06 input  -57.11 | X-H torsion

> <Gold.Protein.ActiveResidues>
 VAL166  LYS551  ARG553  GLY616  TRP617  ASP618  TYR619  PRO620  LYS621  CYS622 
 ASP623  PHE694  ASN695  SER759  ASP760  ASP761  ALA762  ILE779  LEU786  VAL792 
 PHE793  MET794  SER795  GLU796  ALA797  LYS798  CYS799  TRP800  GLU811  SER814 

> <Gold.Protein.RotatedAtoms>
  150.7452  134.5988  159.6025 H   0  0  0  0  0  0  0  0  0  0  0  0  # atno 6907 bound_to 6896
  152.3355  134.7200  160.0287 H   0  0  0  0  0  0  0  0  0  0  0  0  # atno 6908 bound_to 6896
  151.7670  133.3302  159.3470 H   0  0  0  0  0  0  0  0  0  0  0  0  # atno 6909 bound_to 6896
  144.7392  139.8894  143.6402 H   0  0  0  0  0  0  0  0  0  0  0  0  # atno 7974 bound_to 7965
  154.4326  140.1075  156.6021 H   0  0  0  0  0  0  0  0  0  0  0  0  # atno 8008 bound_to 7997
  155.5900  140.3492  155.4545 H   0  0  0  0  0  0  0  0  0  0  0  0  # atno 8009 bound_to 7997
  156.0253  140.1248  157.0304 H   0  0  0  0  0  0  0  0  0  0  0  0  # atno 8010 bound_to 7997
  139.8196  143.7592  152.2666 H   0  0  0  0  0  0  0  0  0  0  0  0  # atno 10167 bound_to 10162
  156.0966  130.4192  150.0902 H   0  0  0  0  0  0  0  0  0  0  0  0  # atno 10718 bound_to 10713
  154.0764  135.6597  153.4831 H   0  0  0  0  0  0  0  0  0  0  0  0  # atno 10763 bound_to 10752
  153.0372  135.5169  154.7516 H   0  0  0  0  0  0  0  0  0  0  0  0  # atno 10764 bound_to 10752
  154.6598  135.3013  154.9849 H   0  0  0  0  0  0  0  0  0  0  0  0  # atno 10765 bound_to 10752
  139.9828  134.9542  156.9671 H   0  0  0  0  0  0  0  0  0  0  0  0  # atno 11005 bound_to 11000
  146.1153  139.4163  143.0262 LP  0  0  0  0  0  0  0  0  0  0  0  0  # atno 17320 bound_to 7965
  145.7383  141.0017  143.1314 LP  0  0  0  0  0  0  0  0  0  0  0  0  # atno 17321 bound_to 7965
  139.7766  144.7459  151.0148 LP  0  0  0  0  0  0  0  0  0  0  0  0  # atno 17342 bound_to 10162
  140.7814  143.4587  151.0309 LP  0  0  0  0  0  0  0  0  0  0  0  0  # atno 17343 bound_to 10162
  156.8900  130.9585  151.3589 LP  0  0  0  0  0  0  0  0  0  0  0  0  # atno 17370 bound_to 10713
  157.6129  130.8596  149.8980 LP  0  0  0  0  0  0  0  0  0  0  0  0  # atno 17371 bound_to 10713
  140.5062  134.1048  155.7260 LP  0  0  0  0  0  0  0  0  0  0  0  0  # atno 17394 bound_to 11000
  141.1498  133.8990  157.2127 LP  0  0  0  0  0  0  0  0  0  0  0  0  # atno 17395 bound_to 11000

$$$$
