AV-unprocessed.smi:2323|AV-procd|sdf|9290|dock4
  -GOLD-   2272012513D 1   1.00000     0.00000
 Structure written by MMmdl.
 30 31  0  0  0  0  0  0  0  0  1 V2000
  146.7833  142.6046  154.0932 C   0  0  0  0  0  0  0  0  0  0  0  0
  148.0346  142.0934  154.6308 N   0  0  0  0  0  0  0  0  0  0  0  0
  148.4767  140.8390  154.4538 C   0  0  0  0  0  0  0  0  0  0  0  0
  147.8730  139.9945  153.7913 O   0  0  0  0  0  0  0  0  0  0  0  0
  149.8132  140.5285  155.0650 C   0  0  0  0  0  0  0  0  0  0  0  0
  150.5915  139.4575  154.5745 C   0  0  0  0  0  0  0  0  0  0  0  0
  151.8284  139.1840  155.1884 C   0  0  0  0  0  0  0  0  0  0  0  0
  152.3103  139.8910  156.2313 N   0  0  0  0  0  0  0  0  0  0  0  0
  151.5625  140.9139  156.7135 C   0  0  0  0  0  0  0  0  0  0  0  0
  152.0350  141.6441  157.7861 O   0  0  0  0  0  0  0  0  0  0  0  0
  151.2634  142.7359  158.2914 C   0  0  1  0  0  0  0  0  0  0  0  0
  151.7047  143.1125  159.7004 C   0  0  0  0  0  0  0  0  0  0  0  0
  152.8192  144.1148  159.4399 C   0  0  0  0  0  0  0  0  0  0  0  0
  152.3163  144.8666  158.3491 O   0  0  0  0  0  0  0  0  0  0  0  0
  151.6183  143.9868  157.4729 C   0  0  0  0  0  0  0  0  0  0  0  0
  150.3114  141.2633  156.1657 C   0  0  0  0  0  0  0  0  0  0  0  0
  146.6640  143.6539  154.3627 H   0  0  0  0  0  0  0  0  0  0  0  0
  145.9340  142.0504  154.4946 H   0  0  0  0  0  0  0  0  0  0  0  0
  146.7671  142.5281  153.0053 H   0  0  0  0  0  0  0  0  0  0  0  0
  148.6031  142.7302  155.1702 H   0  0  0  0  0  0  0  0  0  0  0  0
  150.2544  138.8550  153.7432 H   0  0  0  0  0  0  0  0  0  0  0  0
  152.4473  138.3735  154.8329 H   0  0  0  0  0  0  0  0  0  0  0  0
  150.1924  142.5351  158.2302 H   0  0  0  0  0  0  0  0  0  0  0  0
  150.8848  143.6060  160.2239 H   0  0  0  0  0  0  0  0  0  0  0  0
  152.0287  142.2658  160.3058 H   0  0  0  0  0  0  0  0  0  0  0  0
  153.0318  144.7467  160.3024 H   0  0  0  0  0  0  0  0  0  0  0  0
  153.7393  143.6080  159.1441 H   0  0  0  0  0  0  0  0  0  0  0  0
  152.2481  143.7401  156.6169 H   0  0  0  0  0  0  0  0  0  0  0  0
  150.7259  144.4870  157.0953 H   0  0  0  0  0  0  0  0  0  0  0  0
  149.7512  142.0810  156.5953 H   0  0  0  0  0  0  0  0  0  0  0  0
  1  2  1  0  0  0  0
  1 17  1  0  0  0  0
  1 18  1  0  0  0  0
  1 19  1  0  0  0  0
  2  3  1  0  0  0  0
  2 20  1  0  0  0  0
  3  4  2  0  0  0  0
  3  5  1  0  0  0  0
  5 16  1  0  0  0  0
  5  6  2  0  0  0  0
  6  7  1  0  0  0  0
  6 21  1  0  0  0  0
  7  8  2  0  0  0  0
  7 22  1  0  0  0  0
  8  9  1  0  0  0  0
  9 10  1  0  0  0  0
  9 16  2  0  0  0  0
 10 11  1  0  0  0  0
 11 15  1  0  0  0  0
 11 12  1  0  0  0  0
 11 23  1  0  0  0  0
 12 13  1  0  0  0  0
 12 24  1  0  0  0  0
 12 25  1  0  0  0  0
 13 14  1  0  0  0  0
 13 26  1  0  0  0  0
 13 27  1  0  0  0  0
 14 15  1  0  0  0  0
 15 28  1  0  0  0  0
 15 29  1  0  0  0  0
 16 30  1  0  0  0  0
M  END
> <s_m_source_file>
AV-unprocessed.smi

> <i_m_source_file_index>
2323

> <i_lp_mmshare_version>
43012

> <i_f3d_flags>
0

> <s_epik_input>
W0NIM11bTkhdQyg9TyljMVtjSF1bY0hdbmMoW2NIXTEpT1tDQEBIXTJbQ0gyXVtDSDJdT1tDSDJdMg==

> <s_epik_cmdline>
J2VwaWtfcHl0aG9uJywgJy1waCcsICc3LjAnLCAnLXRuJywgJzgnLCAnLW1hJywgJzIwMCcsICctbWV0YWxfYmluZGluZycsICctaW1hZScsICc8aW5maWxlLm1hZT4nLCAnLW9tYWUnLCAnPG91dGZpbGUubWFlPic=

> <r_lp_tautomer_probability>
1

> <r_epik_Ionization_Penalty>
2.2633e-06

> <r_epik_Ionization_Penalty_Charging>
0

> <r_epik_Ionization_Penalty_Neutral>
2.2633e-06

> <r_epik_State_Penalty>
-0

> <r_epik_Charging_Adjusted_Penalty>
0

> <i_epik_Tot_Q>
0

> <i_epik_Tot_abs_Q>
0

> <r_epik_Metal_State_Penalty>
-0

> <b_epik_Metal_Only>
0

> <s_lp_Force_Field>
OPLS_2005

> <r_lp_Energy>
16.8838

> <b_lp_Chiralities_Consistent>
1

> <s_lp_Variant>
AV-unprocessed.smi:2323-2

> <Gold.Version>
5.8.1

> <Gold.Id.Protein>
6NUR|6NUR_protein|mol2

> <Gold.PLP.Fitness>
38.3287

> <Gold.PLP.PLP>
-33.6774

> <Gold.PLP.part.hbond>
-2.0000

> <Gold.PLP.part.metal>
0.0000

> <Gold.PLP.part.buried>
-2.3012

> <Gold.PLP.part.nonpolar>
-29.3545

> <Gold.PLP.part.repulsive>
0.5180

> <Gold.PLP.ligand.clash>
0.0000

> <Gold.PLP.ligand.torsion>
0.4457

> <Gold.PLP.Chemscore.Hbond>
1.8406

> <Gold.PLP.Chemscore.CHOScore>
0.0000

> <Gold.PLP.Chemscore.Metal>
0.0000

> <Gold.Chemscore.Hbonds>
donor molecule, donor type, donor heavy atom, donor atom, acceptor molecule, acceptor atom, score
      L1  H     2    20       P1  8028  0.81
      P1  H  7997  8010       L1     8  0.98

> <Gold.PLP.Chemscore.Internal.Correction>
0.0209

> <Gold.Rescore>
     Score         DG    S(hbond)    S(metal)    S(lipo)     H(rot)  DE(clash)    DE(int)     intcor
     16.17     -17.02       1.47        0.00      83.76       1.24       0.47       0.37       ----

> <Gold.Chemscore.Fitness>
16.1687

> <Gold.Chemscore.DG>
-17.0173

> <Gold.Chemscore.ZeroCoef>
-5.4800

> <Gold.Chemscore.Hbond>
1.4742

> <Gold.Chemscore.Metal>
0.0000

> <Gold.Chemscore.Lipo>
83.7600

> <Gold.Chemscore.Internal_Hbond>
0.0000

> <Gold.Chemscore.DEClash>
0.4738

> <Gold.Chemscore.DEInternal>
0.3748

> <Gold.Chemscore.Rot>
1.2448

> <Gold.Chemscore.Internal.Correction>
   9.000000E+99

> <Gold.Chemscore.Hbonds>
donor molecule, donor type, donor heavy atom, donor atom, acceptor molecule, acceptor atom, score
      L1  H     2    20       P1  8028  0.76
      P1  H  7997  8010       L1     8  0.79

> <Gold.Chemscore.Hbond.Weighted>
-4.9240

> <Gold.Chemscore.Metal.Weighted>
-0.0000

> <Gold.Chemscore.Lipo.Weighted>
-9.7999

> <Gold.Chemscore.Internal_Hbond.Weighted>
0.0000

> <Gold.Chemscore.DEClash.Weighted>
0.4738

> <Gold.Chemscore.DEInternal.Weighted>
0.3748

> <Gold.Chemscore.Rot.Weighted>
3.1866

> <Gold.Chemscore.Internal.Correction.Weighted>
   9.000000E+99

> <Gold.Protein.RotatedTorsions>
[ 6907 6896 6895 6894 ] final  -54.82 input  -60.11 | X-H torsion
[ 7974 7965 7964 7962 ] final -111.34 input  175.53 | X-H torsion
[ 8008 7997 7996 7995 ] final   79.96 input   59.86 | X-H torsion
[ 10167 10162 10161 10158 ] final  103.61 input  -65.29 | X-H torsion
[ 10718 10713 10712 10709 ] final  138.32 input   66.30 | X-H torsion
[ 10763 10752 10751 10750 ] final -102.30 input  -60.55 | X-H torsion
[ 11005 11000 10999 10996 ] final  -84.09 input  -57.11 | X-H torsion

> <Gold.Protein.ActiveResidues>
 VAL166  LYS551  ARG553  GLY616  TRP617  ASP618  TYR619  PRO620  LYS621  CYS622 
 ASP623  PHE694  ASN695  SER759  ASP760  ASP761  ALA762  ILE779  LEU786  VAL792 
 PHE793  MET794  SER795  GLU796  ALA797  LYS798  CYS799  TRP800  GLU811  SER814 

> <Gold.Protein.RotatedAtoms>
  150.8305  134.7556  159.6849 H   0  0  0  0  0  0  0  0  0  0  0  0  # atno 6907 bound_to 6896
  152.4410  134.5587  159.9898 H   0  0  0  0  0  0  0  0  0  0  0  0  # atno 6908 bound_to 6896
  151.5750  133.3347  159.3033 H   0  0  0  0  0  0  0  0  0  0  0  0  # atno 6909 bound_to 6896
  145.1573  140.8860  143.3611 H   0  0  0  0  0  0  0  0  0  0  0  0  # atno 7974 bound_to 7965
  155.8769  140.3446  155.5860 H   0  0  0  0  0  0  0  0  0  0  0  0  # atno 8008 bound_to 7997
  155.7765  140.0852  157.2100 H   0  0  0  0  0  0  0  0  0  0  0  0  # atno 8009 bound_to 7997
  154.4021  140.1509  156.2989 H   0  0  0  0  0  0  0  0  0  0  0  0  # atno 8010 bound_to 7997
  139.7248  144.7050  151.0815 H   0  0  0  0  0  0  0  0  0  0  0  0  # atno 10167 bound_to 10162
  157.4266  131.1044  151.0296 H   0  0  0  0  0  0  0  0  0  0  0  0  # atno 10718 bound_to 10713
  154.7723  135.4866  153.9674 H   0  0  0  0  0  0  0  0  0  0  0  0  # atno 10763 bound_to 10752
  153.1383  135.6767  153.9074 H   0  0  0  0  0  0  0  0  0  0  0  0  # atno 10764 bound_to 10752
  153.8756  135.3138  155.3422 H   0  0  0  0  0  0  0  0  0  0  0  0  # atno 10765 bound_to 10752
  141.1653  133.7328  156.8816 H   0  0  0  0  0  0  0  0  0  0  0  0  # atno 11005 bound_to 11000
  145.0368  139.3294  143.5997 LP  0  0  0  0  0  0  0  0  0  0  0  0  # atno 17320 bound_to 7965
  146.3487  139.9726  142.8704 LP  0  0  0  0  0  0  0  0  0  0  0  0  # atno 17321 bound_to 7965
  140.7760  143.5119  150.9642 LP  0  0  0  0  0  0  0  0  0  0  0  0  # atno 17342 bound_to 10162
  139.8806  143.7076  152.3157 LP  0  0  0  0  0  0  0  0  0  0  0  0  # atno 17343 bound_to 10162
  157.1207  130.6060  149.5504 LP  0  0  0  0  0  0  0  0  0  0  0  0  # atno 17370 bound_to 10713
  155.9898  130.4947  150.7232 LP  0  0  0  0  0  0  0  0  0  0  0  0  # atno 17371 bound_to 10713
  140.1711  134.9099  157.2834 LP  0  0  0  0  0  0  0  0  0  0  0  0  # atno 17394 bound_to 11000
  140.2501  134.3693  155.7445 LP  0  0  0  0  0  0  0  0  0  0  0  0  # atno 17395 bound_to 11000

$$$$
