AV-unprocessed.smi:1211|AV-procd|sdf|5078|dock8
  -GOLD-   22720 4123D 1   1.00000     0.00000
 Structure written by MMmdl.
 47 49  0  0  0  0  0  0  0  0  1 V2000
  152.0596  144.9768  157.4852 C   0  0  0  0  0  0  0  0  0  0  0  0
  152.1986  143.7206  158.3301 C   0  0  0  0  0  0  0  0  0  0  0  0
  153.0850  143.7223  159.4282 C   0  0  0  0  0  0  0  0  0  0  0  0
  153.2120  142.5607  160.2091 C   0  0  0  0  0  0  0  0  0  0  0  0
  152.4408  141.4398  159.8571 C   0  0  0  0  0  0  0  0  0  0  0  0
  151.5913  141.4294  158.8098 N   0  0  0  0  0  0  0  0  0  0  0  0
  151.4578  142.5422  158.0452 C   0  0  0  0  0  0  0  0  0  0  0  0
  150.5838  142.6030  156.9236 N   0  0  0  0  0  0  0  0  0  0  0  0
  150.2237  141.6133  156.0876 C   0  0  0  0  0  0  0  0  0  0  0  0
  150.5994  140.4429  156.1590 O   0  0  0  0  0  0  0  0  0  0  0  0
  149.3837  142.0604  155.1462 N   0  0  0  0  0  0  0  0  0  0  0  0
  148.7930  141.2337  154.0984 C   0  0  0  0  0  0  0  0  0  0  0  0
  147.3308  140.8077  154.4481 C   0  0  1  0  0  0  0  0  0  0  0  0
  146.5181  142.0061  154.8216 N   0  0  0  0  0  0  0  0  0  0  0  0
  146.1588  142.9146  153.7232 C   0  0  0  0  0  0  0  0  0  0  0  0
  145.3986  144.1582  154.2166 C   0  0  0  0  0  0  0  0  0  0  0  0
  144.2381  143.7617  154.9344 O   0  0  0  0  0  0  0  0  0  0  0  0
  144.5535  142.9435  156.0528 C   0  0  0  0  0  0  0  0  0  0  0  0
  145.3001  141.6860  155.5787 C   0  0  0  0  0  0  0  0  0  0  0  0
  146.7638  140.0332  153.2226 C   0  0  0  0  0  0  0  0  0  0  0  0
  147.4507  138.6663  153.1248 C   0  0  0  0  0  0  0  0  0  0  0  0
  147.8364  138.1336  154.8093 S   0  0  0  0  0  0  0  0  0  0  0  0
  147.3883  139.7252  155.5561 C   0  0  0  0  0  0  0  0  0  0  0  0
  152.7085  145.7737  157.8495 H   0  0  0  0  0  0  0  0  0  0  0  0
  151.0326  145.3424  157.5109 H   0  0  0  0  0  0  0  0  0  0  0  0
  152.3294  144.7721  156.4489 H   0  0  0  0  0  0  0  0  0  0  0  0
  153.6623  144.6021  159.6720 H   0  0  0  0  0  0  0  0  0  0  0  0
  153.8819  142.5299  161.0555 H   0  0  0  0  0  0  0  0  0  0  0  0
  152.5076  140.5274  160.4308 H   0  0  0  0  0  0  0  0  0  0  0  0
  150.1846  143.5110  156.7377 H   0  0  0  0  0  0  0  0  0  0  0  0
  149.1192  143.0346  155.1579 H   0  0  0  0  0  0  0  0  0  0  0  0
  148.8363  141.7843  153.1590 H   0  0  0  0  0  0  0  0  0  0  0  0
  149.4319  140.3669  153.9297 H   0  0  0  0  0  0  0  0  0  0  0  0
  147.0451  143.2797  153.2101 H   0  0  0  0  0  0  0  0  0  0  0  0
  145.5463  142.4011  152.9832 H   0  0  0  0  0  0  0  0  0  0  0  0
  146.0363  144.7738  154.8530 H   0  0  0  0  0  0  0  0  0  0  0  0
  145.0988  144.7773  153.3710 H   0  0  0  0  0  0  0  0  0  0  0  0
  145.1578  143.5046  156.7673 H   0  0  0  0  0  0  0  0  0  0  0  0
  143.6306  142.6663  156.5622 H   0  0  0  0  0  0  0  0  0  0  0  0
  144.6280  141.0839  154.9662 H   0  0  0  0  0  0  0  0  0  0  0  0
  145.5307  141.0972  156.4637 H   0  0  0  0  0  0  0  0  0  0  0  0
  145.7071  139.8106  153.3498 H   0  0  0  0  0  0  0  0  0  0  0  0
  146.8497  140.5934  152.2912 H   0  0  0  0  0  0  0  0  0  0  0  0
  146.8206  137.9315  152.6237 H   0  0  0  0  0  0  0  0  0  0  0  0
  148.3780  138.7373  152.5562 H   0  0  0  0  0  0  0  0  0  0  0  0
  148.0878  139.9777  156.3536 H   0  0  0  0  0  0  0  0  0  0  0  0
  146.4158  139.5793  156.0233 H   0  0  0  0  0  0  0  0  0  0  0  0
  1  2  1  0  0  0  0
  1 24  1  0  0  0  0
  1 25  1  0  0  0  0
  1 26  1  0  0  0  0
  2  7  1  0  0  0  0
  2  3  2  0  0  0  0
  3  4  1  0  0  0  0
  3 27  1  0  0  0  0
  4  5  2  0  0  0  0
  4 28  1  0  0  0  0
  5  6  1  0  0  0  0
  5 29  1  0  0  0  0
  6  7  2  0  0  0  0
  7  8  1  0  0  0  0
  8  9  1  0  0  0  0
  8 30  1  0  0  0  0
  9 10  2  0  0  0  0
  9 11  1  0  0  0  0
 11 12  1  0  0  0  0
 11 31  1  0  0  0  0
 12 13  1  0  0  0  0
 12 32  1  0  0  0  0
 12 33  1  0  0  0  0
 13 23  1  0  0  0  0
 13 14  1  0  0  0  0
 13 20  1  0  0  0  0
 14 19  1  0  0  0  0
 14 15  1  0  0  0  0
 15 16  1  0  0  0  0
 15 34  1  0  0  0  0
 15 35  1  0  0  0  0
 16 17  1  0  0  0  0
 16 36  1  0  0  0  0
 16 37  1  0  0  0  0
 17 18  1  0  0  0  0
 18 19  1  0  0  0  0
 18 38  1  0  0  0  0
 18 39  1  0  0  0  0
 19 40  1  0  0  0  0
 19 41  1  0  0  0  0
 20 21  1  0  0  0  0
 20 42  1  0  0  0  0
 20 43  1  0  0  0  0
 21 22  1  0  0  0  0
 21 44  1  0  0  0  0
 21 45  1  0  0  0  0
 22 23  1  0  0  0  0
 23 46  1  0  0  0  0
 23 47  1  0  0  0  0
M  END
> <s_m_source_file>
AV-unprocessed.smi

> <i_m_source_file_index>
1211

> <i_lp_mmshare_version>
43012

> <i_f3d_flags>
0

> <s_epik_input>
W0NIM11jMVtjSF1bY0hdW2NIXW5jMVtOSF1DKD1PKVtOSF1bQ0gyXVtDQF0yKFtDSDJdW0NIMl1TW0NIMl0yKU4zW0NIMl1bQ0gyXU9bQ0gyXVtDSDJdMw==

> <s_epik_cmdline>
J2VwaWtfcHl0aG9uJywgJy1waCcsICc3LjAnLCAnLXRuJywgJzgnLCAnLW1hJywgJzIwMCcsICctbWV0YWxfYmluZGluZycsICctaW1hZScsICc8aW5maWxlLm1hZT4nLCAnLW9tYWUnLCAnPG91dGZpbGUubWFlPic=

> <r_epik_Ionization_Penalty>
0.0195636

> <r_epik_Ionization_Penalty_Charging>
0

> <r_epik_Ionization_Penalty_Neutral>
0.0195636

> <r_epik_State_Penalty>
0.0155843

> <r_epik_Charging_Adjusted_Penalty>
0.0155843

> <i_epik_Tot_Q>
0

> <i_epik_Tot_abs_Q>
0

> <r_epik_Metal_State_Penalty>
0.0155842

> <b_epik_Metal_Only>
0

> <s_lp_Force_Field>
OPLS_2005

> <r_lp_Energy>
55.2683

> <b_lp_Chiralities_Consistent>
1

> <s_lp_Variant>
AV-unprocessed.smi:1211-1

> <Gold.Version>
5.8.1

> <Gold.Id.Protein>
6NUR|6NUR_protein|mol2

> <Gold.PLP.Fitness>
44.6360

> <Gold.PLP.PLP>
-40.1493

> <Gold.PLP.part.hbond>
-2.0000

> <Gold.PLP.part.metal>
0.0000

> <Gold.PLP.part.buried>
-5.5231

> <Gold.PLP.part.nonpolar>
-32.7776

> <Gold.PLP.part.repulsive>
0.5429

> <Gold.PLP.ligand.clash>
0.0000

> <Gold.PLP.ligand.torsion>
0.8000

> <Gold.PLP.Chemscore.Hbond>
2.0000

> <Gold.PLP.Chemscore.CHOScore>
0.0000

> <Gold.PLP.Chemscore.Metal>
0.0000

> <Gold.Chemscore.Hbonds>
donor molecule, donor type, donor heavy atom, donor atom, acceptor molecule, acceptor atom, score
      L1  H     8    30       P1  8028  0.91
      L1  H    11    31       P1  8028  1.00

> <Gold.PLP.Chemscore.Internal.Correction>
0.0866

> <Gold.Rescore>
     Score         DG    S(hbond)    S(metal)    S(lipo)     H(rot)  DE(clash)    DE(int)     intcor
     18.54     -21.23       1.94        0.00     110.61       1.44       1.84       0.85       ----

> <Gold.Chemscore.Fitness>
18.5413

> <Gold.Chemscore.DG>
-21.2289

> <Gold.Chemscore.ZeroCoef>
-5.4800

> <Gold.Chemscore.Hbond>
1.9447

> <Gold.Chemscore.Metal>
0.0000

> <Gold.Chemscore.Lipo>
110.6076

> <Gold.Chemscore.Internal_Hbond>
0.0000

> <Gold.Chemscore.DEClash>
1.8401

> <Gold.Chemscore.DEInternal>
0.8475

> <Gold.Chemscore.Rot>
1.4405

> <Gold.Chemscore.Internal.Correction>
   9.000000E+99

> <Gold.Chemscore.Hbonds>
donor molecule, donor type, donor heavy atom, donor atom, acceptor molecule, acceptor atom, score
      L1  H     8    30       P1  8028  0.83
      L1  H    11    31       P1  8028  1.00

> <Gold.Chemscore.Hbond.Weighted>
-6.4954

> <Gold.Chemscore.Metal.Weighted>
-0.0000

> <Gold.Chemscore.Lipo.Weighted>
-12.9411

> <Gold.Chemscore.Internal_Hbond.Weighted>
0.0000

> <Gold.Chemscore.DEClash.Weighted>
1.8401

> <Gold.Chemscore.DEInternal.Weighted>
0.8475

> <Gold.Chemscore.Rot.Weighted>
3.6876

> <Gold.Chemscore.Internal.Correction.Weighted>
   9.000000E+99

> <Gold.Protein.RotatedTorsions>
[ 6907 6896 6895 6894 ] final   83.87 input  -60.11 | X-H torsion
[ 7974 7965 7964 7962 ] final  110.38 input  175.53 | X-H torsion
[ 8008 7997 7996 7995 ] final  -26.89 input   59.86 | X-H torsion
[ 10167 10162 10161 10158 ] final   98.78 input  -65.29 | X-H torsion
[ 10718 10713 10712 10709 ] final -160.15 input   66.30 | X-H torsion
[ 10763 10752 10751 10750 ] final  -37.27 input  -60.55 | X-H torsion
[ 11005 11000 10999 10996 ] final  156.46 input  -57.11 | X-H torsion

> <Gold.Protein.ActiveResidues>
 VAL166  LYS551  ARG553  GLY616  TRP617  ASP618  TYR619  PRO620  LYS621  CYS622 
 ASP623  PHE694  ASN695  SER759  ASP760  ASP761  ALA762  ILE779  LEU786  VAL792 
 PHE793  MET794  SER795  GLU796  ALA797  LYS798  CYS799  TRP800  GLU811  SER814 

> <Gold.Protein.RotatedAtoms>
  152.5338  134.2828  159.9013 H   0  0  0  0  0  0  0  0  0  0  0  0  # atno 6907 bound_to 6896
  151.2782  133.4216  159.2633 H   0  0  0  0  0  0  0  0  0  0  0  0  # atno 6908 bound_to 6896
  151.0307  134.9552  159.8166 H   0  0  0  0  0  0  0  0  0  0  0  0  # atno 6909 bound_to 6896
  145.2557  139.2722  143.4043 H   0  0  0  0  0  0  0  0  0  0  0  0  # atno 7974 bound_to 7965
  154.4403  140.1887  156.0846 H   0  0  0  0  0  0  0  0  0  0  0  0  # atno 8008 bound_to 7997
  156.0412  140.3319  155.7220 H   0  0  0  0  0  0  0  0  0  0  0  0  # atno 8009 bound_to 7997
  155.5696  140.0611  157.2800 H   0  0  0  0  0  0  0  0  0  0  0  0  # atno 8010 bound_to 7997
  139.7677  144.6933  151.0200 H   0  0  0  0  0  0  0  0  0  0  0  0  # atno 10167 bound_to 10162
  156.5780  130.8717  151.2856 H   0  0  0  0  0  0  0  0  0  0  0  0  # atno 10718 bound_to 10713
  153.8936  135.6809  153.4759 H   0  0  0  0  0  0  0  0  0  0  0  0  # atno 10763 bound_to 10752
  153.1168  135.4758  154.9126 H   0  0  0  0  0  0  0  0  0  0  0  0  # atno 10764 bound_to 10752
  154.7610  135.3211  154.8331 H   0  0  0  0  0  0  0  0  0  0  0  0  # atno 10765 bound_to 10752
  140.1677  134.8565  157.2652 H   0  0  0  0  0  0  0  0  0  0  0  0  # atno 11005 bound_to 11000
  146.3290  140.2961  142.8618 LP  0  0  0  0  0  0  0  0  0  0  0  0  # atno 17320 bound_to 7965
  144.9463  140.8131  143.5599 LP  0  0  0  0  0  0  0  0  0  0  0  0  # atno 17321 bound_to 7965
  140.7812  143.4624  151.0259 LP  0  0  0  0  0  0  0  0  0  0  0  0  # atno 17342 bound_to 10162
  139.8308  143.7693  152.3179 LP  0  0  0  0  0  0  0  0  0  0  0  0  # atno 17343 bound_to 10162
  157.7333  130.9728  150.1971 LP  0  0  0  0  0  0  0  0  0  0  0  0  # atno 17370 bound_to 10713
  156.2656  130.3716  149.8085 LP  0  0  0  0  0  0  0  0  0  0  0  0  # atno 17371 bound_to 10713
  140.2415  134.3790  155.7479 LP  0  0  0  0  0  0  0  0  0  0  0  0  # atno 17394 bound_to 11000
  141.2215  133.7267  156.8795 LP  0  0  0  0  0  0  0  0  0  0  0  0  # atno 17395 bound_to 11000

$$$$
