AV-unprocessed.smi:912|AV-procd|sdf|4147|dock6
  -GOLD-   22720 2 53D 1   1.00000     0.00000
 Structure written by MMmdl.
 26 26  0  0  0  0  0  0  0  0  3 V2000
  146.5215  138.5897  152.0797 C   0  0  0  0  0  0  0  0  0  0  0  0
  146.3059  137.2333  151.5254 N   0  3  0  0  0  0  0  0  0  0  0  0
  145.4102  136.3052  152.2781 C   0  0  2  0  0  0  0  0  0  0  0  0
  143.9876  136.9057  152.4005 C   0  0  0  0  0  0  0  0  0  0  0  0
  146.0471  136.0685  153.6815 C   0  0  0  0  0  0  0  0  0  0  0  0
  147.3549  135.7271  153.6308 N   0  5  0  0  0  0  0  0  0  0  0  0
  145.3667  136.2009  154.6978 O   0  0  0  0  0  0  0  0  0  0  0  0
  145.2838  134.9761  151.4992 C   0  0  0  0  0  0  0  0  0  0  0  0
  144.0517  134.5449  150.9452 C   0  0  0  0  0  0  0  0  0  0  0  0
  144.0060  133.3393  150.2183 C   0  0  0  0  0  0  0  0  0  0  0  0
  145.0872  132.5638  149.9989 N   0  0  0  0  0  0  0  0  0  0  0  0
  146.2670  132.9796  150.5015 C   0  0  0  0  0  0  0  0  0  0  0  0
  146.4201  134.1678  151.2433 C   0  0  0  0  0  0  0  0  0  0  0  0
  147.2711  139.1075  151.4820 H   0  0  0  0  0  0  0  0  0  0  0  0
  146.8828  138.5565  153.1077 H   0  0  0  0  0  0  0  0  0  0  0  0
  145.6085  139.1840  152.0468 H   0  0  0  0  0  0  0  0  0  0  0  0
  145.9332  137.3343  150.5931 H   0  0  0  0  0  0  0  0  0  0  0  0
  143.3008  136.1995  152.8698 H   0  0  0  0  0  0  0  0  0  0  0  0
  143.5773  137.1502  151.4202 H   0  0  0  0  0  0  0  0  0  0  0  0
  143.9664  137.8149  153.0022 H   0  0  0  0  0  0  0  0  0  0  0  0
  147.8310  135.7039  152.7214 H   0  0  0  0  0  0  0  0  0  0  0  0
  143.1460  135.1210  151.0645 H   0  0  0  0  0  0  0  0  0  0  0  0
  143.0750  132.9934  149.7942 H   0  0  0  0  0  0  0  0  0  0  0  0
  147.1206  132.3490  150.3006 H   0  0  0  0  0  0  0  0  0  0  0  0
  147.4035  134.4394  151.5959 H   0  0  0  0  0  0  0  0  0  0  0  0
  147.2045  136.7755  151.4634 H   0  0  0  0  0  0  0  0  0  0  0  0
  1  2  1  0  0  0  0
  1 14  1  0  0  0  0
  1 15  1  0  0  0  0
  1 16  1  0  0  0  0
  2  3  1  0  0  0  0
  2 17  1  0  0  0  0
  2 26  1  0  0  0  0
  3  4  1  0  0  0  0
  3  5  1  0  0  0  0
  3  8  1  0  0  0  0
  4 18  1  0  0  0  0
  4 19  1  0  0  0  0
  4 20  1  0  0  0  0
  5  6  1  0  0  0  0
  5  7  2  0  0  0  0
  6 21  1  0  0  0  0
  8 13  1  0  0  0  0
  8  9  2  0  0  0  0
  9 10  1  0  0  0  0
  9 22  1  0  0  0  0
 10 11  2  0  0  0  0
 10 23  1  0  0  0  0
 11 12  1  0  0  0  0
 12 13  2  0  0  0  0
 12 24  1  0  0  0  0
 13 25  1  0  0  0  0
M  CHG  1   2   1
M  CHG  1   6  -1
M  END
> <s_m_source_file>
AV-unprocessed.smi

> <i_m_source_file_index>
912

> <i_lp_mmshare_version>
43012

> <i_f3d_flags>
0

> <s_epik_input>
W0NIM11bTkhdW0NAQF0oW0NIM10pKEMoPU8pW05IMl0pYzFbY0hdW2NIXW5bY0hdW2NIXTE=

> <s_epik_cmdline>
J2VwaWtfcHl0aG9uJywgJy1waCcsICc3LjAnLCAnLXRuJywgJzgnLCAnLW1hJywgJzIwMCcsICctbWV0YWxfYmluZGluZycsICctaW1hZScsICc8aW5maWxlLm1hZT4nLCAnLW9tYWUnLCAnPG91dGZpbGUubWFlPic=

> <r_epik_Ionization_Penalty>
6.88213

> <r_epik_Ionization_Penalty_Charging>
6.88153

> <r_epik_Ionization_Penalty_Neutral>
0.000601258

> <r_epik_State_Penalty>
7.02604

> <r_epik_Charging_Adjusted_Penalty>
13.9076

> <i_epik_Tot_Q>
0

> <i_epik_Tot_abs_Q>
2

> <r_epik_Metal_State_Penalty>
3.10652

> <b_epik_Metal_Only>
1

> <s_lp_Force_Field>
OPLS_2005

> <r_lp_Energy>
7.66147

> <b_lp_Chiralities_Consistent>
1

> <s_lp_Variant>
AV-unprocessed.smi:912-8

> <Gold.Version>
5.8.1

> <Gold.Id.Protein>
6NUR|6NUR_protein|mol2

> <Gold.PLP.Fitness>
36.1590

> <Gold.PLP.PLP>
-22.1405

> <Gold.PLP.part.hbond>
-2.0724

> <Gold.PLP.part.metal>
0.0000

> <Gold.PLP.part.buried>
-2.6846

> <Gold.PLP.part.nonpolar>
-18.2878

> <Gold.PLP.part.repulsive>
0.2453

> <Gold.PLP.ligand.clash>
0.0000

> <Gold.PLP.ligand.torsion>
0.3058

> <Gold.PLP.Chemscore.Hbond>
3.0000

> <Gold.PLP.Chemscore.CHOScore>
1.8653

> <Gold.PLP.Chemscore.Metal>
0.0000

> <Gold.Chemscore.Hbonds>
donor molecule, donor type, donor heavy atom, donor atom, acceptor molecule, acceptor atom, score
      L1  H     2    26       P1  7948  2.00
      L1  H     6    21       P1  7948  0.89
      L1  C    10    23       P1 10186  0.89
      L1  C    12    24       P1 10747  1.00

> <Gold.PLP.Chemscore.Internal.Correction>
0.0341

> <Gold.Rescore>
     Score         DG    S(hbond)    S(metal)    S(lipo)     H(rot)  DE(clash)    DE(int)     intcor
     12.99     -13.57       1.98        0.00      52.04       1.80       0.01       0.58       ----

> <Gold.Chemscore.Fitness>
12.9871

> <Gold.Chemscore.DG>
-13.5740

> <Gold.Chemscore.ZeroCoef>
-5.4800

> <Gold.Chemscore.Hbond>
1.9829

> <Gold.Chemscore.Metal>
0.0000

> <Gold.Chemscore.Lipo>
52.0398

> <Gold.Chemscore.Internal_Hbond>
0.0000

> <Gold.Chemscore.DEClash>
0.0057

> <Gold.Chemscore.DEInternal>
0.5812

> <Gold.Chemscore.Rot>
1.8037

> <Gold.Chemscore.Internal.Correction>
   9.000000E+99

> <Gold.Chemscore.Hbonds>
donor molecule, donor type, donor heavy atom, donor atom, acceptor molecule, acceptor atom, score
      L1  H     2    26       P1  7948  1.00
      L1  H     6    21       P1  7948  0.83

> <Gold.Chemscore.Hbond.Weighted>
-6.6227

> <Gold.Chemscore.Metal.Weighted>
-0.0000

> <Gold.Chemscore.Lipo.Weighted>
-6.0887

> <Gold.Chemscore.Internal_Hbond.Weighted>
0.0000

> <Gold.Chemscore.DEClash.Weighted>
0.0057

> <Gold.Chemscore.DEInternal.Weighted>
0.5812

> <Gold.Chemscore.Rot.Weighted>
4.6174

> <Gold.Chemscore.Internal.Correction.Weighted>
   9.000000E+99

> <Gold.Protein.RotatedTorsions>
[ 6907 6896 6895 6894 ] final   47.62 input  -60.11 | X-H torsion
[ 7974 7965 7964 7962 ] final -135.19 input  175.53 | X-H torsion
[ 8008 7997 7996 7995 ] final  156.99 input   59.86 | X-H torsion
[ 10167 10162 10161 10158 ] final  -56.54 input  -65.29 | X-H torsion
[ 10718 10713 10712 10709 ] final -170.68 input   66.30 | X-H torsion
[ 10763 10752 10751 10750 ] final   46.71 input  -60.55 | X-H torsion
[ 11005 11000 10999 10996 ] final  -71.68 input  -57.11 | X-H torsion

> <Gold.Protein.ActiveResidues>
 VAL166  LYS551  ARG553  GLY616  TRP617  ASP618  TYR619  PRO620  LYS621  CYS622 
 ASP623  PHE694  ASN695  SER759  ASP760  ASP761  ALA762  ILE779  LEU786  VAL792 
 PHE793  MET794  SER795  GLU796  ALA797  LYS798  CYS799  TRP800  GLU811  SER814 

> <Gold.Protein.RotatedAtoms>
  152.2701  134.7942  160.0415 H   0  0  0  0  0  0  0  0  0  0  0  0  # atno 6907 bound_to 6896
  151.8557  133.3443  159.3696 H   0  0  0  0  0  0  0  0  0  0  0  0  # atno 6908 bound_to 6896
  150.7148  134.5183  159.5685 H   0  0  0  0  0  0  0  0  0  0  0  0  # atno 6909 bound_to 6896
  144.9036  140.6804  143.5069 H   0  0  0  0  0  0  0  0  0  0  0  0  # atno 7974 bound_to 7965
  156.2390  140.1897  156.7040 H   0  0  0  0  0  0  0  0  0  0  0  0  # atno 8008 bound_to 7997
  154.6161  140.0615  156.9583 H   0  0  0  0  0  0  0  0  0  0  0  0  # atno 8009 bound_to 7997
  155.1937  140.3286  155.4357 H   0  0  0  0  0  0  0  0  0  0  0  0  # atno 8010 bound_to 7997
  140.6311  143.2460  151.5239 H   0  0  0  0  0  0  0  0  0  0  0  0  # atno 10167 bound_to 10162
  156.7297  130.9301  151.3103 H   0  0  0  0  0  0  0  0  0  0  0  0  # atno 10718 bound_to 10713
  152.9807  135.5999  154.3645 H   0  0  0  0  0  0  0  0  0  0  0  0  # atno 10763 bound_to 10752
  154.3323  135.2768  155.2467 H   0  0  0  0  0  0  0  0  0  0  0  0  # atno 10764 bound_to 10752
  154.4585  135.5972  153.6295 H   0  0  0  0  0  0  0  0  0  0  0  0  # atno 10765 bound_to 10752
  141.1596  133.6824  156.6943 H   0  0  0  0  0  0  0  0  0  0  0  0  # atno 11005 bound_to 11000
  145.3574  139.1690  143.4402 LP  0  0  0  0  0  0  0  0  0  0  0  0  # atno 17320 bound_to 7965
  146.3122  140.3632  142.8667 LP  0  0  0  0  0  0  0  0  0  0  0  0  # atno 17321 bound_to 7965
  139.5525  144.2359  152.1555 LP  0  0  0  0  0  0  0  0  0  0  0  0  # atno 17342 bound_to 10162
  140.1603  144.5032  150.6636 LP  0  0  0  0  0  0  0  0  0  0  0  0  # atno 17343 bound_to 10162
  157.6864  130.9189  150.0397 LP  0  0  0  0  0  0  0  0  0  0  0  0  # atno 17370 bound_to 10713
  156.1537  130.3643  149.9400 LP  0  0  0  0  0  0  0  0  0  0  0  0  # atno 17371 bound_to 10713
  140.3007  134.8166  157.4095 LP  0  0  0  0  0  0  0  0  0  0  0  0  # atno 17394 bound_to 11000
  140.1265  134.5151  155.8141 LP  0  0  0  0  0  0  0  0  0  0  0  0  # atno 17395 bound_to 11000

$$$$
