AV-unprocessed.smi:2625|AV-procd|sdf|10235|dock4
  -GOLD-   2272014243D 1   1.00000     0.00000
 Structure written by MMmdl.
 24 24  0  0  0  0  0  0  0  0  1 V2000
  151.6297  141.2412  158.5245 C   0  0  0  0  0  0  0  0  0  0  0  0
  151.1946  141.8344  157.3142 O   0  0  0  0  0  0  0  0  0  0  0  0
  150.3185  140.9956  156.5798 C   0  0  0  0  0  0  0  0  0  0  0  0
  149.8634  141.7079  155.2954 C   0  0  0  0  0  0  0  0  0  0  0  0
  148.9425  140.9166  154.5038 N   0  0  0  0  0  0  0  0  0  0  0  0
  147.6465  141.3333  154.1891 C   0  0  0  0  0  0  0  0  0  0  0  0
  147.2007  142.5605  154.6475 N   0  0  0  0  0  0  0  0  0  0  0  0
  146.8164  140.5686  153.4353 C   0  0  0  0  0  0  0  0  0  0  0  0
  147.2394  139.2749  152.9115 C   0  0  0  0  0  0  0  0  0  0  0  0
  146.5455  138.5255  152.2279 O   0  0  0  0  0  0  0  0  0  0  0  0
  148.5455  138.9154  153.2431 N   0  0  0  0  0  0  0  0  0  0  0  0
  149.4244  139.6781  154.0097 C   0  0  0  0  0  0  0  0  0  0  0  0
  150.5617  139.2558  154.2211 O   0  0  0  0  0  0  0  0  0  0  0  0
  148.8848  138.0310  152.8941 H   0  0  0  0  0  0  0  0  0  0  0  0
  152.3012  141.9237  159.0456 H   0  0  0  0  0  0  0  0  0  0  0  0
  152.1718  140.3135  158.3368 H   0  0  0  0  0  0  0  0  0  0  0  0
  150.7875  141.0290  159.1842 H   0  0  0  0  0  0  0  0  0  0  0  0
  150.8394  140.0745  156.3152 H   0  0  0  0  0  0  0  0  0  0  0  0
  149.4564  140.7168  157.1879 H   0  0  0  0  0  0  0  0  0  0  0  0
  149.4131  142.6807  155.4987 H   0  0  0  0  0  0  0  0  0  0  0  0
  150.7133  141.9196  154.6467 H   0  0  0  0  0  0  0  0  0  0  0  0
  147.7861  143.1663  155.2048 H   0  0  0  0  0  0  0  0  0  0  0  0
  146.2697  142.8974  154.4485 H   0  0  0  0  0  0  0  0  0  0  0  0
  145.8178  140.9155  153.2079 H   0  0  0  0  0  0  0  0  0  0  0  0
  1  2  1  0  0  0  0
  1 15  1  0  0  0  0
  1 16  1  0  0  0  0
  1 17  1  0  0  0  0
  2  3  1  0  0  0  0
  3  4  1  0  0  0  0
  3 18  1  0  0  0  0
  3 19  1  0  0  0  0
  4  5  1  0  0  0  0
  4 20  1  0  0  0  0
  4 21  1  0  0  0  0
  5 12  1  0  0  0  0
  5  6  1  0  0  0  0
  6  7  1  0  0  0  0
  6  8  2  0  0  0  0
  7 22  1  0  0  0  0
  7 23  1  0  0  0  0
  8  9  1  0  0  0  0
  8 24  1  0  0  0  0
  9 10  2  0  0  0  0
  9 11  1  0  0  0  0
 11 14  1  0  0  0  0
 11 12  1  0  0  0  0
 12 13  2  0  0  0  0
M  END
> <s_m_source_file>
AV-unprocessed.smi

> <i_m_source_file_index>
2625

> <i_lp_mmshare_version>
43012

> <i_f3d_flags>
0

> <s_epik_input>
W0NIM11PW0NIMl1bQ0gyXW4xYyhbTkgyXSlbY0hdYyg9TylbbkhdYzE9Tw==

> <s_epik_cmdline>
J2VwaWtfcHl0aG9uJywgJy1waCcsICc3LjAnLCAnLXRuJywgJzgnLCAnLW1hJywgJzIwMCcsICctbWV0YWxfYmluZGluZycsICctaW1hZScsICc8aW5maWxlLm1hZT4nLCAnLW9tYWUnLCAnPG91dGZpbGUubWFlPic=

> <r_lp_tautomer_probability>
1

> <r_epik_Ionization_Penalty>
6.81436e-06

> <r_epik_Ionization_Penalty_Charging>
1.95411e-06

> <r_epik_Ionization_Penalty_Neutral>
4.86025e-06

> <r_epik_State_Penalty>
-0

> <r_epik_Charging_Adjusted_Penalty>
1.95411e-06

> <i_epik_Tot_Q>
0

> <i_epik_Tot_abs_Q>
0

> <r_epik_Metal_State_Penalty>
-0

> <b_epik_Metal_Only>
0

> <s_epik_Chemistry_Notes>
This compound has an imine and may undergo hydrolysis.

> <s_lp_Force_Field>
OPLS_2005

> <r_lp_Energy>
12.62

> <b_lp_Chiralities_Consistent>
1

> <s_lp_Variant>
AV-unprocessed.smi:2625-1

> <Gold.Version>
5.8.1

> <Gold.Id.Protein>
6NUR|6NUR_protein|mol2

> <Gold.PLP.Fitness>
30.8530

> <Gold.PLP.PLP>
-21.8553

> <Gold.PLP.part.hbond>
-4.0000

> <Gold.PLP.part.metal>
0.0000

> <Gold.PLP.part.buried>
0.2525

> <Gold.PLP.part.nonpolar>
-18.5052

> <Gold.PLP.part.repulsive>
0.7566

> <Gold.PLP.ligand.clash>
0.0000

> <Gold.PLP.ligand.torsion>
0.0019

> <Gold.PLP.Chemscore.Hbond>
3.0000

> <Gold.PLP.Chemscore.CHOScore>
0.0000

> <Gold.PLP.Chemscore.Metal>
0.0000

> <Gold.Chemscore.Hbonds>
donor molecule, donor type, donor heavy atom, donor atom, acceptor molecule, acceptor atom, score
      L1  H     7    22       P1  8028  1.00
      L1  H    11    14       P1  7948  0.96
      P1  H  7989  7998       L1    13  0.88

> <Gold.PLP.Chemscore.Internal.Correction>
0.0015

> <Gold.Rescore>
     Score         DG    S(hbond)    S(metal)    S(lipo)     H(rot)  DE(clash)    DE(int)     intcor
      8.89     -10.52       1.93        0.00      28.34       1.84       1.53       0.10       ----

> <Gold.Chemscore.Fitness>
8.8852

> <Gold.Chemscore.DG>
-10.5186

> <Gold.Chemscore.ZeroCoef>
-5.4800

> <Gold.Chemscore.Hbond>
1.9282

> <Gold.Chemscore.Metal>
0.0000

> <Gold.Chemscore.Lipo>
28.3412

> <Gold.Chemscore.Internal_Hbond>
0.0000

> <Gold.Chemscore.DEClash>
1.5300

> <Gold.Chemscore.DEInternal>
0.1034

> <Gold.Chemscore.Rot>
1.8428

> <Gold.Chemscore.Internal.Correction>
   9.000000E+99

> <Gold.Chemscore.Hbonds>
donor molecule, donor type, donor heavy atom, donor atom, acceptor molecule, acceptor atom, score
      L1  H     7    22       P1  8028  0.59
      L1  H    11    14       P1  7948  0.91
      P1  H  7989  7998       L1    13  0.19

> <Gold.Chemscore.Hbond.Weighted>
-6.4404

> <Gold.Chemscore.Metal.Weighted>
-0.0000

> <Gold.Chemscore.Lipo.Weighted>
-3.3159

> <Gold.Chemscore.Internal_Hbond.Weighted>
0.0000

> <Gold.Chemscore.DEClash.Weighted>
1.5300

> <Gold.Chemscore.DEInternal.Weighted>
0.1034

> <Gold.Chemscore.Rot.Weighted>
4.7177

> <Gold.Chemscore.Internal.Correction.Weighted>
   9.000000E+99

> <Gold.Protein.RotatedTorsions>
[ 6907 6896 6895 6894 ] final  -52.25 input  -60.11 | X-H torsion
[ 7974 7965 7964 7962 ] final   58.69 input  175.53 | X-H torsion
[ 8008 7997 7996 7995 ] final -115.64 input   59.86 | X-H torsion
[ 10167 10162 10161 10158 ] final   81.70 input  -65.29 | X-H torsion
[ 10718 10713 10712 10709 ] final  -13.26 input   66.30 | X-H torsion
[ 10763 10752 10751 10750 ] final   11.70 input  -60.55 | X-H torsion
[ 11005 11000 10999 10996 ] final -144.98 input  -57.11 | X-H torsion

> <Gold.Protein.ActiveResidues>
 VAL166  LYS551  ARG553  GLY616  TRP617  ASP618  TYR619  PRO620  LYS621  CYS622 
 ASP623  PHE694  ASN695  SER759  ASP760  ASP761  ALA762  ILE779  LEU786  VAL792 
 PHE793  MET794  SER795  GLU796  ALA797  LYS798  CYS799  TRP800  GLU811  SER814 

> <Gold.Protein.RotatedAtoms>
  150.8535  134.7867  159.7026 H   0  0  0  0  0  0  0  0  0  0  0  0  # atno 6907 bound_to 6896
  152.4593  134.5217  159.9794 H   0  0  0  0  0  0  0  0  0  0  0  0  # atno 6908 bound_to 6896
  151.5334  133.3407  159.2958 H   0  0  0  0  0  0  0  0  0  0  0  0  # atno 6909 bound_to 6896
  145.9153  139.3686  143.0511 H   0  0  0  0  0  0  0  0  0  0  0  0  # atno 7974 bound_to 7965
  155.0552  140.0393  157.2557 H   0  0  0  0  0  0  0  0  0  0  0  0  # atno 8008 bound_to 7997
  154.7105  140.2691  155.6610 H   0  0  0  0  0  0  0  0  0  0  0  0  # atno 8009 bound_to 7997
  156.2788  140.2722  156.1744 H   0  0  0  0  0  0  0  0  0  0  0  0  # atno 8010 bound_to 7997
  139.9365  144.6118  150.8293 H   0  0  0  0  0  0  0  0  0  0  0  0  # atno 10167 bound_to 10162
  156.6328  130.4906  149.6123 H   0  0  0  0  0  0  0  0  0  0  0  0  # atno 10718 bound_to 10713
  153.1899  135.6840  153.8366 H   0  0  0  0  0  0  0  0  0  0  0  0  # atno 10763 bound_to 10752
  153.7669  135.3201  155.3347 H   0  0  0  0  0  0  0  0  0  0  0  0  # atno 10764 bound_to 10752
  154.8111  135.4717  154.0617 H   0  0  0  0  0  0  0  0  0  0  0  0  # atno 10765 bound_to 10752
  140.7969  134.2902  157.4993 H   0  0  0  0  0  0  0  0  0  0  0  0  # atno 11005 bound_to 11000
  145.8619  140.9470  143.0696 LP  0  0  0  0  0  0  0  0  0  0  0  0  # atno 17320 bound_to 7965
  144.6747  140.0541  143.7478 LP  0  0  0  0  0  0  0  0  0  0  0  0  # atno 17321 bound_to 7965
  140.7623  143.3194  151.2656 LP  0  0  0  0  0  0  0  0  0  0  0  0  # atno 17342 bound_to 10162
  139.6739  143.9972  152.2769 LP  0  0  0  0  0  0  0  0  0  0  0  0  # atno 17343 bound_to 10162
  156.2221  130.6743  151.1379 LP  0  0  0  0  0  0  0  0  0  0  0  0  # atno 17370 bound_to 10713
  157.7195  131.0690  150.6195 LP  0  0  0  0  0  0  0  0  0  0  0  0  # atno 17371 bound_to 10713
  139.8725  134.9407  156.3777 LP  0  0  0  0  0  0  0  0  0  0  0  0  # atno 17394 bound_to 11000
  140.9334  133.7564  156.0053 LP  0  0  0  0  0  0  0  0  0  0  0  0  # atno 17395 bound_to 11000

$$$$
