AV-unprocessed.smi:1534|AV-procd|sdf|6169|dock2
  -GOLD-   22720 6313D 1   1.00000     0.00000
 Structure written by MMmdl.
 37 38  0  0  0  0  0  0  0  0  2 V2000
  145.6525  135.5431  154.6531 O   0  0  0  0  0  0  0  0  0  0  0  0
  146.4941  135.7235  153.7759 C   0  0  0  0  0  0  0  0  0  0  0  0
  146.1914  136.1449  152.5370 N   0  0  0  0  0  0  0  0  0  0  0  0
  144.8404  136.3498  152.0253 C   0  0  0  0  0  0  0  0  0  0  0  0
  144.6230  135.7043  150.6414 C   0  0  0  0  0  0  0  0  0  0  0  0
  144.6969  134.1862  150.6578 C   0  0  0  0  0  0  0  0  0  0  0  0
  145.8622  133.4970  151.0580 C   0  0  0  0  0  0  0  0  0  0  0  0
  145.8574  132.0865  151.0743 C   0  0  0  0  0  0  0  0  0  0  0  0
  144.6884  131.3952  150.6936 C   0  0  0  0  0  0  0  0  0  0  0  0
  143.5527  132.1329  150.3023 C   0  0  0  0  0  0  0  0  0  0  0  0
  143.5978  133.4830  150.2974 N   0  3  0  0  0  0  0  0  0  0  0  0
  147.8038  135.5059  153.9897 N   0  0  0  0  0  0  0  0  0  0  0  0
  148.4482  135.0474  155.2213 C   0  0  1  0  0  0  0  0  0  0  0  0
  149.1321  133.6754  155.0497 C   0  0  0  0  0  0  0  0  0  0  0  0
  150.0936  133.4454  156.2248 C   0  0  0  0  0  0  0  0  0  0  0  0
  150.5925  135.1070  156.8215 S   0  0  0  0  0  0  0  0  0  0  0  0
  150.0964  135.2825  158.1951 O   0  0  0  0  0  0  0  0  0  0  0  0
  152.0019  135.3583  156.4854 O   0  0  0  0  0  0  0  0  0  0  0  0
  149.5192  136.0452  155.6745 C   0  0  0  0  0  0  0  0  0  0  0  0
  146.9503  136.2915  151.8875 H   0  0  0  0  0  0  0  0  0  0  0  0
  144.1025  135.9796  152.7388 H   0  0  0  0  0  0  0  0  0  0  0  0
  144.6819  137.4259  151.9504 H   0  0  0  0  0  0  0  0  0  0  0  0
  143.6506  136.0027  150.2463 H   0  0  0  0  0  0  0  0  0  0  0  0
  145.3624  136.0891  149.9381 H   0  0  0  0  0  0  0  0  0  0  0  0
  146.7483  134.0406  151.3526 H   0  0  0  0  0  0  0  0  0  0  0  0
  146.7392  131.5413  151.3781 H   0  0  0  0  0  0  0  0  0  0  0  0
  144.6638  130.3152  150.7019 H   0  0  0  0  0  0  0  0  0  0  0  0
  142.6170  131.6879  149.9964 H   0  0  0  0  0  0  0  0  0  0  0  0
  148.4275  135.7518  153.2341 H   0  0  0  0  0  0  0  0  0  0  0  0
  147.7143  134.9746  156.0265 H   0  0  0  0  0  0  0  0  0  0  0  0
  148.4076  132.8647  154.9662 H   0  0  0  0  0  0  0  0  0  0  0  0
  149.7098  133.6784  154.1240 H   0  0  0  0  0  0  0  0  0  0  0  0
  149.5931  132.9303  157.0449 H   0  0  0  0  0  0  0  0  0  0  0  0
  150.9743  132.8695  155.9399 H   0  0  0  0  0  0  0  0  0  0  0  0
  150.1354  136.3731  154.8363 H   0  0  0  0  0  0  0  0  0  0  0  0
  149.1104  136.9236  156.1740 H   0  0  0  0  0  0  0  0  0  0  0  0
  142.7640  133.9976  150.0124 H   0  0  0  0  0  0  0  0  0  0  0  0
  1  2  2  0  0  0  0
  2  3  1  0  0  0  0
  2 12  1  0  0  0  0
  3  4  1  0  0  0  0
  3 20  1  0  0  0  0
  4  5  1  0  0  0  0
  4 21  1  0  0  0  0
  4 22  1  0  0  0  0
  5  6  1  0  0  0  0
  5 23  1  0  0  0  0
  5 24  1  0  0  0  0
  6 11  1  0  0  0  0
  6  7  2  0  0  0  0
  7  8  1  0  0  0  0
  7 25  1  0  0  0  0
  8  9  2  0  0  0  0
  8 26  1  0  0  0  0
  9 10  1  0  0  0  0
  9 27  1  0  0  0  0
 10 11  2  0  0  0  0
 10 28  1  0  0  0  0
 11 37  1  0  0  0  0
 12 13  1  0  0  0  0
 12 29  1  0  0  0  0
 13 19  1  0  0  0  0
 13 14  1  0  0  0  0
 13 30  1  0  0  0  0
 14 15  1  0  0  0  0
 14 31  1  0  0  0  0
 14 32  1  0  0  0  0
 15 16  1  0  0  0  0
 15 33  1  0  0  0  0
 15 34  1  0  0  0  0
 16 17  2  0  0  0  0
 16 18  2  0  0  0  0
 16 19  1  0  0  0  0
 19 35  1  0  0  0  0
 19 36  1  0  0  0  0
M  CHG  1  11   1
M  END
> <s_m_source_file>
AV-unprocessed.smi

> <i_m_source_file_index>
1534

> <i_lp_mmshare_version>
43012

> <i_f3d_flags>
0

> <s_epik_input>
Tz1TMSg9TylbQ0gyXVtDSDJdW0NASF0oW0NIMl0xKVtOSF1DKD1PKVtOSF1bQ0gyXVtDSDJdYzJbY0hdW2NIXVtjSF1bY0hdbjI=

> <s_epik_cmdline>
J2VwaWtfcHl0aG9uJywgJy1waCcsICc3LjAnLCAnLXRuJywgJzgnLCAnLW1hJywgJzIwMCcsICctbWV0YWxfYmluZGluZycsICctaW1hZScsICc8aW5maWxlLm1hZT4nLCAnLW9tYWUnLCAnPG91dGZpbGUubWFlPic=

> <r_epik_Ionization_Penalty>
1.58466

> <r_epik_Ionization_Penalty_Charging>
1.58462

> <r_epik_Ionization_Penalty_Neutral>
3.4911e-05

> <r_epik_State_Penalty>
1.6815

> <r_epik_Charging_Adjusted_Penalty>
3.26612

> <i_epik_Tot_Q>
1

> <i_epik_Tot_abs_Q>
1

> <r_epik_Metal_State_Penalty>
1.72144

> <b_epik_Metal_Only>
0

> <s_lp_Force_Field>
OPLS_2005

> <r_lp_Energy>
19.4727

> <b_lp_Chiralities_Consistent>
1

> <s_lp_Variant>
AV-unprocessed.smi:1534-4

> <Gold.Version>
5.8.1

> <Gold.Id.Protein>
6NUR|6NUR_protein|mol2

> <Gold.PLP.Fitness>
46.4782

> <Gold.PLP.PLP>
-29.4962

> <Gold.PLP.part.hbond>
-4.9498

> <Gold.PLP.part.metal>
0.0000

> <Gold.PLP.part.buried>
-3.5838

> <Gold.PLP.part.nonpolar>
-22.0645

> <Gold.PLP.part.repulsive>
0.0701

> <Gold.PLP.ligand.clash>
0.0000

> <Gold.PLP.ligand.torsion>
0.0900

> <Gold.PLP.Chemscore.Hbond>
5.7120

> <Gold.PLP.Chemscore.CHOScore>
0.0000

> <Gold.PLP.Chemscore.Metal>
0.0000

> <Gold.Chemscore.Hbonds>
donor molecule, donor type, donor heavy atom, donor atom, acceptor molecule, acceptor atom, score
      L1  H     3    20       P1  7948  0.80
      L1  H    11    37       P1 10186  2.00
      L1  H    12    29       P1  7948  1.00
      P1  H  6896  6909       L1    17  0.86
      P1  H 10752 10763       L1    18  1.00

> <Gold.PLP.Chemscore.Internal.Correction>
0.0260

> <Gold.Rescore>
     Score         DG    S(hbond)    S(metal)    S(lipo)     H(rot)  DE(clash)    DE(int)     intcor
     24.51     -24.63       4.69        0.00      69.79       1.82       0.00       0.12       ----

> <Gold.Chemscore.Fitness>
24.5117

> <Gold.Chemscore.DG>
-24.6335

> <Gold.Chemscore.ZeroCoef>
-5.4800

> <Gold.Chemscore.Hbond>
4.6862

> <Gold.Chemscore.Metal>
0.0000

> <Gold.Chemscore.Lipo>
69.7920

> <Gold.Chemscore.Internal_Hbond>
0.0000

> <Gold.Chemscore.DEClash>
0.0029

> <Gold.Chemscore.DEInternal>
0.1189

> <Gold.Chemscore.Rot>
1.8220

> <Gold.Chemscore.Internal.Correction>
   9.000000E+99

> <Gold.Chemscore.Hbonds>
donor molecule, donor type, donor heavy atom, donor atom, acceptor molecule, acceptor atom, score
      L1  H     3    20       P1  7948  0.78
      L1  H    11    37       P1 10186  0.99
      L1  H    12    29       P1  7948  0.93
      P1  H  6896  6909       L1    17  0.86
      P1  H 10752 10763       L1    18  0.99

> <Gold.Chemscore.Hbond.Weighted>
-15.6520

> <Gold.Chemscore.Metal.Weighted>
-0.0000

> <Gold.Chemscore.Lipo.Weighted>
-8.1657

> <Gold.Chemscore.Internal_Hbond.Weighted>
0.0000

> <Gold.Chemscore.DEClash.Weighted>
0.0029

> <Gold.Chemscore.DEInternal.Weighted>
0.1189

> <Gold.Chemscore.Rot.Weighted>
4.6642

> <Gold.Chemscore.Internal.Correction.Weighted>
   9.000000E+99

> <Gold.Protein.RotatedTorsions>
[ 6907 6896 6895 6894 ] final   50.52 input  -60.11 | X-H torsion
[ 7974 7965 7964 7962 ] final  112.60 input  175.53 | X-H torsion
[ 8008 7997 7996 7995 ] final -135.92 input   59.86 | X-H torsion
[ 10167 10162 10161 10158 ] final   84.62 input  -65.29 | X-H torsion
[ 10718 10713 10712 10709 ] final   57.43 input   66.30 | X-H torsion
[ 10763 10752 10751 10750 ] final   88.25 input  -60.55 | X-H torsion
[ 11005 11000 10999 10996 ] final -154.98 input  -57.11 | X-H torsion

> <Gold.Protein.ActiveResidues>
 VAL166  LYS551  ARG553  GLY616  TRP617  ASP618  TYR619  PRO620  LYS621  CYS622 
 ASP623  PHE694  ASN695  SER759  ASP760  ASP761  ALA762  ILE779  LEU786  VAL792 
 PHE793  MET794  SER795  GLU796  ALA797  LYS798  CYS799  TRP800  GLU811  SER814 

> <Gold.Protein.RotatedAtoms>
  152.3027  134.7592  160.0353 H   0  0  0  0  0  0  0  0  0  0  0  0  # atno 6907 bound_to 6896
  151.8099  133.3375  159.3560 H   0  0  0  0  0  0  0  0  0  0  0  0  # atno 6908 bound_to 6896
  150.7281  134.5603  159.5883 H   0  0  0  0  0  0  0  0  0  0  0  0  # atno 6909 bound_to 6896
  145.2275  139.2834  143.4186 H   0  0  0  0  0  0  0  0  0  0  0  0  # atno 7974 bound_to 7965
  155.3866  140.0497  157.3042 H   0  0  0  0  0  0  0  0  0  0  0  0  # atno 8008 bound_to 7997
  154.5056  140.2173  155.9219 H   0  0  0  0  0  0  0  0  0  0  0  0  # atno 8009 bound_to 7997
  156.1522  140.3133  155.8672 H   0  0  0  0  0  0  0  0  0  0  0  0  # atno 8010 bound_to 7997
  139.9062  144.6299  150.8585 H   0  0  0  0  0  0  0  0  0  0  0  0  # atno 10167 bound_to 10162
  157.5514  130.8768  149.8968 H   0  0  0  0  0  0  0  0  0  0  0  0  # atno 10718 bound_to 10713
  153.1749  135.4514  154.9952 H   0  0  0  0  0  0  0  0  0  0  0  0  # atno 10763 bound_to 10752
  154.7991  135.3249  154.7596 H   0  0  0  0  0  0  0  0  0  0  0  0  # atno 10764 bound_to 10752
  153.8067  135.6958  153.4902 H   0  0  0  0  0  0  0  0  0  0  0  0  # atno 10765 bound_to 10752
  140.6915  134.4036  157.5219 H   0  0  0  0  0  0  0  0  0  0  0  0  # atno 11005 bound_to 11000
  146.3361  140.2600  142.8601 LP  0  0  0  0  0  0  0  0  0  0  0  0  # atno 17320 bound_to 7965
  144.9708  140.8366  143.5457 LP  0  0  0  0  0  0  0  0  0  0  0  0  # atno 17321 bound_to 7965
  140.7696  143.3399  151.2229 LP  0  0  0  0  0  0  0  0  0  0  0  0  # atno 17342 bound_to 10162
  139.6982  143.9577  152.2893 LP  0  0  0  0  0  0  0  0  0  0  0  0  # atno 17343 bound_to 10162
  156.0580  130.3705  150.1047 LP  0  0  0  0  0  0  0  0  0  0  0  0  # atno 17370 bound_to 10713
  156.9220  130.9686  151.3547 LP  0  0  0  0  0  0  0  0  0  0  0  0  # atno 17371 bound_to 10713
  139.8922  134.8760  156.2282 LP  0  0  0  0  0  0  0  0  0  0  0  0  # atno 17394 bound_to 11000
  141.0238  133.7027  156.1312 LP  0  0  0  0  0  0  0  0  0  0  0  0  # atno 17395 bound_to 11000

$$$$
