AV-unprocessed.smi:3047|AV-procd|sdf|11622|dock8
  -GOLD-   2272017 13D 1   1.00000     0.00000
 Structure written by MMmdl.
 38 39  0  0  0  0  0  0  0  0  2 V2000
  153.0690  140.3355  160.8656 C   0  0  0  0  0  0  0  0  0  0  0  0
  153.6602  141.0889  159.2938 S   0  0  0  0  0  0  0  0  0  0  0  0
  155.0992  141.3585  159.4340 O   0  0  0  0  0  0  0  0  0  0  0  0
  153.1696  140.2790  158.1678 O   0  0  0  0  0  0  0  0  0  0  0  0
  152.8475  142.6218  159.2537 N   0  0  0  0  0  0  0  0  0  0  0  0
  152.8393  143.5287  160.3988 C   0  0  0  0  0  0  0  0  0  0  0  0
  152.2209  144.8128  159.8543 C   0  0  0  0  0  0  0  0  0  0  0  0
  151.2513  144.3275  158.7799 C   0  0  0  0  0  0  0  0  0  0  0  0
  151.8974  143.0467  158.2096 C   0  0  2  0  0  0  0  0  0  0  0  0
  150.8504  141.9960  157.8070 C   0  0  0  0  0  0  0  0  0  0  0  0
  150.7612  140.9299  158.4170 O   0  0  0  0  0  0  0  0  0  0  0  0
  150.0789  142.2993  156.7536 N   0  0  0  0  0  0  0  0  0  0  0  0
  149.0806  141.4080  156.1822 C   0  0  0  0  0  0  0  0  0  0  0  0
  149.4740  141.0030  154.7557 C   0  0  0  0  0  0  0  0  0  0  0  0
  148.3393  140.4414  154.0216 N   0  0  0  0  0  0  0  0  0  0  0  0
  148.1908  139.1526  153.5779 C   0  0  0  0  0  0  0  0  0  0  0  0
  146.9774  139.0963  152.9415 C   0  0  0  0  0  0  0  0  0  0  0  0
  146.4376  140.3522  153.0233 N   0  3  0  0  0  0  0  0  0  0  0  0
  147.2681  141.1691  153.6798 C   0  0  0  0  0  0  0  0  0  0  0  0
  153.5946  139.3957  161.0324 H   0  0  0  0  0  0  0  0  0  0  0  0
  152.0000  140.1388  160.8099 H   0  0  0  0  0  0  0  0  0  0  0  0
  153.2722  141.0128  161.6945 H   0  0  0  0  0  0  0  0  0  0  0  0
  152.2245  143.0997  161.1908 H   0  0  0  0  0  0  0  0  0  0  0  0
  153.8467  143.6878  160.7841 H   0  0  0  0  0  0  0  0  0  0  0  0
  151.7338  145.4078  160.6271 H   0  0  0  0  0  0  0  0  0  0  0  0
  152.9972  145.4274  159.3969 H   0  0  0  0  0  0  0  0  0  0  0  0
  150.2830  144.1304  159.2419 H   0  0  0  0  0  0  0  0  0  0  0  0
  151.0936  145.0839  158.0103 H   0  0  0  0  0  0  0  0  0  0  0  0
  152.4872  143.3153  157.3316 H   0  0  0  0  0  0  0  0  0  0  0  0
  150.2212  143.1898  156.2988 H   0  0  0  0  0  0  0  0  0  0  0  0
  148.9882  140.5200  156.8100 H   0  0  0  0  0  0  0  0  0  0  0  0
  148.1098  141.9060  156.1800 H   0  0  0  0  0  0  0  0  0  0  0  0
  149.8420  141.8642  154.1961 H   0  0  0  0  0  0  0  0  0  0  0  0
  150.2741  140.2607  154.7686 H   0  0  0  0  0  0  0  0  0  0  0  0
  148.9399  138.3916  153.7430 H   0  0  0  0  0  0  0  0  0  0  0  0
  146.4713  138.2784  152.4493 H   0  0  0  0  0  0  0  0  0  0  0  0
  147.1055  142.2112  153.8909 H   0  0  0  0  0  0  0  0  0  0  0  0
  145.5401  140.6255  152.6428 H   0  0  0  0  0  0  0  0  0  0  0  0
  1  2  1  0  0  0  0
  1 20  1  0  0  0  0
  1 21  1  0  0  0  0
  1 22  1  0  0  0  0
  2  3  2  0  0  0  0
  2  4  2  0  0  0  0
  2  5  1  0  0  0  0
  5  9  1  0  0  0  0
  5  6  1  0  0  0  0
  6  7  1  0  0  0  0
  6 23  1  0  0  0  0
  6 24  1  0  0  0  0
  7  8  1  0  0  0  0
  7 25  1  0  0  0  0
  7 26  1  0  0  0  0
  8  9  1  0  0  0  0
  8 27  1  0  0  0  0
  8 28  1  0  0  0  0
  9 10  1  0  0  0  0
  9 29  1  0  0  0  0
 10 11  2  0  0  0  0
 10 12  1  0  0  0  0
 12 13  1  0  0  0  0
 12 30  1  0  0  0  0
 13 14  1  0  0  0  0
 13 31  1  0  0  0  0
 13 32  1  0  0  0  0
 14 15  1  0  0  0  0
 14 33  1  0  0  0  0
 14 34  1  0  0  0  0
 15 19  1  0  0  0  0
 15 16  1  0  0  0  0
 16 17  2  0  0  0  0
 16 35  1  0  0  0  0
 17 18  1  0  0  0  0
 17 36  1  0  0  0  0
 18 19  2  0  0  0  0
 18 38  1  0  0  0  0
 19 37  1  0  0  0  0
M  CHG  1  18   1
M  END
> <s_m_source_file>
AV-unprocessed.smi

> <i_m_source_file_index>
3047

> <i_lp_mmshare_version>
43012

> <i_f3d_flags>
0

> <s_epik_input>
W0NIM11TKD1PKSg9TylOMVtDSDJdW0NIMl1bQ0gyXVtDQEhdMUMoPU8pW05IXVtDSDJdW0NIMl1uMltjSF1bY0hdbltjSF0y

> <s_epik_cmdline>
J2VwaWtfcHl0aG9uJywgJy1waCcsICc3LjAnLCAnLXRuJywgJzgnLCAnLW1hJywgJzIwMCcsICctbWV0YWxfYmluZGluZycsICctaW1hZScsICc8aW5maWxlLm1hZT4nLCAnLW9tYWUnLCAnPG91dGZpbGUubWFlPic=

> <r_lp_tautomer_probability>
1

> <r_epik_Ionization_Penalty>
0.281738

> <r_epik_Ionization_Penalty_Charging>
0

> <r_epik_Ionization_Penalty_Neutral>
0.281738

> <r_epik_State_Penalty>
0.274352

> <r_epik_Charging_Adjusted_Penalty>
0.274352

> <i_epik_Tot_Q>
1

> <i_epik_Tot_abs_Q>
1

> <r_epik_Metal_State_Penalty>
0.555562

> <b_epik_Metal_Only>
0

> <s_lp_Force_Field>
OPLS_2005

> <r_lp_Energy>
11.563

> <b_lp_Chiralities_Consistent>
1

> <s_lp_Variant>
AV-unprocessed.smi:3047-2

> <Gold.Version>
5.8.1

> <Gold.Id.Protein>
6NUR|6NUR_protein|mol2

> <Gold.PLP.Fitness>
45.4520

> <Gold.PLP.PLP>
-35.4199

> <Gold.PLP.part.hbond>
-3.4061

> <Gold.PLP.part.metal>
0.0000

> <Gold.PLP.part.buried>
-0.1970

> <Gold.PLP.part.nonpolar>
-30.9050

> <Gold.PLP.part.repulsive>
0.0503

> <Gold.PLP.ligand.clash>
0.0000

> <Gold.PLP.ligand.torsion>
1.3005

> <Gold.PLP.Chemscore.Hbond>
3.3597

> <Gold.PLP.Chemscore.CHOScore>
0.1686

> <Gold.PLP.Chemscore.Metal>
0.0000

> <Gold.Chemscore.Hbonds>
donor molecule, donor type, donor heavy atom, donor atom, acceptor molecule, acceptor atom, score
      L1  H    12    30       P1  8028  0.51
      L1  H    18    38       P1 10175  2.00
      P1  H  7997  8010       L1     4  0.91
      L1  C    16    35       P1  7948  0.16

> <Gold.PLP.Chemscore.Internal.Correction>
2.0482

> <Gold.Rescore>
     Score         DG    S(hbond)    S(metal)    S(lipo)     H(rot)  DE(clash)    DE(int)     intcor
     10.44     -16.64       2.16        0.00      79.61       2.10       1.39       4.81       ----

> <Gold.Chemscore.Fitness>
10.4370

> <Gold.Chemscore.DG>
-16.6426

> <Gold.Chemscore.ZeroCoef>
-5.4800

> <Gold.Chemscore.Hbond>
2.1593

> <Gold.Chemscore.Metal>
0.0000

> <Gold.Chemscore.Lipo>
79.6127

> <Gold.Chemscore.Internal_Hbond>
0.0000

> <Gold.Chemscore.DEClash>
1.3928

> <Gold.Chemscore.DEInternal>
4.8128

> <Gold.Chemscore.Rot>
2.0954

> <Gold.Chemscore.Internal.Correction>
   9.000000E+99

> <Gold.Chemscore.Hbonds>
donor molecule, donor type, donor heavy atom, donor atom, acceptor molecule, acceptor atom, score
      L1  H    12    30       P1  8028  0.49
      L1  H    18    38       P1 10175  0.44
      P1  H  7997  8010       L1     4  0.58

> <Gold.Chemscore.Hbond.Weighted>
-7.2122

> <Gold.Chemscore.Metal.Weighted>
-0.0000

> <Gold.Chemscore.Lipo.Weighted>
-9.3147

> <Gold.Chemscore.Internal_Hbond.Weighted>
0.0000

> <Gold.Chemscore.DEClash.Weighted>
1.3928

> <Gold.Chemscore.DEInternal.Weighted>
4.8128

> <Gold.Chemscore.Rot.Weighted>
5.3643

> <Gold.Chemscore.Internal.Correction.Weighted>
   9.000000E+99

> <Gold.Protein.RotatedTorsions>
[ 6907 6896 6895 6894 ] final -144.05 input  -60.11 | X-H torsion
[ 7974 7965 7964 7962 ] final   83.82 input  175.53 | X-H torsion
[ 8008 7997 7996 7995 ] final   38.21 input   59.86 | X-H torsion
[ 10167 10162 10161 10158 ] final   -9.13 input  -65.29 | X-H torsion
[ 10718 10713 10712 10709 ] final   78.31 input   66.30 | X-H torsion
[ 10763 10752 10751 10750 ] final   99.22 input  -60.55 | X-H torsion
[ 11005 11000 10999 10996 ] final  123.76 input  -57.11 | X-H torsion

> <Gold.Protein.ActiveResidues>
 VAL166  LYS551  ARG553  GLY616  TRP617  ASP618  TYR619  PRO620  LYS621  CYS622 
 ASP623  PHE694  ASN695  SER759  ASP760  ASP761  ALA762  ILE779  LEU786  VAL792 
 PHE793  MET794  SER795  GLU796  ALA797  LYS798  CYS799  TRP800  GLU811  SER814 

> <Gold.Protein.RotatedAtoms>
  151.1088  133.5188  159.2606 H   0  0  0  0  0  0  0  0  0  0  0  0  # atno 6907 bound_to 6896
  151.1991  135.0434  159.8874 H   0  0  0  0  0  0  0  0  0  0  0  0  # atno 6908 bound_to 6896
  152.5448  134.0918  159.8333 H   0  0  0  0  0  0  0  0  0  0  0  0  # atno 6909 bound_to 6896
  145.6068  139.2361  143.2214 H   0  0  0  0  0  0  0  0  0  0  0  0  # atno 7974 bound_to 7965
  155.2164  140.3327  155.4321 H   0  0  0  0  0  0  0  0  0  0  0  0  # atno 8008 bound_to 7997
  156.2350  140.1868  156.7190 H   0  0  0  0  0  0  0  0  0  0  0  0  # atno 8009 bound_to 7997
  154.6044  140.0618  156.9397 H   0  0  0  0  0  0  0  0  0  0  0  0  # atno 8010 bound_to 7997
  140.7079  143.5891  150.8912 H   0  0  0  0  0  0  0  0  0  0  0  0  # atno 10167 bound_to 10162
  157.6740  130.9862  150.1768 H   0  0  0  0  0  0  0  0  0  0  0  0  # atno 10718 bound_to 10713
  153.2988  135.4121  155.1233 H   0  0  0  0  0  0  0  0  0  0  0  0  # atno 10763 bound_to 10752
  154.8543  135.3536  154.5881 H   0  0  0  0  0  0  0  0  0  0  0  0  # atno 10764 bound_to 10752
  153.6305  135.7061  153.5335 H   0  0  0  0  0  0  0  0  0  0  0  0  # atno 10765 bound_to 10752
  139.9327  134.9641  156.8307 H   0  0  0  0  0  0  0  0  0  0  0  0  # atno 11005 bound_to 11000
  146.1534  140.6892  142.9311 LP  0  0  0  0  0  0  0  0  0  0  0  0  # atno 17320 bound_to 7965
  144.7286  140.4603  143.6954 LP  0  0  0  0  0  0  0  0  0  0  0  0  # atno 17321 bound_to 7965
  139.9617  143.6156  152.3000 LP  0  0  0  0  0  0  0  0  0  0  0  0  # atno 17342 bound_to 10162
  139.6711  144.7661  151.1781 LP  0  0  0  0  0  0  0  0  0  0  0  0  # atno 17343 bound_to 10162
  156.2509  130.3700  149.8233 LP  0  0  0  0  0  0  0  0  0  0  0  0  # atno 17370 bound_to 10713
  156.6006  130.8545  151.3431 LP  0  0  0  0  0  0  0  0  0  0  0  0  # atno 17371 bound_to 10713
  140.6158  134.0040  155.7596 LP  0  0  0  0  0  0  0  0  0  0  0  0  # atno 17394 bound_to 11000
  141.0925  133.9895  157.3214 LP  0  0  0  0  0  0  0  0  0  0  0  0  # atno 17395 bound_to 11000

$$$$
