AV-unprocessed.smi:2341|AV-procd|sdf|9352|dock9
  -GOLD-   2272012573D 1   1.00000     0.00000
 Structure written by MMmdl.
 52 54  0  0  0  0  0  0  0  0  2 V2000
  149.5484  130.0244  154.5130 C   0  0  0  0  0  0  0  0  0  0  0  0
  149.5913  131.5374  154.5519 C   0  0  0  0  0  0  0  0  0  0  0  0
  150.2391  132.2225  155.5974 C   0  0  0  0  0  0  0  0  0  0  0  0
  150.2474  133.6304  155.5833 C   0  0  0  0  0  0  0  0  0  0  0  0
  149.6088  134.3194  154.5277 C   0  0  0  0  0  0  0  0  0  0  0  0
  149.6747  135.7359  154.6082 N   0  0  0  0  0  0  0  0  0  0  0  0
  149.9280  136.4960  155.6881 C   0  0  0  0  0  0  0  0  0  0  0  0
  150.1541  136.0728  156.8221 O   0  0  0  0  0  0  0  0  0  0  0  0
  149.9071  137.8009  155.3793 N   0  0  0  0  0  0  0  0  0  0  0  0
  150.1330  138.8894  156.3258 C   0  0  2  0  0  0  0  0  0  0  0  0
  150.3867  140.1987  155.5677 C   0  0  0  0  0  0  0  0  0  0  0  0
  150.7077  141.3556  156.5301 C   0  0  0  0  0  0  0  0  0  0  0  0
  151.8729  141.0376  157.4065 N   0  3  1  0  0  0  0  0  0  0  0  0
  152.3434  142.1488  158.2979 C   0  0  0  0  0  0  0  0  0  0  0  0
  151.8365  142.0565  159.7626 C   0  0  0  0  0  0  0  0  0  0  0  0
  152.3201  143.2365  160.6211 C   0  0  0  0  0  0  0  0  0  0  0  0
  151.9015  144.5795  160.0112 C   0  0  0  0  0  0  0  0  0  0  0  0
  152.4083  144.6993  158.5690 C   0  0  0  0  0  0  0  0  0  0  0  0
  151.9277  143.5202  157.7082 C   0  0  0  0  0  0  0  0  0  0  0  0
  151.6279  139.7779  158.1660 C   0  0  0  0  0  0  0  0  0  0  0  0
  151.3393  138.5930  157.2311 C   0  0  0  0  0  0  0  0  0  0  0  0
  148.9863  133.6504  153.5253 N   0  0  0  0  0  0  0  0  0  0  0  0
  148.9791  132.3010  153.5393 C   0  0  0  0  0  0  0  0  0  0  0  0
  150.2119  129.5906  155.2616 H   0  0  0  0  0  0  0  0  0  0  0  0
  149.8579  129.6606  153.5330 H   0  0  0  0  0  0  0  0  0  0  0  0
  148.5355  129.6714  154.7070 H   0  0  0  0  0  0  0  0  0  0  0  0
  150.7225  131.6826  156.3985 H   0  0  0  0  0  0  0  0  0  0  0  0
  150.7404  134.1715  156.3778 H   0  0  0  0  0  0  0  0  0  0  0  0
  149.5078  136.2265  153.7423 H   0  0  0  0  0  0  0  0  0  0  0  0
  149.7129  138.0598  154.4228 H   0  0  0  0  0  0  0  0  0  0  0  0
  149.2414  139.0164  156.9433 H   0  0  0  0  0  0  0  0  0  0  0  0
  151.2170  140.0692  154.8716 H   0  0  0  0  0  0  0  0  0  0  0  0
  149.5156  140.4556  154.9635 H   0  0  0  0  0  0  0  0  0  0  0  0
  150.9125  142.2282  155.9114 H   0  0  0  0  0  0  0  0  0  0  0  0
  149.8376  141.5892  157.1458 H   0  0  0  0  0  0  0  0  0  0  0  0
  153.4333  142.1011  158.3383 H   0  0  0  0  0  0  0  0  0  0  0  0
  150.7461  142.0251  159.7790 H   0  0  0  0  0  0  0  0  0  0  0  0
  152.1897  141.1416  160.2388 H   0  0  0  0  0  0  0  0  0  0  0  0
  151.9204  143.1486  161.6319 H   0  0  0  0  0  0  0  0  0  0  0  0
  153.4062  143.1997  160.7150 H   0  0  0  0  0  0  0  0  0  0  0  0
  150.8146  144.6696  160.0289 H   0  0  0  0  0  0  0  0  0  0  0  0
  152.2911  145.4010  160.6133 H   0  0  0  0  0  0  0  0  0  0  0  0
  152.0669  145.6393  158.1345 H   0  0  0  0  0  0  0  0  0  0  0  0
  153.4986  144.7354  158.5648 H   0  0  0  0  0  0  0  0  0  0  0  0
  152.3221  143.6554  156.7024 H   0  0  0  0  0  0  0  0  0  0  0  0
  150.8414  143.5623  157.6151 H   0  0  0  0  0  0  0  0  0  0  0  0
  152.4855  139.5219  158.7855 H   0  0  0  0  0  0  0  0  0  0  0  0
  150.7877  139.9232  158.8471 H   0  0  0  0  0  0  0  0  0  0  0  0
  151.1528  137.6981  157.8261 H   0  0  0  0  0  0  0  0  0  0  0  0
  152.2217  138.3830  156.6246 H   0  0  0  0  0  0  0  0  0  0  0  0
  148.4691  131.8184  152.7185 H   0  0  0  0  0  0  0  0  0  0  0  0
  152.6389  140.8517  156.7748 H   0  0  0  0  0  0  0  0  0  0  0  0
  1  2  1  0  0  0  0
  1 24  1  0  0  0  0
  1 25  1  0  0  0  0
  1 26  1  0  0  0  0
  2 23  1  0  0  0  0
  2  3  2  0  0  0  0
  3  4  1  0  0  0  0
  3 27  1  0  0  0  0
  4  5  2  0  0  0  0
  4 28  1  0  0  0  0
  5  6  1  0  0  0  0
  5 22  1  0  0  0  0
  6  7  1  0  0  0  0
  6 29  1  0  0  0  0
  7  8  2  0  0  0  0
  7  9  1  0  0  0  0
  9 10  1  0  0  0  0
  9 30  1  0  0  0  0
 10 21  1  0  0  0  0
 10 11  1  0  0  0  0
 10 31  1  0  0  0  0
 11 12  1  0  0  0  0
 11 32  1  0  0  0  0
 11 33  1  0  0  0  0
 12 13  1  0  0  0  0
 12 34  1  0  0  0  0
 12 35  1  0  0  0  0
 13 14  1  0  0  0  0
 13 20  1  0  0  0  0
 13 52  1  0  0  0  0
 14 19  1  0  0  0  0
 14 15  1  0  0  0  0
 14 36  1  0  0  0  0
 15 16  1  0  0  0  0
 15 37  1  0  0  0  0
 15 38  1  0  0  0  0
 16 17  1  0  0  0  0
 16 39  1  0  0  0  0
 16 40  1  0  0  0  0
 17 18  1  0  0  0  0
 17 41  1  0  0  0  0
 17 42  1  0  0  0  0
 18 19  1  0  0  0  0
 18 43  1  0  0  0  0
 18 44  1  0  0  0  0
 19 45  1  0  0  0  0
 19 46  1  0  0  0  0
 20 21  1  0  0  0  0
 20 47  1  0  0  0  0
 20 48  1  0  0  0  0
 21 49  1  0  0  0  0
 21 50  1  0  0  0  0
 22 23  2  0  0  0  0
 23 51  1  0  0  0  0
M  CHG  1  13   1
M  END
> <s_m_source_file>
AV-unprocessed.smi

> <i_m_source_file_index>
2341

> <i_lp_mmshare_version>
43012

> <i_f3d_flags>
0

> <s_epik_input>
W0NIM11jMVtjSF1bY0hdYyhuW2NIXTEpW05IXUMoPU8pW05IXVtDSF0yW0NIMl1bQ0gyXU4oW0NIMl1bQ0gyXTIpW0NIXTNbQ0gyXVtDSDJdW0NIMl1bQ0gyXVtDSDJdMw==

> <s_epik_cmdline>
J2VwaWtfcHl0aG9uJywgJy1waCcsICc3LjAnLCAnLXRuJywgJzgnLCAnLW1hJywgJzIwMCcsICctbWV0YWxfYmluZGluZycsICctaW1hZScsICc8aW5maWxlLm1hZT4nLCAnLW9tYWUnLCAnPG91dGZpbGUubWFlPic=

> <r_epik_Ionization_Penalty>
0.00176486

> <r_epik_Ionization_Penalty_Charging>
0.00171891

> <r_epik_Ionization_Penalty_Neutral>
4.59494e-05

> <r_epik_State_Penalty>
0.00116222

> <r_epik_Charging_Adjusted_Penalty>
0.00288114

> <i_epik_Tot_Q>
1

> <i_epik_Tot_abs_Q>
1

> <r_epik_Metal_State_Penalty>
-0

> <b_epik_Metal_Only>
0

> <s_lp_Force_Field>
OPLS_2005

> <r_lp_Energy>
29.4095

> <b_lp_Chiralities_Consistent>
1

> <s_lp_Variant>
AV-unprocessed.smi:2341-1

> <Gold.Version>
5.8.1

> <Gold.Id.Protein>
6NUR|6NUR_protein|mol2

> <Gold.PLP.Fitness>
44.4319

> <Gold.PLP.PLP>
-41.5707

> <Gold.PLP.part.hbond>
-1.0000

> <Gold.PLP.part.metal>
0.0000

> <Gold.PLP.part.buried>
-5.4227

> <Gold.PLP.part.nonpolar>
-35.1033

> <Gold.PLP.part.repulsive>
0.9519

> <Gold.PLP.ligand.clash>
0.3611

> <Gold.PLP.ligand.torsion>
1.1510

> <Gold.PLP.Chemscore.Hbond>
1.0000

> <Gold.PLP.Chemscore.CHOScore>
0.8282

> <Gold.PLP.Chemscore.Metal>
0.0000

> <Gold.Chemscore.Hbonds>
donor molecule, donor type, donor heavy atom, donor atom, acceptor molecule, acceptor atom, score
      L1  H     6    29       P1  7948  1.00
      L1  C    23    51       P1 10747  0.68

> <Gold.PLP.Chemscore.Internal.Correction>
0.0398

> <Gold.Rescore>
     Score         DG    S(hbond)    S(metal)    S(lipo)     H(rot)  DE(clash)    DE(int)     intcor
     14.62     -19.25       0.70        0.00     123.89       1.19       0.54       4.09       ----

> <Gold.Chemscore.Fitness>
14.6249

> <Gold.Chemscore.DG>
-19.2549

> <Gold.Chemscore.ZeroCoef>
-5.4800

> <Gold.Chemscore.Hbond>
0.6979

> <Gold.Chemscore.Metal>
0.0000

> <Gold.Chemscore.Lipo>
123.8883

> <Gold.Chemscore.Internal_Hbond>
0.0000

> <Gold.Chemscore.DEClash>
0.5395

> <Gold.Chemscore.DEInternal>
4.0906

> <Gold.Chemscore.Rot>
1.1918

> <Gold.Chemscore.Internal.Correction>
   9.000000E+99

> <Gold.Chemscore.Hbonds>
donor molecule, donor type, donor heavy atom, donor atom, acceptor molecule, acceptor atom, score
      L1  H     6    29       P1  7948  0.61

> <Gold.Chemscore.Hbond.Weighted>
-2.3311

> <Gold.Chemscore.Metal.Weighted>
-0.0000

> <Gold.Chemscore.Lipo.Weighted>
-14.4949

> <Gold.Chemscore.Internal_Hbond.Weighted>
0.0000

> <Gold.Chemscore.DEClash.Weighted>
0.5395

> <Gold.Chemscore.DEInternal.Weighted>
4.0906

> <Gold.Chemscore.Rot.Weighted>
3.0511

> <Gold.Chemscore.Internal.Correction.Weighted>
   9.000000E+99

> <Gold.Protein.RotatedTorsions>
[ 6907 6896 6895 6894 ] final  -48.20 input  -60.11 | X-H torsion
[ 7974 7965 7964 7962 ] final -122.36 input  175.53 | X-H torsion
[ 8008 7997 7996 7995 ] final   90.74 input   59.86 | X-H torsion
[ 10167 10162 10161 10158 ] final  122.97 input  -65.29 | X-H torsion
[ 10718 10713 10712 10709 ] final   96.80 input   66.30 | X-H torsion
[ 10763 10752 10751 10750 ] final -105.84 input  -60.55 | X-H torsion
[ 11005 11000 10999 10996 ] final -121.90 input  -57.11 | X-H torsion

> <Gold.Protein.ActiveResidues>
 VAL166  LYS551  ARG553  GLY616  TRP617  ASP618  TYR619  PRO620  LYS621  CYS622 
 ASP623  PHE694  ASN695  SER759  ASP760  ASP761  ALA762  ILE779  LEU786  VAL792 
 PHE793  MET794  SER795  GLU796  ALA797  LYS798  CYS799  TRP800  GLU811  SER814 

> <Gold.Protein.RotatedAtoms>
  150.8930  134.8336  159.7306 H   0  0  0  0  0  0  0  0  0  0  0  0  # atno 6907 bound_to 6896
  152.4848  134.4619  159.9617 H   0  0  0  0  0  0  0  0  0  0  0  0  # atno 6908 bound_to 6896
  151.4679  133.3537  159.2854 H   0  0  0  0  0  0  0  0  0  0  0  0  # atno 6909 bound_to 6896
  145.0303  140.8062  143.4328 H   0  0  0  0  0  0  0  0  0  0  0  0  # atno 7974 bound_to 7965
  156.0155  140.3346  155.6984 H   0  0  0  0  0  0  0  0  0  0  0  0  # atno 8008 bound_to 7997
  155.6097  140.0664  157.2727 H   0  0  0  0  0  0  0  0  0  0  0  0  # atno 8009 bound_to 7997
  154.4296  140.1795  156.1247 H   0  0  0  0  0  0  0  0  0  0  0  0  # atno 8010 bound_to 7997
  139.5827  144.6993  151.3488 H   0  0  0  0  0  0  0  0  0  0  0  0  # atno 10167 bound_to 10162
  157.6922  131.0589  150.4546 H   0  0  0  0  0  0  0  0  0  0  0  0  # atno 10718 bound_to 10713
  154.7973  135.4734  154.0192 H   0  0  0  0  0  0  0  0  0  0  0  0  # atno 10763 bound_to 10752
  153.1724  135.6827  153.8596 H   0  0  0  0  0  0  0  0  0  0  0  0  # atno 10764 bound_to 10752
  153.8174  135.3209  155.3384 H   0  0  0  0  0  0  0  0  0  0  0  0  # atno 10765 bound_to 10752
  141.0035  134.0368  157.3507 H   0  0  0  0  0  0  0  0  0  0  0  0  # atno 11005 bound_to 11000
  145.1780  139.2367  143.5307 LP  0  0  0  0  0  0  0  0  0  0  0  0  # atno 17320 bound_to 7965
  146.3497  140.1546  142.8592 LP  0  0  0  0  0  0  0  0  0  0  0  0  # atno 17321 bound_to 7965
  140.7103  143.7408  150.7555 LP  0  0  0  0  0  0  0  0  0  0  0  0  # atno 17342 bound_to 10162
  140.0944  143.4847  152.2460 LP  0  0  0  0  0  0  0  0  0  0  0  0  # atno 17343 bound_to 10162
  156.4895  130.4092  149.6415 LP  0  0  0  0  0  0  0  0  0  0  0  0  # atno 17370 bound_to 10713
  156.3430  130.7392  151.2340 LP  0  0  0  0  0  0  0  0  0  0  0  0  # atno 17371 bound_to 10713
  139.9051  135.0177  156.7449 LP  0  0  0  0  0  0  0  0  0  0  0  0  # atno 17394 bound_to 11000
  140.6850  133.9441  155.7932 LP  0  0  0  0  0  0  0  0  0  0  0  0  # atno 17395 bound_to 11000

$$$$
