AV-unprocessed.smi:3032|AV-procd|sdf|11566|dock2
  -GOLD-   2272016533D 1   1.00000     0.00000
 Structure written by MMmdl.
 37 38  0  0  0  0  0  0  0  0  1 V2000
  151.7444  145.6341  159.8039 C   0  0  0  0  0  0  0  0  0  0  0  0
  151.9563  144.2851  159.1021 C   0  0  1  0  0  0  0  0  0  0  0  0
  152.8707  143.3590  159.9267 C   0  0  0  0  0  0  0  0  0  0  0  0
  153.0731  142.0020  159.2343 C   0  0  0  0  0  0  0  0  0  0  0  0
  151.7273  141.3198  158.9441 C   0  0  0  0  0  0  0  0  0  0  0  0
  150.8124  142.2313  158.1002 C   0  0  1  0  0  0  0  0  0  0  0  0
  149.4581  141.5637  157.8310 C   0  0  0  0  0  0  0  0  0  0  0  0
  149.2541  140.4067  158.1992 O   0  0  0  0  0  0  0  0  0  0  0  0
  148.5331  142.3146  157.2115 N   0  0  0  0  0  0  0  0  0  0  0  0
  147.1511  141.9150  156.9549 C   0  0  0  0  0  0  0  0  0  0  0  0
  146.1383  142.8722  157.6130 C   0  0  0  0  0  0  0  0  0  0  0  0
  146.5200  143.3096  158.9928 C   0  0  0  0  0  0  0  0  0  0  0  0
  146.4616  142.5357  160.0831 N   0  0  0  0  0  0  0  0  0  0  0  0
  146.9359  143.3203  161.1227 N   0  0  0  0  0  0  0  0  0  0  0  0
  147.2333  144.4918  160.5586 C   0  0  0  0  0  0  0  0  0  0  0  0
  146.9922  144.5408  159.2436 N   0  0  0  0  0  0  0  0  0  0  0  0
  150.6130  143.5906  158.8044 C   0  0  0  0  0  0  0  0  0  0  0  0
  147.1390  145.3061  158.6019 H   0  0  0  0  0  0  0  0  0  0  0  0
  151.2394  145.5069  160.7619 H   0  0  0  0  0  0  0  0  0  0  0  0
  151.1366  146.3027  159.1937 H   0  0  0  0  0  0  0  0  0  0  0  0
  152.6950  146.1335  159.9927 H   0  0  0  0  0  0  0  0  0  0  0  0
  152.4502  144.4842  158.1499 H   0  0  0  0  0  0  0  0  0  0  0  0
  153.8387  143.8349  160.0855 H   0  0  0  0  0  0  0  0  0  0  0  0
  152.4393  143.1999  160.9160 H   0  0  0  0  0  0  0  0  0  0  0  0
  153.6200  142.1450  158.3015 H   0  0  0  0  0  0  0  0  0  0  0  0
  153.6903  141.3556  159.8587 H   0  0  0  0  0  0  0  0  0  0  0  0
  151.9012  140.3764  158.4248 H   0  0  0  0  0  0  0  0  0  0  0  0
  151.2430  141.0676  159.8891 H   0  0  0  0  0  0  0  0  0  0  0  0
  151.3040  142.4120  157.1426 H   0  0  0  0  0  0  0  0  0  0  0  0
  148.7932  143.2511  156.9382 H   0  0  0  0  0  0  0  0  0  0  0  0
  146.9941  141.9037  155.8764 H   0  0  0  0  0  0  0  0  0  0  0  0
  146.9737  140.8941  157.2970 H   0  0  0  0  0  0  0  0  0  0  0  0
  146.0112  143.7571  156.9880 H   0  0  0  0  0  0  0  0  0  0  0  0
  145.1606  142.3917  157.6615 H   0  0  0  0  0  0  0  0  0  0  0  0
  147.6340  145.3267  161.1142 H   0  0  0  0  0  0  0  0  0  0  0  0
  150.0638  143.4505  159.7370 H   0  0  0  0  0  0  0  0  0  0  0  0
  149.9966  144.2408  158.1818 H   0  0  0  0  0  0  0  0  0  0  0  0
  1  2  1  0  0  0  0
  1 19  1  0  0  0  0
  1 20  1  0  0  0  0
  1 21  1  0  0  0  0
  2 17  1  0  0  0  0
  2  3  1  0  0  0  0
  2 22  1  0  0  0  0
  3  4  1  0  0  0  0
  3 23  1  0  0  0  0
  3 24  1  0  0  0  0
  4  5  1  0  0  0  0
  4 25  1  0  0  0  0
  4 26  1  0  0  0  0
  5  6  1  0  0  0  0
  5 27  1  0  0  0  0
  5 28  1  0  0  0  0
  6  7  1  0  0  0  0
  6 17  1  0  0  0  0
  6 29  1  0  0  0  0
  7  8  2  0  0  0  0
  7  9  1  0  0  0  0
  9 10  1  0  0  0  0
  9 30  1  0  0  0  0
 10 11  1  0  0  0  0
 10 31  1  0  0  0  0
 10 32  1  0  0  0  0
 11 12  1  0  0  0  0
 11 33  1  0  0  0  0
 11 34  1  0  0  0  0
 12 16  1  0  0  0  0
 12 13  2  0  0  0  0
 13 14  1  0  0  0  0
 14 15  2  0  0  0  0
 15 16  1  0  0  0  0
 15 35  1  0  0  0  0
 16 18  1  0  0  0  0
 17 36  1  0  0  0  0
 17 37  1  0  0  0  0
M  END
> <s_m_source_file>
AV-unprocessed.smi

> <i_m_source_file_index>
3032

> <i_lp_mmshare_version>
43012

> <i_f3d_flags>
0

> <s_epik_input>
W0NIM11bQ0BASF0xW0NIMl1bQ0gyXVtDSDJdW0NASF0oW0NIMl0xKUMoPU8pW05IXVtDSDJdW0NIMl1jMm5uW2NIXVtuSF0y

> <s_epik_cmdline>
J2VwaWtfcHl0aG9uJywgJy1waCcsICc3LjAnLCAnLXRuJywgJzgnLCAnLW1hJywgJzIwMCcsICctbWV0YWxfYmluZGluZycsICctaW1hZScsICc8aW5maWxlLm1hZT4nLCAnLW9tYWUnLCAnPG91dGZpbGUubWFlPic=

> <r_lp_tautomer_probability>
0.0517155

> <r_epik_Ionization_Penalty>
0.00149837

> <r_epik_Ionization_Penalty_Charging>
0

> <r_epik_Ionization_Penalty_Neutral>
0.00149837

> <r_epik_State_Penalty>
2.1109

> <r_epik_Charging_Adjusted_Penalty>
2.1109

> <i_epik_Tot_Q>
0

> <i_epik_Tot_abs_Q>
0

> <r_epik_Metal_State_Penalty>
2.23635

> <b_epik_Metal_Only>
0

> <s_lp_Force_Field>
OPLS_2005

> <r_lp_Energy>
11.6052

> <b_lp_Chiralities_Consistent>
1

> <s_lp_Variant>
AV-unprocessed.smi:3032-10

> <Gold.Version>
5.8.1

> <Gold.Id.Protein>
6NUR|6NUR_protein|mol2

> <Gold.PLP.Fitness>
46.0558

> <Gold.PLP.PLP>
-35.0272

> <Gold.PLP.part.hbond>
-4.9832

> <Gold.PLP.part.metal>
0.0000

> <Gold.PLP.part.buried>
-6.0125

> <Gold.PLP.part.nonpolar>
-24.6433

> <Gold.PLP.part.repulsive>
0.1529

> <Gold.PLP.ligand.clash>
0.0000

> <Gold.PLP.ligand.torsion>
0.3470

> <Gold.PLP.Chemscore.Hbond>
3.9000

> <Gold.PLP.Chemscore.CHOScore>
0.0000

> <Gold.PLP.Chemscore.Metal>
0.0000

> <Gold.Chemscore.Hbonds>
donor molecule, donor type, donor heavy atom, donor atom, acceptor molecule, acceptor atom, score
      L1  H     9    30       P1  8028  1.00
      L1  H    16    18       P1  8029  1.00
      P1  H  6933  6944       L1    14  0.85
      P1  H  6934  6946       L1    13  1.00

> <Gold.PLP.Chemscore.Internal.Correction>
0.0225

> <Gold.Rescore>
     Score         DG    S(hbond)    S(metal)    S(lipo)     H(rot)  DE(clash)    DE(int)     intcor
     16.41     -16.70       2.43        0.00      75.66       2.25       0.00       0.29       ----

> <Gold.Chemscore.Fitness>
16.4068

> <Gold.Chemscore.DG>
-16.7005

> <Gold.Chemscore.ZeroCoef>
-5.4800

> <Gold.Chemscore.Hbond>
2.4337

> <Gold.Chemscore.Metal>
0.0000

> <Gold.Chemscore.Lipo>
75.6598

> <Gold.Chemscore.Internal_Hbond>
0.0000

> <Gold.Chemscore.DEClash>
0.0015

> <Gold.Chemscore.DEInternal>
0.2922

> <Gold.Chemscore.Rot>
2.2501

> <Gold.Chemscore.Internal.Correction>
   9.000000E+99

> <Gold.Chemscore.Hbonds>
donor molecule, donor type, donor heavy atom, donor atom, acceptor molecule, acceptor atom, score
      L1  H     9    30       P1  8028  0.63
      L1  H    16    18       P1  8029  0.96
      P1  H  6933  6944       L1    14  0.11
      P1  H  6934  6946       L1    13  0.25

> <Gold.Chemscore.Hbond.Weighted>
-8.1286

> <Gold.Chemscore.Metal.Weighted>
-0.0000

> <Gold.Chemscore.Lipo.Weighted>
-8.8522

> <Gold.Chemscore.Internal_Hbond.Weighted>
0.0000

> <Gold.Chemscore.DEClash.Weighted>
0.0015

> <Gold.Chemscore.DEInternal.Weighted>
0.2922

> <Gold.Chemscore.Rot.Weighted>
5.7603

> <Gold.Chemscore.Internal.Correction.Weighted>
   9.000000E+99

> <Gold.Protein.RotatedTorsions>
[ 6907 6896 6895 6894 ] final  -12.18 input  -60.11 | X-H torsion
[ 7974 7965 7964 7962 ] final  151.64 input  175.53 | X-H torsion
[ 8008 7997 7996 7995 ] final  144.45 input   59.86 | X-H torsion
[ 10167 10162 10161 10158 ] final  116.54 input  -65.29 | X-H torsion
[ 10718 10713 10712 10709 ] final   50.65 input   66.30 | X-H torsion
[ 10763 10752 10751 10750 ] final   17.42 input  -60.55 | X-H torsion
[ 11005 11000 10999 10996 ] final  -76.53 input  -57.11 | X-H torsion

> <Gold.Protein.ActiveResidues>
 VAL166  LYS551  ARG553  GLY616  TRP617  ASP618  TYR619  PRO620  LYS621  CYS622 
 ASP623  PHE694  ASN695  SER759  ASP760  ASP761  ALA762  ILE779  LEU786  VAL792 
 PHE793  MET794  SER795  GLU796  ALA797  LYS798  CYS799  TRP800  GLU811  SER814 

> <Gold.Protein.RotatedAtoms>
  151.3745  135.0928  159.9475 H   0  0  0  0  0  0  0  0  0  0  0  0  # atno 6907 bound_to 6896
  152.5126  133.9132  159.7508 H   0  0  0  0  0  0  0  0  0  0  0  0  # atno 6908 bound_to 6896
  150.9553  133.6449  159.2793 H   0  0  0  0  0  0  0  0  0  0  0  0  # atno 6909 bound_to 6896
  144.8278  139.6564  143.6072 H   0  0  0  0  0  0  0  0  0  0  0  0  # atno 7974 bound_to 7965
  156.2907  140.2235  156.5055 H   0  0  0  0  0  0  0  0  0  0  0  0  # atno 8008 bound_to 7997
  154.7653  140.0470  157.1029 H   0  0  0  0  0  0  0  0  0  0  0  0  # atno 8009 bound_to 7997
  154.9940  140.3093  155.4897 H   0  0  0  0  0  0  0  0  0  0  0  0  # atno 8010 bound_to 7997
  139.6240  144.7105  151.2573 H   0  0  0  0  0  0  0  0  0  0  0  0  # atno 10167 bound_to 10162
  157.4905  130.8373  149.8197 H   0  0  0  0  0  0  0  0  0  0  0  0  # atno 10718 bound_to 10713
  153.1341  135.6746  153.9131 H   0  0  0  0  0  0  0  0  0  0  0  0  # atno 10763 bound_to 10752
  153.8609  135.3081  155.3439 H   0  0  0  0  0  0  0  0  0  0  0  0  # atno 10764 bound_to 10752
  154.7732  135.4928  153.9774 H   0  0  0  0  0  0  0  0  0  0  0  0  # atno 10765 bound_to 10752
  141.1654  133.6987  156.7683 H   0  0  0  0  0  0  0  0  0  0  0  0  # atno 11005 bound_to 11000
  146.2582  139.6351  142.9380 LP  0  0  0  0  0  0  0  0  0  0  0  0  # atno 17320 bound_to 7965
  145.4962  141.0438  143.2565 LP  0  0  0  0  0  0  0  0  0  0  0  0  # atno 17321 bound_to 7965
  140.7400  143.6602  150.8171 LP  0  0  0  0  0  0  0  0  0  0  0  0  # atno 17342 bound_to 10162
  140.0217  143.5535  152.2797 LP  0  0  0  0  0  0  0  0  0  0  0  0  # atno 17343 bound_to 10162
  156.0171  130.3809  150.2077 LP  0  0  0  0  0  0  0  0  0  0  0  0  # atno 17370 bound_to 10713
  157.0266  130.9995  151.3324 LP  0  0  0  0  0  0  0  0  0  0  0  0  # atno 17371 bound_to 10713
  140.2483  134.8560  157.3642 LP  0  0  0  0  0  0  0  0  0  0  0  0  # atno 17394 bound_to 11000
  140.1728  134.4587  155.7821 LP  0  0  0  0  0  0  0  0  0  0  0  0  # atno 17395 bound_to 11000

$$$$
