AV-unprocessed.smi:2385|AV-procd|sdf|9465|dock1
  -GOLD-   2272013 93D 1   1.00000     0.00000
 Structure written by MMmdl.
 50 52  0  0  0  0  0  0  0  0  2 V2000
  152.0967  145.5501  159.7732 C   0  0  0  0  0  0  0  0  0  0  0  0
  151.8920  144.1629  159.2017 C   0  0  0  0  0  0  0  0  0  0  0  0
  152.3975  143.0253  159.8588 C   0  0  0  0  0  0  0  0  0  0  0  0
  152.1782  141.7577  159.2864 C   0  0  0  0  0  0  0  0  0  0  0  0
  151.4595  141.6565  158.0740 C   0  0  0  0  0  0  0  0  0  0  0  0
  151.2966  140.3345  157.5811 N   0  0  0  0  0  0  0  0  0  0  0  0
  151.3008  139.9171  156.3031 C   0  0  0  0  0  0  0  0  0  0  0  0
  151.4428  140.6386  155.3159 O   0  0  0  0  0  0  0  0  0  0  0  0
  151.1230  138.5900  156.2269 N   0  0  0  0  0  0  0  0  0  0  0  0
  151.0850  137.8091  154.9906 C   0  0  2  0  0  0  0  0  0  0  0  0
  150.3810  138.5677  153.8499 C   0  0  0  0  0  0  0  0  0  0  0  0
  148.8697  138.7113  154.1010 C   0  0  0  0  0  0  0  0  0  0  0  0
  148.2221  137.3901  154.3193 N   0  3  2  0  0  0  0  0  0  0  0  0
  146.7451  137.5151  154.4480 C   0  0  0  0  0  0  0  0  0  0  0  0
  146.0088  137.5904  153.0923 C   0  0  2  0  0  0  0  0  0  0  0  0
  145.9029  136.2386  152.4075 C   0  0  0  0  0  0  0  0  0  0  0  0
  145.6691  136.6323  150.9571 C   0  0  0  0  0  0  0  0  0  0  0  0
  146.5369  137.7385  150.7701 O   0  0  0  0  0  0  0  0  0  0  0  0
  146.6921  138.4348  152.0035 C   0  0  0  0  0  0  0  0  0  0  0  0
  148.8558  136.6547  155.4468 C   0  0  0  0  0  0  0  0  0  0  0  0
  150.3686  136.4700  155.2253 C   0  0  0  0  0  0  0  0  0  0  0  0
  150.9737  142.7581  157.4496 N   0  0  0  0  0  0  0  0  0  0  0  0
  151.1849  143.9732  157.9985 C   0  0  0  0  0  0  0  0  0  0  0  0
  152.9689  145.5780  160.4271 H   0  0  0  0  0  0  0  0  0  0  0  0
  151.2233  145.8503  160.3521 H   0  0  0  0  0  0  0  0  0  0  0  0
  152.2480  146.2777  158.9753 H   0  0  0  0  0  0  0  0  0  0  0  0
  152.9446  143.1186  160.7856 H   0  0  0  0  0  0  0  0  0  0  0  0
  152.5607  140.8747  159.7777 H   0  0  0  0  0  0  0  0  0  0  0  0
  151.1655  139.6243  158.2858 H   0  0  0  0  0  0  0  0  0  0  0  0
  151.0226  138.0786  157.0914 H   0  0  0  0  0  0  0  0  0  0  0  0
  152.1139  137.5978  154.6935 H   0  0  0  0  0  0  0  0  0  0  0  0
  150.8312  139.5506  153.7053 H   0  0  0  0  0  0  0  0  0  0  0  0
  150.5356  138.0282  152.9145 H   0  0  0  0  0  0  0  0  0  0  0  0
  148.6882  139.3545  154.9635 H   0  0  0  0  0  0  0  0  0  0  0  0
  148.4183  139.2054  153.2396 H   0  0  0  0  0  0  0  0  0  0  0  0
  146.3440  136.7205  155.0789 H   0  0  0  0  0  0  0  0  0  0  0  0
  146.5315  138.4463  154.9750 H   0  0  0  0  0  0  0  0  0  0  0  0
  144.9938  137.9612  153.2455 H   0  0  0  0  0  0  0  0  0  0  0  0
  146.8410  135.6882  152.4946 H   0  0  0  0  0  0  0  0  0  0  0  0
  145.1034  135.6165  152.8105 H   0  0  0  0  0  0  0  0  0  0  0  0
  145.8889  135.8260  150.2569 H   0  0  0  0  0  0  0  0  0  0  0  0
  144.6374  136.9519  150.8035 H   0  0  0  0  0  0  0  0  0  0  0  0
  146.2447  139.4262  151.9296 H   0  0  0  0  0  0  0  0  0  0  0  0
  147.7585  138.5583  152.1946 H   0  0  0  0  0  0  0  0  0  0  0  0
  148.6716  137.1880  156.3808 H   0  0  0  0  0  0  0  0  0  0  0  0
  148.4096  135.6696  155.5562 H   0  0  0  0  0  0  0  0  0  0  0  0
  150.5251  135.8238  154.3605 H   0  0  0  0  0  0  0  0  0  0  0  0
  150.8112  135.9486  156.0749 H   0  0  0  0  0  0  0  0  0  0  0  0
  150.7765  144.8162  157.4609 H   0  0  0  0  0  0  0  0  0  0  0  0
  148.3936  136.8536  153.4808 H   0  0  0  0  0  0  0  0  0  0  0  0
  1  2  1  0  0  0  0
  1 24  1  0  0  0  0
  1 25  1  0  0  0  0
  1 26  1  0  0  0  0
  2 23  1  0  0  0  0
  2  3  2  0  0  0  0
  3  4  1  0  0  0  0
  3 27  1  0  0  0  0
  4  5  2  0  0  0  0
  4 28  1  0  0  0  0
  5  6  1  0  0  0  0
  5 22  1  0  0  0  0
  6  7  1  0  0  0  0
  6 29  1  0  0  0  0
  7  8  2  0  0  0  0
  7  9  1  0  0  0  0
  9 10  1  0  0  0  0
  9 30  1  0  0  0  0
 10 21  1  0  0  0  0
 10 11  1  0  0  0  0
 10 31  1  0  0  0  0
 11 12  1  0  0  0  0
 11 32  1  0  0  0  0
 11 33  1  0  0  0  0
 12 13  1  0  0  0  0
 12 34  1  0  0  0  0
 12 35  1  0  0  0  0
 13 14  1  0  0  0  0
 13 20  1  0  0  0  0
 13 50  1  0  0  0  0
 14 15  1  0  0  0  0
 14 36  1  0  0  0  0
 14 37  1  0  0  0  0
 15 19  1  0  0  0  0
 15 16  1  0  0  0  0
 15 38  1  0  0  0  0
 16 17  1  0  0  0  0
 16 39  1  0  0  0  0
 16 40  1  0  0  0  0
 17 18  1  0  0  0  0
 17 41  1  0  0  0  0
 17 42  1  0  0  0  0
 18 19  1  0  0  0  0
 19 43  1  0  0  0  0
 19 44  1  0  0  0  0
 20 21  1  0  0  0  0
 20 45  1  0  0  0  0
 20 46  1  0  0  0  0
 21 47  1  0  0  0  0
 21 48  1  0  0  0  0
 22 23  2  0  0  0  0
 23 49  1  0  0  0  0
M  CHG  1  13   1
M  END
> <s_m_source_file>
AV-unprocessed.smi

> <i_m_source_file_index>
2385

> <i_lp_mmshare_version>
43012

> <i_f3d_flags>
0

> <s_epik_input>
W0NIM11jMVtjSF1bY0hdYyhuW2NIXTEpW05IXUMoPU8pW05IXVtDSF0yW0NIMl1bQ0gyXU4oW0NIMl1bQ0gyXTIpW0NIMl1bQ0BASF0zW0NIMl1bQ0gyXU9bQ0gyXTM=

> <s_epik_cmdline>
J2VwaWtfcHl0aG9uJywgJy1waCcsICc3LjAnLCAnLXRuJywgJzgnLCAnLW1hJywgJzIwMCcsICctbWV0YWxfYmluZGluZycsICctaW1hZScsICc8aW5maWxlLm1hZT4nLCAnLW9tYWUnLCAnPG91dGZpbGUubWFlPic=

> <r_epik_Ionization_Penalty>
0.00752367

> <r_epik_Ionization_Penalty_Charging>
0.00747775

> <r_epik_Ionization_Penalty_Neutral>
4.59207e-05

> <r_epik_State_Penalty>
0.00558817

> <r_epik_Charging_Adjusted_Penalty>
0.0130659

> <i_epik_Tot_Q>
1

> <i_epik_Tot_abs_Q>
1

> <r_epik_Metal_State_Penalty>
-0

> <b_epik_Metal_Only>
0

> <s_lp_Force_Field>
OPLS_2005

> <r_lp_Energy>
35.6171

> <b_lp_Chiralities_Consistent>
1

> <s_lp_Variant>
AV-unprocessed.smi:2385-3

> <Gold.Version>
5.8.1

> <Gold.Id.Protein>
6NUR|6NUR_protein|mol2

> <Gold.PLP.Fitness>
50.6829

> <Gold.PLP.PLP>
-38.3444

> <Gold.PLP.part.hbond>
-3.0000

> <Gold.PLP.part.metal>
0.0000

> <Gold.PLP.part.buried>
-1.1536

> <Gold.PLP.part.nonpolar>
-37.3161

> <Gold.PLP.part.repulsive>
2.5987

> <Gold.PLP.ligand.clash>
0.0000

> <Gold.PLP.ligand.torsion>
1.0245

> <Gold.PLP.Chemscore.Hbond>
3.8000

> <Gold.PLP.Chemscore.CHOScore>
0.9586

> <Gold.PLP.Chemscore.Metal>
0.0000

> <Gold.Chemscore.Hbonds>
donor molecule, donor type, donor heavy atom, donor atom, acceptor molecule, acceptor atom, score
      L1  H    13    50       P1  7948  2.00
      P1  H  7954  7966       L1    18  1.00
      P1  H  7989  7998       L1     8  0.78
      L1  C    23    49       P1  8028  0.85

> <Gold.PLP.Chemscore.Internal.Correction>
0.1116

> <Gold.Rescore>
     Score         DG    S(hbond)    S(metal)    S(lipo)     H(rot)  DE(clash)    DE(int)     intcor
     16.77     -22.10       2.30        0.00     107.03       1.41       1.99       3.33       ----

> <Gold.Chemscore.Fitness>
16.7745

> <Gold.Chemscore.DG>
-22.0991

> <Gold.Chemscore.ZeroCoef>
-5.4800

> <Gold.Chemscore.Hbond>
2.3040

> <Gold.Chemscore.Metal>
0.0000

> <Gold.Chemscore.Lipo>
107.0259

> <Gold.Chemscore.Internal_Hbond>
0.0000

> <Gold.Chemscore.DEClash>
1.9898

> <Gold.Chemscore.DEInternal>
3.3348

> <Gold.Chemscore.Rot>
1.4056

> <Gold.Chemscore.Internal.Correction>
   9.000000E+99

> <Gold.Chemscore.Hbonds>
donor molecule, donor type, donor heavy atom, donor atom, acceptor molecule, acceptor atom, score
      L1  H    13    50       P1  7948  1.00
      P1  H  7954  7966       L1    18  0.59
      P1  H  7989  7998       L1     8  0.80

> <Gold.Chemscore.Hbond.Weighted>
-7.6953

> <Gold.Chemscore.Metal.Weighted>
-0.0000

> <Gold.Chemscore.Lipo.Weighted>
-12.5220

> <Gold.Chemscore.Internal_Hbond.Weighted>
0.0000

> <Gold.Chemscore.DEClash.Weighted>
1.9898

> <Gold.Chemscore.DEInternal.Weighted>
3.3348

> <Gold.Chemscore.Rot.Weighted>
3.5982

> <Gold.Chemscore.Internal.Correction.Weighted>
   9.000000E+99

> <Gold.Protein.RotatedTorsions>
[ 6907 6896 6895 6894 ] final -131.69 input  -60.11 | X-H torsion
[ 7974 7965 7964 7962 ] final -177.42 input  175.53 | X-H torsion
[ 8008 7997 7996 7995 ] final  -24.64 input   59.86 | X-H torsion
[ 10167 10162 10161 10158 ] final -116.27 input  -65.29 | X-H torsion
[ 10718 10713 10712 10709 ] final -127.95 input   66.30 | X-H torsion
[ 10763 10752 10751 10750 ] final  120.84 input  -60.55 | X-H torsion
[ 11005 11000 10999 10996 ] final   13.13 input  -57.11 | X-H torsion

> <Gold.Protein.ActiveResidues>
 VAL166  LYS551  ARG553  GLY616  TRP617  ASP618  TYR619  PRO620  LYS621  CYS622 
 ASP623  PHE694  ASN695  SER759  ASP760  ASP761  ALA762  ILE779  LEU786  VAL792 
 PHE793  MET794  SER795  GLU796  ALA797  LYS798  CYS799  TRP800  GLU811  SER814 

> <Gold.Protein.RotatedAtoms>
  150.9539  133.6519  159.2766 H   0  0  0  0  0  0  0  0  0  0  0  0  # atno 6907 bound_to 6896
  151.3865  135.0947  159.9522 H   0  0  0  0  0  0  0  0  0  0  0  0  # atno 6908 bound_to 6896
  152.5121  133.9062  159.7520 H   0  0  0  0  0  0  0  0  0  0  0  0  # atno 6909 bound_to 6896
  144.7128  140.1022  143.6416 H   0  0  0  0  0  0  0  0  0  0  0  0  # atno 7974 bound_to 7965
  154.4518  140.1948  156.0496 H   0  0  0  0  0  0  0  0  0  0  0  0  # atno 8008 bound_to 7997
  156.0664  140.3290  155.7495 H   0  0  0  0  0  0  0  0  0  0  0  0  # atno 8009 bound_to 7997
  155.5332  140.0580  157.2875 H   0  0  0  0  0  0  0  0  0  0  0  0  # atno 8010 bound_to 7997
  140.0810  143.4788  152.1925 H   0  0  0  0  0  0  0  0  0  0  0  0  # atno 10167 bound_to 10162
  156.1904  130.6792  151.0417 H   0  0  0  0  0  0  0  0  0  0  0  0  # atno 10718 bound_to 10713
  153.6048  135.3441  155.2958 H   0  0  0  0  0  0  0  0  0  0  0  0  # atno 10763 bound_to 10752
  154.8629  135.4236  154.2374 H   0  0  0  0  0  0  0  0  0  0  0  0  # atno 10764 bound_to 10752
  153.3211  135.7038  153.7102 H   0  0  0  0  0  0  0  0  0  0  0  0  # atno 10765 bound_to 10752
  140.4841  134.0905  155.7757 H   0  0  0  0  0  0  0  0  0  0  0  0  # atno 11005 bound_to 11000
  145.9528  139.2745  143.1202 LP  0  0  0  0  0  0  0  0  0  0  0  0  # atno 17320 bound_to 7965
  145.9305  140.9052  143.0359 LP  0  0  0  0  0  0  0  0  0  0  0  0  # atno 17321 bound_to 7965
  139.5779  144.7496  151.3715 LP  0  0  0  0  0  0  0  0  0  0  0  0  # atno 17342 bound_to 10162
  140.7077  143.7470  150.7512 LP  0  0  0  0  0  0  0  0  0  0  0  0  # atno 17343 bound_to 10162
  157.6926  131.0805  150.7064 LP  0  0  0  0  0  0  0  0  0  0  0  0  # atno 17370 bound_to 10713
  156.7121  130.4655  149.5544 LP  0  0  0  0  0  0  0  0  0  0  0  0  # atno 17371 bound_to 10713
  141.1516  133.8958  157.2082 LP  0  0  0  0  0  0  0  0  0  0  0  0  # atno 17394 bound_to 11000
  139.9808  135.0099  156.9745 LP  0  0  0  0  0  0  0  0  0  0  0  0  # atno 17395 bound_to 11000

$$$$
