AV-unprocessed.smi:1381|AV-procd|sdf|5612|dock4
  -GOLD-   22720 5223D 1   1.00000     0.00000
 Structure written by MMmdl.
 42 43  0  0  0  0  0  0  0  0  3 V2000
  150.6955  140.6693  155.7121 C   0  0  0  0  0  0  0  0  0  0  0  0
  151.3244  139.3368  155.9380 C   0  0  0  0  0  0  0  0  0  0  0  0
  150.8248  138.0655  155.9438 C   0  0  0  0  0  0  0  0  0  0  0  0
  151.9681  137.2681  156.2223 C   0  0  0  0  0  0  0  0  0  0  0  0
  151.9843  135.9317  156.3454 N   0  5  0  0  0  0  0  0  0  0  0  0
  150.8241  135.2422  156.4341 C   0  0  0  0  0  0  0  0  0  0  0  0
  150.2911  134.8328  157.4680 O   0  0  0  0  0  0  0  0  0  0  0  0
  150.2468  135.0073  155.2485 N   0  0  0  0  0  0  0  0  0  0  0  0
  149.0053  134.2723  155.0483 C   0  0  0  0  0  0  0  0  0  0  0  0
  147.8727  135.2384  154.6669 C   0  0  0  0  0  0  0  0  0  0  0  0
  147.2108  134.8687  153.3908 N   0  3  1  0  0  0  0  0  0  0  0  0
  147.0765  133.4007  153.2356 C   0  0  0  0  0  0  0  0  0  0  0  0
  146.4359  133.0524  151.8787 C   0  0  1  0  0  0  0  0  0  0  0  0
  146.2038  131.5456  151.7196 C   0  0  0  0  0  0  0  0  0  0  0  0
  145.1759  133.7062  151.7779 O   0  0  0  0  0  0  0  0  0  0  0  0
  145.2905  135.1238  151.8315 C   0  0  1  0  0  0  0  0  0  0  0  0
  143.8964  135.7246  151.6193 C   0  0  0  0  0  0  0  0  0  0  0  0
  145.8974  135.5295  153.1878 C   0  0  0  0  0  0  0  0  0  0  0  0
  153.0624  137.9926  156.3863 N   0  0  0  0  0  0  0  0  0  0  0  0
  152.6594  139.3204  156.1992 O   0  0  0  0  0  0  0  0  0  0  0  0
  149.9627  140.8853  156.4894 H   0  0  0  0  0  0  0  0  0  0  0  0
  150.1849  140.6957  154.7496 H   0  0  0  0  0  0  0  0  0  0  0  0
  151.4415  141.4642  155.7207 H   0  0  0  0  0  0  0  0  0  0  0  0
  149.8050  137.7546  155.7735 H   0  0  0  0  0  0  0  0  0  0  0  0
  150.7127  135.3627  154.4263 H   0  0  0  0  0  0  0  0  0  0  0  0
  149.1575  133.5277  154.2667 H   0  0  0  0  0  0  0  0  0  0  0  0
  148.7566  133.7362  155.9653 H   0  0  0  0  0  0  0  0  0  0  0  0
  147.1312  135.2249  155.4676 H   0  0  0  0  0  0  0  0  0  0  0  0
  148.2439  136.2628  154.6066 H   0  0  0  0  0  0  0  0  0  0  0  0
  148.0589  132.9318  153.3081 H   0  0  0  0  0  0  0  0  0  0  0  0
  146.4706  133.0039  154.0521 H   0  0  0  0  0  0  0  0  0  0  0  0
  147.0830  133.3917  151.0677 H   0  0  0  0  0  0  0  0  0  0  0  0
  147.1432  130.9949  151.7738 H   0  0  0  0  0  0  0  0  0  0  0  0
  145.7429  131.3216  150.7571 H   0  0  0  0  0  0  0  0  0  0  0  0
  145.5453  131.1628  152.5001 H   0  0  0  0  0  0  0  0  0  0  0  0
  145.9394  135.4627  151.0220 H   0  0  0  0  0  0  0  0  0  0  0  0
  143.9309  136.8142  151.6431 H   0  0  0  0  0  0  0  0  0  0  0  0
  143.2016  135.3947  152.3921 H   0  0  0  0  0  0  0  0  0  0  0  0
  143.4867  135.4267  150.6538 H   0  0  0  0  0  0  0  0  0  0  0  0
  145.2225  135.2547  154.0002 H   0  0  0  0  0  0  0  0  0  0  0  0
  146.0077  136.6127  153.2175 H   0  0  0  0  0  0  0  0  0  0  0  0
  147.8199  135.1801  152.6476 H   0  0  0  0  0  0  0  0  0  0  0  0
  1  2  1  0  0  0  0
  1 21  1  0  0  0  0
  1 22  1  0  0  0  0
  1 23  1  0  0  0  0
  2 20  1  0  0  0  0
  2  3  2  0  0  0  0
  3  4  1  0  0  0  0
  3 24  1  0  0  0  0
  4  5  1  0  0  0  0
  4 19  2  0  0  0  0
  5  6  1  0  0  0  0
  6  7  2  0  0  0  0
  6  8  1  0  0  0  0
  8  9  1  0  0  0  0
  8 25  1  0  0  0  0
  9 10  1  0  0  0  0
  9 26  1  0  0  0  0
  9 27  1  0  0  0  0
 10 11  1  0  0  0  0
 10 28  1  0  0  0  0
 10 29  1  0  0  0  0
 11 18  1  0  0  0  0
 11 12  1  0  0  0  0
 11 42  1  0  0  0  0
 12 13  1  0  0  0  0
 12 30  1  0  0  0  0
 12 31  1  0  0  0  0
 13 14  1  0  0  0  0
 13 15  1  0  0  0  0
 13 32  1  0  0  0  0
 14 33  1  0  0  0  0
 14 34  1  0  0  0  0
 14 35  1  0  0  0  0
 15 16  1  0  0  0  0
 16 17  1  0  0  0  0
 16 18  1  0  0  0  0
 16 36  1  0  0  0  0
 17 37  1  0  0  0  0
 17 38  1  0  0  0  0
 17 39  1  0  0  0  0
 18 40  1  0  0  0  0
 18 41  1  0  0  0  0
 19 20  1  0  0  0  0
M  CHG  1   5  -1
M  CHG  1  11   1
M  END
> <s_m_source_file>
AV-unprocessed.smi

> <i_m_source_file_index>
1381

> <i_lp_mmshare_version>
43012

> <i_f3d_flags>
0

> <s_epik_input>
W0NIM11jMVtjSF1jKG5vMSlbTkhdQyg9TylbTkhdW0NIMl1bQ0gyXU4yW0NIMl1bQ0BASF0oW0NIM10pT1tDQEBIXShbQ0gzXSlbQ0gyXTI=

> <s_epik_cmdline>
J2VwaWtfcHl0aG9uJywgJy1waCcsICc3LjAnLCAnLXRuJywgJzgnLCAnLW1hJywgJzIwMCcsICctbWV0YWxfYmluZGluZycsICctaW1hZScsICc8aW5maWxlLm1hZT4nLCAnLW9tYWUnLCAnPG91dGZpbGUubWFlPic=

> <r_epik_Ionization_Penalty>
6.73511

> <r_epik_Ionization_Penalty_Charging>
6.73502

> <r_epik_Ionization_Penalty_Neutral>
9.26583e-05

> <r_epik_State_Penalty>
6.93549

> <r_epik_Charging_Adjusted_Penalty>
13.6705

> <i_epik_Tot_Q>
0

> <i_epik_Tot_abs_Q>
2

> <r_epik_Metal_State_Penalty>
2.87211

> <b_epik_Metal_Only>
1

> <s_lp_Force_Field>
OPLS_2005

> <r_lp_Energy>
2.9367

> <b_lp_Chiralities_Consistent>
1

> <s_lp_Variant>
AV-unprocessed.smi:1381-11

> <Gold.Version>
5.8.1

> <Gold.Id.Protein>
6NUR|6NUR_protein|mol2

> <Gold.PLP.Fitness>
39.2450

> <Gold.PLP.PLP>
-25.0661

> <Gold.PLP.part.hbond>
-4.1604

> <Gold.PLP.part.metal>
0.0000

> <Gold.PLP.part.buried>
-2.8332

> <Gold.PLP.part.nonpolar>
-18.3184

> <Gold.PLP.part.repulsive>
0.1676

> <Gold.PLP.ligand.clash>
0.0000

> <Gold.PLP.ligand.torsion>
1.3865

> <Gold.PLP.Chemscore.Hbond>
5.6185

> <Gold.PLP.Chemscore.CHOScore>
0.0000

> <Gold.PLP.Chemscore.Metal>
0.0000

> <Gold.Chemscore.Hbonds>
donor molecule, donor type, donor heavy atom, donor atom, acceptor molecule, acceptor atom, score
      L1  H    11    42       P1  7948  2.00
      P1  H  6896  6908       L1     7  0.67
      P1  H  7997  8008       L1    20  0.90
      P1  H 10752 10764       L1     5  2.00

> <Gold.PLP.Chemscore.Internal.Correction>
0.0962

> <Gold.Rescore>
     Score         DG    S(hbond)    S(metal)    S(lipo)     H(rot)  DE(clash)    DE(int)     intcor
     15.14     -16.61       2.76        0.00      50.89       1.58       0.01       1.46       ----

> <Gold.Chemscore.Fitness>
15.1432

> <Gold.Chemscore.DG>
-16.6105

> <Gold.Chemscore.ZeroCoef>
-5.4800

> <Gold.Chemscore.Hbond>
2.7604

> <Gold.Chemscore.Metal>
0.0000

> <Gold.Chemscore.Lipo>
50.8851

> <Gold.Chemscore.Internal_Hbond>
0.0000

> <Gold.Chemscore.DEClash>
0.0121

> <Gold.Chemscore.DEInternal>
1.4552

> <Gold.Chemscore.Rot>
1.5792

> <Gold.Chemscore.Internal.Correction>
   9.000000E+99

> <Gold.Chemscore.Hbonds>
donor molecule, donor type, donor heavy atom, donor atom, acceptor molecule, acceptor atom, score
      L1  H    11    42       P1  7948  0.98
      P1  H  6896  6908       L1     7  0.61
      P1  H  7997  8008       L1    20  0.18
      P1  H 10752 10764       L1     5  0.39

> <Gold.Chemscore.Hbond.Weighted>
-9.2198

> <Gold.Chemscore.Metal.Weighted>
-0.0000

> <Gold.Chemscore.Lipo.Weighted>
-5.9536

> <Gold.Chemscore.Internal_Hbond.Weighted>
0.0000

> <Gold.Chemscore.DEClash.Weighted>
0.0121

> <Gold.Chemscore.DEInternal.Weighted>
1.4552

> <Gold.Chemscore.Rot.Weighted>
4.0428

> <Gold.Chemscore.Internal.Correction.Weighted>
   9.000000E+99

> <Gold.Protein.RotatedTorsions>
[ 6907 6896 6895 6894 ] final  143.60 input  -60.11 | X-H torsion
[ 7974 7965 7964 7962 ] final  104.45 input  175.53 | X-H torsion
[ 8008 7997 7996 7995 ] final  -41.69 input   59.86 | X-H torsion
[ 10167 10162 10161 10158 ] final  -47.80 input  -65.29 | X-H torsion
[ 10718 10713 10712 10709 ] final  -93.07 input   66.30 | X-H torsion
[ 10763 10752 10751 10750 ] final  -22.77 input  -60.55 | X-H torsion
[ 11005 11000 10999 10996 ] final  109.14 input  -57.11 | X-H torsion

> <Gold.Protein.ActiveResidues>
 VAL166  LYS551  ARG553  GLY616  TRP617  ASP618  TYR619  PRO620  LYS621  CYS622 
 ASP623  PHE694  ASN695  SER759  ASP760  ASP761  ALA762  ILE779  LEU786  VAL792 
 PHE793  MET794  SER795  GLU796  ALA797  LYS798  CYS799  TRP800  GLU811  SER814 

> <Gold.Protein.RotatedAtoms>
  152.2042  133.4863  159.5074 H   0  0  0  0  0  0  0  0  0  0  0  0  # atno 6907 bound_to 6896
  150.6976  134.1550  159.4164 H   0  0  0  0  0  0  0  0  0  0  0  0  # atno 6908 bound_to 6896
  151.9469  135.0187  160.0590 H   0  0  0  0  0  0  0  0  0  0  0  0  # atno 6909 bound_to 6896
  145.3327  139.2482  143.3652 H   0  0  0  0  0  0  0  0  0  0  0  0  # atno 7974 bound_to 7965
  154.4002  140.1493  156.3233 H   0  0  0  0  0  0  0  0  0  0  0  0  # atno 8008 bound_to 7997
  155.8510  140.3458  155.5672 H   0  0  0  0  0  0  0  0  0  0  0  0  # atno 8009 bound_to 7997
  155.7984  140.0866  157.1961 H   0  0  0  0  0  0  0  0  0  0  0  0  # atno 8010 bound_to 7997
  140.6759  143.2768  151.3980 H   0  0  0  0  0  0  0  0  0  0  0  0  # atno 10167 bound_to 10162
  156.0009  130.5012  150.5721 H   0  0  0  0  0  0  0  0  0  0  0  0  # atno 10718 bound_to 10713
  153.6572  135.6978  153.5189 H   0  0  0  0  0  0  0  0  0  0  0  0  # atno 10763 bound_to 10752
  153.2660  135.4229  155.0940 H   0  0  0  0  0  0  0  0  0  0  0  0  # atno 10764 bound_to 10752
  154.8461  135.3566  154.6116 H   0  0  0  0  0  0  0  0  0  0  0  0  # atno 10765 bound_to 10752
  139.8856  134.9450  156.6080 H   0  0  0  0  0  0  0  0  0  0  0  0  # atno 11005 bound_to 11000
  146.3039  140.3908  142.8694 LP  0  0  0  0  0  0  0  0  0  0  0  0  # atno 17320 bound_to 7965
  144.8852  140.7452  143.5961 LP  0  0  0  0  0  0  0  0  0  0  0  0  # atno 17321 bound_to 7965
  139.6051  144.1214  152.2240 LP  0  0  0  0  0  0  0  0  0  0  0  0  # atno 17342 bound_to 10162
  140.0610  144.5856  150.7263 LP  0  0  0  0  0  0  0  0  0  0  0  0  # atno 17343 bound_to 10162
  157.3614  131.0750  151.1633 LP  0  0  0  0  0  0  0  0  0  0  0  0  # atno 17370 bound_to 10713
  157.2417  130.6572  149.5892 LP  0  0  0  0  0  0  0  0  0  0  0  0  # atno 17371 bound_to 10713
  140.7833  133.8642  155.8585 LP  0  0  0  0  0  0  0  0  0  0  0  0  # atno 17394 bound_to 11000
  140.9741  134.1492  157.4551 LP  0  0  0  0  0  0  0  0  0  0  0  0  # atno 17395 bound_to 11000

$$$$
