AV-unprocessed.smi:2004|AV-procd|sdf|8124|dock1
  -GOLD-   2272010363D 1   1.00000     0.00000
 Structure written by MMmdl.
 40 42  0  0  0  0  0  0  0  0  2 V2000
  150.7159  139.0837  156.7506 O   0  0  0  0  0  0  0  0  0  0  0  0
  150.3375  139.1882  158.1093 C   0  0  1  0  0  0  0  0  0  0  0  0
  150.3809  137.7870  158.7372 C   0  0  0  0  0  0  0  0  0  0  0  0
  149.2726  137.6412  159.6098 O   0  0  0  0  0  0  0  0  0  0  0  0
  148.5120  136.4743  159.3425 C   0  0  0  0  0  0  0  0  0  0  0  0
  147.8462  135.9385  160.5950 C   0  0  0  0  0  0  0  0  0  0  0  0
  147.3456  134.6196  160.6208 C   0  0  0  0  0  0  0  0  0  0  0  0
  146.7125  134.1246  161.7778 C   0  0  0  0  0  0  0  0  0  0  0  0
  146.5734  134.9480  162.9118 C   0  0  0  0  0  0  0  0  0  0  0  0
  147.0656  136.2672  162.8877 C   0  0  0  0  0  0  0  0  0  0  0  0
  147.6982  136.7629  161.7308 C   0  0  0  0  0  0  0  0  0  0  0  0
  151.2945  140.1673  158.8177 C   0  0  0  0  0  0  0  0  0  0  0  0
  151.1213  141.5559  158.3717 N   0  0  0  0  0  0  0  0  0  0  0  0
  150.5859  142.0453  157.2207 C   0  0  0  0  0  0  0  0  0  0  0  0
  150.6459  143.4045  157.2849 N   0  3  0  0  0  0  0  0  0  0  0  0
  151.2281  143.7888  158.4950 C   0  0  0  0  0  0  0  0  0  0  0  0
  151.5009  145.0495  159.0173 C   0  0  0  0  0  0  0  0  0  0  0  0
  152.1041  145.0899  160.2918 C   0  0  0  0  0  0  0  0  0  0  0  0
  152.4134  143.9080  160.9965 C   0  0  0  0  0  0  0  0  0  0  0  0
  152.1331  142.6352  160.4573 C   0  0  0  0  0  0  0  0  0  0  0  0
  151.5366  142.6049  159.1976 C   0  0  0  0  0  0  0  0  0  0  0  0
  150.4818  138.2212  156.4426 H   0  0  0  0  0  0  0  0  0  0  0  0
  149.3205  139.5783  158.1622 H   0  0  0  0  0  0  0  0  0  0  0  0
  150.3923  137.0105  157.9703 H   0  0  0  0  0  0  0  0  0  0  0  0
  151.2940  137.6755  159.3241 H   0  0  0  0  0  0  0  0  0  0  0  0
  147.7538  136.6953  158.5894 H   0  0  0  0  0  0  0  0  0  0  0  0
  149.1567  135.6940  158.9357 H   0  0  0  0  0  0  0  0  0  0  0  0
  147.4459  133.9842  159.7531 H   0  0  0  0  0  0  0  0  0  0  0  0
  146.3325  133.1138  161.7948 H   0  0  0  0  0  0  0  0  0  0  0  0
  146.0874  134.5688  163.7987 H   0  0  0  0  0  0  0  0  0  0  0  0
  146.9570  136.8997  163.7562 H   0  0  0  0  0  0  0  0  0  0  0  0
  148.0698  137.7772  161.7205 H   0  0  0  0  0  0  0  0  0  0  0  0
  151.1596  140.1352  159.8997 H   0  0  0  0  0  0  0  0  0  0  0  0
  152.3320  139.8889  158.6264 H   0  0  0  0  0  0  0  0  0  0  0  0
  150.1815  141.4605  156.4071 H   0  0  0  0  0  0  0  0  0  0  0  0
  151.2646  145.9564  158.4802 H   0  0  0  0  0  0  0  0  0  0  0  0
  152.3343  146.0465  160.7383 H   0  0  0  0  0  0  0  0  0  0  0  0
  152.8747  143.9790  161.9708 H   0  0  0  0  0  0  0  0  0  0  0  0
  152.3713  141.7350  161.0044 H   0  0  0  0  0  0  0  0  0  0  0  0
  150.3105  144.0212  156.5560 H   0  0  0  0  0  0  0  0  0  0  0  0
  1  2  1  0  0  0  0
  1 22  1  0  0  0  0
  2  3  1  0  0  0  0
  2 12  1  0  0  0  0
  2 23  1  0  0  0  0
  3  4  1  0  0  0  0
  3 24  1  0  0  0  0
  3 25  1  0  0  0  0
  4  5  1  0  0  0  0
  5  6  1  0  0  0  0
  5 26  1  0  0  0  0
  5 27  1  0  0  0  0
  6 11  1  0  0  0  0
  6  7  2  0  0  0  0
  7  8  1  0  0  0  0
  7 28  1  0  0  0  0
  8  9  2  0  0  0  0
  8 29  1  0  0  0  0
  9 10  1  0  0  0  0
  9 30  1  0  0  0  0
 10 11  2  0  0  0  0
 10 31  1  0  0  0  0
 11 32  1  0  0  0  0
 12 13  1  0  0  0  0
 12 33  1  0  0  0  0
 12 34  1  0  0  0  0
 13 21  1  0  0  0  0
 13 14  1  0  0  0  0
 14 15  2  0  0  0  0
 14 35  1  0  0  0  0
 15 16  1  0  0  0  0
 15 40  1  0  0  0  0
 16 21  2  0  0  0  0
 16 17  1  0  0  0  0
 17 18  2  0  0  0  0
 17 36  1  0  0  0  0
 18 19  1  0  0  0  0
 18 37  1  0  0  0  0
 19 20  2  0  0  0  0
 19 38  1  0  0  0  0
 20 21  1  0  0  0  0
 20 39  1  0  0  0  0
M  CHG  1  15   1
M  END
> <s_m_source_file>
AV-unprocessed.smi

> <i_m_source_file_index>
2004

> <i_lp_mmshare_version>
43012

> <i_f3d_flags>
0

> <s_epik_input>
W2NIXTFbY0hdW2NIXVtjSF1jKGMxMiluKFtjSF1uMilbQ0gyXVtDQEhdKFtPSF0pW0NIMl1PW0NIMl1jM1tjSF1bY0hdW2NIXVtjSF1bY0hdMw==

> <s_epik_cmdline>
J2VwaWtfcHl0aG9uJywgJy1waCcsICc3LjAnLCAnLXRuJywgJzgnLCAnLW1hJywgJzIwMCcsICctbWV0YWxfYmluZGluZycsICctaW1hZScsICc8aW5maWxlLm1hZT4nLCAnLW9tYWUnLCAnPG91dGZpbGUubWFlPic=

> <r_epik_Ionization_Penalty>
1.28975

> <r_epik_Ionization_Penalty_Charging>
1.28975

> <r_epik_Ionization_Penalty_Neutral>
1.07667e-06

> <r_epik_State_Penalty>
1.36276

> <r_epik_Charging_Adjusted_Penalty>
2.65251

> <i_epik_Tot_Q>
1

> <i_epik_Tot_abs_Q>
1

> <r_epik_Metal_State_Penalty>
5.39298

> <b_epik_Metal_Only>
0

> <s_lp_Force_Field>
OPLS_2005

> <r_lp_Energy>
18.9764

> <b_lp_Chiralities_Consistent>
1

> <s_lp_Variant>
AV-unprocessed.smi:2004-4

> <Gold.Version>
5.8.1

> <Gold.Id.Protein>
6NUR|6NUR_protein|mol2

> <Gold.PLP.Fitness>
53.5007

> <Gold.PLP.PLP>
-50.7116

> <Gold.PLP.part.hbond>
-2.0000

> <Gold.PLP.part.metal>
0.0000

> <Gold.PLP.part.buried>
-5.6691

> <Gold.PLP.part.nonpolar>
-42.9411

> <Gold.PLP.part.repulsive>
0.0015

> <Gold.PLP.ligand.clash>
0.0000

> <Gold.PLP.ligand.torsion>
1.6864

> <Gold.PLP.Chemscore.Hbond>
2.0000

> <Gold.PLP.Chemscore.CHOScore>
0.0000

> <Gold.PLP.Chemscore.Metal>
0.0000

> <Gold.Chemscore.Hbonds>
donor molecule, donor type, donor heavy atom, donor atom, acceptor molecule, acceptor atom, score
      L1  H    15    40       P1  8028  1.95
      P1  H  6931  6943       L1     4  0.03

> <Gold.PLP.Chemscore.Internal.Correction>
0.1619

> <Gold.Rescore>
     Score         DG    S(hbond)    S(metal)    S(lipo)     H(rot)  DE(clash)    DE(int)     intcor
     15.42     -18.15       1.00        0.00     132.87       2.43       0.42       2.32       ----

> <Gold.Chemscore.Fitness>
15.4165

> <Gold.Chemscore.DG>
-18.1482

> <Gold.Chemscore.ZeroCoef>
-5.4800

> <Gold.Chemscore.Hbond>
0.9985

> <Gold.Chemscore.Metal>
0.0000

> <Gold.Chemscore.Lipo>
132.8716

> <Gold.Chemscore.Internal_Hbond>
0.0000

> <Gold.Chemscore.DEClash>
0.4159

> <Gold.Chemscore.DEInternal>
2.3157

> <Gold.Chemscore.Rot>
2.4269

> <Gold.Chemscore.Internal.Correction>
   9.000000E+99

> <Gold.Chemscore.Hbonds>
donor molecule, donor type, donor heavy atom, donor atom, acceptor molecule, acceptor atom, score
      L1  H    15    40       P1  8028  0.93
      P1  H  6931  6943       L1     4  0.03

> <Gold.Chemscore.Hbond.Weighted>
-3.3349

> <Gold.Chemscore.Metal.Weighted>
-0.0000

> <Gold.Chemscore.Lipo.Weighted>
-15.5460

> <Gold.Chemscore.Internal_Hbond.Weighted>
0.0000

> <Gold.Chemscore.DEClash.Weighted>
0.4159

> <Gold.Chemscore.DEInternal.Weighted>
2.3157

> <Gold.Chemscore.Rot.Weighted>
6.2127

> <Gold.Chemscore.Internal.Correction.Weighted>
   9.000000E+99

> <Gold.Protein.RotatedTorsions>
[ 6907 6896 6895 6894 ] final  -31.72 input  -60.11 | X-H torsion
[ 7974 7965 7964 7962 ] final -106.61 input  175.53 | X-H torsion
[ 8008 7997 7996 7995 ] final  -26.65 input   59.86 | X-H torsion
[ 10167 10162 10161 10158 ] final  150.29 input  -65.29 | X-H torsion
[ 10718 10713 10712 10709 ] final  -47.60 input   66.30 | X-H torsion
[ 10763 10752 10751 10750 ] final -171.60 input  -60.55 | X-H torsion
[ 11005 11000 10999 10996 ] final  -57.98 input  -57.11 | X-H torsion

> <Gold.Protein.ActiveResidues>
 VAL166  LYS551  ARG553  GLY616  TRP617  ASP618  TYR619  PRO620  LYS621  CYS622 
 ASP623  PHE694  ASN695  SER759  ASP760  ASP761  ALA762  ILE779  LEU786  VAL792 
 PHE793  MET794  SER795  GLU796  ALA797  LYS798  CYS799  TRP800  GLU811  SER814 

> <Gold.Protein.RotatedAtoms>
  151.0883  134.9900  159.8389 H   0  0  0  0  0  0  0  0  0  0  0  0  # atno 6907 bound_to 6896
  152.5426  134.2097  159.8755 H   0  0  0  0  0  0  0  0  0  0  0  0  # atno 6908 bound_to 6896
  151.2132  133.4500  159.2632 H   0  0  0  0  0  0  0  0  0  0  0  0  # atno 6909 bound_to 6896
  145.2156  140.9114  143.3289 H   0  0  0  0  0  0  0  0  0  0  0  0  # atno 7974 bound_to 7965
  154.4415  140.1894  156.0808 H   0  0  0  0  0  0  0  0  0  0  0  0  # atno 8008 bound_to 7997
  156.0440  140.3316  155.7249 H   0  0  0  0  0  0  0  0  0  0  0  0  # atno 8009 bound_to 7997
  155.5657  140.0608  157.2809 H   0  0  0  0  0  0  0  0  0  0  0  0  # atno 8010 bound_to 7997
  139.4852  144.5534  151.7361 H   0  0  0  0  0  0  0  0  0  0  0  0  # atno 10167 bound_to 10162
  156.2069  130.4159  149.9167 H   0  0  0  0  0  0  0  0  0  0  0  0  # atno 10718 bound_to 10713
  154.6287  135.2884  155.0241 H   0  0  0  0  0  0  0  0  0  0  0  0  # atno 10763 bound_to 10752
  154.1410  135.6518  153.4946 H   0  0  0  0  0  0  0  0  0  0  0  0  # atno 10764 bound_to 10752
  153.0269  135.5333  154.7106 H   0  0  0  0  0  0  0  0  0  0  0  0  # atno 10765 bound_to 10752
  141.1188  133.6611  156.4851 H   0  0  0  0  0  0  0  0  0  0  0  0  # atno 11005 bound_to 11000
  144.9814  139.3780  143.6260 LP  0  0  0  0  0  0  0  0  0  0  0  0  # atno 17320 bound_to 7965
  146.3388  139.8956  142.8802 LP  0  0  0  0  0  0  0  0  0  0  0  0  # atno 17321 bound_to 7965
  140.5091  144.1052  150.5990 LP  0  0  0  0  0  0  0  0  0  0  0  0  # atno 17342 bound_to 10162
  140.3971  143.2722  151.9991 LP  0  0  0  0  0  0  0  0  0  0  0  0  # atno 17343 bound_to 10162
  156.6858  130.8876  151.3582 LP  0  0  0  0  0  0  0  0  0  0  0  0  # atno 17370 bound_to 10713
  157.7017  130.9340  150.0805 LP  0  0  0  0  0  0  0  0  0  0  0  0  # atno 17371 bound_to 10713
  140.4569  134.6877  157.5067 LP  0  0  0  0  0  0  0  0  0  0  0  0  # atno 17394 bound_to 11000
  140.0129  134.6663  155.9353 LP  0  0  0  0  0  0  0  0  0  0  0  0  # atno 17395 bound_to 11000

$$$$
