AV-unprocessed.smi:907|AV-procd|sdf|4112|dock6
  -GOLD-   22720 2 13D 1   1.00000     0.00000
 Structure written by MMmdl.
 54 57  0  0  0  0  0  0  0  0  3 V2000
  148.4621  140.8756  155.6716 O   0  0  0  0  0  0  0  0  0  0  0  0
  149.4574  140.3451  155.1773 C   0  0  0  0  0  0  0  0  0  0  0  0
  150.6934  140.8349  155.3675 N   0  0  0  0  0  0  0  0  0  0  0  0
  150.9991  142.0157  156.1637 C   0  0  0  0  0  0  0  0  0  0  0  0
  150.5659  141.8147  157.6224 C   0  0  0  0  0  0  0  0  0  0  0  0
  150.9621  142.9836  158.5041 C   0  0  0  0  0  0  0  0  0  0  0  0
  151.8149  142.8286  159.6187 C   0  0  0  0  0  0  0  0  0  0  0  0
  152.1493  143.9595  160.3929 C   0  0  0  0  0  0  0  0  0  0  0  0
  151.6264  145.2199  160.0360 C   0  0  0  0  0  0  0  0  0  0  0  0
  150.7803  145.3175  158.9126 C   0  0  0  0  0  0  0  0  0  0  0  0
  150.4822  144.2107  158.1967 N   0  3  0  0  0  0  0  0  0  0  0  0
  149.3941  139.2604  154.3648 N   0  0  0  0  0  0  0  0  0  0  0  0
  150.5123  138.3888  153.9855 C   0  0  0  0  0  0  0  0  0  0  0  0
  150.3814  137.0593  154.7484 C   0  0  0  0  0  0  0  0  0  0  0  0
  149.0662  136.3939  154.5045 N   0  3  0  0  0  0  0  0  0  0  0  0
  148.9543  135.1056  155.2568 C   0  0  2  0  0  0  0  0  0  0  0  0
  150.2604  134.2717  155.1694 C   0  0  0  0  0  0  0  0  0  0  0  0
  149.7839  132.9007  154.6626 C   0  0  1  0  0  0  0  0  0  0  0  0
  148.9747  132.1978  155.7650 C   0  0  0  0  0  0  0  0  0  0  0  0
  147.6663  133.0067  155.7827 C   0  0  0  0  0  0  0  0  0  0  0  0
  147.9115  134.0883  154.7113 C   0  0  2  0  0  0  0  0  0  0  0  0
  148.7021  133.3046  153.6700 C   0  0  0  0  0  0  0  0  0  0  0  0
  147.9201  137.3291  154.7068 C   0  0  0  0  0  0  0  0  0  0  0  0
  148.1209  138.6623  153.9617 C   0  0  0  0  0  0  0  0  0  0  0  0
  151.4675  140.3682  154.9175 H   0  0  0  0  0  0  0  0  0  0  0  0
  152.0713  142.2117  156.1143 H   0  0  0  0  0  0  0  0  0  0  0  0
  150.4921  142.8837  155.7388 H   0  0  0  0  0  0  0  0  0  0  0  0
  149.4844  141.6814  157.6776 H   0  0  0  0  0  0  0  0  0  0  0  0
  151.0092  140.9009  158.0210 H   0  0  0  0  0  0  0  0  0  0  0  0
  152.2107  141.8573  159.8783 H   0  0  0  0  0  0  0  0  0  0  0  0
  152.8006  143.8617  161.2493 H   0  0  0  0  0  0  0  0  0  0  0  0
  151.8717  146.0985  160.6150 H   0  0  0  0  0  0  0  0  0  0  0  0
  150.3375  146.2403  158.5667 H   0  0  0  0  0  0  0  0  0  0  0  0
  150.4778  138.2072  152.9101 H   0  0  0  0  0  0  0  0  0  0  0  0
  151.4943  138.8225  154.1742 H   0  0  0  0  0  0  0  0  0  0  0  0
  151.2039  136.4073  154.4574 H   0  0  0  0  0  0  0  0  0  0  0  0
  150.4964  137.2441  155.8179 H   0  0  0  0  0  0  0  0  0  0  0  0
  148.7184  135.3443  156.2955 H   0  0  0  0  0  0  0  0  0  0  0  0
  150.9626  134.6883  154.4461 H   0  0  0  0  0  0  0  0  0  0  0  0
  150.7753  134.2048  156.1286 H   0  0  0  0  0  0  0  0  0  0  0  0
  150.5840  132.2863  154.2480 H   0  0  0  0  0  0  0  0  0  0  0  0
  148.7799  131.1570  155.5033 H   0  0  0  0  0  0  0  0  0  0  0  0
  149.4878  132.2121  156.7275 H   0  0  0  0  0  0  0  0  0  0  0  0
  146.8243  132.3714  155.5043 H   0  0  0  0  0  0  0  0  0  0  0  0
  147.4500  133.4304  156.7643 H   0  0  0  0  0  0  0  0  0  0  0  0
  146.9705  134.5026  154.3568 H   0  0  0  0  0  0  0  0  0  0  0  0
  149.0715  133.9234  152.8504 H   0  0  0  0  0  0  0  0  0  0  0  0
  148.1539  132.4547  153.2586 H   0  0  0  0  0  0  0  0  0  0  0  0
  146.9960  136.8924  154.3342 H   0  0  0  0  0  0  0  0  0  0  0  0
  147.7862  137.5141  155.7737 H   0  0  0  0  0  0  0  0  0  0  0  0
  147.2703  139.3213  154.1420 H   0  0  0  0  0  0  0  0  0  0  0  0
  148.1321  138.4893  152.8844 H   0  0  0  0  0  0  0  0  0  0  0  0
  149.0484  136.1519  153.5239 H   0  0  0  0  0  0  0  0  0  0  0  0
  149.8694  144.3063  157.3866 H   0  0  0  0  0  0  0  0  0  0  0  0
  1  2  2  0  0  0  0
  2  3  1  0  0  0  0
  2 12  1  0  0  0  0
  3  4  1  0  0  0  0
  3 25  1  0  0  0  0
  4  5  1  0  0  0  0
  4 26  1  0  0  0  0
  4 27  1  0  0  0  0
  5  6  1  0  0  0  0
  5 28  1  0  0  0  0
  5 29  1  0  0  0  0
  6 11  1  0  0  0  0
  6  7  2  0  0  0  0
  7  8  1  0  0  0  0
  7 30  1  0  0  0  0
  8  9  2  0  0  0  0
  8 31  1  0  0  0  0
  9 10  1  0  0  0  0
  9 32  1  0  0  0  0
 10 11  2  0  0  0  0
 10 33  1  0  0  0  0
 11 54  1  0  0  0  0
 12 24  1  0  0  0  0
 12 13  1  0  0  0  0
 13 14  1  0  0  0  0
 13 34  1  0  0  0  0
 13 35  1  0  0  0  0
 14 15  1  0  0  0  0
 14 36  1  0  0  0  0
 14 37  1  0  0  0  0
 15 16  1  0  0  0  0
 15 23  1  0  0  0  0
 15 53  1  0  0  0  0
 16 21  1  0  0  0  0
 16 17  1  0  0  0  0
 16 38  1  0  0  0  0
 17 18  1  0  0  0  0
 17 39  1  0  0  0  0
 17 40  1  0  0  0  0
 18 22  1  0  0  0  0
 18 19  1  0  0  0  0
 18 41  1  0  0  0  0
 19 20  1  0  0  0  0
 19 42  1  0  0  0  0
 19 43  1  0  0  0  0
 20 21  1  0  0  0  0
 20 44  1  0  0  0  0
 20 45  1  0  0  0  0
 21 22  1  0  0  0  0
 21 46  1  0  0  0  0
 22 47  1  0  0  0  0
 22 48  1  0  0  0  0
 23 24  1  0  0  0  0
 23 49  1  0  0  0  0
 23 50  1  0  0  0  0
 24 51  1  0  0  0  0
 24 52  1  0  0  0  0
M  CHG  1  11   1
M  CHG  1  15   1
M  END
> <s_m_source_file>
AV-unprocessed.smi

> <i_m_source_file_index>
907

> <i_lp_mmshare_version>
43012

> <i_f3d_flags>
0

> <s_epik_input>
W0NIMl0xW0NIMl1bQ0BASF0oW0NIMl0yKVtDQEBIXShbQ0gyXVtDQEhdMTIpTihbQ0gyXVtDSDJdMylbQ0gyXVtDSDJdTjNDKD1PKVtOSF1bQ0gyXVtDSDJdYzRbY0hdW2NIXVtjSF1bY0hdbjQ=

> <s_epik_cmdline>
J2VwaWtfcHl0aG9uJywgJy1waCcsICc3LjAnLCAnLXRuJywgJzgnLCAnLW1hJywgJzIwMCcsICctbWV0YWxfYmluZGluZycsICctaW1hZScsICc8aW5maWxlLm1hZT4nLCAnLW9tYWUnLCAnPG91dGZpbGUubWFlPic=

> <r_epik_Ionization_Penalty>
1.63018

> <r_epik_Ionization_Penalty_Charging>
1.63015

> <r_epik_Ionization_Penalty_Neutral>
2.64641e-05

> <r_epik_State_Penalty>
1.72761

> <r_epik_Charging_Adjusted_Penalty>
3.35777

> <i_epik_Tot_Q>
2

> <i_epik_Tot_abs_Q>
2

> <r_epik_Metal_State_Penalty>
1.76501

> <b_epik_Metal_Only>
0

> <s_lp_Force_Field>
OPLS_2005

> <r_lp_Energy>
104.955

> <b_lp_Chiralities_Consistent>
1

> <s_lp_Variant>
AV-unprocessed.smi:907-7

> <Gold.Version>
5.8.1

> <Gold.Id.Protein>
6NUR|6NUR_protein|mol2

> <Gold.PLP.Fitness>
53.5825

> <Gold.PLP.PLP>
-42.1403

> <Gold.PLP.part.hbond>
-2.1838

> <Gold.PLP.part.metal>
0.0000

> <Gold.PLP.part.buried>
-5.9259

> <Gold.PLP.part.nonpolar>
-35.5319

> <Gold.PLP.part.repulsive>
1.5472

> <Gold.PLP.ligand.clash>
0.0000

> <Gold.PLP.ligand.torsion>
0.3007

> <Gold.PLP.Chemscore.Hbond>
3.9825

> <Gold.PLP.Chemscore.CHOScore>
0.0000

> <Gold.PLP.Chemscore.Metal>
0.0000

> <Gold.Chemscore.Hbonds>
donor molecule, donor type, donor heavy atom, donor atom, acceptor molecule, acceptor atom, score
      L1  H    11    54       P1  8028  2.00
      L1  H    15    53       P1  7948  2.00

> <Gold.PLP.Chemscore.Internal.Correction>
0.0962

> <Gold.Rescore>
     Score         DG    S(hbond)    S(metal)    S(lipo)     H(rot)  DE(clash)    DE(int)     intcor
     19.26     -20.25       1.26        0.00     122.11       1.46       0.68       0.31       ----

> <Gold.Chemscore.Fitness>
19.2584

> <Gold.Chemscore.DG>
-20.2500

> <Gold.Chemscore.ZeroCoef>
-5.4800

> <Gold.Chemscore.Hbond>
1.2614

> <Gold.Chemscore.Metal>
0.0000

> <Gold.Chemscore.Lipo>
122.1139

> <Gold.Chemscore.Internal_Hbond>
0.0000

> <Gold.Chemscore.DEClash>
0.6815

> <Gold.Chemscore.DEInternal>
0.3101

> <Gold.Chemscore.Rot>
1.4572

> <Gold.Chemscore.Internal.Correction>
   9.000000E+99

> <Gold.Chemscore.Hbonds>
donor molecule, donor type, donor heavy atom, donor atom, acceptor molecule, acceptor atom, score
      L1  H    11    54       P1  8028  0.33
      L1  H    15    53       P1  7948  0.96

> <Gold.Chemscore.Hbond.Weighted>
-4.2132

> <Gold.Chemscore.Metal.Weighted>
-0.0000

> <Gold.Chemscore.Lipo.Weighted>
-14.2873

> <Gold.Chemscore.Internal_Hbond.Weighted>
0.0000

> <Gold.Chemscore.DEClash.Weighted>
0.6815

> <Gold.Chemscore.DEInternal.Weighted>
0.3101

> <Gold.Chemscore.Rot.Weighted>
3.7305

> <Gold.Chemscore.Internal.Correction.Weighted>
   9.000000E+99

> <Gold.Protein.RotatedTorsions>
[ 6907 6896 6895 6894 ] final   -4.24 input  -60.11 | X-H torsion
[ 7974 7965 7964 7962 ] final  136.68 input  175.53 | X-H torsion
[ 8008 7997 7996 7995 ] final -102.98 input   59.86 | X-H torsion
[ 10167 10162 10161 10158 ] final  -27.62 input  -65.29 | X-H torsion
[ 10718 10713 10712 10709 ] final   43.46 input   66.30 | X-H torsion
[ 10763 10752 10751 10750 ] final  -20.61 input  -60.55 | X-H torsion
[ 11005 11000 10999 10996 ] final  134.96 input  -57.11 | X-H torsion

> <Gold.Protein.ActiveResidues>
 VAL166  LYS551  ARG553  GLY616  TRP617  ASP618  TYR619  PRO620  LYS621  CYS622 
 ASP623  PHE694  ASN695  SER759  ASP760  ASP761  ALA762  ILE779  LEU786  VAL792 
 PHE793  MET794  SER795  GLU796  ALA797  LYS798  CYS799  TRP800  GLU811  SER814 

> <Gold.Protein.RotatedAtoms>
  151.5008  135.1061  159.9828 H   0  0  0  0  0  0  0  0  0  0  0  0  # atno 6907 bound_to 6896
  152.4702  133.8009  159.6963 H   0  0  0  0  0  0  0  0  0  0  0  0  # atno 6908 bound_to 6896
  150.8707  133.7446  159.2988 H   0  0  0  0  0  0  0  0  0  0  0  0  # atno 6909 bound_to 6896
  144.9541  139.4784  143.5511 H   0  0  0  0  0  0  0  0  0  0  0  0  # atno 7974 bound_to 7965
  154.8644  140.0425  157.1685 H   0  0  0  0  0  0  0  0  0  0  0  0  # atno 8008 bound_to 7997
  154.8806  140.2972  155.5407 H   0  0  0  0  0  0  0  0  0  0  0  0  # atno 8009 bound_to 7997
  156.2999  140.2412  156.3808 H   0  0  0  0  0  0  0  0  0  0  0  0  # atno 8010 bound_to 7997
  140.7276  143.4078  151.1156 H   0  0  0  0  0  0  0  0  0  0  0  0  # atno 10167 bound_to 10162
  157.4161  130.7942  149.7473 H   0  0  0  0  0  0  0  0  0  0  0  0  # atno 10718 bound_to 10713
  153.6232  135.6992  153.5303 H   0  0  0  0  0  0  0  0  0  0  0  0  # atno 10763 bound_to 10752
  153.2920  135.4154  155.1175 H   0  0  0  0  0  0  0  0  0  0  0  0  # atno 10764 bound_to 10752
  154.8538  135.3628  154.5773 H   0  0  0  0  0  0  0  0  0  0  0  0  # atno 10765 bound_to 10752
  139.9949  134.9501  156.9940 H   0  0  0  0  0  0  0  0  0  0  0  0  # atno 11005 bound_to 11000
  146.3331  139.8647  142.8850 LP  0  0  0  0  0  0  0  0  0  0  0  0  # atno 17320 bound_to 7965
  145.2798  141.0135  143.3724 LP  0  0  0  0  0  0  0  0  0  0  0  0  # atno 17321 bound_to 7965
  139.7707  143.8498  152.3120 LP  0  0  0  0  0  0  0  0  0  0  0  0  # atno 17342 bound_to 10162
  139.8416  144.7207  150.9324 LP  0  0  0  0  0  0  0  0  0  0  0  0  # atno 17343 bound_to 10162
  155.9865  130.3974  150.3207 LP  0  0  0  0  0  0  0  0  0  0  0  0  # atno 17370 bound_to 10713
  157.1350  131.0282  151.2953 LP  0  0  0  0  0  0  0  0  0  0  0  0  # atno 17371 bound_to 10713
  140.4838  134.1262  155.7221 LP  0  0  0  0  0  0  0  0  0  0  0  0  # atno 17394 bound_to 11000
  141.1596  133.8818  157.1885 LP  0  0  0  0  0  0  0  0  0  0  0  0  # atno 17395 bound_to 11000

$$$$
