AV-unprocessed.smi:282|AV-procd|sdf|2124|dock5
  -GOLD-   2262021423D 1   1.00000     0.00000
 Structure written by MMmdl.
 65 69  0  0  0  0  0  0  0  0  2 V2000
  147.9721  141.4559  154.3081 C   0  0  0  0  0  0  0  0  0  0  0  0
  149.2259  142.0566  154.9581 C   0  0  0  0  0  0  0  0  0  0  0  0
  149.8876  141.1158  155.9876 C   0  0  1  0  0  0  0  0  0  0  0  0
  151.1677  141.7368  156.5894 C   0  0  0  0  0  0  0  0  0  0  0  0
  150.8607  142.8236  157.5555 N   0  3  2  0  0  0  0  0  0  0  0  0
  152.0960  143.4412  158.1022 C   0  0  0  0  0  0  0  0  0  0  0  0
  151.7690  144.6431  159.0016 C   0  0  0  0  0  0  0  0  0  0  0  0
  150.8223  144.2315  160.1351 C   0  0  0  0  0  0  0  0  0  0  0  0
  149.5625  143.5797  159.5517 C   0  0  0  0  0  0  0  0  0  0  0  0
  149.9142  142.3963  158.6278 C   0  0  1  0  0  0  0  0  0  0  0  0
  148.6354  141.7845  158.0211 C   0  0  0  0  0  0  0  0  0  0  0  0
  148.9591  140.7355  157.0577 N   0  0  0  0  0  0  0  0  0  0  0  0
  148.9971  139.4714  157.5545 C   0  0  0  0  0  0  0  0  0  0  0  0
  150.1792  138.9351  157.9590 N   0  0  0  0  0  0  0  0  0  0  0  0
  150.2241  137.6965  158.4575 C   0  0  0  0  0  0  0  0  0  0  0  0
  149.2233  136.8326  158.6345 N   0  0  0  0  0  0  0  0  0  0  0  0
  148.0350  137.3590  158.2219 C   0  0  0  0  0  0  0  0  0  0  0  0
  147.8343  138.6597  157.6793 C   0  0  0  0  0  0  0  0  0  0  0  0
  146.4910  138.8423  157.3743 N   0  0  0  0  0  0  0  0  0  0  0  0
  145.9284  137.7190  157.7273 C   0  0  0  0  0  0  0  0  0  0  0  0
  146.7844  136.7646  158.2298 N   0  0  0  0  0  0  0  0  0  0  0  0
  146.4281  135.4312  158.6939 C   0  0  0  0  0  0  0  0  0  0  0  0
  146.1733  135.3161  160.2265 C   0  0  0  0  0  0  0  0  0  0  0  0
  145.8954  133.8404  160.6347 C   0  0  0  0  0  0  0  0  0  0  0  0
  144.7595  133.3092  159.9819 O   0  0  0  0  0  0  0  0  0  0  0  0
  147.4050  135.8441  161.0043 C   0  0  0  0  0  0  0  0  0  0  0  0
  147.1227  136.0689  162.5012 C   0  0  0  0  0  0  0  0  0  0  0  0
  146.0182  136.9490  162.6637 O   0  0  0  0  0  0  0  0  0  0  0  0
  144.8152  136.4326  162.1092 C   0  0  0  0  0  0  0  0  0  0  0  0
  144.9805  136.2350  160.5917 C   0  0  0  0  0  0  0  0  0  0  0  0
  147.5611  142.1349  153.5607 H   0  0  0  0  0  0  0  0  0  0  0  0
  147.1914  141.2669  155.0453 H   0  0  0  0  0  0  0  0  0  0  0  0
  148.1993  140.5125  153.8108 H   0  0  0  0  0  0  0  0  0  0  0  0
  149.9441  142.2791  154.1681 H   0  0  0  0  0  0  0  0  0  0  0  0
  148.9774  143.0161  155.4116 H   0  0  0  0  0  0  0  0  0  0  0  0
  150.1813  140.2229  155.4336 H   0  0  0  0  0  0  0  0  0  0  0  0
  151.7443  140.9670  157.1041 H   0  0  0  0  0  0  0  0  0  0  0  0
  151.8084  142.1178  155.7932 H   0  0  0  0  0  0  0  0  0  0  0  0
  152.6587  142.6943  158.6649 H   0  0  0  0  0  0  0  0  0  0  0  0
  152.7352  143.7672  157.2809 H   0  0  0  0  0  0  0  0  0  0  0  0
  152.6873  145.0603  159.4158 H   0  0  0  0  0  0  0  0  0  0  0  0
  151.3098  145.4335  158.4066 H   0  0  0  0  0  0  0  0  0  0  0  0
  151.3258  143.5317  160.8033 H   0  0  0  0  0  0  0  0  0  0  0  0
  150.5535  145.1005  160.7365 H   0  0  0  0  0  0  0  0  0  0  0  0
  148.9159  143.2418  160.3624 H   0  0  0  0  0  0  0  0  0  0  0  0
  148.9937  144.3261  158.9953 H   0  0  0  0  0  0  0  0  0  0  0  0
  150.4127  141.6282  159.2226 H   0  0  0  0  0  0  0  0  0  0  0  0
  148.0006  141.4097  158.8235 H   0  0  0  0  0  0  0  0  0  0  0  0
  148.0521  142.5539  157.5150 H   0  0  0  0  0  0  0  0  0  0  0  0
  151.2014  137.3471  158.7565 H   0  0  0  0  0  0  0  0  0  0  0  0
  144.8665  137.5510  157.6218 H   0  0  0  0  0  0  0  0  0  0  0  0
  145.5428  135.1131  158.1416 H   0  0  0  0  0  0  0  0  0  0  0  0
  147.2213  134.7474  158.3890 H   0  0  0  0  0  0  0  0  0  0  0  0
  146.7523  133.2059  160.4085 H   0  0  0  0  0  0  0  0  0  0  0  0
  145.7315  133.7429  161.7064 H   0  0  0  0  0  0  0  0  0  0  0  0
  144.3933  133.9781  159.4236 H   0  0  0  0  0  0  0  0  0  0  0  0
  148.2511  135.1653  160.8932 H   0  0  0  0  0  0  0  0  0  0  0  0
  147.7216  136.7961  160.5765 H   0  0  0  0  0  0  0  0  0  0  0  0
  146.9357  135.1293  163.0217 H   0  0  0  0  0  0  0  0  0  0  0  0
  147.9948  136.5174  162.9773 H   0  0  0  0  0  0  0  0  0  0  0  0
  144.5344  135.5050  162.6085 H   0  0  0  0  0  0  0  0  0  0  0  0
  144.0118  137.1436  162.3023 H   0  0  0  0  0  0  0  0  0  0  0  0
  145.1309  137.2175  160.1419 H   0  0  0  0  0  0  0  0  0  0  0  0
  144.0528  135.8536  160.1644 H   0  0  0  0  0  0  0  0  0  0  0  0
  150.3863  143.5439  157.0298 H   0  0  0  0  0  0  0  0  0  0  0  0
  1  2  1  0  0  0  0
  1 31  1  0  0  0  0
  1 32  1  0  0  0  0
  1 33  1  0  0  0  0
  2  3  1  0  0  0  0
  2 34  1  0  0  0  0
  2 35  1  0  0  0  0
  3 12  1  0  0  0  0
  3  4  1  0  0  0  0
  3 36  1  0  0  0  0
  4  5  1  0  0  0  0
  4 37  1  0  0  0  0
  4 38  1  0  0  0  0
  5 10  1  0  0  0  0
  5  6  1  0  0  0  0
  5 65  1  0  0  0  0
  6  7  1  0  0  0  0
  6 39  1  0  0  0  0
  6 40  1  0  0  0  0
  7  8  1  0  0  0  0
  7 41  1  0  0  0  0
  7 42  1  0  0  0  0
  8  9  1  0  0  0  0
  8 43  1  0  0  0  0
  8 44  1  0  0  0  0
  9 10  1  0  0  0  0
  9 45  1  0  0  0  0
  9 46  1  0  0  0  0
 10 11  1  0  0  0  0
 10 47  1  0  0  0  0
 11 12  1  0  0  0  0
 11 48  1  0  0  0  0
 11 49  1  0  0  0  0
 12 13  1  0  0  0  0
 13 18  1  0  0  0  0
 13 14  2  0  0  0  0
 14 15  1  0  0  0  0
 15 16  2  0  0  0  0
 15 50  1  0  0  0  0
 16 17  1  0  0  0  0
 17 21  1  0  0  0  0
 17 18  2  0  0  0  0
 18 19  1  0  0  0  0
 19 20  2  0  0  0  0
 20 21  1  0  0  0  0
 20 51  1  0  0  0  0
 21 22  1  0  0  0  0
 22 23  1  0  0  0  0
 22 52  1  0  0  0  0
 22 53  1  0  0  0  0
 23 30  1  0  0  0  0
 23 24  1  0  0  0  0
 23 26  1  0  0  0  0
 24 25  1  0  0  0  0
 24 54  1  0  0  0  0
 24 55  1  0  0  0  0
 25 56  1  0  0  0  0
 26 27  1  0  0  0  0
 26 57  1  0  0  0  0
 26 58  1  0  0  0  0
 27 28  1  0  0  0  0
 27 59  1  0  0  0  0
 27 60  1  0  0  0  0
 28 29  1  0  0  0  0
 29 30  1  0  0  0  0
 29 61  1  0  0  0  0
 29 62  1  0  0  0  0
 30 63  1  0  0  0  0
 30 64  1  0  0  0  0
M  CHG  1   5   1
M  END
> <s_m_source_file>
AV-unprocessed.smi

> <i_m_source_file_index>
282

> <i_lp_mmshare_version>
43012

> <i_f3d_flags>
0

> <s_epik_input>
W0NIMl0xW0NIMl1bQ0gyXVtDSDJdW0NAQEhdKE4xMilbQ0gyXU4oW0NAQEhdKFtDSDJdMilbQ0gyXVtDSDNdKWMobltjSF1uMyljKGMzNCluW2NIXW40W0NIMl1DNShbQ0gyXVtPSF0pW0NIMl1bQ0gyXU9bQ0gyXVtDSDJdNQ==

> <s_epik_cmdline>
J2VwaWtfcHl0aG9uJywgJy1waCcsICc3LjAnLCAnLXRuJywgJzgnLCAnLW1hJywgJzIwMCcsICctbWV0YWxfYmluZGluZycsICctaW1hZScsICc8aW5maWxlLm1hZT4nLCAnLW9tYWUnLCAnPG91dGZpbGUubWFlPic=

> <r_lp_tautomer_probability>
1

> <r_epik_Ionization_Penalty>
0.00308583

> <r_epik_Ionization_Penalty_Charging>
0.00300384

> <r_epik_Ionization_Penalty_Neutral>
8.19894e-05

> <r_epik_State_Penalty>
-0

> <r_epik_Charging_Adjusted_Penalty>
0.00300384

> <i_epik_Tot_Q>
1

> <i_epik_Tot_abs_Q>
1

> <r_epik_Metal_State_Penalty>
-0

> <b_epik_Metal_Only>
0

> <s_lp_Force_Field>
OPLS_2005

> <r_lp_Energy>
57.1852

> <b_lp_Chiralities_Consistent>
1

> <s_lp_Variant>
AV-unprocessed.smi:282-8

> <Gold.Version>
5.8.1

> <Gold.Id.Protein>
6NUR|6NUR_protein|mol2

> <Gold.PLP.Fitness>
45.1882

> <Gold.PLP.PLP>
-42.0080

> <Gold.PLP.part.hbond>
-1.0000

> <Gold.PLP.part.metal>
0.0000

> <Gold.PLP.part.buried>
-3.8805

> <Gold.PLP.part.nonpolar>
-35.5282

> <Gold.PLP.part.repulsive>
0.0025

> <Gold.PLP.ligand.clash>
0.0000

> <Gold.PLP.ligand.torsion>
1.5566

> <Gold.PLP.Chemscore.Hbond>
2.0000

> <Gold.PLP.Chemscore.CHOScore>
0.0000

> <Gold.PLP.Chemscore.Metal>
0.0000

> <Gold.Chemscore.Hbonds>
donor molecule, donor type, donor heavy atom, donor atom, acceptor molecule, acceptor atom, score
      L1  H     5    65       P1  8028  0.49

> <Gold.PLP.Chemscore.Internal.Correction>
0.2933

> <Gold.Rescore>
     Score         DG    S(hbond)    S(metal)    S(lipo)     H(rot)  DE(clash)    DE(int)     intcor
     14.97     -17.19       1.00        0.00     119.77       2.20       0.56       1.66       ----

> <Gold.Chemscore.Fitness>
14.9671

> <Gold.Chemscore.DG>
-17.1886

> <Gold.Chemscore.ZeroCoef>
-5.4800

> <Gold.Chemscore.Hbond>
0.9995

> <Gold.Chemscore.Metal>
0.0000

> <Gold.Chemscore.Lipo>
119.7699

> <Gold.Chemscore.Internal_Hbond>
0.0000

> <Gold.Chemscore.DEClash>
0.5570

> <Gold.Chemscore.DEInternal>
1.6645

> <Gold.Chemscore.Rot>
2.2042

> <Gold.Chemscore.Internal.Correction>
   9.000000E+99

> <Gold.Chemscore.Hbonds>
donor molecule, donor type, donor heavy atom, donor atom, acceptor molecule, acceptor atom, score
      L1  H     5    65       P1  8028  0.25

> <Gold.Chemscore.Hbond.Weighted>
-3.3384

> <Gold.Chemscore.Metal.Weighted>
-0.0000

> <Gold.Chemscore.Lipo.Weighted>
-14.0131

> <Gold.Chemscore.Internal_Hbond.Weighted>
0.0000

> <Gold.Chemscore.DEClash.Weighted>
0.5570

> <Gold.Chemscore.DEInternal.Weighted>
1.6645

> <Gold.Chemscore.Rot.Weighted>
5.6429

> <Gold.Chemscore.Internal.Correction.Weighted>
   9.000000E+99

> <Gold.Protein.RotatedTorsions>
[ 6907 6896 6895 6894 ] final  -75.23 input  -60.11 | X-H torsion
[ 7974 7965 7964 7962 ] final   35.81 input  175.53 | X-H torsion
[ 8008 7997 7996 7995 ] final   43.59 input   59.86 | X-H torsion
[ 10167 10162 10161 10158 ] final   46.20 input  -65.29 | X-H torsion
[ 10718 10713 10712 10709 ] final   41.16 input   66.30 | X-H torsion
[ 10763 10752 10751 10750 ] final -143.64 input  -60.55 | X-H torsion
[ 11005 11000 10999 10996 ] final -118.49 input  -57.11 | X-H torsion

> <Gold.Protein.ActiveResidues>
 VAL166  LYS551  ARG553  GLY616  TRP617  ASP618  TYR619  PRO620  LYS621  CYS622 
 ASP623  PHE694  ASN695  SER759  ASP760  ASP761  ALA762  ILE779  LEU786  VAL792 
 PHE793  MET794  SER795  GLU796  ALA797  LYS798  CYS799  TRP800  GLU811  SER814 

> <Gold.Protein.RotatedAtoms>
  150.7066  134.4752  159.5444 H   0  0  0  0  0  0  0  0  0  0  0  0  # atno 6907 bound_to 6896
  152.2400  134.8235  160.0470 H   0  0  0  0  0  0  0  0  0  0  0  0  # atno 6908 bound_to 6896
  151.9019  133.3505  159.3870 H   0  0  0  0  0  0  0  0  0  0  0  0  # atno 6909 bound_to 6896
  146.1256  139.6095  142.9261 H   0  0  0  0  0  0  0  0  0  0  0  0  # atno 7974 bound_to 7965
  155.3053  140.3387  155.4246 H   0  0  0  0  0  0  0  0  0  0  0  0  # atno 8008 bound_to 7997
  156.1982  140.1723  156.7993 H   0  0  0  0  0  0  0  0  0  0  0  0  # atno 8009 bound_to 7997
  154.5525  140.0703  156.8675 H   0  0  0  0  0  0  0  0  0  0  0  0  # atno 8010 bound_to 7997
  140.3164  144.2759  150.6190 H   0  0  0  0  0  0  0  0  0  0  0  0  # atno 10167 bound_to 10162
  157.3904  130.7803  149.7264 H   0  0  0  0  0  0  0  0  0  0  0  0  # atno 10718 bound_to 10713
  154.8461  135.3462  154.6220 H   0  0  0  0  0  0  0  0  0  0  0  0  # atno 10763 bound_to 10752
  153.6829  135.6979  153.5117 H   0  0  0  0  0  0  0  0  0  0  0  0  # atno 10764 bound_to 10752
  153.2654  135.4309  155.0892 H   0  0  0  0  0  0  0  0  0  0  0  0  # atno 10765 bound_to 10752
  141.0282  134.0021  157.3183 H   0  0  0  0  0  0  0  0  0  0  0  0  # atno 11005 bound_to 11000
  145.5372  141.0423  143.2350 LP  0  0  0  0  0  0  0  0  0  0  0  0  # atno 17320 bound_to 7965
  144.7639  139.6891  143.7223 LP  0  0  0  0  0  0  0  0  0  0  0  0  # atno 17321 bound_to 7965
  140.5523  143.2204  151.7906 LP  0  0  0  0  0  0  0  0  0  0  0  0  # atno 17342 bound_to 10162
  139.4883  144.4460  151.9709 LP  0  0  0  0  0  0  0  0  0  0  0  0  # atno 17343 bound_to 10162
  155.9797  130.4037  150.3573 LP  0  0  0  0  0  0  0  0  0  0  0  0  # atno 17370 bound_to 10713
  157.1688  131.0363  151.2805 LP  0  0  0  0  0  0  0  0  0  0  0  0  # atno 17371 bound_to 10713
  139.9190  135.0199  156.7992 LP  0  0  0  0  0  0  0  0  0  0  0  0  # atno 17394 bound_to 11000
  140.6454  133.9780  155.7728 LP  0  0  0  0  0  0  0  0  0  0  0  0  # atno 17395 bound_to 11000

$$$$
