AV-unprocessed.smi:954|AV-procd|sdf|4258|dock2
  -GOLD-   22720 2163D 1   1.00000     0.00000
 Structure written by MMmdl.
 24 24  0  0  0  0  0  0  0  0  1 V2000
  151.8396  145.1620  159.2100 C   0  0  0  0  0  0  0  0  0  0  0  0
  152.2640  144.2970  158.0159 C   0  0  0  0  0  0  0  0  0  0  0  0
  151.1351  143.5625  157.4561 N   0  0  0  0  0  0  0  0  0  0  0  0
  150.9750  142.2317  157.5140 C   0  0  0  0  0  0  0  0  0  0  0  0
  151.7863  141.4804  158.0580 O   0  0  0  0  0  0  0  0  0  0  0  0
  149.7010  141.6863  156.8556 C   0  0  0  0  0  0  0  0  0  0  0  0
  149.9662  140.6166  155.9069 N   0  0  0  0  0  0  0  0  0  0  0  0
  151.1624  139.9701  155.6569 C   0  0  0  0  0  0  0  0  0  0  0  0
  150.9329  139.0423  154.6808 C   0  0  0  0  0  0  0  0  0  0  0  0
  149.5487  139.2076  154.4056 C   0  0  0  0  0  0  0  0  0  0  0  0
  148.8657  138.4539  153.4549 N   0  0  0  0  0  0  0  0  0  0  0  0
  148.9639  140.1415  155.1329 N   0  0  0  0  0  0  0  0  0  0  0  0
  152.6974  145.6865  159.6312 H   0  0  0  0  0  0  0  0  0  0  0  0
  151.4004  144.5543  160.0015 H   0  0  0  0  0  0  0  0  0  0  0  0
  151.1057  145.9131  158.9163 H   0  0  0  0  0  0  0  0  0  0  0  0
  152.7333  144.9137  157.2475 H   0  0  0  0  0  0  0  0  0  0  0  0
  153.0157  143.5747  158.3347 H   0  0  0  0  0  0  0  0  0  0  0  0
  150.4230  144.1064  156.9904 H   0  0  0  0  0  0  0  0  0  0  0  0
  149.0302  141.3041  157.6258 H   0  0  0  0  0  0  0  0  0  0  0  0
  149.1784  142.4978  156.3466 H   0  0  0  0  0  0  0  0  0  0  0  0
  152.0681  140.2258  156.1868 H   0  0  0  0  0  0  0  0  0  0  0  0
  151.6421  138.3596  154.2367 H   0  0  0  0  0  0  0  0  0  0  0  0
  149.3319  137.7438  152.9090 H   0  0  0  0  0  0  0  0  0  0  0  0
  147.8881  138.6157  153.2606 H   0  0  0  0  0  0  0  0  0  0  0  0
  1  2  1  0  0  0  0
  1 13  1  0  0  0  0
  1 14  1  0  0  0  0
  1 15  1  0  0  0  0
  2  3  1  0  0  0  0
  2 16  1  0  0  0  0
  2 17  1  0  0  0  0
  3  4  1  0  0  0  0
  3 18  1  0  0  0  0
  4  5  2  0  0  0  0
  4  6  1  0  0  0  0
  6  7  1  0  0  0  0
  6 19  1  0  0  0  0
  6 20  1  0  0  0  0
  7 12  1  0  0  0  0
  7  8  1  0  0  0  0
  8  9  2  0  0  0  0
  8 21  1  0  0  0  0
  9 10  1  0  0  0  0
  9 22  1  0  0  0  0
 10 11  1  0  0  0  0
 10 12  2  0  0  0  0
 11 23  1  0  0  0  0
 11 24  1  0  0  0  0
M  END
> <s_m_source_file>
AV-unprocessed.smi

> <i_m_source_file_index>
954

> <i_lp_mmshare_version>
43012

> <i_f3d_flags>
0

> <s_epik_input>
W0NIM11bQ0gyXVtOSF1DKD1PKVtDSDJdbjFbY0hdW2NIXWMobjEpW05IMl0=

> <s_epik_cmdline>
J2VwaWtfcHl0aG9uJywgJy1waCcsICc3LjAnLCAnLXRuJywgJzgnLCAnLW1hJywgJzIwMCcsICctbWV0YWxfYmluZGluZycsICctaW1hZScsICc8aW5maWxlLm1hZT4nLCAnLW9tYWUnLCAnPG91dGZpbGUubWFlPic=

> <r_lp_tautomer_probability>
1

> <r_epik_Ionization_Penalty>
0.000257536

> <r_epik_Ionization_Penalty_Charging>
0

> <r_epik_Ionization_Penalty_Neutral>
0.000257536

> <r_epik_State_Penalty>
-0

> <r_epik_Charging_Adjusted_Penalty>
0

> <i_epik_Tot_Q>
0

> <i_epik_Tot_abs_Q>
0

> <r_epik_Metal_State_Penalty>
-0

> <b_epik_Metal_Only>
0

> <s_lp_Force_Field>
OPLS_2005

> <r_lp_Energy>
1.8316

> <b_lp_Chiralities_Consistent>
1

> <s_lp_Variant>
AV-unprocessed.smi:954-1

> <Gold.Version>
5.8.1

> <Gold.Id.Protein>
6NUR|6NUR_protein|mol2

> <Gold.PLP.Fitness>
33.6129

> <Gold.PLP.PLP>
-28.4145

> <Gold.PLP.part.hbond>
-3.0000

> <Gold.PLP.part.metal>
0.0000

> <Gold.PLP.part.buried>
-3.7960

> <Gold.PLP.part.nonpolar>
-23.0348

> <Gold.PLP.part.repulsive>
0.1325

> <Gold.PLP.ligand.clash>
0.0000

> <Gold.PLP.ligand.torsion>
0.1506

> <Gold.PLP.Chemscore.Hbond>
1.8320

> <Gold.PLP.Chemscore.CHOScore>
0.0000

> <Gold.PLP.Chemscore.Metal>
0.0000

> <Gold.Chemscore.Hbonds>
donor molecule, donor type, donor heavy atom, donor atom, acceptor molecule, acceptor atom, score
      L1  H     3    18       P1  8028  0.83
      L1  H    11    23       P1  7948  0.85

> <Gold.PLP.Chemscore.Internal.Correction>
0.0036

> <Gold.Rescore>
     Score         DG    S(hbond)    S(metal)    S(lipo)     H(rot)  DE(clash)    DE(int)     intcor
     12.28     -13.32       1.98        0.00      49.16       1.77       0.07       0.97       ----

> <Gold.Chemscore.Fitness>
12.2784

> <Gold.Chemscore.DG>
-13.3168

> <Gold.Chemscore.ZeroCoef>
-5.4800

> <Gold.Chemscore.Hbond>
1.9782

> <Gold.Chemscore.Metal>
0.0000

> <Gold.Chemscore.Lipo>
49.1590

> <Gold.Chemscore.Internal_Hbond>
0.0000

> <Gold.Chemscore.DEClash>
0.0688

> <Gold.Chemscore.DEInternal>
0.9696

> <Gold.Chemscore.Rot>
1.7664

> <Gold.Chemscore.Internal.Correction>
   9.000000E+99

> <Gold.Chemscore.Hbonds>
donor molecule, donor type, donor heavy atom, donor atom, acceptor molecule, acceptor atom, score
      L1  H     3    18       P1  8028  0.78
      L1  H    11    23       P1  7948  0.78

> <Gold.Chemscore.Hbond.Weighted>
-6.6071

> <Gold.Chemscore.Metal.Weighted>
-0.0000

> <Gold.Chemscore.Lipo.Weighted>
-5.7516

> <Gold.Chemscore.Internal_Hbond.Weighted>
0.0000

> <Gold.Chemscore.DEClash.Weighted>
0.0688

> <Gold.Chemscore.DEInternal.Weighted>
0.9696

> <Gold.Chemscore.Rot.Weighted>
4.5219

> <Gold.Chemscore.Internal.Correction.Weighted>
   9.000000E+99

> <Gold.Protein.RotatedTorsions>
[ 6907 6896 6895 6894 ] final  177.12 input  -60.11 | X-H torsion
[ 7974 7965 7964 7962 ] final  -75.57 input  175.53 | X-H torsion
[ 8008 7997 7996 7995 ] final  106.19 input   59.86 | X-H torsion
[ 10167 10162 10161 10158 ] final   56.56 input  -65.29 | X-H torsion
[ 10718 10713 10712 10709 ] final   42.14 input   66.30 | X-H torsion
[ 10763 10752 10751 10750 ] final    7.61 input  -60.55 | X-H torsion
[ 11005 11000 10999 10996 ] final  151.10 input  -57.11 | X-H torsion

> <Gold.Protein.ActiveResidues>
 VAL166  LYS551  ARG553  GLY616  TRP617  ASP618  TYR619  PRO620  LYS621  CYS622 
 ASP623  PHE694  ASN695  SER759  ASP760  ASP761  ALA762  ILE779  LEU786  VAL792 
 PHE793  MET794  SER795  GLU796  ALA797  LYS798  CYS799  TRP800  GLU811  SER814 

> <Gold.Protein.RotatedAtoms>
  151.7092  133.3312  159.3286 H   0  0  0  0  0  0  0  0  0  0  0  0  # atno 6907 bound_to 6896
  150.7701  134.6547  159.6316 H   0  0  0  0  0  0  0  0  0  0  0  0  # atno 6908 bound_to 6896
  152.3722  134.6720  160.0224 H   0  0  0  0  0  0  0  0  0  0  0  0  # atno 6909 bound_to 6896
  145.6242  140.9355  143.1122 H   0  0  0  0  0  0  0  0  0  0  0  0  # atno 7974 bound_to 7965
  156.1722  140.3117  155.8995 H   0  0  0  0  0  0  0  0  0  0  0  0  # atno 8008 bound_to 7997
  155.3562  140.0474  157.3063 H   0  0  0  0  0  0  0  0  0  0  0  0  # atno 8009 bound_to 7997
  154.5253  140.2212  155.8912 H   0  0  0  0  0  0  0  0  0  0  0  0  # atno 8010 bound_to 7997
  140.2074  144.3924  150.6503 H   0  0  0  0  0  0  0  0  0  0  0  0  # atno 10167 bound_to 10162
  157.4014  130.7862  149.7352 H   0  0  0  0  0  0  0  0  0  0  0  0  # atno 10718 bound_to 10713
  153.2343  135.6896  153.7854 H   0  0  0  0  0  0  0  0  0  0  0  0  # atno 10763 bound_to 10752
  153.7007  135.3298  155.3225 H   0  0  0  0  0  0  0  0  0  0  0  0  # atno 10764 bound_to 10752
  154.8328  135.4567  154.1241 H   0  0  0  0  0  0  0  0  0  0  0  0  # atno 10765 bound_to 10752
  140.1189  134.8876  157.2044 H   0  0  0  0  0  0  0  0  0  0  0  0  # atno 11005 bound_to 11000
  144.7219  139.8002  143.7379 LP  0  0  0  0  0  0  0  0  0  0  0  0  # atno 17320 bound_to 7965
  146.1407  139.4463  143.0110 LP  0  0  0  0  0  0  0  0  0  0  0  0  # atno 17321 bound_to 7965
  140.6347  143.2193  151.6420 LP  0  0  0  0  0  0  0  0  0  0  0  0  # atno 17342 bound_to 10162
  139.5193  144.3258  152.0870 LP  0  0  0  0  0  0  0  0  0  0  0  0  # atno 17343 bound_to 10162
  155.9824  130.4010  150.3417 LP  0  0  0  0  0  0  0  0  0  0  0  0  # atno 17370 bound_to 10713
  157.1545  131.0329  151.2870 LP  0  0  0  0  0  0  0  0  0  0  0  0  # atno 17371 bound_to 10713
  140.2991  134.3152  155.7294 LP  0  0  0  0  0  0  0  0  0  0  0  0  # atno 17394 bound_to 11000
  141.2147  133.7581  156.9615 LP  0  0  0  0  0  0  0  0  0  0  0  0  # atno 17395 bound_to 11000

$$$$
