AV-unprocessed.smi:53|AV-procd|sdf|517|dock4
  -GOLD-   2262016393D 1   1.00000     0.00000
 Structure written by MMmdl.
 30 31  0  0  0  0  0  0  0  0  1 V2000
  149.6824  132.0454  155.7345 N   0  0  0  0  0  0  0  0  0  0  0  0
  149.7206  133.3813  155.8344 C   0  0  0  0  0  0  0  0  0  0  0  0
  149.6655  134.2037  154.6471 C   0  0  0  0  0  0  0  0  0  0  0  0
  149.7074  135.5417  154.8300 C   0  0  0  0  0  0  0  0  0  0  0  0
  149.7920  136.1136  156.0916 N   0  0  0  0  0  0  0  0  0  0  0  0
  149.8447  137.6178  156.2608 C   0  0  2  0  0  0  0  0  0  0  0  0
  148.6988  138.1707  155.6855 O   0  0  0  0  0  0  0  0  0  0  0  0
  149.0499  139.3594  154.9887 C   0  0  2  0  0  0  0  0  0  0  0  0
  147.9642  139.7487  153.9697 C   0  0  0  0  0  0  0  0  0  0  0  0
  147.8683  138.7679  152.9588 O   0  0  0  0  0  0  0  0  0  0  0  0
  150.4526  139.0630  154.4392 C   0  0  2  0  0  0  0  0  0  0  0  0
  150.3841  138.3275  153.2285 O   0  0  0  0  0  0  0  0  0  0  0  0
  151.0747  138.2588  155.5781 C   0  0  2  0  0  0  0  0  0  0  0  0
  152.0816  137.3581  155.1458 O   0  0  0  0  0  0  0  0  0  0  0  0
  149.8589  135.2814  157.2353 C   0  0  0  0  0  0  0  0  0  0  0  0
  149.9694  135.7432  158.3705 O   0  0  0  0  0  0  0  0  0  0  0  0
  149.8124  133.9285  157.0313 N   0  0  0  0  0  0  0  0  0  0  0  0
  149.8046  137.8194  157.3326 H   0  0  0  0  0  0  0  0  0  0  0  0
  149.1297  140.1485  155.7392 H   0  0  0  0  0  0  0  0  0  0  0  0
  151.0084  139.9807  154.2442 H   0  0  0  0  0  0  0  0  0  0  0  0
  151.5171  138.9476  156.2991 H   0  0  0  0  0  0  0  0  0  0  0  0
  149.7235  131.4729  156.5651 H   0  0  0  0  0  0  0  0  0  0  0  0
  149.6103  131.6126  154.8248 H   0  0  0  0  0  0  0  0  0  0  0  0
  149.5944  133.8011  153.6468 H   0  0  0  0  0  0  0  0  0  0  0  0
  149.6725  136.1715  153.9534 H   0  0  0  0  0  0  0  0  0  0  0  0
  146.9932  139.8872  154.4454 H   0  0  0  0  0  0  0  0  0  0  0  0
  148.2222  140.6972  153.4987 H   0  0  0  0  0  0  0  0  0  0  0  0
  148.4326  139.0180  152.2431 H   0  0  0  0  0  0  0  0  0  0  0  0
  150.0410  138.8939  152.5546 H   0  0  0  0  0  0  0  0  0  0  0  0
  152.8386  137.8603  154.8843 H   0  0  0  0  0  0  0  0  0  0  0  0
  1  2  1  0  0  0  0
  1 22  1  0  0  0  0
  1 23  1  0  0  0  0
  2 17  2  0  0  0  0
  2  3  1  0  0  0  0
  3  4  2  0  0  0  0
  3 24  1  0  0  0  0
  4  5  1  0  0  0  0
  4 25  1  0  0  0  0
  5  6  1  0  0  0  0
  5 15  1  0  0  0  0
  6 18  1  0  0  0  0
  6 13  1  0  0  0  0
  6  7  1  0  0  0  0
  7  8  1  0  0  0  0
  8 19  1  0  0  0  0
  8  9  1  0  0  0  0
  8 11  1  0  0  0  0
  9 10  1  0  0  0  0
  9 26  1  0  0  0  0
  9 27  1  0  0  0  0
 10 28  1  0  0  0  0
 11 20  1  0  0  0  0
 11 12  1  0  0  0  0
 11 13  1  0  0  0  0
 12 29  1  0  0  0  0
 13 21  1  0  0  0  0
 13 14  1  0  0  0  0
 14 30  1  0  0  0  0
 15 16  2  0  0  0  0
 15 17  1  0  0  0  0
M  END
> <s_m_source_file>
AV-unprocessed.smi

> <i_m_source_file_index>
53

> <i_lp_mmshare_version>
43012

> <i_f3d_flags>
0

> <s_epik_input>
W05IMl1jMVtjSF1bY0hdbihjKD1PKW4xKVtDQEBIXTJPW0NASF0oW0NIMl1bT0hdKVtDQEBIXShbT0hdKVtDQEBIXTJbT0hd

> <s_epik_cmdline>
J2VwaWtfcHl0aG9uJywgJy1waCcsICc3LjAnLCAnLXRuJywgJzgnLCAnLW1hJywgJzIwMCcsICctbWV0YWxfYmluZGluZycsICctaW1hZScsICc8aW5maWxlLm1hZT4nLCAnLW9tYWUnLCAnPG91dGZpbGUubWFlPic=

> <r_lp_tautomer_probability>
0.99996

> <r_epik_Ionization_Penalty>
0.00069087

> <r_epik_Ionization_Penalty_Charging>
2.61959e-08

> <r_epik_Ionization_Penalty_Neutral>
0.000690844

> <r_epik_State_Penalty>
1.15523e-05

> <r_epik_Charging_Adjusted_Penalty>
1.15785e-05

> <i_epik_Tot_Q>
0

> <i_epik_Tot_abs_Q>
0

> <r_epik_Metal_State_Penalty>
-0

> <b_epik_Metal_Only>
0

> <s_epik_Chemistry_Notes>
This compound contains an acetal/aminal-like group ( X-CH(R)-Y where X, Y are N, S, or O) that may be acid/base labile, releasing an aldehyde.

> <s_lp_Force_Field>
OPLS_2005

> <r_lp_Energy>
39.6979

> <b_lp_Chiralities_Consistent>
1

> <s_lp_Variant>
AV-unprocessed.smi:53-5

> <Gold.Version>
5.8.1

> <Gold.Id.Protein>
6NUR|6NUR_protein|mol2

> <Gold.PLP.Fitness>
33.6605

> <Gold.PLP.PLP>
-19.9366

> <Gold.PLP.part.hbond>
-7.0000

> <Gold.PLP.part.metal>
0.0000

> <Gold.PLP.part.buried>
0.8981

> <Gold.PLP.part.nonpolar>
-13.0268

> <Gold.PLP.part.repulsive>
0.0434

> <Gold.PLP.ligand.clash>
0.0000

> <Gold.PLP.ligand.torsion>
0.0224

> <Gold.PLP.Chemscore.Hbond>
3.5840

> <Gold.PLP.Chemscore.CHOScore>
1.0000

> <Gold.PLP.Chemscore.Metal>
0.0000

> <Gold.Chemscore.Hbonds>
donor molecule, donor type, donor heavy atom, donor atom, acceptor molecule, acceptor atom, score
      L1  H    10    28       P1  7957  1.00
      L1  H    12    29       P1  7957  1.00
      P1  H  6896  6909       L1    16  0.93
      P1  H 10752 10765       L1    14  0.51
      L1  C     4    25       P1  7948  1.00

> <Gold.PLP.Chemscore.Internal.Correction>
0.0167

> <Gold.Rescore>
     Score         DG    S(hbond)    S(metal)    S(lipo)     H(rot)  DE(clash)    DE(int)     intcor
      8.06      -9.11       2.86        0.00      30.53       3.71       0.24       0.81       ----

> <Gold.Chemscore.Fitness>
8.0607

> <Gold.Chemscore.DG>
-9.1148

> <Gold.Chemscore.ZeroCoef>
-5.4800

> <Gold.Chemscore.Hbond>
2.8621

> <Gold.Chemscore.Metal>
0.0000

> <Gold.Chemscore.Lipo>
30.5284

> <Gold.Chemscore.Internal_Hbond>
0.0000

> <Gold.Chemscore.DEClash>
0.2401

> <Gold.Chemscore.DEInternal>
0.8140

> <Gold.Chemscore.Rot>
3.7095

> <Gold.Chemscore.Internal.Correction>
   9.000000E+99

> <Gold.Chemscore.Hbonds>
donor molecule, donor type, donor heavy atom, donor atom, acceptor molecule, acceptor atom, score
      L1  H    10    28       P1  7957  0.99
      L1  H    12    29       P1  7957  0.45
      P1  H  6896  6909       L1    16  0.70
      P1  H 10752 10765       L1    14  0.03

> <Gold.Chemscore.Hbond.Weighted>
-9.5594

> <Gold.Chemscore.Metal.Weighted>
-0.0000

> <Gold.Chemscore.Lipo.Weighted>
-3.5718

> <Gold.Chemscore.Internal_Hbond.Weighted>
0.0000

> <Gold.Chemscore.DEClash.Weighted>
0.2401

> <Gold.Chemscore.DEInternal.Weighted>
0.8140

> <Gold.Chemscore.Rot.Weighted>
9.4964

> <Gold.Chemscore.Internal.Correction.Weighted>
   9.000000E+99

> <Gold.Protein.RotatedTorsions>
[ 6907 6896 6895 6894 ] final   44.08 input  -60.11 | X-H torsion
[ 7974 7965 7964 7962 ] final   -9.30 input  175.53 | X-H torsion
[ 8008 7997 7996 7995 ] final   85.37 input   59.86 | X-H torsion
[ 10167 10162 10161 10158 ] final  -97.70 input  -65.29 | X-H torsion
[ 10718 10713 10712 10709 ] final -163.23 input   66.30 | X-H torsion
[ 10763 10752 10751 10750 ] final -179.03 input  -60.55 | X-H torsion
[ 11005 11000 10999 10996 ] final  134.01 input  -57.11 | X-H torsion

> <Gold.Protein.ActiveResidues>
 VAL166  LYS551  ARG553  GLY616  TRP617  ASP618  TYR619  PRO620  LYS621  CYS622 
 ASP623  PHE694  ASN695  SER759  ASP760  ASP761  ALA762  ILE779  LEU786  VAL792 
 PHE793  MET794  SER795  GLU796  ALA797  LYS798  CYS799  TRP800  GLU811  SER814 

> <Gold.Protein.RotatedAtoms>
  152.2281  134.8348  160.0477 H   0  0  0  0  0  0  0  0  0  0  0  0  # atno 6907 bound_to 6896
  151.9108  133.3555  159.3871 H   0  0  0  0  0  0  0  0  0  0  0  0  # atno 6908 bound_to 6896
  150.7018  134.4660  159.5447 H   0  0  0  0  0  0  0  0  0  0  0  0  # atno 6909 bound_to 6896
  146.2255  140.2596  142.8351 H   0  0  0  0  0  0  0  0  0  0  0  0  # atno 7974 bound_to 7965
  155.9491  140.3402  155.6392 H   0  0  0  0  0  0  0  0  0  0  0  0  # atno 8008 bound_to 7997
  155.6943  140.0752  157.2454 H   0  0  0  0  0  0  0  0  0  0  0  0  # atno 8009 bound_to 7997
  154.4118  140.1651  156.2108 H   0  0  0  0  0  0  0  0  0  0  0  0  # atno 8010 bound_to 7997
  140.2806  143.3284  152.0444 H   0  0  0  0  0  0  0  0  0  0  0  0  # atno 10167 bound_to 10162
  156.6217  130.8893  151.2959 H   0  0  0  0  0  0  0  0  0  0  0  0  # atno 10718 bound_to 10713
  154.5402  135.2805  155.1102 H   0  0  0  0  0  0  0  0  0  0  0  0  # atno 10763 bound_to 10752
  154.2587  135.6325  153.5270 H   0  0  0  0  0  0  0  0  0  0  0  0  # atno 10764 bound_to 10752
  152.9977  135.5600  154.5940 H   0  0  0  0  0  0  0  0  0  0  0  0  # atno 10765 bound_to 10752
  139.9888  134.9522  156.9806 H   0  0  0  0  0  0  0  0  0  0  0  0  # atno 11005 bound_to 11000
  144.9349  140.8016  143.5666 LP  0  0  0  0  0  0  0  0  0  0  0  0  # atno 17320 bound_to 7965
  145.2543  139.2018  143.4926 LP  0  0  0  0  0  0  0  0  0  0  0  0  # atno 17321 bound_to 7965
  139.4963  144.6594  151.6499 LP  0  0  0  0  0  0  0  0  0  0  0  0  # atno 17342 bound_to 10162
  140.5814  143.9939  150.6271 LP  0  0  0  0  0  0  0  0  0  0  0  0  # atno 17343 bound_to 10162
  157.7225  130.9578  150.1499 LP  0  0  0  0  0  0  0  0  0  0  0  0  # atno 17370 bound_to 10713
  156.2306  130.3682  149.8450 LP  0  0  0  0  0  0  0  0  0  0  0  0  # atno 17371 bound_to 10713
  140.4949  134.1155  155.7239 LP  0  0  0  0  0  0  0  0  0  0  0  0  # atno 17394 bound_to 11000
  141.1548  133.8903  157.2006 LP  0  0  0  0  0  0  0  0  0  0  0  0  # atno 17395 bound_to 11000

$$$$
