AV-unprocessed.smi:315|AV-procd|sdf|2318|dock5
  -GOLD-   2262022223D 1   1.00000     0.00000
 Structure written by MMmdl.
 47 49  0  0  0  0  0  0  0  0  2 V2000
  152.2475  138.7310  155.6672 C   0  0  0  0  0  0  0  0  0  0  0  0
  151.8598  138.3257  154.2431 C   0  0  0  0  0  0  0  0  0  0  0  0
  150.4400  138.2587  154.1647 O   0  0  0  0  0  0  0  0  0  0  0  0
  149.7096  139.4257  154.2859 C   0  0  0  0  0  0  0  0  0  0  0  0
  150.2966  140.5008  154.8681 N   0  0  0  0  0  0  0  0  0  0  0  0
  149.5793  141.6373  154.9858 C   0  0  0  0  0  0  0  0  0  0  0  0
  148.2497  141.7591  154.5408 C   0  0  0  0  0  0  0  0  0  0  0  0
  147.6387  140.6445  153.9370 C   0  0  0  0  0  0  0  0  0  0  0  0
  148.3847  139.4501  153.7935 C   0  0  0  0  0  0  0  0  0  0  0  0
  147.8722  138.2573  153.2169 N   0  0  0  0  0  0  0  0  0  0  0  0
  146.6230  137.9846  152.7947 C   0  0  0  0  0  0  0  0  0  0  0  0
  145.6600  138.7387  152.9099 O   0  0  0  0  0  0  0  0  0  0  0  0
  146.5003  136.7836  152.2018 N   0  0  0  0  0  0  0  0  0  0  0  0
  145.2918  136.1825  151.6349 C   0  0  2  0  0  0  0  0  0  0  0  0
  143.9991  136.5009  152.4144 C   0  0  0  0  0  0  0  0  0  0  0  0
  143.1721  135.2008  152.3879 C   0  0  0  0  0  0  0  0  0  0  0  0
  143.9398  134.2680  151.5415 N   0  3  2  0  0  0  0  0  0  0  0  0
  143.7182  132.8215  151.7574 C   0  0  0  0  0  0  0  0  0  0  0  0
  144.5458  132.0220  150.7305 C   0  0  0  0  0  0  0  0  0  0  0  0
  146.0338  132.4284  150.7524 C   0  0  0  0  0  0  0  0  0  0  0  0
  146.1956  133.9546  150.6157 C   0  0  0  0  0  0  0  0  0  0  0  0
  145.3503  134.6568  151.6905 C   0  0  1  0  0  0  0  0  0  0  0  0
  153.3305  138.7948  155.7730 H   0  0  0  0  0  0  0  0  0  0  0  0
  151.8826  138.0039  156.3929 H   0  0  0  0  0  0  0  0  0  0  0  0
  151.8280  139.7036  155.9254 H   0  0  0  0  0  0  0  0  0  0  0  0
  152.2459  139.0594  153.5336 H   0  0  0  0  0  0  0  0  0  0  0  0
  152.3024  137.3570  154.0052 H   0  0  0  0  0  0  0  0  0  0  0  0
  150.0780  142.4730  155.4541 H   0  0  0  0  0  0  0  0  0  0  0  0
  147.7090  142.6858  154.6638 H   0  0  0  0  0  0  0  0  0  0  0  0
  146.6135  140.7249  153.6112 H   0  0  0  0  0  0  0  0  0  0  0  0
  148.5675  137.5575  153.0035 H   0  0  0  0  0  0  0  0  0  0  0  0
  147.3415  136.2281  152.1385 H   0  0  0  0  0  0  0  0  0  0  0  0
  145.1737  136.4918  150.5942 H   0  0  0  0  0  0  0  0  0  0  0  0
  144.2153  136.7783  153.4472 H   0  0  0  0  0  0  0  0  0  0  0  0
  143.4595  137.3322  151.9587 H   0  0  0  0  0  0  0  0  0  0  0  0
  143.0755  134.7991  153.3978 H   0  0  0  0  0  0  0  0  0  0  0  0
  142.1701  135.3532  151.9860 H   0  0  0  0  0  0  0  0  0  0  0  0
  144.0049  132.5490  152.7743 H   0  0  0  0  0  0  0  0  0  0  0  0
  142.6577  132.5926  151.6479 H   0  0  0  0  0  0  0  0  0  0  0  0
  144.4473  130.9531  150.9216 H   0  0  0  0  0  0  0  0  0  0  0  0
  144.1426  132.1937  149.7316 H   0  0  0  0  0  0  0  0  0  0  0  0
  146.4849  132.0988  151.6894 H   0  0  0  0  0  0  0  0  0  0  0  0
  146.5744  131.9201  149.9534 H   0  0  0  0  0  0  0  0  0  0  0  0
  147.2454  134.2315  150.7174 H   0  0  0  0  0  0  0  0  0  0  0  0
  145.8815  134.2731  149.6208 H   0  0  0  0  0  0  0  0  0  0  0  0
  145.6921  134.3471  152.6813 H   0  0  0  0  0  0  0  0  0  0  0  0
  143.6866  134.4727  150.5854 H   0  0  0  0  0  0  0  0  0  0  0  0
  1  2  1  0  0  0  0
  1 23  1  0  0  0  0
  1 24  1  0  0  0  0
  1 25  1  0  0  0  0
  2  3  1  0  0  0  0
  2 26  1  0  0  0  0
  2 27  1  0  0  0  0
  3  4  1  0  0  0  0
  4  9  1  0  0  0  0
  4  5  2  0  0  0  0
  5  6  1  0  0  0  0
  6  7  2  0  0  0  0
  6 28  1  0  0  0  0
  7  8  1  0  0  0  0
  7 29  1  0  0  0  0
  8  9  2  0  0  0  0
  8 30  1  0  0  0  0
  9 10  1  0  0  0  0
 10 11  1  0  0  0  0
 10 31  1  0  0  0  0
 11 12  2  0  0  0  0
 11 13  1  0  0  0  0
 13 14  1  0  0  0  0
 13 32  1  0  0  0  0
 14 22  1  0  0  0  0
 14 15  1  0  0  0  0
 14 33  1  0  0  0  0
 15 16  1  0  0  0  0
 15 34  1  0  0  0  0
 15 35  1  0  0  0  0
 16 17  1  0  0  0  0
 16 36  1  0  0  0  0
 16 37  1  0  0  0  0
 17 22  1  0  0  0  0
 17 18  1  0  0  0  0
 17 47  1  0  0  0  0
 18 19  1  0  0  0  0
 18 38  1  0  0  0  0
 18 39  1  0  0  0  0
 19 20  1  0  0  0  0
 19 40  1  0  0  0  0
 19 41  1  0  0  0  0
 20 21  1  0  0  0  0
 20 42  1  0  0  0  0
 20 43  1  0  0  0  0
 21 22  1  0  0  0  0
 21 44  1  0  0  0  0
 21 45  1  0  0  0  0
 22 46  1  0  0  0  0
M  CHG  1  17   1
M  END
> <s_m_source_file>
AV-unprocessed.smi

> <i_m_source_file_index>
315

> <i_lp_mmshare_version>
43012

> <i_f3d_flags>
0

> <s_epik_input>
W0NIM11bQ0gyXU9jMW5bY0hdW2NIXVtjSF1jMVtOSF1DKD1PKVtOSF1bQ0BIXShbQ0gyXVtDSDJdMilbQ0BASF0oTjIzKVtDSDJdW0NIMl1bQ0gyXVtDSDJdMw==

> <s_epik_cmdline>
J2VwaWtfcHl0aG9uJywgJy1waCcsICc3LjAnLCAnLXRuJywgJzgnLCAnLW1hJywgJzIwMCcsICctbWV0YWxfYmluZGluZycsICctaW1hZScsICc8aW5maWxlLm1hZT4nLCAnLW9tYWUnLCAnPG91dGZpbGUubWFlPic=

> <r_lp_tautomer_probability>
1

> <r_epik_Ionization_Penalty>
0.00106455

> <r_epik_Ionization_Penalty_Charging>
0.000974069

> <r_epik_Ionization_Penalty_Neutral>
9.04821e-05

> <r_epik_State_Penalty>
0.000633842

> <r_epik_Charging_Adjusted_Penalty>
0.00160791

> <i_epik_Tot_Q>
1

> <i_epik_Tot_abs_Q>
1

> <r_epik_Metal_State_Penalty>
-0

> <b_epik_Metal_Only>
0

> <s_lp_Force_Field>
OPLS_2005

> <r_lp_Energy>
47.5763

> <b_lp_Chiralities_Consistent>
1

> <s_lp_Variant>
AV-unprocessed.smi:315-3

> <Gold.Version>
5.8.1

> <Gold.Id.Protein>
6NUR|6NUR_protein|mol2

> <Gold.PLP.Fitness>
45.9420

> <Gold.PLP.PLP>
-37.0124

> <Gold.PLP.part.hbond>
-3.2972

> <Gold.PLP.part.metal>
0.0000

> <Gold.PLP.part.buried>
-2.4089

> <Gold.PLP.part.nonpolar>
-34.9593

> <Gold.PLP.part.repulsive>
3.7054

> <Gold.PLP.ligand.clash>
0.0000

> <Gold.PLP.ligand.torsion>
0.6565

> <Gold.PLP.Chemscore.Hbond>
2.6064

> <Gold.PLP.Chemscore.CHOScore>
0.8041

> <Gold.PLP.Chemscore.Metal>
0.0000

> <Gold.Chemscore.Hbonds>
donor molecule, donor type, donor heavy atom, donor atom, acceptor molecule, acceptor atom, score
      L1  H    10    31       P1  7948  0.86
      L1  H    13    32       P1  7948  0.93
      P1  H  7989  7998       L1     5  0.93
      L1  C     6    28       P1  8028  0.76

> <Gold.PLP.Chemscore.Internal.Correction>
0.0111

> <Gold.Rescore>
     Score         DG    S(hbond)    S(metal)    S(lipo)     H(rot)  DE(clash)    DE(int)     intcor
     12.20     -18.38       1.71        0.00      91.66       1.38       2.02       4.16       ----

> <Gold.Chemscore.Fitness>
12.1989

> <Gold.Chemscore.DG>
-18.3782

> <Gold.Chemscore.ZeroCoef>
-5.4800

> <Gold.Chemscore.Hbond>
1.7062

> <Gold.Chemscore.Metal>
0.0000

> <Gold.Chemscore.Lipo>
91.6633

> <Gold.Chemscore.Internal_Hbond>
0.0000

> <Gold.Chemscore.DEClash>
2.0235

> <Gold.Chemscore.DEInternal>
4.1559

> <Gold.Chemscore.Rot>
1.3770

> <Gold.Chemscore.Internal.Correction>
   9.000000E+99

> <Gold.Chemscore.Hbonds>
donor molecule, donor type, donor heavy atom, donor atom, acceptor molecule, acceptor atom, score
      L1  H    10    31       P1  7948  0.85
      L1  H    13    32       P1  7948  0.89
      P1  H  7989  7998       L1     5  0.10

> <Gold.Chemscore.Hbond.Weighted>
-5.6988

> <Gold.Chemscore.Metal.Weighted>
-0.0000

> <Gold.Chemscore.Lipo.Weighted>
-10.7246

> <Gold.Chemscore.Internal_Hbond.Weighted>
0.0000

> <Gold.Chemscore.DEClash.Weighted>
2.0235

> <Gold.Chemscore.DEInternal.Weighted>
4.1559

> <Gold.Chemscore.Rot.Weighted>
3.5252

> <Gold.Chemscore.Internal.Correction.Weighted>
   9.000000E+99

> <Gold.Protein.RotatedTorsions>
[ 6907 6896 6895 6894 ] final   30.77 input  -60.11 | X-H torsion
[ 7974 7965 7964 7962 ] final  116.58 input  175.53 | X-H torsion
[ 8008 7997 7996 7995 ] final    6.02 input   59.86 | X-H torsion
[ 10167 10162 10161 10158 ] final  145.90 input  -65.29 | X-H torsion
[ 10718 10713 10712 10709 ] final  -97.09 input   66.30 | X-H torsion
[ 10763 10752 10751 10750 ] final -130.75 input  -60.55 | X-H torsion
[ 11005 11000 10999 10996 ] final  -92.39 input  -57.11 | X-H torsion

> <Gold.Protein.ActiveResidues>
 VAL166  LYS551  ARG553  GLY616  TRP617  ASP618  TYR619  PRO620  LYS621  CYS622 
 ASP623  PHE694  ASN695  SER759  ASP760  ASP761  ALA762  ILE779  LEU786  VAL792 
 PHE793  MET794  SER795  GLU796  ALA797  LYS798  CYS799  TRP800  GLU811  SER814 

> <Gold.Protein.RotatedAtoms>
  152.0507  134.9655  160.0574 H   0  0  0  0  0  0  0  0  0  0  0  0  # atno 6907 bound_to 6896
  152.1057  133.4268  159.4616 H   0  0  0  0  0  0  0  0  0  0  0  0  # atno 6908 bound_to 6896
  150.6841  134.2627  159.4599 H   0  0  0  0  0  0  0  0  0  0  0  0  # atno 6909 bound_to 6896
  145.1779  139.3066  143.4433 H   0  0  0  0  0  0  0  0  0  0  0  0  # atno 7974 bound_to 7965
  154.7357  140.2739  155.6417 H   0  0  0  0  0  0  0  0  0  0  0  0  # atno 8008 bound_to 7997
  156.2861  140.2707  156.1995 H   0  0  0  0  0  0  0  0  0  0  0  0  # atno 8009 bound_to 7997
  155.0323  140.0371  157.2468 H   0  0  0  0  0  0  0  0  0  0  0  0  # atno 8010 bound_to 7997
  139.4917  144.5868  151.6762 H   0  0  0  0  0  0  0  0  0  0  0  0  # atno 10167 bound_to 10162
  156.0076  130.5179  150.6322 H   0  0  0  0  0  0  0  0  0  0  0  0  # atno 10718 bound_to 10713
  154.8754  135.3852  154.4135 H   0  0  0  0  0  0  0  0  0  0  0  0  # atno 10763 bound_to 10752
  153.4846  135.7030  153.5924 H   0  0  0  0  0  0  0  0  0  0  0  0  # atno 10764 bound_to 10752
  153.4324  135.3875  155.2146 H   0  0  0  0  0  0  0  0  0  0  0  0  # atno 10765 bound_to 10752
  141.1523  133.7818  157.0013 H   0  0  0  0  0  0  0  0  0  0  0  0  # atno 11005 bound_to 11000
  146.3458  140.1948  142.8589 LP  0  0  0  0  0  0  0  0  0  0  0  0  # atno 17320 bound_to 7965
  145.0166  140.8759  143.5192 LP  0  0  0  0  0  0  0  0  0  0  0  0  # atno 17321 bound_to 7965
  140.5486  144.0462  150.6117 LP  0  0  0  0  0  0  0  0  0  0  0  0  # atno 17342 bound_to 10162
  140.3509  143.2964  152.0488 LP  0  0  0  0  0  0  0  0  0  0  0  0  # atno 17343 bound_to 10162
  157.4118  131.0824  151.1213 LP  0  0  0  0  0  0  0  0  0  0  0  0  # atno 17370 bound_to 10713
  157.1843  130.6323  149.5682 LP  0  0  0  0  0  0  0  0  0  0  0  0  # atno 17371 bound_to 10713
  140.0938  134.9576  157.1818 LP  0  0  0  0  0  0  0  0  0  0  0  0  # atno 17394 bound_to 11000
  140.3410  134.2704  155.7212 LP  0  0  0  0  0  0  0  0  0  0  0  0  # atno 17395 bound_to 11000

$$$$
