AV-unprocessed.smi:249|AV-procd|sdf|1924|dock4
  -GOLD-   2262021 33D 1   1.00000     0.00000
 Structure written by MMmdl.
 64 67  0  0  0  0  0  0  0  0  2 V2000
  146.7900  130.4809  153.2041 C   0  0  0  0  0  0  0  0  0  0  0  0
  146.0116  131.2291  152.1110 C   0  0  0  0  0  0  0  0  0  0  0  0
  146.7753  132.3672  151.5191 N   0  3  2  0  0  0  0  0  0  0  0  0
  147.2551  133.3643  152.5179 C   0  0  0  0  0  0  0  0  0  0  0  0
  146.1055  134.2337  153.0629 C   0  0  0  0  0  0  0  0  0  0  0  0
  145.3558  134.9328  151.9117 C   0  0  2  0  0  0  0  0  0  0  0  0
  144.2523  135.7744  152.3893 N   0  0  0  0  0  0  0  0  0  0  0  0
  142.8942  135.2337  152.4412 C   0  0  0  0  0  0  0  0  0  0  0  0
  144.5836  136.6812  153.3452 C   0  0  0  0  0  0  0  0  0  0  0  0
  144.0019  136.6079  154.5725 N   0  0  0  0  0  0  0  0  0  0  0  0
  144.3319  137.4797  155.5298 C   0  0  0  0  0  0  0  0  0  0  0  0
  145.2081  138.4843  155.4767 N   0  0  0  0  0  0  0  0  0  0  0  0
  145.7921  138.5673  154.2476 C   0  0  0  0  0  0  0  0  0  0  0  0
  145.5349  137.7195  153.1334 C   0  0  0  0  0  0  0  0  0  0  0  0
  146.3002  138.1243  152.0455 N   0  0  0  0  0  0  0  0  0  0  0  0
  146.9801  139.1435  152.4946 C   0  0  0  0  0  0  0  0  0  0  0  0
  146.7562  139.4617  153.8153 N   0  0  0  0  0  0  0  0  0  0  0  0
  147.3750  140.5421  154.5635 C   0  0  0  0  0  0  0  0  0  0  0  0
  148.0745  140.1094  155.8833 C   0  0  2  0  0  0  0  0  0  0  0  0
  148.3005  141.3585  156.7692 C   0  0  0  0  0  0  0  0  0  0  0  0
  148.7600  142.4556  156.0066 O   0  0  0  0  0  0  0  0  0  0  0  0
  149.4057  139.3332  155.6494 C   0  0  1  0  0  0  0  0  0  0  0  0
  149.5281  138.6630  154.2886 C   0  0  0  0  0  0  0  0  0  0  0  0
  151.0247  138.4091  154.1811 C   0  0  0  0  0  0  0  0  0  0  0  0
  151.6239  139.5460  154.7820 O   0  0  0  0  0  0  0  0  0  0  0  0
  150.6880  140.1833  155.6463 C   0  0  0  0  0  0  0  0  0  0  0  0
  144.9049  133.9030  150.8571 C   0  0  0  0  0  0  0  0  0  0  0  0
  146.1025  133.0574  150.3754 C   0  0  2  0  0  0  0  0  0  0  0  0
  145.7300  132.1139  149.2176 C   0  0  0  0  0  0  0  0  0  0  0  0
  146.2619  129.5714  153.4909 H   0  0  0  0  0  0  0  0  0  0  0  0
  146.9061  131.0764  154.1089 H   0  0  0  0  0  0  0  0  0  0  0  0
  147.7815  130.1895  152.8565 H   0  0  0  0  0  0  0  0  0  0  0  0
  145.7888  130.4960  151.3382 H   0  0  0  0  0  0  0  0  0  0  0  0
  145.0497  131.5626  152.4996 H   0  0  0  0  0  0  0  0  0  0  0  0
  147.7916  132.8845  153.3346 H   0  0  0  0  0  0  0  0  0  0  0  0
  147.9897  134.0084  152.0321 H   0  0  0  0  0  0  0  0  0  0  0  0
  145.4235  133.6199  153.6509 H   0  0  0  0  0  0  0  0  0  0  0  0
  146.5097  134.9795  153.7486 H   0  0  0  0  0  0  0  0  0  0  0  0
  146.0877  135.5689  151.4160 H   0  0  0  0  0  0  0  0  0  0  0  0
  142.1705  136.0253  152.6405 H   0  0  0  0  0  0  0  0  0  0  0  0
  142.8022  134.4829  153.2263 H   0  0  0  0  0  0  0  0  0  0  0  0
  142.6126  134.7743  151.4949 H   0  0  0  0  0  0  0  0  0  0  0  0
  143.8249  137.3513  156.4748 H   0  0  0  0  0  0  0  0  0  0  0  0
  147.6787  139.6858  151.8738 H   0  0  0  0  0  0  0  0  0  0  0  0
  148.0918  141.0469  153.9144 H   0  0  0  0  0  0  0  0  0  0  0  0
  146.5884  141.2689  154.7670 H   0  0  0  0  0  0  0  0  0  0  0  0
  147.4031  139.4495  156.4339 H   0  0  0  0  0  0  0  0  0  0  0  0
  147.3770  141.6831  157.2461 H   0  0  0  0  0  0  0  0  0  0  0  0
  149.0151  141.1460  157.5649 H   0  0  0  0  0  0  0  0  0  0  0  0
  148.4188  143.2506  156.3868 H   0  0  0  0  0  0  0  0  0  0  0  0
  149.5046  138.5588  156.4120 H   0  0  0  0  0  0  0  0  0  0  0  0
  148.9527  137.7406  154.2058 H   0  0  0  0  0  0  0  0  0  0  0  0
  149.2075  139.3423  153.4969 H   0  0  0  0  0  0  0  0  0  0  0  0
  151.3034  137.5205  154.7488 H   0  0  0  0  0  0  0  0  0  0  0  0
  151.3573  138.2759  153.1515 H   0  0  0  0  0  0  0  0  0  0  0  0
  150.4984  141.1827  155.2534 H   0  0  0  0  0  0  0  0  0  0  0  0
  151.1175  140.2859  156.6419 H   0  0  0  0  0  0  0  0  0  0  0  0
  144.1312  133.2465  151.2537 H   0  0  0  0  0  0  0  0  0  0  0  0
  144.4594  134.4260  150.0098 H   0  0  0  0  0  0  0  0  0  0  0  0
  146.8427  133.7466  149.9650 H   0  0  0  0  0  0  0  0  0  0  0  0
  145.4417  132.6871  148.3360 H   0  0  0  0  0  0  0  0  0  0  0  0
  144.8860  131.4699  149.4646 H   0  0  0  0  0  0  0  0  0  0  0  0
  146.5718  131.4815  148.9343 H   0  0  0  0  0  0  0  0  0  0  0  0
  147.6068  131.9482  151.1279 H   0  0  0  0  0  0  0  0  0  0  0  0
  1  2  1  0  0  0  0
  1 30  1  0  0  0  0
  1 31  1  0  0  0  0
  1 32  1  0  0  0  0
  2  3  1  0  0  0  0
  2 33  1  0  0  0  0
  2 34  1  0  0  0  0
  3 28  1  0  0  0  0
  3  4  1  0  0  0  0
  3 64  1  0  0  0  0
  4  5  1  0  0  0  0
  4 35  1  0  0  0  0
  4 36  1  0  0  0  0
  5  6  1  0  0  0  0
  5 37  1  0  0  0  0
  5 38  1  0  0  0  0
  6  7  1  0  0  0  0
  6 27  1  0  0  0  0
  6 39  1  0  0  0  0
  7  8  1  0  0  0  0
  7  9  1  0  0  0  0
  8 40  1  0  0  0  0
  8 41  1  0  0  0  0
  8 42  1  0  0  0  0
  9 14  1  0  0  0  0
  9 10  2  0  0  0  0
 10 11  1  0  0  0  0
 11 12  2  0  0  0  0
 11 43  1  0  0  0  0
 12 13  1  0  0  0  0
 13 17  1  0  0  0  0
 13 14  2  0  0  0  0
 14 15  1  0  0  0  0
 15 16  2  0  0  0  0
 16 17  1  0  0  0  0
 16 44  1  0  0  0  0
 17 18  1  0  0  0  0
 18 19  1  0  0  0  0
 18 45  1  0  0  0  0
 18 46  1  0  0  0  0
 19 20  1  0  0  0  0
 19 22  1  0  0  0  0
 19 47  1  0  0  0  0
 20 21  1  0  0  0  0
 20 48  1  0  0  0  0
 20 49  1  0  0  0  0
 21 50  1  0  0  0  0
 22 26  1  0  0  0  0
 22 23  1  0  0  0  0
 22 51  1  0  0  0  0
 23 24  1  0  0  0  0
 23 52  1  0  0  0  0
 23 53  1  0  0  0  0
 24 25  1  0  0  0  0
 24 54  1  0  0  0  0
 24 55  1  0  0  0  0
 25 26  1  0  0  0  0
 26 56  1  0  0  0  0
 26 57  1  0  0  0  0
 27 28  1  0  0  0  0
 27 58  1  0  0  0  0
 27 59  1  0  0  0  0
 28 29  1  0  0  0  0
 28 60  1  0  0  0  0
 29 61  1  0  0  0  0
 29 62  1  0  0  0  0
 29 63  1  0  0  0  0
M  CHG  1   3   1
M  END
> <s_m_source_file>
AV-unprocessed.smi

> <i_m_source_file_index>
249

> <i_lp_mmshare_version>
43012

> <i_f3d_flags>
0

> <s_epik_input>
W0NIM11bQ0gyXU4xW0NIMl1bQ0gyXVtDQEhdKFtDSDJdW0NASF0xW0NIM10pTihbQ0gzXSljKG5bY0hdbjIpYyhjMjMpbltjSF1uM1tDSDJdW0NASF0oW0NIMl1bT0hdKVtDQEBIXTRbQ0gyXVtDSDJdT1tDSDJdNA==

> <s_epik_cmdline>
J2VwaWtfcHl0aG9uJywgJy1waCcsICc3LjAnLCAnLXRuJywgJzgnLCAnLW1hJywgJzIwMCcsICctbWV0YWxfYmluZGluZycsICctaW1hZScsICc8aW5maWxlLm1hZT4nLCAnLW9tYWUnLCAnPG91dGZpbGUubWFlPic=

> <r_lp_tautomer_probability>
1

> <r_epik_Ionization_Penalty>
0.00294688

> <r_epik_Ionization_Penalty_Charging>
0.00169971

> <r_epik_Ionization_Penalty_Neutral>
0.00124717

> <r_epik_State_Penalty>
-0

> <r_epik_Charging_Adjusted_Penalty>
0.00169971

> <i_epik_Tot_Q>
1

> <i_epik_Tot_abs_Q>
1

> <r_epik_Metal_State_Penalty>
-0

> <b_epik_Metal_Only>
0

> <s_lp_Force_Field>
OPLS_2005

> <r_lp_Energy>
54.5526

> <b_lp_Chiralities_Consistent>
1

> <s_lp_Variant>
AV-unprocessed.smi:249-27

> <Gold.Version>
5.8.1

> <Gold.Id.Protein>
6NUR|6NUR_protein|mol2

> <Gold.PLP.Fitness>
47.5006

> <Gold.PLP.PLP>
-41.3169

> <Gold.PLP.part.hbond>
-2.7625

> <Gold.PLP.part.metal>
0.0000

> <Gold.PLP.part.buried>
-8.2084

> <Gold.PLP.part.nonpolar>
-31.0396

> <Gold.PLP.part.repulsive>
0.4754

> <Gold.PLP.ligand.clash>
0.0000

> <Gold.PLP.ligand.torsion>
2.3744

> <Gold.PLP.Chemscore.Hbond>
2.2720

> <Gold.PLP.Chemscore.CHOScore>
1.0000

> <Gold.PLP.Chemscore.Metal>
0.0000

> <Gold.Chemscore.Hbonds>
donor molecule, donor type, donor heavy atom, donor atom, acceptor molecule, acceptor atom, score
      L1  H     3    64       P1 10747  1.00
      L1  H    21    50       P1  8028  0.37
      P1  H  7989  7998       L1    25  0.85
      L1  C    16    44       P1  7957  1.00

> <Gold.PLP.Chemscore.Internal.Correction>
1.1166

> <Gold.Rescore>
     Score         DG    S(hbond)    S(metal)    S(lipo)     H(rot)  DE(clash)    DE(int)     intcor
     11.64     -15.32       1.67        0.00      94.55       2.65       0.01       3.67       ----

> <Gold.Chemscore.Fitness>
11.6418

> <Gold.Chemscore.DG>
-15.3178

> <Gold.Chemscore.ZeroCoef>
-5.4800

> <Gold.Chemscore.Hbond>
1.6659

> <Gold.Chemscore.Metal>
0.0000

> <Gold.Chemscore.Lipo>
94.5451

> <Gold.Chemscore.Internal_Hbond>
0.0000

> <Gold.Chemscore.DEClash>
0.0102

> <Gold.Chemscore.DEInternal>
3.6658

> <Gold.Chemscore.Rot>
2.6515

> <Gold.Chemscore.Internal.Correction>
   9.000000E+99

> <Gold.Chemscore.Hbonds>
donor molecule, donor type, donor heavy atom, donor atom, acceptor molecule, acceptor atom, score
      L1  H     3    64       P1 10747  0.99
      L1  H    21    50       P1  8028  0.24
      P1  H  7989  7998       L1    25  0.08

> <Gold.Chemscore.Hbond.Weighted>
-5.5640

> <Gold.Chemscore.Metal.Weighted>
-0.0000

> <Gold.Chemscore.Lipo.Weighted>
-11.0618

> <Gold.Chemscore.Internal_Hbond.Weighted>
0.0000

> <Gold.Chemscore.DEClash.Weighted>
0.0102

> <Gold.Chemscore.DEInternal.Weighted>
3.6658

> <Gold.Chemscore.Rot.Weighted>
6.7880

> <Gold.Chemscore.Internal.Correction.Weighted>
   9.000000E+99

> <Gold.Protein.RotatedTorsions>
[ 6907 6896 6895 6894 ] final   53.72 input  -60.11 | X-H torsion
[ 7974 7965 7964 7962 ] final  158.78 input  175.53 | X-H torsion
[ 8008 7997 7996 7995 ] final   63.35 input   59.86 | X-H torsion
[ 10167 10162 10161 10158 ] final  -59.05 input  -65.29 | X-H torsion
[ 10718 10713 10712 10709 ] final  127.09 input   66.30 | X-H torsion
[ 10763 10752 10751 10750 ] final  134.24 input  -60.55 | X-H torsion
[ 11005 11000 10999 10996 ] final   93.04 input  -57.11 | X-H torsion

> <Gold.Protein.ActiveResidues>
 VAL166  LYS551  ARG553  GLY616  TRP617  ASP618  TYR619  PRO620  LYS621  CYS622 
 ASP623  PHE694  ASN695  SER759  ASP760  ASP761  ALA762  ILE779  LEU786  VAL792 
 PHE793  MET794  SER795  GLU796  ALA797  LYS798  CYS799  TRP800  GLU811  SER814 

> <Gold.Protein.RotatedAtoms>
  152.3366  134.7190  160.0275 H   0  0  0  0  0  0  0  0  0  0  0  0  # atno 6907 bound_to 6896
  151.7589  133.3327  159.3420 H   0  0  0  0  0  0  0  0  0  0  0  0  # atno 6908 bound_to 6896
  150.7454  134.6056  159.6104 H   0  0  0  0  0  0  0  0  0  0  0  0  # atno 6909 bound_to 6896
  144.7827  139.7526  143.6253 H   0  0  0  0  0  0  0  0  0  0  0  0  # atno 7974 bound_to 7965
  155.6288  140.3496  155.4676 H   0  0  0  0  0  0  0  0  0  0  0  0  # atno 8008 bound_to 7997
  156.0020  140.1215  157.0562 H   0  0  0  0  0  0  0  0  0  0  0  0  # atno 8009 bound_to 7997
  154.4252  140.1099  156.5695 H   0  0  0  0  0  0  0  0  0  0  0  0  # atno 8010 bound_to 7997
  140.6159  143.2402  151.5597 H   0  0  0  0  0  0  0  0  0  0  0  0  # atno 10167 bound_to 10162
  157.5363  131.1097  150.8930 H   0  0  0  0  0  0  0  0  0  0  0  0  # atno 10718 bound_to 10713
  153.8202  135.3117  155.3409 H   0  0  0  0  0  0  0  0  0  0  0  0  # atno 10763 bound_to 10752
  154.8016  135.4723  154.0292 H   0  0  0  0  0  0  0  0  0  0  0  0  # atno 10764 bound_to 10752
  153.1698  135.6876  153.8713 H   0  0  0  0  0  0  0  0  0  0  0  0  # atno 10765 bound_to 10752
  139.8815  134.8767  156.3660 H   0  0  0  0  0  0  0  0  0  0  0  0  # atno 11005 bound_to 11000
  146.2043  139.5357  142.9723 LP  0  0  0  0  0  0  0  0  0  0  0  0  # atno 17320 bound_to 7965
  145.6007  141.0355  143.2020 LP  0  0  0  0  0  0  0  0  0  0  0  0  # atno 17321 bound_to 7965
  139.5398  144.2678  152.1328 LP  0  0  0  0  0  0  0  0  0  0  0  0  # atno 17342 bound_to 10162
  140.1887  144.4773  150.6490 LP  0  0  0  0  0  0  0  0  0  0  0  0  # atno 17343 bound_to 10162
  156.9496  130.5415  149.5282 LP  0  0  0  0  0  0  0  0  0  0  0  0  # atno 17370 bound_to 10713
  156.0461  130.5537  150.8884 LP  0  0  0  0  0  0  0  0  0  0  0  0  # atno 17371 bound_to 10713
  140.9496  133.7459  156.0255 LP  0  0  0  0  0  0  0  0  0  0  0  0  # atno 17394 bound_to 11000
  140.8121  134.3387  157.5408 LP  0  0  0  0  0  0  0  0  0  0  0  0  # atno 17395 bound_to 11000

$$$$
