AV-unprocessed.smi:3298|AV-procd|sdf|12647|dock2
  -GOLD-   2272018583D 1   1.00000     0.00000
 Structure written by MMmdl.
 36 37  0  0  0  0  0  0  0  0  2 V2000
  146.3745  142.9495  153.9086 C   0  0  0  0  0  0  0  0  0  0  0  0
  147.3404  141.7934  154.0601 C   0  0  0  0  0  0  0  0  0  0  0  0
  147.0102  140.4787  153.6670 C   0  0  0  0  0  0  0  0  0  0  0  0
  147.9501  139.4394  153.8437 C   0  0  0  0  0  0  0  0  0  0  0  0
  147.5771  138.1357  153.4180 N   0  0  0  0  0  0  0  0  0  0  0  0
  146.3506  137.5866  153.3841 C   0  0  0  0  0  0  0  0  0  0  0  0
  145.3070  138.1568  153.7021 O   0  0  0  0  0  0  0  0  0  0  0  0
  146.3961  136.3238  152.9373 N   0  0  0  0  0  0  0  0  0  0  0  0
  145.2380  135.4500  152.7872 C   0  0  1  0  0  0  0  0  0  0  0  0
  144.5836  135.6728  151.4501 C   0  0  0  0  0  0  0  0  0  0  0  0
  144.5288  134.5665  150.7121 C   0  0  0  0  0  0  0  0  0  0  0  0
  145.1476  133.3783  151.4017 C   0  0  1  0  0  0  0  0  0  0  0  0
  146.2581  132.7075  150.5709 C   0  0  0  0  0  0  0  0  0  0  0  0
  145.8139  132.3814  149.2684 O   0  0  0  0  0  0  0  0  0  0  0  0
  145.6228  133.9464  152.7637 C   0  0  0  0  0  0  0  0  0  0  0  0
  149.2181  139.7580  154.3926 C   0  0  0  0  0  0  0  0  0  0  0  0
  149.4926  141.0889  154.7668 C   0  0  0  0  0  0  0  0  0  0  0  0
  148.5562  142.0458  154.5925 N   0  3  0  0  0  0  0  0  0  0  0  0
  144.5057  135.6534  153.5705 H   0  0  0  0  0  0  0  0  0  0  0  0
  144.3530  132.6516  151.5749 H   0  0  0  0  0  0  0  0  0  0  0  0
  145.4916  142.6517  153.3419 H   0  0  0  0  0  0  0  0  0  0  0  0
  146.8499  143.7791  153.3845 H   0  0  0  0  0  0  0  0  0  0  0  0
  146.0489  143.3011  154.8879 H   0  0  0  0  0  0  0  0  0  0  0  0
  146.0402  140.2687  153.2395 H   0  0  0  0  0  0  0  0  0  0  0  0
  148.3247  137.5706  153.0428 H   0  0  0  0  0  0  0  0  0  0  0  0
  147.2944  135.9309  152.6963 H   0  0  0  0  0  0  0  0  0  0  0  0
  144.1970  136.6364  151.1524 H   0  0  0  0  0  0  0  0  0  0  0  0
  144.0945  134.4975  149.7257 H   0  0  0  0  0  0  0  0  0  0  0  0
  147.1224  133.3674  150.4939 H   0  0  0  0  0  0  0  0  0  0  0  0
  146.5970  131.7949  151.0620 H   0  0  0  0  0  0  0  0  0  0  0  0
  145.6289  133.1838  148.8050 H   0  0  0  0  0  0  0  0  0  0  0  0
  146.6953  133.8023  152.9016 H   0  0  0  0  0  0  0  0  0  0  0  0
  145.1347  133.4197  153.5846 H   0  0  0  0  0  0  0  0  0  0  0  0
  149.9878  139.0125  154.5222 H   0  0  0  0  0  0  0  0  0  0  0  0
  150.4305  141.4149  155.1920 H   0  0  0  0  0  0  0  0  0  0  0  0
  148.7785  143.0022  154.8704 H   0  0  0  0  0  0  0  0  0  0  0  0
  1  2  1  0  0  0  0
  1 21  1  0  0  0  0
  1 22  1  0  0  0  0
  1 23  1  0  0  0  0
  2 18  1  0  0  0  0
  2  3  2  0  0  0  0
  3  4  1  0  0  0  0
  3 24  1  0  0  0  0
  4  5  1  0  0  0  0
  4 16  2  0  0  0  0
  5  6  1  0  0  0  0
  5 25  1  0  0  0  0
  6  7  2  0  0  0  0
  6  8  1  0  0  0  0
  8  9  1  0  0  0  0
  8 26  1  0  0  0  0
  9 19  1  0  0  0  0
  9 15  1  0  0  0  0
  9 10  1  0  0  0  0
 10 11  2  0  0  0  0
 10 27  1  0  0  0  0
 11 12  1  0  0  0  0
 11 28  1  0  0  0  0
 12 20  1  0  0  0  0
 12 13  1  0  0  0  0
 12 15  1  0  0  0  0
 13 14  1  0  0  0  0
 13 29  1  0  0  0  0
 13 30  1  0  0  0  0
 14 31  1  0  0  0  0
 15 32  1  0  0  0  0
 15 33  1  0  0  0  0
 16 17  1  0  0  0  0
 16 34  1  0  0  0  0
 17 18  2  0  0  0  0
 17 35  1  0  0  0  0
 18 36  1  0  0  0  0
M  CHG  1  18   1
M  END
> <s_m_source_file>
AV-unprocessed.smi

> <i_m_source_file_index>
3298

> <i_lp_mmshare_version>
43012

> <i_f3d_flags>
0

> <s_epik_input>
W0NIM11jMVtjSF1jKFtjSF1bY0hdbjEpW05IXUMoPU8pW05IXVtDQEBIXTJbQ0hdPVtDSF1bQ0BASF0oW0NIMl0yKVtDSDJdW09IXQ==

> <s_epik_cmdline>
J2VwaWtfcHl0aG9uJywgJy1waCcsICc3LjAnLCAnLXRuJywgJzgnLCAnLW1hJywgJzIwMCcsICctbWV0YWxfYmluZGluZycsICctaW1hZScsICc8aW5maWxlLm1hZT4nLCAnLW9tYWUnLCAnPG91dGZpbGUubWFlPic=

> <r_epik_Ionization_Penalty>
0.443901

> <r_epik_Ionization_Penalty_Charging>
0.443881

> <r_epik_Ionization_Penalty_Neutral>
1.94967e-05

> <r_epik_State_Penalty>
0.446172

> <r_epik_Charging_Adjusted_Penalty>
0.890053

> <i_epik_Tot_Q>
1

> <i_epik_Tot_abs_Q>
1

> <r_epik_Metal_State_Penalty>
0.675842

> <b_epik_Metal_Only>
0

> <s_lp_Force_Field>
OPLS_2005

> <r_lp_Energy>
27.9023

> <b_lp_Chiralities_Consistent>
1

> <s_lp_Variant>
AV-unprocessed.smi:3298-8

> <Gold.Version>
5.8.1

> <Gold.Id.Protein>
6NUR|6NUR_protein|mol2

> <Gold.PLP.Fitness>
45.7992

> <Gold.PLP.PLP>
-32.5387

> <Gold.PLP.part.hbond>
-4.0000

> <Gold.PLP.part.metal>
0.0000

> <Gold.PLP.part.buried>
-4.0028

> <Gold.PLP.part.nonpolar>
-25.1633

> <Gold.PLP.part.repulsive>
0.5589

> <Gold.PLP.ligand.clash>
0.0000

> <Gold.PLP.ligand.torsion>
0.5402

> <Gold.PLP.Chemscore.Hbond>
4.7760

> <Gold.PLP.Chemscore.CHOScore>
0.0000

> <Gold.PLP.Chemscore.Metal>
0.0000

> <Gold.Chemscore.Hbonds>
donor molecule, donor type, donor heavy atom, donor atom, acceptor molecule, acceptor atom, score
      L1  H     5    25       P1  7948  1.00
      L1  H     8    26       P1  7948  0.93
      L1  H    14    31       P1  7921  0.61
      L1  H    18    36       P1  8028  2.00

> <Gold.PLP.Chemscore.Internal.Correction>
0.0130

> <Gold.Rescore>
     Score         DG    S(hbond)    S(metal)    S(lipo)     H(rot)  DE(clash)    DE(int)     intcor
     17.47     -20.13       3.26        0.00      71.80       1.81       0.92       1.73       ----

> <Gold.Chemscore.Fitness>
17.4739

> <Gold.Chemscore.DG>
-20.1308

> <Gold.Chemscore.ZeroCoef>
-5.4800

> <Gold.Chemscore.Hbond>
3.2557

> <Gold.Chemscore.Metal>
0.0000

> <Gold.Chemscore.Lipo>
71.7975

> <Gold.Chemscore.Internal_Hbond>
0.0000

> <Gold.Chemscore.DEClash>
0.9237

> <Gold.Chemscore.DEInternal>
1.7332

> <Gold.Chemscore.Rot>
1.8061

> <Gold.Chemscore.Internal.Correction>
   9.000000E+99

> <Gold.Chemscore.Hbonds>
donor molecule, donor type, donor heavy atom, donor atom, acceptor molecule, acceptor atom, score
      L1  H     5    25       P1  7948  0.95
      L1  H     8    26       P1  7948  0.90
      L1  H    14    31       P1  7921  0.05
      L1  H    18    36       P1  8028  1.00

> <Gold.Chemscore.Hbond.Weighted>
-10.8742

> <Gold.Chemscore.Metal.Weighted>
-0.0000

> <Gold.Chemscore.Lipo.Weighted>
-8.4003

> <Gold.Chemscore.Internal_Hbond.Weighted>
0.0000

> <Gold.Chemscore.DEClash.Weighted>
0.9237

> <Gold.Chemscore.DEInternal.Weighted>
1.7332

> <Gold.Chemscore.Rot.Weighted>
4.6237

> <Gold.Chemscore.Internal.Correction.Weighted>
   9.000000E+99

> <Gold.Protein.RotatedTorsions>
[ 6907 6896 6895 6894 ] final   86.85 input  -60.11 | X-H torsion
[ 7974 7965 7964 7962 ] final -102.54 input  175.53 | X-H torsion
[ 8008 7997 7996 7995 ] final  135.78 input   59.86 | X-H torsion
[ 10167 10162 10161 10158 ] final   67.19 input  -65.29 | X-H torsion
[ 10718 10713 10712 10709 ] final -105.43 input   66.30 | X-H torsion
[ 10763 10752 10751 10750 ] final  -71.42 input  -60.55 | X-H torsion
[ 11005 11000 10999 10996 ] final  -82.19 input  -57.11 | X-H torsion

> <Gold.Protein.ActiveResidues>
 VAL166  LYS551  ARG553  GLY616  TRP617  ASP618  TYR619  PRO620  LYS621  CYS622 
 ASP623  PHE694  ASN695  SER759  ASP760  ASP761  ALA762  ILE779  LEU786  VAL792 
 PHE793  MET794  SER795  GLU796  ALA797  LYS798  CYS799  TRP800  GLU811  SER814 

> <Gold.Protein.RotatedAtoms>
  152.5401  134.2367  159.8845 H   0  0  0  0  0  0  0  0  0  0  0  0  # atno 6907 bound_to 6896
  151.2336  133.4430  159.2612 H   0  0  0  0  0  0  0  0  0  0  0  0  # atno 6908 bound_to 6896
  151.0692  134.9801  159.8356 H   0  0  0  0  0  0  0  0  0  0  0  0  # atno 6909 bound_to 6896
  145.2674  140.9288  143.3006 H   0  0  0  0  0  0  0  0  0  0  0  0  # atno 7974 bound_to 7965
  156.3003  140.2462  156.3638 H   0  0  0  0  0  0  0  0  0  0  0  0  # atno 8008 bound_to 7997
  154.8852  140.0411  157.1825 H   0  0  0  0  0  0  0  0  0  0  0  0  # atno 8009 bound_to 7997
  154.8654  140.2927  155.5517 H   0  0  0  0  0  0  0  0  0  0  0  0  # atno 8010 bound_to 7997
  140.0923  144.4977  150.7091 H   0  0  0  0  0  0  0  0  0  0  0  0  # atno 10167 bound_to 10162
  156.0346  130.5563  150.7538 H   0  0  0  0  0  0  0  0  0  0  0  0  # atno 10718 bound_to 10713
  154.4316  135.5962  153.6072 H   0  0  0  0  0  0  0  0  0  0  0  0  # atno 10763 bound_to 10752
  152.9799  135.5976  154.3832 H   0  0  0  0  0  0  0  0  0  0  0  0  # atno 10764 bound_to 10752
  154.3671  135.2841  155.2266 H   0  0  0  0  0  0  0  0  0  0  0  0  # atno 10765 bound_to 10752
  141.1664  133.7233  156.8535 H   0  0  0  0  0  0  0  0  0  0  0  0  # atno 11005 bound_to 11000
  144.9365  139.4238  143.6470 LP  0  0  0  0  0  0  0  0  0  0  0  0  # atno 17320 bound_to 7965
  146.3257  139.8303  142.8909 LP  0  0  0  0  0  0  0  0  0  0  0  0  # atno 17321 bound_to 7965
  140.7022  143.2443  151.4831 LP  0  0  0  0  0  0  0  0  0  0  0  0  # atno 17342 bound_to 10162
  139.5718  144.1911  152.1847 LP  0  0  0  0  0  0  0  0  0  0  0  0  # atno 17343 bound_to 10162
  157.5075  131.0923  151.0239 LP  0  0  0  0  0  0  0  0  0  0  0  0  # atno 17370 bound_to 10713
  157.0603  130.5823  149.5385 LP  0  0  0  0  0  0  0  0  0  0  0  0  # atno 17371 bound_to 10713
  140.1899  134.8973  157.3048 LP  0  0  0  0  0  0  0  0  0  0  0  0  # atno 17394 bound_to 11000
  140.2302  134.3918  155.7525 LP  0  0  0  0  0  0  0  0  0  0  0  0  # atno 17395 bound_to 11000

$$$$
