AV-unprocessed.smi:907|AV-procd|sdf|4107|dock1
  -GOLD-   22720 2 03D 1   1.00000     0.00000
 Structure written by MMmdl.
 53 56  0  0  0  0  0  0  0  0  2 V2000
  152.4879  139.8378  156.1303 O   0  0  0  0  0  0  0  0  0  0  0  0
  151.2962  139.5708  155.9715 C   0  0  0  0  0  0  0  0  0  0  0  0
  150.3489  140.0034  156.8189 N   0  0  0  0  0  0  0  0  0  0  0  0
  150.5989  140.8313  157.9909 C   0  0  0  0  0  0  0  0  0  0  0  0
  151.5920  141.9534  157.6570 C   0  0  0  0  0  0  0  0  0  0  0  0
  151.7943  142.9082  158.8185 C   0  0  0  0  0  0  0  0  0  0  0  0
  151.5495  144.2898  158.6661 C   0  0  0  0  0  0  0  0  0  0  0  0
  151.7470  145.1327  159.7768 C   0  0  0  0  0  0  0  0  0  0  0  0
  152.1778  144.5648  160.9910 C   0  0  0  0  0  0  0  0  0  0  0  0
  152.3931  143.1728  161.0406 C   0  0  0  0  0  0  0  0  0  0  0  0
  152.2079  142.3557  159.9813 N   0  0  0  0  0  0  0  0  0  0  0  0
  150.8390  138.7947  154.9566 N   0  0  0  0  0  0  0  0  0  0  0  0
  151.5604  137.6958  154.3044 C   0  0  0  0  0  0  0  0  0  0  0  0
  150.9614  136.3529  154.7639 C   0  0  0  0  0  0  0  0  0  0  0  0
  149.4880  136.2793  154.5299 N   0  3  0  0  0  0  0  0  0  0  0  0
  148.8478  135.0207  155.0236 C   0  0  1  0  0  0  0  0  0  0  0  0
  147.4658  134.7750  154.3609 C   0  0  0  0  0  0  0  0  0  0  0  0
  147.5817  133.3505  153.7939 C   0  0  2  0  0  0  0  0  0  0  0  0
  147.6191  132.3369  154.9494 C   0  0  0  0  0  0  0  0  0  0  0  0
  149.0196  132.5633  155.5443 C   0  0  0  0  0  0  0  0  0  0  0  0
  149.5888  133.6991  154.6706 C   0  0  1  0  0  0  0  0  0  0  0  0
  149.0228  133.3374  153.3022 C   0  0  0  0  0  0  0  0  0  0  0  0
  148.7782  137.4927  155.0358 C   0  0  0  0  0  0  0  0  0  0  0  0
  149.4347  138.7946  154.5461 C   0  0  0  0  0  0  0  0  0  0  0  0
  149.3916  139.7361  156.6424 H   0  0  0  0  0  0  0  0  0  0  0  0
  149.6548  141.2555  158.3365 H   0  0  0  0  0  0  0  0  0  0  0  0
  150.9920  140.2132  158.7999 H   0  0  0  0  0  0  0  0  0  0  0  0
  152.5573  141.5279  157.3780 H   0  0  0  0  0  0  0  0  0  0  0  0
  151.2428  142.5152  156.7896 H   0  0  0  0  0  0  0  0  0  0  0  0
  151.2167  144.6956  157.7221 H   0  0  0  0  0  0  0  0  0  0  0  0
  151.5710  146.1954  159.6983 H   0  0  0  0  0  0  0  0  0  0  0  0
  152.3392  145.1805  161.8634 H   0  0  0  0  0  0  0  0  0  0  0  0
  152.7227  142.7032  161.9555 H   0  0  0  0  0  0  0  0  0  0  0  0
  151.4564  137.7965  153.2230 H   0  0  0  0  0  0  0  0  0  0  0  0
  152.6349  137.6995  154.4890 H   0  0  0  0  0  0  0  0  0  0  0  0
  151.4780  135.5698  154.2133 H   0  0  0  0  0  0  0  0  0  0  0  0
  151.1679  136.1971  155.8241 H   0  0  0  0  0  0  0  0  0  0  0  0
  148.7458  135.1008  156.1074 H   0  0  0  0  0  0  0  0  0  0  0  0
  146.6422  134.8746  155.0688 H   0  0  0  0  0  0  0  0  0  0  0  0
  147.2788  135.4661  153.5381 H   0  0  0  0  0  0  0  0  0  0  0  0
  146.8337  133.1207  153.0345 H   0  0  0  0  0  0  0  0  0  0  0  0
  146.8235  132.5079  155.6757 H   0  0  0  0  0  0  0  0  0  0  0  0
  147.5208  131.3161  154.5777 H   0  0  0  0  0  0  0  0  0  0  0  0
  148.9865  132.8246  156.6024 H   0  0  0  0  0  0  0  0  0  0  0  0
  149.6241  131.6605  155.4460 H   0  0  0  0  0  0  0  0  0  0  0  0
  150.6746  133.7223  154.7256 H   0  0  0  0  0  0  0  0  0  0  0  0
  149.3480  132.3591  152.9437 H   0  0  0  0  0  0  0  0  0  0  0  0
  149.2284  134.0865  152.5356 H   0  0  0  0  0  0  0  0  0  0  0  0
  147.7344  137.4884  154.7241 H   0  0  0  0  0  0  0  0  0  0  0  0
  148.7758  137.4780  156.1272 H   0  0  0  0  0  0  0  0  0  0  0  0
  148.8848  139.6565  154.9272 H   0  0  0  0  0  0  0  0  0  0  0  0
  149.3718  138.8631  153.4590 H   0  0  0  0  0  0  0  0  0  0  0  0
  149.3712  136.2828  153.5265 H   0  0  0  0  0  0  0  0  0  0  0  0
  1  2  2  0  0  0  0
  2  3  1  0  0  0  0
  2 12  1  0  0  0  0
  3  4  1  0  0  0  0
  3 25  1  0  0  0  0
  4  5  1  0  0  0  0
  4 26  1  0  0  0  0
  4 27  1  0  0  0  0
  5  6  1  0  0  0  0
  5 28  1  0  0  0  0
  5 29  1  0  0  0  0
  6 11  1  0  0  0  0
  6  7  2  0  0  0  0
  7  8  1  0  0  0  0
  7 30  1  0  0  0  0
  8  9  2  0  0  0  0
  8 31  1  0  0  0  0
  9 10  1  0  0  0  0
  9 32  1  0  0  0  0
 10 11  2  0  0  0  0
 10 33  1  0  0  0  0
 12 24  1  0  0  0  0
 12 13  1  0  0  0  0
 13 14  1  0  0  0  0
 13 34  1  0  0  0  0
 13 35  1  0  0  0  0
 14 15  1  0  0  0  0
 14 36  1  0  0  0  0
 14 37  1  0  0  0  0
 15 16  1  0  0  0  0
 15 23  1  0  0  0  0
 15 53  1  0  0  0  0
 16 21  1  0  0  0  0
 16 17  1  0  0  0  0
 16 38  1  0  0  0  0
 17 18  1  0  0  0  0
 17 39  1  0  0  0  0
 17 40  1  0  0  0  0
 18 22  1  0  0  0  0
 18 19  1  0  0  0  0
 18 41  1  0  0  0  0
 19 20  1  0  0  0  0
 19 42  1  0  0  0  0
 19 43  1  0  0  0  0
 20 21  1  0  0  0  0
 20 44  1  0  0  0  0
 20 45  1  0  0  0  0
 21 22  1  0  0  0  0
 21 46  1  0  0  0  0
 22 47  1  0  0  0  0
 22 48  1  0  0  0  0
 23 24  1  0  0  0  0
 23 49  1  0  0  0  0
 23 50  1  0  0  0  0
 24 51  1  0  0  0  0
 24 52  1  0  0  0  0
M  CHG  1  15   1
M  END
> <s_m_source_file>
AV-unprocessed.smi

> <i_m_source_file_index>
907

> <i_lp_mmshare_version>
43012

> <i_f3d_flags>
0

> <s_epik_input>
W0NIMl0xW0NIMl1bQ0BASF0oW0NIMl0yKVtDQEBIXShbQ0gyXVtDQEhdMTIpTihbQ0gyXVtDSDJdMylbQ0gyXVtDSDJdTjNDKD1PKVtOSF1bQ0gyXVtDSDJdYzRbY0hdW2NIXVtjSF1bY0hdbjQ=

> <s_epik_cmdline>
J2VwaWtfcHl0aG9uJywgJy1waCcsICc3LjAnLCAnLXRuJywgJzgnLCAnLW1hJywgJzIwMCcsICctbWV0YWxfYmluZGluZycsICctaW1hZScsICc8aW5maWxlLm1hZT4nLCAnLW9tYWUnLCAnPG91dGZpbGUubWFlPic=

> <r_epik_Ionization_Penalty>
0.0419258

> <r_epik_Ionization_Penalty_Charging>
0.00262064

> <r_epik_Ionization_Penalty_Neutral>
0.0393052

> <r_epik_State_Penalty>
0.0329887

> <r_epik_Charging_Adjusted_Penalty>
0.0356093

> <i_epik_Tot_Q>
1

> <i_epik_Tot_abs_Q>
1

> <r_epik_Metal_State_Penalty>
0.0309172

> <b_epik_Metal_Only>
0

> <s_lp_Force_Field>
OPLS_2005

> <r_lp_Energy>
96.5641

> <b_lp_Chiralities_Consistent>
1

> <s_lp_Variant>
AV-unprocessed.smi:907-2

> <Gold.Version>
5.8.1

> <Gold.Id.Protein>
6NUR|6NUR_protein|mol2

> <Gold.PLP.Fitness>
53.0637

> <Gold.PLP.PLP>
-45.7622

> <Gold.PLP.part.hbond>
-2.0000

> <Gold.PLP.part.metal>
0.0000

> <Gold.PLP.part.buried>
-3.2320

> <Gold.PLP.part.nonpolar>
-39.3560

> <Gold.PLP.part.repulsive>
0.0512

> <Gold.PLP.ligand.clash>
0.6600

> <Gold.PLP.ligand.torsion>
0.5761

> <Gold.PLP.Chemscore.Hbond>
3.0000

> <Gold.PLP.Chemscore.CHOScore>
0.0000

> <Gold.PLP.Chemscore.Metal>
0.0000

> <Gold.Chemscore.Hbonds>
donor molecule, donor type, donor heavy atom, donor atom, acceptor molecule, acceptor atom, score
      L1  H    15    53       P1  7948  2.00
      P1  H  7997  8008       L1     1  1.00

> <Gold.PLP.Chemscore.Internal.Correction>
0.1137

> <Gold.Rescore>
     Score         DG    S(hbond)    S(metal)    S(lipo)     H(rot)  DE(clash)    DE(int)     intcor
     20.44     -22.20       1.93        0.00     117.89       1.37       0.04       1.72       ----

> <Gold.Chemscore.Fitness>
20.4427

> <Gold.Chemscore.DG>
-22.2037

> <Gold.Chemscore.ZeroCoef>
-5.4800

> <Gold.Chemscore.Hbond>
1.9298

> <Gold.Chemscore.Metal>
0.0000

> <Gold.Chemscore.Lipo>
117.8922

> <Gold.Chemscore.Internal_Hbond>
0.0000

> <Gold.Chemscore.DEClash>
0.0437

> <Gold.Chemscore.DEInternal>
1.7173

> <Gold.Chemscore.Rot>
1.3731

> <Gold.Chemscore.Internal.Correction>
   9.000000E+99

> <Gold.Chemscore.Hbonds>
donor molecule, donor type, donor heavy atom, donor atom, acceptor molecule, acceptor atom, score
      L1  H    15    53       P1  7948  0.78
      P1  H  7997  8008       L1     1  1.00

> <Gold.Chemscore.Hbond.Weighted>
-6.4455

> <Gold.Chemscore.Metal.Weighted>
-0.0000

> <Gold.Chemscore.Lipo.Weighted>
-13.7934

> <Gold.Chemscore.Internal_Hbond.Weighted>
0.0000

> <Gold.Chemscore.DEClash.Weighted>
0.0437

> <Gold.Chemscore.DEInternal.Weighted>
1.7173

> <Gold.Chemscore.Rot.Weighted>
3.5152

> <Gold.Chemscore.Internal.Correction.Weighted>
   9.000000E+99

> <Gold.Protein.RotatedTorsions>
[ 6907 6896 6895 6894 ] final  139.67 input  -60.11 | X-H torsion
[ 7974 7965 7964 7962 ] final -111.75 input  175.53 | X-H torsion
[ 8008 7997 7996 7995 ] final  -39.84 input   59.86 | X-H torsion
[ 10167 10162 10161 10158 ] final   36.76 input  -65.29 | X-H torsion
[ 10718 10713 10712 10709 ] final  147.89 input   66.30 | X-H torsion
[ 10763 10752 10751 10750 ] final -133.02 input  -60.55 | X-H torsion
[ 11005 11000 10999 10996 ] final -151.43 input  -57.11 | X-H torsion

> <Gold.Protein.ActiveResidues>
 VAL166  LYS551  ARG553  GLY616  TRP617  ASP618  TYR619  PRO620  LYS621  CYS622 
 ASP623  PHE694  ASN695  SER759  ASP760  ASP761  ALA762  ILE779  LEU786  VAL792 
 PHE793  MET794  SER795  GLU796  ALA797  LYS798  CYS799  TRP800  GLU811  SER814 

> <Gold.Protein.RotatedAtoms>
  152.2521  133.5224  159.5331 H   0  0  0  0  0  0  0  0  0  0  0  0  # atno 6907 bound_to 6896
  150.7097  134.0945  159.3953 H   0  0  0  0  0  0  0  0  0  0  0  0  # atno 6908 bound_to 6896
  151.8865  135.0433  160.0544 H   0  0  0  0  0  0  0  0  0  0  0  0  # atno 6909 bound_to 6896
  145.1523  140.8835  143.3639 H   0  0  0  0  0  0  0  0  0  0  0  0  # atno 7974 bound_to 7965
  154.4018  140.1541  156.2930 H   0  0  0  0  0  0  0  0  0  0  0  0  # atno 8008 bound_to 7997
  155.8769  140.3446  155.5838 H   0  0  0  0  0  0  0  0  0  0  0  0  # atno 8009 bound_to 7997
  155.7712  140.0830  157.2097 H   0  0  0  0  0  0  0  0  0  0  0  0  # atno 8010 bound_to 7997
  140.4097  144.1610  150.6138 H   0  0  0  0  0  0  0  0  0  0  0  0  # atno 10167 bound_to 10162
  157.3154  131.0895  151.1283 H   0  0  0  0  0  0  0  0  0  0  0  0  # atno 10718 bound_to 10713
  154.8737  135.3779  154.4505 H   0  0  0  0  0  0  0  0  0  0  0  0  # atno 10763 bound_to 10752
  153.5182  135.7029  153.5750 H   0  0  0  0  0  0  0  0  0  0  0  0  # atno 10764 bound_to 10752
  153.4009  135.3948  155.1953 H   0  0  0  0  0  0  0  0  0  0  0  0  # atno 10765 bound_to 10752
  140.7296  134.3636  157.5169 H   0  0  0  0  0  0  0  0  0  0  0  0  # atno 11005 bound_to 11000
  145.0417  139.3254  143.5973 LP  0  0  0  0  0  0  0  0  0  0  0  0  # atno 17320 bound_to 7965
  146.3493  139.9793  142.8697 LP  0  0  0  0  0  0  0  0  0  0  0  0  # atno 17321 bound_to 7965
  140.4651  143.2434  151.9166 LP  0  0  0  0  0  0  0  0  0  0  0  0  # atno 17342 bound_to 10162
  139.4783  144.5427  151.8504 LP  0  0  0  0  0  0  0  0  0  0  0  0  # atno 17343 bound_to 10162
  157.2589  130.6649  149.5965 LP  0  0  0  0  0  0  0  0  0  0  0  0  # atno 17370 bound_to 10713
  155.9681  130.4515  150.5737 LP  0  0  0  0  0  0  0  0  0  0  0  0  # atno 17371 bound_to 10713
  139.8829  134.9009  156.2800 LP  0  0  0  0  0  0  0  0  0  0  0  0  # atno 17394 bound_to 11000
  140.9932  133.7196  156.0846 LP  0  0  0  0  0  0  0  0  0  0  0  0  # atno 17395 bound_to 11000

$$$$
