AV-unprocessed.smi:2499|AV-procd|sdf|9833|dock3
  -GOLD-   2272013463D 1   1.00000     0.00000
 Structure written by MMmdl.
 28 29  0  0  0  0  0  0  0  0  2 V2000
  151.0283  145.4228  159.0876 C   0  0  0  0  0  0  0  0  0  0  0  0
  151.6481  144.1118  158.5849 C   0  0  2  0  0  0  0  0  0  0  0  0
  150.8765  143.6387  157.4395 N   0  0  0  0  0  0  0  0  0  0  0  0
  150.8375  142.3709  157.0023 C   0  0  0  0  0  0  0  0  0  0  0  0
  151.4639  141.4474  157.5233 O   0  0  0  0  0  0  0  0  0  0  0  0
  150.0354  142.2395  155.9348 N   0  0  0  0  0  0  0  0  0  0  0  0
  149.7815  141.0347  155.2394 C   0  0  0  0  0  0  0  0  0  0  0  0
  148.6011  140.7109  154.7141 N   0  3  0  0  0  0  0  0  0  0  0  0
  148.7085  139.4803  154.1147 C   0  0  0  0  0  0  0  0  0  0  0  0
  150.0102  139.0837  154.3062 C   0  0  0  0  0  0  0  0  0  0  0  0
  150.6973  140.0505  155.0124 O   0  0  0  0  0  0  0  0  0  0  0  0
  151.7477  143.0945  159.7092 C   0  0  0  0  0  0  0  0  0  0  0  0
  152.1320  143.5188  161.1071 C   0  0  0  0  0  0  0  0  0  0  0  0
  153.0824  142.6808  160.2833 C   0  0  0  0  0  0  0  0  0  0  0  0
  151.6065  145.8387  159.9134 H   0  0  0  0  0  0  0  0  0  0  0  0
  150.0080  145.2708  159.4415 H   0  0  0  0  0  0  0  0  0  0  0  0
  150.9999  146.1744  158.2978 H   0  0  0  0  0  0  0  0  0  0  0  0
  152.6609  144.3430  158.2486 H   0  0  0  0  0  0  0  0  0  0  0  0
  150.3294  144.3315  156.9489 H   0  0  0  0  0  0  0  0  0  0  0  0
  147.7454  141.2515  154.7310 H   0  0  0  0  0  0  0  0  0  0  0  0
  147.8654  139.0181  153.6214 H   0  0  0  0  0  0  0  0  0  0  0  0
  150.5722  138.2047  154.0251 H   0  0  0  0  0  0  0  0  0  0  0  0
  150.9939  142.3111  159.6525 H   0  0  0  0  0  0  0  0  0  0  0  0
  152.3954  144.5627  161.2671 H   0  0  0  0  0  0  0  0  0  0  0  0
  151.6247  143.0327  161.9379 H   0  0  0  0  0  0  0  0  0  0  0  0
  153.2058  141.6369  160.5635 H   0  0  0  0  0  0  0  0  0  0  0  0
  153.9768  143.1700  159.9022 H   0  0  0  0  0  0  0  0  0  0  0  0
  149.5699  143.0666  155.5917 H   0  0  0  0  0  0  0  0  0  0  0  0
  1  2  1  0  0  0  0
  1 15  1  0  0  0  0
  1 16  1  0  0  0  0
  1 17  1  0  0  0  0
  2  3  1  0  0  0  0
  2 12  1  0  0  0  0
  2 18  1  0  0  0  0
  3 19  1  0  0  0  0
  3  4  1  0  0  0  0
  4  6  1  0  0  0  0
  4  5  2  0  0  0  0
  6  7  1  0  0  0  0
  6 28  1  0  0  0  0
  7 11  1  0  0  0  0
  7  8  2  0  0  0  0
  8 20  1  0  0  0  0
  8  9  1  0  0  0  0
  9 21  1  0  0  0  0
  9 10  2  0  0  0  0
 10 22  1  0  0  0  0
 10 11  1  0  0  0  0
 12 14  1  0  0  0  0
 12 13  1  0  0  0  0
 12 23  1  0  0  0  0
 13 14  1  0  0  0  0
 13 24  1  0  0  0  0
 13 25  1  0  0  0  0
 14 26  1  0  0  0  0
 14 27  1  0  0  0  0
M  CHG  1   8   1
M  END
> <s_m_source_file>
AV-unprocessed.smi

> <i_m_source_file_index>
2499

> <i_lp_mmshare_version>
43012

> <i_f3d_flags>
0

> <s_epik_input>
W0NIMl0xW0NIMl1bQ0hdMVtDQEhdKFtDSDNdKVtOSF1DKD1PKVtOSF1jMm5bY0hdW2NIXW8y

> <s_epik_cmdline>
J2VwaWtfcHl0aG9uJywgJy1waCcsICc3LjAnLCAnLXRuJywgJzgnLCAnLW1hJywgJzIwMCcsICctbWV0YWxfYmluZGluZycsICctaW1hZScsICc8aW5maWxlLm1hZT4nLCAnLW9tYWUnLCAnPG91dGZpbGUubWFlPic=

> <r_epik_Ionization_Penalty>
6.56099

> <r_epik_Ionization_Penalty_Charging>
6.51293

> <r_epik_Ionization_Penalty_Neutral>
0.0480564

> <r_epik_State_Penalty>
1.72359

> <r_epik_Charging_Adjusted_Penalty>
8.23652

> <i_epik_Tot_Q>
1

> <i_epik_Tot_abs_Q>
1

> <r_epik_Metal_State_Penalty>
1.73747

> <b_epik_Metal_Only>
0

> <s_lp_Force_Field>
OPLS_2005

> <r_lp_Energy>
20.6817

> <b_lp_Chiralities_Consistent>
1

> <s_lp_Variant>
AV-unprocessed.smi:2499-3

> <Gold.Version>
5.8.1

> <Gold.Id.Protein>
6NUR|6NUR_protein|mol2

> <Gold.PLP.Fitness>
41.2784

> <Gold.PLP.PLP>
-34.2115

> <Gold.PLP.part.hbond>
-3.0000

> <Gold.PLP.part.metal>
0.0000

> <Gold.PLP.part.buried>
-3.2535

> <Gold.PLP.part.nonpolar>
-27.9510

> <Gold.PLP.part.repulsive>
0.3102

> <Gold.PLP.ligand.clash>
0.0000

> <Gold.PLP.ligand.torsion>
1.5000

> <Gold.PLP.Chemscore.Hbond>
3.0000

> <Gold.PLP.Chemscore.CHOScore>
0.0000

> <Gold.PLP.Chemscore.Metal>
0.0000

> <Gold.Chemscore.Hbonds>
donor molecule, donor type, donor heavy atom, donor atom, acceptor molecule, acceptor atom, score
      L1  H     3    19       P1  8028  0.99
      L1  H     6    28       P1  8028  1.00
      P1  H  7989  7998       L1    11  0.81

> <Gold.PLP.Chemscore.Internal.Correction>
1.0668

> <Gold.Rescore>
     Score         DG    S(hbond)    S(metal)    S(lipo)     H(rot)  DE(clash)    DE(int)     intcor
     17.21     -20.33       2.89        0.00      72.80       1.30       0.09       3.03       ----

> <Gold.Chemscore.Fitness>
17.2108

> <Gold.Chemscore.DG>
-20.3287

> <Gold.Chemscore.ZeroCoef>
-5.4800

> <Gold.Chemscore.Hbond>
2.8945

> <Gold.Chemscore.Metal>
0.0000

> <Gold.Chemscore.Lipo>
72.8048

> <Gold.Chemscore.Internal_Hbond>
0.0000

> <Gold.Chemscore.DEClash>
0.0856

> <Gold.Chemscore.DEInternal>
3.0323

> <Gold.Chemscore.Rot>
1.3036

> <Gold.Chemscore.Internal.Correction>
   9.000000E+99

> <Gold.Chemscore.Hbonds>
donor molecule, donor type, donor heavy atom, donor atom, acceptor molecule, acceptor atom, score
      L1  H     3    19       P1  8028  0.85
      L1  H     6    28       P1  8028  0.99
      P1  H  7989  7998       L1    11  0.03

> <Gold.Chemscore.Hbond.Weighted>
-9.6677

> <Gold.Chemscore.Metal.Weighted>
-0.0000

> <Gold.Chemscore.Lipo.Weighted>
-8.5182

> <Gold.Chemscore.Internal_Hbond.Weighted>
0.0000

> <Gold.Chemscore.DEClash.Weighted>
0.0856

> <Gold.Chemscore.DEInternal.Weighted>
3.0323

> <Gold.Chemscore.Rot.Weighted>
3.3371

> <Gold.Chemscore.Internal.Correction.Weighted>
   9.000000E+99

> <Gold.Protein.RotatedTorsions>
[ 6907 6896 6895 6894 ] final  129.91 input  -60.11 | X-H torsion
[ 7974 7965 7964 7962 ] final  -93.02 input  175.53 | X-H torsion
[ 8008 7997 7996 7995 ] final   -3.03 input   59.86 | X-H torsion
[ 10167 10162 10161 10158 ] final  -42.51 input  -65.29 | X-H torsion
[ 10718 10713 10712 10709 ] final    9.95 input   66.30 | X-H torsion
[ 10763 10752 10751 10750 ] final  117.89 input  -60.55 | X-H torsion
[ 11005 11000 10999 10996 ] final -131.96 input  -57.11 | X-H torsion

> <Gold.Protein.ActiveResidues>
 VAL166  LYS551  ARG553  GLY616  TRP617  ASP618  TYR619  PRO620  LYS621  CYS622 
 ASP623  PHE694  ASN695  SER759  ASP760  ASP761  ALA762  ILE779  LEU786  VAL792 
 PHE793  MET794  SER795  GLU796  ALA797  LYS798  CYS799  TRP800  GLU811  SER814 

> <Gold.Protein.RotatedAtoms>
  152.3578  133.6259  159.5992 H   0  0  0  0  0  0  0  0  0  0  0  0  # atno 6907 bound_to 6896
  150.7580  133.9472  159.3483 H   0  0  0  0  0  0  0  0  0  0  0  0  # atno 6908 bound_to 6896
  151.7314  135.0875  160.0352 H   0  0  0  0  0  0  0  0  0  0  0  0  # atno 6909 bound_to 6896
  145.3921  140.9529  143.2335 H   0  0  0  0  0  0  0  0  0  0  0  0  # atno 7974 bound_to 7965
  154.6293  140.2519  155.7454 H   0  0  0  0  0  0  0  0  0  0  0  0  # atno 8008 bound_to 7997
  156.2470  140.2910  156.0557 H   0  0  0  0  0  0  0  0  0  0  0  0  # atno 8009 bound_to 7997
  155.1771  140.0388  157.2865 H   0  0  0  0  0  0  0  0  0  0  0  0  # atno 8010 bound_to 7997
  140.6967  143.3034  151.3219 H   0  0  0  0  0  0  0  0  0  0  0  0  # atno 10167 bound_to 10162
  156.9739  130.5979  149.5671 H   0  0  0  0  0  0  0  0  0  0  0  0  # atno 10718 bound_to 10713
  153.5592  135.3524  155.2792 H   0  0  0  0  0  0  0  0  0  0  0  0  # atno 10763 bound_to 10752
  154.8697  135.4132  154.2850 H   0  0  0  0  0  0  0  0  0  0  0  0  # atno 10764 bound_to 10752
  153.3592  135.7059  153.6795 H   0  0  0  0  0  0  0  0  0  0  0  0  # atno 10765 bound_to 10752
  140.9212  134.1441  157.4312 H   0  0  0  0  0  0  0  0  0  0  0  0  # atno 11005 bound_to 11000
  144.8433  139.5437  143.6890 LP  0  0  0  0  0  0  0  0  0  0  0  0  # atno 17320 bound_to 7965
  146.2793  139.6834  142.9241 LP  0  0  0  0  0  0  0  0  0  0  0  0  # atno 17321 bound_to 7965
  139.6430  144.0503  152.2569 LP  0  0  0  0  0  0  0  0  0  0  0  0  # atno 17342 bound_to 10162
  140.0015  144.6290  150.7726 LP  0  0  0  0  0  0  0  0  0  0  0  0  # atno 17343 bound_to 10162
  156.0271  130.5365  150.8437 LP  0  0  0  0  0  0  0  0  0  0  0  0  # atno 17370 bound_to 10713
  157.5573  131.0945  150.9609 LP  0  0  0  0  0  0  0  0  0  0  0  0  # atno 17371 bound_to 10713
  139.8776  134.9972  156.5834 LP  0  0  0  0  0  0  0  0  0  0  0  0  # atno 17394 bound_to 11000
  140.7985  133.8525  155.8706 LP  0  0  0  0  0  0  0  0  0  0  0  0  # atno 17395 bound_to 11000

$$$$
