AV-unprocessed.smi:2822|AV-procd|sdf|10868|dock3
  -GOLD-   2272015313D 1   1.00000     0.00000
 Structure written by MMmdl.
 40 42  0  0  0  0  0  0  0  0  2 V2000
  147.7957  133.0114  152.6439 Cl  0  0  0  0  0  0  0  0  0  0  0  0
  146.2888  133.0182  151.7952 C   0  0  0  0  0  0  0  0  0  0  0  0
  145.5580  131.8204  151.6582 C   0  0  0  0  0  0  0  0  0  0  0  0
  144.3767  131.7398  151.0109 N   0  0  0  0  0  0  0  0  0  0  0  0
  143.8781  132.8709  150.4707 C   0  0  0  0  0  0  0  0  0  0  0  0
  144.5261  134.1200  150.5492 C   0  0  0  0  0  0  0  0  0  0  0  0
  145.7646  134.2028  151.2282 C   0  0  0  0  0  0  0  0  0  0  0  0
  146.4776  135.4045  151.3577 N   0  0  0  0  0  0  0  0  0  0  0  0
  145.9228  136.6618  150.8803 C   0  0  0  0  0  0  0  0  0  0  0  0
  145.6816  137.6435  152.0356 C   0  0  2  0  0  0  0  0  0  0  0  0
  146.6916  138.8055  152.0184 C   0  0  0  0  0  0  0  0  0  0  0  0
  146.4784  139.6983  153.1813 N   0  3  2  0  0  0  0  0  0  0  0  0
  147.4057  140.8581  153.1835 C   0  0  0  0  0  0  0  0  0  0  0  0
  147.0953  141.8124  154.3480 C   0  0  0  0  0  0  0  0  0  0  0  0
  147.1372  141.0693  155.6895 C   0  0  0  0  0  0  0  0  0  0  0  0
  146.1928  139.8603  155.6506 C   0  0  0  0  0  0  0  0  0  0  0  0
  146.5156  138.9365  154.4593 C   0  0  1  0  0  0  0  0  0  0  0  0
  145.5379  137.7471  154.3918 C   0  0  0  0  0  0  0  0  0  0  0  0
  145.8374  136.9376  153.2621 O   0  0  0  0  0  0  0  0  0  0  0  0
  145.9332  130.8997  152.0804 H   0  0  0  0  0  0  0  0  0  0  0  0
  142.9313  132.7786  149.9593 H   0  0  0  0  0  0  0  0  0  0  0  0
  144.0644  134.9823  150.0927 H   0  0  0  0  0  0  0  0  0  0  0  0
  147.4619  135.3648  151.5819 H   0  0  0  0  0  0  0  0  0  0  0  0
  146.5915  137.1048  150.1412 H   0  0  0  0  0  0  0  0  0  0  0  0
  144.9764  136.4531  150.3802 H   0  0  0  0  0  0  0  0  0  0  0  0
  144.6675  138.0420  151.9621 H   0  0  0  0  0  0  0  0  0  0  0  0
  147.7119  138.4184  152.0369 H   0  0  0  0  0  0  0  0  0  0  0  0
  146.5831  139.3782  151.0963 H   0  0  0  0  0  0  0  0  0  0  0  0
  148.4350  140.5033  153.2550 H   0  0  0  0  0  0  0  0  0  0  0  0
  147.3203  141.3963  152.2386 H   0  0  0  0  0  0  0  0  0  0  0  0
  147.8097  142.6363  154.3563 H   0  0  0  0  0  0  0  0  0  0  0  0
  146.1099  142.2580  154.2057 H   0  0  0  0  0  0  0  0  0  0  0  0
  148.1554  140.7364  155.8958 H   0  0  0  0  0  0  0  0  0  0  0  0
  146.8572  141.7405  156.5021 H   0  0  0  0  0  0  0  0  0  0  0  0
  146.2685  139.3052  156.5864 H   0  0  0  0  0  0  0  0  0  0  0  0
  145.1609  140.2081  155.5806 H   0  0  0  0  0  0  0  0  0  0  0  0
  147.5253  138.5421  154.5875 H   0  0  0  0  0  0  0  0  0  0  0  0
  145.6266  137.1360  155.2905 H   0  0  0  0  0  0  0  0  0  0  0  0
  144.5025  138.0888  154.3418 H   0  0  0  0  0  0  0  0  0  0  0  0
  145.5444  140.0729  153.0936 H   0  0  0  0  0  0  0  0  0  0  0  0
  1  2  1  0  0  0  0
  2  7  1  0  0  0  0
  2  3  2  0  0  0  0
  3  4  1  0  0  0  0
  3 20  1  0  0  0  0
  4  5  2  0  0  0  0
  5  6  1  0  0  0  0
  5 21  1  0  0  0  0
  6  7  2  0  0  0  0
  6 22  1  0  0  0  0
  7  8  1  0  0  0  0
  8  9  1  0  0  0  0
  8 23  1  0  0  0  0
  9 10  1  0  0  0  0
  9 24  1  0  0  0  0
  9 25  1  0  0  0  0
 10 19  1  0  0  0  0
 10 11  1  0  0  0  0
 10 26  1  0  0  0  0
 11 12  1  0  0  0  0
 11 27  1  0  0  0  0
 11 28  1  0  0  0  0
 12 17  1  0  0  0  0
 12 13  1  0  0  0  0
 12 40  1  0  0  0  0
 13 14  1  0  0  0  0
 13 29  1  0  0  0  0
 13 30  1  0  0  0  0
 14 15  1  0  0  0  0
 14 31  1  0  0  0  0
 14 32  1  0  0  0  0
 15 16  1  0  0  0  0
 15 33  1  0  0  0  0
 15 34  1  0  0  0  0
 16 17  1  0  0  0  0
 16 35  1  0  0  0  0
 16 36  1  0  0  0  0
 17 18  1  0  0  0  0
 17 37  1  0  0  0  0
 18 19  1  0  0  0  0
 18 38  1  0  0  0  0
 18 39  1  0  0  0  0
M  CHG  1  12   1
M  END
> <s_m_source_file>
AV-unprocessed.smi

> <i_m_source_file_index>
2822

> <i_lp_mmshare_version>
43012

> <i_f3d_flags>
0

> <s_epik_input>
Q2xjMVtjSF1uW2NIXVtjSF1jMVtOSF1bQ0gyXVtDQEhdKFtDSDJdMilPW0NIMl1bQ0BASF0oTjIzKVtDSDJdW0NIMl1bQ0gyXVtDSDJdMw==

> <s_epik_cmdline>
J2VwaWtfcHl0aG9uJywgJy1waCcsICc3LjAnLCAnLXRuJywgJzgnLCAnLW1hJywgJzIwMCcsICctbWV0YWxfYmluZGluZycsICctaW1hZScsICc8aW5maWxlLm1hZT4nLCAnLW9tYWUnLCAnPG91dGZpbGUubWFlPic=

> <r_lp_tautomer_probability>
0.999999

> <r_epik_Ionization_Penalty>
0.88937

> <r_epik_Ionization_Penalty_Charging>
0.0803403

> <r_epik_Ionization_Penalty_Neutral>
0.80903

> <r_epik_State_Penalty>
0.931884

> <r_epik_Charging_Adjusted_Penalty>
1.01222

> <i_epik_Tot_Q>
1

> <i_epik_Tot_abs_Q>
1

> <r_epik_Metal_State_Penalty>
0.0782275

> <b_epik_Metal_Only>
0

> <s_lp_Force_Field>
OPLS_2005

> <r_lp_Energy>
28.742

> <b_lp_Chiralities_Consistent>
1

> <s_lp_Variant>
AV-unprocessed.smi:2822-9

> <Gold.Version>
5.8.1

> <Gold.Id.Protein>
6NUR|6NUR_protein|mol2

> <Gold.PLP.Fitness>
41.3866

> <Gold.PLP.PLP>
-30.8293

> <Gold.PLP.part.hbond>
-2.0000

> <Gold.PLP.part.metal>
0.0000

> <Gold.PLP.part.buried>
0.3655

> <Gold.PLP.part.nonpolar>
-29.4857

> <Gold.PLP.part.repulsive>
0.4092

> <Gold.PLP.ligand.clash>
0.0000

> <Gold.PLP.ligand.torsion>
0.7002

> <Gold.PLP.Chemscore.Hbond>
2.9920

> <Gold.PLP.Chemscore.CHOScore>
0.9938

> <Gold.PLP.Chemscore.Metal>
0.0000

> <Gold.Chemscore.Hbonds>
donor molecule, donor type, donor heavy atom, donor atom, acceptor molecule, acceptor atom, score
      L1  H     8    23       P1  7948  0.98
      L1  H    12    40       P1 10175  2.00
      L1  C     5    21       P1 10186  0.92

> <Gold.PLP.Chemscore.Internal.Correction>
0.0003

> <Gold.Rescore>
     Score         DG    S(hbond)    S(metal)    S(lipo)     H(rot)  DE(clash)    DE(int)     intcor
     17.27     -18.89       1.84        0.00      87.62       1.17       0.90       0.72       ----

> <Gold.Chemscore.Fitness>
17.2671

> <Gold.Chemscore.DG>
-18.8876

> <Gold.Chemscore.ZeroCoef>
-5.4800

> <Gold.Chemscore.Hbond>
1.8413

> <Gold.Chemscore.Metal>
0.0000

> <Gold.Chemscore.Lipo>
87.6158

> <Gold.Chemscore.Internal_Hbond>
0.0000

> <Gold.Chemscore.DEClash>
0.9010

> <Gold.Chemscore.DEInternal>
0.7195

> <Gold.Chemscore.Rot>
1.1693

> <Gold.Chemscore.Internal.Correction>
   9.000000E+99

> <Gold.Chemscore.Hbonds>
donor molecule, donor type, donor heavy atom, donor atom, acceptor molecule, acceptor atom, score
      L1  H     8    23       P1  7948  0.85
      L1  H    12    40       P1 10175  0.96

> <Gold.Chemscore.Hbond.Weighted>
-6.1499

> <Gold.Chemscore.Metal.Weighted>
-0.0000

> <Gold.Chemscore.Lipo.Weighted>
-10.2510

> <Gold.Chemscore.Internal_Hbond.Weighted>
0.0000

> <Gold.Chemscore.DEClash.Weighted>
0.9010

> <Gold.Chemscore.DEInternal.Weighted>
0.7195

> <Gold.Chemscore.Rot.Weighted>
2.9934

> <Gold.Chemscore.Internal.Correction.Weighted>
   9.000000E+99

> <Gold.Protein.RotatedTorsions>
[ 6907 6896 6895 6894 ] final    0.54 input  -60.11 | X-H torsion
[ 7974 7965 7964 7962 ] final  -96.68 input  175.53 | X-H torsion
[ 8008 7997 7996 7995 ] final -146.07 input   59.86 | X-H torsion
[ 10167 10162 10161 10158 ] final   14.01 input  -65.29 | X-H torsion
[ 10718 10713 10712 10709 ] final  -39.34 input   66.30 | X-H torsion
[ 10763 10752 10751 10750 ] final  166.55 input  -60.55 | X-H torsion
[ 11005 11000 10999 10996 ] final -159.80 input  -57.11 | X-H torsion

> <Gold.Protein.ActiveResidues>
 VAL166  LYS551  ARG553  GLY616  TRP617  ASP618  TYR619  PRO620  LYS621  CYS622 
 ASP623  PHE694  ASN695  SER759  ASP760  ASP761  ALA762  ILE779  LEU786  VAL792 
 PHE793  MET794  SER795  GLU796  ALA797  LYS798  CYS799  TRP800  GLU811  SER814 

> <Gold.Protein.RotatedAtoms>
  151.5781  135.1059  160.0010 H   0  0  0  0  0  0  0  0  0  0  0  0  # atno 6907 bound_to 6896
  152.4367  133.7370  159.6630 H   0  0  0  0  0  0  0  0  0  0  0  0  # atno 6908 bound_to 6896
  150.8266  133.8091  159.3139 H   0  0  0  0  0  0  0  0  0  0  0  0  # atno 6909 bound_to 6896
  145.3437  140.9464  143.2593 H   0  0  0  0  0  0  0  0  0  0  0  0  # atno 7974 bound_to 7965
  155.5535  140.0619  157.2845 H   0  0  0  0  0  0  0  0  0  0  0  0  # atno 8008 bound_to 7997
  154.4413  140.1898  156.0755 H   0  0  0  0  0  0  0  0  0  0  0  0  # atno 8009 bound_to 7997
  156.0499  140.3285  155.7343 H   0  0  0  0  0  0  0  0  0  0  0  0  # atno 8010 bound_to 7997
  140.5964  143.8693  150.6922 H   0  0  0  0  0  0  0  0  0  0  0  0  # atno 10167 bound_to 10162
  156.2935  130.4231  149.8214 H   0  0  0  0  0  0  0  0  0  0  0  0  # atno 10718 bound_to 10713
  154.3406  135.2754  155.2424 H   0  0  0  0  0  0  0  0  0  0  0  0  # atno 10763 bound_to 10752
  154.4696  135.5886  153.6316 H   0  0  0  0  0  0  0  0  0  0  0  0  # atno 10764 bound_to 10752
  152.9858  135.6085  154.3607 H   0  0  0  0  0  0  0  0  0  0  0  0  # atno 10765 bound_to 10752
  140.6386  134.4575  157.5232 H   0  0  0  0  0  0  0  0  0  0  0  0  # atno 11005 bound_to 11000
  144.8770  139.4957  143.6741 LP  0  0  0  0  0  0  0  0  0  0  0  0  # atno 17320 bound_to 7965
  146.2997  139.7386  142.9101 LP  0  0  0  0  0  0  0  0  0  0  0  0  # atno 17321 bound_to 7965
  140.2228  143.3795  152.1629 LP  0  0  0  0  0  0  0  0  0  0  0  0  # atno 17342 bound_to 10162
  139.5261  144.7104  151.5225 LP  0  0  0  0  0  0  0  0  0  0  0  0  # atno 17343 bound_to 10162
  156.5619  130.8387  151.3331 LP  0  0  0  0  0  0  0  0  0  0  0  0  # atno 17370 bound_to 10713
  157.7349  130.9753  150.2053 LP  0  0  0  0  0  0  0  0  0  0  0  0  # atno 17371 bound_to 10713
  139.9089  134.8388  156.1602 LP  0  0  0  0  0  0  0  0  0  0  0  0  # atno 17394 bound_to 11000
  141.0623  133.6835  156.1977 LP  0  0  0  0  0  0  0  0  0  0  0  0  # atno 17395 bound_to 11000

$$$$
