AV-unprocessed.smi:2849|AV-procd|sdf|10960|dock3
  -GOLD-   2272015413D 1   1.00000     0.00000
 Structure written by MMmdl.
 55 58  0  0  0  0  0  0  0  0  2 V2000
  142.1495  134.3254  152.5970 C   0  0  0  0  0  0  0  0  0  0  0  0
  143.4746  134.1313  153.2323 N   0  3  2  0  0  0  0  0  0  0  0  0
  143.7883  135.0857  154.3221 C   0  0  1  0  0  0  0  0  0  0  0  0
  144.9556  134.5230  155.1650 C   0  0  0  0  0  0  0  0  0  0  0  0
  146.1961  134.1387  154.3360 C   0  0  0  0  0  0  0  0  0  0  0  0
  145.8307  133.4314  153.0161 C   0  0  0  0  0  0  0  0  0  0  0  0
  144.6131  134.0465  152.2869 C   0  0  2  0  0  0  0  0  0  0  0  0
  144.8750  135.4071  151.5927 C   0  0  0  0  0  0  0  0  0  0  0  0
  144.9072  136.6451  152.5224 C   0  0  2  0  0  0  0  0  0  0  0  0
  146.2785  137.0368  152.8395 N   0  0  0  0  0  0  0  0  0  0  0  0
  146.6455  138.0025  153.6943 C   0  0  0  0  0  0  0  0  0  0  0  0
  145.8433  138.7039  154.3092 O   0  0  0  0  0  0  0  0  0  0  0  0
  147.9841  138.0928  153.7686 N   0  0  0  0  0  0  0  0  0  0  0  0
  148.7858  138.9032  154.6183 C   0  0  0  0  0  0  0  0  0  0  0  0
  148.4305  139.2958  155.9312 C   0  0  0  0  0  0  0  0  0  0  0  0
  149.3344  140.0774  156.6759 C   0  0  0  0  0  0  0  0  0  0  0  0
  150.5669  140.4376  156.0938 C   0  0  0  0  0  0  0  0  0  0  0  0
  151.4684  141.2099  156.8420 N   0  0  0  0  0  0  0  0  0  0  0  0
  150.9996  142.5323  157.2236 C   0  0  0  0  0  0  0  0  0  0  0  0
  151.9607  143.0019  158.3170 C   0  0  0  0  0  0  0  0  0  0  0  0
  152.5435  141.7113  158.9056 C   0  0  0  0  0  0  0  0  0  0  0  0
  151.9356  140.5825  158.0670 C   0  0  0  0  0  0  0  0  0  0  0  0
  150.9130  140.0652  154.8387 N   0  0  0  0  0  0  0  0  0  0  0  0
  150.0422  139.3172  154.1297 C   0  0  0  0  0  0  0  0  0  0  0  0
  144.0013  136.5206  153.7780 C   0  0  0  0  0  0  0  0  0  0  0  0
  142.0724  135.2847  152.0857 H   0  0  0  0  0  0  0  0  0  0  0  0
  141.3590  134.2784  153.3464 H   0  0  0  0  0  0  0  0  0  0  0  0
  141.9590  133.5378  151.8674 H   0  0  0  0  0  0  0  0  0  0  0  0
  142.9251  135.1213  154.9885 H   0  0  0  0  0  0  0  0  0  0  0  0
  145.2335  135.2269  155.9502 H   0  0  0  0  0  0  0  0  0  0  0  0
  144.6020  133.6285  155.6796 H   0  0  0  0  0  0  0  0  0  0  0  0
  146.8051  135.0147  154.1412 H   0  0  0  0  0  0  0  0  0  0  0  0
  146.8406  133.4891  154.9293 H   0  0  0  0  0  0  0  0  0  0  0  0
  146.6974  133.4012  152.3551 H   0  0  0  0  0  0  0  0  0  0  0  0
  145.5967  132.3908  153.2458 H   0  0  0  0  0  0  0  0  0  0  0  0
  144.3401  133.3365  151.5047 H   0  0  0  0  0  0  0  0  0  0  0  0
  145.7818  135.3541  150.9887 H   0  0  0  0  0  0  0  0  0  0  0  0
  144.0746  135.5642  150.8688 H   0  0  0  0  0  0  0  0  0  0  0  0
  144.5144  137.4748  151.9309 H   0  0  0  0  0  0  0  0  0  0  0  0
  147.0121  136.5224  152.3741 H   0  0  0  0  0  0  0  0  0  0  0  0
  148.5006  137.4973  153.1381 H   0  0  0  0  0  0  0  0  0  0  0  0
  147.4987  139.0070  156.3905 H   0  0  0  0  0  0  0  0  0  0  0  0
  149.0866  140.3866  157.6809 H   0  0  0  0  0  0  0  0  0  0  0  0
  150.9987  143.2110  156.3702 H   0  0  0  0  0  0  0  0  0  0  0  0
  149.9834  142.4846  157.6175 H   0  0  0  0  0  0  0  0  0  0  0  0
  152.7598  143.6038  157.8819 H   0  0  0  0  0  0  0  0  0  0  0  0
  151.4547  143.6118  159.0655 H   0  0  0  0  0  0  0  0  0  0  0  0
  153.6301  141.7154  158.8123 H   0  0  0  0  0  0  0  0  0  0  0  0
  152.3010  141.5946  159.9622 H   0  0  0  0  0  0  0  0  0  0  0  0
  151.1029  140.1243  158.6028 H   0  0  0  0  0  0  0  0  0  0  0  0
  152.6674  139.8030  157.8532 H   0  0  0  0  0  0  0  0  0  0  0  0
  150.3632  139.0375  153.1368 H   0  0  0  0  0  0  0  0  0  0  0  0
  143.0212  136.9150  153.5078 H   0  0  0  0  0  0  0  0  0  0  0  0
  144.3438  137.1756  154.5799 H   0  0  0  0  0  0  0  0  0  0  0  0
  143.4178  133.2240  153.6727 H   0  0  0  0  0  0  0  0  0  0  0  0
  1  2  1  0  0  0  0
  1 26  1  0  0  0  0
  1 27  1  0  0  0  0
  1 28  1  0  0  0  0
  2  7  1  0  0  0  0
  2  3  1  0  0  0  0
  2 55  1  0  0  0  0
  3 25  1  0  0  0  0
  3  4  1  0  0  0  0
  3 29  1  0  0  0  0
  4  5  1  0  0  0  0
  4 30  1  0  0  0  0
  4 31  1  0  0  0  0
  5  6  1  0  0  0  0
  5 32  1  0  0  0  0
  5 33  1  0  0  0  0
  6  7  1  0  0  0  0
  6 34  1  0  0  0  0
  6 35  1  0  0  0  0
  7  8  1  0  0  0  0
  7 36  1  0  0  0  0
  8  9  1  0  0  0  0
  8 37  1  0  0  0  0
  8 38  1  0  0  0  0
  9 10  1  0  0  0  0
  9 25  1  0  0  0  0
  9 39  1  0  0  0  0
 10 11  1  0  0  0  0
 10 40  1  0  0  0  0
 11 12  2  0  0  0  0
 11 13  1  0  0  0  0
 13 14  1  0  0  0  0
 13 41  1  0  0  0  0
 14 24  1  0  0  0  0
 14 15  2  0  0  0  0
 15 16  1  0  0  0  0
 15 42  1  0  0  0  0
 16 17  2  0  0  0  0
 16 43  1  0  0  0  0
 17 18  1  0  0  0  0
 17 23  1  0  0  0  0
 18 22  1  0  0  0  0
 18 19  1  0  0  0  0
 19 20  1  0  0  0  0
 19 44  1  0  0  0  0
 19 45  1  0  0  0  0
 20 21  1  0  0  0  0
 20 46  1  0  0  0  0
 20 47  1  0  0  0  0
 21 22  1  0  0  0  0
 21 48  1  0  0  0  0
 21 49  1  0  0  0  0
 22 50  1  0  0  0  0
 22 51  1  0  0  0  0
 23 24  2  0  0  0  0
 24 52  1  0  0  0  0
 25 53  1  0  0  0  0
 25 54  1  0  0  0  0
M  CHG  1   2   1
M  END
> <s_m_source_file>
AV-unprocessed.smi

> <i_m_source_file_index>
2849

> <i_lp_mmshare_version>
43012

> <i_f3d_flags>
0

> <s_epik_input>
W0NIMl0xW0NIMl1bQ0gyXVtDQEhdKE4oW0NIM10pW0NIXTEyKVtDSDJdW0NASF0oW0NIMl0yKVtOSF1DKD1PKVtOSF1jM1tjSF1bY0hdYyhuW2NIXTMpTjRbQ0gyXVtDSDJdW0NIMl1bQ0gyXTQ=

> <s_epik_cmdline>
J2VwaWtfcHl0aG9uJywgJy1waCcsICc3LjAnLCAnLXRuJywgJzgnLCAnLW1hJywgJzIwMCcsICctbWV0YWxfYmluZGluZycsICctaW1hZScsICc8aW5maWxlLm1hZT4nLCAnLW9tYWUnLCAnPG91dGZpbGUubWFlPic=

> <r_lp_tautomer_probability>
1

> <r_epik_Ionization_Penalty>
0.07954

> <r_epik_Ionization_Penalty_Charging>
0.00089841

> <r_epik_Ionization_Penalty_Neutral>
0.0786416

> <r_epik_State_Penalty>
0.0689917

> <r_epik_Charging_Adjusted_Penalty>
0.0698901

> <i_epik_Tot_Q>
1

> <i_epik_Tot_abs_Q>
1

> <r_epik_Metal_State_Penalty>
0.060891

> <b_epik_Metal_Only>
0

> <s_lp_Force_Field>
OPLS_2005

> <r_lp_Energy>
67.2414

> <b_lp_Chiralities_Consistent>
1

> <s_lp_Variant>
AV-unprocessed.smi:2849-4

> <Gold.Version>
5.8.1

> <Gold.Id.Protein>
6NUR|6NUR_protein|mol2

> <Gold.PLP.Fitness>
48.4033

> <Gold.PLP.PLP>
-31.5549

> <Gold.PLP.part.hbond>
-4.0000

> <Gold.PLP.part.metal>
0.0000

> <Gold.PLP.part.buried>
-4.3264

> <Gold.PLP.part.nonpolar>
-23.1754

> <Gold.PLP.part.repulsive>
0.2286

> <Gold.PLP.ligand.clash>
0.0000

> <Gold.PLP.ligand.torsion>
0.3150

> <Gold.PLP.Chemscore.Hbond>
4.9000

> <Gold.PLP.Chemscore.CHOScore>
0.9033

> <Gold.PLP.Chemscore.Metal>
0.0000

> <Gold.Chemscore.Hbonds>
donor molecule, donor type, donor heavy atom, donor atom, acceptor molecule, acceptor atom, score
      L1  H     2    55       P1 10957  2.00
      L1  H    10    40       P1  7948  1.00
      L1  H    13    41       P1  7948  1.00
      P1  H  7989  7998       L1    23  0.85
      L1  C    24    52       P1  7957  0.92

> <Gold.PLP.Chemscore.Internal.Correction>
0.0683

> <Gold.Rescore>
     Score         DG    S(hbond)    S(metal)    S(lipo)     H(rot)  DE(clash)    DE(int)     intcor
     21.18     -22.64       3.10        0.00      83.97       1.18       0.00       1.46       ----

> <Gold.Chemscore.Fitness>
21.1791

> <Gold.Chemscore.DG>
-22.6395

> <Gold.Chemscore.ZeroCoef>
-5.4800

> <Gold.Chemscore.Hbond>
3.0987

> <Gold.Chemscore.Metal>
0.0000

> <Gold.Chemscore.Lipo>
83.9693

> <Gold.Chemscore.Internal_Hbond>
0.0000

> <Gold.Chemscore.DEClash>
0.0048

> <Gold.Chemscore.DEInternal>
1.4556

> <Gold.Chemscore.Rot>
1.1776

> <Gold.Chemscore.Internal.Correction>
   9.000000E+99

> <Gold.Chemscore.Hbonds>
donor molecule, donor type, donor heavy atom, donor atom, acceptor molecule, acceptor atom, score
      L1  H     2    55       P1 10957  0.96
      L1  H    10    40       P1  7948  0.92
      L1  H    13    41       P1  7948  1.00
      P1  H  7989  7998       L1    23  0.15

> <Gold.Chemscore.Hbond.Weighted>
-10.3498

> <Gold.Chemscore.Metal.Weighted>
-0.0000

> <Gold.Chemscore.Lipo.Weighted>
-9.8244

> <Gold.Chemscore.Internal_Hbond.Weighted>
0.0000

> <Gold.Chemscore.DEClash.Weighted>
0.0048

> <Gold.Chemscore.DEInternal.Weighted>
1.4556

> <Gold.Chemscore.Rot.Weighted>
3.0147

> <Gold.Chemscore.Internal.Correction.Weighted>
   9.000000E+99

> <Gold.Protein.RotatedTorsions>
[ 6907 6896 6895 6894 ] final   87.47 input  -60.11 | X-H torsion
[ 7974 7965 7964 7962 ] final  158.85 input  175.53 | X-H torsion
[ 8008 7997 7996 7995 ] final -101.43 input   59.86 | X-H torsion
[ 10167 10162 10161 10158 ] final   45.79 input  -65.29 | X-H torsion
[ 10718 10713 10712 10709 ] final   26.68 input   66.30 | X-H torsion
[ 10763 10752 10751 10750 ] final   80.14 input  -60.55 | X-H torsion
[ 11005 11000 10999 10996 ] final  -37.15 input  -57.11 | X-H torsion

> <Gold.Protein.ActiveResidues>
 VAL166  LYS551  ARG553  GLY616  TRP617  ASP618  TYR619  PRO620  LYS621  CYS622 
 ASP623  PHE694  ASN695  SER759  ASP760  ASP761  ALA762  ILE779  LEU786  VAL792 
 PHE793  MET794  SER795  GLU796  ALA797  LYS798  CYS799  TRP800  GLU811  SER814 

> <Gold.Protein.RotatedAtoms>
  152.5411  134.2271  159.8809 H   0  0  0  0  0  0  0  0  0  0  0  0  # atno 6907 bound_to 6896
  151.2245  133.4477  159.2609 H   0  0  0  0  0  0  0  0  0  0  0  0  # atno 6908 bound_to 6896
  151.0774  134.9850  159.8395 H   0  0  0  0  0  0  0  0  0  0  0  0  # atno 6909 bound_to 6896
  144.7822  139.7536  143.6255 H   0  0  0  0  0  0  0  0  0  0  0  0  # atno 7974 bound_to 7965
  154.8424  140.0434  157.1550 H   0  0  0  0  0  0  0  0  0  0  0  0  # atno 8008 bound_to 7997
  154.9032  140.3003  155.5286 H   0  0  0  0  0  0  0  0  0  0  0  0  # atno 8009 bound_to 7997
  156.2993  140.2372  156.4063 H   0  0  0  0  0  0  0  0  0  0  0  0  # atno 8010 bound_to 7997
  140.3206  144.2710  150.6183 H   0  0  0  0  0  0  0  0  0  0  0  0  # atno 10167 bound_to 10162
  157.2101  130.6930  149.6224 H   0  0  0  0  0  0  0  0  0  0  0  0  # atno 10718 bound_to 10713
  153.1009  135.4814  154.8865 H   0  0  0  0  0  0  0  0  0  0  0  0  # atno 10763 bound_to 10752
  154.7377  135.3075  154.8784 H   0  0  0  0  0  0  0  0  0  0  0  0  # atno 10764 bound_to 10752
  153.9401  135.6835  153.4798 H   0  0  0  0  0  0  0  0  0  0  0  0  # atno 10765 bound_to 10752
  140.9929  133.6995  156.1883 H   0  0  0  0  0  0  0  0  0  0  0  0  # atno 11005 bound_to 11000
  146.2036  139.5347  142.9727 LP  0  0  0  0  0  0  0  0  0  0  0  0  # atno 17320 bound_to 7965
  145.6018  141.0354  143.2014 LP  0  0  0  0  0  0  0  0  0  0  0  0  # atno 17321 bound_to 7965
  140.5487  143.2210  151.7963 LP  0  0  0  0  0  0  0  0  0  0  0  0  # atno 17342 bound_to 10162
  139.4875  144.4505  151.9659 LP  0  0  0  0  0  0  0  0  0  0  0  0  # atno 17343 bound_to 10162
  155.9691  130.4554  150.5886 LP  0  0  0  0  0  0  0  0  0  0  0  0  # atno 17370 bound_to 10713
  157.3681  131.0761  151.1580 LP  0  0  0  0  0  0  0  0  0  0  0  0  # atno 17371 bound_to 10713
  140.7011  134.4563  157.5586 LP  0  0  0  0  0  0  0  0  0  0  0  0  # atno 17394 bound_to 11000
  139.9001  134.8576  156.1933 LP  0  0  0  0  0  0  0  0  0  0  0  0  # atno 17395 bound_to 11000

$$$$
