AV-unprocessed.smi:1232|AV-procd|sdf|5168|dock5
  -GOLD-   22720 4243D 1   1.00000     0.00000
 Structure written by MMmdl.
 53 54  0  0  0  0  0  0  0  0  1 V2000
  149.6548  132.4162  153.1545 C   0  0  0  0  0  0  0  0  0  0  0  0
  149.5014  133.2475  154.4241 C   0  0  0  0  0  0  0  0  0  0  0  0
  149.6473  132.7107  155.5209 O   0  0  0  0  0  0  0  0  0  0  0  0
  149.2018  134.5479  154.2519 N   0  0  0  0  0  0  0  0  0  0  0  0
  149.0277  135.5960  155.2681 C   0  0  1  0  0  0  0  0  0  0  0  0
  150.2927  136.4651  155.3923 C   0  0  0  0  0  0  0  0  0  0  0  0
  150.8920  136.5434  156.4650 O   0  0  0  0  0  0  0  0  0  0  0  0
  150.7000  137.0946  154.2780 N   0  0  0  0  0  0  0  0  0  0  0  0
  151.8749  137.9526  154.1657 C   0  0  0  0  0  0  0  0  0  0  0  0
  151.9238  139.0383  155.2275 C   0  0  0  0  0  0  0  0  0  0  0  0
  150.9736  140.0782  155.2397 C   0  0  0  0  0  0  0  0  0  0  0  0
  151.0575  141.0691  156.2363 C   0  0  0  0  0  0  0  0  0  0  0  0
  152.0957  140.9988  157.1960 C   0  0  0  0  0  0  0  0  0  0  0  0
  152.2050  141.9870  158.1989 N   0  0  0  0  0  0  0  0  0  0  0  0
  151.2183  143.0657  158.2099 C   0  0  0  0  0  0  0  0  0  0  0  0
  151.6536  144.1804  159.1755 C   0  0  0  0  0  0  0  0  0  0  0  0
  151.8878  143.6311  160.4681 O   0  0  0  0  0  0  0  0  0  0  0  0
  152.9321  142.6618  160.4583 C   0  0  1  0  0  0  0  0  0  0  0  0
  153.1713  142.1974  161.8989 C   0  0  0  0  0  0  0  0  0  0  0  0
  152.5340  141.4946  159.5343 C   0  0  0  0  0  0  0  0  0  0  0  0
  153.0048  139.9924  157.1832 N   0  0  0  0  0  0  0  0  0  0  0  0
  152.9209  139.0457  156.2249 C   0  0  0  0  0  0  0  0  0  0  0  0
  147.6811  136.3791  155.1619 C   0  0  0  0  0  0  0  0  0  0  0  0
  147.5405  137.4773  156.2348 C   0  0  0  0  0  0  0  0  0  0  0  0
  146.4582  135.4435  155.2322 C   0  0  0  0  0  0  0  0  0  0  0  0
  149.2836  132.9494  152.2784 H   0  0  0  0  0  0  0  0  0  0  0  0
  149.0986  131.4828  153.2446 H   0  0  0  0  0  0  0  0  0  0  0  0
  150.7050  132.1746  152.9906 H   0  0  0  0  0  0  0  0  0  0  0  0
  149.0945  134.8563  153.2967 H   0  0  0  0  0  0  0  0  0  0  0  0
  148.9675  135.0316  156.2002 H   0  0  0  0  0  0  0  0  0  0  0  0
  150.1528  136.9664  153.4391 H   0  0  0  0  0  0  0  0  0  0  0  0
  152.7947  137.3675  154.2133 H   0  0  0  0  0  0  0  0  0  0  0  0
  151.8601  138.4096  153.1758 H   0  0  0  0  0  0  0  0  0  0  0  0
  150.1872  140.1182  154.5003 H   0  0  0  0  0  0  0  0  0  0  0  0
  150.3216  141.8592  156.2594 H   0  0  0  0  0  0  0  0  0  0  0  0
  151.1007  143.4816  157.2085 H   0  0  0  0  0  0  0  0  0  0  0  0
  150.2495  142.6670  158.5144 H   0  0  0  0  0  0  0  0  0  0  0  0
  152.5522  144.6820  158.8125 H   0  0  0  0  0  0  0  0  0  0  0  0
  150.8740  144.9387  159.2483 H   0  0  0  0  0  0  0  0  0  0  0  0
  153.8476  143.1266  160.0879 H   0  0  0  0  0  0  0  0  0  0  0  0
  153.9737  141.4607  161.9455 H   0  0  0  0  0  0  0  0  0  0  0  0
  152.2746  141.7430  162.3213 H   0  0  0  0  0  0  0  0  0  0  0  0
  153.4525  143.0355  162.5369 H   0  0  0  0  0  0  0  0  0  0  0  0
  151.6636  140.9759  159.9381 H   0  0  0  0  0  0  0  0  0  0  0  0
  153.3478  140.7713  159.5071 H   0  0  0  0  0  0  0  0  0  0  0  0
  153.6762  138.2749  156.2573 H   0  0  0  0  0  0  0  0  0  0  0  0
  147.6454  136.8923  154.2015 H   0  0  0  0  0  0  0  0  0  0  0  0
  147.6205  137.0627  157.2401 H   0  0  0  0  0  0  0  0  0  0  0  0
  146.5743  137.9769  156.1591 H   0  0  0  0  0  0  0  0  0  0  0  0
  148.3023  138.2500  156.1283 H   0  0  0  0  0  0  0  0  0  0  0  0
  146.4365  134.8918  156.1722 H   0  0  0  0  0  0  0  0  0  0  0  0
  146.4521  134.7169  154.4204 H   0  0  0  0  0  0  0  0  0  0  0  0
  145.5280  136.0076  155.1582 H   0  0  0  0  0  0  0  0  0  0  0  0
  1  2  1  0  0  0  0
  1 26  1  0  0  0  0
  1 27  1  0  0  0  0
  1 28  1  0  0  0  0
  2  3  2  0  0  0  0
  2  4  1  0  0  0  0
  4  5  1  0  0  0  0
  4 29  1  0  0  0  0
  5  6  1  0  0  0  0
  5 23  1  0  0  0  0
  5 30  1  0  0  0  0
  6  7  2  0  0  0  0
  6  8  1  0  0  0  0
  8  9  1  0  0  0  0
  8 31  1  0  0  0  0
  9 10  1  0  0  0  0
  9 32  1  0  0  0  0
  9 33  1  0  0  0  0
 10 22  1  0  0  0  0
 10 11  2  0  0  0  0
 11 12  1  0  0  0  0
 11 34  1  0  0  0  0
 12 13  2  0  0  0  0
 12 35  1  0  0  0  0
 13 14  1  0  0  0  0
 13 21  1  0  0  0  0
 14 20  1  0  0  0  0
 14 15  1  0  0  0  0
 15 16  1  0  0  0  0
 15 36  1  0  0  0  0
 15 37  1  0  0  0  0
 16 17  1  0  0  0  0
 16 38  1  0  0  0  0
 16 39  1  0  0  0  0
 17 18  1  0  0  0  0
 18 19  1  0  0  0  0
 18 20  1  0  0  0  0
 18 40  1  0  0  0  0
 19 41  1  0  0  0  0
 19 42  1  0  0  0  0
 19 43  1  0  0  0  0
 20 44  1  0  0  0  0
 20 45  1  0  0  0  0
 21 22  2  0  0  0  0
 22 46  1  0  0  0  0
 23 24  1  0  0  0  0
 23 25  1  0  0  0  0
 23 47  1  0  0  0  0
 24 48  1  0  0  0  0
 24 49  1  0  0  0  0
 24 50  1  0  0  0  0
 25 51  1  0  0  0  0
 25 52  1  0  0  0  0
 25 53  1  0  0  0  0
M  END
> <s_m_source_file>
AV-unprocessed.smi

> <i_m_source_file_index>
1232

> <i_lp_mmshare_version>
43012

> <i_f3d_flags>
0

> <s_epik_input>
W0NIM11DKD1PKVtOSF1bQ0BASF0oW0NIXShbQ0gzXSlbQ0gzXSlDKD1PKVtOSF1bQ0gyXWMxW2NIXVtjSF1jKG5bY0hdMSlOMltDSDJdW0NIMl1PW0NAQEhdKFtDSDNdKVtDSDJdMg==

> <s_epik_cmdline>
J2VwaWtfcHl0aG9uJywgJy1waCcsICc3LjAnLCAnLXRuJywgJzgnLCAnLW1hJywgJzIwMCcsICctbWV0YWxfYmluZGluZycsICctaW1hZScsICc8aW5maWxlLm1hZT4nLCAnLW9tYWUnLCAnPG91dGZpbGUubWFlPic=

> <r_lp_tautomer_probability>
1

> <r_epik_Ionization_Penalty>
0.00557618

> <r_epik_Ionization_Penalty_Charging>
0

> <r_epik_Ionization_Penalty_Neutral>
0.00557618

> <r_epik_State_Penalty>
0.00408363

> <r_epik_Charging_Adjusted_Penalty>
0.00408363

> <i_epik_Tot_Q>
0

> <i_epik_Tot_abs_Q>
0

> <r_epik_Metal_State_Penalty>
-0

> <b_epik_Metal_Only>
0

> <s_lp_Force_Field>
OPLS_2005

> <r_lp_Energy>
20.4044

> <b_lp_Chiralities_Consistent>
1

> <s_lp_Variant>
AV-unprocessed.smi:1232-2

> <Gold.Version>
5.8.1

> <Gold.Id.Protein>
6NUR|6NUR_protein|mol2

> <Gold.PLP.Fitness>
49.8253

> <Gold.PLP.PLP>
-42.0625

> <Gold.PLP.part.hbond>
-3.5000

> <Gold.PLP.part.metal>
0.0000

> <Gold.PLP.part.buried>
-3.4045

> <Gold.PLP.part.nonpolar>
-34.9730

> <Gold.PLP.part.repulsive>
0.1130

> <Gold.PLP.ligand.clash>
0.0000

> <Gold.PLP.ligand.torsion>
0.7046

> <Gold.PLP.Chemscore.Hbond>
2.8384

> <Gold.PLP.Chemscore.CHOScore>
0.0000

> <Gold.PLP.Chemscore.Metal>
0.0000

> <Gold.Chemscore.Hbonds>
donor molecule, donor type, donor heavy atom, donor atom, acceptor molecule, acceptor atom, score
      L1  H     4    29       P1  7948  0.80
      L1  H     8    31       P1  7948  0.73
      P1  H  7997  8010       L1    21  0.38

> <Gold.PLP.Chemscore.Internal.Correction>
0.6568

> <Gold.Rescore>
     Score         DG    S(hbond)    S(metal)    S(lipo)     H(rot)  DE(clash)    DE(int)     intcor
     17.58     -18.50       2.16        0.00      96.23       2.13       0.18       0.75       ----

> <Gold.Chemscore.Fitness>
17.5752

> <Gold.Chemscore.DG>
-18.5012

> <Gold.Chemscore.ZeroCoef>
-5.4800

> <Gold.Chemscore.Hbond>
2.1615

> <Gold.Chemscore.Metal>
0.0000

> <Gold.Chemscore.Lipo>
96.2305

> <Gold.Chemscore.Internal_Hbond>
0.0000

> <Gold.Chemscore.DEClash>
0.1782

> <Gold.Chemscore.DEInternal>
0.7478

> <Gold.Chemscore.Rot>
2.1317

> <Gold.Chemscore.Internal.Correction>
   9.000000E+99

> <Gold.Chemscore.Hbonds>
donor molecule, donor type, donor heavy atom, donor atom, acceptor molecule, acceptor atom, score
      L1  H     4    29       P1  7948  0.11
      L1  H     8    31       P1  7948  0.10
      P1  H  7997  8010       L1    21  0.01

> <Gold.Chemscore.Hbond.Weighted>
-7.2194

> <Gold.Chemscore.Metal.Weighted>
-0.0000

> <Gold.Chemscore.Lipo.Weighted>
-11.2590

> <Gold.Chemscore.Internal_Hbond.Weighted>
0.0000

> <Gold.Chemscore.DEClash.Weighted>
0.1782

> <Gold.Chemscore.DEInternal.Weighted>
0.7478

> <Gold.Chemscore.Rot.Weighted>
5.4572

> <Gold.Chemscore.Internal.Correction.Weighted>
   9.000000E+99

> <Gold.Protein.RotatedTorsions>
[ 6907 6896 6895 6894 ] final   70.97 input  -60.11 | X-H torsion
[ 7974 7965 7964 7962 ] final  -99.10 input  175.53 | X-H torsion
[ 8008 7997 7996 7995 ] final   42.66 input   59.86 | X-H torsion
[ 10167 10162 10161 10158 ] final   -1.65 input  -65.29 | X-H torsion
[ 10718 10713 10712 10709 ] final   71.09 input   66.30 | X-H torsion
[ 10763 10752 10751 10750 ] final  -78.26 input  -60.55 | X-H torsion
[ 11005 11000 10999 10996 ] final -119.92 input  -57.11 | X-H torsion

> <Gold.Protein.ActiveResidues>
 VAL166  LYS551  ARG553  GLY616  TRP617  ASP618  TYR619  PRO620  LYS621  CYS622 
 ASP623  PHE694  ASN695  SER759  ASP760  ASP761  ALA762  ILE779  LEU786  VAL792 
 PHE793  MET794  SER795  GLU796  ALA797  LYS798  CYS799  TRP800  GLU811  SER814 

> <Gold.Protein.RotatedAtoms>
  152.4782  134.4789  159.9658 H   0  0  0  0  0  0  0  0  0  0  0  0  # atno 6907 bound_to 6896
  151.4800  133.3542  159.2844 H   0  0  0  0  0  0  0  0  0  0  0  0  # atno 6908 bound_to 6896
  150.8835  134.8256  159.7303 H   0  0  0  0  0  0  0  0  0  0  0  0  # atno 6909 bound_to 6896
  145.3120  140.9402  143.2764 H   0  0  0  0  0  0  0  0  0  0  0  0  # atno 7974 bound_to 7965
  155.2899  140.3378  155.4253 H   0  0  0  0  0  0  0  0  0  0  0  0  # atno 8008 bound_to 7997
  156.2051  140.1748  156.7857 H   0  0  0  0  0  0  0  0  0  0  0  0  # atno 8009 bound_to 7997
  154.5610  140.0687  156.8802 H   0  0  0  0  0  0  0  0  0  0  0  0  # atno 8010 bound_to 7997
  140.6819  143.6750  150.8153 H   0  0  0  0  0  0  0  0  0  0  0  0  # atno 10167 bound_to 10162
  157.6434  130.9511  150.0741 H   0  0  0  0  0  0  0  0  0  0  0  0  # atno 10718 bound_to 10713
  154.5235  135.5736  153.6700 H   0  0  0  0  0  0  0  0  0  0  0  0  # atno 10763 bound_to 10752
  152.9922  135.6187  154.2723 H   0  0  0  0  0  0  0  0  0  0  0  0  # atno 10764 bound_to 10752
  154.2645  135.2855  155.2744 H   0  0  0  0  0  0  0  0  0  0  0  0  # atno 10765 bound_to 10752
  141.0181  134.0165  157.3322 H   0  0  0  0  0  0  0  0  0  0  0  0  # atno 11005 bound_to 11000
  144.9008  139.4652  143.6633 LP  0  0  0  0  0  0  0  0  0  0  0  0  # atno 17320 bound_to 7965
  146.3114  139.7760  142.9017 LP  0  0  0  0  0  0  0  0  0  0  0  0  # atno 17321 bound_to 7965
  140.0452  143.5306  152.2699 LP  0  0  0  0  0  0  0  0  0  0  0  0  # atno 17342 bound_to 10162
  139.6147  144.7617  151.2872 LP  0  0  0  0  0  0  0  0  0  0  0  0  # atno 17343 bound_to 10162
  156.1737  130.3647  149.9130 LP  0  0  0  0  0  0  0  0  0  0  0  0  # atno 17370 bound_to 10713
  156.7100  130.8966  151.3608 LP  0  0  0  0  0  0  0  0  0  0  0  0  # atno 17371 bound_to 10713
  139.9129  135.0193  156.7765 LP  0  0  0  0  0  0  0  0  0  0  0  0  # atno 17394 bound_to 11000
  140.6620  133.9636  155.7810 LP  0  0  0  0  0  0  0  0  0  0  0  0  # atno 17395 bound_to 11000

$$$$
