AV-unprocessed.smi:2446|AV-procd|sdf|9648|dock2
  -GOLD-   2272013283D 1   1.00000     0.00000
 Structure written by MMmdl.
 40 41  0  0  0  0  0  0  0  0  2 V2000
  146.1875  133.7815  151.7442 C   0  0  0  0  0  0  0  0  0  0  0  0
  146.9059  132.5982  152.3698 C   0  0  0  0  0  0  0  0  0  0  0  0
  146.4879  131.2867  152.0556 C   0  0  0  0  0  0  0  0  0  0  0  0
  147.1134  130.2254  152.6064 N   0  3  0  0  0  0  0  0  0  0  0  0
  148.1419  130.3524  153.4702 C   0  0  0  0  0  0  0  0  0  0  0  0
  148.6076  131.6339  153.8253 C   0  0  0  0  0  0  0  0  0  0  0  0
  147.9947  132.7819  153.2606 C   0  0  0  0  0  0  0  0  0  0  0  0
  148.3928  134.1113  153.5767 N   0  0  0  0  0  0  0  0  0  0  0  0
  148.9227  134.5909  154.7190 C   0  0  0  0  0  0  0  0  0  0  0  0
  149.1200  133.9254  155.7330 O   0  0  0  0  0  0  0  0  0  0  0  0
  149.2453  135.8965  154.6713 N   0  0  0  0  0  0  0  0  0  0  0  0
  149.8355  136.7348  155.7208 C   0  0  1  0  0  0  0  0  0  0  0  0
  151.3108  137.0332  155.3922 C   0  0  0  0  0  0  0  0  0  0  0  0
  151.4579  137.9981  154.2036 C   0  0  0  0  0  0  0  0  0  0  0  0
  150.6685  139.2962  154.4337 C   0  0  0  0  0  0  0  0  0  0  0  0
  149.1786  139.0141  154.7184 C   0  0  2  0  0  0  0  0  0  0  0  0
  148.3732  140.3123  154.9317 C   0  0  0  0  0  0  0  0  0  0  0  0
  148.8294  140.9858  155.9882 F   0  0  0  0  0  0  0  0  0  0  0  0
  148.4645  141.0893  153.8525 F   0  0  0  0  0  0  0  0  0  0  0  0
  147.0867  140.0227  155.1276 F   0  0  0  0  0  0  0  0  0  0  0  0
  149.0423  138.0470  155.9163 C   0  0  0  0  0  0  0  0  0  0  0  0
  145.3532  133.4548  151.1228 H   0  0  0  0  0  0  0  0  0  0  0  0
  146.8715  134.3531  151.1164 H   0  0  0  0  0  0  0  0  0  0  0  0
  145.7927  134.4421  152.5169 H   0  0  0  0  0  0  0  0  0  0  0  0
  145.6740  131.0542  151.3840 H   0  0  0  0  0  0  0  0  0  0  0  0
  148.5560  129.4314  153.8540 H   0  0  0  0  0  0  0  0  0  0  0  0
  149.4178  131.7086  154.5340 H   0  0  0  0  0  0  0  0  0  0  0  0
  148.3517  134.7657  152.8091 H   0  0  0  0  0  0  0  0  0  0  0  0
  149.0420  136.3717  153.8034 H   0  0  0  0  0  0  0  0  0  0  0  0
  149.8229  136.1752  156.6575 H   0  0  0  0  0  0  0  0  0  0  0  0
  151.7889  137.4748  156.2677 H   0  0  0  0  0  0  0  0  0  0  0  0
  151.8491  136.1061  155.1905 H   0  0  0  0  0  0  0  0  0  0  0  0
  152.5117  138.2294  154.0451 H   0  0  0  0  0  0  0  0  0  0  0  0
  151.1100  137.5159  153.2893 H   0  0  0  0  0  0  0  0  0  0  0  0
  151.1078  139.8450  155.2678 H   0  0  0  0  0  0  0  0  0  0  0  0
  150.7681  139.9376  153.5577 H   0  0  0  0  0  0  0  0  0  0  0  0
  148.7621  138.5200  153.8393 H   0  0  0  0  0  0  0  0  0  0  0  0
  147.9908  137.8268  156.1003 H   0  0  0  0  0  0  0  0  0  0  0  0
  149.4030  138.5429  156.8182 H   0  0  0  0  0  0  0  0  0  0  0  0
  146.7917  129.2879  152.3640 H   0  0  0  0  0  0  0  0  0  0  0  0
  1  2  1  0  0  0  0
  1 22  1  0  0  0  0
  1 23  1  0  0  0  0
  1 24  1  0  0  0  0
  2  7  1  0  0  0  0
  2  3  2  0  0  0  0
  3  4  1  0  0  0  0
  3 25  1  0  0  0  0
  4  5  2  0  0  0  0
  4 40  1  0  0  0  0
  5  6  1  0  0  0  0
  5 26  1  0  0  0  0
  6  7  2  0  0  0  0
  6 27  1  0  0  0  0
  7  8  1  0  0  0  0
  8  9  1  0  0  0  0
  8 28  1  0  0  0  0
  9 10  2  0  0  0  0
  9 11  1  0  0  0  0
 11 12  1  0  0  0  0
 11 29  1  0  0  0  0
 12 21  1  0  0  0  0
 12 13  1  0  0  0  0
 12 30  1  0  0  0  0
 13 14  1  0  0  0  0
 13 31  1  0  0  0  0
 13 32  1  0  0  0  0
 14 15  1  0  0  0  0
 14 33  1  0  0  0  0
 14 34  1  0  0  0  0
 15 16  1  0  0  0  0
 15 35  1  0  0  0  0
 15 36  1  0  0  0  0
 16 17  1  0  0  0  0
 16 21  1  0  0  0  0
 16 37  1  0  0  0  0
 17 18  1  0  0  0  0
 17 19  1  0  0  0  0
 17 20  1  0  0  0  0
 21 38  1  0  0  0  0
 21 39  1  0  0  0  0
M  CHG  1   4   1
M  END
> <s_m_source_file>
AV-unprocessed.smi

> <i_m_source_file_index>
2446

> <i_lp_mmshare_version>
43012

> <i_f3d_flags>
0

> <s_epik_input>
W0NIM11jMVtjSF1uW2NIXVtjSF1jMVtOSF1DKD1PKVtOSF1bQ0BASF0yW0NIMl1bQ0gyXVtDSDJdW0NAQEhdKEMoRikoRilGKVtDSDJdMg==

> <s_epik_cmdline>
J2VwaWtfcHl0aG9uJywgJy1waCcsICc3LjAnLCAnLXRuJywgJzgnLCAnLW1hJywgJzIwMCcsICctbWV0YWxfYmluZGluZycsICctaW1hZScsICc8aW5maWxlLm1hZT4nLCAnLW9tYWUnLCAnPG91dGZpbGUubWFlPic=

> <r_epik_Ionization_Penalty>
0.736582

> <r_epik_Ionization_Penalty_Charging>
0.736562

> <r_epik_Ionization_Penalty_Neutral>
1.98379e-05

> <r_epik_State_Penalty>
0.762314

> <r_epik_Charging_Adjusted_Penalty>
1.49888

> <i_epik_Tot_Q>
1

> <i_epik_Tot_abs_Q>
1

> <r_epik_Metal_State_Penalty>
0.914579

> <b_epik_Metal_Only>
0

> <s_lp_Force_Field>
OPLS_2005

> <r_lp_Energy>
31.0639

> <b_lp_Chiralities_Consistent>
1

> <s_lp_Variant>
AV-unprocessed.smi:2446-8

> <Gold.Version>
5.8.1

> <Gold.Id.Protein>
6NUR|6NUR_protein|mol2

> <Gold.PLP.Fitness>
36.6374

> <Gold.PLP.PLP>
-31.5329

> <Gold.PLP.part.hbond>
-2.9909

> <Gold.PLP.part.metal>
0.0000

> <Gold.PLP.part.buried>
-0.0400

> <Gold.PLP.part.nonpolar>
-27.8282

> <Gold.PLP.part.repulsive>
0.0415

> <Gold.PLP.ligand.clash>
0.0000

> <Gold.PLP.ligand.torsion>
0.3267

> <Gold.PLP.Chemscore.Hbond>
1.9120

> <Gold.PLP.Chemscore.CHOScore>
0.0000

> <Gold.PLP.Chemscore.Metal>
0.0000

> <Gold.Chemscore.Hbonds>
donor molecule, donor type, donor heavy atom, donor atom, acceptor molecule, acceptor atom, score
      L1  H     8    28       P1  7948  1.00
      L1  H    11    29       P1  7948  0.91

> <Gold.PLP.Chemscore.Internal.Correction>
0.0220

> <Gold.Rescore>
     Score         DG    S(hbond)    S(metal)    S(lipo)     H(rot)  DE(clash)    DE(int)     intcor
     15.98     -16.42       1.65        0.00      68.33       1.00       0.03       0.41       ----

> <Gold.Chemscore.Fitness>
15.9775

> <Gold.Chemscore.DG>
-16.4173

> <Gold.Chemscore.ZeroCoef>
-5.4800

> <Gold.Chemscore.Hbond>
1.6476

> <Gold.Chemscore.Metal>
0.0000

> <Gold.Chemscore.Lipo>
68.3265

> <Gold.Chemscore.Internal_Hbond>
0.0000

> <Gold.Chemscore.DEClash>
0.0270

> <Gold.Chemscore.DEInternal>
0.4128

> <Gold.Chemscore.Rot>
1.0000

> <Gold.Chemscore.Internal.Correction>
   9.000000E+99

> <Gold.Chemscore.Hbonds>
donor molecule, donor type, donor heavy atom, donor atom, acceptor molecule, acceptor atom, score
      L1  H     8    28       P1  7948  0.48
      L1  H    11    29       P1  7948  0.88

> <Gold.Chemscore.Hbond.Weighted>
-5.5031

> <Gold.Chemscore.Metal.Weighted>
-0.0000

> <Gold.Chemscore.Lipo.Weighted>
-7.9942

> <Gold.Chemscore.Internal_Hbond.Weighted>
0.0000

> <Gold.Chemscore.DEClash.Weighted>
0.0270

> <Gold.Chemscore.DEInternal.Weighted>
0.4128

> <Gold.Chemscore.Rot.Weighted>
2.5600

> <Gold.Chemscore.Internal.Correction.Weighted>
   9.000000E+99

> <Gold.Protein.RotatedTorsions>
[ 6907 6896 6895 6894 ] final -172.93 input  -60.11 | X-H torsion
[ 7974 7965 7964 7962 ] final  151.57 input  175.53 | X-H torsion
[ 8008 7997 7996 7995 ] final  -35.55 input   59.86 | X-H torsion
[ 10167 10162 10161 10158 ] final  -55.34 input  -65.29 | X-H torsion
[ 10718 10713 10712 10709 ] final  119.90 input   66.30 | X-H torsion
[ 10763 10752 10751 10750 ] final   -1.55 input  -60.55 | X-H torsion
[ 11005 11000 10999 10996 ] final -102.72 input  -57.11 | X-H torsion

> <Gold.Protein.ActiveResidues>
 VAL166  LYS551  ARG553  GLY616  TRP617  ASP618  TYR619  PRO620  LYS621  CYS622 
 ASP623  PHE694  ASN695  SER759  ASP760  ASP761  ALA762  ILE779  LEU786  VAL792 
 PHE793  MET794  SER795  GLU796  ALA797  LYS798  CYS799  TRP800  GLU811  SER814 

> <Gold.Protein.RotatedAtoms>
  151.5479  133.3422  159.2947 H   0  0  0  0  0  0  0  0  0  0  0  0  # atno 6907 bound_to 6896
  150.8496  134.7819  159.7009 H   0  0  0  0  0  0  0  0  0  0  0  0  # atno 6908 bound_to 6896
  152.4546  134.5328  159.9868 H   0  0  0  0  0  0  0  0  0  0  0  0  # atno 6909 bound_to 6896
  144.8283  139.6555  143.6070 H   0  0  0  0  0  0  0  0  0  0  0  0  # atno 7974 bound_to 7965
  154.4093  140.1654  156.2230 H   0  0  0  0  0  0  0  0  0  0  0  0  # atno 8008 bound_to 7997
  155.9348  140.3412  155.6255 H   0  0  0  0  0  0  0  0  0  0  0  0  # atno 8009 bound_to 7997
  155.7062  140.0751  157.2380 H   0  0  0  0  0  0  0  0  0  0  0  0  # atno 8010 bound_to 7997
  140.6380  143.2492  151.5066 H   0  0  0  0  0  0  0  0  0  0  0  0  # atno 10167 bound_to 10162
  157.5929  131.1062  150.7961 H   0  0  0  0  0  0  0  0  0  0  0  0  # atno 10718 bound_to 10713
  153.3464  135.6983  153.6824 H   0  0  0  0  0  0  0  0  0  0  0  0  # atno 10763 bound_to 10752
  153.5569  135.3542  155.2783 H   0  0  0  0  0  0  0  0  0  0  0  0  # atno 10764 bound_to 10752
  154.8646  135.4240  154.2689 H   0  0  0  0  0  0  0  0  0  0  0  0  # atno 10765 bound_to 10752
  141.1177  133.8581  157.1395 H   0  0  0  0  0  0  0  0  0  0  0  0  # atno 11005 bound_to 11000
  146.2587  139.6362  142.9377 LP  0  0  0  0  0  0  0  0  0  0  0  0  # atno 17320 bound_to 7965
  145.4951  141.0438  143.2571 LP  0  0  0  0  0  0  0  0  0  0  0  0  # atno 17321 bound_to 7965
  139.5590  144.2204  152.1660 LP  0  0  0  0  0  0  0  0  0  0  0  0  # atno 17342 bound_to 10162
  140.1466  144.5153  150.6712 LP  0  0  0  0  0  0  0  0  0  0  0  0  # atno 17343 bound_to 10162
  156.8379  130.5038  149.5324 LP  0  0  0  0  0  0  0  0  0  0  0  0  # atno 17370 bound_to 10713
  156.0986  130.5951  150.9856 LP  0  0  0  0  0  0  0  0  0  0  0  0  # atno 17371 bound_to 10713
  140.0111  134.9988  157.0396 LP  0  0  0  0  0  0  0  0  0  0  0  0  # atno 17394 bound_to 11000
  140.4598  134.1496  155.7190 LP  0  0  0  0  0  0  0  0  0  0  0  0  # atno 17395 bound_to 11000

$$$$
