AV-unprocessed.smi:2069|AV-procd|sdf|8438|dock6
  -GOLD-   2272011133D 1   1.00000     0.00000
 Structure written by MMmdl.
 38 39  0  0  0  0  0  0  0  0  3 V2000
  150.3113  140.8927  153.3366 C   0  0  0  0  0  0  0  0  0  0  0  0
  150.9777  139.5693  153.4960 C   0  0  0  0  0  0  0  0  0  0  0  0
  152.2863  139.3905  153.2996 N   0  0  0  0  0  0  0  0  0  0  0  0
  152.6712  138.0738  153.5088 N   0  0  0  0  0  0  0  0  0  0  0  0
  151.6535  137.2797  153.8702 C   0  0  0  0  0  0  0  0  0  0  0  0
  151.8135  135.9689  154.1169 N   0  5  0  0  0  0  0  0  0  0  0  0
  150.8992  135.3050  154.8584 C   0  0  0  0  0  0  0  0  0  0  0  0
  150.9681  135.0697  156.0671 O   0  0  0  0  0  0  0  0  0  0  0  0
  149.8326  134.8943  154.1582 N   0  0  0  0  0  0  0  0  0  0  0  0
  148.6827  134.1782  154.7026 C   0  0  0  0  0  0  0  0  0  0  0  0
  147.9136  133.3590  153.6305 C   0  0  1  0  0  0  0  0  0  0  0  0
  147.2402  132.1279  154.2856 C   0  0  0  0  0  0  0  0  0  0  0  0
  146.9508  134.2363  152.8872 N   0  3  0  0  0  0  0  0  0  0  0  0
  146.3005  133.5347  151.7456 C   0  0  0  0  0  0  0  0  0  0  0  0
  145.3743  134.4802  150.9643 C   0  0  0  0  0  0  0  0  0  0  0  0
  144.3907  135.0104  151.8395 O   0  0  0  0  0  0  0  0  0  0  0  0
  144.9812  135.7765  152.8783 C   0  0  0  0  0  0  0  0  0  0  0  0
  145.9066  134.8874  153.7267 C   0  0  0  0  0  0  0  0  0  0  0  0
  150.1051  138.1189  153.9612 S   0  0  0  0  0  0  0  0  0  0  0  0
  150.4854  141.5060  154.2207 H   0  0  0  0  0  0  0  0  0  0  0  0
  149.2368  140.7626  153.2067 H   0  0  0  0  0  0  0  0  0  0  0  0
  150.7069  141.4125  152.4637 H   0  0  0  0  0  0  0  0  0  0  0  0
  149.8180  135.1032  153.1704 H   0  0  0  0  0  0  0  0  0  0  0  0
  149.0458  133.5114  155.4851 H   0  0  0  0  0  0  0  0  0  0  0  0
  148.0470  134.9082  155.2011 H   0  0  0  0  0  0  0  0  0  0  0  0
  148.6281  132.9738  152.9014 H   0  0  0  0  0  0  0  0  0  0  0  0
  147.9546  131.5272  154.8485 H   0  0  0  0  0  0  0  0  0  0  0  0
  146.8130  131.4516  153.5455 H   0  0  0  0  0  0  0  0  0  0  0  0
  146.4502  132.4258  154.9758 H   0  0  0  0  0  0  0  0  0  0  0  0
  147.0380  133.1356  151.0524 H   0  0  0  0  0  0  0  0  0  0  0  0
  145.7276  132.6843  152.1189 H   0  0  0  0  0  0  0  0  0  0  0  0
  145.9418  135.2866  150.4969 H   0  0  0  0  0  0  0  0  0  0  0  0
  144.8747  133.9364  150.1622 H   0  0  0  0  0  0  0  0  0  0  0  0
  145.5305  136.6205  152.4575 H   0  0  0  0  0  0  0  0  0  0  0  0
  144.1892  136.1932  153.5006 H   0  0  0  0  0  0  0  0  0  0  0  0
  145.3229  134.1231  154.2424 H   0  0  0  0  0  0  0  0  0  0  0  0
  146.3586  135.5238  154.4866 H   0  0  0  0  0  0  0  0  0  0  0  0
  147.4996  134.9888  152.4964 H   0  0  0  0  0  0  0  0  0  0  0  0
  1  2  1  0  0  0  0
  1 20  1  0  0  0  0
  1 21  1  0  0  0  0
  1 22  1  0  0  0  0
  2 19  1  0  0  0  0
  2  3  2  0  0  0  0
  3  4  1  0  0  0  0
  4  5  2  0  0  0  0
  5  6  1  0  0  0  0
  5 19  1  0  0  0  0
  6  7  1  0  0  0  0
  7  8  2  0  0  0  0
  7  9  1  0  0  0  0
  9 10  1  0  0  0  0
  9 23  1  0  0  0  0
 10 11  1  0  0  0  0
 10 24  1  0  0  0  0
 10 25  1  0  0  0  0
 11 12  1  0  0  0  0
 11 13  1  0  0  0  0
 11 26  1  0  0  0  0
 12 27  1  0  0  0  0
 12 28  1  0  0  0  0
 12 29  1  0  0  0  0
 13 18  1  0  0  0  0
 13 14  1  0  0  0  0
 13 38  1  0  0  0  0
 14 15  1  0  0  0  0
 14 30  1  0  0  0  0
 14 31  1  0  0  0  0
 15 16  1  0  0  0  0
 15 32  1  0  0  0  0
 15 33  1  0  0  0  0
 16 17  1  0  0  0  0
 17 18  1  0  0  0  0
 17 34  1  0  0  0  0
 17 35  1  0  0  0  0
 18 36  1  0  0  0  0
 18 37  1  0  0  0  0
M  CHG  1   6  -1
M  CHG  1  13   1
M  END
> <s_m_source_file>
AV-unprocessed.smi

> <i_m_source_file_index>
2069

> <i_lp_mmshare_version>
43012

> <i_f3d_flags>
0

> <s_epik_input>
W0NIM11jMW5uYyhzMSlbTkhdQyg9TylbTkhdW0NIMl1bQ0BIXShbQ0gzXSlOMltDSDJdW0NIMl1PW0NIMl1bQ0gyXTI=

> <s_epik_cmdline>
J2VwaWtfcHl0aG9uJywgJy1waCcsICc3LjAnLCAnLXRuJywgJzgnLCAnLW1hJywgJzIwMCcsICctbWV0YWxfYmluZGluZycsICctaW1hZScsICc8aW5maWxlLm1hZT4nLCAnLW9tYWUnLCAnPG91dGZpbGUubWFlPic=

> <r_lp_tautomer_probability>
1

> <r_epik_Ionization_Penalty>
3.53072

> <r_epik_Ionization_Penalty_Charging>
3.4216

> <r_epik_Ionization_Penalty_Neutral>
0.109115

> <r_epik_State_Penalty>
3.61496

> <r_epik_Charging_Adjusted_Penalty>
7.03656

> <i_epik_Tot_Q>
0

> <i_epik_Tot_abs_Q>
2

> <r_epik_Metal_State_Penalty>
1.13918

> <b_epik_Metal_Only>
1

> <s_lp_Force_Field>
OPLS_2005

> <r_lp_Energy>
13.0561

> <b_lp_Chiralities_Consistent>
1

> <s_lp_Variant>
AV-unprocessed.smi:2069-8

> <Gold.Version>
5.8.1

> <Gold.Id.Protein>
6NUR|6NUR_protein|mol2

> <Gold.PLP.Fitness>
43.1942

> <Gold.PLP.PLP>
-29.2503

> <Gold.PLP.part.hbond>
-3.9338

> <Gold.PLP.part.metal>
0.0000

> <Gold.PLP.part.buried>
-4.5907

> <Gold.PLP.part.nonpolar>
-21.3119

> <Gold.PLP.part.repulsive>
0.4874

> <Gold.PLP.ligand.clash>
0.0000

> <Gold.PLP.ligand.torsion>
1.3154

> <Gold.PLP.Chemscore.Hbond>
5.5000

> <Gold.PLP.Chemscore.CHOScore>
0.0000

> <Gold.PLP.Chemscore.Metal>
0.0000

> <Gold.Chemscore.Hbonds>
donor molecule, donor type, donor heavy atom, donor atom, acceptor molecule, acceptor atom, score
      L1  H    13    38       P1  7948  2.00
      P1  H 10752 10763       L1     6  0.20

> <Gold.PLP.Chemscore.Internal.Correction>
0.0747

> <Gold.Rescore>
     Score         DG    S(hbond)    S(metal)    S(lipo)     H(rot)  DE(clash)    DE(int)     intcor
     14.97     -16.70       2.99        0.00      45.91       1.62       0.03       1.70       ----

> <Gold.Chemscore.Fitness>
14.9712

> <Gold.Chemscore.DG>
-16.6988

> <Gold.Chemscore.ZeroCoef>
-5.4800

> <Gold.Chemscore.Hbond>
2.9919

> <Gold.Chemscore.Metal>
0.0000

> <Gold.Chemscore.Lipo>
45.9061

> <Gold.Chemscore.Internal_Hbond>
0.0000

> <Gold.Chemscore.DEClash>
0.0318

> <Gold.Chemscore.DEInternal>
1.6958

> <Gold.Chemscore.Rot>
1.6192

> <Gold.Chemscore.Internal.Correction>
   9.000000E+99

> <Gold.Chemscore.Hbonds>
donor molecule, donor type, donor heavy atom, donor atom, acceptor molecule, acceptor atom, score
      L1  H    13    38       P1  7948  0.96
      P1  H 10752 10763       L1     6  0.10

> <Gold.Chemscore.Hbond.Weighted>
-9.9930

> <Gold.Chemscore.Metal.Weighted>
-0.0000

> <Gold.Chemscore.Lipo.Weighted>
-5.3710

> <Gold.Chemscore.Internal_Hbond.Weighted>
0.0000

> <Gold.Chemscore.DEClash.Weighted>
0.0318

> <Gold.Chemscore.DEInternal.Weighted>
1.6958

> <Gold.Chemscore.Rot.Weighted>
4.1452

> <Gold.Chemscore.Internal.Correction.Weighted>
   9.000000E+99

> <Gold.Protein.RotatedTorsions>
[ 6907 6896 6895 6894 ] final  113.68 input  -60.11 | X-H torsion
[ 7974 7965 7964 7962 ] final   14.50 input  175.53 | X-H torsion
[ 8008 7997 7996 7995 ] final   51.81 input   59.86 | X-H torsion
[ 10167 10162 10161 10158 ] final  -32.80 input  -65.29 | X-H torsion
[ 10718 10713 10712 10709 ] final  136.47 input   66.30 | X-H torsion
[ 10763 10752 10751 10750 ] final   43.50 input  -60.55 | X-H torsion
[ 11005 11000 10999 10996 ] final  -98.09 input  -57.11 | X-H torsion

> <Gold.Protein.ActiveResidues>
 VAL166  LYS551  ARG553  GLY616  TRP617  ASP618  TYR619  PRO620  LYS621  CYS622 
 ASP623  PHE694  ASN695  SER759  ASP760  ASP761  ALA762  ILE779  LEU786  VAL792 
 PHE793  MET794  SER795  GLU796  ALA797  LYS798  CYS799  TRP800  GLU811  SER814 

> <Gold.Protein.RotatedAtoms>
  152.4847  133.8342  159.7118 H   0  0  0  0  0  0  0  0  0  0  0  0  # atno 6907 bound_to 6896
  150.8924  133.7217  159.2908 H   0  0  0  0  0  0  0  0  0  0  0  0  # atno 6908 bound_to 6896
  151.4685  135.1048  159.9797 H   0  0  0  0  0  0  0  0  0  0  0  0  # atno 6909 bound_to 6896
  146.2303  139.9031  142.8536 H   0  0  0  0  0  0  0  0  0  0  0  0  # atno 7974 bound_to 7965
  155.4415  140.3454  155.4290 H   0  0  0  0  0  0  0  0  0  0  0  0  # atno 8008 bound_to 7997
  156.1276  140.1505  156.9143 H   0  0  0  0  0  0  0  0  0  0  0  0  # atno 8009 bound_to 7997
  154.4870  140.0852  156.7488 H   0  0  0  0  0  0  0  0  0  0  0  0  # atno 8010 bound_to 7997
  140.7215  143.3667  151.1857 H   0  0  0  0  0  0  0  0  0  0  0  0  # atno 10167 bound_to 10162
  157.4463  131.1062  151.0085 H   0  0  0  0  0  0  0  0  0  0  0  0  # atno 10718 bound_to 10713
  152.9859  135.6099  154.3122 H   0  0  0  0  0  0  0  0  0  0  0  0  # atno 10763 bound_to 10752
  154.2837  135.2776  155.2687 H   0  0  0  0  0  0  0  0  0  0  0  0  # atno 10764 bound_to 10752
  154.5015  135.5865  153.6591 H   0  0  0  0  0  0  0  0  0  0  0  0  # atno 10765 bound_to 10752
  141.1357  133.8219  157.0793 H   0  0  0  0  0  0  0  0  0  0  0  0  # atno 11005 bound_to 11000
  145.2303  140.9970  143.3994 LP  0  0  0  0  0  0  0  0  0  0  0  0  # atno 17320 bound_to 7965
  144.9536  139.4056  143.6390 LP  0  0  0  0  0  0  0  0  0  0  0  0  # atno 17321 bound_to 7965
  139.7230  143.9193  152.2992 LP  0  0  0  0  0  0  0  0  0  0  0  0  # atno 17342 bound_to 10162
  139.8956  144.6941  150.8722 LP  0  0  0  0  0  0  0  0  0  0  0  0  # atno 17343 bound_to 10162
  157.0930  130.5950  149.5444 LP  0  0  0  0  0  0  0  0  0  0  0  0  # atno 17370 bound_to 10713
  155.9969  130.5039  150.7513 LP  0  0  0  0  0  0  0  0  0  0  0  0  # atno 17371 bound_to 10713
  140.0461  134.9829  157.1052 LP  0  0  0  0  0  0  0  0  0  0  0  0  # atno 17394 bound_to 11000
  140.4060  134.2032  155.7163 LP  0  0  0  0  0  0  0  0  0  0  0  0  # atno 17395 bound_to 11000

$$$$
