AV-unprocessed.smi:267|AV-procd|sdf|2039|dock10
  -GOLD-   2262021253D 1   1.00000     0.00000
 Structure written by MMmdl.
 51 54  0  0  0  0  0  0  0  0  1 V2000
  150.8891  135.6912  155.7280 C   0  0  0  0  0  0  0  0  0  0  0  0
  151.6082  136.6670  154.9949 O   0  0  0  0  0  0  0  0  0  0  0  0
  150.7614  137.6435  154.4115 C   0  0  0  0  0  0  0  0  0  0  0  0
  151.3588  139.0485  154.5969 C   0  0  0  0  0  0  0  0  0  0  0  0
  150.4247  139.9631  155.2664 N   0  0  0  0  0  0  0  0  0  0  0  0
  149.0522  139.9255  154.7421 C   0  0  0  0  0  0  0  0  0  0  0  0
  148.2384  141.1773  155.0915 C   0  0  0  0  0  0  0  0  0  0  0  0
  148.3951  141.4760  156.5079 N   0  0  0  0  0  0  0  0  0  0  0  0
  147.3925  142.1616  157.1148 C   0  0  0  0  0  0  0  0  0  0  0  0
  147.5085  142.4983  158.4272 N   0  0  0  0  0  0  0  0  0  0  0  0
  146.5346  143.1771  159.0407 C   0  0  0  0  0  0  0  0  0  0  0  0
  145.3739  143.6058  158.5416 N   0  0  0  0  0  0  0  0  0  0  0  0
  145.2440  143.2587  157.2298 C   0  0  0  0  0  0  0  0  0  0  0  0
  146.1943  142.5445  156.4462 C   0  0  0  0  0  0  0  0  0  0  0  0
  145.7010  142.3655  155.1582 N   0  0  0  0  0  0  0  0  0  0  0  0
  144.5346  142.9504  155.1758 C   0  0  0  0  0  0  0  0  0  0  0  0
  144.1834  143.5165  156.3800 N   0  0  0  0  0  0  0  0  0  0  0  0
  142.9519  144.2221  156.6861 C   0  0  0  0  0  0  0  0  0  0  0  0
  142.4258  145.1168  155.5344 C   0  0  0  0  0  0  0  0  0  0  0  0
  141.3749  144.3231  154.7418 C   0  0  0  0  0  0  0  0  0  0  0  0
  140.8476  145.0832  153.6721 O   0  0  0  0  0  0  0  0  0  0  0  0
  142.0069  146.5703  155.8389 C   0  0  0  0  0  0  0  0  0  0  0  0
  142.7669  147.0731  154.7209 O   0  0  0  0  0  0  0  0  0  0  0  0
  143.4880  145.8239  154.6776 C   0  0  0  0  0  0  0  0  0  0  0  0
  149.7678  141.6557  156.9917 C   0  0  0  0  0  0  0  0  0  0  0  0
  150.7990  140.7263  156.3240 C   0  0  0  0  0  0  0  0  0  0  0  0
  151.9421  140.7129  156.7813 O   0  0  0  0  0  0  0  0  0  0  0  0
  151.5832  134.9649  156.1504 H   0  0  0  0  0  0  0  0  0  0  0  0
  150.1885  135.1542  155.0875 H   0  0  0  0  0  0  0  0  0  0  0  0
  150.3352  136.1455  156.5507 H   0  0  0  0  0  0  0  0  0  0  0  0
  150.6074  137.4326  153.3517 H   0  0  0  0  0  0  0  0  0  0  0  0
  149.7835  137.6029  154.8935 H   0  0  0  0  0  0  0  0  0  0  0  0
  152.2681  138.9704  155.1948 H   0  0  0  0  0  0  0  0  0  0  0  0
  151.6837  139.4502  153.6357 H   0  0  0  0  0  0  0  0  0  0  0  0
  149.0644  139.7956  153.6590 H   0  0  0  0  0  0  0  0  0  0  0  0
  148.5591  139.0453  155.1570 H   0  0  0  0  0  0  0  0  0  0  0  0
  148.6065  142.0296  154.5184 H   0  0  0  0  0  0  0  0  0  0  0  0
  147.1999  141.0361  154.7959 H   0  0  0  0  0  0  0  0  0  0  0  0
  146.7112  143.4093  160.0804 H   0  0  0  0  0  0  0  0  0  0  0  0
  143.8959  142.9869  154.3053 H   0  0  0  0  0  0  0  0  0  0  0  0
  142.2009  143.4822  156.9652 H   0  0  0  0  0  0  0  0  0  0  0  0
  143.1347  144.7928  157.5975 H   0  0  0  0  0  0  0  0  0  0  0  0
  141.7976  143.3988  154.3461 H   0  0  0  0  0  0  0  0  0  0  0  0
  140.5435  144.0314  155.3847 H   0  0  0  0  0  0  0  0  0  0  0  0
  140.1051  144.6219  153.3130 H   0  0  0  0  0  0  0  0  0  0  0  0
  140.9367  146.7532  155.7361 H   0  0  0  0  0  0  0  0  0  0  0  0
  142.3773  146.9883  156.7752 H   0  0  0  0  0  0  0  0  0  0  0  0
  144.4644  145.9080  155.1581 H   0  0  0  0  0  0  0  0  0  0  0  0
  143.5855  145.4284  153.6660 H   0  0  0  0  0  0  0  0  0  0  0  0
  150.0876  142.6841  156.8173 H   0  0  0  0  0  0  0  0  0  0  0  0
  149.7964  141.4851  158.0692 H   0  0  0  0  0  0  0  0  0  0  0  0
  1  2  1  0  0  0  0
  1 28  1  0  0  0  0
  1 29  1  0  0  0  0
  1 30  1  0  0  0  0
  2  3  1  0  0  0  0
  3  4  1  0  0  0  0
  3 31  1  0  0  0  0
  3 32  1  0  0  0  0
  4  5  1  0  0  0  0
  4 33  1  0  0  0  0
  4 34  1  0  0  0  0
  5 26  1  0  0  0  0
  5  6  1  0  0  0  0
  6  7  1  0  0  0  0
  6 35  1  0  0  0  0
  6 36  1  0  0  0  0
  7  8  1  0  0  0  0
  7 37  1  0  0  0  0
  7 38  1  0  0  0  0
  8  9  1  0  0  0  0
  8 25  1  0  0  0  0
  9 14  1  0  0  0  0
  9 10  2  0  0  0  0
 10 11  1  0  0  0  0
 11 12  2  0  0  0  0
 11 39  1  0  0  0  0
 12 13  1  0  0  0  0
 13 17  1  0  0  0  0
 13 14  2  0  0  0  0
 14 15  1  0  0  0  0
 15 16  2  0  0  0  0
 16 17  1  0  0  0  0
 16 40  1  0  0  0  0
 17 18  1  0  0  0  0
 18 19  1  0  0  0  0
 18 41  1  0  0  0  0
 18 42  1  0  0  0  0
 19 24  1  0  0  0  0
 19 20  1  0  0  0  0
 19 22  1  0  0  0  0
 20 21  1  0  0  0  0
 20 43  1  0  0  0  0
 20 44  1  0  0  0  0
 21 45  1  0  0  0  0
 22 23  1  0  0  0  0
 22 46  1  0  0  0  0
 22 47  1  0  0  0  0
 23 24  1  0  0  0  0
 24 48  1  0  0  0  0
 24 49  1  0  0  0  0
 25 26  1  0  0  0  0
 25 50  1  0  0  0  0
 25 51  1  0  0  0  0
 26 27  2  0  0  0  0
M  END
> <s_m_source_file>
AV-unprocessed.smi

> <i_m_source_file_index>
267

> <i_lp_mmshare_version>
43012

> <i_f3d_flags>
0

> <s_epik_input>
W0NIM11PW0NIMl1bQ0gyXU4xW0NIMl1bQ0gyXU4oW0NIMl1DMT1PKWMobltjSF1uMiljKGMyMyluW2NIXW4zW0NIMl1DNChbQ0gyXVtPSF0pW0NIMl1PW0NIMl00

> <s_epik_cmdline>
J2VwaWtfcHl0aG9uJywgJy1waCcsICc3LjAnLCAnLXRuJywgJzgnLCAnLW1hJywgJzIwMCcsICctbWV0YWxfYmluZGluZycsICctaW1hZScsICc8aW5maWxlLm1hZT4nLCAnLW9tYWUnLCAnPG91dGZpbGUubWFlPic=

> <r_lp_tautomer_probability>
1

> <r_epik_Ionization_Penalty>
0.000432285

> <r_epik_Ionization_Penalty_Charging>
0

> <r_epik_Ionization_Penalty_Neutral>
0.000432285

> <r_epik_State_Penalty>
0.000191954

> <r_epik_Charging_Adjusted_Penalty>
0.000191954

> <i_epik_Tot_Q>
0

> <i_epik_Tot_abs_Q>
0

> <r_epik_Metal_State_Penalty>
-0

> <b_epik_Metal_Only>
0

> <s_lp_Force_Field>
OPLS_2005

> <r_lp_Energy>
43.2758

> <b_lp_Chiralities_Consistent>
1

> <s_lp_Variant>
AV-unprocessed.smi:267-1

> <Gold.Version>
5.8.1

> <Gold.Id.Protein>
6NUR|6NUR_protein|mol2

> <Gold.PLP.Fitness>
44.4844

> <Gold.PLP.PLP>
-39.5640

> <Gold.PLP.part.hbond>
-4.0000

> <Gold.PLP.part.metal>
0.0000

> <Gold.PLP.part.buried>
-6.3671

> <Gold.PLP.part.nonpolar>
-30.7102

> <Gold.PLP.part.repulsive>
0.5336

> <Gold.PLP.ligand.clash>
0.0000

> <Gold.PLP.ligand.torsion>
2.1195

> <Gold.PLP.Chemscore.Hbond>
1.9440

> <Gold.PLP.Chemscore.CHOScore>
0.9193

> <Gold.PLP.Chemscore.Metal>
0.0000

> <Gold.Chemscore.Hbonds>
donor molecule, donor type, donor heavy atom, donor atom, acceptor molecule, acceptor atom, score
      L1  H    21    45       P1 10162  0.46
      P1  H 10752 10763       L1     2  0.85
      L1  C    16    40       P1 10174  0.88

> <Gold.PLP.Chemscore.Internal.Correction>
0.5695

> <Gold.Rescore>
     Score         DG    S(hbond)    S(metal)    S(lipo)     H(rot)  DE(clash)    DE(int)     intcor
      3.94      -9.33       1.35        0.00      62.28       3.11       0.65       4.73       ----

> <Gold.Chemscore.Fitness>
3.9428

> <Gold.Chemscore.DG>
-9.3258

> <Gold.Chemscore.ZeroCoef>
-5.4800

> <Gold.Chemscore.Hbond>
1.3531

> <Gold.Chemscore.Metal>
0.0000

> <Gold.Chemscore.Lipo>
62.2770

> <Gold.Chemscore.Internal_Hbond>
0.0000

> <Gold.Chemscore.DEClash>
0.6495

> <Gold.Chemscore.DEInternal>
4.7336

> <Gold.Chemscore.Rot>
3.1093

> <Gold.Chemscore.Internal.Correction>
   9.000000E+99

> <Gold.Chemscore.Hbonds>
donor molecule, donor type, donor heavy atom, donor atom, acceptor molecule, acceptor atom, score
      L1  H    21    45       P1 10162  0.30
      P1  H 10752 10763       L1     2  0.15

> <Gold.Chemscore.Hbond.Weighted>
-4.5193

> <Gold.Chemscore.Metal.Weighted>
-0.0000

> <Gold.Chemscore.Lipo.Weighted>
-7.2864

> <Gold.Chemscore.Internal_Hbond.Weighted>
0.0000

> <Gold.Chemscore.DEClash.Weighted>
0.6495

> <Gold.Chemscore.DEInternal.Weighted>
4.7336

> <Gold.Chemscore.Rot.Weighted>
7.9599

> <Gold.Chemscore.Internal.Correction.Weighted>
   9.000000E+99

> <Gold.Protein.RotatedTorsions>
[ 6907 6896 6895 6894 ] final   29.91 input  -60.11 | X-H torsion
[ 7974 7965 7964 7962 ] final -167.80 input  175.53 | X-H torsion
[ 8008 7997 7996 7995 ] final   -2.52 input   59.86 | X-H torsion
[ 10167 10162 10161 10158 ] final  -22.44 input  -65.29 | X-H torsion
[ 10718 10713 10712 10709 ] final  -25.73 input   66.30 | X-H torsion
[ 10763 10752 10751 10750 ] final   52.70 input  -60.55 | X-H torsion
[ 11005 11000 10999 10996 ] final   15.52 input  -57.11 | X-H torsion

> <Gold.Protein.ActiveResidues>
 VAL166  LYS551  ARG553  GLY616  TRP617  ASP618  TYR619  PRO620  LYS621  CYS622 
 ASP623  PHE694  ASN695  SER759  ASP760  ASP761  ALA762  ILE779  LEU786  VAL792 
 PHE793  MET794  SER795  GLU796  ALA797  LYS798  CYS799  TRP800  GLU811  SER814 

> <Gold.Protein.RotatedAtoms>
  152.0383  134.9727  160.0573 H   0  0  0  0  0  0  0  0  0  0  0  0  # atno 6907 bound_to 6896
  152.1175  133.4330  159.4668 H   0  0  0  0  0  0  0  0  0  0  0  0  # atno 6908 bound_to 6896
  150.6847  134.2493  159.4547 H   0  0  0  0  0  0  0  0  0  0  0  0  # atno 6909 bound_to 6896
  144.7215  140.2464  143.6284 H   0  0  0  0  0  0  0  0  0  0  0  0  # atno 7974 bound_to 7965
  154.6348  140.2532  155.7391 H   0  0  0  0  0  0  0  0  0  0  0  0  # atno 8008 bound_to 7997
  156.2498  140.2899  156.0636 H   0  0  0  0  0  0  0  0  0  0  0  0  # atno 8009 bound_to 7997
  155.1688  140.0386  157.2849 H   0  0  0  0  0  0  0  0  0  0  0  0  # atno 8010 bound_to 7997
  140.7286  143.4534  151.0483 H   0  0  0  0  0  0  0  0  0  0  0  0  # atno 10167 bound_to 10162
  156.4605  130.4503  149.6932 H   0  0  0  0  0  0  0  0  0  0  0  0  # atno 10718 bound_to 10713
  152.9790  135.5804  154.4620 H   0  0  0  0  0  0  0  0  0  0  0  0  # atno 10763 bound_to 10752
  154.4195  135.2771  155.1987 H   0  0  0  0  0  0  0  0  0  0  0  0  # atno 10764 bound_to 10752
  154.3742  135.6161  153.5810 H   0  0  0  0  0  0  0  0  0  0  0  0  # atno 10765 bound_to 10752
  140.4574  134.1162  155.7711 H   0  0  0  0  0  0  0  0  0  0  0  0  # atno 11005 bound_to 11000
  145.8270  139.2069  143.1905 LP  0  0  0  0  0  0  0  0  0  0  0  0  # atno 17320 bound_to 7965
  146.0464  140.8113  142.9803 LP  0  0  0  0  0  0  0  0  0  0  0  0  # atno 17321 bound_to 7965
  139.8212  143.7817  152.3177 LP  0  0  0  0  0  0  0  0  0  0  0  0  # atno 17342 bound_to 10162
  139.7900  144.7413  150.9968 LP  0  0  0  0  0  0  0  0  0  0  0  0  # atno 17343 bound_to 10162
  156.3721  130.7536  151.2520 LP  0  0  0  0  0  0  0  0  0  0  0  0  # atno 17370 bound_to 10713
  157.7498  131.0320  150.4206 LP  0  0  0  0  0  0  0  0  0  0  0  0  # atno 17371 bound_to 10713
  141.1637  133.8744  157.1776 LP  0  0  0  0  0  0  0  0  0  0  0  0  # atno 17394 bound_to 11000
  139.9967  135.0044  157.0099 LP  0  0  0  0  0  0  0  0  0  0  0  0  # atno 17395 bound_to 11000

$$$$
