AV-unprocessed.smi:1616|AV-procd|sdf|6483|dock1
  -GOLD-   22720 7143D 1   1.00000     0.00000
 Structure written by MMmdl.
 38 39  0  0  0  0  0  0  0  0  1 V2000
  153.3548  143.7661  163.5364 C   0  0  0  0  0  0  0  0  0  0  0  0
  154.0350  142.4391  163.7390 C   0  0  0  0  0  0  0  0  0  0  0  0
  153.9161  141.5741  162.7860 N   0  0  0  0  0  0  0  0  0  0  0  0
  154.4957  140.3230  162.8734 N   0  0  0  0  0  0  0  0  0  0  0  0
  154.2415  139.4610  161.7098 C   0  0  0  0  0  0  0  0  0  0  0  0
  154.0857  140.2434  160.3976 C   0  0  0  0  0  0  0  0  0  0  0  0
  154.7678  139.9617  159.4114 O   0  0  0  0  0  0  0  0  0  0  0  0
  153.1602  141.2152  160.3998 N   0  0  0  0  0  0  0  0  0  0  0  0
  152.8409  142.0875  159.2739 C   0  0  1  0  0  0  0  0  0  0  0  0
  151.3871  141.8556  158.8324 C   0  0  0  0  0  0  0  0  0  0  0  0
  153.0835  143.5515  159.5893 C   0  0  0  0  0  0  0  0  0  0  0  0
  151.9681  144.4357  160.0937 C   0  0  0  0  0  0  0  0  0  0  0  0
  152.5290  144.6417  158.7043 C   0  0  0  0  0  0  0  0  0  0  0  0
  155.2367  139.8827  163.9310 C   0  0  0  0  0  0  0  0  0  0  0  0
  155.7398  138.7585  163.9648 O   0  0  0  0  0  0  0  0  0  0  0  0
  155.3690  140.8687  165.0059 C   0  0  0  0  0  0  0  0  0  0  0  0
  156.1334  140.4458  166.1347 C   0  0  0  0  0  0  0  0  0  0  0  0
  156.7615  140.0877  167.0388 N   0  0  0  0  0  0  0  0  0  0  0  0
  154.8020  142.0989  164.9330 C   0  0  0  0  0  0  0  0  0  0  0  0
  154.9083  143.1579  166.0219 C   0  0  0  0  0  0  0  0  0  0  0  0
  154.0839  144.5764  163.5233 H   0  0  0  0  0  0  0  0  0  0  0  0
  152.6435  143.9630  164.3387 H   0  0  0  0  0  0  0  0  0  0  0  0
  152.8053  143.8020  162.5944 H   0  0  0  0  0  0  0  0  0  0  0  0
  155.0589  138.7492  161.5816 H   0  0  0  0  0  0  0  0  0  0  0  0
  153.3508  138.8541  161.8839 H   0  0  0  0  0  0  0  0  0  0  0  0
  152.6441  141.3718  161.2533 H   0  0  0  0  0  0  0  0  0  0  0  0
  153.4915  141.8267  158.4369 H   0  0  0  0  0  0  0  0  0  0  0  0
  151.1359  142.4755  157.9712 H   0  0  0  0  0  0  0  0  0  0  0  0
  150.6861  142.0980  159.6320 H   0  0  0  0  0  0  0  0  0  0  0  0
  151.2197  140.8167  158.5460 H   0  0  0  0  0  0  0  0  0  0  0  0
  154.0640  143.7456  160.0206 H   0  0  0  0  0  0  0  0  0  0  0  0
  150.9729  144.0026  160.1735 H   0  0  0  0  0  0  0  0  0  0  0  0
  152.2170  145.1755  160.8516 H   0  0  0  0  0  0  0  0  0  0  0  0
  153.1525  145.5176  158.5369 H   0  0  0  0  0  0  0  0  0  0  0  0
  151.9068  144.3447  157.8621 H   0  0  0  0  0  0  0  0  0  0  0  0
  155.5491  142.8414  166.8444 H   0  0  0  0  0  0  0  0  0  0  0  0
  153.9242  143.3772  166.4368 H   0  0  0  0  0  0  0  0  0  0  0  0
  155.3268  144.0817  165.6214 H   0  0  0  0  0  0  0  0  0  0  0  0
  1  2  1  0  0  0  0
  1 21  1  0  0  0  0
  1 22  1  0  0  0  0
  1 23  1  0  0  0  0
  2 19  1  0  0  0  0
  2  3  2  0  0  0  0
  3  4  1  0  0  0  0
  4  5  1  0  0  0  0
  4 14  1  0  0  0  0
  5  6  1  0  0  0  0
  5 24  1  0  0  0  0
  5 25  1  0  0  0  0
  6  7  2  0  0  0  0
  6  8  1  0  0  0  0
  8  9  1  0  0  0  0
  8 26  1  0  0  0  0
  9 10  1  0  0  0  0
  9 11  1  0  0  0  0
  9 27  1  0  0  0  0
 10 28  1  0  0  0  0
 10 29  1  0  0  0  0
 10 30  1  0  0  0  0
 11 13  1  0  0  0  0
 11 12  1  0  0  0  0
 11 31  1  0  0  0  0
 12 13  1  0  0  0  0
 12 32  1  0  0  0  0
 12 33  1  0  0  0  0
 13 34  1  0  0  0  0
 13 35  1  0  0  0  0
 14 15  2  0  0  0  0
 14 16  1  0  0  0  0
 16 17  1  0  0  0  0
 16 19  2  0  0  0  0
 17 18  3  0  0  0  0
 19 20  1  0  0  0  0
 20 36  1  0  0  0  0
 20 37  1  0  0  0  0
 20 38  1  0  0  0  0
M  END
> <s_m_source_file>
AV-unprocessed.smi

> <i_m_source_file_index>
1616

> <i_lp_mmshare_version>
43012

> <i_f3d_flags>
0

> <s_epik_input>
TiNDYyhjMVtDSDNdKWMoPU8pbihuYzFbQ0gzXSlbQ0gyXUMoPU8pW05IXVtDQEhdKFtDSDNdKVtDSF0yW0NIMl1bQ0gyXTI=

> <s_epik_cmdline>
J2VwaWtfcHl0aG9uJywgJy1waCcsICc3LjAnLCAnLXRuJywgJzgnLCAnLW1hJywgJzIwMCcsICctbWV0YWxfYmluZGluZycsICctaW1hZScsICc8aW5maWxlLm1hZT4nLCAnLW9tYWUnLCAnPG91dGZpbGUubWFlPic=

> <r_lp_tautomer_probability>
1

> <r_epik_Ionization_Penalty>
1.93246e-08

> <r_epik_Ionization_Penalty_Charging>
2.27031e-11

> <r_epik_Ionization_Penalty_Neutral>
1.93019e-08

> <r_epik_State_Penalty>
-0

> <r_epik_Charging_Adjusted_Penalty>
2.27031e-11

> <i_epik_Tot_Q>
0

> <i_epik_Tot_abs_Q>
0

> <r_epik_Metal_State_Penalty>
-0

> <b_epik_Metal_Only>
0

> <s_lp_Force_Field>
OPLS_2005

> <r_lp_Energy>
27.6916

> <b_lp_Chiralities_Consistent>
1

> <s_lp_Variant>
AV-unprocessed.smi:1616-2

> <Gold.Version>
5.8.1

> <Gold.Id.Protein>
6NUR|6NUR_protein|mol2

> <Gold.PLP.Fitness>
44.7653

> <Gold.PLP.PLP>
-42.7669

> <Gold.PLP.part.hbond>
-2.0000

> <Gold.PLP.part.metal>
0.0000

> <Gold.PLP.part.buried>
-2.7951

> <Gold.PLP.part.nonpolar>
-37.3294

> <Gold.PLP.part.repulsive>
0.0765

> <Gold.PLP.ligand.clash>
0.0000

> <Gold.PLP.ligand.torsion>
0.9637

> <Gold.PLP.Chemscore.Hbond>
0.9440

> <Gold.PLP.Chemscore.CHOScore>
0.0000

> <Gold.PLP.Chemscore.Metal>
0.0000

> <Gold.Chemscore.Hbonds>
donor molecule, donor type, donor heavy atom, donor atom, acceptor molecule, acceptor atom, score
      P1  H  7997  8008       L1     7  0.66

> <Gold.PLP.Chemscore.Internal.Correction>
1.0938

> <Gold.Rescore>
     Score         DG    S(hbond)    S(metal)    S(lipo)     H(rot)  DE(clash)    DE(int)     intcor
     16.29     -17.45       0.96        0.00     111.64       1.68       0.11       1.05       ----

> <Gold.Chemscore.Fitness>
16.2921

> <Gold.Chemscore.DG>
-17.4492

> <Gold.Chemscore.ZeroCoef>
-5.4800

> <Gold.Chemscore.Hbond>
0.9613

> <Gold.Chemscore.Metal>
0.0000

> <Gold.Chemscore.Lipo>
111.6359

> <Gold.Chemscore.Internal_Hbond>
0.0000

> <Gold.Chemscore.DEClash>
0.1083

> <Gold.Chemscore.DEInternal>
1.0488

> <Gold.Chemscore.Rot>
1.6809

> <Gold.Chemscore.Internal.Correction>
   9.000000E+99

> <Gold.Chemscore.Hbonds>
donor molecule, donor type, donor heavy atom, donor atom, acceptor molecule, acceptor atom, score
      P1  H  7997  8008       L1     7  0.65

> <Gold.Chemscore.Hbond.Weighted>
-3.2108

> <Gold.Chemscore.Metal.Weighted>
-0.0000

> <Gold.Chemscore.Lipo.Weighted>
-13.0614

> <Gold.Chemscore.Internal_Hbond.Weighted>
0.0000

> <Gold.Chemscore.DEClash.Weighted>
0.1083

> <Gold.Chemscore.DEInternal.Weighted>
1.0488

> <Gold.Chemscore.Rot.Weighted>
4.3030

> <Gold.Chemscore.Internal.Correction.Weighted>
   9.000000E+99

> <Gold.Protein.RotatedTorsions>
[ 6907 6896 6895 6894 ] final   65.97 input  -60.11 | X-H torsion
[ 7974 7965 7964 7962 ] final   46.38 input  175.53 | X-H torsion
[ 8008 7997 7996 7995 ] final -138.21 input   59.86 | X-H torsion
[ 10167 10162 10161 10158 ] final  158.43 input  -65.29 | X-H torsion
[ 10718 10713 10712 10709 ] final   63.88 input   66.30 | X-H torsion
[ 10763 10752 10751 10750 ] final   98.82 input  -60.55 | X-H torsion
[ 11005 11000 10999 10996 ] final  -52.40 input  -57.11 | X-H torsion

> <Gold.Protein.ActiveResidues>
 VAL166  LYS551  ARG553  GLY616  TRP617  ASP618  TYR619  PRO620  LYS621  CYS622 
 ASP623  PHE694  ASN695  SER759  ASP760  ASP761  ALA762  ILE779  LEU786  VAL792 
 PHE793  MET794  SER795  GLU796  ALA797  LYS798  CYS799  TRP800  GLU811  SER814 

> <Gold.Protein.RotatedAtoms>
  152.4447  134.5519  159.9869 H   0  0  0  0  0  0  0  0  0  0  0  0  # atno 6907 bound_to 6896
  151.5607  133.3398  159.2978 H   0  0  0  0  0  0  0  0  0  0  0  0  # atno 6908 bound_to 6896
  150.8360  134.7667  159.6957 H   0  0  0  0  0  0  0  0  0  0  0  0  # atno 6909 bound_to 6896
  146.0395  139.4862  142.9787 H   0  0  0  0  0  0  0  0  0  0  0  0  # atno 7974 bound_to 7965
  155.4246  140.0521  157.3023 H   0  0  0  0  0  0  0  0  0  0  0  0  # atno 8008 bound_to 7997
  154.4887  140.2111  155.9555 H   0  0  0  0  0  0  0  0  0  0  0  0  # atno 8009 bound_to 7997
  156.1312  140.3171  155.8356 H   0  0  0  0  0  0  0  0  0  0  0  0  # atno 8010 bound_to 7997
  139.4827  144.4825  151.8424 H   0  0  0  0  0  0  0  0  0  0  0  0  # atno 10167 bound_to 10162
  157.6002  130.9130  149.9773 H   0  0  0  0  0  0  0  0  0  0  0  0  # atno 10718 bound_to 10713
  153.2937  135.4135  155.1190 H   0  0  0  0  0  0  0  0  0  0  0  0  # atno 10763 bound_to 10752
  154.8528  135.3524  154.5946 H   0  0  0  0  0  0  0  0  0  0  0  0  # atno 10764 bound_to 10752
  153.6369  135.7058  153.5313 H   0  0  0  0  0  0  0  0  0  0  0  0  # atno 10765 bound_to 10752
  141.0922  133.6630  156.4019 H   0  0  0  0  0  0  0  0  0  0  0  0  # atno 11005 bound_to 11000
  145.6909  141.0164  143.1556 LP  0  0  0  0  0  0  0  0  0  0  0  0  # atno 17320 bound_to 7965
  144.7067  139.8531  143.7427 LP  0  0  0  0  0  0  0  0  0  0  0  0  # atno 17321 bound_to 7965
  140.4302  144.2126  150.5888 LP  0  0  0  0  0  0  0  0  0  0  0  0  # atno 17342 bound_to 10162
  140.4787  143.2387  151.8986 LP  0  0  0  0  0  0  0  0  0  0  0  0  # atno 17343 bound_to 10162
  156.1073  130.3652  150.0111 LP  0  0  0  0  0  0  0  0  0  0  0  0  # atno 17370 bound_to 10713
  156.8215  130.9360  151.3641 LP  0  0  0  0  0  0  0  0  0  0  0  0  # atno 17371 bound_to 10713
  140.5224  134.6291  157.5322 LP  0  0  0  0  0  0  0  0  0  0  0  0  # atno 17394 bound_to 11000
  139.9751  134.7229  155.9966 LP  0  0  0  0  0  0  0  0  0  0  0  0  # atno 17395 bound_to 11000

$$$$
