AV-unprocessed.smi:84|AV-procd|sdf|808|dock3
  -GOLD-   2262017203D 1   1.00000     0.00000
 Structure written by MMmdl.
 51 55  0  0  0  0  0  0  0  0  1 V2000
  155.7246  132.2109  162.6499 O   0  0  0  0  0  0  0  0  0  0  0  0
  155.4371  133.3969  162.7927 C   0  0  0  0  0  0  0  0  0  0  0  0
  155.6984  134.4613  161.7396 C   0  0  0  0  0  0  0  0  0  0  0  0
  155.5379  135.7747  162.5298 C   0  0  1  0  0  0  0  0  0  0  0  0
  156.8775  136.3383  163.0399 C   0  0  0  0  0  0  0  0  0  0  0  0
  156.5817  137.8214  163.2571 C   0  0  0  0  0  0  0  0  0  0  0  0
  155.5997  138.1527  162.2360 N   0  0  0  0  0  0  0  0  0  0  0  0
  155.0017  139.3706  162.1750 C   0  0  0  0  0  0  0  0  0  0  0  0
  155.2176  140.2514  163.1879 N   0  0  0  0  0  0  0  0  0  0  0  0
  154.6465  141.4586  163.1720 C   0  0  0  0  0  0  0  0  0  0  0  0
  153.8425  141.9873  162.2492 N   0  0  0  0  0  0  0  0  0  0  0  0
  153.6329  141.1190  161.2192 C   0  0  0  0  0  0  0  0  0  0  0  0
  154.1640  139.8016  161.1037 C   0  0  0  0  0  0  0  0  0  0  0  0
  153.7221  139.2249  159.9174 N   0  0  0  0  0  0  0  0  0  0  0  0
  152.9651  140.1385  159.3750 C   0  0  0  0  0  0  0  0  0  0  0  0
  152.8801  141.3193  160.0755 N   0  0  0  0  0  0  0  0  0  0  0  0
  152.0955  142.4682  159.7298 C   0  0  0  0  0  0  0  0  0  0  0  0
  152.6835  143.6109  158.8983 C   0  0  0  0  0  0  0  0  0  0  0  0
  151.7884  144.6146  159.6604 C   0  0  0  0  0  0  0  0  0  0  0  0
  152.4622  145.9406  160.0503 C   0  0  0  0  0  0  0  0  0  0  0  0
  151.5741  146.7762  160.7649 O   0  0  0  0  0  0  0  0  0  0  0  0
  150.4252  144.9125  159.0036 C   0  0  0  0  0  0  0  0  0  0  0  0
  150.0859  143.9281  158.0483 O   0  0  0  0  0  0  0  0  0  0  0  0
  151.7605  143.5402  160.7695 C   0  0  0  0  0  0  0  0  0  0  0  0
  154.9652  136.9494  161.7154 C   0  0  0  0  0  0  0  0  0  0  0  0
  154.6328  135.3637  163.7160 C   0  0  0  0  0  0  0  0  0  0  0  0
  154.8593  133.9386  163.8635 N   0  0  0  0  0  0  0  0  0  0  0  0
  156.6826  134.3491  161.2836 H   0  0  0  0  0  0  0  0  0  0  0  0
  154.9437  134.3706  160.9572 H   0  0  0  0  0  0  0  0  0  0  0  0
  157.2489  135.8444  163.9388 H   0  0  0  0  0  0  0  0  0  0  0  0
  157.6445  136.2401  162.2703 H   0  0  0  0  0  0  0  0  0  0  0  0
  156.1542  137.9877  164.2467 H   0  0  0  0  0  0  0  0  0  0  0  0
  157.4822  138.4293  163.1627 H   0  0  0  0  0  0  0  0  0  0  0  0
  154.8666  142.0916  164.0190 H   0  0  0  0  0  0  0  0  0  0  0  0
  152.4513  139.9759  158.4385 H   0  0  0  0  0  0  0  0  0  0  0  0
  151.1861  142.0816  159.2665 H   0  0  0  0  0  0  0  0  0  0  0  0
  153.7478  143.7611  159.0897 H   0  0  0  0  0  0  0  0  0  0  0  0
  152.4888  143.5343  157.8281 H   0  0  0  0  0  0  0  0  0  0  0  0
  153.3312  145.7613  160.6845 H   0  0  0  0  0  0  0  0  0  0  0  0
  152.8293  146.4777  159.1756 H   0  0  0  0  0  0  0  0  0  0  0  0
  151.9269  147.6529  160.7710 H   0  0  0  0  0  0  0  0  0  0  0  0
  149.6275  144.9430  159.7457 H   0  0  0  0  0  0  0  0  0  0  0  0
  150.4208  145.8887  158.5183 H   0  0  0  0  0  0  0  0  0  0  0  0
  150.0240  144.3420  157.2008 H   0  0  0  0  0  0  0  0  0  0  0  0
  150.7941  143.4097  161.2575 H   0  0  0  0  0  0  0  0  0  0  0  0
  152.5556  143.6681  161.5071 H   0  0  0  0  0  0  0  0  0  0  0  0
  155.2306  136.8537  160.6620 H   0  0  0  0  0  0  0  0  0  0  0  0
  153.8779  136.9935  161.7853 H   0  0  0  0  0  0  0  0  0  0  0  0
  154.8610  135.8994  164.6381 H   0  0  0  0  0  0  0  0  0  0  0  0
  153.5766  135.5193  163.4918 H   0  0  0  0  0  0  0  0  0  0  0  0
  154.5915  133.4231  164.6895 H   0  0  0  0  0  0  0  0  0  0  0  0
  1  2  2  0  0  0  0
  2 27  1  0  0  0  0
  2  3  1  0  0  0  0
  3  4  1  0  0  0  0
  3 28  1  0  0  0  0
  3 29  1  0  0  0  0
  4 25  1  0  0  0  0
  4  5  1  0  0  0  0
  4 26  1  0  0  0  0
  5  6  1  0  0  0  0
  5 30  1  0  0  0  0
  5 31  1  0  0  0  0
  6  7  1  0  0  0  0
  6 32  1  0  0  0  0
  6 33  1  0  0  0  0
  7  8  1  0  0  0  0
  7 25  1  0  0  0  0
  8 13  1  0  0  0  0
  8  9  2  0  0  0  0
  9 10  1  0  0  0  0
 10 11  2  0  0  0  0
 10 34  1  0  0  0  0
 11 12  1  0  0  0  0
 12 16  1  0  0  0  0
 12 13  2  0  0  0  0
 13 14  1  0  0  0  0
 14 15  2  0  0  0  0
 15 16  1  0  0  0  0
 15 35  1  0  0  0  0
 16 17  1  0  0  0  0
 17 24  1  0  0  0  0
 17 18  1  0  0  0  0
 17 36  1  0  0  0  0
 18 19  1  0  0  0  0
 18 37  1  0  0  0  0
 18 38  1  0  0  0  0
 19 20  1  0  0  0  0
 19 22  1  0  0  0  0
 19 24  1  0  0  0  0
 20 21  1  0  0  0  0
 20 39  1  0  0  0  0
 20 40  1  0  0  0  0
 21 41  1  0  0  0  0
 22 23  1  0  0  0  0
 22 42  1  0  0  0  0
 22 43  1  0  0  0  0
 23 44  1  0  0  0  0
 24 45  1  0  0  0  0
 24 46  1  0  0  0  0
 25 47  1  0  0  0  0
 25 48  1  0  0  0  0
 26 27  1  0  0  0  0
 26 49  1  0  0  0  0
 26 50  1  0  0  0  0
 27 51  1  0  0  0  0
M  END
> <s_m_source_file>
AV-unprocessed.smi

> <i_m_source_file_index>
84

> <i_lp_mmshare_version>
43012

> <i_f3d_flags>
0

> <s_epik_input>
W0NIMl0xW05IXUMoPU8pW0NIMl1bQ0BdMTJbQ0gyXVtDSDJdTihbQ0gyXTIpYyhuW2NIXW4zKWMoYzM0KW5bY0hdbjRbQ0hdKFtDSDJdNSlbQ0gyXUM1KFtDSDJdW09IXSlbQ0gyXVtPSF0=

> <s_epik_cmdline>
J2VwaWtfcHl0aG9uJywgJy1waCcsICc3LjAnLCAnLXRuJywgJzgnLCAnLW1hJywgJzIwMCcsICctbWV0YWxfYmluZGluZycsICctaW1hZScsICc8aW5maWxlLm1hZT4nLCAnLW9tYWUnLCAnPG91dGZpbGUubWFlPic=

> <r_lp_tautomer_probability>
1

> <r_epik_Ionization_Penalty>
0.00201507

> <r_epik_Ionization_Penalty_Charging>
0

> <r_epik_Ionization_Penalty_Neutral>
0.00201507

> <r_epik_State_Penalty>
0.00133787

> <r_epik_Charging_Adjusted_Penalty>
0.00133787

> <i_epik_Tot_Q>
0

> <i_epik_Tot_abs_Q>
0

> <r_epik_Metal_State_Penalty>
-0

> <b_epik_Metal_Only>
0

> <s_lp_Force_Field>
OPLS_2005

> <r_lp_Energy>
65.4538

> <b_lp_Chiralities_Consistent>
1

> <s_lp_Variant>
AV-unprocessed.smi:84-1

> <Gold.Version>
5.8.1

> <Gold.Id.Protein>
6NUR|6NUR_protein|mol2

> <Gold.PLP.Fitness>
40.3139

> <Gold.PLP.PLP>
-39.7672

> <Gold.PLP.part.hbond>
-7.6959

> <Gold.PLP.part.metal>
0.0000

> <Gold.PLP.part.buried>
0.4365

> <Gold.PLP.part.nonpolar>
-32.1383

> <Gold.PLP.part.repulsive>
0.0185

> <Gold.PLP.ligand.clash>
0.0142

> <Gold.PLP.ligand.torsion>
1.5463

> <Gold.PLP.Chemscore.Hbond>
1.0000

> <Gold.PLP.Chemscore.CHOScore>
0.0000

> <Gold.PLP.Chemscore.Metal>
0.0000

> <Gold.Chemscore.Hbonds>
donor molecule, donor type, donor heavy atom, donor atom, acceptor molecule, acceptor atom, score
      L1  H    23    44       P1  8028  0.93

> <Gold.PLP.Chemscore.Internal.Correction>
0.6536

> <Gold.Rescore>
     Score         DG    S(hbond)    S(metal)    S(lipo)     H(rot)  DE(clash)    DE(int)     intcor
      3.28     -10.70       0.86        0.00      85.03       2.96       3.05       4.37       ----

> <Gold.Chemscore.Fitness>
3.2798

> <Gold.Chemscore.DG>
-10.6976

> <Gold.Chemscore.ZeroCoef>
-5.4800

> <Gold.Chemscore.Hbond>
0.8559

> <Gold.Chemscore.Metal>
0.0000

> <Gold.Chemscore.Lipo>
85.0339

> <Gold.Chemscore.Internal_Hbond>
0.0000

> <Gold.Chemscore.DEClash>
3.0492

> <Gold.Chemscore.DEInternal>
4.3686

> <Gold.Chemscore.Rot>
2.9649

> <Gold.Chemscore.Internal.Correction>
   9.000000E+99

> <Gold.Chemscore.Hbonds>
donor molecule, donor type, donor heavy atom, donor atom, acceptor molecule, acceptor atom, score
      L1  H    23    44       P1  8028  0.55

> <Gold.Chemscore.Hbond.Weighted>
-2.8588

> <Gold.Chemscore.Metal.Weighted>
-0.0000

> <Gold.Chemscore.Lipo.Weighted>
-9.9490

> <Gold.Chemscore.Internal_Hbond.Weighted>
0.0000

> <Gold.Chemscore.DEClash.Weighted>
3.0492

> <Gold.Chemscore.DEInternal.Weighted>
4.3686

> <Gold.Chemscore.Rot.Weighted>
7.5902

> <Gold.Chemscore.Internal.Correction.Weighted>
   9.000000E+99

> <Gold.Protein.RotatedTorsions>
[ 6907 6896 6895 6894 ] final  173.00 input  -60.11 | X-H torsion
[ 7974 7965 7964 7962 ] final  -28.06 input  175.53 | X-H torsion
[ 8008 7997 7996 7995 ] final  -68.13 input   59.86 | X-H torsion
[ 10167 10162 10161 10158 ] final -131.28 input  -65.29 | X-H torsion
[ 10718 10713 10712 10709 ] final   61.79 input   66.30 | X-H torsion
[ 10763 10752 10751 10750 ] final  116.37 input  -60.55 | X-H torsion
[ 11005 11000 10999 10996 ] final -161.23 input  -57.11 | X-H torsion

> <Gold.Protein.ActiveResidues>
 VAL166  LYS551  ARG553  GLY616  TRP617  ASP618  TYR619  PRO620  LYS621  CYS622 
 ASP623  PHE694  ASN695  SER759  ASP760  ASP761  ALA762  ILE779  LEU786  VAL792 
 PHE793  MET794  SER795  GLU796  ALA797  LYS798  CYS799  TRP800  GLU811  SER814 

> <Gold.Protein.RotatedAtoms>
  151.7753  133.3344  159.3455 H   0  0  0  0  0  0  0  0  0  0  0  0  # atno 6907 bound_to 6896
  150.7446  134.5981  159.6032 H   0  0  0  0  0  0  0  0  0  0  0  0  # atno 6908 bound_to 6896
  152.3313  134.7256  160.0340 H   0  0  0  0  0  0  0  0  0  0  0  0  # atno 6909 bound_to 6896
  146.1314  140.5234  142.8692 H   0  0  0  0  0  0  0  0  0  0  0  0  # atno 7974 bound_to 7965
  154.4847  140.0879  156.7458 H   0  0  0  0  0  0  0  0  0  0  0  0  # atno 8008 bound_to 7997
  155.4382  140.3452  155.4269 H   0  0  0  0  0  0  0  0  0  0  0  0  # atno 8009 bound_to 7997
  156.1243  140.1483  156.9147 H   0  0  0  0  0  0  0  0  0  0  0  0  # atno 8010 bound_to 7997
  139.9205  143.6388  152.2554 H   0  0  0  0  0  0  0  0  0  0  0  0  # atno 10167 bound_to 10162
  157.5854  130.9014  149.9506 H   0  0  0  0  0  0  0  0  0  0  0  0  # atno 10718 bound_to 10713
  153.5362  135.3568  155.2698 H   0  0  0  0  0  0  0  0  0  0  0  0  # atno 10763 bound_to 10752
  154.8722  135.4080  154.3095 H   0  0  0  0  0  0  0  0  0  0  0  0  # atno 10764 bound_to 10752
  153.3793  135.7067  153.6645 H   0  0  0  0  0  0  0  0  0  0  0  0  # atno 10765 bound_to 10752
  140.6227  134.4733  157.5224 H   0  0  0  0  0  0  0  0  0  0  0  0  # atno 11005 bound_to 11000
  144.7694  140.5605  143.6680 LP  0  0  0  0  0  0  0  0  0  0  0  0  # atno 17320 bound_to 7965
  145.5252  139.1476  143.3530 LP  0  0  0  0  0  0  0  0  0  0  0  0  # atno 17321 bound_to 7965
  139.6865  144.7651  151.1514 LP  0  0  0  0  0  0  0  0  0  0  0  0  # atno 17342 bound_to 10162
  140.7663  143.5649  150.9058 LP  0  0  0  0  0  0  0  0  0  0  0  0  # atno 17343 bound_to 10162
  156.0902  130.3664  150.0409 LP  0  0  0  0  0  0  0  0  0  0  0  0  # atno 17370 bound_to 10713
  156.8541  130.9469  151.3623 LP  0  0  0  0  0  0  0  0  0  0  0  0  # atno 17371 bound_to 10713
  139.9147  134.8271  156.1407 LP  0  0  0  0  0  0  0  0  0  0  0  0  # atno 17394 bound_to 11000
  141.0731  133.6788  156.2181 LP  0  0  0  0  0  0  0  0  0  0  0  0  # atno 17395 bound_to 11000

$$$$
