AV-unprocessed.smi:2895|AV-procd|sdf|11132|dock3
  -GOLD-   2272016 03D 1   1.00000     0.00000
 Structure written by MMmdl.
 54 57  0  0  0  0  0  0  0  0  3 V2000
  149.5095  133.9134  155.0233 O   0  0  0  0  0  0  0  0  0  0  0  0
  148.3485  133.6343  155.3254 C   0  0  0  0  0  0  0  0  0  0  0  0
  147.4204  133.3547  154.3942 N   0  0  0  0  0  0  0  0  0  0  0  0
  147.6524  133.3355  152.9542 C   0  0  0  0  0  0  0  0  0  0  0  0
  147.0000  132.1140  152.2842 C   0  0  0  0  0  0  0  0  0  0  0  0
  145.6992  132.4682  151.5891 C   0  0  0  0  0  0  0  0  0  0  0  0
  144.7256  133.2477  152.2521 C   0  0  0  0  0  0  0  0  0  0  0  0
  143.5255  133.5651  151.5836 C   0  0  0  0  0  0  0  0  0  0  0  0
  143.3199  133.1222  150.3237 N   0  3  0  0  0  0  0  0  0  0  0  0
  144.2245  132.3742  149.6543 C   0  0  0  0  0  0  0  0  0  0  0  0
  145.4436  132.0269  150.2718 C   0  0  0  0  0  0  0  0  0  0  0  0
  147.9130  133.5569  156.6092 N   0  0  0  0  0  0  0  0  0  0  0  0
  146.5150  133.4282  157.0516 C   0  0  0  0  0  0  0  0  0  0  0  0
  146.0842  134.7206  157.7770 C   0  0  0  0  0  0  0  0  0  0  0  0
  146.9992  135.0715  158.9018 N   0  3  0  0  0  0  0  0  0  0  0  0
  146.7444  134.2804  160.1442 C   0  0  2  0  0  0  0  0  0  0  0  0
  145.3495  134.5238  160.7721 C   0  0  0  0  0  0  0  0  0  0  0  0
  145.6725  134.8072  162.2513 C   0  0  2  0  0  0  0  0  0  0  0  0
  146.2463  136.2295  162.3697 C   0  0  0  0  0  0  0  0  0  0  0  0
  147.6371  136.0824  161.7276 C   0  0  0  0  0  0  0  0  0  0  0  0
  147.6838  134.5886  161.3384 C   0  0  1  0  0  0  0  0  0  0  0  0
  146.9107  133.9519  162.4888 C   0  0  0  0  0  0  0  0  0  0  0  0
  148.4224  135.0834  158.4578 C   0  0  0  0  0  0  0  0  0  0  0  0
  148.8135  133.7737  157.7471 C   0  0  0  0  0  0  0  0  0  0  0  0
  146.4904  133.1191  154.7089 H   0  0  0  0  0  0  0  0  0  0  0  0
  147.2836  134.2612  152.5089 H   0  0  0  0  0  0  0  0  0  0  0  0
  148.7298  133.3186  152.7869 H   0  0  0  0  0  0  0  0  0  0  0  0
  147.6877  131.6728  151.5612 H   0  0  0  0  0  0  0  0  0  0  0  0
  146.7944  131.3387  153.0232 H   0  0  0  0  0  0  0  0  0  0  0  0
  144.8964  133.5996  153.2594 H   0  0  0  0  0  0  0  0  0  0  0  0
  142.7304  134.1555  152.0151 H   0  0  0  0  0  0  0  0  0  0  0  0
  143.9474  132.0788  148.6527 H   0  0  0  0  0  0  0  0  0  0  0  0
  146.1698  131.4299  149.7393 H   0  0  0  0  0  0  0  0  0  0  0  0
  145.8110  133.2234  156.2455 H   0  0  0  0  0  0  0  0  0  0  0  0
  146.4358  132.5709  157.7210 H   0  0  0  0  0  0  0  0  0  0  0  0
  146.0977  135.5470  157.0652 H   0  0  0  0  0  0  0  0  0  0  0  0
  145.0509  134.6368  158.1117 H   0  0  0  0  0  0  0  0  0  0  0  0
  146.8409  133.2199  159.9076 H   0  0  0  0  0  0  0  0  0  0  0  0
  144.8105  135.3598  160.3248 H   0  0  0  0  0  0  0  0  0  0  0  0
  144.7257  133.6348  160.6702 H   0  0  0  0  0  0  0  0  0  0  0  0
  144.8398  134.6149  162.9283 H   0  0  0  0  0  0  0  0  0  0  0  0
  145.6290  136.9728  161.8639 H   0  0  0  0  0  0  0  0  0  0  0  0
  146.3362  136.5261  163.4156 H   0  0  0  0  0  0  0  0  0  0  0  0
  147.7741  136.7497  160.8767 H   0  0  0  0  0  0  0  0  0  0  0  0
  148.4160  136.3142  162.4550 H   0  0  0  0  0  0  0  0  0  0  0  0
  148.6941  134.1956  161.2214 H   0  0  0  0  0  0  0  0  0  0  0  0
  147.3708  134.1178  163.4647 H   0  0  0  0  0  0  0  0  0  0  0  0
  146.7310  132.8835  162.3558 H   0  0  0  0  0  0  0  0  0  0  0  0
  148.5462  135.9135  157.7607 H   0  0  0  0  0  0  0  0  0  0  0  0
  149.1043  135.2955  159.2794 H   0  0  0  0  0  0  0  0  0  0  0  0
  148.7390  132.9281  158.4321 H   0  0  0  0  0  0  0  0  0  0  0  0
  149.8635  133.8186  157.4546 H   0  0  0  0  0  0  0  0  0  0  0  0
  146.7820  136.0246  159.1565 H   0  0  0  0  0  0  0  0  0  0  0  0
  142.4445  133.3629  149.8580 H   0  0  0  0  0  0  0  0  0  0  0  0
  1  2  2  0  0  0  0
  2  3  1  0  0  0  0
  2 12  1  0  0  0  0
  3  4  1  0  0  0  0
  3 25  1  0  0  0  0
  4  5  1  0  0  0  0
  4 26  1  0  0  0  0
  4 27  1  0  0  0  0
  5  6  1  0  0  0  0
  5 28  1  0  0  0  0
  5 29  1  0  0  0  0
  6 11  1  0  0  0  0
  6  7  2  0  0  0  0
  7  8  1  0  0  0  0
  7 30  1  0  0  0  0
  8  9  2  0  0  0  0
  8 31  1  0  0  0  0
  9 10  1  0  0  0  0
  9 54  1  0  0  0  0
 10 11  2  0  0  0  0
 10 32  1  0  0  0  0
 11 33  1  0  0  0  0
 12 24  1  0  0  0  0
 12 13  1  0  0  0  0
 13 14  1  0  0  0  0
 13 34  1  0  0  0  0
 13 35  1  0  0  0  0
 14 15  1  0  0  0  0
 14 36  1  0  0  0  0
 14 37  1  0  0  0  0
 15 16  1  0  0  0  0
 15 23  1  0  0  0  0
 15 53  1  0  0  0  0
 16 21  1  0  0  0  0
 16 17  1  0  0  0  0
 16 38  1  0  0  0  0
 17 18  1  0  0  0  0
 17 39  1  0  0  0  0
 17 40  1  0  0  0  0
 18 22  1  0  0  0  0
 18 19  1  0  0  0  0
 18 41  1  0  0  0  0
 19 20  1  0  0  0  0
 19 42  1  0  0  0  0
 19 43  1  0  0  0  0
 20 21  1  0  0  0  0
 20 44  1  0  0  0  0
 20 45  1  0  0  0  0
 21 22  1  0  0  0  0
 21 46  1  0  0  0  0
 22 47  1  0  0  0  0
 22 48  1  0  0  0  0
 23 24  1  0  0  0  0
 23 49  1  0  0  0  0
 23 50  1  0  0  0  0
 24 51  1  0  0  0  0
 24 52  1  0  0  0  0
M  CHG  1   9   1
M  CHG  1  15   1
M  END
> <s_m_source_file>
AV-unprocessed.smi

> <i_m_source_file_index>
2895

> <i_lp_mmshare_version>
43012

> <i_f3d_flags>
0

> <s_epik_input>
W0NIMl0xW0NIMl1bQ0BASF0oW0NIMl0yKVtDQEBIXShbQ0gyXVtDQEhdMTIpTihbQ0gyXVtDSDJdMylbQ0gyXVtDSDJdTjNDKD1PKVtOSF1bQ0gyXVtDSDJdYzRbY0hdW2NIXW5bY0hdW2NIXTQ=

> <s_epik_cmdline>
J2VwaWtfcHl0aG9uJywgJy1waCcsICc3LjAnLCAnLXRuJywgJzgnLCAnLW1hJywgJzIwMCcsICctbWV0YWxfYmluZGluZycsICctaW1hZScsICc8aW5maWxlLm1hZT4nLCAnLW9tYWUnLCAnPG91dGZpbGUubWFlPic=

> <r_epik_Ionization_Penalty>
1.44916

> <r_epik_Ionization_Penalty_Charging>
1.44913

> <r_epik_Ionization_Penalty_Neutral>
2.64641e-05

> <r_epik_State_Penalty>
1.53218

> <r_epik_Charging_Adjusted_Penalty>
2.98131

> <i_epik_Tot_Q>
2

> <i_epik_Tot_abs_Q>
2

> <r_epik_Metal_State_Penalty>
1.58241

> <b_epik_Metal_Only>
0

> <s_lp_Force_Field>
OPLS_2005

> <r_lp_Energy>
107.451

> <b_lp_Chiralities_Consistent>
1

> <s_lp_Variant>
AV-unprocessed.smi:2895-5

> <Gold.Version>
5.8.1

> <Gold.Id.Protein>
6NUR|6NUR_protein|mol2

> <Gold.PLP.Fitness>
40.7374

> <Gold.PLP.PLP>
-35.9166

> <Gold.PLP.part.hbond>
-1.0000

> <Gold.PLP.part.metal>
0.0000

> <Gold.PLP.part.buried>
-5.0608

> <Gold.PLP.part.nonpolar>
-30.4338

> <Gold.PLP.part.repulsive>
0.1324

> <Gold.PLP.ligand.clash>
0.0000

> <Gold.PLP.ligand.torsion>
0.6320

> <Gold.PLP.Chemscore.Hbond>
2.0000

> <Gold.PLP.Chemscore.CHOScore>
0.0000

> <Gold.PLP.Chemscore.Metal>
0.0000

> <Gold.Chemscore.Hbonds>
donor molecule, donor type, donor heavy atom, donor atom, acceptor molecule, acceptor atom, score
      L1  H     9    54       P1 10186  2.00

> <Gold.PLP.Chemscore.Internal.Correction>
0.0849

> <Gold.Rescore>
     Score         DG    S(hbond)    S(metal)    S(lipo)     H(rot)  DE(clash)    DE(int)     intcor
     16.93     -17.50       0.98        0.00     106.60       1.46       0.01       0.55       ----

> <Gold.Chemscore.Fitness>
16.9321

> <Gold.Chemscore.DG>
-17.4970

> <Gold.Chemscore.ZeroCoef>
-5.4800

> <Gold.Chemscore.Hbond>
0.9807

> <Gold.Chemscore.Metal>
0.0000

> <Gold.Chemscore.Lipo>
106.5988

> <Gold.Chemscore.Internal_Hbond>
0.0000

> <Gold.Chemscore.DEClash>
0.0126

> <Gold.Chemscore.DEInternal>
0.5524

> <Gold.Chemscore.Rot>
1.4572

> <Gold.Chemscore.Internal.Correction>
   9.000000E+99

> <Gold.Chemscore.Hbonds>
donor molecule, donor type, donor heavy atom, donor atom, acceptor molecule, acceptor atom, score
      L1  H     9    54       P1 10186  0.98

> <Gold.Chemscore.Hbond.Weighted>
-3.2755

> <Gold.Chemscore.Metal.Weighted>
-0.0000

> <Gold.Chemscore.Lipo.Weighted>
-12.4721

> <Gold.Chemscore.Internal_Hbond.Weighted>
0.0000

> <Gold.Chemscore.DEClash.Weighted>
0.0126

> <Gold.Chemscore.DEInternal.Weighted>
0.5524

> <Gold.Chemscore.Rot.Weighted>
3.7305

> <Gold.Chemscore.Internal.Correction.Weighted>
   9.000000E+99

> <Gold.Protein.RotatedTorsions>
[ 6907 6896 6895 6894 ] final    7.99 input  -60.11 | X-H torsion
[ 7974 7965 7964 7962 ] final -173.74 input  175.53 | X-H torsion
[ 8008 7997 7996 7995 ] final    5.02 input   59.86 | X-H torsion
[ 10167 10162 10161 10158 ] final -109.65 input  -65.29 | X-H torsion
[ 10718 10713 10712 10709 ] final   16.36 input   66.30 | X-H torsion
[ 10763 10752 10751 10750 ] final -176.23 input  -60.55 | X-H torsion
[ 11005 11000 10999 10996 ] final   14.12 input  -57.11 | X-H torsion

> <Gold.Protein.ActiveResidues>
 VAL166  LYS551  ARG553  GLY616  TRP617  ASP618  TYR619  PRO620  LYS621  CYS622 
 ASP623  PHE694  ASN695  SER759  ASP760  ASP761  ALA762  ILE779  LEU786  VAL792 
 PHE793  MET794  SER795  GLU796  ALA797  LYS798  CYS799  TRP800  GLU811  SER814 

> <Gold.Protein.RotatedAtoms>
  151.6988  135.0934  160.0246 H   0  0  0  0  0  0  0  0  0  0  0  0  # atno 6907 bound_to 6896
  152.3733  133.6444  159.6112 H   0  0  0  0  0  0  0  0  0  0  0  0  # atno 6908 bound_to 6896
  150.7690  133.9150  159.3422 H   0  0  0  0  0  0  0  0  0  0  0  0  # atno 6909 bound_to 6896
  144.7136  140.1577  143.6379 H   0  0  0  0  0  0  0  0  0  0  0  0  # atno 7974 bound_to 7965
  154.7232  140.2716  155.6523 H   0  0  0  0  0  0  0  0  0  0  0  0  # atno 8008 bound_to 7997
  156.2829  140.2730  156.1834 H   0  0  0  0  0  0  0  0  0  0  0  0  # atno 8009 bound_to 7997
  155.0480  140.0371  157.2523 H   0  0  0  0  0  0  0  0  0  0  0  0  # atno 8010 bound_to 7997
  140.1530  143.4183  152.1481 H   0  0  0  0  0  0  0  0  0  0  0  0  # atno 10167 bound_to 10162
  157.0667  130.6331  149.5797 H   0  0  0  0  0  0  0  0  0  0  0  0  # atno 10718 bound_to 10713
  154.5749  135.2831  155.0790 H   0  0  0  0  0  0  0  0  0  0  0  0  # atno 10763 bound_to 10752
  154.2149  135.6401  153.5130 H   0  0  0  0  0  0  0  0  0  0  0  0  # atno 10764 bound_to 10752
  153.0069  135.5500  154.6384 H   0  0  0  0  0  0  0  0  0  0  0  0  # atno 10765 bound_to 10752
  140.4731  134.1011  155.7736 H   0  0  0  0  0  0  0  0  0  0  0  0  # atno 11005 bound_to 11000
  145.9059  139.2458  143.1466 LP  0  0  0  0  0  0  0  0  0  0  0  0  # atno 17320 bound_to 7965
  145.9765  140.8718  143.0136 LP  0  0  0  0  0  0  0  0  0  0  0  0  # atno 17321 bound_to 7965
  139.5417  144.7262  151.4713 LP  0  0  0  0  0  0  0  0  0  0  0  0  # atno 17342 bound_to 10162
  140.6691  143.8334  150.6977 LP  0  0  0  0  0  0  0  0  0  0  0  0  # atno 17343 bound_to 10162
  155.9962  130.5031  150.7489 LP  0  0  0  0  0  0  0  0  0  0  0  0  # atno 17370 bound_to 10713
  157.4911  131.0911  151.0426 LP  0  0  0  0  0  0  0  0  0  0  0  0  # atno 17371 bound_to 10713
  141.1567  133.8868  157.1957 LP  0  0  0  0  0  0  0  0  0  0  0  0  # atno 17394 bound_to 11000
  139.9873  135.0077  156.9892 LP  0  0  0  0  0  0  0  0  0  0  0  0  # atno 17395 bound_to 11000

$$$$
