AV-unprocessed.smi:2877|AV-procd|sdf|11044|dock1
  -GOLD-   2272015513D 1   1.00000     0.00000
 Structure written by MMmdl.
 40 41  0  0  0  0  0  0  0  0  2 V2000
  146.9010  137.5678  160.0530 O   0  0  0  0  0  0  0  0  0  0  0  0
  147.3683  136.5454  160.5678 C   0  0  0  0  0  0  0  0  0  0  0  0
  148.4686  135.7125  159.8525 C   0  0  0  0  0  0  0  0  0  0  0  0
  148.8739  136.1157  158.4112 C   0  0  0  0  0  0  0  0  0  0  0  0
  149.7507  135.0973  157.8367 N   0  5  0  0  0  0  0  0  0  0  0  0
  149.3103  134.0136  157.1335 C   0  0  0  0  0  0  0  0  0  0  0  0
  148.2773  133.3475  157.2705 O   0  0  0  0  0  0  0  0  0  0  0  0
  150.2965  133.6191  156.0134 C   0  0  0  0  0  0  0  0  0  0  0  0
  150.4560  134.6550  155.1848 F   0  0  0  0  0  0  0  0  0  0  0  0
  151.4909  133.3553  156.5524 F   0  0  0  0  0  0  0  0  0  0  0  0
  149.7831  132.4156  155.2222 C   0  0  0  0  0  0  0  0  0  0  0  0
  148.6111  132.5058  154.4359 C   0  0  0  0  0  0  0  0  0  0  0  0
  148.1879  131.3707  153.7189 C   0  0  0  0  0  0  0  0  0  0  0  0
  148.9439  130.1873  153.8137 C   0  0  0  0  0  0  0  0  0  0  0  0
  150.0973  130.1940  154.6224 C   0  0  0  0  0  0  0  0  0  0  0  0
  150.5122  131.2766  155.3137 N   0  0  0  0  0  0  0  0  0  0  0  0
  146.9320  136.1144  161.7794 N   0  0  0  0  0  0  0  0  0  0  0  0
  145.8236  136.7572  162.4997 C   0  0  0  0  0  0  0  0  0  0  0  0
  144.6041  135.8172  162.4720 C   0  0  0  0  0  0  0  0  0  0  0  0
  144.9560  134.4389  163.0639 C   0  0  0  0  0  0  0  0  0  0  0  0
  146.2398  133.8614  162.4380 C   0  0  0  0  0  0  0  0  0  0  0  0
  147.3790  134.8963  162.4719 C   0  0  0  0  0  0  0  0  0  0  0  0
  149.3599  135.7398  160.4811 H   0  0  0  0  0  0  0  0  0  0  0  0
  148.1331  134.6749  159.8235 H   0  0  0  0  0  0  0  0  0  0  0  0
  147.9717  136.2310  157.8096 H   0  0  0  0  0  0  0  0  0  0  0  0
  149.3365  137.1037  158.4284 H   0  0  0  0  0  0  0  0  0  0  0  0
  148.0533  133.4283  154.3721 H   0  0  0  0  0  0  0  0  0  0  0  0
  147.2997  131.4078  153.1059 H   0  0  0  0  0  0  0  0  0  0  0  0
  148.6488  129.2974  153.2782 H   0  0  0  0  0  0  0  0  0  0  0  0
  150.7026  129.3048  154.7172 H   0  0  0  0  0  0  0  0  0  0  0  0
  146.1249  136.9511  163.5301 H   0  0  0  0  0  0  0  0  0  0  0  0
  145.5504  137.7288  162.0863 H   0  0  0  0  0  0  0  0  0  0  0  0
  143.7746  136.2601  163.0240 H   0  0  0  0  0  0  0  0  0  0  0  0
  144.2625  135.6963  161.4431 H   0  0  0  0  0  0  0  0  0  0  0  0
  145.1001  134.5413  164.1402 H   0  0  0  0  0  0  0  0  0  0  0  0
  144.1250  133.7460  162.9287 H   0  0  0  0  0  0  0  0  0  0  0  0
  146.5381  132.9563  162.9676 H   0  0  0  0  0  0  0  0  0  0  0  0
  146.0452  133.5677  161.4055 H   0  0  0  0  0  0  0  0  0  0  0  0
  148.2894  134.4617  162.0630 H   0  0  0  0  0  0  0  0  0  0  0  0
  147.6233  135.1437  163.5060 H   0  0  0  0  0  0  0  0  0  0  0  0
  1  2  2  0  0  0  0
  2  3  1  0  0  0  0
  2 17  1  0  0  0  0
  3  4  1  0  0  0  0
  3 23  1  0  0  0  0
  3 24  1  0  0  0  0
  4  5  1  0  0  0  0
  4 25  1  0  0  0  0
  4 26  1  0  0  0  0
  5  6  1  0  0  0  0
  6  7  2  0  0  0  0
  6  8  1  0  0  0  0
  8  9  1  0  0  0  0
  8 10  1  0  0  0  0
  8 11  1  0  0  0  0
 11 16  1  0  0  0  0
 11 12  2  0  0  0  0
 12 13  1  0  0  0  0
 12 27  1  0  0  0  0
 13 14  2  0  0  0  0
 13 28  1  0  0  0  0
 14 15  1  0  0  0  0
 14 29  1  0  0  0  0
 15 16  2  0  0  0  0
 15 30  1  0  0  0  0
 17 22  1  0  0  0  0
 17 18  1  0  0  0  0
 18 19  1  0  0  0  0
 18 31  1  0  0  0  0
 18 32  1  0  0  0  0
 19 20  1  0  0  0  0
 19 33  1  0  0  0  0
 19 34  1  0  0  0  0
 20 21  1  0  0  0  0
 20 35  1  0  0  0  0
 20 36  1  0  0  0  0
 21 22  1  0  0  0  0
 21 37  1  0  0  0  0
 21 38  1  0  0  0  0
 22 39  1  0  0  0  0
 22 40  1  0  0  0  0
M  CHG  1   5  -1
M  END
> <s_m_source_file>
AV-unprocessed.smi

> <i_m_source_file_index>
2877

> <i_lp_mmshare_version>
43012

> <i_f3d_flags>
0

> <s_epik_input>
W0NIMl0xW0NIMl1bQ0gyXVtDSDJdW0NIMl1OMUMoPU8pW0NIMl1bQ0gyXVtOSF1DKD1PKUMoRikoRiljMltjSF1bY0hdW2NIXVtjSF1uMg==

> <s_epik_cmdline>
J2VwaWtfcHl0aG9uJywgJy1waCcsICc3LjAnLCAnLXRuJywgJzgnLCAnLW1hJywgJzIwMCcsICctbWV0YWxfYmluZGluZycsICctaW1hZScsICc8aW5maWxlLm1hZT4nLCAnLW9tYWUnLCAnPG91dGZpbGUubWFlPic=

> <r_lp_tautomer_probability>
1

> <r_epik_Ionization_Penalty>
5.30743

> <r_epik_Ionization_Penalty_Charging>
5.30743

> <r_epik_Ionization_Penalty_Neutral>
2.29237e-06

> <r_epik_State_Penalty>
5.30735

> <r_epik_Charging_Adjusted_Penalty>
10.6148

> <i_epik_Tot_Q>
-1

> <i_epik_Tot_abs_Q>
1

> <r_epik_Metal_State_Penalty>
1.35027

> <b_epik_Metal_Only>
1

> <s_lp_Force_Field>
OPLS_2005

> <r_lp_Energy>
42.7236

> <b_lp_Chiralities_Consistent>
1

> <s_lp_Variant>
AV-unprocessed.smi:2877-2

> <Gold.Version>
5.8.1

> <Gold.Id.Protein>
6NUR|6NUR_protein|mol2

> <Gold.PLP.Fitness>
47.8869

> <Gold.PLP.PLP>
-40.0256

> <Gold.PLP.part.hbond>
-2.0000

> <Gold.PLP.part.metal>
0.0000

> <Gold.PLP.part.buried>
-5.4081

> <Gold.PLP.part.nonpolar>
-33.2283

> <Gold.PLP.part.repulsive>
0.0000

> <Gold.PLP.ligand.clash>
0.0000

> <Gold.PLP.ligand.torsion>
0.5895

> <Gold.PLP.Chemscore.Hbond>
2.9520

> <Gold.PLP.Chemscore.CHOScore>
0.0000

> <Gold.PLP.Chemscore.Metal>
0.0000

> <Gold.Chemscore.Hbonds>
donor molecule, donor type, donor heavy atom, donor atom, acceptor molecule, acceptor atom, score
      P1  H  6896  6909       L1     5  1.95
      P1  H  6934  6947       L1     1  1.00

> <Gold.PLP.Chemscore.Internal.Correction>
0.1842

> <Gold.Rescore>
     Score         DG    S(hbond)    S(metal)    S(lipo)     H(rot)  DE(clash)    DE(int)     intcor
     13.26     -14.13       1.26        0.00      79.28       1.89       0.00       0.87       ----

> <Gold.Chemscore.Fitness>
13.2554

> <Gold.Chemscore.DG>
-14.1290

> <Gold.Chemscore.ZeroCoef>
-5.4800

> <Gold.Chemscore.Hbond>
1.2588

> <Gold.Chemscore.Metal>
0.0000

> <Gold.Chemscore.Lipo>
79.2793

> <Gold.Chemscore.Internal_Hbond>
0.0000

> <Gold.Chemscore.DEClash>
0.0012

> <Gold.Chemscore.DEInternal>
0.8724

> <Gold.Chemscore.Rot>
1.8871

> <Gold.Chemscore.Internal.Correction>
   9.000000E+99

> <Gold.Chemscore.Hbonds>
donor molecule, donor type, donor heavy atom, donor atom, acceptor molecule, acceptor atom, score
      P1  H  6896  6909       L1     5  0.17
      P1  H  6934  6947       L1     1  0.92

> <Gold.Chemscore.Hbond.Weighted>
-4.2042

> <Gold.Chemscore.Metal.Weighted>
-0.0000

> <Gold.Chemscore.Lipo.Weighted>
-9.2757

> <Gold.Chemscore.Internal_Hbond.Weighted>
0.0000

> <Gold.Chemscore.DEClash.Weighted>
0.0012

> <Gold.Chemscore.DEInternal.Weighted>
0.8724

> <Gold.Chemscore.Rot.Weighted>
4.8309

> <Gold.Chemscore.Internal.Correction.Weighted>
   9.000000E+99

> <Gold.Protein.RotatedTorsions>
[ 6907 6896 6895 6894 ] final   38.37 input  -60.11 | X-H torsion
[ 7974 7965 7964 7962 ] final -112.78 input  175.53 | X-H torsion
[ 8008 7997 7996 7995 ] final  168.45 input   59.86 | X-H torsion
[ 10167 10162 10161 10158 ] final  119.65 input  -65.29 | X-H torsion
[ 10718 10713 10712 10709 ] final -100.73 input   66.30 | X-H torsion
[ 10763 10752 10751 10750 ] final   68.75 input  -60.55 | X-H torsion
[ 11005 11000 10999 10996 ] final  149.68 input  -57.11 | X-H torsion

> <Gold.Protein.ActiveResidues>
 VAL166  LYS551  ARG553  GLY616  TRP617  ASP618  TYR619  PRO620  LYS621  CYS622 
 ASP623  PHE694  ASN695  SER759  ASP760  ASP761  ALA762  ILE779  LEU786  VAL792 
 PHE793  MET794  SER795  GLU796  ALA797  LYS798  CYS799  TRP800  GLU811  SER814 

> <Gold.Protein.RotatedAtoms>
  152.1555  134.8954  160.0545 H   0  0  0  0  0  0  0  0  0  0  0  0  # atno 6907 bound_to 6896
  151.9970  133.3806  159.4175 H   0  0  0  0  0  0  0  0  0  0  0  0  # atno 6908 bound_to 6896
  150.6881  134.3797  159.5072 H   0  0  0  0  0  0  0  0  0  0  0  0  # atno 6909 bound_to 6896
  145.1398  140.8771  143.3708 H   0  0  0  0  0  0  0  0  0  0  0  0  # atno 7974 bound_to 7965
  156.1546  140.1590  156.8714 H   0  0  0  0  0  0  0  0  0  0  0  0  # atno 8008 bound_to 7997
  154.5102  140.0803  156.8012 H   0  0  0  0  0  0  0  0  0  0  0  0  # atno 8009 bound_to 7997
  155.3829  140.3406  155.4250 H   0  0  0  0  0  0  0  0  0  0  0  0  # atno 8010 bound_to 7997
  139.6032  144.7063  151.3013 H   0  0  0  0  0  0  0  0  0  0  0  0  # atno 10167 bound_to 10162
  156.0172  130.5341  150.6860 H   0  0  0  0  0  0  0  0  0  0  0  0  # atno 10718 bound_to 10713
  153.0251  135.5236  154.7182 H   0  0  0  0  0  0  0  0  0  0  0  0  # atno 10763 bound_to 10752
  154.6245  135.2893  155.0290 H   0  0  0  0  0  0  0  0  0  0  0  0  # atno 10764 bound_to 10752
  154.1264  135.6599  153.4966 H   0  0  0  0  0  0  0  0  0  0  0  0  # atno 10765 bound_to 10752
  140.1066  134.8950  157.1874 H   0  0  0  0  0  0  0  0  0  0  0  0  # atno 11005 bound_to 11000
  145.0544  139.3155  143.5912 LP  0  0  0  0  0  0  0  0  0  0  0  0  # atno 17320 bound_to 7965
  146.3506  139.9964  142.8680 LP  0  0  0  0  0  0  0  0  0  0  0  0  # atno 17321 bound_to 7965
  140.7265  143.6987  150.7862 LP  0  0  0  0  0  0  0  0  0  0  0  0  # atno 17342 bound_to 10162
  140.0568  143.5195  152.2647 LP  0  0  0  0  0  0  0  0  0  0  0  0  # atno 17343 bound_to 10162
  157.4552  131.0877  151.0804 LP  0  0  0  0  0  0  0  0  0  0  0  0  # atno 17370 bound_to 10713
  157.1308  130.6101  149.5529 LP  0  0  0  0  0  0  0  0  0  0  0  0  # atno 17371 bound_to 10713
  140.3148  134.2983  155.7259 LP  0  0  0  0  0  0  0  0  0  0  0  0  # atno 17394 bound_to 11000
  141.2119  133.7673  156.9827 LP  0  0  0  0  0  0  0  0  0  0  0  0  # atno 17395 bound_to 11000

$$$$
