AV-unprocessed.smi:639|AV-procd|sdf|3148|dock8
  -GOLD-   22720 0 73D 1   1.00000     0.00000
 Structure written by MMmdl.
 23 24  0  0  0  0  0  0  0  0  2 V2000
  151.8469  143.9456  158.8226 C   0  0  0  0  0  0  0  0  0  0  0  0
  151.6621  142.6890  158.1293 N   0  0  0  0  0  0  0  0  0  0  0  0
  150.9460  142.4379  156.9794 C   0  0  0  0  0  0  0  0  0  0  0  0
  151.0556  141.1018  156.7017 C   0  0  0  0  0  0  0  0  0  0  0  0
  150.4569  140.3002  155.5589 C   0  0  1  0  0  0  0  0  0  0  0  0
  149.5072  141.1674  154.7097 C   0  0  0  0  0  0  0  0  0  0  0  0
  151.4677  139.6940  154.7036 N   0  5  0  0  0  0  0  0  0  0  0  0
  151.3594  138.3465  154.7866 C   0  0  0  0  0  0  0  0  0  0  0  0
  152.0452  137.5000  154.2180 O   0  0  0  0  0  0  0  0  0  0  0  0
  150.3596  138.0036  155.6042 N   0  0  0  0  0  0  0  0  0  0  0  0
  149.7448  139.0704  156.1054 C   0  0  0  0  0  0  0  0  0  0  0  0
  148.7771  139.0813  156.8661 O   0  0  0  0  0  0  0  0  0  0  0  0
  151.8735  140.6225  157.7681 C   0  0  0  0  0  0  0  0  0  0  0  0
  152.2359  141.5710  158.6163 N   0  0  0  0  0  0  0  0  0  0  0  0
  151.3301  144.7452  158.2910 H   0  0  0  0  0  0  0  0  0  0  0  0
  152.9092  144.1850  158.8774 H   0  0  0  0  0  0  0  0  0  0  0  0
  151.4419  143.8724  159.8324 H   0  0  0  0  0  0  0  0  0  0  0  0
  150.4196  143.2225  156.4558 H   0  0  0  0  0  0  0  0  0  0  0  0
  148.6951  141.5779  155.3109 H   0  0  0  0  0  0  0  0  0  0  0  0
  149.0553  140.5956  153.8976 H   0  0  0  0  0  0  0  0  0  0  0  0
  150.0391  142.0077  154.2620 H   0  0  0  0  0  0  0  0  0  0  0  0
  150.0958  137.0506  155.8048 H   0  0  0  0  0  0  0  0  0  0  0  0
  152.2137  139.6131  157.9464 H   0  0  0  0  0  0  0  0  0  0  0  0
  1  2  1  0  0  0  0
  1 15  1  0  0  0  0
  1 16  1  0  0  0  0
  1 17  1  0  0  0  0
  2 14  1  0  0  0  0
  2  3  1  0  0  0  0
  3  4  2  0  0  0  0
  3 18  1  0  0  0  0
  4  5  1  0  0  0  0
  4 13  1  0  0  0  0
  5 11  1  0  0  0  0
  5  6  1  0  0  0  0
  5  7  1  0  0  0  0
  6 19  1  0  0  0  0
  6 20  1  0  0  0  0
  6 21  1  0  0  0  0
  7  8  1  0  0  0  0
  8  9  2  0  0  0  0
  8 10  1  0  0  0  0
 10 11  1  0  0  0  0
 10 22  1  0  0  0  0
 11 12  2  0  0  0  0
 13 14  2  0  0  0  0
 13 23  1  0  0  0  0
M  CHG  1   7  -1
M  END
> <s_m_source_file>
AV-unprocessed.smi

> <i_m_source_file_index>
639

> <i_lp_mmshare_version>
43012

> <i_f3d_flags>
0

> <s_epik_input>
W0NIM11uMVtjSF1jKFtjSF1uMSlbQ0BAXTIoW0NIM10pW05IXUMoPU8pW05IXUMyPU8=

> <s_epik_cmdline>
J2VwaWtfcHl0aG9uJywgJy1waCcsICc3LjAnLCAnLXRuJywgJzgnLCAnLW1hJywgJzIwMCcsICctbWV0YWxfYmluZGluZycsICctaW1hZScsICc8aW5maWxlLm1hZT4nLCAnLW9tYWUnLCAnPG91dGZpbGUubWFlPic=

> <r_lp_tautomer_probability>
1

> <r_epik_Ionization_Penalty>
4.83415

> <r_epik_Ionization_Penalty_Charging>
4.8337

> <r_epik_Ionization_Penalty_Neutral>
0.000449923

> <r_epik_State_Penalty>
4.85653

> <r_epik_Charging_Adjusted_Penalty>
9.69023

> <i_epik_Tot_Q>
-1

> <i_epik_Tot_abs_Q>
1

> <r_epik_Metal_State_Penalty>
1.31841

> <b_epik_Metal_Only>
1

> <s_lp_Force_Field>
OPLS_2005

> <r_lp_Energy>
8.78459

> <b_lp_Chiralities_Consistent>
1

> <s_lp_Variant>
AV-unprocessed.smi:639-5

> <Gold.Version>
5.8.1

> <Gold.Id.Protein>
6NUR|6NUR_protein|mol2

> <Gold.PLP.Fitness>
33.7747

> <Gold.PLP.PLP>
-25.1961

> <Gold.PLP.part.hbond>
-2.0000

> <Gold.PLP.part.metal>
0.0000

> <Gold.PLP.part.buried>
-4.1814

> <Gold.PLP.part.nonpolar>
-20.1435

> <Gold.PLP.part.repulsive>
0.2548

> <Gold.PLP.ligand.clash>
0.0000

> <Gold.PLP.ligand.torsion>
0.1316

> <Gold.PLP.Chemscore.Hbond>
1.9280

> <Gold.PLP.Chemscore.CHOScore>
1.0000

> <Gold.PLP.Chemscore.Metal>
0.0000

> <Gold.Chemscore.Hbonds>
donor molecule, donor type, donor heavy atom, donor atom, acceptor molecule, acceptor atom, score
      P1  H  7989  7998       L1     7  1.00
      P1  H 10752 10765       L1     9  0.90
      L1  C     3    18       P1  8028  1.00

> <Gold.PLP.Chemscore.Internal.Correction>
0.0579

> <Gold.Rescore>
     Score         DG    S(hbond)    S(metal)    S(lipo)     H(rot)  DE(clash)    DE(int)     intcor
     13.50     -13.54       1.63        0.00      44.22       1.00       0.00       0.04       ----

> <Gold.Chemscore.Fitness>
13.5004

> <Gold.Chemscore.DG>
-13.5425

> <Gold.Chemscore.ZeroCoef>
-5.4800

> <Gold.Chemscore.Hbond>
1.6315

> <Gold.Chemscore.Metal>
0.0000

> <Gold.Chemscore.Lipo>
44.2164

> <Gold.Chemscore.Internal_Hbond>
0.0000

> <Gold.Chemscore.DEClash>
0.0000

> <Gold.Chemscore.DEInternal>
0.0421

> <Gold.Chemscore.Rot>
1.0000

> <Gold.Chemscore.Internal.Correction>
   9.000000E+99

> <Gold.Chemscore.Hbonds>
donor molecule, donor type, donor heavy atom, donor atom, acceptor molecule, acceptor atom, score
      P1  H  7989  7998       L1     7  0.35
      P1  H 10752 10765       L1     9  0.82

> <Gold.Chemscore.Hbond.Weighted>
-5.4491

> <Gold.Chemscore.Metal.Weighted>
-0.0000

> <Gold.Chemscore.Lipo.Weighted>
-5.1733

> <Gold.Chemscore.Internal_Hbond.Weighted>
0.0000

> <Gold.Chemscore.DEClash.Weighted>
0.0000

> <Gold.Chemscore.DEInternal.Weighted>
0.0421

> <Gold.Chemscore.Rot.Weighted>
2.5600

> <Gold.Chemscore.Internal.Correction.Weighted>
   9.000000E+99

> <Gold.Protein.RotatedTorsions>
[ 6907 6896 6895 6894 ] final  -55.55 input  -60.11 | X-H torsion
[ 7974 7965 7964 7962 ] final  150.70 input  175.53 | X-H torsion
[ 8008 7997 7996 7995 ] final -134.08 input   59.86 | X-H torsion
[ 10167 10162 10161 10158 ] final   47.99 input  -65.29 | X-H torsion
[ 10718 10713 10712 10709 ] final   73.85 input   66.30 | X-H torsion
[ 10763 10752 10751 10750 ] final  152.88 input  -60.55 | X-H torsion
[ 11005 11000 10999 10996 ] final  -45.56 input  -57.11 | X-H torsion

> <Gold.Protein.ActiveResidues>
 VAL166  LYS551  ARG553  GLY616  TRP617  ASP618  TYR619  PRO620  LYS621  CYS622 
 ASP623  PHE694  ASN695  SER759  ASP760  ASP761  ALA762  ILE779  LEU786  VAL792 
 PHE793  MET794  SER795  GLU796  ALA797  LYS798  CYS799  TRP800  GLU811  SER814 

> <Gold.Protein.RotatedAtoms>
  150.8242  134.7464  159.6797 H   0  0  0  0  0  0  0  0  0  0  0  0  # atno 6907 bound_to 6896
  152.4354  134.5693  159.9926 H   0  0  0  0  0  0  0  0  0  0  0  0  # atno 6908 bound_to 6896
  151.5869  133.3333  159.3056 H   0  0  0  0  0  0  0  0  0  0  0  0  # atno 6909 bound_to 6896
  144.8345  139.6442  143.6044 H   0  0  0  0  0  0  0  0  0  0  0  0  # atno 7974 bound_to 7965
  155.3561  140.0480  157.3046 H   0  0  0  0  0  0  0  0  0  0  0  0  # atno 8008 bound_to 7997
  154.5202  140.2222  155.8954 H   0  0  0  0  0  0  0  0  0  0  0  0  # atno 8009 bound_to 7997
  156.1681  140.3102  155.8930 H   0  0  0  0  0  0  0  0  0  0  0  0  # atno 8010 bound_to 7997
  140.2979  144.2968  150.6225 H   0  0  0  0  0  0  0  0  0  0  0  0  # atno 10167 bound_to 10162
  157.6566  130.9649  150.1127 H   0  0  0  0  0  0  0  0  0  0  0  0  # atno 10718 bound_to 10713
  154.1271  135.2829  155.3194 H   0  0  0  0  0  0  0  0  0  0  0  0  # atno 10763 bound_to 10752
  154.6382  135.5412  153.7761 H   0  0  0  0  0  0  0  0  0  0  0  0  # atno 10764 bound_to 10752
  153.0293  135.6479  154.1423 H   0  0  0  0  0  0  0  0  0  0  0  0  # atno 10765 bound_to 10752
  141.0523  133.6738  156.3030 H   0  0  0  0  0  0  0  0  0  0  0  0  # atno 11005 bound_to 11000
  146.2645  139.6488  142.9339 LP  0  0  0  0  0  0  0  0  0  0  0  0  # atno 17320 bound_to 7965
  145.4824  141.0438  143.2638 LP  0  0  0  0  0  0  0  0  0  0  0  0  # atno 17321 bound_to 7965
  140.5676  143.2184  151.7656 LP  0  0  0  0  0  0  0  0  0  0  0  0  # atno 17342 bound_to 10162
  139.4922  144.4262  151.9923 LP  0  0  0  0  0  0  0  0  0  0  0  0  # atno 17343 bound_to 10162
  156.2019  130.3661  149.8777 LP  0  0  0  0  0  0  0  0  0  0  0  0  # atno 17370 bound_to 10713
  156.6678  130.8808  151.3557 LP  0  0  0  0  0  0  0  0  0  0  0  0  # atno 17371 bound_to 10713
  140.6031  134.5534  157.5521 LP  0  0  0  0  0  0  0  0  0  0  0  0  # atno 17394 bound_to 11000
  139.9361  134.7873  156.0800 LP  0  0  0  0  0  0  0  0  0  0  0  0  # atno 17395 bound_to 11000

$$$$
