AV-unprocessed.smi:3093|AV-procd|sdf|11787|dock3
  -GOLD-   2272017163D 1   1.00000     0.00000
 Structure written by MMmdl.
 25 26  0  0  0  0  0  0  0  0  2 V2000
  148.3890  141.2791  154.7405 C   0  0  0  0  0  0  0  0  0  0  0  0
  149.1897  140.2199  154.2288 C   0  0  0  0  0  0  0  0  0  0  0  0
  150.3425  140.0982  154.8675 N   0  0  0  0  0  0  0  0  0  0  0  0
  150.3160  141.0718  155.8031 N   0  0  0  0  0  0  0  0  0  0  0  0
  151.4391  141.2348  156.7080 C   0  0  0  0  0  0  0  0  0  0  0  0
  151.2145  142.3739  157.7187 C   0  0  1  0  0  0  0  0  0  0  0  0
  152.2282  142.4367  158.8662 C   0  0  0  0  0  0  0  0  0  0  0  0
  152.1468  143.8922  159.3094 C   0  0  0  0  0  0  0  0  0  0  0  0
  151.9236  144.6489  157.9978 C   0  0  0  0  0  0  0  0  0  0  0  0
  151.2680  143.7011  157.0736 N   0  3  0  0  0  0  0  0  0  0  0  0
  149.1471  141.8016  155.7487 C   0  0  0  0  0  0  0  0  0  0  0  0
  147.4113  141.6039  154.4164 H   0  0  0  0  0  0  0  0  0  0  0  0
  148.9692  139.5409  153.4184 H   0  0  0  0  0  0  0  0  0  0  0  0
  151.6095  140.2913  157.2295 H   0  0  0  0  0  0  0  0  0  0  0  0
  152.3327  141.4278  156.1129 H   0  0  0  0  0  0  0  0  0  0  0  0
  150.2182  142.2758  158.1528 H   0  0  0  0  0  0  0  0  0  0  0  0
  152.0025  141.7360  159.6709 H   0  0  0  0  0  0  0  0  0  0  0  0
  153.2327  142.2187  158.5001 H   0  0  0  0  0  0  0  0  0  0  0  0
  151.2880  144.0289  159.9681 H   0  0  0  0  0  0  0  0  0  0  0  0
  153.0371  144.2244  159.8442 H   0  0  0  0  0  0  0  0  0  0  0  0
  151.3236  145.5485  158.1376 H   0  0  0  0  0  0  0  0  0  0  0  0
  152.8792  144.9450  157.5639 H   0  0  0  0  0  0  0  0  0  0  0  0
  151.8204  143.6423  156.2300 H   0  0  0  0  0  0  0  0  0  0  0  0
  148.9536  142.6215  156.4247 H   0  0  0  0  0  0  0  0  0  0  0  0
  150.3340  144.0117  156.8464 H   0  0  0  0  0  0  0  0  0  0  0  0
  1 11  2  0  0  0  0
  1  2  1  0  0  0  0
  1 12  1  0  0  0  0
  2  3  2  0  0  0  0
  2 13  1  0  0  0  0
  3  4  1  0  0  0  0
  4  5  1  0  0  0  0
  4 11  1  0  0  0  0
  5  6  1  0  0  0  0
  5 14  1  0  0  0  0
  5 15  1  0  0  0  0
  6 10  1  0  0  0  0
  6  7  1  0  0  0  0
  6 16  1  0  0  0  0
  7  8  1  0  0  0  0
  7 17  1  0  0  0  0
  7 18  1  0  0  0  0
  8  9  1  0  0  0  0
  8 19  1  0  0  0  0
  8 20  1  0  0  0  0
  9 10  1  0  0  0  0
  9 21  1  0  0  0  0
  9 22  1  0  0  0  0
 10 23  1  0  0  0  0
 10 25  1  0  0  0  0
 11 24  1  0  0  0  0
M  CHG  1  10   1
M  END
> <s_m_source_file>
AV-unprocessed.smi

> <i_m_source_file_index>
3093

> <i_lp_mmshare_version>
43012

> <i_f3d_flags>
0

> <s_epik_input>
W2NIXTFbY0hdW2NIXW5uMVtDSDJdW0NAQEhdMltDSDJdW0NIMl1bQ0gyXVtOSF0y

> <s_epik_cmdline>
J2VwaWtfcHl0aG9uJywgJy1waCcsICc3LjAnLCAnLXRuJywgJzgnLCAnLW1hJywgJzIwMCcsICctbWV0YWxfYmluZGluZycsICctaW1hZScsICc8aW5maWxlLm1hZT4nLCAnLW9tYWUnLCAnPG91dGZpbGUubWFlPic=

> <r_lp_tautomer_probability>
1

> <r_epik_Ionization_Penalty>
0.000867737

> <r_epik_Ionization_Penalty_Charging>
0.000863359

> <r_epik_Ionization_Penalty_Neutral>
4.37747e-06

> <r_epik_State_Penalty>
0.000557253

> <r_epik_Charging_Adjusted_Penalty>
0.00142061

> <i_epik_Tot_Q>
1

> <i_epik_Tot_abs_Q>
1

> <r_epik_Metal_State_Penalty>
-0

> <b_epik_Metal_Only>
0

> <s_lp_Force_Field>
OPLS_2005

> <r_lp_Energy>
24.4202

> <b_lp_Chiralities_Consistent>
1

> <s_lp_Variant>
AV-unprocessed.smi:3093-2

> <Gold.Version>
5.8.1

> <Gold.Id.Protein>
6NUR|6NUR_protein|mol2

> <Gold.PLP.Fitness>
40.0601

> <Gold.PLP.PLP>
-25.9322

> <Gold.PLP.part.hbond>
-2.0000

> <Gold.PLP.part.metal>
0.0000

> <Gold.PLP.part.buried>
0.6725

> <Gold.PLP.part.nonpolar>
-23.7613

> <Gold.PLP.part.repulsive>
0.0820

> <Gold.PLP.ligand.clash>
0.0000

> <Gold.PLP.ligand.torsion>
0.0594

> <Gold.PLP.Chemscore.Hbond>
3.0000

> <Gold.PLP.Chemscore.CHOScore>
1.7488

> <Gold.PLP.Chemscore.Metal>
0.0000

> <Gold.Chemscore.Hbonds>
donor molecule, donor type, donor heavy atom, donor atom, acceptor molecule, acceptor atom, score
      L1  H    10    25       P1  8028  2.00
      P1  H  7989  7998       L1     3  0.99
      L1  C     2    13       P1  7957  0.83
      L1  C    11    24       P1  8028  0.81

> <Gold.PLP.Chemscore.Internal.Correction>
0.0002

> <Gold.Rescore>
     Score         DG    S(hbond)    S(metal)    S(lipo)     H(rot)  DE(clash)    DE(int)     intcor
     16.04     -16.42       1.76        0.00      69.60       1.21       0.10       0.28       ----

> <Gold.Chemscore.Fitness>
16.0427

> <Gold.Chemscore.DG>
-16.4217

> <Gold.Chemscore.ZeroCoef>
-5.4800

> <Gold.Chemscore.Hbond>
1.7618

> <Gold.Chemscore.Metal>
0.0000

> <Gold.Chemscore.Lipo>
69.6044

> <Gold.Chemscore.Internal_Hbond>
0.0000

> <Gold.Chemscore.DEClash>
0.1007

> <Gold.Chemscore.DEInternal>
0.2783

> <Gold.Chemscore.Rot>
1.2056

> <Gold.Chemscore.Internal.Correction>
   9.000000E+99

> <Gold.Chemscore.Hbonds>
donor molecule, donor type, donor heavy atom, donor atom, acceptor molecule, acceptor atom, score
      L1  H    10    25       P1  8028  0.95
      P1  H  7989  7998       L1     3  0.10

> <Gold.Chemscore.Hbond.Weighted>
-5.8844

> <Gold.Chemscore.Metal.Weighted>
-0.0000

> <Gold.Chemscore.Lipo.Weighted>
-8.1437

> <Gold.Chemscore.Internal_Hbond.Weighted>
0.0000

> <Gold.Chemscore.DEClash.Weighted>
0.1007

> <Gold.Chemscore.DEInternal.Weighted>
0.2783

> <Gold.Chemscore.Rot.Weighted>
3.0864

> <Gold.Chemscore.Internal.Correction.Weighted>
   9.000000E+99

> <Gold.Protein.RotatedTorsions>
[ 6907 6896 6895 6894 ] final  174.70 input  -60.11 | X-H torsion
[ 7974 7965 7964 7962 ] final -106.04 input  175.53 | X-H torsion
[ 8008 7997 7996 7995 ] final -138.36 input   59.86 | X-H torsion
[ 10167 10162 10161 10158 ] final   54.60 input  -65.29 | X-H torsion
[ 10718 10713 10712 10709 ] final   59.35 input   66.30 | X-H torsion
[ 10763 10752 10751 10750 ] final  -56.53 input  -60.55 | X-H torsion
[ 11005 11000 10999 10996 ] final  -57.54 input  -57.11 | X-H torsion

> <Gold.Protein.ActiveResidues>
 VAL166  LYS551  ARG553  GLY616  TRP617  ASP618  TYR619  PRO620  LYS621  CYS622 
 ASP623  PHE694  ASN695  SER759  ASP760  ASP761  ALA762  ILE779  LEU786  VAL792 
 PHE793  MET794  SER795  GLU796  ALA797  LYS798  CYS799  TRP800  GLU811  SER814 

> <Gold.Protein.RotatedAtoms>
  151.7481  133.3325  159.3383 H   0  0  0  0  0  0  0  0  0  0  0  0  # atno 6907 bound_to 6896
  150.7546  134.6217  159.6149 H   0  0  0  0  0  0  0  0  0  0  0  0  # atno 6908 bound_to 6896
  152.3486  134.7038  160.0294 H   0  0  0  0  0  0  0  0  0  0  0  0  # atno 6909 bound_to 6896
  145.2228  140.9141  143.3249 H   0  0  0  0  0  0  0  0  0  0  0  0  # atno 7974 bound_to 7965
  155.4271  140.0522  157.3021 H   0  0  0  0  0  0  0  0  0  0  0  0  # atno 8008 bound_to 7997
  154.4876  140.2107  155.9578 H   0  0  0  0  0  0  0  0  0  0  0  0  # atno 8009 bound_to 7997
  156.1297  140.3174  155.8336 H   0  0  0  0  0  0  0  0  0  0  0  0  # atno 8010 bound_to 7997
  140.2284  144.3713  150.6423 H   0  0  0  0  0  0  0  0  0  0  0  0  # atno 10167 bound_to 10162
  157.5668  130.8877  149.9201 H   0  0  0  0  0  0  0  0  0  0  0  0  # atno 10718 bound_to 10713
  154.2080  135.6399  153.5107 H   0  0  0  0  0  0  0  0  0  0  0  0  # atno 10763 bound_to 10752
  152.9996  135.5467  154.6245 H   0  0  0  0  0  0  0  0  0  0  0  0  # atno 10764 bound_to 10752
  154.5674  135.2914  155.0833 H   0  0  0  0  0  0  0  0  0  0  0  0  # atno 10765 bound_to 10752
  141.1169  133.6610  156.4784 H   0  0  0  0  0  0  0  0  0  0  0  0  # atno 11005 bound_to 11000
  144.9749  139.3842  143.6290 LP  0  0  0  0  0  0  0  0  0  0  0  0  # atno 17320 bound_to 7965
  146.3372  139.8864  142.8816 LP  0  0  0  0  0  0  0  0  0  0  0  0  # atno 17321 bound_to 7965
  140.6203  143.2176  151.6707 LP  0  0  0  0  0  0  0  0  0  0  0  0  # atno 17342 bound_to 10162
  139.5119  144.3495  152.0666 LP  0  0  0  0  0  0  0  0  0  0  0  0  # atno 17343 bound_to 10162
  156.0716  130.3684  150.0764 LP  0  0  0  0  0  0  0  0  0  0  0  0  # atno 17370 bound_to 10713
  156.8922  130.9592  151.3587 LP  0  0  0  0  0  0  0  0  0  0  0  0  # atno 17371 bound_to 10713
  140.4621  134.6832  157.5090 LP  0  0  0  0  0  0  0  0  0  0  0  0  # atno 17394 bound_to 11000
  140.0097  134.6709  155.9400 LP  0  0  0  0  0  0  0  0  0  0  0  0  # atno 17395 bound_to 11000

$$$$
