AV-unprocessed.smi:3132|AV-procd|sdf|11935|dock1
  -GOLD-   2272017323D 1   1.00000     0.00000
 Structure written by MMmdl.
 33 34  0  0  0  0  0  0  0  0  1 V2000
  151.4349  139.5371  155.7707 C   0  0  0  0  0  0  0  0  0  0  0  0
  150.6172  140.6562  156.4336 C   0  0  2  0  0  0  0  0  0  0  0  0
  150.0712  141.6507  155.3917 C   0  0  0  0  0  0  0  0  0  0  0  0
  148.8491  141.1790  154.7659 N   0  0  0  0  0  0  0  0  0  0  0  0
  147.6131  141.8125  154.7559 C   0  0  0  0  0  0  0  0  0  0  0  0
  146.7587  140.9955  154.0507 C   0  0  0  0  0  0  0  0  0  0  0  0
  147.4439  139.8629  153.6173 N   0  0  0  0  0  0  0  0  0  0  0  0
  148.6752  140.0427  154.0774 C   0  0  0  0  0  0  0  0  0  0  0  0
  151.4421  141.3619  157.4116 N   0  0  0  0  0  0  0  0  0  0  0  0
  151.0171  142.3192  158.2512 C   0  0  0  0  0  0  0  0  0  0  0  0
  149.8471  142.6995  158.2989 O   0  0  0  0  0  0  0  0  0  0  0  0
  152.0698  142.9638  159.1646 C   0  0  1  0  0  0  0  0  0  0  0  0
  152.2805  144.4704  158.9199 C   0  0  0  0  0  0  0  0  0  0  0  0
  152.0013  145.1074  160.2705 C   0  0  0  0  0  0  0  0  0  0  0  0
  152.2208  143.9533  161.2383 C   0  0  0  0  0  0  0  0  0  0  0  0
  151.6719  142.8551  160.5311 O   0  0  0  0  0  0  0  0  0  0  0  0
  150.8307  138.9851  155.0501 H   0  0  0  0  0  0  0  0  0  0  0  0
  151.7976  138.8217  156.5095 H   0  0  0  0  0  0  0  0  0  0  0  0
  152.3002  139.9376  155.2414 H   0  0  0  0  0  0  0  0  0  0  0  0
  149.7662  140.1984  156.9416 H   0  0  0  0  0  0  0  0  0  0  0  0
  149.8795  142.6223  155.8495 H   0  0  0  0  0  0  0  0  0  0  0  0
  150.8093  141.8154  154.6057 H   0  0  0  0  0  0  0  0  0  0  0  0
  147.4474  142.7635  155.2404 H   0  0  0  0  0  0  0  0  0  0  0  0
  145.7121  141.1347  153.8231 H   0  0  0  0  0  0  0  0  0  0  0  0
  149.4693  139.3289  153.9131 H   0  0  0  0  0  0  0  0  0  0  0  0
  152.4214  141.1166  157.4429 H   0  0  0  0  0  0  0  0  0  0  0  0
  153.0154  142.4346  159.0377 H   0  0  0  0  0  0  0  0  0  0  0  0
  153.3116  144.6546  158.6162 H   0  0  0  0  0  0  0  0  0  0  0  0
  151.6327  144.8903  158.1490 H   0  0  0  0  0  0  0  0  0  0  0  0
  152.6393  145.9664  160.4790 H   0  0  0  0  0  0  0  0  0  0  0  0
  150.9620  145.4348  160.3182 H   0  0  0  0  0  0  0  0  0  0  0  0
  153.2840  143.7853  161.4170 H   0  0  0  0  0  0  0  0  0  0  0  0
  151.7251  144.1047  162.1972 H   0  0  0  0  0  0  0  0  0  0  0  0
  1  2  1  0  0  0  0
  1 17  1  0  0  0  0
  1 18  1  0  0  0  0
  1 19  1  0  0  0  0
  2  3  1  0  0  0  0
  2  9  1  0  0  0  0
  2 20  1  0  0  0  0
  3  4  1  0  0  0  0
  3 21  1  0  0  0  0
  3 22  1  0  0  0  0
  4  8  1  0  0  0  0
  4  5  1  0  0  0  0
  5  6  2  0  0  0  0
  5 23  1  0  0  0  0
  6  7  1  0  0  0  0
  6 24  1  0  0  0  0
  7  8  2  0  0  0  0
  8 25  1  0  0  0  0
  9 10  1  0  0  0  0
  9 26  1  0  0  0  0
 10 11  2  0  0  0  0
 10 12  1  0  0  0  0
 12 16  1  0  0  0  0
 12 13  1  0  0  0  0
 12 27  1  0  0  0  0
 13 14  1  0  0  0  0
 13 28  1  0  0  0  0
 13 29  1  0  0  0  0
 14 15  1  0  0  0  0
 14 30  1  0  0  0  0
 14 31  1  0  0  0  0
 15 16  1  0  0  0  0
 15 32  1  0  0  0  0
 15 33  1  0  0  0  0
M  END
> <s_m_source_file>
AV-unprocessed.smi

> <i_m_source_file_index>
3132

> <i_lp_mmshare_version>
43012

> <i_f3d_flags>
0

> <s_epik_input>
W2NIXTFuW2NIXVtjSF1uMVtDSDJdW0NAQEhdKFtDSDNdKVtOSF1DKD1PKVtDQEBIXTJbQ0gyXVtDSDJdW0NIMl1PMg==

> <s_epik_cmdline>
J2VwaWtfcHl0aG9uJywgJy1waCcsICc3LjAnLCAnLXRuJywgJzgnLCAnLW1hJywgJzIwMCcsICctbWV0YWxfYmluZGluZycsICctaW1hZScsICc8aW5maWxlLm1hZT4nLCAnLW9tYWUnLCAnPG91dGZpbGUubWFlPic=

> <r_lp_tautomer_probability>
1

> <r_epik_Ionization_Penalty>
0.630322

> <r_epik_Ionization_Penalty_Charging>
0.630322

> <r_epik_Ionization_Penalty_Neutral>
3.82652e-08

> <r_epik_State_Penalty>
0.647117

> <r_epik_Charging_Adjusted_Penalty>
1.27744

> <i_epik_Tot_Q>
0

> <i_epik_Tot_abs_Q>
0

> <r_epik_Metal_State_Penalty>
0.309095

> <b_epik_Metal_Only>
0

> <s_lp_Force_Field>
OPLS_2005

> <r_lp_Energy>
19.804

> <b_lp_Chiralities_Consistent>
1

> <s_lp_Variant>
AV-unprocessed.smi:3132-7

> <Gold.Version>
5.8.1

> <Gold.Id.Protein>
6NUR|6NUR_protein|mol2

> <Gold.PLP.Fitness>
42.0585

> <Gold.PLP.PLP>
-35.9220

> <Gold.PLP.part.hbond>
-0.9242

> <Gold.PLP.part.metal>
0.0000

> <Gold.PLP.part.buried>
-2.0891

> <Gold.PLP.part.nonpolar>
-33.0925

> <Gold.PLP.part.repulsive>
0.5793

> <Gold.PLP.ligand.clash>
0.0000

> <Gold.PLP.ligand.torsion>
0.2971

> <Gold.PLP.Chemscore.Hbond>
0.0000

> <Gold.PLP.Chemscore.CHOScore>
2.1947

> <Gold.PLP.Chemscore.Metal>
0.0000

> <Gold.Chemscore.Hbonds>
donor molecule, donor type, donor heavy atom, donor atom, acceptor molecule, acceptor atom, score
      L1  C     5    23       P1  8028  1.00
      L1  C     6    24       P1 10175  1.00
      L1  C     8    25       P1  7957  0.05

> <Gold.PLP.Chemscore.Internal.Correction>
0.1464

> <Gold.Rescore>
     Score         DG    S(hbond)    S(metal)    S(lipo)     H(rot)  DE(clash)    DE(int)     intcor
     10.04     -10.32       0.00        0.00      82.15       1.86       0.00       0.27       ----

> <Gold.Chemscore.Fitness>
10.0438

> <Gold.Chemscore.DG>
-10.3211

> <Gold.Chemscore.ZeroCoef>
-5.4800

> <Gold.Chemscore.Hbond>
0.0000

> <Gold.Chemscore.Metal>
0.0000

> <Gold.Chemscore.Lipo>
82.1533

> <Gold.Chemscore.Internal_Hbond>
0.0000

> <Gold.Chemscore.DEClash>
0.0029

> <Gold.Chemscore.DEInternal>
0.2743

> <Gold.Chemscore.Rot>
1.8636

> <Gold.Chemscore.Internal.Correction>
   9.000000E+99

> <Gold.Chemscore.Hbond.Weighted>
-0.0000

> <Gold.Chemscore.Metal.Weighted>
-0.0000

> <Gold.Chemscore.Lipo.Weighted>
-9.6119

> <Gold.Chemscore.Internal_Hbond.Weighted>
0.0000

> <Gold.Chemscore.DEClash.Weighted>
0.0029

> <Gold.Chemscore.DEInternal.Weighted>
0.2743

> <Gold.Chemscore.Rot.Weighted>
4.7709

> <Gold.Chemscore.Internal.Correction.Weighted>
   9.000000E+99

> <Gold.Protein.RotatedTorsions>
[ 6907 6896 6895 6894 ] final  122.89 input  -60.11 | X-H torsion
[ 7974 7965 7964 7962 ] final   24.79 input  175.53 | X-H torsion
[ 8008 7997 7996 7995 ] final   52.42 input   59.86 | X-H torsion
[ 10167 10162 10161 10158 ] final -116.40 input  -65.29 | X-H torsion
[ 10718 10713 10712 10709 ] final  -91.19 input   66.30 | X-H torsion
[ 10763 10752 10751 10750 ] final   46.86 input  -60.55 | X-H torsion
[ 11005 11000 10999 10996 ] final -105.53 input  -57.11 | X-H torsion

> <Gold.Protein.ActiveResidues>
 VAL166  LYS551  ARG553  GLY616  TRP617  ASP618  TYR619  PRO620  LYS621  CYS622 
 ASP623  PHE694  ASN695  SER759  ASP760  ASP761  ALA762  ILE779  LEU786  VAL792 
 PHE793  MET794  SER795  GLU796  ALA797  LYS798  CYS799  TRP800  GLU811  SER814 

> <Gold.Protein.RotatedAtoms>
  152.4206  133.7111  159.6478 H   0  0  0  0  0  0  0  0  0  0  0  0  # atno 6907 bound_to 6896
  150.8082  133.8459  159.3201 H   0  0  0  0  0  0  0  0  0  0  0  0  # atno 6908 bound_to 6896
  151.6177  135.1037  160.0146 H   0  0  0  0  0  0  0  0  0  0  0  0  # atno 6909 bound_to 6896
  146.1920  139.7555  142.8825 H   0  0  0  0  0  0  0  0  0  0  0  0  # atno 7974 bound_to 7965
  155.4514  140.3458  155.4301 H   0  0  0  0  0  0  0  0  0  0  0  0  # atno 8008 bound_to 7997
  156.1218  140.1489  156.9224 H   0  0  0  0  0  0  0  0  0  0  0  0  # atno 8009 bound_to 7997
  154.4828  140.0864  156.7398 H   0  0  0  0  0  0  0  0  0  0  0  0  # atno 8010 bound_to 7997
  140.0797  143.4800  152.1933 H   0  0  0  0  0  0  0  0  0  0  0  0  # atno 10167 bound_to 10162
  155.9992  130.4938  150.5437 H   0  0  0  0  0  0  0  0  0  0  0  0  # atno 10718 bound_to 10713
  152.9806  135.5994  154.3669 H   0  0  0  0  0  0  0  0  0  0  0  0  # atno 10763 bound_to 10752
  154.3346  135.2768  155.2456 H   0  0  0  0  0  0  0  0  0  0  0  0  # atno 10764 bound_to 10752
  154.4565  135.5976  153.6282 H   0  0  0  0  0  0  0  0  0  0  0  0  # atno 10765 bound_to 10752
  141.1049  133.8816  157.1746 H   0  0  0  0  0  0  0  0  0  0  0  0  # atno 11005 bound_to 11000
  145.3762  141.0351  143.3203 LP  0  0  0  0  0  0  0  0  0  0  0  0  # atno 17320 bound_to 7965
  144.8506  139.5328  143.6858 LP  0  0  0  0  0  0  0  0  0  0  0  0  # atno 17321 bound_to 7965
  139.5787  144.7500  151.3697 LP  0  0  0  0  0  0  0  0  0  0  0  0  # atno 17342 bound_to 10162
  140.7084  143.7454  150.7523 LP  0  0  0  0  0  0  0  0  0  0  0  0  # atno 17343 bound_to 10162
  157.3369  131.0710  151.1818 LP  0  0  0  0  0  0  0  0  0  0  0  0  # atno 17370 bound_to 10713
  157.2679  130.6690  149.6005 LP  0  0  0  0  0  0  0  0  0  0  0  0  # atno 17371 bound_to 10713
  139.9914  135.0063  156.9984 LP  0  0  0  0  0  0  0  0  0  0  0  0  # atno 17394 bound_to 11000
  140.4929  134.1175  155.7236 LP  0  0  0  0  0  0  0  0  0  0  0  0  # atno 17395 bound_to 11000

$$$$
