AV-unprocessed.smi:357|AV-procd|sdf|2416|dock8
  -GOLD-   2262022353D 1   1.00000     0.00000
 Structure written by MMmdl.
 37 38  0  0  0  0  0  0  0  0  1 V2000
  151.4729  136.1669  155.9865 O   0  0  0  0  0  0  0  0  0  0  0  0
  151.0030  137.1449  155.4034 C   0  0  0  0  0  0  0  0  0  0  0  0
  149.6651  137.1598  154.7944 C   0  0  0  0  0  0  0  0  0  0  0  0
  148.7141  135.7178  154.9269 Cl  0  0  0  0  0  0  0  0  0  0  0  0
  149.1741  138.2489  154.1438 C   0  0  0  0  0  0  0  0  0  0  0  0
  147.9072  138.2239  153.5726 N   0  0  0  0  0  0  0  0  0  0  0  0
  147.2133  139.2756  152.8435 C   0  0  0  0  0  0  0  0  0  0  0  0
  146.5919  138.7592  151.5376 C   0  0  0  0  0  0  0  0  0  0  0  0
  145.3360  138.1680  151.7934 O   0  0  0  0  0  0  0  0  0  0  0  0
  150.0475  139.4112  154.0784 C   0  0  0  0  0  0  0  0  0  0  0  0
  151.2227  139.4323  154.6057 N   0  0  0  0  0  0  0  0  0  0  0  0
  151.6943  138.3143  155.2628 N   0  0  0  0  0  0  0  0  0  0  0  0
  153.0534  138.4618  155.7938 C   0  0  0  0  0  0  0  0  0  0  0  0
  153.0428  139.1234  157.1799 C   0  0  0  0  0  0  0  0  0  0  0  0
  152.2955  140.3296  157.1046 O   0  0  0  0  0  0  0  0  0  0  0  0
  152.3438  141.1929  158.1780 C   0  0  0  0  0  0  0  0  0  0  0  0
  151.5121  142.3305  158.1218 C   0  0  0  0  0  0  0  0  0  0  0  0
  151.4985  143.2666  159.1738 C   0  0  0  0  0  0  0  0  0  0  0  0
  152.3217  143.0731  160.2984 C   0  0  0  0  0  0  0  0  0  0  0  0
  152.3076  144.2182  161.5888 Cl  0  0  0  0  0  0  0  0  0  0  0  0
  153.1573  141.9428  160.3677 C   0  0  0  0  0  0  0  0  0  0  0  0
  153.1701  141.0064  159.3157 C   0  0  0  0  0  0  0  0  0  0  0  0
  147.3775  137.3713  153.6881 H   0  0  0  0  0  0  0  0  0  0  0  0
  146.4092  139.6152  153.4967 H   0  0  0  0  0  0  0  0  0  0  0  0
  147.8474  140.1463  152.6758 H   0  0  0  0  0  0  0  0  0  0  0  0
  146.4993  139.5503  150.7923 H   0  0  0  0  0  0  0  0  0  0  0  0
  147.2320  137.9884  151.1079 H   0  0  0  0  0  0  0  0  0  0  0  0
  144.8419  138.1515  150.9879 H   0  0  0  0  0  0  0  0  0  0  0  0
  149.6557  140.2794  153.5504 H   0  0  0  0  0  0  0  0  0  0  0  0
  153.5340  137.4842  155.8628 H   0  0  0  0  0  0  0  0  0  0  0  0
  153.6733  139.0405  155.1067 H   0  0  0  0  0  0  0  0  0  0  0  0
  152.5930  138.4514  157.9128 H   0  0  0  0  0  0  0  0  0  0  0  0
  154.0672  139.3332  157.4923 H   0  0  0  0  0  0  0  0  0  0  0  0
  150.8766  142.4872  157.2626 H   0  0  0  0  0  0  0  0  0  0  0  0
  150.8554  144.1325  159.1155 H   0  0  0  0  0  0  0  0  0  0  0  0
  153.7911  141.7917  161.2291 H   0  0  0  0  0  0  0  0  0  0  0  0
  153.8246  140.1530  159.4061 H   0  0  0  0  0  0  0  0  0  0  0  0
  1  2  2  0  0  0  0
  2 12  1  0  0  0  0
  2  3  1  0  0  0  0
  3  4  1  0  0  0  0
  3  5  2  0  0  0  0
  5  6  1  0  0  0  0
  5 10  1  0  0  0  0
  6  7  1  0  0  0  0
  6 23  1  0  0  0  0
  7  8  1  0  0  0  0
  7 24  1  0  0  0  0
  7 25  1  0  0  0  0
  8  9  1  0  0  0  0
  8 26  1  0  0  0  0
  8 27  1  0  0  0  0
  9 28  1  0  0  0  0
 10 11  2  0  0  0  0
 10 29  1  0  0  0  0
 11 12  1  0  0  0  0
 12 13  1  0  0  0  0
 13 14  1  0  0  0  0
 13 30  1  0  0  0  0
 13 31  1  0  0  0  0
 14 15  1  0  0  0  0
 14 32  1  0  0  0  0
 14 33  1  0  0  0  0
 15 16  1  0  0  0  0
 16 22  1  0  0  0  0
 16 17  2  0  0  0  0
 17 18  1  0  0  0  0
 17 34  1  0  0  0  0
 18 19  2  0  0  0  0
 18 35  1  0  0  0  0
 19 20  1  0  0  0  0
 19 21  1  0  0  0  0
 21 22  2  0  0  0  0
 21 36  1  0  0  0  0
 22 37  1  0  0  0  0
M  END
> <s_m_source_file>
AV-unprocessed.smi

> <i_m_source_file_index>
357

> <i_lp_mmshare_version>
43012

> <i_f3d_flags>
0

> <s_epik_input>
W09IXVtDSDJdW0NIMl1bTkhdYyhjKENsKWMxPU8pW2NIXW5uMVtDSDJdW0NIMl1PYzJbY0hdW2NIXWMoQ2wpW2NIXVtjSF0y

> <s_epik_cmdline>
J2VwaWtfcHl0aG9uJywgJy1waCcsICc3LjAnLCAnLXRuJywgJzgnLCAnLW1hJywgJzIwMCcsICctbWV0YWxfYmluZGluZycsICctaW1hZScsICc8aW5maWxlLm1hZT4nLCAnLW9tYWUnLCAnPG91dGZpbGUubWFlPic=

> <r_lp_tautomer_probability>
1

> <r_epik_Ionization_Penalty>
2.22594e-05

> <r_epik_Ionization_Penalty_Charging>
1.05597e-09

> <r_epik_Ionization_Penalty_Neutral>
2.22583e-05

> <r_epik_State_Penalty>
-0

> <r_epik_Charging_Adjusted_Penalty>
1.05597e-09

> <i_epik_Tot_Q>
0

> <i_epik_Tot_abs_Q>
0

> <r_epik_Metal_State_Penalty>
-0

> <b_epik_Metal_Only>
0

> <s_lp_Force_Field>
OPLS_2005

> <r_lp_Energy>
32.065

> <b_lp_Chiralities_Consistent>
1

> <s_lp_Variant>
AV-unprocessed.smi:357-1

> <Gold.Version>
5.8.1

> <Gold.Id.Protein>
6NUR|6NUR_protein|mol2

> <Gold.PLP.Fitness>
47.8119

> <Gold.PLP.PLP>
-39.4426

> <Gold.PLP.part.hbond>
-5.7743

> <Gold.PLP.part.metal>
0.0000

> <Gold.PLP.part.buried>
3.6826

> <Gold.PLP.part.nonpolar>
-37.1153

> <Gold.PLP.part.repulsive>
0.1227

> <Gold.PLP.ligand.clash>
0.0000

> <Gold.PLP.ligand.torsion>
0.6034

> <Gold.PLP.Chemscore.Hbond>
2.5000

> <Gold.PLP.Chemscore.CHOScore>
0.6763

> <Gold.PLP.Chemscore.Metal>
0.0000

> <Gold.Chemscore.Hbonds>
donor molecule, donor type, donor heavy atom, donor atom, acceptor molecule, acceptor atom, score
      L1  H     9    28       P1 10171  1.00
      P1  H  7989  7998       L1    11  0.45
      P1  H 10752 10763       L1     1  1.00
      L1  C    10    29       P1  7957  0.68

> <Gold.PLP.Chemscore.Internal.Correction>
0.0472

> <Gold.Rescore>
     Score         DG    S(hbond)    S(metal)    S(lipo)     H(rot)  DE(clash)    DE(int)     intcor
     15.49     -18.93       1.87        0.00     120.58       2.70       1.53       1.90       ----

> <Gold.Chemscore.Fitness>
15.4904

> <Gold.Chemscore.DG>
-18.9277

> <Gold.Chemscore.ZeroCoef>
-5.4800

> <Gold.Chemscore.Hbond>
1.8718

> <Gold.Chemscore.Metal>
0.0000

> <Gold.Chemscore.Lipo>
120.5798

> <Gold.Chemscore.Internal_Hbond>
0.0000

> <Gold.Chemscore.DEClash>
1.5349

> <Gold.Chemscore.DEInternal>
1.9024

> <Gold.Chemscore.Rot>
2.6999

> <Gold.Chemscore.Internal.Correction>
   9.000000E+99

> <Gold.Chemscore.Hbonds>
donor molecule, donor type, donor heavy atom, donor atom, acceptor molecule, acceptor atom, score
      L1  H     9    28       P1 10171  0.98
      P1  H  7989  7998       L1    11  0.02
      P1  H 10752 10763       L1     1  0.52

> <Gold.Chemscore.Hbond.Weighted>
-6.2517

> <Gold.Chemscore.Metal.Weighted>
-0.0000

> <Gold.Chemscore.Lipo.Weighted>
-14.1078

> <Gold.Chemscore.Internal_Hbond.Weighted>
0.0000

> <Gold.Chemscore.DEClash.Weighted>
1.5349

> <Gold.Chemscore.DEInternal.Weighted>
1.9024

> <Gold.Chemscore.Rot.Weighted>
6.9118

> <Gold.Chemscore.Internal.Correction.Weighted>
   9.000000E+99

> <Gold.Protein.RotatedTorsions>
[ 6907 6896 6895 6894 ] final  179.17 input  -60.11 | X-H torsion
[ 7974 7965 7964 7962 ] final   18.53 input  175.53 | X-H torsion
[ 8008 7997 7996 7995 ] final -156.20 input   59.86 | X-H torsion
[ 10167 10162 10161 10158 ] final -175.00 input  -65.29 | X-H torsion
[ 10718 10713 10712 10709 ] final -176.10 input   66.30 | X-H torsion
[ 10763 10752 10751 10750 ] final   75.39 input  -60.55 | X-H torsion
[ 11005 11000 10999 10996 ] final  179.48 input  -57.11 | X-H torsion

> <Gold.Protein.ActiveResidues>
 VAL166  LYS551  ARG553  GLY616  TRP617  ASP618  TYR619  PRO620  LYS621  CYS622 
 ASP623  PHE694  ASN695  SER759  ASP760  ASP761  ALA762  ILE779  LEU786  VAL792 
 PHE793  MET794  SER795  GLU796  ALA797  LYS798  CYS799  TRP800  GLU811  SER814 

> <Gold.Protein.RotatedAtoms>
  151.6760  133.3313  159.3207 H   0  0  0  0  0  0  0  0  0  0  0  0  # atno 6907 bound_to 6896
  150.7845  134.6822  159.6459 H   0  0  0  0  0  0  0  0  0  0  0  0  # atno 6908 bound_to 6896
  152.3911  134.6443  160.0159 H   0  0  0  0  0  0  0  0  0  0  0  0  # atno 6909 bound_to 6896
  146.2181  139.8443  142.8635 H   0  0  0  0  0  0  0  0  0  0  0  0  # atno 7974 bound_to 7965
  155.7135  140.0781  157.2361 H   0  0  0  0  0  0  0  0  0  0  0  0  # atno 8008 bound_to 7997
  154.4055  140.1625  156.2377 H   0  0  0  0  0  0  0  0  0  0  0  0  # atno 8009 bound_to 7997
  155.9261  140.3394  155.6214 H   0  0  0  0  0  0  0  0  0  0  0  0  # atno 8010 bound_to 7997
  139.5604  144.1885  152.1228 H   0  0  0  0  0  0  0  0  0  0  0  0  # atno 10167 bound_to 10162
  156.8096  130.9581  151.3116 H   0  0  0  0  0  0  0  0  0  0  0  0  # atno 10718 bound_to 10713
  153.0652  135.4990  154.8183 H   0  0  0  0  0  0  0  0  0  0  0  0  # atno 10763 bound_to 10752
  154.6942  135.2990  154.9438 H   0  0  0  0  0  0  0  0  0  0  0  0  # atno 10764 bound_to 10752
  154.0182  135.6745  153.4823 H   0  0  0  0  0  0  0  0  0  0  0  0  # atno 10765 bound_to 10752
  140.4067  134.6729  157.4592 H   0  0  0  0  0  0  0  0  0  0  0  0  # atno 11005 bound_to 11000
  145.2866  141.0155  143.3687 LP  0  0  0  0  0  0  0  0  0  0  0  0  # atno 17320 bound_to 7965
  144.9109  139.4530  143.6587 LP  0  0  0  0  0  0  0  0  0  0  0  0  # atno 17321 bound_to 7965
  140.1397  144.5213  150.6751 LP  0  0  0  0  0  0  0  0  0  0  0  0  # atno 17342 bound_to 10162
  140.6882  143.2361  151.5202 LP  0  0  0  0  0  0  0  0  0  0  0  0  # atno 17343 bound_to 10162
  157.6512  130.8886  149.9637 LP  0  0  0  0  0  0  0  0  0  0  0  0  # atno 17370 bound_to 10713
  156.1052  130.3653  150.0146 LP  0  0  0  0  0  0  0  0  0  0  0  0  # atno 17371 bound_to 10713
  140.0297  134.6424  155.9124 LP  0  0  0  0  0  0  0  0  0  0  0  0  # atno 17394 bound_to 11000
  141.1836  133.6551  156.5125 LP  0  0  0  0  0  0  0  0  0  0  0  0  # atno 17395 bound_to 11000

$$$$
