AV-unprocessed.smi:3044|AV-procd|sdf|11606|dock9
  -GOLD-   2272016583D 1   1.00000     0.00000
 Structure written by MMmdl.
 41 42  0  0  0  0  0  0  0  0  1 V2000
  151.1918  145.1809  159.4410 C   0  0  0  0  0  0  0  0  0  0  0  0
  151.9078  144.0955  160.2265 C   0  0  0  0  0  0  0  0  0  0  0  0
  152.2892  144.4420  161.4763 N   0  0  0  0  0  0  0  0  0  0  0  0
  152.9272  143.5210  162.2281 C   0  0  0  0  0  0  0  0  0  0  0  0
  153.2062  142.2174  161.7773 C   0  0  0  0  0  0  0  0  0  0  0  0
  152.8101  141.8583  160.4755 C   0  0  0  0  0  0  0  0  0  0  0  0
  152.1556  142.8180  159.6657 C   0  0  0  0  0  0  0  0  0  0  0  0
  151.7047  142.5433  158.3450 N   0  0  0  0  0  0  0  0  0  0  0  0
  151.5278  141.3482  157.7527 C   0  0  0  0  0  0  0  0  0  0  0  0
  151.7107  140.2593  158.2956 O   0  0  0  0  0  0  0  0  0  0  0  0
  151.0816  141.3954  156.2883 C   0  0  0  0  0  0  0  0  0  0  0  0
  150.4225  140.1872  155.9165 O   0  0  0  0  0  0  0  0  0  0  0  0
  149.5216  140.2833  154.8156 C   0  0  1  0  0  0  0  0  0  0  0  0
  148.6993  138.9855  154.7593 C   0  0  0  0  0  0  0  0  0  0  0  0
  147.6199  139.0591  153.6687 C   0  0  0  0  0  0  0  0  0  0  0  0
  146.7066  140.2786  153.8726 C   0  0  0  0  0  0  0  0  0  0  0  0
  147.5167  141.5883  153.9295 C   0  0  1  0  0  0  0  0  0  0  0  0
  146.6056  142.8056  154.1425 C   0  0  0  0  0  0  0  0  0  0  0  0
  148.6036  141.5035  155.0184 C   0  0  0  0  0  0  0  0  0  0  0  0
  151.7758  145.4634  158.5656 H   0  0  0  0  0  0  0  0  0  0  0  0
  151.0364  146.0761  160.0441 H   0  0  0  0  0  0  0  0  0  0  0  0
  150.2158  144.8288  159.1065 H   0  0  0  0  0  0  0  0  0  0  0  0
  153.2178  143.8303  163.2212 H   0  0  0  0  0  0  0  0  0  0  0  0
  153.7088  141.5075  162.4174 H   0  0  0  0  0  0  0  0  0  0  0  0
  153.0016  140.8541  160.1298 H   0  0  0  0  0  0  0  0  0  0  0  0
  151.5970  143.3491  157.7457 H   0  0  0  0  0  0  0  0  0  0  0  0
  150.4389  142.2576  156.1025 H   0  0  0  0  0  0  0  0  0  0  0  0
  151.9641  141.5168  155.6597 H   0  0  0  0  0  0  0  0  0  0  0  0
  150.0560  140.3932  153.8696 H   0  0  0  0  0  0  0  0  0  0  0  0
  149.3574  138.1361  154.5738 H   0  0  0  0  0  0  0  0  0  0  0  0
  148.2270  138.8065  155.7261 H   0  0  0  0  0  0  0  0  0  0  0  0
  148.0942  139.1168  152.6881 H   0  0  0  0  0  0  0  0  0  0  0  0
  147.0258  138.1449  153.6717 H   0  0  0  0  0  0  0  0  0  0  0  0
  145.9753  140.3262  153.0648 H   0  0  0  0  0  0  0  0  0  0  0  0
  146.1385  140.1559  154.7957 H   0  0  0  0  0  0  0  0  0  0  0  0
  148.0152  141.7164  152.9676 H   0  0  0  0  0  0  0  0  0  0  0  0
  146.0803  142.7458  155.0962 H   0  0  0  0  0  0  0  0  0  0  0  0
  145.8563  142.8785  153.3539 H   0  0  0  0  0  0  0  0  0  0  0  0
  147.1809  143.7320  154.1366 H   0  0  0  0  0  0  0  0  0  0  0  0
  148.1353  141.4481  156.0020 H   0  0  0  0  0  0  0  0  0  0  0  0
  149.1974  142.4172  155.0101 H   0  0  0  0  0  0  0  0  0  0  0  0
  1  2  1  0  0  0  0
  1 20  1  0  0  0  0
  1 21  1  0  0  0  0
  1 22  1  0  0  0  0
  2  7  1  0  0  0  0
  2  3  2  0  0  0  0
  3  4  1  0  0  0  0
  4  5  2  0  0  0  0
  4 23  1  0  0  0  0
  5  6  1  0  0  0  0
  5 24  1  0  0  0  0
  6  7  2  0  0  0  0
  6 25  1  0  0  0  0
  7  8  1  0  0  0  0
  8  9  1  0  0  0  0
  8 26  1  0  0  0  0
  9 10  2  0  0  0  0
  9 11  1  0  0  0  0
 11 12  1  0  0  0  0
 11 27  1  0  0  0  0
 11 28  1  0  0  0  0
 12 13  1  0  0  0  0
 13 19  1  0  0  0  0
 13 14  1  0  0  0  0
 13 29  1  0  0  0  0
 14 15  1  0  0  0  0
 14 30  1  0  0  0  0
 14 31  1  0  0  0  0
 15 16  1  0  0  0  0
 15 32  1  0  0  0  0
 15 33  1  0  0  0  0
 16 17  1  0  0  0  0
 16 34  1  0  0  0  0
 16 35  1  0  0  0  0
 17 18  1  0  0  0  0
 17 19  1  0  0  0  0
 17 36  1  0  0  0  0
 18 37  1  0  0  0  0
 18 38  1  0  0  0  0
 18 39  1  0  0  0  0
 19 40  1  0  0  0  0
 19 41  1  0  0  0  0
M  END
> <s_m_source_file>
AV-unprocessed.smi

> <i_m_source_file_index>
3044

> <i_lp_mmshare_version>
43012

> <i_f3d_flags>
0

> <s_epik_input>
W0NIM11jMW5bY0hdW2NIXVtjSF1jMVtOSF1DKD1PKVtDSDJdT1tDQEBIXTJbQ0gyXVtDSDJdW0NIMl1bQ0BASF0oW0NIM10pW0NIMl0y

> <s_epik_cmdline>
J2VwaWtfcHl0aG9uJywgJy1waCcsICc3LjAnLCAnLXRuJywgJzgnLCAnLW1hJywgJzIwMCcsICctbWV0YWxfYmluZGluZycsICctaW1hZScsICc8aW5maWxlLm1hZT4nLCAnLW9tYWUnLCAnPG91dGZpbGUubWFlPic=

> <r_epik_Ionization_Penalty>
0.0077122

> <r_epik_Ionization_Penalty_Charging>
0

> <r_epik_Ionization_Penalty_Neutral>
0.0077122

> <r_epik_State_Penalty>
0.00577497

> <r_epik_Charging_Adjusted_Penalty>
0.00577497

> <i_epik_Tot_Q>
0

> <i_epik_Tot_abs_Q>
0

> <r_epik_Metal_State_Penalty>
-0

> <b_epik_Metal_Only>
0

> <s_lp_Force_Field>
OPLS_2005

> <r_lp_Energy>
17.5643

> <b_lp_Chiralities_Consistent>
1

> <s_lp_Variant>
AV-unprocessed.smi:3044-2

> <Gold.Version>
5.8.1

> <Gold.Id.Protein>
6NUR|6NUR_protein|mol2

> <Gold.PLP.Fitness>
44.1117

> <Gold.PLP.PLP>
-45.3099

> <Gold.PLP.part.hbond>
0.0000

> <Gold.PLP.part.metal>
0.0000

> <Gold.PLP.part.buried>
-6.8277

> <Gold.PLP.part.nonpolar>
-38.5600

> <Gold.PLP.part.repulsive>
0.2520

> <Gold.PLP.ligand.clash>
0.0000

> <Gold.PLP.ligand.torsion>
0.6032

> <Gold.PLP.Chemscore.Hbond>
0.0000

> <Gold.PLP.Chemscore.CHOScore>
0.0000

> <Gold.PLP.Chemscore.Metal>
0.0000

> <Gold.PLP.Chemscore.Internal.Correction>
0.0081

> <Gold.Rescore>
     Score         DG    S(hbond)    S(metal)    S(lipo)     H(rot)  DE(clash)    DE(int)     intcor
     14.30     -16.14       0.00        0.00     119.73       1.31       0.05       1.79       ----

> <Gold.Chemscore.Fitness>
14.3005

> <Gold.Chemscore.DG>
-16.1440

> <Gold.Chemscore.ZeroCoef>
-5.4800

> <Gold.Chemscore.Hbond>
0.0000

> <Gold.Chemscore.Metal>
0.0000

> <Gold.Chemscore.Lipo>
119.7290

> <Gold.Chemscore.Internal_Hbond>
0.0000

> <Gold.Chemscore.DEClash>
0.0541

> <Gold.Chemscore.DEInternal>
1.7894

> <Gold.Chemscore.Rot>
1.3064

> <Gold.Chemscore.Internal.Correction>
   9.000000E+99

> <Gold.Chemscore.Hbond.Weighted>
-0.0000

> <Gold.Chemscore.Metal.Weighted>
-0.0000

> <Gold.Chemscore.Lipo.Weighted>
-14.0083

> <Gold.Chemscore.Internal_Hbond.Weighted>
0.0000

> <Gold.Chemscore.DEClash.Weighted>
0.0541

> <Gold.Chemscore.DEInternal.Weighted>
1.7894

> <Gold.Chemscore.Rot.Weighted>
3.3443

> <Gold.Chemscore.Internal.Correction.Weighted>
   9.000000E+99

> <Gold.Protein.RotatedTorsions>
[ 6907 6896 6895 6894 ] final -178.42 input  -60.11 | X-H torsion
[ 7974 7965 7964 7962 ] final  112.23 input  175.53 | X-H torsion
[ 8008 7997 7996 7995 ] final  -12.64 input   59.86 | X-H torsion
[ 10167 10162 10161 10158 ] final   32.07 input  -65.29 | X-H torsion
[ 10718 10713 10712 10709 ] final  -68.56 input   66.30 | X-H torsion
[ 10763 10752 10751 10750 ] final  -49.06 input  -60.55 | X-H torsion
[ 11005 11000 10999 10996 ] final  -31.57 input  -57.11 | X-H torsion

> <Gold.Protein.ActiveResidues>
 VAL166  LYS551  ARG553  GLY616  TRP617  ASP618  TYR619  PRO620  LYS621  CYS622 
 ASP623  PHE694  ASN695  SER759  ASP760  ASP761  ALA762  ILE779  LEU786  VAL792 
 PHE793  MET794  SER795  GLU796  ALA797  LYS798  CYS799  TRP800  GLU811  SER814 

> <Gold.Protein.RotatedAtoms>
  151.6369  133.3328  159.3121 H   0  0  0  0  0  0  0  0  0  0  0  0  # atno 6907 bound_to 6896
  150.8027  134.7136  159.6627 H   0  0  0  0  0  0  0  0  0  0  0  0  # atno 6908 bound_to 6896
  152.4121  134.6111  160.0077 H   0  0  0  0  0  0  0  0  0  0  0  0  # atno 6909 bound_to 6896
  145.2322  139.2815  143.4162 H   0  0  0  0  0  0  0  0  0  0  0  0  # atno 7974 bound_to 7965
  154.5360  140.2271  155.8722 H   0  0  0  0  0  0  0  0  0  0  0  0  # atno 8008 bound_to 7997
  156.1812  140.3099  155.9115 H   0  0  0  0  0  0  0  0  0  0  0  0  # atno 8009 bound_to 7997
  155.3353  140.0447  157.3034 H   0  0  0  0  0  0  0  0  0  0  0  0  # atno 8010 bound_to 7997
  140.4531  144.1018  150.6196 H   0  0  0  0  0  0  0  0  0  0  0  0  # atno 10167 bound_to 10162
  156.0499  130.4297  150.2018 H   0  0  0  0  0  0  0  0  0  0  0  0  # atno 10718 bound_to 10713
  154.0880  135.6581  153.4848 H   0  0  0  0  0  0  0  0  0  0  0  0  # atno 10763 bound_to 10752
  153.0332  135.5195  154.7409 H   0  0  0  0  0  0  0  0  0  0  0  0  # atno 10764 bound_to 10752
  154.6524  135.3003  154.9939 H   0  0  0  0  0  0  0  0  0  0  0  0  # atno 10765 bound_to 10752
  140.9479  133.7238  156.1175 H   0  0  0  0  0  0  0  0  0  0  0  0  # atno 11005 bound_to 11000
  146.3350  140.2660  142.8604 LP  0  0  0  0  0  0  0  0  0  0  0  0  # atno 17320 bound_to 7965
  144.9666  140.8328  143.5481 LP  0  0  0  0  0  0  0  0  0  0  0  0  # atno 17321 bound_to 7965
  140.4183  143.2624  151.9747 LP  0  0  0  0  0  0  0  0  0  0  0  0  # atno 17342 bound_to 10162
  139.4798  144.5854  151.7862 LP  0  0  0  0  0  0  0  0  0  0  0  0  # atno 17343 bound_to 10162
  157.0103  130.9949  151.3367 LP  0  0  0  0  0  0  0  0  0  0  0  0  # atno 17370 bound_to 10713
  157.5414  130.8122  149.8034 LP  0  0  0  0  0  0  0  0  0  0  0  0  # atno 17371 bound_to 10713
  140.7643  134.3904  157.5520 LP  0  0  0  0  0  0  0  0  0  0  0  0  # atno 17394 bound_to 11000
  139.8839  134.8981  156.2738 LP  0  0  0  0  0  0  0  0  0  0  0  0  # atno 17395 bound_to 11000

$$$$
