AV-unprocessed.smi:1050|AV-procd|sdf|4612|dock8
  -GOLD-   22720 3113D 1   1.00000     0.00000
 Structure written by MMmdl.
 48 49  0  0  0  0  0  0  0  0  1 V2000
  152.2205  144.4036  161.3770 C   0  0  0  0  0  0  0  0  0  0  0  0
  151.2296  144.3328  160.3574 O   0  0  0  0  0  0  0  0  0  0  0  0
  151.2219  143.2294  159.5289 C   0  0  0  0  0  0  0  0  0  0  0  0
  152.3663  142.4135  159.4782 C   0  0  0  0  0  0  0  0  0  0  0  0
  152.3592  141.2885  158.6343 C   0  0  0  0  0  0  0  0  0  0  0  0
  151.2016  141.0019  157.8707 C   0  0  0  0  0  0  0  0  0  0  0  0
  151.1219  139.9067  156.9620 N   0  0  0  0  0  0  0  0  0  0  0  0
  152.0029  138.9123  156.7494 C   0  0  0  0  0  0  0  0  0  0  0  0
  153.0798  138.7939  157.3333 O   0  0  0  0  0  0  0  0  0  0  0  0
  151.5829  137.8685  155.7004 C   0  0  2  0  0  0  0  0  0  0  0  0
  151.1673  136.5426  156.3563 C   0  0  0  0  0  0  0  0  0  0  0  0
  152.6627  137.5913  154.8122 O   0  0  0  0  0  0  0  0  0  0  0  0
  153.4140  138.7249  154.3962 C   0  0  0  0  0  0  0  0  0  0  0  0
  150.0990  141.8908  157.9764 C   0  0  0  0  0  0  0  0  0  0  0  0
  148.9220  141.6610  157.2376 N   0  0  0  0  0  0  0  0  0  0  0  0
  149.0283  141.7710  155.7814 C   0  0  0  0  0  0  0  0  0  0  0  0
  147.7315  141.2851  155.1090 C   0  0  0  0  0  0  0  0  0  0  0  0
  146.6029  142.0446  155.6634 N   0  0  0  0  0  0  0  0  0  0  0  0
  145.8643  142.9593  154.9913 C   0  0  0  0  0  0  0  0  0  0  0  0
  146.1439  143.2009  153.5064 C   0  0  0  0  0  0  0  0  0  0  0  0
  144.9692  143.6136  155.5258 O   0  0  0  0  0  0  0  0  0  0  0  0
  146.4557  141.8021  157.1047 C   0  0  0  0  0  0  0  0  0  0  0  0
  147.7322  142.2759  157.8272 C   0  0  0  0  0  0  0  0  0  0  0  0
  150.1163  142.9731  158.7904 N   0  0  0  0  0  0  0  0  0  0  0  0
  152.0953  145.3292  161.9385 H   0  0  0  0  0  0  0  0  0  0  0  0
  153.2269  144.4059  160.9556 H   0  0  0  0  0  0  0  0  0  0  0  0
  152.1290  143.5746  162.0807 H   0  0  0  0  0  0  0  0  0  0  0  0
  153.2379  142.6496  160.0708 H   0  0  0  0  0  0  0  0  0  0  0  0
  153.2487  140.6812  158.5787 H   0  0  0  0  0  0  0  0  0  0  0  0
  150.2475  139.8299  156.4625 H   0  0  0  0  0  0  0  0  0  0  0  0
  150.7315  138.2435  155.1287 H   0  0  0  0  0  0  0  0  0  0  0  0
  150.3492  136.6896  157.0624 H   0  0  0  0  0  0  0  0  0  0  0  0
  151.9968  136.0812  156.8938 H   0  0  0  0  0  0  0  0  0  0  0  0
  150.8281  135.8300  155.6042 H   0  0  0  0  0  0  0  0  0  0  0  0
  154.1591  138.4144  153.6640 H   0  0  0  0  0  0  0  0  0  0  0  0
  153.9447  139.1940  155.2253 H   0  0  0  0  0  0  0  0  0  0  0  0
  152.7731  139.4703  153.9239 H   0  0  0  0  0  0  0  0  0  0  0  0
  149.2201  142.8080  155.5020 H   0  0  0  0  0  0  0  0  0  0  0  0
  149.8748  141.1794  155.4305 H   0  0  0  0  0  0  0  0  0  0  0  0
  147.8255  141.3624  154.0270 H   0  0  0  0  0  0  0  0  0  0  0  0
  147.5808  140.2239  155.3139 H   0  0  0  0  0  0  0  0  0  0  0  0
  147.1745  143.5231  153.3534 H   0  0  0  0  0  0  0  0  0  0  0  0
  145.4907  143.9811  153.1138 H   0  0  0  0  0  0  0  0  0  0  0  0
  145.9647  142.2946  152.9275 H   0  0  0  0  0  0  0  0  0  0  0  0
  145.5843  142.2993  157.5326 H   0  0  0  0  0  0  0  0  0  0  0  0
  146.3035  140.7352  157.2745 H   0  0  0  0  0  0  0  0  0  0  0  0
  147.6627  142.0379  158.8887 H   0  0  0  0  0  0  0  0  0  0  0  0
  147.8210  143.3607  157.7529 H   0  0  0  0  0  0  0  0  0  0  0  0
  1  2  1  0  0  0  0
  1 25  1  0  0  0  0
  1 26  1  0  0  0  0
  1 27  1  0  0  0  0
  2  3  1  0  0  0  0
  3 24  1  0  0  0  0
  3  4  2  0  0  0  0
  4  5  1  0  0  0  0
  4 28  1  0  0  0  0
  5  6  2  0  0  0  0
  5 29  1  0  0  0  0
  6  7  1  0  0  0  0
  6 14  1  0  0  0  0
  7  8  1  0  0  0  0
  7 30  1  0  0  0  0
  8  9  2  0  0  0  0
  8 10  1  0  0  0  0
 10 11  1  0  0  0  0
 10 12  1  0  0  0  0
 10 31  1  0  0  0  0
 11 32  1  0  0  0  0
 11 33  1  0  0  0  0
 11 34  1  0  0  0  0
 12 13  1  0  0  0  0
 13 35  1  0  0  0  0
 13 36  1  0  0  0  0
 13 37  1  0  0  0  0
 14 15  1  0  0  0  0
 14 24  2  0  0  0  0
 15 23  1  0  0  0  0
 15 16  1  0  0  0  0
 16 17  1  0  0  0  0
 16 38  1  0  0  0  0
 16 39  1  0  0  0  0
 17 18  1  0  0  0  0
 17 40  1  0  0  0  0
 17 41  1  0  0  0  0
 18 19  1  0  0  0  0
 18 22  1  0  0  0  0
 19 20  1  0  0  0  0
 19 21  2  0  0  0  0
 20 42  1  0  0  0  0
 20 43  1  0  0  0  0
 20 44  1  0  0  0  0
 22 23  1  0  0  0  0
 22 45  1  0  0  0  0
 22 46  1  0  0  0  0
 23 47  1  0  0  0  0
 23 48  1  0  0  0  0
M  END
> <s_m_source_file>
AV-unprocessed.smi

> <i_m_source_file_index>
1050

> <i_lp_mmshare_version>
43012

> <i_f3d_flags>
0

> <s_epik_input>
W0NIM11PYzFbY0hdW2NIXWMoW05IXUMoPU8pW0NASF0oW0NIM10pT1tDSDNdKWMobjEpTjJbQ0gyXVtDSDJdTihDKD1PKVtDSDNdKVtDSDJdW0NIMl0y

> <s_epik_cmdline>
J2VwaWtfcHl0aG9uJywgJy1waCcsICc3LjAnLCAnLXRuJywgJzgnLCAnLW1hJywgJzIwMCcsICctbWV0YWxfYmluZGluZycsICctaW1hZScsICc8aW5maWxlLm1hZT4nLCAnLW9tYWUnLCAnPG91dGZpbGUubWFlPic=

> <r_lp_tautomer_probability>
1

> <r_epik_Ionization_Penalty>
0.000150604

> <r_epik_Ionization_Penalty_Charging>
0

> <r_epik_Ionization_Penalty_Neutral>
0.000150604

> <r_epik_State_Penalty>
-0

> <r_epik_Charging_Adjusted_Penalty>
0

> <i_epik_Tot_Q>
0

> <i_epik_Tot_abs_Q>
0

> <r_epik_Metal_State_Penalty>
-0

> <b_epik_Metal_Only>
0

> <s_lp_Force_Field>
OPLS_2005

> <r_lp_Energy>
41.1233

> <b_lp_Chiralities_Consistent>
1

> <s_lp_Variant>
AV-unprocessed.smi:1050-1

> <Gold.Version>
5.8.1

> <Gold.Id.Protein>
6NUR|6NUR_protein|mol2

> <Gold.PLP.Fitness>
36.8400

> <Gold.PLP.PLP>
-34.1924

> <Gold.PLP.part.hbond>
-2.0000

> <Gold.PLP.part.metal>
0.0000

> <Gold.PLP.part.buried>
-6.4726

> <Gold.PLP.part.nonpolar>
-25.7452

> <Gold.PLP.part.repulsive>
0.6147

> <Gold.PLP.ligand.clash>
0.0000

> <Gold.PLP.ligand.torsion>
1.0680

> <Gold.PLP.Chemscore.Hbond>
1.4800

> <Gold.PLP.Chemscore.CHOScore>
0.0000

> <Gold.PLP.Chemscore.Metal>
0.0000

> <Gold.Chemscore.Hbonds>
donor molecule, donor type, donor heavy atom, donor atom, acceptor molecule, acceptor atom, score
      P1  H  7997  8008       L1     9  1.00
      P1  H 10752 10765       L1    12  0.50

> <Gold.PLP.Chemscore.Internal.Correction>
0.3437

> <Gold.Rescore>
     Score         DG    S(hbond)    S(metal)    S(lipo)     H(rot)  DE(clash)    DE(int)     intcor
     11.43     -14.76       1.44        0.00      75.59       1.71       0.12       3.21       ----

> <Gold.Chemscore.Fitness>
11.4319

> <Gold.Chemscore.DG>
-14.7564

> <Gold.Chemscore.ZeroCoef>
-5.4800

> <Gold.Chemscore.Hbond>
1.4404

> <Gold.Chemscore.Metal>
0.0000

> <Gold.Chemscore.Lipo>
75.5949

> <Gold.Chemscore.Internal_Hbond>
0.0000

> <Gold.Chemscore.DEClash>
0.1183

> <Gold.Chemscore.DEInternal>
3.2062

> <Gold.Chemscore.Rot>
1.7106

> <Gold.Chemscore.Internal.Correction>
   9.000000E+99

> <Gold.Chemscore.Hbonds>
donor molecule, donor type, donor heavy atom, donor atom, acceptor molecule, acceptor atom, score
      P1  H  7997  8008       L1     9  0.96
      P1  H 10752 10765       L1    12  0.44

> <Gold.Chemscore.Hbond.Weighted>
-4.8108

> <Gold.Chemscore.Metal.Weighted>
-0.0000

> <Gold.Chemscore.Lipo.Weighted>
-8.8446

> <Gold.Chemscore.Internal_Hbond.Weighted>
0.0000

> <Gold.Chemscore.DEClash.Weighted>
0.1183

> <Gold.Chemscore.DEInternal.Weighted>
3.2062

> <Gold.Chemscore.Rot.Weighted>
4.3790

> <Gold.Chemscore.Internal.Correction.Weighted>
   9.000000E+99

> <Gold.Protein.RotatedTorsions>
[ 6907 6896 6895 6894 ] final   76.97 input  -60.11 | X-H torsion
[ 7974 7965 7964 7962 ] final  147.20 input  175.53 | X-H torsion
[ 8008 7997 7996 7995 ] final  -80.43 input   59.86 | X-H torsion
[ 10167 10162 10161 10158 ] final  -30.21 input  -65.29 | X-H torsion
[ 10718 10713 10712 10709 ] final   99.67 input   66.30 | X-H torsion
[ 10763 10752 10751 10750 ] final  164.71 input  -60.55 | X-H torsion
[ 11005 11000 10999 10996 ] final  111.00 input  -57.11 | X-H torsion

> <Gold.Protein.ActiveResidues>
 VAL166  LYS551  ARG553  GLY616  TRP617  ASP618  TYR619  PRO620  LYS621  CYS622 
 ASP623  PHE694  ASN695  SER759  ASP760  ASP761  ALA762  ILE779  LEU786  VAL792 
 PHE793  MET794  SER795  GLU796  ALA797  LYS798  CYS799  TRP800  GLU811  SER814 

> <Gold.Protein.RotatedAtoms>
  152.5097  134.3888  159.9376 H   0  0  0  0  0  0  0  0  0  0  0  0  # atno 6907 bound_to 6896
  151.3848  133.3802  159.2722 H   0  0  0  0  0  0  0  0  0  0  0  0  # atno 6908 bound_to 6896
  150.9477  134.8901  159.7711 H   0  0  0  0  0  0  0  0  0  0  0  0  # atno 6909 bound_to 6896
  144.8610  139.5999  143.5930 H   0  0  0  0  0  0  0  0  0  0  0  0  # atno 7974 bound_to 7965
  154.5882  140.0663  156.9201 H   0  0  0  0  0  0  0  0  0  0  0  0  # atno 8008 bound_to 7997
  155.2342  140.3340  155.4281 H   0  0  0  0  0  0  0  0  0  0  0  0  # atno 8009 bound_to 7997
  156.2237  140.1810  156.7399 H   0  0  0  0  0  0  0  0  0  0  0  0  # atno 8010 bound_to 7997
  140.7252  143.3867  151.1502 H   0  0  0  0  0  0  0  0  0  0  0  0  # atno 10167 bound_to 10162
  157.6871  131.0676  150.4983 H   0  0  0  0  0  0  0  0  0  0  0  0  # atno 10718 bound_to 10713
  154.3130  135.2757  155.2557 H   0  0  0  0  0  0  0  0  0  0  0  0  # atno 10763 bound_to 10752
  154.4944  135.5825  153.6487 H   0  0  0  0  0  0  0  0  0  0  0  0  # atno 10764 bound_to 10752
  152.9886  135.6142  154.3308 H   0  0  0  0  0  0  0  0  0  0  0  0  # atno 10765 bound_to 10752
  139.8894  134.9497  156.6365 H   0  0  0  0  0  0  0  0  0  0  0  0  # atno 11005 bound_to 11000
  146.2861  139.7007  142.9195 LP  0  0  0  0  0  0  0  0  0  0  0  0  # atno 17320 bound_to 7965
  145.4311  141.0415  143.2910 LP  0  0  0  0  0  0  0  0  0  0  0  0  # atno 17321 bound_to 7965
  139.7465  143.8844  152.3065 LP  0  0  0  0  0  0  0  0  0  0  0  0  # atno 17342 bound_to 10162
  139.8683  144.7082  150.9018 LP  0  0  0  0  0  0  0  0  0  0  0  0  # atno 17343 bound_to 10162
  156.5306  130.4184  149.6203 LP  0  0  0  0  0  0  0  0  0  0  0  0  # atno 17370 bound_to 10713
  156.3073  130.7209  151.2094 LP  0  0  0  0  0  0  0  0  0  0  0  0  # atno 17371 bound_to 10713
  140.7627  133.8804  155.8430 LP  0  0  0  0  0  0  0  0  0  0  0  0  # atno 17394 bound_to 11000
  140.9909  134.1280  157.4409 LP  0  0  0  0  0  0  0  0  0  0  0  0  # atno 17395 bound_to 11000

$$$$
