AV-unprocessed.smi:3009|AV-procd|sdf|11453|dock6
  -GOLD-   2272016383D 1   1.00000     0.00000
 Structure written by MMmdl.
 43 44  0  0  0  0  0  0  0  0  1 V2000
  150.2475  142.9961  158.3937 C   0  0  0  0  0  0  0  0  0  0  0  0
  150.3992  141.6648  157.6386 C   0  0  0  0  0  0  0  0  0  0  0  0
  151.0574  140.5687  158.4945 C   0  0  0  0  0  0  0  0  0  0  0  0
  151.0223  141.8147  156.2285 C   0  0  0  0  0  0  0  0  0  0  0  0
  150.8524  140.7023  155.2876 N   0  0  0  0  0  0  0  0  0  0  0  0
  151.4849  139.4649  155.7369 C   0  0  0  0  0  0  0  0  0  0  0  0
  151.2439  138.3036  154.7574 C   0  0  0  0  0  0  0  0  0  0  0  0
  149.8463  138.1259  154.5575 O   0  0  0  0  0  0  0  0  0  0  0  0
  149.2087  139.2948  154.0486 C   0  0  1  0  0  0  0  0  0  0  0  0
  147.7137  138.9911  153.8510 C   0  0  0  0  0  0  0  0  0  0  0  0
  147.5076  137.7789  153.0658 N   0  0  0  0  0  0  0  0  0  0  0  0
  146.3128  137.2566  152.7562 C   0  0  0  0  0  0  0  0  0  0  0  0
  145.2419  137.7435  153.1202 O   0  0  0  0  0  0  0  0  0  0  0  0
  146.4432  136.1495  152.0071 N   0  0  0  0  0  0  0  0  0  0  0  0
  145.4060  135.3360  151.4849 C   0  0  0  0  0  0  0  0  0  0  0  0
  145.5008  133.9316  151.2870 C   0  0  0  0  0  0  0  0  0  0  0  0
  144.3788  133.4373  150.7834 N   0  0  0  0  0  0  0  0  0  0  0  0
  143.5691  134.5131  150.6571 N   0  0  0  0  0  0  0  0  0  0  0  0
  144.1524  135.6903  151.0711 C   0  0  0  0  0  0  0  0  0  0  0  0
  149.4353  140.4476  155.0458 C   0  0  0  0  0  0  0  0  0  0  0  0
  142.6316  134.4293  150.2900 H   0  0  0  0  0  0  0  0  0  0  0  0
  151.2142  143.4191  158.6672 H   0  0  0  0  0  0  0  0  0  0  0  0
  149.6774  142.8603  159.3129 H   0  0  0  0  0  0  0  0  0  0  0  0
  149.7211  143.7325  157.7860 H   0  0  0  0  0  0  0  0  0  0  0  0
  149.3847  141.3044  157.4632 H   0  0  0  0  0  0  0  0  0  0  0  0
  152.0654  140.8294  158.8099 H   0  0  0  0  0  0  0  0  0  0  0  0
  151.1129  139.6263  157.9491 H   0  0  0  0  0  0  0  0  0  0  0  0
  150.4761  140.3856  159.3988 H   0  0  0  0  0  0  0  0  0  0  0  0
  150.6838  142.7453  155.7706 H   0  0  0  0  0  0  0  0  0  0  0  0
  152.0934  141.9506  156.3855 H   0  0  0  0  0  0  0  0  0  0  0  0
  152.5592  139.6039  155.8310 H   0  0  0  0  0  0  0  0  0  0  0  0
  151.1094  139.1921  156.7242 H   0  0  0  0  0  0  0  0  0  0  0  0
  151.7331  138.4968  153.8014 H   0  0  0  0  0  0  0  0  0  0  0  0
  151.6677  137.3804  155.1528 H   0  0  0  0  0  0  0  0  0  0  0  0
  149.6560  139.5594  153.0887 H   0  0  0  0  0  0  0  0  0  0  0  0
  147.2272  138.8608  154.8181 H   0  0  0  0  0  0  0  0  0  0  0  0
  147.2165  139.8327  153.3655 H   0  0  0  0  0  0  0  0  0  0  0  0
  148.3355  137.3161  152.7201 H   0  0  0  0  0  0  0  0  0  0  0  0
  147.3841  135.8587  151.7850 H   0  0  0  0  0  0  0  0  0  0  0  0
  146.3294  133.2682  151.4879 H   0  0  0  0  0  0  0  0  0  0  0  0
  143.6347  136.6374  151.0316 H   0  0  0  0  0  0  0  0  0  0  0  0
  148.9372  140.2145  155.9885 H   0  0  0  0  0  0  0  0  0  0  0  0
  148.9612  141.3509  154.6593 H   0  0  0  0  0  0  0  0  0  0  0  0
  1  2  1  0  0  0  0
  1 22  1  0  0  0  0
  1 23  1  0  0  0  0
  1 24  1  0  0  0  0
  2  3  1  0  0  0  0
  2  4  1  0  0  0  0
  2 25  1  0  0  0  0
  3 26  1  0  0  0  0
  3 27  1  0  0  0  0
  3 28  1  0  0  0  0
  4  5  1  0  0  0  0
  4 29  1  0  0  0  0
  4 30  1  0  0  0  0
  5 20  1  0  0  0  0
  5  6  1  0  0  0  0
  6  7  1  0  0  0  0
  6 31  1  0  0  0  0
  6 32  1  0  0  0  0
  7  8  1  0  0  0  0
  7 33  1  0  0  0  0
  7 34  1  0  0  0  0
  8  9  1  0  0  0  0
  9 10  1  0  0  0  0
  9 20  1  0  0  0  0
  9 35  1  0  0  0  0
 10 11  1  0  0  0  0
 10 36  1  0  0  0  0
 10 37  1  0  0  0  0
 11 12  1  0  0  0  0
 11 38  1  0  0  0  0
 12 13  2  0  0  0  0
 12 14  1  0  0  0  0
 14 15  1  0  0  0  0
 14 39  1  0  0  0  0
 15 19  2  0  0  0  0
 15 16  1  0  0  0  0
 16 17  2  0  0  0  0
 16 40  1  0  0  0  0
 17 18  1  0  0  0  0
 18 21  1  0  0  0  0
 18 19  1  0  0  0  0
 19 41  1  0  0  0  0
 20 42  1  0  0  0  0
 20 43  1  0  0  0  0
M  END
> <s_m_source_file>
AV-unprocessed.smi

> <i_m_source_file_index>
3009

> <i_lp_mmshare_version>
43012

> <i_f3d_flags>
0

> <s_epik_input>
W0NIM11bQ0hdKFtDSDNdKVtDSDJdTjFbQ0gyXVtDSDJdT1tDQEhdKFtDSDJdMSlbQ0gyXVtOSF1DKD1PKVtOSF1jMltjSF1uW25IXVtjSF0y

> <s_epik_cmdline>
J2VwaWtfcHl0aG9uJywgJy1waCcsICc3LjAnLCAnLXRuJywgJzgnLCAnLW1hJywgJzIwMCcsICctbWV0YWxfYmluZGluZycsICctaW1hZScsICc8aW5maWxlLm1hZT4nLCAnLW9tYWUnLCAnPG91dGZpbGUubWFlPic=

> <r_lp_tautomer_probability>
0.5

> <r_epik_Ionization_Penalty>
1.11801

> <r_epik_Ionization_Penalty_Charging>
0

> <r_epik_Ionization_Penalty_Neutral>
1.11801

> <r_epik_State_Penalty>
1.17654

> <r_epik_Charging_Adjusted_Penalty>
1.17654

> <i_epik_Tot_Q>
0

> <i_epik_Tot_abs_Q>
0

> <r_epik_Metal_State_Penalty>
1.17654

> <b_epik_Metal_Only>
0

> <s_lp_Force_Field>
OPLS_2005

> <r_lp_Energy>
30.4002

> <b_lp_Chiralities_Consistent>
1

> <s_lp_Variant>
AV-unprocessed.smi:3009-5

> <Gold.Version>
5.8.1

> <Gold.Id.Protein>
6NUR|6NUR_protein|mol2

> <Gold.PLP.Fitness>
43.8672

> <Gold.PLP.PLP>
-30.1743

> <Gold.PLP.part.hbond>
-3.8543

> <Gold.PLP.part.metal>
0.0000

> <Gold.PLP.part.buried>
-3.9353

> <Gold.PLP.part.nonpolar>
-23.0863

> <Gold.PLP.part.repulsive>
0.6913

> <Gold.PLP.ligand.clash>
0.0000

> <Gold.PLP.ligand.torsion>
0.3366

> <Gold.PLP.Chemscore.Hbond>
3.7696

> <Gold.PLP.Chemscore.CHOScore>
1.0000

> <Gold.PLP.Chemscore.Metal>
0.0000

> <Gold.Chemscore.Hbonds>
donor molecule, donor type, donor heavy atom, donor atom, acceptor molecule, acceptor atom, score
      L1  H    11    38       P1  7948  0.92
      L1  H    14    39       P1  7948  0.94
      L1  H    18    21       P1 10186  1.00
      P1  H  7989  7998       L1     5  0.88
      L1  C    19    41       P1 10171  1.00

> <Gold.PLP.Chemscore.Internal.Correction>
0.0573

> <Gold.Rescore>
     Score         DG    S(hbond)    S(metal)    S(lipo)     H(rot)  DE(clash)    DE(int)     intcor
     17.53     -18.52       2.82        0.00      69.37       1.76       0.17       0.83       ----

> <Gold.Chemscore.Fitness>
17.5265

> <Gold.Chemscore.DG>
-18.5245

> <Gold.Chemscore.ZeroCoef>
-5.4800

> <Gold.Chemscore.Hbond>
2.8220

> <Gold.Chemscore.Metal>
0.0000

> <Gold.Chemscore.Lipo>
69.3721

> <Gold.Chemscore.Internal_Hbond>
0.0000

> <Gold.Chemscore.DEClash>
0.1712

> <Gold.Chemscore.DEInternal>
0.8268

> <Gold.Chemscore.Rot>
1.7568

> <Gold.Chemscore.Internal.Correction>
   9.000000E+99

> <Gold.Chemscore.Hbonds>
donor molecule, donor type, donor heavy atom, donor atom, acceptor molecule, acceptor atom, score
      L1  H    11    38       P1  7948  0.84
      L1  H    14    39       P1  7948  0.90
      L1  H    18    21       P1 10186  0.65
      P1  H  7989  7998       L1     5  0.12

> <Gold.Chemscore.Hbond.Weighted>
-9.4254

> <Gold.Chemscore.Metal.Weighted>
-0.0000

> <Gold.Chemscore.Lipo.Weighted>
-8.1165

> <Gold.Chemscore.Internal_Hbond.Weighted>
0.0000

> <Gold.Chemscore.DEClash.Weighted>
0.1712

> <Gold.Chemscore.DEInternal.Weighted>
0.8268

> <Gold.Chemscore.Rot.Weighted>
4.4974

> <Gold.Chemscore.Internal.Correction.Weighted>
   9.000000E+99

> <Gold.Protein.RotatedTorsions>
[ 6907 6896 6895 6894 ] final -120.74 input  -60.11 | X-H torsion
[ 7974 7965 7964 7962 ] final   27.35 input  175.53 | X-H torsion
[ 8008 7997 7996 7995 ] final  -31.44 input   59.86 | X-H torsion
[ 10167 10162 10161 10158 ] final  -52.11 input  -65.29 | X-H torsion
[ 10718 10713 10712 10709 ] final -133.63 input   66.30 | X-H torsion
[ 10763 10752 10751 10750 ] final  -19.22 input  -60.55 | X-H torsion
[ 11005 11000 10999 10996 ] final   92.78 input  -57.11 | X-H torsion

> <Gold.Protein.ActiveResidues>
 VAL166  LYS551  ARG553  GLY616  TRP617  ASP618  TYR619  PRO620  LYS621  CYS622 
 ASP623  PHE694  ASN695  SER759  ASP760  ASP761  ALA762  ILE779  LEU786  VAL792 
 PHE793  MET794  SER795  GLU796  ALA797  LYS798  CYS799  TRP800  GLU811  SER814 

> <Gold.Protein.RotatedAtoms>
  150.8420  133.7921  159.3057 H   0  0  0  0  0  0  0  0  0  0  0  0  # atno 6907 bound_to 6896
  151.5620  135.1063  159.9984 H   0  0  0  0  0  0  0  0  0  0  0  0  # atno 6908 bound_to 6896
  152.4482  133.7534  159.6763 H   0  0  0  0  0  0  0  0  0  0  0  0  # atno 6909 bound_to 6896
  146.1789  139.7203  142.8915 H   0  0  0  0  0  0  0  0  0  0  0  0  # atno 7974 bound_to 7965
  154.4214  140.1764  156.1567 H   0  0  0  0  0  0  0  0  0  0  0  0  # atno 8008 bound_to 7997
  155.9871  140.3372  155.6693 H   0  0  0  0  0  0  0  0  0  0  0  0  # atno 8009 bound_to 7997
  155.6422  140.0681  157.2605 H   0  0  0  0  0  0  0  0  0  0  0  0  # atno 8010 bound_to 7997
  140.6554  143.2595  151.4600 H   0  0  0  0  0  0  0  0  0  0  0  0  # atno 10167 bound_to 10162
  156.2469  130.7129  151.1013 H   0  0  0  0  0  0  0  0  0  0  0  0  # atno 10718 bound_to 10713
  153.6014  135.6999  153.5383 H   0  0  0  0  0  0  0  0  0  0  0  0  # atno 10763 bound_to 10752
  153.3094  135.4105  155.1322 H   0  0  0  0  0  0  0  0  0  0  0  0  # atno 10764 bound_to 10752
  154.8582  135.3668  154.5549 H   0  0  0  0  0  0  0  0  0  0  0  0  # atno 10765 bound_to 10752
  139.8818  134.8752  156.3622 H   0  0  0  0  0  0  0  0  0  0  0  0  # atno 11005 bound_to 11000
  145.4134  141.0399  143.3004 LP  0  0  0  0  0  0  0  0  0  0  0  0  # atno 17320 bound_to 7965
  144.8281  139.5675  143.6956 LP  0  0  0  0  0  0  0  0  0  0  0  0  # atno 17321 bound_to 7965
  139.5776  144.1783  152.1925 LP  0  0  0  0  0  0  0  0  0  0  0  0  # atno 17342 bound_to 10162
  140.1098  144.5467  150.6932 LP  0  0  0  0  0  0  0  0  0  0  0  0  # atno 17343 bound_to 10162
  157.7198  131.0688  150.6180 LP  0  0  0  0  0  0  0  0  0  0  0  0  # atno 17370 bound_to 10713
  156.6257  130.4418  149.5805 LP  0  0  0  0  0  0  0  0  0  0  0  0  # atno 17371 bound_to 10713
  140.9521  133.7444  156.0286 LP  0  0  0  0  0  0  0  0  0  0  0  0  # atno 17394 bound_to 11000
  140.8093  134.3418  157.5416 LP  0  0  0  0  0  0  0  0  0  0  0  0  # atno 17395 bound_to 11000

$$$$
