AV-unprocessed.smi:1247|AV-procd|sdf|5249|dock3
  -GOLD-   22720 4363D 1   1.00000     0.00000
 Structure written by MMmdl.
 47 48  0  0  0  0  0  0  0  0  2 V2000
  146.6470  129.2155  151.7927 C   0  0  0  0  0  0  0  0  0  0  0  0
  146.6084  130.7147  151.8345 C   0  0  0  0  0  0  0  0  0  0  0  0
  147.3424  131.5885  152.6886 C   0  0  0  0  0  0  0  0  0  0  0  0
  146.9164  132.8260  152.2901 C   0  0  0  0  0  0  0  0  0  0  0  0
  147.2750  134.0463  152.7703 N   0  0  0  0  0  0  0  0  0  0  0  0
  147.4063  134.4341  154.0507 C   0  0  0  0  0  0  0  0  0  0  0  0
  147.2335  133.7161  155.0360 O   0  0  0  0  0  0  0  0  0  0  0  0
  147.7737  135.7211  154.1351 N   0  0  0  0  0  0  0  0  0  0  0  0
  148.0243  136.4342  155.3827 C   0  0  0  0  0  0  0  0  0  0  0  0
  149.4985  136.8678  155.4927 C   0  0  0  0  0  0  0  0  0  0  0  0
  149.9551  137.6443  154.3094 N   0  3  1  0  0  0  0  0  0  0  0  0
  149.3222  138.9817  154.2007 C   0  0  0  0  0  0  0  0  0  0  0  0
  149.9575  139.9829  155.1869 C   0  0  2  0  0  0  0  0  0  0  0  0
  149.3740  141.3920  155.0370 C   0  0  0  0  0  0  0  0  0  0  0  0
  151.3561  140.0540  154.9311 O   0  0  0  0  0  0  0  0  0  0  0  0
  152.0196  138.8096  155.1276 C   0  0  2  0  0  0  0  0  0  0  0  0
  153.5176  139.0301  154.8905 C   0  0  0  0  0  0  0  0  0  0  0  0
  151.4291  137.7581  154.1631 C   0  0  0  0  0  0  0  0  0  0  0  0
  145.9914  132.6756  151.2812 N   0  0  0  0  0  0  0  0  0  0  0  0
  145.2589  133.6872  150.5451 C   0  0  0  0  0  0  0  0  0  0  0  0
  145.8074  131.3676  150.9996 N   0  0  0  0  0  0  0  0  0  0  0  0
  147.3710  128.8196  152.5049 H   0  0  0  0  0  0  0  0  0  0  0  0
  146.9268  128.8567  150.8019 H   0  0  0  0  0  0  0  0  0  0  0  0
  145.6733  128.7912  152.0396 H   0  0  0  0  0  0  0  0  0  0  0  0
  148.0522  131.3302  153.4599 H   0  0  0  0  0  0  0  0  0  0  0  0
  147.4952  134.7372  152.0681 H   0  0  0  0  0  0  0  0  0  0  0  0
  147.8923  136.2414  153.2779 H   0  0  0  0  0  0  0  0  0  0  0  0
  147.3620  137.2987  155.3984 H   0  0  0  0  0  0  0  0  0  0  0  0
  147.7426  135.8113  156.2337 H   0  0  0  0  0  0  0  0  0  0  0  0
  149.6032  137.4946  156.3793 H   0  0  0  0  0  0  0  0  0  0  0  0
  150.1388  136.0012  155.6576 H   0  0  0  0  0  0  0  0  0  0  0  0
  149.4580  139.3409  153.1794 H   0  0  0  0  0  0  0  0  0  0  0  0
  148.2451  138.9098  154.3569 H   0  0  0  0  0  0  0  0  0  0  0  0
  149.7947  139.6537  156.2144 H   0  0  0  0  0  0  0  0  0  0  0  0
  148.3018  141.3963  155.2349 H   0  0  0  0  0  0  0  0  0  0  0  0
  149.5311  141.7811  154.0305 H   0  0  0  0  0  0  0  0  0  0  0  0
  149.8427  142.0830  155.7381 H   0  0  0  0  0  0  0  0  0  0  0  0
  151.8835  138.4911  156.1619 H   0  0  0  0  0  0  0  0  0  0  0  0
  154.0785  138.1065  155.0348 H   0  0  0  0  0  0  0  0  0  0  0  0
  153.9161  139.7716  155.5832 H   0  0  0  0  0  0  0  0  0  0  0  0
  153.7104  139.3843  153.8774 H   0  0  0  0  0  0  0  0  0  0  0  0
  151.9146  136.7928  154.3005 H   0  0  0  0  0  0  0  0  0  0  0  0
  151.6391  138.0557  153.1347 H   0  0  0  0  0  0  0  0  0  0  0  0
  145.9604  134.3552  150.0449 H   0  0  0  0  0  0  0  0  0  0  0  0
  144.6426  134.2663  151.2329 H   0  0  0  0  0  0  0  0  0  0  0  0
  144.6144  133.2264  149.7953 H   0  0  0  0  0  0  0  0  0  0  0  0
  149.6255  137.1208  153.5105 H   0  0  0  0  0  0  0  0  0  0  0  0
  1  2  1  0  0  0  0
  1 22  1  0  0  0  0
  1 23  1  0  0  0  0
  1 24  1  0  0  0  0
  2 21  2  0  0  0  0
  2  3  1  0  0  0  0
  3  4  2  0  0  0  0
  3 25  1  0  0  0  0
  4  5  1  0  0  0  0
  4 19  1  0  0  0  0
  5  6  1  0  0  0  0
  5 26  1  0  0  0  0
  6  7  2  0  0  0  0
  6  8  1  0  0  0  0
  8  9  1  0  0  0  0
  8 27  1  0  0  0  0
  9 10  1  0  0  0  0
  9 28  1  0  0  0  0
  9 29  1  0  0  0  0
 10 11  1  0  0  0  0
 10 30  1  0  0  0  0
 10 31  1  0  0  0  0
 11 18  1  0  0  0  0
 11 12  1  0  0  0  0
 11 47  1  0  0  0  0
 12 13  1  0  0  0  0
 12 32  1  0  0  0  0
 12 33  1  0  0  0  0
 13 14  1  0  0  0  0
 13 15  1  0  0  0  0
 13 34  1  0  0  0  0
 14 35  1  0  0  0  0
 14 36  1  0  0  0  0
 14 37  1  0  0  0  0
 15 16  1  0  0  0  0
 16 17  1  0  0  0  0
 16 18  1  0  0  0  0
 16 38  1  0  0  0  0
 17 39  1  0  0  0  0
 17 40  1  0  0  0  0
 17 41  1  0  0  0  0
 18 42  1  0  0  0  0
 18 43  1  0  0  0  0
 19 20  1  0  0  0  0
 19 21  1  0  0  0  0
 20 44  1  0  0  0  0
 20 45  1  0  0  0  0
 20 46  1  0  0  0  0
M  CHG  1  11   1
M  END
> <s_m_source_file>
AV-unprocessed.smi

> <i_m_source_file_index>
1247

> <i_lp_mmshare_version>
43012

> <i_f3d_flags>
0

> <s_epik_input>
W0NIM11jMVtjSF1jKG4objEpW0NIM10pW05IXUMoPU8pW05IXVtDSDJdW0NIMl1OMltDSDJdW0NAQEhdKFtDSDNdKU9bQ0BASF0oW0NIM10pW0NIMl0y

> <s_epik_cmdline>
J2VwaWtfcHl0aG9uJywgJy1waCcsICc3LjAnLCAnLXRuJywgJzgnLCAnLW1hJywgJzIwMCcsICctbWV0YWxfYmluZGluZycsICctaW1hZScsICc8aW5maWxlLm1hZT4nLCAnLW9tYWUnLCAnPG91dGZpbGUubWFlPic=

> <r_lp_tautomer_probability>
1

> <r_epik_Ionization_Penalty>
0.663902

> <r_epik_Ionization_Penalty_Charging>
0.663826

> <r_epik_Ionization_Penalty_Neutral>
7.65444e-05

> <r_epik_State_Penalty>
0.683414

> <r_epik_Charging_Adjusted_Penalty>
1.34724

> <i_epik_Tot_Q>
1

> <i_epik_Tot_abs_Q>
1

> <r_epik_Metal_State_Penalty>
0.683419

> <b_epik_Metal_Only>
0

> <s_lp_Force_Field>
OPLS_2005

> <r_lp_Energy>
18.7227

> <b_lp_Chiralities_Consistent>
1

> <s_lp_Variant>
AV-unprocessed.smi:1247-7

> <Gold.Version>
5.8.1

> <Gold.Id.Protein>
6NUR|6NUR_protein|mol2

> <Gold.PLP.Fitness>
46.7333

> <Gold.PLP.PLP>
-35.0216

> <Gold.PLP.part.hbond>
-4.0000

> <Gold.PLP.part.metal>
0.0000

> <Gold.PLP.part.buried>
-0.1287

> <Gold.PLP.part.nonpolar>
-30.6182

> <Gold.PLP.part.repulsive>
0.2401

> <Gold.PLP.ligand.clash>
0.0000

> <Gold.PLP.ligand.torsion>
0.4784

> <Gold.PLP.Chemscore.Hbond>
4.2142

> <Gold.PLP.Chemscore.CHOScore>
0.0000

> <Gold.PLP.Chemscore.Metal>
0.0000

> <Gold.Chemscore.Hbonds>
donor molecule, donor type, donor heavy atom, donor atom, acceptor molecule, acceptor atom, score
      L1  H     5    26       P1  7948  0.68
      L1  H     8    27       P1  7948  0.75
      L1  H    11    47       P1  7948  2.00
      P1  H  7989  7998       L1    15  1.00

> <Gold.PLP.Chemscore.Internal.Correction>
0.0259

> <Gold.Rescore>
     Score         DG    S(hbond)    S(metal)    S(lipo)     H(rot)  DE(clash)    DE(int)     intcor
     19.14     -19.75       2.61        0.00      80.88       1.52       0.16       0.45       ----

> <Gold.Chemscore.Fitness>
19.1421

> <Gold.Chemscore.DG>
-19.7510

> <Gold.Chemscore.ZeroCoef>
-5.4800

> <Gold.Chemscore.Hbond>
2.6063

> <Gold.Chemscore.Metal>
0.0000

> <Gold.Chemscore.Lipo>
80.8770

> <Gold.Chemscore.Internal_Hbond>
0.0000

> <Gold.Chemscore.DEClash>
0.1620

> <Gold.Chemscore.DEInternal>
0.4468

> <Gold.Chemscore.Rot>
1.5221

> <Gold.Chemscore.Internal.Correction>
   9.000000E+99

> <Gold.Chemscore.Hbonds>
donor molecule, donor type, donor heavy atom, donor atom, acceptor molecule, acceptor atom, score
      L1  H     5    26       P1  7948  0.51
      L1  H     8    27       P1  7948  0.76
      L1  H    11    47       P1  7948  0.77
      P1  H  7989  7998       L1    15  0.75

> <Gold.Chemscore.Hbond.Weighted>
-8.7050

> <Gold.Chemscore.Metal.Weighted>
-0.0000

> <Gold.Chemscore.Lipo.Weighted>
-9.4626

> <Gold.Chemscore.Internal_Hbond.Weighted>
0.0000

> <Gold.Chemscore.DEClash.Weighted>
0.1620

> <Gold.Chemscore.DEInternal.Weighted>
0.4468

> <Gold.Chemscore.Rot.Weighted>
3.8967

> <Gold.Chemscore.Internal.Correction.Weighted>
   9.000000E+99

> <Gold.Protein.RotatedTorsions>
[ 6907 6896 6895 6894 ] final -118.29 input  -60.11 | X-H torsion
[ 7974 7965 7964 7962 ] final   36.42 input  175.53 | X-H torsion
[ 8008 7997 7996 7995 ] final   53.42 input   59.86 | X-H torsion
[ 10167 10162 10161 10158 ] final   15.76 input  -65.29 | X-H torsion
[ 10718 10713 10712 10709 ] final -175.32 input   66.30 | X-H torsion
[ 10763 10752 10751 10750 ] final -111.78 input  -60.55 | X-H torsion
[ 11005 11000 10999 10996 ] final  103.62 input  -57.11 | X-H torsion

> <Gold.Protein.ActiveResidues>
 VAL166  LYS551  ARG553  GLY616  TRP617  ASP618  TYR619  PRO620  LYS621  CYS622 
 ASP623  PHE694  ASN695  SER759  ASP760  ASP761  ALA762  ILE779  LEU786  VAL792 
 PHE793  MET794  SER795  GLU796  ALA797  LYS798  CYS799  TRP800  GLU811  SER814 

> <Gold.Protein.RotatedAtoms>
  150.8207  133.8258  159.3140 H   0  0  0  0  0  0  0  0  0  0  0  0  # atno 6907 bound_to 6896
  151.6016  135.1045  160.0071 H   0  0  0  0  0  0  0  0  0  0  0  0  # atno 6908 bound_to 6896
  152.4296  133.7214  159.6592 H   0  0  0  0  0  0  0  0  0  0  0  0  # atno 6909 bound_to 6896
  146.1212  139.6019  142.9288 H   0  0  0  0  0  0  0  0  0  0  0  0  # atno 7974 bound_to 7965
  155.4679  140.3464  155.4321 H   0  0  0  0  0  0  0  0  0  0  0  0  # atno 8008 bound_to 7997
  156.1119  140.1463  156.9355 H   0  0  0  0  0  0  0  0  0  0  0  0  # atno 8009 bound_to 7997
  154.4762  140.0884  156.7247 H   0  0  0  0  0  0  0  0  0  0  0  0  # atno 8010 bound_to 7997
  140.5844  143.8917  150.6818 H   0  0  0  0  0  0  0  0  0  0  0  0  # atno 10167 bound_to 10162
  156.7982  130.9542  151.3119 H   0  0  0  0  0  0  0  0  0  0  0  0  # atno 10718 bound_to 10713
  154.8317  135.4515  154.1092 H   0  0  0  0  0  0  0  0  0  0  0  0  # atno 10763 bound_to 10752
  153.2359  135.6911  153.7844 H   0  0  0  0  0  0  0  0  0  0  0  0  # atno 10764 bound_to 10752
  153.7209  135.3342  155.3242 H   0  0  0  0  0  0  0  0  0  0  0  0  # atno 10765 bound_to 10752
  139.8785  134.9270  156.5237 H   0  0  0  0  0  0  0  0  0  0  0  0  # atno 11005 bound_to 11000
  145.5462  141.0417  143.2304 LP  0  0  0  0  0  0  0  0  0  0  0  0  # atno 17320 bound_to 7965
  144.7599  139.6982  143.7238 LP  0  0  0  0  0  0  0  0  0  0  0  0  # atno 17321 bound_to 7965
  140.2425  143.3653  152.1475 LP  0  0  0  0  0  0  0  0  0  0  0  0  # atno 17342 bound_to 10162
  139.5189  144.7012  151.5487 LP  0  0  0  0  0  0  0  0  0  0  0  0  # atno 17343 bound_to 10162
  157.6567  130.8930  149.9743 LP  0  0  0  0  0  0  0  0  0  0  0  0  # atno 17370 bound_to 10713
  156.1117  130.3649  150.0037 LP  0  0  0  0  0  0  0  0  0  0  0  0  # atno 17371 bound_to 10713
  140.8431  133.8189  155.9095 LP  0  0  0  0  0  0  0  0  0  0  0  0  # atno 17394 bound_to 11000
  140.9217  134.2133  157.4922 LP  0  0  0  0  0  0  0  0  0  0  0  0  # atno 17395 bound_to 11000

$$$$
