AV-unprocessed.smi:2719|AV-procd|sdf|10495|dock3
  -GOLD-   2272014543D 1   1.00000     0.00000
 Structure written by MMmdl.
 21 21  0  0  0  0  0  0  0  0  3 V2000
  152.1079  140.5996  159.3001 C   0  0  0  0  0  0  0  0  0  0  0  0
  151.9412  142.0340  158.8316 C   0  0  0  0  0  0  0  0  0  0  0  0
  152.6565  143.0640  159.4829 C   0  0  0  0  0  0  0  0  0  0  0  0
  152.5125  144.3974  159.0502 C   0  0  0  0  0  0  0  0  0  0  0  0
  151.6540  144.6755  157.9697 C   0  0  0  0  0  0  0  0  0  0  0  0
  150.9836  143.6688  157.3714 N   0  3  0  0  0  0  0  0  0  0  0  0
  151.0862  142.3712  157.7493 C   0  0  0  0  0  0  0  0  0  0  0  0
  150.2693  141.3444  156.9664 C   0  0  1  0  0  0  0  0  0  0  0  0
  149.2386  141.9343  156.1938 O   0  0  0  0  0  0  0  0  0  0  0  0
  151.2450  140.5820  156.0588 C   0  0  0  0  0  0  0  0  0  0  0  0
  150.9065  140.4338  154.8640 O   0  0  0  0  0  0  0  0  0  0  0  0
  152.2981  140.1417  156.5727 O   0  5  0  0  0  0  0  0  0  0  0  0
  152.8700  140.5213  160.0760 H   0  0  0  0  0  0  0  0  0  0  0  0
  152.4090  139.9571  158.4724 H   0  0  0  0  0  0  0  0  0  0  0  0
  151.1712  140.2219  159.7102 H   0  0  0  0  0  0  0  0  0  0  0  0
  153.3150  142.8370  160.3089 H   0  0  0  0  0  0  0  0  0  0  0  0
  153.0557  145.1936  159.5378 H   0  0  0  0  0  0  0  0  0  0  0  0
  151.4851  145.6632  157.5663 H   0  0  0  0  0  0  0  0  0  0  0  0
  149.7876  140.6406  157.6449 H   0  0  0  0  0  0  0  0  0  0  0  0
  149.4664  142.8359  156.0294 H   0  0  0  0  0  0  0  0  0  0  0  0
  150.3721  143.8888  156.5842 H   0  0  0  0  0  0  0  0  0  0  0  0
  1  2  1  0  0  0  0
  1 13  1  0  0  0  0
  1 14  1  0  0  0  0
  1 15  1  0  0  0  0
  2  7  1  0  0  0  0
  2  3  2  0  0  0  0
  3  4  1  0  0  0  0
  3 16  1  0  0  0  0
  4  5  2  0  0  0  0
  4 17  1  0  0  0  0
  5  6  1  0  0  0  0
  5 18  1  0  0  0  0
  6  7  2  0  0  0  0
  6 21  1  0  0  0  0
  7  8  1  0  0  0  0
  8  9  1  0  0  0  0
  8 10  1  0  0  0  0
  8 19  1  0  0  0  0
  9 20  1  0  0  0  0
 10 11  2  0  0  0  0
 10 12  1  0  0  0  0
M  CHG  1   6   1
M  CHG  1  12  -1
M  END
> <s_m_source_file>
AV-unprocessed.smi

> <i_m_source_file_index>
2719

> <i_lp_mmshare_version>
43012

> <i_f3d_flags>
0

> <s_epik_input>
W0NIM11jMVtjSF1bY0hdW2NIXW5jMVtDQEhdKFtPSF0pQyg9TylbT0hd

> <s_epik_cmdline>
J2VwaWtfcHl0aG9uJywgJy1waCcsICc3LjAnLCAnLXRuJywgJzgnLCAnLW1hJywgJzIwMCcsICctbWV0YWxfYmluZGluZycsICctaW1hZScsICc8aW5maWxlLm1hZT4nLCAnLW9tYWUnLCAnPG91dGZpbGUubWFlPic=

> <r_epik_Ionization_Penalty>
0.143401

> <r_epik_Ionization_Penalty_Charging>
0.1434

> <r_epik_Ionization_Penalty_Neutral>
5.11682e-08

> <r_epik_State_Penalty>
0.132703

> <r_epik_Charging_Adjusted_Penalty>
0.276103

> <i_epik_Tot_Q>
0

> <i_epik_Tot_abs_Q>
2

> <r_epik_Metal_State_Penalty>
3.27621

> <b_epik_Metal_Only>
0

> <s_lp_Force_Field>
OPLS_2005

> <r_lp_Energy>
8.63444

> <b_lp_Chiralities_Consistent>
1

> <s_lp_Variant>
AV-unprocessed.smi:2719-2

> <Gold.Version>
5.8.1

> <Gold.Id.Protein>
6NUR|6NUR_protein|mol2

> <Gold.PLP.Fitness>
44.7789

> <Gold.PLP.PLP>
-28.8124

> <Gold.PLP.part.hbond>
-4.0000

> <Gold.PLP.part.metal>
0.0000

> <Gold.PLP.part.buried>
-2.8569

> <Gold.PLP.part.nonpolar>
-21.1458

> <Gold.PLP.part.repulsive>
0.0736

> <Gold.PLP.ligand.clash>
0.8060

> <Gold.PLP.ligand.torsion>
0.6097

> <Gold.PLP.Chemscore.Hbond>
5.9920

> <Gold.PLP.Chemscore.CHOScore>
0.0000

> <Gold.PLP.Chemscore.Metal>
0.0000

> <Gold.Chemscore.Hbonds>
donor molecule, donor type, donor heavy atom, donor atom, acceptor molecule, acceptor atom, score
      L1  H     6    21       P1  8028  2.00
      L1  H     9    20       P1  8028  0.98
      P1  H  7989  7998       L1    11  1.00
      P1  H  7997  8009       L1    12  1.95

> <Gold.PLP.Chemscore.Internal.Correction>
0.0160

> <Gold.Rescore>
     Score         DG    S(hbond)    S(metal)    S(lipo)     H(rot)  DE(clash)    DE(int)     intcor
     17.43     -20.69       3.80        0.00      67.80       2.11       0.05       3.22       ----

> <Gold.Chemscore.Fitness>
17.4278

> <Gold.Chemscore.DG>
-20.6896

> <Gold.Chemscore.ZeroCoef>
-5.4800

> <Gold.Chemscore.Hbond>
3.7991

> <Gold.Chemscore.Metal>
0.0000

> <Gold.Chemscore.Lipo>
67.8030

> <Gold.Chemscore.Internal_Hbond>
0.0000

> <Gold.Chemscore.DEClash>
0.0462

> <Gold.Chemscore.DEInternal>
3.2156

> <Gold.Chemscore.Rot>
2.1142

> <Gold.Chemscore.Internal.Correction>
   9.000000E+99

> <Gold.Chemscore.Hbonds>
donor molecule, donor type, donor heavy atom, donor atom, acceptor molecule, acceptor atom, score
      L1  H     6    21       P1  8028  0.98
      L1  H     9    20       P1  8028  0.89
      P1  H  7989  7998       L1    11  0.97
      P1  H  7997  8009       L1    12  0.91

> <Gold.Chemscore.Hbond.Weighted>
-12.6890

> <Gold.Chemscore.Metal.Weighted>
-0.0000

> <Gold.Chemscore.Lipo.Weighted>
-7.9329

> <Gold.Chemscore.Internal_Hbond.Weighted>
0.0000

> <Gold.Chemscore.DEClash.Weighted>
0.0462

> <Gold.Chemscore.DEInternal.Weighted>
3.2156

> <Gold.Chemscore.Rot.Weighted>
5.4123

> <Gold.Chemscore.Internal.Correction.Weighted>
   9.000000E+99

> <Gold.Protein.RotatedTorsions>
[ 6907 6896 6895 6894 ] final   28.69 input  -60.11 | X-H torsion
[ 7974 7965 7964 7962 ] final  -55.76 input  175.53 | X-H torsion
[ 8008 7997 7996 7995 ] final -165.98 input   59.86 | X-H torsion
[ 10167 10162 10161 10158 ] final  -11.34 input  -65.29 | X-H torsion
[ 10718 10713 10712 10709 ] final  -22.62 input   66.30 | X-H torsion
[ 10763 10752 10751 10750 ] final   54.09 input  -60.55 | X-H torsion
[ 11005 11000 10999 10996 ] final -130.85 input  -57.11 | X-H torsion

> <Gold.Protein.ActiveResidues>
 VAL166  LYS551  ARG553  GLY616  TRP617  ASP618  TYR619  PRO620  LYS621  CYS622 
 ASP623  PHE694  ASN695  SER759  ASP760  ASP761  ALA762  ILE779  LEU786  VAL792 
 PHE793  MET794  SER795  GLU796  ALA797  LYS798  CYS799  TRP800  GLU811  SER814 

> <Gold.Protein.RotatedAtoms>
  152.0207  134.9824  160.0570 H   0  0  0  0  0  0  0  0  0  0  0  0  # atno 6907 bound_to 6896
  152.1340  133.4419  159.4743 H   0  0  0  0  0  0  0  0  0  0  0  0  # atno 6908 bound_to 6896
  150.6859  134.2304  159.4475 H   0  0  0  0  0  0  0  0  0  0  0  0  # atno 6909 bound_to 6896
  145.8705  140.8220  142.9891 H   0  0  0  0  0  0  0  0  0  0  0  0  # atno 7974 bound_to 7965
  155.8574  140.0973  157.1635 H   0  0  0  0  0  0  0  0  0  0  0  0  # atno 8008 bound_to 7997
  154.3988  140.1371  156.3981 H   0  0  0  0  0  0  0  0  0  0  0  0  # atno 8009 bound_to 7997
  155.7894  140.3456  155.5343 H   0  0  0  0  0  0  0  0  0  0  0  0  # atno 8010 bound_to 7997
  140.7136  143.5650  150.9154 H   0  0  0  0  0  0  0  0  0  0  0  0  # atno 10167 bound_to 10162
  156.5021  130.4590  149.6695 H   0  0  0  0  0  0  0  0  0  0  0  0  # atno 10718 bound_to 10713
  152.9801  135.5757  154.4848 H   0  0  0  0  0  0  0  0  0  0  0  0  # atno 10763 bound_to 10752
  154.4391  135.2775  155.1862 H   0  0  0  0  0  0  0  0  0  0  0  0  # atno 10764 bound_to 10752
  154.3538  135.6203  153.5709 H   0  0  0  0  0  0  0  0  0  0  0  0  # atno 10765 bound_to 10752
  140.9310  134.1319  157.4235 H   0  0  0  0  0  0  0  0  0  0  0  0  # atno 11005 bound_to 11000
  144.6726  140.1231  143.7448 LP  0  0  0  0  0  0  0  0  0  0  0  0  # atno 17320 bound_to 7965
  145.9142  139.2506  143.1419 LP  0  0  0  0  0  0  0  0  0  0  0  0  # atno 17321 bound_to 7965
  139.9375  143.6420  152.3061 LP  0  0  0  0  0  0  0  0  0  0  0  0  # atno 17342 bound_to 10162
  139.6893  144.7648  151.1467 LP  0  0  0  0  0  0  0  0  0  0  0  0  # atno 17343 bound_to 10162
  156.3322  130.7338  151.2269 LP  0  0  0  0  0  0  0  0  0  0  0  0  # atno 17370 bound_to 10713
  157.7461  131.0426  150.4705 LP  0  0  0  0  0  0  0  0  0  0  0  0  # atno 17371 bound_to 10713
  139.8796  135.0005  156.6013 LP  0  0  0  0  0  0  0  0  0  0  0  0  # atno 17394 bound_to 11000
  140.7862  133.8619  155.8608 LP  0  0  0  0  0  0  0  0  0  0  0  0  # atno 17395 bound_to 11000

$$$$
