AV-unprocessed.smi:2519|AV-procd|sdf|9905|dock2
  -GOLD-   2272013543D 1   1.00000     0.00000
 Structure written by MMmdl.
 43 44  0  0  0  0  0  0  0  0  1 V2000
  151.4952  137.1311  155.6685 C   0  0  0  0  0  0  0  0  0  0  0  0
  150.4227  137.9785  155.1718 N   0  0  0  0  0  0  0  0  0  0  0  0
  150.5494  139.2891  154.9068 C   0  0  0  0  0  0  0  0  0  0  0  0
  151.6024  139.9074  155.0699 O   0  0  0  0  0  0  0  0  0  0  0  0
  149.3085  139.9858  154.4115 C   0  0  0  0  0  0  0  0  0  0  0  0
  149.1149  141.3600  154.6758 C   0  0  0  0  0  0  0  0  0  0  0  0
  147.9502  141.9837  154.1944 C   0  0  0  0  0  0  0  0  0  0  0  0
  147.0199  141.2191  153.4666 C   0  0  0  0  0  0  0  0  0  0  0  0
  147.2787  139.8506  153.2386 C   0  0  0  0  0  0  0  0  0  0  0  0
  146.2833  139.1638  152.4956 N   0  0  0  0  0  0  0  0  0  0  0  0
  145.8682  137.8884  152.6322 C   0  0  0  0  0  0  0  0  0  0  0  0
  146.3035  137.0956  153.4659 O   0  0  0  0  0  0  0  0  0  0  0  0
  144.9060  137.5244  151.7643 N   0  0  0  0  0  0  0  0  0  0  0  0
  144.2364  136.2280  151.6369 C   0  0  2  0  0  0  0  0  0  0  0  0
  143.3716  135.9375  152.8802 C   0  0  0  0  0  0  0  0  0  0  0  0
  142.7263  134.5466  152.7968 C   0  0  0  0  0  0  0  0  0  0  0  0
  143.7843  133.4510  152.5933 C   0  0  0  0  0  0  0  0  0  0  0  0
  144.6516  133.7228  151.3461 C   0  0  2  0  0  0  0  0  0  0  0  0
  145.7049  132.6187  151.1216 C   0  0  0  0  0  0  0  0  0  0  0  0
  146.2154  132.6926  149.8919 F   0  0  0  0  0  0  0  0  0  0  0  0
  146.6932  132.7443  152.0072 F   0  0  0  0  0  0  0  0  0  0  0  0
  145.1494  131.4182  151.2866 F   0  0  0  0  0  0  0  0  0  0  0  0
  145.2927  135.1243  151.4417 C   0  0  0  0  0  0  0  0  0  0  0  0
  148.4054  139.2615  153.7069 N   0  0  0  0  0  0  0  0  0  0  0  0
  151.1356  136.1092  155.7887 H   0  0  0  0  0  0  0  0  0  0  0  0
  151.8522  137.4834  156.6370 H   0  0  0  0  0  0  0  0  0  0  0  0
  152.3336  137.1178  154.9711 H   0  0  0  0  0  0  0  0  0  0  0  0
  149.5228  137.5477  155.0117 H   0  0  0  0  0  0  0  0  0  0  0  0
  149.8394  141.9326  155.2364 H   0  0  0  0  0  0  0  0  0  0  0  0
  147.7729  143.0325  154.3805 H   0  0  0  0  0  0  0  0  0  0  0  0
  146.1195  141.6823  153.0897 H   0  0  0  0  0  0  0  0  0  0  0  0
  145.8338  139.7029  151.7706 H   0  0  0  0  0  0  0  0  0  0  0  0
  144.6035  138.2350  151.1135 H   0  0  0  0  0  0  0  0  0  0  0  0
  143.5988  136.2307  150.7510 H   0  0  0  0  0  0  0  0  0  0  0  0
  143.9862  135.9974  153.7797 H   0  0  0  0  0  0  0  0  0  0  0  0
  142.5928  136.6931  152.9887 H   0  0  0  0  0  0  0  0  0  0  0  0
  142.1562  134.3483  153.7048 H   0  0  0  0  0  0  0  0  0  0  0  0
  142.0122  134.5237  151.9727 H   0  0  0  0  0  0  0  0  0  0  0  0
  144.4180  133.3905  153.4788 H   0  0  0  0  0  0  0  0  0  0  0  0
  143.2889  132.4840  152.5032 H   0  0  0  0  0  0  0  0  0  0  0  0
  143.9904  133.7208  150.4781 H   0  0  0  0  0  0  0  0  0  0  0  0
  145.8679  135.3299  150.5381 H   0  0  0  0  0  0  0  0  0  0  0  0
  146.0037  135.1456  152.2691 H   0  0  0  0  0  0  0  0  0  0  0  0
  1  2  1  0  0  0  0
  1 25  1  0  0  0  0
  1 26  1  0  0  0  0
  1 27  1  0  0  0  0
  2  3  1  0  0  0  0
  2 28  1  0  0  0  0
  3  4  2  0  0  0  0
  3  5  1  0  0  0  0
  5 24  1  0  0  0  0
  5  6  2  0  0  0  0
  6  7  1  0  0  0  0
  6 29  1  0  0  0  0
  7  8  2  0  0  0  0
  7 30  1  0  0  0  0
  8  9  1  0  0  0  0
  8 31  1  0  0  0  0
  9 10  1  0  0  0  0
  9 24  2  0  0  0  0
 10 11  1  0  0  0  0
 10 32  1  0  0  0  0
 11 12  2  0  0  0  0
 11 13  1  0  0  0  0
 13 14  1  0  0  0  0
 13 33  1  0  0  0  0
 14 23  1  0  0  0  0
 14 15  1  0  0  0  0
 14 34  1  0  0  0  0
 15 16  1  0  0  0  0
 15 35  1  0  0  0  0
 15 36  1  0  0  0  0
 16 17  1  0  0  0  0
 16 37  1  0  0  0  0
 16 38  1  0  0  0  0
 17 18  1  0  0  0  0
 17 39  1  0  0  0  0
 17 40  1  0  0  0  0
 18 19  1  0  0  0  0
 18 23  1  0  0  0  0
 18 41  1  0  0  0  0
 19 20  1  0  0  0  0
 19 21  1  0  0  0  0
 19 22  1  0  0  0  0
 23 42  1  0  0  0  0
 23 43  1  0  0  0  0
M  END
> <s_m_source_file>
AV-unprocessed.smi

> <i_m_source_file_index>
2519

> <i_lp_mmshare_version>
43012

> <i_f3d_flags>
0

> <s_epik_input>
W0NIM11bTkhdQyg9TyljMVtjSF1bY0hdW2NIXWMobjEpW05IXUMoPU8pW05IXVtDQEBIXTJbQ0gyXVtDSDJdW0NIMl1bQ0BASF0oQyhGKShGKUYpW0NIMl0y

> <s_epik_cmdline>
J2VwaWtfcHl0aG9uJywgJy1waCcsICc3LjAnLCAnLXRuJywgJzgnLCAnLW1hJywgJzIwMCcsICctbWV0YWxfYmluZGluZycsICctaW1hZScsICc8aW5maWxlLm1hZT4nLCAnLW9tYWUnLCAnPG91dGZpbGUubWFlPic=

> <r_lp_tautomer_probability>
1

> <r_epik_Ionization_Penalty>
3.74915e-05

> <r_epik_Ionization_Penalty_Charging>
0

> <r_epik_Ionization_Penalty_Neutral>
3.74915e-05

> <r_epik_State_Penalty>
-0

> <r_epik_Charging_Adjusted_Penalty>
0

> <i_epik_Tot_Q>
0

> <i_epik_Tot_abs_Q>
0

> <r_epik_Metal_State_Penalty>
-0

> <b_epik_Metal_Only>
0

> <s_lp_Force_Field>
OPLS_2005

> <r_lp_Energy>
27.0484

> <b_lp_Chiralities_Consistent>
1

> <s_lp_Variant>
AV-unprocessed.smi:2519-3

> <Gold.Version>
5.8.1

> <Gold.Id.Protein>
6NUR|6NUR_protein|mol2

> <Gold.PLP.Fitness>
45.3432

> <Gold.PLP.PLP>
-41.0478

> <Gold.PLP.part.hbond>
-3.0105

> <Gold.PLP.part.metal>
0.0000

> <Gold.PLP.part.buried>
-2.1624

> <Gold.PLP.part.nonpolar>
-37.3533

> <Gold.PLP.part.repulsive>
1.8596

> <Gold.PLP.ligand.clash>
0.0000

> <Gold.PLP.ligand.torsion>
0.8850

> <Gold.PLP.Chemscore.Hbond>
2.0145

> <Gold.PLP.Chemscore.CHOScore>
0.0000

> <Gold.PLP.Chemscore.Metal>
0.0000

> <Gold.Chemscore.Hbonds>
donor molecule, donor type, donor heavy atom, donor atom, acceptor molecule, acceptor atom, score
      L1  H    10    32       P1 10175  0.04
      L1  H    13    33       P1 10171  0.98
      P1  H  7989  7998       L1     4  1.00

> <Gold.PLP.Chemscore.Internal.Correction>
0.0218

> <Gold.Rescore>
     Score         DG    S(hbond)    S(metal)    S(lipo)     H(rot)  DE(clash)    DE(int)     intcor
     13.95     -18.22       2.14        0.00      69.63       1.00       1.45       2.82       ----

> <Gold.Chemscore.Fitness>
13.9533

> <Gold.Chemscore.DG>
-18.2241

> <Gold.Chemscore.ZeroCoef>
-5.4800

> <Gold.Chemscore.Hbond>
2.1430

> <Gold.Chemscore.Metal>
0.0000

> <Gold.Chemscore.Lipo>
69.6292

> <Gold.Chemscore.Internal_Hbond>
0.0000

> <Gold.Chemscore.DEClash>
1.4462

> <Gold.Chemscore.DEInternal>
2.8246

> <Gold.Chemscore.Rot>
1.0000

> <Gold.Chemscore.Internal.Correction>
   9.000000E+99

> <Gold.Chemscore.Hbonds>
donor molecule, donor type, donor heavy atom, donor atom, acceptor molecule, acceptor atom, score
      L1  H    10    32       P1 10175  0.03
      L1  H    13    33       P1 10171  0.87
      P1  H  7989  7998       L1     4  0.25

> <Gold.Chemscore.Hbond.Weighted>
-7.1575

> <Gold.Chemscore.Metal.Weighted>
-0.0000

> <Gold.Chemscore.Lipo.Weighted>
-8.1466

> <Gold.Chemscore.Internal_Hbond.Weighted>
0.0000

> <Gold.Chemscore.DEClash.Weighted>
1.4462

> <Gold.Chemscore.DEInternal.Weighted>
2.8246

> <Gold.Chemscore.Rot.Weighted>
2.5600

> <Gold.Chemscore.Internal.Correction.Weighted>
   9.000000E+99

> <Gold.Protein.RotatedTorsions>
[ 6907 6896 6895 6894 ] final  103.67 input  -60.11 | X-H torsion
[ 7974 7965 7964 7962 ] final -116.07 input  175.53 | X-H torsion
[ 8008 7997 7996 7995 ] final -100.21 input   59.86 | X-H torsion
[ 10167 10162 10161 10158 ] final   -0.19 input  -65.29 | X-H torsion
[ 10718 10713 10712 10709 ] final -162.78 input   66.30 | X-H torsion
[ 10763 10752 10751 10750 ] final -164.96 input  -60.55 | X-H torsion
[ 11005 11000 10999 10996 ] final  -31.03 input  -57.11 | X-H torsion

> <Gold.Protein.ActiveResidues>
 VAL166  LYS551  ARG553  GLY616  TRP617  ASP618  TYR619  PRO620  LYS621  CYS622 
 ASP623  PHE694  ASN695  SER759  ASP760  ASP761  ALA762  ILE779  LEU786  VAL792 
 PHE793  MET794  SER795  GLU796  ALA797  LYS798  CYS799  TRP800  GLU811  SER814 

> <Gold.Protein.RotatedAtoms>
  152.5288  133.9791  159.7797 H   0  0  0  0  0  0  0  0  0  0  0  0  # atno 6907 bound_to 6896
  151.0048  133.6013  159.2697 H   0  0  0  0  0  0  0  0  0  0  0  0  # atno 6908 bound_to 6896
  151.3109  135.0800  159.9325 H   0  0  0  0  0  0  0  0  0  0  0  0  # atno 6909 bound_to 6896
  145.1010  140.8552  143.3926 H   0  0  0  0  0  0  0  0  0  0  0  0  # atno 7974 bound_to 7965
  154.8254  140.0442  157.1440 H   0  0  0  0  0  0  0  0  0  0  0  0  # atno 8008 bound_to 7997
  154.9212  140.3027  155.5195 H   0  0  0  0  0  0  0  0  0  0  0  0  # atno 8009 bound_to 7997
  156.2983  140.2340  156.4262 H   0  0  0  0  0  0  0  0  0  0  0  0  # atno 8010 bound_to 7997
  140.6756  143.6924  150.8017 H   0  0  0  0  0  0  0  0  0  0  0  0  # atno 10167 bound_to 10162
  156.6154  130.8868  151.2946 H   0  0  0  0  0  0  0  0  0  0  0  0  # atno 10718 bound_to 10713
  154.6978  135.2982  154.9385 H   0  0  0  0  0  0  0  0  0  0  0  0  # atno 10763 bound_to 10752
  154.0327  135.6668  153.4786 H   0  0  0  0  0  0  0  0  0  0  0  0  # atno 10764 bound_to 10752
  153.0659  135.5088  154.8106 H   0  0  0  0  0  0  0  0  0  0  0  0  # atno 10765 bound_to 10752
  140.9434  133.7265  156.1109 H   0  0  0  0  0  0  0  0  0  0  0  0  # atno 11005 bound_to 11000
  145.0955  139.2859  143.5713 LP  0  0  0  0  0  0  0  0  0  0  0  0  # atno 17320 bound_to 7965
  146.3529  140.0506  142.8636 LP  0  0  0  0  0  0  0  0  0  0  0  0  # atno 17321 bound_to 7965
  140.0617  143.5148  152.2624 LP  0  0  0  0  0  0  0  0  0  0  0  0  # atno 17342 bound_to 10162
  139.6047  144.7593  151.3089 LP  0  0  0  0  0  0  0  0  0  0  0  0  # atno 17343 bound_to 10162
  157.7243  130.9600  150.1566 LP  0  0  0  0  0  0  0  0  0  0  0  0  # atno 17370 bound_to 10713
  156.2355  130.3686  149.8396 LP  0  0  0  0  0  0  0  0  0  0  0  0  # atno 17371 bound_to 10713
  140.7703  134.3840  157.5509 LP  0  0  0  0  0  0  0  0  0  0  0  0  # atno 17394 bound_to 11000
  139.8826  134.9018  156.2818 LP  0  0  0  0  0  0  0  0  0  0  0  0  # atno 17395 bound_to 11000

$$$$
