AV-unprocessed.smi:37|AV-procd|sdf|330|dock5
  -GOLD-   2262016163D 1   1.00000     0.00000
 Structure written by MMmdl.
 43 44  0  0  0  0  0  0  0  0  2 V2000
  151.9836  145.3733  160.2313 C   0  0  0  0  0  0  0  0  0  0  0  0
  151.8846  143.9195  160.7129 C   0  0  0  0  0  0  0  0  0  0  0  0
  152.5843  142.9504  159.7630 C   0  0  0  0  0  0  0  0  0  0  0  0
  153.3146  143.3524  158.8571 O   0  0  0  0  0  0  0  0  0  0  0  0
  152.3035  141.6686  160.0375 O   0  0  0  0  0  0  0  0  0  0  0  0
  152.9476  140.6335  159.3151 C   0  0  0  0  0  0  0  0  0  0  0  0
  151.9853  140.0089  158.2951 C   0  0  1  0  0  0  0  0  0  0  0  0
  152.5435  140.0893  156.9818 O   0  0  0  0  0  0  0  0  0  0  0  0
  152.2465  138.9304  156.2601 C   0  0  2  0  0  0  0  0  0  0  0  0
  150.9179  139.0832  155.5308 N   0  0  0  0  0  0  0  0  0  0  0  0
  150.2991  140.3166  155.3899 C   0  0  0  0  0  0  0  0  0  0  0  0
  149.1250  140.4449  154.7391 C   0  0  0  0  0  0  0  0  0  0  0  0
  148.5515  141.6552  154.6257 F   0  0  0  0  0  0  0  0  0  0  0  0
  148.4907  139.2668  154.1536 C   0  0  0  0  0  0  0  0  0  0  0  0
  147.4014  139.3824  153.5945 O   0  0  0  0  0  0  0  0  0  0  0  0
  149.1484  138.0763  154.2515 N   0  5  0  0  0  0  0  0  0  0  0  0
  150.3458  137.9458  154.8936 C   0  0  0  0  0  0  0  0  0  0  0  0
  150.9644  136.8829  154.9434 O   0  0  0  0  0  0  0  0  0  0  0  0
  152.1868  137.8138  157.3130 C   0  0  1  0  0  0  0  0  0  0  0  0
  154.0298  137.1529  157.6778 Br  0  0  0  0  0  0  0  0  0  0  0  0
  151.6419  138.5298  158.5451 C   0  0  2  0  0  0  0  0  0  0  0  0
  150.2248  138.4017  158.5931 O   0  0  0  0  0  0  0  0  0  0  0  0
  149.6474  137.1891  158.6668 C   0  0  0  0  0  0  0  0  0  0  0  0
  150.1499  136.1264  158.3011 O   0  0  0  0  0  0  0  0  0  0  0  0
  148.2444  137.2420  159.2667 C   0  0  0  0  0  0  0  0  0  0  0  0
  148.1264  136.3923  160.5404 C   0  0  0  0  0  0  0  0  0  0  0  0
  151.4708  146.0416  160.9229 H   0  0  0  0  0  0  0  0  0  0  0  0
  151.5248  145.4979  159.2499 H   0  0  0  0  0  0  0  0  0  0  0  0
  153.0205  145.7043  160.1620 H   0  0  0  0  0  0  0  0  0  0  0  0
  152.3310  143.8239  161.7030 H   0  0  0  0  0  0  0  0  0  0  0  0
  150.8379  143.6298  160.8081 H   0  0  0  0  0  0  0  0  0  0  0  0
  153.8184  141.0419  158.8006 H   0  0  0  0  0  0  0  0  0  0  0  0
  153.3058  139.8668  160.0036 H   0  0  0  0  0  0  0  0  0  0  0  0
  151.0717  140.6038  158.3108 H   0  0  0  0  0  0  0  0  0  0  0  0
  152.9759  138.7609  155.4664 H   0  0  0  0  0  0  0  0  0  0  0  0
  150.7510  141.2095  155.7912 H   0  0  0  0  0  0  0  0  0  0  0  0
  151.5944  136.9543  157.0020 H   0  0  0  0  0  0  0  0  0  0  0  0
  152.0864  138.1538  159.4679 H   0  0  0  0  0  0  0  0  0  0  0  0
  148.0026  138.2805  159.4943 H   0  0  0  0  0  0  0  0  0  0  0  0
  147.5241  136.9048  158.5211 H   0  0  0  0  0  0  0  0  0  0  0  0
  147.1536  136.5355  161.0100 H   0  0  0  0  0  0  0  0  0  0  0  0
  148.8897  136.6592  161.2726 H   0  0  0  0  0  0  0  0  0  0  0  0
  148.2305  135.3296  160.3204 H   0  0  0  0  0  0  0  0  0  0  0  0
  1  2  1  0  0  0  0
  1 27  1  0  0  0  0
  1 28  1  0  0  0  0
  1 29  1  0  0  0  0
  2  3  1  0  0  0  0
  2 30  1  0  0  0  0
  2 31  1  0  0  0  0
  3  4  2  0  0  0  0
  3  5  1  0  0  0  0
  5  6  1  0  0  0  0
  6  7  1  0  0  0  0
  6 32  1  0  0  0  0
  6 33  1  0  0  0  0
  7 21  1  0  0  0  0
  7  8  1  0  0  0  0
  7 34  1  0  0  0  0
  8  9  1  0  0  0  0
  9 10  1  0  0  0  0
  9 19  1  0  0  0  0
  9 35  1  0  0  0  0
 10 17  1  0  0  0  0
 10 11  1  0  0  0  0
 11 12  2  0  0  0  0
 11 36  1  0  0  0  0
 12 13  1  0  0  0  0
 12 14  1  0  0  0  0
 14 15  2  0  0  0  0
 14 16  1  0  0  0  0
 16 17  1  0  0  0  0
 17 18  2  0  0  0  0
 19 20  1  0  0  0  0
 19 21  1  0  0  0  0
 19 37  1  0  0  0  0
 21 22  1  0  0  0  0
 21 38  1  0  0  0  0
 22 23  1  0  0  0  0
 23 24  2  0  0  0  0
 23 25  1  0  0  0  0
 25 26  1  0  0  0  0
 25 39  1  0  0  0  0
 25 40  1  0  0  0  0
 26 41  1  0  0  0  0
 26 42  1  0  0  0  0
 26 43  1  0  0  0  0
M  CHG  1  16  -1
M  END
> <s_m_source_file>
AV-unprocessed.smi

> <i_m_source_file_index>
37

> <i_lp_mmshare_version>
43012

> <i_f3d_flags>
0

> <s_epik_input>
W0NIM11bQ0gyXUMoPU8pT1tDSDJdW0NAQEhdMU9bQ0BASF0objJbY0hdYyhGKWMoPU8pW25IXWMyPU8pW0NAQEhdKEJyKVtDQEhdMU9DKD1PKVtDSDJdW0NIM10=

> <s_epik_cmdline>
J2VwaWtfcHl0aG9uJywgJy1waCcsICc3LjAnLCAnLXRuJywgJzgnLCAnLW1hJywgJzIwMCcsICctbWV0YWxfYmluZGluZycsICctaW1hZScsICc8aW5maWxlLm1hZT4nLCAnLW9tYWUnLCAnPG91dGZpbGUubWFlPic=

> <r_epik_Ionization_Penalty>
1.08158

> <r_epik_Ionization_Penalty_Charging>
9.05154e-09

> <r_epik_Ionization_Penalty_Neutral>
1.08158

> <r_epik_State_Penalty>
1.13706

> <r_epik_Charging_Adjusted_Penalty>
1.13706

> <i_epik_Tot_Q>
-1

> <i_epik_Tot_abs_Q>
1

> <r_epik_Metal_State_Penalty>
0.00343535

> <b_epik_Metal_Only>
0

> <s_epik_Chemistry_Notes>
This compound has an ester and may undergo hydrolysis at high or low pH. This compound contains an acetal/aminal-like group ( X-CH(R)-Y where X, Y are N, S, or O) that may be acid/base labile, releasing an aldehyde.

> <s_lp_Force_Field>
OPLS_2005

> <r_lp_Energy>
28.0261

> <b_lp_Chiralities_Consistent>
1

> <s_lp_Variant>
AV-unprocessed.smi:37-28

> <Gold.Version>
5.8.1

> <Gold.Id.Protein>
6NUR|6NUR_protein|mol2

> <Gold.PLP.Fitness>
48.2198

> <Gold.PLP.PLP>
-42.9661

> <Gold.PLP.part.hbond>
-3.0000

> <Gold.PLP.part.metal>
0.0000

> <Gold.PLP.part.buried>
-7.0422

> <Gold.PLP.part.nonpolar>
-34.8997

> <Gold.PLP.part.repulsive>
1.9971

> <Gold.PLP.ligand.clash>
0.0000

> <Gold.PLP.ligand.torsion>
1.7171

> <Gold.PLP.Chemscore.Hbond>
2.8500

> <Gold.PLP.Chemscore.CHOScore>
0.0000

> <Gold.PLP.Chemscore.Metal>
0.0000

> <Gold.Chemscore.Hbonds>
donor molecule, donor type, donor heavy atom, donor atom, acceptor molecule, acceptor atom, score
      P1  H  6896  6909       L1    24  0.96
      P1  H  7997  8008       L1     8  0.85

> <Gold.PLP.Chemscore.Internal.Correction>
0.1379

> <Gold.Rescore>
     Score         DG    S(hbond)    S(metal)    S(lipo)     H(rot)  DE(clash)    DE(int)     intcor
      7.92     -12.34       1.99        0.00      73.30       3.27       0.17       4.25       ----

> <Gold.Chemscore.Fitness>
7.9158

> <Gold.Chemscore.DG>
-12.3360

> <Gold.Chemscore.ZeroCoef>
-5.4800

> <Gold.Chemscore.Hbond>
1.9889

> <Gold.Chemscore.Metal>
0.0000

> <Gold.Chemscore.Lipo>
73.3032

> <Gold.Chemscore.Internal_Hbond>
0.0000

> <Gold.Chemscore.DEClash>
0.1695

> <Gold.Chemscore.DEInternal>
4.2507

> <Gold.Chemscore.Rot>
3.2669

> <Gold.Chemscore.Internal.Correction>
   9.000000E+99

> <Gold.Chemscore.Hbonds>
donor molecule, donor type, donor heavy atom, donor atom, acceptor molecule, acceptor atom, score
      P1  H  6896  6909       L1    24  0.87
      P1  H  7997  8008       L1     8  0.20

> <Gold.Chemscore.Hbond.Weighted>
-6.6429

> <Gold.Chemscore.Metal.Weighted>
-0.0000

> <Gold.Chemscore.Lipo.Weighted>
-8.5765

> <Gold.Chemscore.Internal_Hbond.Weighted>
0.0000

> <Gold.Chemscore.DEClash.Weighted>
0.1695

> <Gold.Chemscore.DEInternal.Weighted>
4.2507

> <Gold.Chemscore.Rot.Weighted>
8.3634

> <Gold.Chemscore.Internal.Correction.Weighted>
   9.000000E+99

> <Gold.Protein.RotatedTorsions>
[ 6907 6896 6895 6894 ] final   66.86 input  -60.11 | X-H torsion
[ 7974 7965 7964 7962 ] final    1.99 input  175.53 | X-H torsion
[ 8008 7997 7996 7995 ] final  -76.68 input   59.86 | X-H torsion
[ 10167 10162 10161 10158 ] final  117.50 input  -65.29 | X-H torsion
[ 10718 10713 10712 10709 ] final -147.37 input   66.30 | X-H torsion
[ 10763 10752 10751 10750 ] final   84.89 input  -60.55 | X-H torsion
[ 11005 11000 10999 10996 ] final -118.53 input  -57.11 | X-H torsion

> <Gold.Protein.ActiveResidues>
 VAL166  LYS551  ARG553  GLY616  TRP617  ASP618  TYR619  PRO620  LYS621  CYS622 
 ASP623  PHE694  ASN695  SER759  ASP760  ASP761  ALA762  ILE779  LEU786  VAL792 
 PHE793  MET794  SER795  GLU796  ALA797  LYS798  CYS799  TRP800  GLU811  SER814 

> <Gold.Protein.RotatedAtoms>
  152.4511  134.5391  159.9833 H   0  0  0  0  0  0  0  0  0  0  0  0  # atno 6907 bound_to 6896
  151.5463  133.3419  159.2952 H   0  0  0  0  0  0  0  0  0  0  0  0  # atno 6908 bound_to 6896
  150.8441  134.7775  159.7019 H   0  0  0  0  0  0  0  0  0  0  0  0  # atno 6909 bound_to 6896
  146.2442  140.0904  142.8352 H   0  0  0  0  0  0  0  0  0  0  0  0  # atno 7974 bound_to 7965
  154.5527  140.0723  156.8694 H   0  0  0  0  0  0  0  0  0  0  0  0  # atno 8008 bound_to 7997
  155.2962  140.3381  155.4232 H   0  0  0  0  0  0  0  0  0  0  0  0  # atno 8009 bound_to 7997
  156.1975  140.1709  156.7953 H   0  0  0  0  0  0  0  0  0  0  0  0  # atno 8010 bound_to 7997
  139.6174  144.7094  151.2708 H   0  0  0  0  0  0  0  0  0  0  0  0  # atno 10167 bound_to 10162
  156.4066  130.7960  151.2175 H   0  0  0  0  0  0  0  0  0  0  0  0  # atno 10718 bound_to 10713
  153.1424  135.4637  154.9515 H   0  0  0  0  0  0  0  0  0  0  0  0  # atno 10763 bound_to 10752
  154.7758  135.3173  154.8097 H   0  0  0  0  0  0  0  0  0  0  0  0  # atno 10764 bound_to 10752
  153.8618  135.6912  153.4836 H   0  0  0  0  0  0  0  0  0  0  0  0  # atno 10765 bound_to 10752
  141.0279  134.0025  157.3186 H   0  0  0  0  0  0  0  0  0  0  0  0  # atno 11005 bound_to 11000
  145.0655  140.9118  143.4913 LP  0  0  0  0  0  0  0  0  0  0  0  0  # atno 17320 bound_to 7965
  145.1028  139.2811  143.5677 LP  0  0  0  0  0  0  0  0  0  0  0  0  # atno 17321 bound_to 7965
  140.7360  143.6720  150.8074 LP  0  0  0  0  0  0  0  0  0  0  0  0  # atno 17342 bound_to 10162
  140.0325  143.5429  152.2754 LP  0  0  0  0  0  0  0  0  0  0  0  0  # atno 17343 bound_to 10162
  157.7506  131.0270  150.3988 LP  0  0  0  0  0  0  0  0  0  0  0  0  # atno 17370 bound_to 10713
  156.4278  130.3966  149.6781 LP  0  0  0  0  0  0  0  0  0  0  0  0  # atno 17371 bound_to 10713
  139.9188  135.0199  156.7986 LP  0  0  0  0  0  0  0  0  0  0  0  0  # atno 17394 bound_to 11000
  140.6458  133.9776  155.7730 LP  0  0  0  0  0  0  0  0  0  0  0  0  # atno 17395 bound_to 11000

$$$$
