AV-unprocessed.smi:3019|AV-procd|sdf|11489|dock1
  -GOLD-   2272016423D 1   1.00000     0.00000
 Structure written by MMmdl.
 30 31  0  0  0  0  0  0  0  0  1 V2000
  152.3830  144.2549  159.9275 C   0  0  0  0  0  0  0  0  0  0  0  0
  152.1617  142.8224  160.4351 C   0  0  0  0  0  0  0  0  0  0  0  0
  153.0523  142.4953  161.6426 C   0  0  0  0  0  0  0  0  0  0  0  0
  152.3278  141.8151  159.3388 C   0  0  0  0  0  0  0  0  0  0  0  0
  153.1627  140.7785  159.4419 N   0  0  0  0  0  0  0  0  0  0  0  0
  153.1165  140.0506  158.3062 N   0  0  0  0  0  0  0  0  0  0  0  0
  152.2150  140.7163  157.5852 C   0  0  0  0  0  0  0  0  0  0  0  0
  151.8683  140.2809  156.1953 C   0  0  2  0  0  0  0  0  0  0  0  0
  150.6316  141.0211  155.6485 C   0  0  0  0  0  0  0  0  0  0  0  0
  150.2646  140.4935  154.3352 N   0  0  0  0  0  0  0  0  0  0  0  0
  150.0623  139.0463  154.3874 C   0  0  0  0  0  0  0  0  0  0  0  0
  151.3083  138.3514  154.9660 C   0  0  0  0  0  0  0  0  0  0  0  0
  151.5959  138.8823  156.2550 O   0  0  0  0  0  0  0  0  0  0  0  0
  151.6977  141.8410  158.1687 N   0  0  0  0  0  0  0  0  0  0  0  0
  151.6990  144.4924  159.1121 H   0  0  0  0  0  0  0  0  0  0  0  0
  153.4003  144.3925  159.5589 H   0  0  0  0  0  0  0  0  0  0  0  0
  152.2163  144.9835  160.7213 H   0  0  0  0  0  0  0  0  0  0  0  0
  151.1270  142.7619  160.7763 H   0  0  0  0  0  0  0  0  0  0  0  0
  152.8404  141.4971  162.0269 H   0  0  0  0  0  0  0  0  0  0  0  0
  152.8887  143.2037  162.4550 H   0  0  0  0  0  0  0  0  0  0  0  0
  154.1096  142.5322  161.3773 H   0  0  0  0  0  0  0  0  0  0  0  0
  152.7301  140.4547  155.5474 H   0  0  0  0  0  0  0  0  0  0  0  0
  149.7958  140.9021  156.3392 H   0  0  0  0  0  0  0  0  0  0  0  0
  150.8323  142.0906  155.5801 H   0  0  0  0  0  0  0  0  0  0  0  0
  149.1943  138.8153  155.0061 H   0  0  0  0  0  0  0  0  0  0  0  0
  149.8477  138.6620  153.3902 H   0  0  0  0  0  0  0  0  0  0  0  0
  151.1313  137.2799  155.0585 H   0  0  0  0  0  0  0  0  0  0  0  0
  152.1680  138.4760  154.3055 H   0  0  0  0  0  0  0  0  0  0  0  0
  149.4139  140.9441  154.0136 H   0  0  0  0  0  0  0  0  0  0  0  0
  153.7590  140.5451  160.2229 H   0  0  0  0  0  0  0  0  0  0  0  0
  1  2  1  0  0  0  0
  1 15  1  0  0  0  0
  1 16  1  0  0  0  0
  1 17  1  0  0  0  0
  2  3  1  0  0  0  0
  2  4  1  0  0  0  0
  2 18  1  0  0  0  0
  3 19  1  0  0  0  0
  3 20  1  0  0  0  0
  3 21  1  0  0  0  0
  4 14  2  0  0  0  0
  4  5  1  0  0  0  0
  5  6  1  0  0  0  0
  5 30  1  0  0  0  0
  6  7  2  0  0  0  0
  7  8  1  0  0  0  0
  7 14  1  0  0  0  0
  8 13  1  0  0  0  0
  8  9  1  0  0  0  0
  8 22  1  0  0  0  0
  9 10  1  0  0  0  0
  9 23  1  0  0  0  0
  9 24  1  0  0  0  0
 10 11  1  0  0  0  0
 10 29  1  0  0  0  0
 11 12  1  0  0  0  0
 11 25  1  0  0  0  0
 11 26  1  0  0  0  0
 12 13  1  0  0  0  0
 12 27  1  0  0  0  0
 12 28  1  0  0  0  0
M  END
> <s_m_source_file>
AV-unprocessed.smi

> <i_m_source_file_index>
3019

> <i_lp_mmshare_version>
43012

> <i_f3d_flags>
0

> <s_epik_input>
W0NIM11bQ0hdKFtDSDNdKWMxbltuSF1jKG4xKVtDQEBIXTJbQ0gyXVtOSF1bQ0gyXVtDSDJdTzI=

> <s_epik_cmdline>
J2VwaWtfcHl0aG9uJywgJy1waCcsICc3LjAnLCAnLXRuJywgJzgnLCAnLW1hJywgJzIwMCcsICctbWV0YWxfYmluZGluZycsICctaW1hZScsICc8aW5maWxlLm1hZT4nLCAnLW9tYWUnLCAnPG91dGZpbGUubWFlPic=

> <r_lp_tautomer_probability>
0.948284

> <r_epik_Ionization_Penalty>
1.10045

> <r_epik_Ionization_Penalty_Charging>
0

> <r_epik_Ionization_Penalty_Neutral>
1.10045

> <r_epik_State_Penalty>
1.2625

> <r_epik_Charging_Adjusted_Penalty>
1.2625

> <i_epik_Tot_Q>
0

> <i_epik_Tot_abs_Q>
0

> <r_epik_Metal_State_Penalty>
1.57133

> <b_epik_Metal_Only>
0

> <s_lp_Force_Field>
OPLS_2005

> <r_lp_Energy>
11.1222

> <b_lp_Chiralities_Consistent>
1

> <s_lp_Variant>
AV-unprocessed.smi:3019-5

> <Gold.Version>
5.8.1

> <Gold.Id.Protein>
6NUR|6NUR_protein|mol2

> <Gold.PLP.Fitness>
34.6339

> <Gold.PLP.PLP>
-29.4746

> <Gold.PLP.part.hbond>
-2.1202

> <Gold.PLP.part.metal>
0.0000

> <Gold.PLP.part.buried>
-3.5464

> <Gold.PLP.part.nonpolar>
-22.7619

> <Gold.PLP.part.repulsive>
0.1067

> <Gold.PLP.ligand.clash>
0.0000

> <Gold.PLP.ligand.torsion>
0.3153

> <Gold.PLP.Chemscore.Hbond>
1.9120

> <Gold.PLP.Chemscore.CHOScore>
0.0000

> <Gold.PLP.Chemscore.Metal>
0.0000

> <Gold.Chemscore.Hbonds>
donor molecule, donor type, donor heavy atom, donor atom, acceptor molecule, acceptor atom, score
      P1  H  7989  7998       L1    10  0.91
      P1  H  7997  8010       L1     6  1.00

> <Gold.PLP.Chemscore.Internal.Correction>
0.0539

> <Gold.Rescore>
     Score         DG    S(hbond)    S(metal)    S(lipo)     H(rot)  DE(clash)    DE(int)     intcor
     11.82     -12.40       0.76        0.00      64.96       1.26       0.22       0.35       ----

> <Gold.Chemscore.Fitness>
11.8244

> <Gold.Chemscore.DG>
-12.3955

> <Gold.Chemscore.ZeroCoef>
-5.4800

> <Gold.Chemscore.Hbond>
0.7605

> <Gold.Chemscore.Metal>
0.0000

> <Gold.Chemscore.Lipo>
64.9618

> <Gold.Chemscore.Internal_Hbond>
0.0000

> <Gold.Chemscore.DEClash>
0.2168

> <Gold.Chemscore.DEInternal>
0.3543

> <Gold.Chemscore.Rot>
1.2598

> <Gold.Chemscore.Internal.Correction>
   9.000000E+99

> <Gold.Chemscore.Hbonds>
donor molecule, donor type, donor heavy atom, donor atom, acceptor molecule, acceptor atom, score
      P1  H  7989  7998       L1    10  0.17
      P1  H  7997  8010       L1     6  0.24

> <Gold.Chemscore.Hbond.Weighted>
-2.5401

> <Gold.Chemscore.Metal.Weighted>
-0.0000

> <Gold.Chemscore.Lipo.Weighted>
-7.6005

> <Gold.Chemscore.Internal_Hbond.Weighted>
0.0000

> <Gold.Chemscore.DEClash.Weighted>
0.2168

> <Gold.Chemscore.DEInternal.Weighted>
0.3543

> <Gold.Chemscore.Rot.Weighted>
3.2251

> <Gold.Chemscore.Internal.Correction.Weighted>
   9.000000E+99

> <Gold.Protein.RotatedTorsions>
[ 6907 6896 6895 6894 ] final   85.37 input  -60.11 | X-H torsion
[ 7974 7965 7964 7962 ] final -126.61 input  175.53 | X-H torsion
[ 8008 7997 7996 7995 ] final   32.26 input   59.86 | X-H torsion
[ 10167 10162 10161 10158 ] final  160.48 input  -65.29 | X-H torsion
[ 10718 10713 10712 10709 ] final -124.24 input   66.30 | X-H torsion
[ 10763 10752 10751 10750 ] final -130.41 input  -60.55 | X-H torsion
[ 11005 11000 10999 10996 ] final  -49.52 input  -57.11 | X-H torsion

> <Gold.Protein.ActiveResidues>
 VAL166  LYS551  ARG553  GLY616  TRP617  ASP618  TYR619  PRO620  LYS621  CYS622 
 ASP623  PHE694  ASN695  SER759  ASP760  ASP761  ALA762  ILE779  LEU786  VAL792 
 PHE793  MET794  SER795  GLU796  ALA797  LYS798  CYS799  TRP800  GLU811  SER814 

> <Gold.Protein.RotatedAtoms>
  152.5373  134.2596  159.8930 H   0  0  0  0  0  0  0  0  0  0  0  0  # atno 6907 bound_to 6896
  151.2557  133.4321  159.2621 H   0  0  0  0  0  0  0  0  0  0  0  0  # atno 6908 bound_to 6896
  151.0499  134.9680  159.8262 H   0  0  0  0  0  0  0  0  0  0  0  0  # atno 6909 bound_to 6896
  144.9855  140.7682  143.4586 H   0  0  0  0  0  0  0  0  0  0  0  0  # atno 7974 bound_to 7965
  155.1196  140.3247  155.4501 H   0  0  0  0  0  0  0  0  0  0  0  0  # atno 8008 bound_to 7997
  156.2667  140.2029  156.6266 H   0  0  0  0  0  0  0  0  0  0  0  0  # atno 8009 bound_to 7997
  154.6694  140.0538  157.0136 H   0  0  0  0  0  0  0  0  0  0  0  0  # atno 8010 bound_to 7997
  139.4840  144.4630  151.8679 H   0  0  0  0  0  0  0  0  0  0  0  0  # atno 10167 bound_to 10162
  156.1571  130.6575  150.9997 H   0  0  0  0  0  0  0  0  0  0  0  0  # atno 10718 bound_to 10713
  154.8755  135.3863  154.4078 H   0  0  0  0  0  0  0  0  0  0  0  0  # atno 10763 bound_to 10752
  153.4795  135.7030  153.5951 H   0  0  0  0  0  0  0  0  0  0  0  0  # atno 10764 bound_to 10752
  153.4373  135.3864  155.2174 H   0  0  0  0  0  0  0  0  0  0  0  0  # atno 10765 bound_to 10752
  141.0764  133.6665  156.3597 H   0  0  0  0  0  0  0  0  0  0  0  0  # atno 11005 bound_to 11000
  145.2359  139.2094  143.5018 LP  0  0  0  0  0  0  0  0  0  0  0  0  # atno 17320 bound_to 7965
  146.3419  140.2245  142.8592 LP  0  0  0  0  0  0  0  0  0  0  0  0  # atno 17321 bound_to 7965
  140.4094  144.2389  150.5889 LP  0  0  0  0  0  0  0  0  0  0  0  0  # atno 17342 bound_to 10162
  140.4981  143.2326  151.8719 LP  0  0  0  0  0  0  0  0  0  0  0  0  # atno 17343 bound_to 10162
  157.6703  131.0863  150.7628 LP  0  0  0  0  0  0  0  0  0  0  0  0  # atno 17370 bound_to 10713
  156.7692  130.4823  149.5421 LP  0  0  0  0  0  0  0  0  0  0  0  0  # atno 17371 bound_to 10713
  140.5565  134.5977  157.5422 LP  0  0  0  0  0  0  0  0  0  0  0  0  # atno 17394 bound_to 11000
  139.9576  134.7508  156.0307 LP  0  0  0  0  0  0  0  0  0  0  0  0  # atno 17395 bound_to 11000

$$$$
