AV-unprocessed.smi:3112|AV-procd|sdf|11842|dock4
  -GOLD-   2272017223D 1   1.00000     0.00000
 Structure written by MMmdl.
 37 37  0  0  0  0  0  0  0  0  2 V2000
  145.2389  135.6628  150.7412 C   0  0  0  0  0  0  0  0  0  0  0  0
  145.9590  137.0059  150.9238 C   0  0  0  0  0  0  0  0  0  0  0  0
  145.7768  137.6138  152.3268 C   0  0  2  0  0  0  0  0  0  0  0  0
  144.4062  137.8991  152.5281 O   0  0  0  0  0  0  0  0  0  0  0  0
  146.5723  138.9192  152.4950 C   0  0  0  0  0  0  0  0  0  0  0  0
  147.9964  138.6434  152.7821 N   0  3  0  0  0  0  0  0  0  0  0  0
  148.4717  139.0736  154.1172 C   0  0  1  0  0  0  0  0  0  0  0  0
  149.5973  138.1374  154.6062 C   0  0  0  0  0  0  0  0  0  0  0  0
  148.9038  140.5626  154.0610 C   0  0  1  0  0  0  0  0  0  0  0  0
  147.7028  141.5265  154.0259 C   0  0  0  0  0  0  0  0  0  0  0  0
  149.7905  140.9182  155.1625 N   0  0  0  0  0  0  0  0  0  0  0  0
  149.5408  141.7411  156.2433 C   0  0  0  0  0  0  0  0  0  0  0  0
  150.6680  141.7575  157.0135 C   0  0  0  0  0  0  0  0  0  0  0  0
  151.5658  140.9020  156.3165 C   0  0  0  0  0  0  0  0  0  0  0  0
  151.0376  140.4005  155.2118 N   0  0  0  0  0  0  0  0  0  0  0  0
  145.4300  135.2537  149.7488 H   0  0  0  0  0  0  0  0  0  0  0  0
  144.1594  135.7700  150.8501 H   0  0  0  0  0  0  0  0  0  0  0  0
  145.5795  134.9297  151.4731 H   0  0  0  0  0  0  0  0  0  0  0  0
  147.0223  136.8500  150.7371 H   0  0  0  0  0  0  0  0  0  0  0  0
  145.6185  137.7098  150.1630 H   0  0  0  0  0  0  0  0  0  0  0  0
  146.0998  136.8901  153.0770 H   0  0  0  0  0  0  0  0  0  0  0  0
  144.0087  138.0756  151.6884 H   0  0  0  0  0  0  0  0  0  0  0  0
  146.5166  139.5024  151.5747 H   0  0  0  0  0  0  0  0  0  0  0  0
  146.1314  139.5282  153.2846 H   0  0  0  0  0  0  0  0  0  0  0  0
  148.1695  137.6538  152.6756 H   0  0  0  0  0  0  0  0  0  0  0  0
  147.6387  138.9962  154.8180 H   0  0  0  0  0  0  0  0  0  0  0  0
  149.9156  138.3801  155.6200 H   0  0  0  0  0  0  0  0  0  0  0  0
  150.4733  138.2052  153.9599 H   0  0  0  0  0  0  0  0  0  0  0  0
  149.2805  137.0951  154.6241 H   0  0  0  0  0  0  0  0  0  0  0  0
  149.4646  140.7108  153.1356 H   0  0  0  0  0  0  0  0  0  0  0  0
  147.0796  141.3604  153.1472 H   0  0  0  0  0  0  0  0  0  0  0  0
  148.0365  142.5643  153.9918 H   0  0  0  0  0  0  0  0  0  0  0  0
  147.0701  141.4110  154.9064 H   0  0  0  0  0  0  0  0  0  0  0  0
  148.5922  142.2406  156.3739 H   0  0  0  0  0  0  0  0  0  0  0  0
  150.8270  142.2976  157.9351 H   0  0  0  0  0  0  0  0  0  0  0  0
  152.5781  140.6317  156.5792 H   0  0  0  0  0  0  0  0  0  0  0  0
  148.5402  139.1374  152.0891 H   0  0  0  0  0  0  0  0  0  0  0  0
  1  2  1  0  0  0  0
  1 16  1  0  0  0  0
  1 17  1  0  0  0  0
  1 18  1  0  0  0  0
  2  3  1  0  0  0  0
  2 19  1  0  0  0  0
  2 20  1  0  0  0  0
  3  4  1  0  0  0  0
  3  5  1  0  0  0  0
  3 21  1  0  0  0  0
  4 22  1  0  0  0  0
  5  6  1  0  0  0  0
  5 23  1  0  0  0  0
  5 24  1  0  0  0  0
  6  7  1  0  0  0  0
  6 25  1  0  0  0  0
  6 37  1  0  0  0  0
  7  8  1  0  0  0  0
  7  9  1  0  0  0  0
  7 26  1  0  0  0  0
  8 27  1  0  0  0  0
  8 28  1  0  0  0  0
  8 29  1  0  0  0  0
  9 10  1  0  0  0  0
  9 11  1  0  0  0  0
  9 30  1  0  0  0  0
 10 31  1  0  0  0  0
 10 32  1  0  0  0  0
 10 33  1  0  0  0  0
 11 15  1  0  0  0  0
 11 12  1  0  0  0  0
 12 13  2  0  0  0  0
 12 34  1  0  0  0  0
 13 14  1  0  0  0  0
 13 35  1  0  0  0  0
 14 15  2  0  0  0  0
 14 36  1  0  0  0  0
M  CHG  1   6   1
M  END
> <s_m_source_file>
AV-unprocessed.smi

> <i_m_source_file_index>
3112

> <i_lp_mmshare_version>
43012

> <i_f3d_flags>
0

> <s_epik_input>
W0NIM11bQ0gyXVtDQEhdKFtPSF0pW0NIMl1bTkhdW0NASF0oW0NIM10pW0NASF0oW0NIM10pbjFbY0hdW2NIXVtjSF1uMQ==

> <s_epik_cmdline>
J2VwaWtfcHl0aG9uJywgJy1waCcsICc3LjAnLCAnLXRuJywgJzgnLCAnLW1hJywgJzIwMCcsICctbWV0YWxfYmluZGluZycsICctaW1hZScsICc8aW5maWxlLm1hZT4nLCAnLW9tYWUnLCAnPG91dGZpbGUubWFlPic=

> <r_lp_tautomer_probability>
1

> <r_epik_Ionization_Penalty>
0.0154842

> <r_epik_Ionization_Penalty_Charging>
0.0154724

> <r_epik_Ionization_Penalty_Neutral>
1.17979e-05

> <r_epik_State_Penalty>
0.0121607

> <r_epik_Charging_Adjusted_Penalty>
0.0276331

> <i_epik_Tot_Q>
1

> <i_epik_Tot_abs_Q>
1

> <r_epik_Metal_State_Penalty>
0.0121863

> <b_epik_Metal_Only>
0

> <s_lp_Force_Field>
OPLS_2005

> <r_lp_Energy>
13.0446

> <b_lp_Chiralities_Consistent>
1

> <s_lp_Variant>
AV-unprocessed.smi:3112-7

> <Gold.Version>
5.8.1

> <Gold.Id.Protein>
6NUR|6NUR_protein|mol2

> <Gold.PLP.Fitness>
45.7857

> <Gold.PLP.PLP>
-31.8983

> <Gold.PLP.part.hbond>
-5.0000

> <Gold.PLP.part.metal>
0.0000

> <Gold.PLP.part.buried>
1.6853

> <Gold.PLP.part.nonpolar>
-29.2162

> <Gold.PLP.part.repulsive>
0.1044

> <Gold.PLP.ligand.clash>
0.0000

> <Gold.PLP.ligand.torsion>
1.5086

> <Gold.PLP.Chemscore.Hbond>
5.0000

> <Gold.PLP.Chemscore.CHOScore>
0.5848

> <Gold.PLP.Chemscore.Metal>
0.0000

> <Gold.Chemscore.Hbonds>
donor molecule, donor type, donor heavy atom, donor atom, acceptor molecule, acceptor atom, score
      L1  H     4    22       P1 10171  1.00
      L1  H     6    25       P1  7948  2.00
      L1  H     6    37       P1  7957  1.00
      P1  H  7989  7998       L1    15  1.00
      L1  C    12    34       P1  8028  0.49

> <Gold.PLP.Chemscore.Internal.Correction>
0.1500

> <Gold.Rescore>
     Score         DG    S(hbond)    S(metal)    S(lipo)     H(rot)  DE(clash)    DE(int)     intcor
     16.47     -20.93       3.80        0.00      76.20       2.41       1.32       3.14       ----

> <Gold.Chemscore.Fitness>
16.4735

> <Gold.Chemscore.DG>
-20.9263

> <Gold.Chemscore.ZeroCoef>
-5.4800

> <Gold.Chemscore.Hbond>
3.8018

> <Gold.Chemscore.Metal>
0.0000

> <Gold.Chemscore.Lipo>
76.1975

> <Gold.Chemscore.Internal_Hbond>
0.0000

> <Gold.Chemscore.DEClash>
1.3167

> <Gold.Chemscore.DEInternal>
3.1361

> <Gold.Chemscore.Rot>
2.4089

> <Gold.Chemscore.Internal.Correction>
   9.000000E+99

> <Gold.Chemscore.Hbonds>
donor molecule, donor type, donor heavy atom, donor atom, acceptor molecule, acceptor atom, score
      L1  H     4    22       P1 10171  0.99
      L1  H     6    25       P1  7948  0.95
      L1  H     6    37       P1  7957  0.99
      P1  H  7989  7998       L1    15  0.24

> <Gold.Chemscore.Hbond.Weighted>
-12.6979

> <Gold.Chemscore.Metal.Weighted>
-0.0000

> <Gold.Chemscore.Lipo.Weighted>
-8.9151

> <Gold.Chemscore.Internal_Hbond.Weighted>
0.0000

> <Gold.Chemscore.DEClash.Weighted>
1.3167

> <Gold.Chemscore.DEInternal.Weighted>
3.1361

> <Gold.Chemscore.Rot.Weighted>
6.1667

> <Gold.Chemscore.Internal.Correction.Weighted>
   9.000000E+99

> <Gold.Protein.RotatedTorsions>
[ 6907 6896 6895 6894 ] final   48.99 input  -60.11 | X-H torsion
[ 7974 7965 7964 7962 ] final -118.12 input  175.53 | X-H torsion
[ 8008 7997 7996 7995 ] final   33.63 input   59.86 | X-H torsion
[ 10167 10162 10161 10158 ] final  167.31 input  -65.29 | X-H torsion
[ 10718 10713 10712 10709 ] final  -59.12 input   66.30 | X-H torsion
[ 10763 10752 10751 10750 ] final -120.63 input  -60.55 | X-H torsion
[ 11005 11000 10999 10996 ] final   61.81 input  -57.11 | X-H torsion

> <Gold.Protein.ActiveResidues>
 VAL166  LYS551  ARG553  GLY616  TRP617  ASP618  TYR619  PRO620  LYS621  CYS622 
 ASP623  PHE694  ASN695  SER759  ASP760  ASP761  ALA762  ILE779  LEU786  VAL792 
 PHE793  MET794  SER795  GLU796  ALA797  LYS798  CYS799  TRP800  GLU811  SER814 

> <Gold.Protein.RotatedAtoms>
  152.2857  134.7778  160.0387 H   0  0  0  0  0  0  0  0  0  0  0  0  # atno 6907 bound_to 6896
  151.8342  133.3408  159.3631 H   0  0  0  0  0  0  0  0  0  0  0  0  # atno 6908 bound_to 6896
  150.7208  134.5383  159.5778 H   0  0  0  0  0  0  0  0  0  0  0  0  # atno 6909 bound_to 6896
  145.0774  140.8402  143.4059 H   0  0  0  0  0  0  0  0  0  0  0  0  # atno 7974 bound_to 7965
  155.1417  140.3267  155.4450 H   0  0  0  0  0  0  0  0  0  0  0  0  # atno 8008 bound_to 7997
  156.2602  140.1992  156.6482 H   0  0  0  0  0  0  0  0  0  0  0  0  # atno 8009 bound_to 7997
  154.6537  140.0555  156.9971 H   0  0  0  0  0  0  0  0  0  0  0  0  # atno 8010 bound_to 7997
  139.4942  144.3935  151.9490 H   0  0  0  0  0  0  0  0  0  0  0  0  # atno 10167 bound_to 10162
  156.1085  130.4177  150.0671 H   0  0  0  0  0  0  0  0  0  0  0  0  # atno 10718 bound_to 10713
  154.8649  135.4196  154.2491 H   0  0  0  0  0  0  0  0  0  0  0  0  # atno 10763 bound_to 10752
  153.3441  135.6995  153.6848 H   0  0  0  0  0  0  0  0  0  0  0  0  # atno 10764 bound_to 10752
  153.5815  135.3572  155.2849 H   0  0  0  0  0  0  0  0  0  0  0  0  # atno 10765 bound_to 10752
  140.0135  134.6260  155.9744 H   0  0  0  0  0  0  0  0  0  0  0  0  # atno 11005 bound_to 11000
  145.1219  139.2688  143.5584 LP  0  0  0  0  0  0  0  0  0  0  0  0  # atno 17320 bound_to 7965
  146.3530  140.0846  142.8616 LP  0  0  0  0  0  0  0  0  0  0  0  0  # atno 17321 bound_to 7965
  140.3373  144.3245  150.5974 LP  0  0  0  0  0  0  0  0  0  0  0  0  # atno 17342 bound_to 10162
  140.5595  143.2194  151.7789 LP  0  0  0  0  0  0  0  0  0  0  0  0  # atno 17343 bound_to 10162
  156.8640  130.9501  151.3615 LP  0  0  0  0  0  0  0  0  0  0  0  0  # atno 17370 bound_to 10713
  157.6264  130.8695  149.9197 LP  0  0  0  0  0  0  0  0  0  0  0  0  # atno 17371 bound_to 10713
  141.1727  133.6538  156.4712 LP  0  0  0  0  0  0  0  0  0  0  0  0  # atno 17394 bound_to 11000
  140.4512  134.6927  157.5040 LP  0  0  0  0  0  0  0  0  0  0  0  0  # atno 17395 bound_to 11000

$$$$
