AV-unprocessed.smi:100|AV-procd|sdf|907|dock7
  -GOLD-   2262017403D 1   1.00000     0.00000
 Structure written by MMmdl.
 31 33  0  0  0  0  0  0  0  0  1 V2000
  143.2695  138.3553  155.4382 N   0  0  0  0  0  0  0  0  0  0  0  0
  143.3363  137.2762  154.6460 C   0  0  0  0  0  0  0  0  0  0  0  0
  142.4286  136.2885  154.8268 N   0  0  0  0  0  0  0  0  0  0  0  0
  142.4736  135.2033  154.0474 C   0  0  0  0  0  0  0  0  0  0  0  0
  143.3240  134.9207  153.0572 N   0  0  0  0  0  0  0  0  0  0  0  0
  144.2415  135.9159  152.8778 C   0  0  0  0  0  0  0  0  0  0  0  0
  144.3120  137.1224  153.6287 C   0  0  0  0  0  0  0  0  0  0  0  0
  145.3644  137.9042  153.1723 N   0  0  0  0  0  0  0  0  0  0  0  0
  145.8845  137.1957  152.2065 C   0  0  0  0  0  0  0  0  0  0  0  0
  145.2752  135.9834  151.9643 N   0  0  0  0  0  0  0  0  0  0  0  0
  145.6556  134.9643  150.9337 C   0  0  2  0  0  0  0  0  0  0  0  0
  144.5122  134.2618  150.5536 O   0  0  0  0  0  0  0  0  0  0  0  0
  144.8666  132.9023  150.3245 C   0  0  2  0  0  0  0  0  0  0  0  0
  143.6266  131.9953  150.3653 C   0  0  0  0  0  0  0  0  0  0  0  0
  142.9232  132.0825  149.1441 O   0  0  0  0  0  0  0  0  0  0  0  0
  145.8849  132.6342  151.4359 C   0  0  2  0  0  0  0  0  0  0  0  0
  145.2436  132.4503  152.5924 F   0  0  0  0  0  0  0  0  0  0  0  0
  146.6817  133.9314  151.4472 C   0  0  2  0  0  0  0  0  0  0  0  0
  147.2614  134.2040  152.7111 O   0  0  0  0  0  0  0  0  0  0  0  0
  143.9354  139.1054  155.3220 H   0  0  0  0  0  0  0  0  0  0  0  0
  142.5527  138.4170  156.1464 H   0  0  0  0  0  0  0  0  0  0  0  0
  141.7217  134.4535  154.2441 H   0  0  0  0  0  0  0  0  0  0  0  0
  146.7386  137.5396  151.6414 H   0  0  0  0  0  0  0  0  0  0  0  0
  146.0333  135.5495  150.0938 H   0  0  0  0  0  0  0  0  0  0  0  0
  145.3714  132.8198  149.3598 H   0  0  0  0  0  0  0  0  0  0  0  0
  143.9265  130.9552  150.4955 H   0  0  0  0  0  0  0  0  0  0  0  0
  142.9735  132.2523  151.2001 H   0  0  0  0  0  0  0  0  0  0  0  0
  142.3015  132.7917  149.2050 H   0  0  0  0  0  0  0  0  0  0  0  0
  146.4997  131.7519  151.2563 H   0  0  0  0  0  0  0  0  0  0  0  0
  147.4790  133.8698  150.7054 H   0  0  0  0  0  0  0  0  0  0  0  0
  147.7748  134.9941  152.6427 H   0  0  0  0  0  0  0  0  0  0  0  0
  1  2  1  0  0  0  0
  1 20  1  0  0  0  0
  1 21  1  0  0  0  0
  2  7  1  0  0  0  0
  2  3  2  0  0  0  0
  3  4  1  0  0  0  0
  4  5  2  0  0  0  0
  4 22  1  0  0  0  0
  5  6  1  0  0  0  0
  6 10  1  0  0  0  0
  6  7  2  0  0  0  0
  7  8  1  0  0  0  0
  8  9  2  0  0  0  0
  9 10  1  0  0  0  0
  9 23  1  0  0  0  0
 10 11  1  0  0  0  0
 11 18  1  0  0  0  0
 11 12  1  0  0  0  0
 11 24  1  0  0  0  0
 12 13  1  0  0  0  0
 13 14  1  0  0  0  0
 13 16  1  0  0  0  0
 13 25  1  0  0  0  0
 14 15  1  0  0  0  0
 14 26  1  0  0  0  0
 14 27  1  0  0  0  0
 15 28  1  0  0  0  0
 16 17  1  0  0  0  0
 16 18  1  0  0  0  0
 16 29  1  0  0  0  0
 18 19  1  0  0  0  0
 18 30  1  0  0  0  0
 19 31  1  0  0  0  0
M  END
> <s_m_source_file>
AV-unprocessed.smi

> <i_m_source_file_index>
100

> <i_lp_mmshare_version>
43012

> <i_f3d_flags>
0

> <s_epik_input>
bjFbY0hdbmMoW05IMl0pYyhjMTIpbltjSF1uMltDQEBIXTNPW0NAQEhdKFtDSDJdW09IXSlbQ0BIXShGKVtDQEhdM1tPSF0=

> <s_epik_cmdline>
J2VwaWtfcHl0aG9uJywgJy1waCcsICc3LjAnLCAnLXRuJywgJzgnLCAnLW1hJywgJzIwMCcsICctbWV0YWxfYmluZGluZycsICctaW1hZScsICc8aW5maWxlLm1hZT4nLCAnLW9tYWUnLCAnPG91dGZpbGUubWFlPic=

> <r_lp_tautomer_probability>
1

> <r_epik_Ionization_Penalty>
0.000750324

> <r_epik_Ionization_Penalty_Charging>
0

> <r_epik_Ionization_Penalty_Neutral>
0.000750324

> <r_epik_State_Penalty>
-0

> <r_epik_Charging_Adjusted_Penalty>
0

> <i_epik_Tot_Q>
0

> <i_epik_Tot_abs_Q>
0

> <r_epik_Metal_State_Penalty>
-0

> <b_epik_Metal_Only>
0

> <s_epik_Chemistry_Notes>
This compound contains an acetal/aminal-like group ( X-CH(R)-Y where X, Y are N, S, or O) that may be acid/base labile, releasing an aldehyde.

> <s_lp_Force_Field>
OPLS_2005

> <r_lp_Energy>
39.5

> <b_lp_Chiralities_Consistent>
1

> <s_lp_Variant>
AV-unprocessed.smi:100-11

> <Gold.Version>
5.8.1

> <Gold.Id.Protein>
6NUR|6NUR_protein|mol2

> <Gold.PLP.Fitness>
37.8429

> <Gold.PLP.PLP>
-26.8556

> <Gold.PLP.part.hbond>
-4.0000

> <Gold.PLP.part.metal>
0.0000

> <Gold.PLP.part.buried>
-5.8512

> <Gold.PLP.part.nonpolar>
-18.5855

> <Gold.PLP.part.repulsive>
0.5259

> <Gold.PLP.ligand.clash>
0.0000

> <Gold.PLP.ligand.torsion>
0.8853

> <Gold.PLP.Chemscore.Hbond>
2.5868

> <Gold.PLP.Chemscore.CHOScore>
1.6637

> <Gold.PLP.Chemscore.Metal>
0.0000

> <Gold.Chemscore.Hbonds>
donor molecule, donor type, donor heavy atom, donor atom, acceptor molecule, acceptor atom, score
      L1  H    15    28       P1 10186  0.83
      L1  H    19    31       P1  7948  1.00
      P1  H 10785 10796       L1    15  0.65
      L1  C     4    22       P1 10957  0.09
      L1  C     4    22       P1 11000  0.32
      L1  C     9    23       P1  7948  0.74

> <Gold.PLP.Chemscore.Internal.Correction>
0.0062

> <Gold.Rescore>
     Score         DG    S(hbond)    S(metal)    S(lipo)     H(rot)  DE(clash)    DE(int)     intcor
      6.06      -8.09       1.95        0.00      36.51       3.19       0.01       2.02       ----

> <Gold.Chemscore.Fitness>
6.0578

> <Gold.Chemscore.DG>
-8.0870

> <Gold.Chemscore.ZeroCoef>
-5.4800

> <Gold.Chemscore.Hbond>
1.9467

> <Gold.Chemscore.Metal>
0.0000

> <Gold.Chemscore.Lipo>
36.5102

> <Gold.Chemscore.Internal_Hbond>
0.0000

> <Gold.Chemscore.DEClash>
0.0118

> <Gold.Chemscore.DEInternal>
2.0175

> <Gold.Chemscore.Rot>
3.1901

> <Gold.Chemscore.Internal.Correction>
   9.000000E+99

> <Gold.Chemscore.Hbonds>
donor molecule, donor type, donor heavy atom, donor atom, acceptor molecule, acceptor atom, score
      L1  H    15    28       P1 10186  0.82
      L1  H    19    31       P1  7948  0.95
      P1  H 10785 10796       L1    15  0.05

> <Gold.Chemscore.Hbond.Weighted>
-6.5020

> <Gold.Chemscore.Metal.Weighted>
-0.0000

> <Gold.Chemscore.Lipo.Weighted>
-4.2717

> <Gold.Chemscore.Internal_Hbond.Weighted>
0.0000

> <Gold.Chemscore.DEClash.Weighted>
0.0118

> <Gold.Chemscore.DEInternal.Weighted>
2.0175

> <Gold.Chemscore.Rot.Weighted>
8.1667

> <Gold.Chemscore.Internal.Correction.Weighted>
   9.000000E+99

> <Gold.Protein.RotatedTorsions>
[ 6907 6896 6895 6894 ] final  144.80 input  -60.11 | X-H torsion
[ 7974 7965 7964 7962 ] final -116.00 input  175.53 | X-H torsion
[ 8008 7997 7996 7995 ] final   37.15 input   59.86 | X-H torsion
[ 10167 10162 10161 10158 ] final  -68.02 input  -65.29 | X-H torsion
[ 10718 10713 10712 10709 ] final -126.28 input   66.30 | X-H torsion
[ 10763 10752 10751 10750 ] final -175.80 input  -60.55 | X-H torsion
[ 11005 11000 10999 10996 ] final  167.51 input  -57.11 | X-H torsion

> <Gold.Protein.ActiveResidues>
 VAL166  LYS551  ARG553  GLY616  TRP617  ASP618  TYR619  PRO620  LYS621  CYS622 
 ASP623  PHE694  ASN695  SER759  ASP760  ASP761  ALA762  ILE779  LEU786  VAL792 
 PHE793  MET794  SER795  GLU796  ALA797  LYS798  CYS799  TRP800  GLU811  SER814 

> <Gold.Protein.RotatedAtoms>
  152.1890  133.4760  159.4997 H   0  0  0  0  0  0  0  0  0  0  0  0  # atno 6907 bound_to 6896
  150.6948  134.1736  159.4231 H   0  0  0  0  0  0  0  0  0  0  0  0  # atno 6908 bound_to 6896
  151.9650  135.0104  160.0600 H   0  0  0  0  0  0  0  0  0  0  0  0  # atno 6909 bound_to 6896
  145.1019  140.8557  143.3921 H   0  0  0  0  0  0  0  0  0  0  0  0  # atno 7974 bound_to 7965
  155.1990  140.3314  155.4346 H   0  0  0  0  0  0  0  0  0  0  0  0  # atno 8008 bound_to 7997
  156.2414  140.1897  156.7028 H   0  0  0  0  0  0  0  0  0  0  0  0  # atno 8009 bound_to 7997
  154.6154  140.0603  156.9533 H   0  0  0  0  0  0  0  0  0  0  0  0  # atno 8010 bound_to 7997
  140.5539  143.2312  151.6859 H   0  0  0  0  0  0  0  0  0  0  0  0  # atno 10167 bound_to 10162
  156.1751  130.6694  151.0231 H   0  0  0  0  0  0  0  0  0  0  0  0  # atno 10718 bound_to 10713
  154.5800  135.2835  155.0742 H   0  0  0  0  0  0  0  0  0  0  0  0  # atno 10763 bound_to 10752
  154.2082  135.6412  153.5111 H   0  0  0  0  0  0  0  0  0  0  0  0  # atno 10764 bound_to 10752
  153.0085  135.5485  154.6451 H   0  0  0  0  0  0  0  0  0  0  0  0  # atno 10765 bound_to 10752
  140.2776  134.7776  157.3730 H   0  0  0  0  0  0  0  0  0  0  0  0  # atno 11005 bound_to 11000
  145.0946  139.2866  143.5717 LP  0  0  0  0  0  0  0  0  0  0  0  0  # atno 17320 bound_to 7965
  146.3529  140.0494  142.8637 LP  0  0  0  0  0  0  0  0  0  0  0  0  # atno 17321 bound_to 7965
  139.5039  144.3773  152.0411 LP  0  0  0  0  0  0  0  0  0  0  0  0  # atno 17342 bound_to 10162
  140.2893  144.3772  150.6094 LP  0  0  0  0  0  0  0  0  0  0  0  0  # atno 17343 bound_to 10162
  157.6830  131.0833  150.7319 LP  0  0  0  0  0  0  0  0  0  0  0  0  # atno 17370 bound_to 10713
  156.7377  130.4729  149.5485 LP  0  0  0  0  0  0  0  0  0  0  0  0  # atno 17371 bound_to 10713
  140.1314  134.5090  155.8103 LP  0  0  0  0  0  0  0  0  0  0  0  0  # atno 17394 bound_to 11000
  141.2168  133.6791  156.7046 LP  0  0  0  0  0  0  0  0  0  0  0  0  # atno 17395 bound_to 11000

$$$$
