AV-unprocessed.smi:388|AV-procd|sdf|2475|dock1
  -GOLD-   2262022413D 1   1.00000     0.00000
 Structure written by MMmdl.
 34 35  0  0  0  0  0  0  0  0  1 V2000
  148.3225  132.9113  153.8870 C   0  0  0  0  0  0  0  0  0  0  0  0
  148.8146  134.2803  153.8836 N   0  0  0  0  0  0  0  0  0  0  0  0
  149.4684  134.8486  154.9059 C   0  0  0  0  0  0  0  0  0  0  0  0
  149.4917  134.3710  156.0423 O   0  0  0  0  0  0  0  0  0  0  0  0
  150.0744  135.9864  154.5181 N   0  0  0  0  0  0  0  0  0  0  0  0
  150.7424  136.8685  155.2893 C   0  0  0  0  0  0  0  0  0  0  0  0
  150.9229  136.7581  156.5034 O   0  0  0  0  0  0  0  0  0  0  0  0
  151.3030  138.0940  154.5575 C   0  0  0  0  0  0  0  0  0  0  0  0
  150.6714  139.3401  154.9693 N   0  0  0  0  0  0  0  0  0  0  0  0
  149.3953  139.6506  154.4316 C   0  0  0  0  0  0  0  0  0  0  0  0
  148.8168  138.8961  153.6470 O   0  0  0  0  0  0  0  0  0  0  0  0
  148.8375  140.9209  154.8906 C   0  0  0  0  0  0  0  0  0  0  0  0
  147.5788  141.3113  154.3475 C   0  0  0  0  0  0  0  0  0  0  0  0
  146.5653  141.6489  153.9021 N   0  0  0  0  0  0  0  0  0  0  0  0
  149.4931  141.6875  155.7885 C   0  0  0  0  0  0  0  0  0  0  0  0
  150.7055  141.3243  156.3377 N   0  0  0  0  0  0  0  0  0  0  0  0
  151.4409  142.2197  157.1859 C   0  0  0  0  0  0  0  0  0  0  0  0
  151.9099  141.7670  158.5553 C   0  0  0  0  0  0  0  0  0  0  0  0
  150.7773  142.7569  158.4354 C   0  0  0  0  0  0  0  0  0  0  0  0
  151.3604  140.1504  155.9052 C   0  0  0  0  0  0  0  0  0  0  0  0
  152.4807  139.8504  156.3263 O   0  0  0  0  0  0  0  0  0  0  0  0
  147.8435  132.6862  152.9340 H   0  0  0  0  0  0  0  0  0  0  0  0
  147.5885  132.7654  154.6805 H   0  0  0  0  0  0  0  0  0  0  0  0
  149.1398  132.2039  154.0333 H   0  0  0  0  0  0  0  0  0  0  0  0
  148.6441  134.8291  153.0533 H   0  0  0  0  0  0  0  0  0  0  0  0
  150.0146  136.2130  153.5361 H   0  0  0  0  0  0  0  0  0  0  0  0
  152.3776  138.1913  154.7210 H   0  0  0  0  0  0  0  0  0  0  0  0
  151.1949  137.9934  153.4765 H   0  0  0  0  0  0  0  0  0  0  0  0
  149.0474  142.6216  156.0990 H   0  0  0  0  0  0  0  0  0  0  0  0
  152.0999  142.9129  156.6661 H   0  0  0  0  0  0  0  0  0  0  0  0
  151.6558  140.7602  158.8818 H   0  0  0  0  0  0  0  0  0  0  0  0
  152.8705  142.1403  158.9038 H   0  0  0  0  0  0  0  0  0  0  0  0
  150.9824  143.7902  158.7075 H   0  0  0  0  0  0  0  0  0  0  0  0
  149.7782  142.4008  158.6799 H   0  0  0  0  0  0  0  0  0  0  0  0
  1  2  1  0  0  0  0
  1 22  1  0  0  0  0
  1 23  1  0  0  0  0
  1 24  1  0  0  0  0
  2  3  1  0  0  0  0
  2 25  1  0  0  0  0
  3  4  2  0  0  0  0
  3  5  1  0  0  0  0
  5  6  1  0  0  0  0
  5 26  1  0  0  0  0
  6  7  2  0  0  0  0
  6  8  1  0  0  0  0
  8  9  1  0  0  0  0
  8 27  1  0  0  0  0
  8 28  1  0  0  0  0
  9 20  1  0  0  0  0
  9 10  1  0  0  0  0
 10 11  2  0  0  0  0
 10 12  1  0  0  0  0
 12 13  1  0  0  0  0
 12 15  2  0  0  0  0
 13 14  3  0  0  0  0
 15 16  1  0  0  0  0
 15 29  1  0  0  0  0
 16 17  1  0  0  0  0
 16 20  1  0  0  0  0
 17 19  1  0  0  0  0
 17 18  1  0  0  0  0
 17 30  1  0  0  0  0
 18 19  1  0  0  0  0
 18 31  1  0  0  0  0
 18 32  1  0  0  0  0
 19 33  1  0  0  0  0
 19 34  1  0  0  0  0
 20 21  2  0  0  0  0
M  END
> <s_m_source_file>
AV-unprocessed.smi

> <i_m_source_file_index>
388

> <i_lp_mmshare_version>
43012

> <i_f3d_flags>
0

> <s_epik_input>
W0NIM11bTkhdQyg9TylbTkhdQyg9TylbQ0gyXW4xYyg9TyljKEMjTilbY0hdbihjMT1PKVtDSF0yW0NIMl1bQ0gyXTI=

> <s_epik_cmdline>
J2VwaWtfcHl0aG9uJywgJy1waCcsICc3LjAnLCAnLXRuJywgJzgnLCAnLW1hJywgJzIwMCcsICctbWV0YWxfYmluZGluZycsICctaW1hZScsICc8aW5maWxlLm1hZT4nLCAnLW9tYWUnLCAnPG91dGZpbGUubWFlPic=

> <r_lp_tautomer_probability>
1

> <r_epik_Ionization_Penalty>
2.95777e-05

> <r_epik_Ionization_Penalty_Charging>
6.31124e-11

> <r_epik_Ionization_Penalty_Neutral>
2.95776e-05

> <r_epik_State_Penalty>
-0

> <r_epik_Charging_Adjusted_Penalty>
6.31124e-11

> <i_epik_Tot_Q>
0

> <i_epik_Tot_abs_Q>
0

> <r_epik_Metal_State_Penalty>
-0

> <b_epik_Metal_Only>
0

> <s_lp_Force_Field>
OPLS_2005

> <r_lp_Energy>
33.5858

> <b_lp_Chiralities_Consistent>
1

> <s_lp_Variant>
AV-unprocessed.smi:388-1

> <Gold.Version>
5.8.1

> <Gold.Id.Protein>
6NUR|6NUR_protein|mol2

> <Gold.PLP.Fitness>
45.1138

> <Gold.PLP.PLP>
-35.0405

> <Gold.PLP.part.hbond>
-3.7036

> <Gold.PLP.part.metal>
0.0000

> <Gold.PLP.part.buried>
-3.5866

> <Gold.PLP.part.nonpolar>
-29.4670

> <Gold.PLP.part.repulsive>
2.4076

> <Gold.PLP.ligand.clash>
0.0000

> <Gold.PLP.ligand.torsion>
0.4663

> <Gold.PLP.Chemscore.Hbond>
2.5952

> <Gold.PLP.Chemscore.CHOScore>
1.0000

> <Gold.PLP.Chemscore.Metal>
0.0000

> <Gold.Chemscore.Hbonds>
donor molecule, donor type, donor heavy atom, donor atom, acceptor molecule, acceptor atom, score
      L1  H     2    25       P1  7948  1.00
      L1  H     5    26       P1  7948  0.65
      P1  H  7997  8010       L1    21  1.00
      L1  C    15    29       P1  8028  1.00

> <Gold.PLP.Chemscore.Internal.Correction>
0.2203

> <Gold.Rescore>
     Score         DG    S(hbond)    S(metal)    S(lipo)     H(rot)  DE(clash)    DE(int)     intcor
     11.90     -14.98       2.59        0.00      47.97       1.87       0.17       2.91       ----

> <Gold.Chemscore.Fitness>
11.8954

> <Gold.Chemscore.DG>
-14.9774

> <Gold.Chemscore.ZeroCoef>
-5.4800

> <Gold.Chemscore.Hbond>
2.5939

> <Gold.Chemscore.Metal>
0.0000

> <Gold.Chemscore.Lipo>
47.9712

> <Gold.Chemscore.Internal_Hbond>
0.0000

> <Gold.Chemscore.DEClash>
0.1723

> <Gold.Chemscore.DEInternal>
2.9097

> <Gold.Chemscore.Rot>
1.8667

> <Gold.Chemscore.Internal.Correction>
   9.000000E+99

> <Gold.Chemscore.Hbonds>
donor molecule, donor type, donor heavy atom, donor atom, acceptor molecule, acceptor atom, score
      L1  H     2    25       P1  7948  0.39
      L1  H     5    26       P1  7948  0.05
      P1  H  7997  8010       L1    21  1.00

> <Gold.Chemscore.Hbond.Weighted>
-8.6635

> <Gold.Chemscore.Metal.Weighted>
-0.0000

> <Gold.Chemscore.Lipo.Weighted>
-5.6126

> <Gold.Chemscore.Internal_Hbond.Weighted>
0.0000

> <Gold.Chemscore.DEClash.Weighted>
0.1723

> <Gold.Chemscore.DEInternal.Weighted>
2.9097

> <Gold.Chemscore.Rot.Weighted>
4.7787

> <Gold.Chemscore.Internal.Correction.Weighted>
   9.000000E+99

> <Gold.Protein.RotatedTorsions>
[ 6907 6896 6895 6894 ] final  130.22 input  -60.11 | X-H torsion
[ 7974 7965 7964 7962 ] final   49.26 input  175.53 | X-H torsion
[ 8008 7997 7996 7995 ] final   76.27 input   59.86 | X-H torsion
[ 10167 10162 10161 10158 ] final -112.68 input  -65.29 | X-H torsion
[ 10718 10713 10712 10709 ] final -142.64 input   66.30 | X-H torsion
[ 10763 10752 10751 10750 ] final  110.15 input  -60.55 | X-H torsion
[ 11005 11000 10999 10996 ] final  -83.03 input  -57.11 | X-H torsion

> <Gold.Protein.ActiveResidues>
 VAL166  LYS551  ARG553  GLY616  TRP617  ASP618  TYR619  PRO620  LYS621  CYS622 
 ASP623  PHE694  ASN695  SER759  ASP760  ASP761  ALA762  ILE779  LEU786  VAL792 
 PHE793  MET794  SER795  GLU796  ALA797  LYS798  CYS799  TRP800  GLU811  SER814 

> <Gold.Protein.RotatedAtoms>
  152.3547  133.6223  159.5970 H   0  0  0  0  0  0  0  0  0  0  0  0  # atno 6907 bound_to 6896
  150.7561  133.9518  159.3497 H   0  0  0  0  0  0  0  0  0  0  0  0  # atno 6908 bound_to 6896
  151.7365  135.0864  160.0360 H   0  0  0  0  0  0  0  0  0  0  0  0  # atno 6909 bound_to 6896
  146.0126  139.4560  142.9947 H   0  0  0  0  0  0  0  0  0  0  0  0  # atno 7974 bound_to 7965
  155.8250  140.3468  155.5537 H   0  0  0  0  0  0  0  0  0  0  0  0  # atno 8008 bound_to 7997
  155.8303  140.0926  157.1817 H   0  0  0  0  0  0  0  0  0  0  0  0  # atno 8009 bound_to 7997
  154.4004  140.1413  156.3593 H   0  0  0  0  0  0  0  0  0  0  0  0  # atno 8010 bound_to 7997
  140.1201  143.4451  152.1696 H   0  0  0  0  0  0  0  0  0  0  0  0  # atno 10167 bound_to 10162
  156.3483  130.7674  151.1823 H   0  0  0  0  0  0  0  0  0  0  0  0  # atno 10718 bound_to 10713
  153.4449  135.3757  155.2250 H   0  0  0  0  0  0  0  0  0  0  0  0  # atno 10763 bound_to 10752
  154.8755  135.3872  154.4108 H   0  0  0  0  0  0  0  0  0  0  0  0  # atno 10764 bound_to 10752
  153.4659  135.7087  153.6086 H   0  0  0  0  0  0  0  0  0  0  0  0  # atno 10765 bound_to 10752
  141.1660  133.7274  156.8660 H   0  0  0  0  0  0  0  0  0  0  0  0  # atno 11005 bound_to 11000
  145.7319  141.0039  143.1347 LP  0  0  0  0  0  0  0  0  0  0  0  0  # atno 17320 bound_to 7965
  144.6958  139.8994  143.7457 LP  0  0  0  0  0  0  0  0  0  0  0  0  # atno 17321 bound_to 7965
  139.5573  144.7382  151.4256 LP  0  0  0  0  0  0  0  0  0  0  0  0  # atno 17342 bound_to 10162
  140.6877  143.7935  150.7210 LP  0  0  0  0  0  0  0  0  0  0  0  0  # atno 17343 bound_to 10162
  157.7457  131.0435  150.4745 LP  0  0  0  0  0  0  0  0  0  0  0  0  # atno 17370 bound_to 10713
  156.4936  130.4101  149.6392 LP  0  0  0  0  0  0  0  0  0  0  0  0  # atno 17371 bound_to 10713
  140.1815  134.9030  157.2954 LP  0  0  0  0  0  0  0  0  0  0  0  0  # atno 17394 bound_to 11000
  140.2390  134.3819  155.7489 LP  0  0  0  0  0  0  0  0  0  0  0  0  # atno 17395 bound_to 11000

$$$$
