AV-unprocessed.smi:926|AV-procd|sdf|4185|dock4
  -GOLD-   22720 2 93D 1   1.00000     0.00000
 Structure written by MMmdl.
 37 39  0  0  0  0  0  0  0  0  1 V2000
  152.8251  139.4502  156.2435 O   0  0  0  0  0  0  0  0  0  0  0  0
  151.6955  139.2401  155.8020 C   0  0  0  0  0  0  0  0  0  0  0  0
  151.3655  137.8910  155.1632 C   0  0  0  0  0  0  0  0  0  0  0  0
  151.2690  136.8516  156.1698 N   0  0  0  0  0  0  0  0  0  0  0  0
  150.3759  136.6512  157.1413 C   0  0  0  0  0  0  0  0  0  0  0  0
  150.6623  135.5717  157.8532 N   0  0  0  0  0  0  0  0  0  0  0  0
  151.8180  135.0978  157.2550 N   0  0  0  0  0  0  0  0  0  0  0  0
  152.1836  135.8537  156.2562 N   0  0  0  0  0  0  0  0  0  0  0  0
  150.7049  140.1447  155.8404 N   0  0  0  0  0  0  0  0  0  0  0  0
  150.8153  141.4846  156.4049 C   0  0  0  0  0  0  0  0  0  0  0  0
  151.0413  141.4401  157.9262 C   0  0  0  0  0  0  0  0  0  0  0  0
  150.9892  142.8339  158.5826 C   0  0  2  0  0  0  0  0  0  0  0  0
  151.3001  143.9957  157.6096 C   0  0  0  0  0  0  0  0  0  0  0  0
  152.4523  144.7397  158.3086 C   0  0  1  0  0  0  0  0  0  0  0  0
  151.9233  145.4375  159.5755 C   0  0  0  0  0  0  0  0  0  0  0  0
  151.6804  144.2574  160.5353 C   0  0  0  0  0  0  0  0  0  0  0  0
  152.0637  143.0369  159.6763 C   0  0  2  0  0  0  0  0  0  0  0  0
  153.2534  143.5834  158.8924 C   0  0  0  0  0  0  0  0  0  0  0  0
  150.4126  137.9590  154.6364 H   0  0  0  0  0  0  0  0  0  0  0  0
  152.1213  137.6131  154.4264 H   0  0  0  0  0  0  0  0  0  0  0  0
  149.5255  137.2912  157.3256 H   0  0  0  0  0  0  0  0  0  0  0  0
  149.8100  139.8868  155.4499 H   0  0  0  0  0  0  0  0  0  0  0  0
  151.6503  141.9845  155.9141 H   0  0  0  0  0  0  0  0  0  0  0  0
  149.9244  142.0683  156.1671 H   0  0  0  0  0  0  0  0  0  0  0  0
  150.2741  140.8115  158.3802 H   0  0  0  0  0  0  0  0  0  0  0  0
  151.9944  140.9565  158.1424 H   0  0  0  0  0  0  0  0  0  0  0  0
  149.9982  142.9651  159.0200 H   0  0  0  0  0  0  0  0  0  0  0  0
  151.6313  143.6256  156.6385 H   0  0  0  0  0  0  0  0  0  0  0  0
  150.4344  144.6371  157.4403 H   0  0  0  0  0  0  0  0  0  0  0  0
  153.0118  145.4002  157.6457 H   0  0  0  0  0  0  0  0  0  0  0  0
  152.6695  146.1188  159.9861 H   0  0  0  0  0  0  0  0  0  0  0  0
  151.0158  146.0105  159.3816 H   0  0  0  0  0  0  0  0  0  0  0  0
  152.3304  144.3343  161.4077 H   0  0  0  0  0  0  0  0  0  0  0  0
  150.6505  144.2128  160.8916 H   0  0  0  0  0  0  0  0  0  0  0  0
  152.2715  142.1439  160.2670 H   0  0  0  0  0  0  0  0  0  0  0  0
  153.6350  142.8951  158.1370 H   0  0  0  0  0  0  0  0  0  0  0  0
  154.0792  143.9077  159.5281 H   0  0  0  0  0  0  0  0  0  0  0  0
  1  2  2  0  0  0  0
  2  3  1  0  0  0  0
  2  9  1  0  0  0  0
  3  4  1  0  0  0  0
  3 19  1  0  0  0  0
  3 20  1  0  0  0  0
  4  8  1  0  0  0  0
  4  5  1  0  0  0  0
  5  6  2  0  0  0  0
  5 21  1  0  0  0  0
  6  7  1  0  0  0  0
  7  8  2  0  0  0  0
  9 10  1  0  0  0  0
  9 22  1  0  0  0  0
 10 11  1  0  0  0  0
 10 23  1  0  0  0  0
 10 24  1  0  0  0  0
 11 12  1  0  0  0  0
 11 25  1  0  0  0  0
 11 26  1  0  0  0  0
 12 17  1  0  0  0  0
 12 13  1  0  0  0  0
 12 27  1  0  0  0  0
 13 14  1  0  0  0  0
 13 28  1  0  0  0  0
 13 29  1  0  0  0  0
 14 18  1  0  0  0  0
 14 15  1  0  0  0  0
 14 30  1  0  0  0  0
 15 16  1  0  0  0  0
 15 31  1  0  0  0  0
 15 32  1  0  0  0  0
 16 17  1  0  0  0  0
 16 33  1  0  0  0  0
 16 34  1  0  0  0  0
 17 18  1  0  0  0  0
 17 35  1  0  0  0  0
 18 36  1  0  0  0  0
 18 37  1  0  0  0  0
M  END
> <s_m_source_file>
AV-unprocessed.smi

> <i_m_source_file_index>
926

> <i_lp_mmshare_version>
43012

> <i_f3d_flags>
0

> <s_epik_input>
bjFubltjSF1uMVtDSDJdQyg9TylbTkhdW0NIMl1bQ0gyXVtDQEhdKFtDSDJdW0NASF0yMylbQ0BIXShbQ0gyXTMpW0NIMl1bQ0gyXTI=

> <s_epik_cmdline>
J2VwaWtfcHl0aG9uJywgJy1waCcsICc3LjAnLCAnLXRuJywgJzgnLCAnLW1hJywgJzIwMCcsICctbWV0YWxfYmluZGluZycsICctaW1hZScsICc8aW5maWxlLm1hZT4nLCAnLW9tYWUnLCAnPG91dGZpbGUubWFlPic=

> <r_lp_tautomer_probability>
1

> <r_epik_Ionization_Penalty>
4.22645e-07

> <r_epik_Ionization_Penalty_Charging>
0

> <r_epik_Ionization_Penalty_Neutral>
4.22645e-07

> <r_epik_State_Penalty>
-0

> <r_epik_Charging_Adjusted_Penalty>
0

> <i_epik_Tot_Q>
0

> <i_epik_Tot_abs_Q>
0

> <r_epik_Metal_State_Penalty>
-0

> <b_epik_Metal_Only>
0

> <s_lp_Force_Field>
OPLS_2005

> <r_lp_Energy>
50.9279

> <b_lp_Chiralities_Consistent>
1

> <s_lp_Variant>
AV-unprocessed.smi:926-3

> <Gold.Version>
5.8.1

> <Gold.Id.Protein>
6NUR|6NUR_protein|mol2

> <Gold.PLP.Fitness>
47.4205

> <Gold.PLP.PLP>
-41.4593

> <Gold.PLP.part.hbond>
-3.9818

> <Gold.PLP.part.metal>
0.0000

> <Gold.PLP.part.buried>
-5.5709

> <Gold.PLP.part.nonpolar>
-33.9252

> <Gold.PLP.part.repulsive>
0.1114

> <Gold.PLP.ligand.clash>
0.0000

> <Gold.PLP.ligand.torsion>
0.7650

> <Gold.PLP.Chemscore.Hbond>
2.4821

> <Gold.PLP.Chemscore.CHOScore>
0.0000

> <Gold.PLP.Chemscore.Metal>
0.0000

> <Gold.Chemscore.Hbonds>
donor molecule, donor type, donor heavy atom, donor atom, acceptor molecule, acceptor atom, score
      P1  H  6896  6908       L1     6  0.51
      P1  H  7997  8009       L1     1  1.00
      P1  H 10752 10764       L1     8  1.00

> <Gold.PLP.Chemscore.Internal.Correction>
0.0449

> <Gold.Rescore>
     Score         DG    S(hbond)    S(metal)    S(lipo)     H(rot)  DE(clash)    DE(int)     intcor
     18.51     -19.18       2.35        0.00     105.76       2.54       0.02       0.65       ----

> <Gold.Chemscore.Fitness>
18.5140

> <Gold.Chemscore.DG>
-19.1833

> <Gold.Chemscore.ZeroCoef>
-5.4800

> <Gold.Chemscore.Hbond>
2.3475

> <Gold.Chemscore.Metal>
0.0000

> <Gold.Chemscore.Lipo>
105.7623

> <Gold.Chemscore.Internal_Hbond>
0.0000

> <Gold.Chemscore.DEClash>
0.0201

> <Gold.Chemscore.DEInternal>
0.6492

> <Gold.Chemscore.Rot>
2.5436

> <Gold.Chemscore.Internal.Correction>
   9.000000E+99

> <Gold.Chemscore.Hbonds>
donor molecule, donor type, donor heavy atom, donor atom, acceptor molecule, acceptor atom, score
      P1  H  6896  6908       L1     6  0.13
      P1  H  7997  8009       L1     1  0.98
      P1  H 10752 10764       L1     8  0.94

> <Gold.Chemscore.Hbond.Weighted>
-7.8408

> <Gold.Chemscore.Metal.Weighted>
-0.0000

> <Gold.Chemscore.Lipo.Weighted>
-12.3742

> <Gold.Chemscore.Internal_Hbond.Weighted>
0.0000

> <Gold.Chemscore.DEClash.Weighted>
0.0201

> <Gold.Chemscore.DEInternal.Weighted>
0.6492

> <Gold.Chemscore.Rot.Weighted>
6.5117

> <Gold.Chemscore.Internal.Correction.Weighted>
   9.000000E+99

> <Gold.Protein.RotatedTorsions>
[ 6907 6896 6895 6894 ] final  170.60 input  -60.11 | X-H torsion
[ 7974 7965 7964 7962 ] final  -22.45 input  175.53 | X-H torsion
[ 8008 7997 7996 7995 ] final -146.79 input   59.86 | X-H torsion
[ 10167 10162 10161 10158 ] final  -44.39 input  -65.29 | X-H torsion
[ 10718 10713 10712 10709 ] final  -88.10 input   66.30 | X-H torsion
[ 10763 10752 10751 10750 ] final  -39.42 input  -60.55 | X-H torsion
[ 11005 11000 10999 10996 ] final -166.82 input  -57.11 | X-H torsion

> <Gold.Protein.ActiveResidues>
 VAL166  LYS551  ARG553  GLY616  TRP617  ASP618  TYR619  PRO620  LYS621  CYS622 
 ASP623  PHE694  ASN695  SER759  ASP760  ASP761  ALA762  ILE779  LEU786  VAL792 
 PHE793  MET794  SER795  GLU796  ALA797  LYS798  CYS799  TRP800  GLU811  SER814 

> <Gold.Protein.RotatedAtoms>
  151.8135  133.3385  159.3562 H   0  0  0  0  0  0  0  0  0  0  0  0  # atno 6907 bound_to 6896
  150.7318  134.5642  159.5867 H   0  0  0  0  0  0  0  0  0  0  0  0  # atno 6908 bound_to 6896
  152.3058  134.7558  160.0399 H   0  0  0  0  0  0  0  0  0  0  0  0  # atno 6909 bound_to 6896
  146.1675  140.4480  142.8546 H   0  0  0  0  0  0  0  0  0  0  0  0  # atno 7974 bound_to 7965
  155.5651  140.0629  157.2820 H   0  0  0  0  0  0  0  0  0  0  0  0  # atno 8008 bound_to 7997
  154.4378  140.1879  156.0868 H   0  0  0  0  0  0  0  0  0  0  0  0  # atno 8009 bound_to 7997
  156.0418  140.3295  155.7255 H   0  0  0  0  0  0  0  0  0  0  0  0  # atno 8010 bound_to 7997
  140.6898  143.2933  151.3489 H   0  0  0  0  0  0  0  0  0  0  0  0  # atno 10167 bound_to 10162
  155.9984  130.4823  150.4967 H   0  0  0  0  0  0  0  0  0  0  0  0  # atno 10718 bound_to 10713
  153.9292  135.6774  153.4746 H   0  0  0  0  0  0  0  0  0  0  0  0  # atno 10763 bound_to 10752
  153.0988  135.4838  154.8826 H   0  0  0  0  0  0  0  0  0  0  0  0  # atno 10764 bound_to 10752
  154.7437  135.3167  154.8640 H   0  0  0  0  0  0  0  0  0  0  0  0  # atno 10765 bound_to 10752
  140.5602  134.5341  157.5141 H   0  0  0  0  0  0  0  0  0  0  0  0  # atno 11005 bound_to 11000
  144.8113  140.6391  143.6413 LP  0  0  0  0  0  0  0  0  0  0  0  0  # atno 17320 bound_to 7965
  145.4429  139.1533  143.3960 LP  0  0  0  0  0  0  0  0  0  0  0  0  # atno 17321 bound_to 7965
  139.6291  144.0757  152.2460 LP  0  0  0  0  0  0  0  0  0  0  0  0  # atno 17342 bound_to 10162
  140.0225  144.6142  150.7554 LP  0  0  0  0  0  0  0  0  0  0  0  0  # atno 17343 bound_to 10162
  157.2956  131.0635  151.2103 LP  0  0  0  0  0  0  0  0  0  0  0  0  # atno 17370 bound_to 10713
  157.3101  130.6885  149.6211 LP  0  0  0  0  0  0  0  0  0  0  0  0  # atno 17371 bound_to 10713
  139.9412  134.7784  156.0675 LP  0  0  0  0  0  0  0  0  0  0  0  0  # atno 17394 bound_to 11000
  141.1119  133.6640  156.3000 LP  0  0  0  0  0  0  0  0  0  0  0  0  # atno 17395 bound_to 11000

$$$$
