AV-unprocessed.smi:3349|AV-procd|sdf|12936|dock5
  -GOLD-   2272019363D 1   1.00000     0.00000
 Structure written by MMmdl.
 41 42  0  0  0  0  0  0  0  0  2 V2000
  148.2120  133.2704  155.8714 C   0  0  0  0  0  0  0  0  0  0  0  0
  148.5425  134.4700  154.9479 C   0  0  1  0  0  0  0  0  0  0  0  0
  150.0796  134.6097  154.7802 C   0  0  0  0  0  0  0  0  0  0  0  0
  150.4665  135.9160  154.2602 N   0  0  0  0  0  0  0  0  0  0  0  0
  151.2649  136.7858  154.8970 C   0  0  0  0  0  0  0  0  0  0  0  0
  151.7836  136.5453  155.9879 O   0  0  0  0  0  0  0  0  0  0  0  0
  151.4981  138.1302  154.1901 C   0  0  2  0  0  0  0  0  0  0  0  0
  152.7353  138.8818  154.7162 C   0  0  0  0  0  0  0  0  0  0  0  0
  150.3036  138.9585  154.2830 N   0  0  0  0  0  0  0  0  0  0  0  0
  149.0229  138.6816  154.0214 C   0  0  0  0  0  0  0  0  0  0  0  0
  148.2033  139.7068  154.2067 N   0  0  0  0  0  0  0  0  0  0  0  0
  149.1052  140.6493  154.6120 C   0  0  0  0  0  0  0  0  0  0  0  0
  150.3772  140.2546  154.6703 N   0  0  0  0  0  0  0  0  0  0  0  0
  147.8319  134.3594  153.6290 N   0  3  0  0  0  0  0  0  0  0  0  0
  148.2000  133.1388  152.8569 C   0  0  0  0  0  0  0  0  0  0  0  0
  147.4648  133.0798  151.5075 C   0  0  0  0  0  0  0  0  0  0  0  0
  146.0641  133.1235  151.7253 O   0  0  0  0  0  0  0  0  0  0  0  0
  145.6802  134.3408  152.3436 C   0  0  0  0  0  0  0  0  0  0  0  0
  146.3477  134.4601  153.7244 C   0  0  0  0  0  0  0  0  0  0  0  0
  148.7710  133.3013  156.8064 H   0  0  0  0  0  0  0  0  0  0  0  0
  148.4438  132.3223  155.3855 H   0  0  0  0  0  0  0  0  0  0  0  0
  147.1652  133.2514  156.1699 H   0  0  0  0  0  0  0  0  0  0  0  0
  148.1829  135.3764  155.4380 H   0  0  0  0  0  0  0  0  0  0  0  0
  150.5726  134.4268  155.7369 H   0  0  0  0  0  0  0  0  0  0  0  0
  150.4706  133.8850  154.0672 H   0  0  0  0  0  0  0  0  0  0  0  0
  150.0821  136.1902  153.3672 H   0  0  0  0  0  0  0  0  0  0  0  0
  151.6751  137.9098  153.1354 H   0  0  0  0  0  0  0  0  0  0  0  0
  153.6352  138.2716  154.6307 H   0  0  0  0  0  0  0  0  0  0  0  0
  152.6232  139.1650  155.7636 H   0  0  0  0  0  0  0  0  0  0  0  0
  152.9057  139.7949  154.1450 H   0  0  0  0  0  0  0  0  0  0  0  0
  148.6849  137.7124  153.6845 H   0  0  0  0  0  0  0  0  0  0  0  0
  148.8160  141.6578  154.8687 H   0  0  0  0  0  0  0  0  0  0  0  0
  149.2667  133.1147  152.6429 H   0  0  0  0  0  0  0  0  0  0  0  0
  147.9680  132.2499  153.4456 H   0  0  0  0  0  0  0  0  0  0  0  0
  147.7737  133.9001  150.8573 H   0  0  0  0  0  0  0  0  0  0  0  0
  147.7104  132.1538  150.9872 H   0  0  0  0  0  0  0  0  0  0  0  0
  145.9446  135.1878  151.7083 H   0  0  0  0  0  0  0  0  0  0  0  0
  144.5954  134.3534  152.4508 H   0  0  0  0  0  0  0  0  0  0  0  0
  145.9702  133.6834  154.3913 H   0  0  0  0  0  0  0  0  0  0  0  0
  146.0455  135.4209  154.1371 H   0  0  0  0  0  0  0  0  0  0  0  0
  148.1323  135.1493  153.0758 H   0  0  0  0  0  0  0  0  0  0  0  0
  1  2  1  0  0  0  0
  1 20  1  0  0  0  0
  1 21  1  0  0  0  0
  1 22  1  0  0  0  0
  2  3  1  0  0  0  0
  2 14  1  0  0  0  0
  2 23  1  0  0  0  0
  3  4  1  0  0  0  0
  3 24  1  0  0  0  0
  3 25  1  0  0  0  0
  4  5  1  0  0  0  0
  4 26  1  0  0  0  0
  5  6  2  0  0  0  0
  5  7  1  0  0  0  0
  7  8  1  0  0  0  0
  7  9  1  0  0  0  0
  7 27  1  0  0  0  0
  8 28  1  0  0  0  0
  8 29  1  0  0  0  0
  8 30  1  0  0  0  0
  9 13  1  0  0  0  0
  9 10  1  0  0  0  0
 10 11  2  0  0  0  0
 10 31  1  0  0  0  0
 11 12  1  0  0  0  0
 12 13  2  0  0  0  0
 12 32  1  0  0  0  0
 14 19  1  0  0  0  0
 14 15  1  0  0  0  0
 14 41  1  0  0  0  0
 15 16  1  0  0  0  0
 15 33  1  0  0  0  0
 15 34  1  0  0  0  0
 16 17  1  0  0  0  0
 16 35  1  0  0  0  0
 16 36  1  0  0  0  0
 17 18  1  0  0  0  0
 18 19  1  0  0  0  0
 18 37  1  0  0  0  0
 18 38  1  0  0  0  0
 19 39  1  0  0  0  0
 19 40  1  0  0  0  0
M  CHG  1  14   1
M  END
> <s_m_source_file>
AV-unprocessed.smi

> <i_m_source_file_index>
3349

> <i_lp_mmshare_version>
43012

> <i_f3d_flags>
0

> <s_epik_input>
W0NIMl0xW0NIMl1PW0NIMl1bQ0gyXU4xW0NASF0oW0NIM10pW0NIMl1bTkhdQyg9TylbQ0BIXShbQ0gzXSluMltjSF1uW2NIXW4y

> <s_epik_cmdline>
J2VwaWtfcHl0aG9uJywgJy1waCcsICc3LjAnLCAnLXRuJywgJzgnLCAnLW1hJywgJzIwMCcsICctbWV0YWxfYmluZGluZycsICctaW1hZScsICc8aW5maWxlLm1hZT4nLCAnLW9tYWUnLCAnPG91dGZpbGUubWFlPic=

> <r_lp_tautomer_probability>
1

> <r_epik_Ionization_Penalty>
0.71326

> <r_epik_Ionization_Penalty_Charging>
0.713252

> <r_epik_Ionization_Penalty_Neutral>
8.10337e-06

> <r_epik_State_Penalty>
0.737017

> <r_epik_Charging_Adjusted_Penalty>
1.45027

> <i_epik_Tot_Q>
1

> <i_epik_Tot_abs_Q>
1

> <r_epik_Metal_State_Penalty>
0.73702

> <b_epik_Metal_Only>
0

> <s_lp_Force_Field>
OPLS_2005

> <r_lp_Energy>
26.8661

> <b_lp_Chiralities_Consistent>
1

> <s_lp_Variant>
AV-unprocessed.smi:3349-6

> <Gold.Version>
5.8.1

> <Gold.Id.Protein>
6NUR|6NUR_protein|mol2

> <Gold.PLP.Fitness>
45.7841

> <Gold.PLP.PLP>
-30.4031

> <Gold.PLP.part.hbond>
-5.0000

> <Gold.PLP.part.metal>
0.0000

> <Gold.PLP.part.buried>
-2.4368

> <Gold.PLP.part.nonpolar>
-23.5062

> <Gold.PLP.part.repulsive>
0.3993

> <Gold.PLP.ligand.clash>
0.0000

> <Gold.PLP.ligand.torsion>
0.6969

> <Gold.PLP.Chemscore.Hbond>
4.5500

> <Gold.PLP.Chemscore.CHOScore>
1.0000

> <Gold.PLP.Chemscore.Metal>
0.0000

> <Gold.Chemscore.Hbonds>
donor molecule, donor type, donor heavy atom, donor atom, acceptor molecule, acceptor atom, score
      L1  H     4    26       P1  7948  0.45
      L1  H    14    41       P1  7948  2.00
      P1  H  7989  7998       L1    13  1.00
      P1  H 10752 10764       L1     6  0.60
      L1  C    10    31       P1  7948  1.00

> <Gold.PLP.Chemscore.Internal.Correction>
0.1248

> <Gold.Rescore>
     Score         DG    S(hbond)    S(metal)    S(lipo)     H(rot)  DE(clash)    DE(int)     intcor
      9.11     -10.33       1.85        0.00      46.22       2.63       0.02       1.20       ----

> <Gold.Chemscore.Fitness>
9.1099

> <Gold.Chemscore.DG>
-10.3346

> <Gold.Chemscore.ZeroCoef>
-5.4800

> <Gold.Chemscore.Hbond>
1.8524

> <Gold.Chemscore.Metal>
0.0000

> <Gold.Chemscore.Lipo>
46.2201

> <Gold.Chemscore.Internal_Hbond>
0.0000

> <Gold.Chemscore.DEClash>
0.0213

> <Gold.Chemscore.DEInternal>
1.2034

> <Gold.Chemscore.Rot>
2.6329

> <Gold.Chemscore.Internal.Correction>
   9.000000E+99

> <Gold.Chemscore.Hbonds>
donor molecule, donor type, donor heavy atom, donor atom, acceptor molecule, acceptor atom, score
      L1  H     4    26       P1  7948  0.02
      L1  H    14    41       P1  7948  0.98
      P1  H  7989  7998       L1    13  0.25
      P1  H 10752 10764       L1     6  0.04

> <Gold.Chemscore.Hbond.Weighted>
-6.1871

> <Gold.Chemscore.Metal.Weighted>
-0.0000

> <Gold.Chemscore.Lipo.Weighted>
-5.4078

> <Gold.Chemscore.Internal_Hbond.Weighted>
0.0000

> <Gold.Chemscore.DEClash.Weighted>
0.0213

> <Gold.Chemscore.DEInternal.Weighted>
1.2034

> <Gold.Chemscore.Rot.Weighted>
6.7403

> <Gold.Chemscore.Internal.Correction.Weighted>
   9.000000E+99

> <Gold.Protein.RotatedTorsions>
[ 6907 6896 6895 6894 ] final  165.68 input  -60.11 | X-H torsion
[ 7974 7965 7964 7962 ] final -105.39 input  175.53 | X-H torsion
[ 8008 7997 7996 7995 ] final   -6.88 input   59.86 | X-H torsion
[ 10167 10162 10161 10158 ] final   16.36 input  -65.29 | X-H torsion
[ 10718 10713 10712 10709 ] final  138.07 input   66.30 | X-H torsion
[ 10763 10752 10751 10750 ] final  -20.34 input  -60.55 | X-H torsion
[ 11005 11000 10999 10996 ] final   22.07 input  -57.11 | X-H torsion

> <Gold.Protein.ActiveResidues>
 VAL166  LYS551  ARG553  GLY616  TRP617  ASP618  TYR619  PRO620  LYS621  CYS622 
 ASP623  PHE694  ASN695  SER759  ASP760  ASP761  ALA762  ILE779  LEU786  VAL792 
 PHE793  MET794  SER795  GLU796  ALA797  LYS798  CYS799  TRP800  GLU811  SER814 

> <Gold.Protein.RotatedAtoms>
  151.8907  133.3515  159.3797 H   0  0  0  0  0  0  0  0  0  0  0  0  # atno 6907 bound_to 6896
  150.7104  134.4926  159.5532 H   0  0  0  0  0  0  0  0  0  0  0  0  # atno 6908 bound_to 6896
  152.2496  134.8146  160.0499 H   0  0  0  0  0  0  0  0  0  0  0  0  # atno 6909 bound_to 6896
  145.2310  140.9170  143.3204 H   0  0  0  0  0  0  0  0  0  0  0  0  # atno 7974 bound_to 7965
  154.5893  140.2421  155.7942 H   0  0  0  0  0  0  0  0  0  0  0  0  # atno 8008 bound_to 7997
  156.2236  140.2990  155.9967 H   0  0  0  0  0  0  0  0  0  0  0  0  # atno 8009 bound_to 7997
  155.2401  140.0407  157.2964 H   0  0  0  0  0  0  0  0  0  0  0  0  # atno 8010 bound_to 7997
  140.5803  143.8994  150.6784 H   0  0  0  0  0  0  0  0  0  0  0  0  # atno 10167 bound_to 10162
  157.4292  131.1047  151.0268 H   0  0  0  0  0  0  0  0  0  0  0  0  # atno 10718 bound_to 10713
  153.6188  135.6993  153.5318 H   0  0  0  0  0  0  0  0  0  0  0  0  # atno 10763 bound_to 10752
  153.2954  135.4144  155.1205 H   0  0  0  0  0  0  0  0  0  0  0  0  # atno 10764 bound_to 10752
  154.8547  135.3636  154.5729 H   0  0  0  0  0  0  0  0  0  0  0  0  # atno 10765 bound_to 10752
  140.3846  134.1884  155.7663 H   0  0  0  0  0  0  0  0  0  0  0  0  # atno 11005 bound_to 11000
  144.9676  139.3913  143.6325 LP  0  0  0  0  0  0  0  0  0  0  0  0  # atno 17320 bound_to 7965
  146.3353  139.8759  142.8832 LP  0  0  0  0  0  0  0  0  0  0  0  0  # atno 17321 bound_to 7965
  140.2491  143.3606  152.1421 LP  0  0  0  0  0  0  0  0  0  0  0  0  # atno 17342 bound_to 10162
  139.5166  144.6980  151.5576 LP  0  0  0  0  0  0  0  0  0  0  0  0  # atno 17343 bound_to 10162
  157.1171  130.6046  149.5496 LP  0  0  0  0  0  0  0  0  0  0  0  0  # atno 17370 bound_to 10713
  155.9907  130.4959  150.7269 LP  0  0  0  0  0  0  0  0  0  0  0  0  # atno 17371 bound_to 10713
  141.1912  133.8201  157.0889 LP  0  0  0  0  0  0  0  0  0  0  0  0  # atno 17394 bound_to 11000
  140.0453  134.9834  157.1037 LP  0  0  0  0  0  0  0  0  0  0  0  0  # atno 17395 bound_to 11000

$$$$
