AV-unprocessed.smi:2061|AV-procd|sdf|8364|dock7
  -GOLD-   2272011 33D 1   1.00000     0.00000
 Structure written by MMmdl.
 45 46  0  0  0  0  0  0  0  0  1 V2000
  143.5948  132.4171  149.1079 C   0  0  0  0  0  0  0  0  0  0  0  0
  144.6319  133.0899  149.9408 C   0  0  0  0  0  0  0  0  0  0  0  0
  144.7309  134.3481  150.4648 C   0  0  0  0  0  0  0  0  0  0  0  0
  145.9769  134.3137  151.1460 C   0  0  0  0  0  0  0  0  0  0  0  0
  146.4621  135.4545  151.8349 N   0  0  0  0  0  0  0  0  0  0  0  0
  145.7633  136.3015  152.6098 C   0  0  0  0  0  0  0  0  0  0  0  0
  144.5543  136.2249  152.8321 O   0  0  0  0  0  0  0  0  0  0  0  0
  146.5524  137.2598  153.1165 N   0  0  0  0  0  0  0  0  0  0  0  0
  146.1162  138.3508  153.9863 C   0  0  0  0  0  0  0  0  0  0  0  0
  146.8791  139.6724  153.7068 C   0  0  2  0  0  0  0  0  0  0  0  0
  147.1201  139.7837  152.1843 C   0  0  0  0  0  0  0  0  0  0  0  0
  148.1081  139.8413  154.5134 N   0  0  0  0  0  0  0  0  0  0  0  0
  148.6225  141.2136  154.4732 C   0  0  0  0  0  0  0  0  0  0  0  0
  149.9092  141.4081  155.2991 C   0  0  1  0  0  0  0  0  0  0  0  0
  149.6632  141.4044  156.8179 C   0  0  0  0  0  0  0  0  0  0  0  0
  150.8922  140.4486  154.9161 O   0  0  0  0  0  0  0  0  0  0  0  0
  150.4534  139.0941  154.9513 C   0  0  2  0  0  0  0  0  0  0  0  0
  151.5993  138.2115  154.4450 C   0  0  0  0  0  0  0  0  0  0  0  0
  149.1839  138.9407  154.0942 C   0  0  0  0  0  0  0  0  0  0  0  0
  146.5828  133.1401  151.0476 N   0  0  0  0  0  0  0  0  0  0  0  0
  145.7240  132.3500  150.2745 O   0  0  0  0  0  0  0  0  0  0  0  0
  142.6315  132.9180  149.2064 H   0  0  0  0  0  0  0  0  0  0  0  0
  143.4666  131.3777  149.4108 H   0  0  0  0  0  0  0  0  0  0  0  0
  143.8776  132.4309  148.0553 H   0  0  0  0  0  0  0  0  0  0  0  0
  144.0250  135.1602  150.3723 H   0  0  0  0  0  0  0  0  0  0  0  0
  147.4486  135.6413  151.7328 H   0  0  0  0  0  0  0  0  0  0  0  0
  147.5313  137.2463  152.8705 H   0  0  0  0  0  0  0  0  0  0  0  0
  145.0409  138.5134  153.8948 H   0  0  0  0  0  0  0  0  0  0  0  0
  146.2510  138.0353  155.0202 H   0  0  0  0  0  0  0  0  0  0  0  0
  146.1939  140.4806  153.9677 H   0  0  0  0  0  0  0  0  0  0  0  0
  146.2225  139.5259  151.6216 H   0  0  0  0  0  0  0  0  0  0  0  0
  147.9168  139.1156  151.8552 H   0  0  0  0  0  0  0  0  0  0  0  0
  147.3848  140.7969  151.8838 H   0  0  0  0  0  0  0  0  0  0  0  0
  148.8211  141.4939  153.4375 H   0  0  0  0  0  0  0  0  0  0  0  0
  147.8807  141.9173  154.8470 H   0  0  0  0  0  0  0  0  0  0  0  0
  150.3234  142.3849  155.0474 H   0  0  0  0  0  0  0  0  0  0  0  0
  149.0042  142.2239  157.1054 H   0  0  0  0  0  0  0  0  0  0  0  0
  150.5991  141.5267  157.3633 H   0  0  0  0  0  0  0  0  0  0  0  0
  149.1969  140.4794  157.1563 H   0  0  0  0  0  0  0  0  0  0  0  0
  150.2336  138.8106  155.9809 H   0  0  0  0  0  0  0  0  0  0  0  0
  151.3234  137.1571  154.4710 H   0  0  0  0  0  0  0  0  0  0  0  0
  152.4896  138.3373  155.0618 H   0  0  0  0  0  0  0  0  0  0  0  0
  151.8673  138.4628  153.4183 H   0  0  0  0  0  0  0  0  0  0  0  0
  148.8642  137.9026  154.1717 H   0  0  0  0  0  0  0  0  0  0  0  0
  149.4252  139.1185  153.0450 H   0  0  0  0  0  0  0  0  0  0  0  0
  1  2  1  0  0  0  0
  1 22  1  0  0  0  0
  1 23  1  0  0  0  0
  1 24  1  0  0  0  0
  2 21  1  0  0  0  0
  2  3  2  0  0  0  0
  3  4  1  0  0  0  0
  3 25  1  0  0  0  0
  4  5  1  0  0  0  0
  4 20  2  0  0  0  0
  5  6  1  0  0  0  0
  5 26  1  0  0  0  0
  6  7  2  0  0  0  0
  6  8  1  0  0  0  0
  8  9  1  0  0  0  0
  8 27  1  0  0  0  0
  9 10  1  0  0  0  0
  9 28  1  0  0  0  0
  9 29  1  0  0  0  0
 10 11  1  0  0  0  0
 10 12  1  0  0  0  0
 10 30  1  0  0  0  0
 11 31  1  0  0  0  0
 11 32  1  0  0  0  0
 11 33  1  0  0  0  0
 12 19  1  0  0  0  0
 12 13  1  0  0  0  0
 13 14  1  0  0  0  0
 13 34  1  0  0  0  0
 13 35  1  0  0  0  0
 14 15  1  0  0  0  0
 14 16  1  0  0  0  0
 14 36  1  0  0  0  0
 15 37  1  0  0  0  0
 15 38  1  0  0  0  0
 15 39  1  0  0  0  0
 16 17  1  0  0  0  0
 17 18  1  0  0  0  0
 17 19  1  0  0  0  0
 17 40  1  0  0  0  0
 18 41  1  0  0  0  0
 18 42  1  0  0  0  0
 18 43  1  0  0  0  0
 19 44  1  0  0  0  0
 19 45  1  0  0  0  0
 20 21  1  0  0  0  0
M  END
> <s_m_source_file>
AV-unprocessed.smi

> <i_m_source_file_index>
2061

> <i_lp_mmshare_version>
43012

> <i_f3d_flags>
0

> <s_epik_input>
W0NIM11jMVtjSF1jKG5vMSlbTkhdQyg9TylbTkhdW0NIMl1bQ0BIXShbQ0gzXSlOMltDSDJdW0NAQEhdKFtDSDNdKU9bQ0BASF0oW0NIM10pW0NIMl0y

> <s_epik_cmdline>
J2VwaWtfcHl0aG9uJywgJy1waCcsICc3LjAnLCAnLXRuJywgJzgnLCAnLW1hJywgJzIwMCcsICctbWV0YWxfYmluZGluZycsICctaW1hZScsICc8aW5maWxlLm1hZT4nLCAnLW9tYWUnLCAnPG91dGZpbGUubWFlPic=

> <r_epik_Ionization_Penalty>
0.214073

> <r_epik_Ionization_Penalty_Charging>
0

> <r_epik_Ionization_Penalty_Neutral>
0.214073

> <r_epik_State_Penalty>
0.204211

> <r_epik_Charging_Adjusted_Penalty>
0.204211

> <i_epik_Tot_Q>
0

> <i_epik_Tot_abs_Q>
0

> <r_epik_Metal_State_Penalty>
0.217067

> <b_epik_Metal_Only>
0

> <s_lp_Force_Field>
OPLS_2005

> <r_lp_Energy>
31.479

> <b_lp_Chiralities_Consistent>
1

> <s_lp_Variant>
AV-unprocessed.smi:2061-5

> <Gold.Version>
5.8.1

> <Gold.Id.Protein>
6NUR|6NUR_protein|mol2

> <Gold.PLP.Fitness>
41.5711

> <Gold.PLP.PLP>
-34.6945

> <Gold.PLP.part.hbond>
-3.0000

> <Gold.PLP.part.metal>
0.0000

> <Gold.PLP.part.buried>
-0.8413

> <Gold.PLP.part.nonpolar>
-31.2480

> <Gold.PLP.part.repulsive>
0.6966

> <Gold.PLP.ligand.clash>
0.0066

> <Gold.PLP.ligand.torsion>
0.9219

> <Gold.PLP.Chemscore.Hbond>
2.8960

> <Gold.PLP.Chemscore.CHOScore>
0.0000

> <Gold.PLP.Chemscore.Metal>
0.0000

> <Gold.Chemscore.Hbonds>
donor molecule, donor type, donor heavy atom, donor atom, acceptor molecule, acceptor atom, score
      L1  H     5    26       P1  7948  1.00
      L1  H     8    27       P1  7948  0.90
      P1  H  7989  7998       L1    16  1.00

> <Gold.PLP.Chemscore.Internal.Correction>
0.0390

> <Gold.Rescore>
     Score         DG    S(hbond)    S(metal)    S(lipo)     H(rot)  DE(clash)    DE(int)     intcor
     18.21     -20.12       2.75        0.00      80.39       1.55       0.05       1.85       ----

> <Gold.Chemscore.Fitness>
18.2105

> <Gold.Chemscore.DG>
-20.1197

> <Gold.Chemscore.ZeroCoef>
-5.4800

> <Gold.Chemscore.Hbond>
2.7529

> <Gold.Chemscore.Metal>
0.0000

> <Gold.Chemscore.Lipo>
80.3949

> <Gold.Chemscore.Internal_Hbond>
0.0000

> <Gold.Chemscore.DEClash>
0.0545

> <Gold.Chemscore.DEInternal>
1.8548

> <Gold.Chemscore.Rot>
1.5474

> <Gold.Chemscore.Internal.Correction>
   9.000000E+99

> <Gold.Chemscore.Hbonds>
donor molecule, donor type, donor heavy atom, donor atom, acceptor molecule, acceptor atom, score
      L1  H     5    26       P1  7948  0.98
      L1  H     8    27       P1  7948  0.82
      P1  H  7989  7998       L1    16  0.67

> <Gold.Chemscore.Hbond.Weighted>
-9.1948

> <Gold.Chemscore.Metal.Weighted>
-0.0000

> <Gold.Chemscore.Lipo.Weighted>
-9.4062

> <Gold.Chemscore.Internal_Hbond.Weighted>
0.0000

> <Gold.Chemscore.DEClash.Weighted>
0.0545

> <Gold.Chemscore.DEInternal.Weighted>
1.8548

> <Gold.Chemscore.Rot.Weighted>
3.9612

> <Gold.Chemscore.Internal.Correction.Weighted>
   9.000000E+99

> <Gold.Protein.RotatedTorsions>
[ 6907 6896 6895 6894 ] final   56.05 input  -60.11 | X-H torsion
[ 7974 7965 7964 7962 ] final   26.89 input  175.53 | X-H torsion
[ 8008 7997 7996 7995 ] final   31.88 input   59.86 | X-H torsion
[ 10167 10162 10161 10158 ] final  163.95 input  -65.29 | X-H torsion
[ 10718 10713 10712 10709 ] final  -71.35 input   66.30 | X-H torsion
[ 10763 10752 10751 10750 ] final -147.13 input  -60.55 | X-H torsion
[ 11005 11000 10999 10996 ] final   54.62 input  -57.11 | X-H torsion

> <Gold.Protein.ActiveResidues>
 VAL166  LYS551  ARG553  GLY616  TRP617  ASP618  TYR619  PRO620  LYS621  CYS622 
 ASP623  PHE694  ASN695  SER759  ASP760  ASP761  ALA762  ILE779  LEU786  VAL792 
 PHE793  MET794  SER795  GLU796  ALA797  LYS798  CYS799  TRP800  GLU811  SER814 

> <Gold.Protein.RotatedAtoms>
  152.3598  134.6888  160.0210 H   0  0  0  0  0  0  0  0  0  0  0  0  # atno 6907 bound_to 6896
  151.7214  133.3309  159.3324 H   0  0  0  0  0  0  0  0  0  0  0  0  # atno 6908 bound_to 6896
  150.7597  134.6378  159.6265 H   0  0  0  0  0  0  0  0  0  0  0  0  # atno 6909 bound_to 6896
  146.1814  139.7267  142.8898 H   0  0  0  0  0  0  0  0  0  0  0  0  # atno 7974 bound_to 7965
  155.1135  140.3241  155.4515 H   0  0  0  0  0  0  0  0  0  0  0  0  # atno 8008 bound_to 7997
  156.2683  140.2040  156.6207 H   0  0  0  0  0  0  0  0  0  0  0  0  # atno 8009 bound_to 7997
  154.6738  140.0533  157.0180 H   0  0  0  0  0  0  0  0  0  0  0  0  # atno 8010 bound_to 7997
  139.4881  144.4284  151.9100 H   0  0  0  0  0  0  0  0  0  0  0  0  # atno 10167 bound_to 10162
  156.0367  130.4349  150.2431 H   0  0  0  0  0  0  0  0  0  0  0  0  # atno 10718 bound_to 10713
  154.8301  135.3368  154.6770 H   0  0  0  0  0  0  0  0  0  0  0  0  # atno 10763 bound_to 10752
  153.7391  135.6947  153.4975 H   0  0  0  0  0  0  0  0  0  0  0  0  # atno 10764 bound_to 10752
  153.2257  135.4434  155.0490 H   0  0  0  0  0  0  0  0  0  0  0  0  # atno 10765 bound_to 10752
  140.0671  134.5521  155.9087 H   0  0  0  0  0  0  0  0  0  0  0  0  # atno 11005 bound_to 11000
  145.4066  141.0391  143.3041 LP  0  0  0  0  0  0  0  0  0  0  0  0  # atno 17320 bound_to 7965
  144.8321  139.5611  143.6939 LP  0  0  0  0  0  0  0  0  0  0  0  0  # atno 17321 bound_to 7965
  140.3731  144.2830  150.5917 LP  0  0  0  0  0  0  0  0  0  0  0  0  # atno 17342 bound_to 10162
  140.5301  143.2245  151.8252 LP  0  0  0  0  0  0  0  0  0  0  0  0  # atno 17343 bound_to 10162
  157.0530  131.0068  151.3247 LP  0  0  0  0  0  0  0  0  0  0  0  0  # atno 17370 bound_to 10713
  157.5127  130.7948  149.7722 LP  0  0  0  0  0  0  0  0  0  0  0  0  # atno 17371 bound_to 10713
  141.1997  133.6608  156.5859 LP  0  0  0  0  0  0  0  0  0  0  0  0  # atno 17394 bound_to 11000
  140.3682  134.7629  157.4580 LP  0  0  0  0  0  0  0  0  0  0  0  0  # atno 17395 bound_to 11000

$$$$
