AV-unprocessed.smi:1961|AV-procd|sdf|7921|dock3
  -GOLD-   2272010 83D 1   1.00000     0.00000
 Structure written by MMmdl.
 35 36  0  0  0  0  0  0  0  0  2 V2000
  144.1660  133.1357  162.0987 C   0  0  0  0  0  0  0  0  0  0  0  0
  144.4386  134.4389  162.8637 C   0  0  0  0  0  0  0  0  0  0  0  0
  143.1637  135.2406  163.1637 C   0  0  0  0  0  0  0  0  0  0  0  0
  145.4874  135.2747  162.1988 C   0  0  0  0  0  0  0  0  0  0  0  0
  145.2505  136.5001  161.7199 N   0  0  0  0  0  0  0  0  0  0  0  0
  146.3810  137.0692  161.1525 N   0  0  0  0  0  0  0  0  0  0  0  0
  147.4583  136.2742  161.2162 C   0  0  0  0  0  0  0  0  0  0  0  0
  148.6529  136.6374  160.7208 N   0  5  0  0  0  0  0  0  0  0  0  0
  149.0829  136.1215  159.5467 C   0  0  0  0  0  0  0  0  0  0  0  0
  148.8202  135.0022  159.1000 O   0  0  0  0  0  0  0  0  0  0  0  0
  149.8631  136.9524  158.8435 N   0  0  0  0  0  0  0  0  0  0  0  0
  150.4487  136.6510  157.5444 C   0  0  0  0  0  0  0  0  0  0  0  0
  151.2306  137.8573  157.0065 C   0  0  1  0  0  0  0  0  0  0  0  0
  151.7856  137.6483  155.5985 C   0  0  0  0  0  0  0  0  0  0  0  0
  151.9139  139.0712  155.1055 C   0  0  0  0  0  0  0  0  0  0  0  0
  150.6685  139.7201  155.7019 C   0  0  0  0  0  0  0  0  0  0  0  0
  150.3867  139.0024  156.9006 O   0  0  0  0  0  0  0  0  0  0  0  0
  147.1391  134.7186  161.9821 S   0  0  0  0  0  0  0  0  0  0  0  0
  145.0797  132.5521  161.9812 H   0  0  0  0  0  0  0  0  0  0  0  0
  143.7683  133.3365  161.1033 H   0  0  0  0  0  0  0  0  0  0  0  0
  143.4423  132.5140  162.6263 H   0  0  0  0  0  0  0  0  0  0  0  0
  144.8488  134.1451  163.8309 H   0  0  0  0  0  0  0  0  0  0  0  0
  143.3860  136.1132  163.7787 H   0  0  0  0  0  0  0  0  0  0  0  0
  142.4355  134.6336  163.7019 H   0  0  0  0  0  0  0  0  0  0  0  0
  142.6902  135.5918  162.2462 H   0  0  0  0  0  0  0  0  0  0  0  0
  150.0555  137.8624  159.2359 H   0  0  0  0  0  0  0  0  0  0  0  0
  151.1166  135.7943  157.6466 H   0  0  0  0  0  0  0  0  0  0  0  0
  149.6620  136.3667  156.8438 H   0  0  0  0  0  0  0  0  0  0  0  0
  152.0534  138.1064  157.6790 H   0  0  0  0  0  0  0  0  0  0  0  0
  152.7307  137.1046  155.5900 H   0  0  0  0  0  0  0  0  0  0  0  0
  151.0714  137.1036  154.9790 H   0  0  0  0  0  0  0  0  0  0  0  0
  152.8126  139.5308  155.5186 H   0  0  0  0  0  0  0  0  0  0  0  0
  151.9567  139.1484  154.0189 H   0  0  0  0  0  0  0  0  0  0  0  0
  150.8088  140.7834  155.8976 H   0  0  0  0  0  0  0  0  0  0  0  0
  149.8196  139.6091  155.0260 H   0  0  0  0  0  0  0  0  0  0  0  0
  1  2  1  0  0  0  0
  1 19  1  0  0  0  0
  1 20  1  0  0  0  0
  1 21  1  0  0  0  0
  2  3  1  0  0  0  0
  2  4  1  0  0  0  0
  2 22  1  0  0  0  0
  3 23  1  0  0  0  0
  3 24  1  0  0  0  0
  3 25  1  0  0  0  0
  4 18  1  0  0  0  0
  4  5  2  0  0  0  0
  5  6  1  0  0  0  0
  6  7  2  0  0  0  0
  7  8  1  0  0  0  0
  7 18  1  0  0  0  0
  8  9  1  0  0  0  0
  9 10  2  0  0  0  0
  9 11  1  0  0  0  0
 11 12  1  0  0  0  0
 11 26  1  0  0  0  0
 12 13  1  0  0  0  0
 12 27  1  0  0  0  0
 12 28  1  0  0  0  0
 13 17  1  0  0  0  0
 13 14  1  0  0  0  0
 13 29  1  0  0  0  0
 14 15  1  0  0  0  0
 14 30  1  0  0  0  0
 14 31  1  0  0  0  0
 15 16  1  0  0  0  0
 15 32  1  0  0  0  0
 15 33  1  0  0  0  0
 16 17  1  0  0  0  0
 16 34  1  0  0  0  0
 16 35  1  0  0  0  0
M  CHG  1   8  -1
M  END
> <s_m_source_file>
AV-unprocessed.smi

> <i_m_source_file_index>
1961

> <i_lp_mmshare_version>
43012

> <i_f3d_flags>
0

> <s_epik_input>
W0NIM11bQ0hdKFtDSDNdKWMxbm5jKHMxKVtOSF1DKD1PKVtOSF1bQ0gyXVtDQEBIXTJbQ0gyXVtDSDJdW0NIMl1PMg==

> <s_epik_cmdline>
J2VwaWtfcHl0aG9uJywgJy1waCcsICc3LjAnLCAnLXRuJywgJzgnLCAnLW1hJywgJzIwMCcsICctbWV0YWxfYmluZGluZycsICctaW1hZScsICc8aW5maWxlLm1hZT4nLCAnLW9tYWUnLCAnPG91dGZpbGUubWFlPic=

> <r_lp_tautomer_probability>
1

> <r_epik_Ionization_Penalty>
4.36179

> <r_epik_Ionization_Penalty_Charging>
4.21437

> <r_epik_Ionization_Penalty_Neutral>
0.147417

> <r_epik_State_Penalty>
4.21389

> <r_epik_Charging_Adjusted_Penalty>
8.42826

> <i_epik_Tot_Q>
-1

> <i_epik_Tot_abs_Q>
1

> <r_epik_Metal_State_Penalty>
0.693772

> <b_epik_Metal_Only>
1

> <s_lp_Force_Field>
OPLS_2005

> <r_lp_Energy>
8.86259

> <b_lp_Chiralities_Consistent>
1

> <s_lp_Variant>
AV-unprocessed.smi:1961-4

> <Gold.Version>
5.8.1

> <Gold.Id.Protein>
6NUR|6NUR_protein|mol2

> <Gold.PLP.Fitness>
39.2123

> <Gold.PLP.PLP>
-29.1713

> <Gold.PLP.part.hbond>
-3.4880

> <Gold.PLP.part.metal>
0.0000

> <Gold.PLP.part.buried>
-4.0936

> <Gold.PLP.part.nonpolar>
-22.5877

> <Gold.PLP.part.repulsive>
0.2101

> <Gold.PLP.ligand.clash>
0.0000

> <Gold.PLP.ligand.torsion>
1.0244

> <Gold.PLP.Chemscore.Hbond>
3.9840

> <Gold.PLP.Chemscore.CHOScore>
0.0000

> <Gold.PLP.Chemscore.Metal>
0.0000

> <Gold.Chemscore.Hbonds>
donor molecule, donor type, donor heavy atom, donor atom, acceptor molecule, acceptor atom, score
      P1  H  6896  6909       L1    10  0.50
      P1  H  6931  6943       L1     8  1.98
      P1  H  6934  6947       L1     6  0.78

> <Gold.PLP.Chemscore.Internal.Correction>
0.1378

> <Gold.Rescore>
     Score         DG    S(hbond)    S(metal)    S(lipo)     H(rot)  DE(clash)    DE(int)     intcor
     14.72     -15.77       1.89        0.00      65.04       1.42       0.04       1.01       ----

> <Gold.Chemscore.Fitness>
14.7159

> <Gold.Chemscore.DG>
-15.7675

> <Gold.Chemscore.ZeroCoef>
-5.4800

> <Gold.Chemscore.Hbond>
1.8895

> <Gold.Chemscore.Metal>
0.0000

> <Gold.Chemscore.Lipo>
65.0433

> <Gold.Chemscore.Internal_Hbond>
0.0000

> <Gold.Chemscore.DEClash>
0.0412

> <Gold.Chemscore.DEInternal>
1.0104

> <Gold.Chemscore.Rot>
1.4193

> <Gold.Chemscore.Internal.Correction>
   9.000000E+99

> <Gold.Chemscore.Hbonds>
donor molecule, donor type, donor heavy atom, donor atom, acceptor molecule, acceptor atom, score
      P1  H  6896  6909       L1    10  0.02
      P1  H  6931  6943       L1     8  0.22
      P1  H  6934  6947       L1     6  0.39

> <Gold.Chemscore.Hbond.Weighted>
-6.3108

> <Gold.Chemscore.Metal.Weighted>
-0.0000

> <Gold.Chemscore.Lipo.Weighted>
-7.6101

> <Gold.Chemscore.Internal_Hbond.Weighted>
0.0000

> <Gold.Chemscore.DEClash.Weighted>
0.0412

> <Gold.Chemscore.DEInternal.Weighted>
1.0104

> <Gold.Chemscore.Rot.Weighted>
3.6333

> <Gold.Chemscore.Internal.Correction.Weighted>
   9.000000E+99

> <Gold.Protein.RotatedTorsions>
[ 6907 6896 6895 6894 ] final   39.19 input  -60.11 | X-H torsion
[ 7974 7965 7964 7962 ] final  135.67 input  175.53 | X-H torsion
[ 8008 7997 7996 7995 ] final -174.69 input   59.86 | X-H torsion
[ 10167 10162 10161 10158 ] final  113.21 input  -65.29 | X-H torsion
[ 10718 10713 10712 10709 ] final   20.69 input   66.30 | X-H torsion
[ 10763 10752 10751 10750 ] final -122.85 input  -60.55 | X-H torsion
[ 11005 11000 10999 10996 ] final  -45.24 input  -57.11 | X-H torsion

> <Gold.Protein.ActiveResidues>
 VAL166  LYS551  ARG553  GLY616  TRP617  ASP618  TYR619  PRO620  LYS621  CYS622 
 ASP623  PHE694  ASN695  SER759  ASP760  ASP761  ALA762  ILE779  LEU786  VAL792 
 PHE793  MET794  SER795  GLU796  ALA797  LYS798  CYS799  TRP800  GLU811  SER814 

> <Gold.Protein.RotatedAtoms>
  152.1663  134.8871  160.0537 H   0  0  0  0  0  0  0  0  0  0  0  0  # atno 6907 bound_to 6896
  151.9847  133.3765  159.4129 H   0  0  0  0  0  0  0  0  0  0  0  0  # atno 6908 bound_to 6896
  150.6895  134.3923  159.5126 H   0  0  0  0  0  0  0  0  0  0  0  0  # atno 6909 bound_to 6896
  144.9640  139.4678  143.5465 H   0  0  0  0  0  0  0  0  0  0  0  0  # atno 7974 bound_to 7965
  155.9732  140.1167  157.0793 H   0  0  0  0  0  0  0  0  0  0  0  0  # atno 8008 bound_to 7997
  154.4162  140.1159  156.5402 H   0  0  0  0  0  0  0  0  0  0  0  0  # atno 8009 bound_to 7997
  155.6569  140.3473  155.4770 H   0  0  0  0  0  0  0  0  0  0  0  0  # atno 8010 bound_to 7997
  139.6478  144.7127  151.2107 H   0  0  0  0  0  0  0  0  0  0  0  0  # atno 10167 bound_to 10162
  157.1280  130.6578  149.5943 H   0  0  0  0  0  0  0  0  0  0  0  0  # atno 10718 bound_to 10713
  154.8697  135.4118  154.2849 H   0  0  0  0  0  0  0  0  0  0  0  0  # atno 10763 bound_to 10752
  153.3735  135.7008  153.6625 H   0  0  0  0  0  0  0  0  0  0  0  0  # atno 10764 bound_to 10752
  153.5477  135.3635  155.2718 H   0  0  0  0  0  0  0  0  0  0  0  0  # atno 10765 bound_to 10752
  141.0503  133.6745  156.2986 H   0  0  0  0  0  0  0  0  0  0  0  0  # atno 11005 bound_to 11000
  146.3362  139.8809  142.8824 LP  0  0  0  0  0  0  0  0  0  0  0  0  # atno 17320 bound_to 7965
  145.2657  141.0092  143.3801 LP  0  0  0  0  0  0  0  0  0  0  0  0  # atno 17321 bound_to 7965
  140.7523  143.6201  150.8522 LP  0  0  0  0  0  0  0  0  0  0  0  0  # atno 17342 bound_to 10162
  139.9846  143.5914  152.2931 LP  0  0  0  0  0  0  0  0  0  0  0  0  # atno 17343 bound_to 10162
  155.9814  130.4821  150.6825 LP  0  0  0  0  0  0  0  0  0  0  0  0  # atno 17370 bound_to 10713
  157.4417  131.0862  151.0936 LP  0  0  0  0  0  0  0  0  0  0  0  0  # atno 17371 bound_to 10713
  140.6068  134.5499  157.5527 LP  0  0  0  0  0  0  0  0  0  0  0  0  # atno 17394 bound_to 11000
  139.9345  134.7901  156.0841 LP  0  0  0  0  0  0  0  0  0  0  0  0  # atno 17395 bound_to 11000

$$$$
