AV-unprocessed.smi:143|AV-procd|sdf|1193|dock2
  -GOLD-   2262018353D 1   1.00000     0.00000
 Structure written by MMmdl.
 38 40  0  0  0  0  0  0  0  0  1 V2000
  151.5863  137.1109  159.5436 O   0  0  0  0  0  0  0  0  0  0  0  0
  152.3977  137.4606  158.6841 C   0  0  0  0  0  0  0  0  0  0  0  0
  151.9156  138.2236  157.4317 C   0  0  0  0  0  0  0  0  0  0  0  0
  151.3762  139.5443  157.7366 N   0  0  0  0  0  0  0  0  0  0  0  0
  150.0137  139.7881  157.4297 C   0  0  0  0  0  0  0  0  0  0  0  0
  149.2937  138.9290  156.9177 O   0  0  0  0  0  0  0  0  0  0  0  0
  149.5419  141.1218  157.7853 C   0  0  0  0  0  0  0  0  0  0  0  0
  148.2625  141.4590  157.5503 F   0  0  0  0  0  0  0  0  0  0  0  0
  150.3693  142.0257  158.3531 C   0  0  0  0  0  0  0  0  0  0  0  0
  151.7001  141.7675  158.6269 N   0  0  0  0  0  0  0  0  0  0  0  0
  152.5305  142.8277  159.3130 C   0  0  2  0  0  0  0  0  0  0  0  0
  153.0987  142.3831  160.6743 C   0  0  0  0  0  0  0  0  0  0  0  0
  152.5344  143.4189  161.6328 C   0  0  0  0  0  0  0  0  0  0  0  0
  152.1968  144.5857  160.7113 C   0  0  0  0  0  0  0  0  0  0  0  0
  151.7293  143.9472  159.5336 O   0  0  0  0  0  0  0  0  0  0  0  0
  152.2356  140.4879  158.3507 C   0  0  0  0  0  0  0  0  0  0  0  0
  153.3987  140.2065  158.6451 O   0  0  0  0  0  0  0  0  0  0  0  0
  153.8574  137.1687  158.7901 C   0  0  0  0  0  0  0  0  0  0  0  0
  154.7095  137.4995  157.7100 C   0  0  0  0  0  0  0  0  0  0  0  0
  156.0912  137.2350  157.7778 C   0  0  0  0  0  0  0  0  0  0  0  0
  156.6379  136.6315  158.9250 C   0  0  0  0  0  0  0  0  0  0  0  0
  158.5045  136.2720  159.0167 Br  0  0  0  0  0  0  0  0  0  0  0  0
  155.8008  136.2935  160.0042 C   0  0  0  0  0  0  0  0  0  0  0  0
  154.4190  136.5593  159.9386 C   0  0  0  0  0  0  0  0  0  0  0  0
  152.7259  138.3499  156.7122 H   0  0  0  0  0  0  0  0  0  0  0  0
  151.1425  137.6630  156.9038 H   0  0  0  0  0  0  0  0  0  0  0  0
  149.9635  142.9957  158.6006 H   0  0  0  0  0  0  0  0  0  0  0  0
  153.3249  143.0886  158.6122 H   0  0  0  0  0  0  0  0  0  0  0  0
  152.8171  141.3623  160.9344 H   0  0  0  0  0  0  0  0  0  0  0  0
  154.1867  142.4404  160.6311 H   0  0  0  0  0  0  0  0  0  0  0  0
  151.6259  143.0411  162.1026 H   0  0  0  0  0  0  0  0  0  0  0  0
  153.2337  143.6928  162.4230 H   0  0  0  0  0  0  0  0  0  0  0  0
  151.4454  145.2535  161.1331 H   0  0  0  0  0  0  0  0  0  0  0  0
  153.0889  145.1700  160.4802 H   0  0  0  0  0  0  0  0  0  0  0  0
  154.3137  137.9637  156.8180 H   0  0  0  0  0  0  0  0  0  0  0  0
  156.7309  137.4957  156.9475 H   0  0  0  0  0  0  0  0  0  0  0  0
  156.2179  135.8287  160.8854 H   0  0  0  0  0  0  0  0  0  0  0  0
  153.8095  136.2827  160.7855 H   0  0  0  0  0  0  0  0  0  0  0  0
  1  2  2  0  0  0  0
  2  3  1  0  0  0  0
  2 18  1  0  0  0  0
  3  4  1  0  0  0  0
  3 25  1  0  0  0  0
  3 26  1  0  0  0  0
  4 16  1  0  0  0  0
  4  5  1  0  0  0  0
  5  6  2  0  0  0  0
  5  7  1  0  0  0  0
  7  8  1  0  0  0  0
  7  9  2  0  0  0  0
  9 10  1  0  0  0  0
  9 27  1  0  0  0  0
 10 11  1  0  0  0  0
 10 16  1  0  0  0  0
 11 15  1  0  0  0  0
 11 12  1  0  0  0  0
 11 28  1  0  0  0  0
 12 13  1  0  0  0  0
 12 29  1  0  0  0  0
 12 30  1  0  0  0  0
 13 14  1  0  0  0  0
 13 31  1  0  0  0  0
 13 32  1  0  0  0  0
 14 15  1  0  0  0  0
 14 33  1  0  0  0  0
 14 34  1  0  0  0  0
 16 17  2  0  0  0  0
 18 24  1  0  0  0  0
 18 19  2  0  0  0  0
 19 20  1  0  0  0  0
 19 35  1  0  0  0  0
 20 21  2  0  0  0  0
 20 36  1  0  0  0  0
 21 22  1  0  0  0  0
 21 23  1  0  0  0  0
 23 24  2  0  0  0  0
 23 37  1  0  0  0  0
 24 38  1  0  0  0  0
M  END
> <s_m_source_file>
AV-unprocessed.smi

> <i_m_source_file_index>
143

> <i_lp_mmshare_version>
43012

> <i_f3d_flags>
0

> <s_epik_input>
W2NIXTFbY0hdYyhCcilbY0hdW2NIXWMxQyg9TylbQ0gyXW4yYyg9TyljKEYpW2NIXW4oYzI9TylbQ0BASF0zW0NIMl1bQ0gyXVtDSDJdTzM=

> <s_epik_cmdline>
J2VwaWtfcHl0aG9uJywgJy1waCcsICc3LjAnLCAnLXRuJywgJzgnLCAnLW1hJywgJzIwMCcsICctbWV0YWxfYmluZGluZycsICctaW1hZScsICc8aW5maWxlLm1hZT4nLCAnLW9tYWUnLCAnPG91dGZpbGUubWFlPic=

> <r_lp_tautomer_probability>
1

> <r_epik_Ionization_Penalty>
4.7008e-09

> <r_epik_Ionization_Penalty_Charging>
4.69459e-09

> <r_epik_Ionization_Penalty_Neutral>
6.21034e-12

> <r_epik_State_Penalty>
-0

> <r_epik_Charging_Adjusted_Penalty>
4.69459e-09

> <i_epik_Tot_Q>
0

> <i_epik_Tot_abs_Q>
0

> <r_epik_Metal_State_Penalty>
-0

> <b_epik_Metal_Only>
0

> <s_epik_Chemistry_Notes>
This compound contains an acetal/aminal-like group ( X-CH(R)-Y where X, Y are N, S, or O) that may be acid/base labile, releasing an aldehyde.

> <s_lp_Force_Field>
OPLS_2005

> <r_lp_Energy>
36.1645

> <b_lp_Chiralities_Consistent>
1

> <s_lp_Variant>
AV-unprocessed.smi:143-1

> <Gold.Version>
5.8.1

> <Gold.Id.Protein>
6NUR|6NUR_protein|mol2

> <Gold.PLP.Fitness>
40.6973

> <Gold.PLP.PLP>
-34.9481

> <Gold.PLP.part.hbond>
-2.0000

> <Gold.PLP.part.metal>
0.0000

> <Gold.PLP.part.buried>
-6.4178

> <Gold.PLP.part.nonpolar>
-25.1311

> <Gold.PLP.part.repulsive>
0.0244

> <Gold.PLP.ligand.clash>
0.0000

> <Gold.PLP.ligand.torsion>
0.0584

> <Gold.PLP.Chemscore.Hbond>
1.9440

> <Gold.PLP.Chemscore.CHOScore>
0.0000

> <Gold.PLP.Chemscore.Metal>
0.0000

> <Gold.Chemscore.Hbonds>
donor molecule, donor type, donor heavy atom, donor atom, acceptor molecule, acceptor atom, score
      P1  H  6896  6908       L1     1  1.00
      P1  H  7997  8008       L1    17  0.94

> <Gold.PLP.Chemscore.Internal.Correction>
0.0341

> <Gold.Rescore>
     Score         DG    S(hbond)    S(metal)    S(lipo)     H(rot)  DE(clash)    DE(int)     intcor
     13.20     -15.56       1.93        0.00      65.56       1.58       0.01       2.34       ----

> <Gold.Chemscore.Fitness>
13.2032

> <Gold.Chemscore.DG>
-15.5565

> <Gold.Chemscore.ZeroCoef>
-5.4800

> <Gold.Chemscore.Hbond>
1.9285

> <Gold.Chemscore.Metal>
0.0000

> <Gold.Chemscore.Lipo>
65.5645

> <Gold.Chemscore.Internal_Hbond>
0.0000

> <Gold.Chemscore.DEClash>
0.0149

> <Gold.Chemscore.DEInternal>
2.3384

> <Gold.Chemscore.Rot>
1.5765

> <Gold.Chemscore.Internal.Correction>
   9.000000E+99

> <Gold.Chemscore.Hbonds>
donor molecule, donor type, donor heavy atom, donor atom, acceptor molecule, acceptor atom, score
      P1  H  6896  6908       L1     1  0.92
      P1  H  7997  8008       L1    17  0.79

> <Gold.Chemscore.Hbond.Weighted>
-6.4413

> <Gold.Chemscore.Metal.Weighted>
-0.0000

> <Gold.Chemscore.Lipo.Weighted>
-7.6710

> <Gold.Chemscore.Internal_Hbond.Weighted>
0.0000

> <Gold.Chemscore.DEClash.Weighted>
0.0149

> <Gold.Chemscore.DEInternal.Weighted>
2.3384

> <Gold.Chemscore.Rot.Weighted>
4.0359

> <Gold.Chemscore.Internal.Correction.Weighted>
   9.000000E+99

> <Gold.Protein.RotatedTorsions>
[ 6907 6896 6895 6894 ] final -126.41 input  -60.11 | X-H torsion
[ 7974 7965 7964 7962 ] final   43.01 input  175.53 | X-H torsion
[ 8008 7997 7996 7995 ] final  -89.17 input   59.86 | X-H torsion
[ 10167 10162 10161 10158 ] final  178.74 input  -65.29 | X-H torsion
[ 10718 10713 10712 10709 ] final   88.51 input   66.30 | X-H torsion
[ 10763 10752 10751 10750 ] final   42.67 input  -60.55 | X-H torsion
[ 11005 11000 10999 10996 ] final   88.40 input  -57.11 | X-H torsion

> <Gold.Protein.ActiveResidues>
 VAL166  LYS551  ARG553  GLY616  TRP617  ASP618  TYR619  PRO620  LYS621  CYS622 
 ASP623  PHE694  ASN695  SER759  ASP760  ASP761  ALA762  ILE779  LEU786  VAL792 
 PHE793  MET794  SER795  GLU796  ALA797  LYS798  CYS799  TRP800  GLU811  SER814 

> <Gold.Protein.RotatedAtoms>
  150.8966  133.7173  159.2889 H   0  0  0  0  0  0  0  0  0  0  0  0  # atno 6907 bound_to 6896
  151.4705  135.1044  159.9760 H   0  0  0  0  0  0  0  0  0  0  0  0  # atno 6908 bound_to 6896
  152.4852  133.8307  159.7157 H   0  0  0  0  0  0  0  0  0  0  0  0  # atno 6909 bound_to 6896
  146.0692  139.5235  142.9609 H   0  0  0  0  0  0  0  0  0  0  0  0  # atno 7974 bound_to 7965
  154.6834  140.0545  157.0290 H   0  0  0  0  0  0  0  0  0  0  0  0  # atno 8008 bound_to 7997
  155.0919  140.3220  155.4552 H   0  0  0  0  0  0  0  0  0  0  0  0  # atno 8009 bound_to 7997
  156.2702  140.2046  156.6046 H   0  0  0  0  0  0  0  0  0  0  0  0  # atno 8010 bound_to 7997
  139.5306  144.2644  152.0680 H   0  0  0  0  0  0  0  0  0  0  0  0  # atno 10167 bound_to 10162
  157.6949  131.0297  150.3285 H   0  0  0  0  0  0  0  0  0  0  0  0  # atno 10718 bound_to 10713
  152.9877  135.6125  154.2987 H   0  0  0  0  0  0  0  0  0  0  0  0  # atno 10763 bound_to 10752
  154.2709  135.2779  155.2740 H   0  0  0  0  0  0  0  0  0  0  0  0  # atno 10764 bound_to 10752
  154.5123  135.5837  153.6672 H   0  0  0  0  0  0  0  0  0  0  0  0  # atno 10765 bound_to 10752
  139.8897  134.8485  156.2994 H   0  0  0  0  0  0  0  0  0  0  0  0  # atno 11005 bound_to 11000
  145.6422  141.0282  143.1805 LP  0  0  0  0  0  0  0  0  0  0  0  0  # atno 17320 bound_to 7965
  144.7221  139.7996  143.7378 LP  0  0  0  0  0  0  0  0  0  0  0  0  # atno 17321 bound_to 7965
  140.2107  144.4565  150.6387 LP  0  0  0  0  0  0  0  0  0  0  0  0  # atno 17342 bound_to 10162
  140.6482  143.2218  151.6138 LP  0  0  0  0  0  0  0  0  0  0  0  0  # atno 17343 bound_to 10162
  156.3762  130.3872  149.7137 LP  0  0  0  0  0  0  0  0  0  0  0  0  # atno 17370 bound_to 10713
  156.4534  130.7917  151.2939 LP  0  0  0  0  0  0  0  0  0  0  0  0  # atno 17371 bound_to 10713
  140.9923  133.7201  156.0833 LP  0  0  0  0  0  0  0  0  0  0  0  0  # atno 17394 bound_to 11000
  140.7608  134.3941  157.5526 LP  0  0  0  0  0  0  0  0  0  0  0  0  # atno 17395 bound_to 11000

$$$$
