AV-unprocessed.smi:1762|AV-procd|sdf|7118|dock4
  -GOLD-   22720 8343D 1   1.00000     0.00000
 Structure written by MMmdl.
 53 54  0  0  0  0  0  0  0  0  2 V2000
  149.7850  136.9613  158.0467 C   0  0  0  0  0  0  0  0  0  0  0  0
  150.2491  136.4721  156.6629 C   0  0  1  0  0  0  0  0  0  0  0  0
  149.2937  136.8634  155.5207 C   0  0  0  0  0  0  0  0  0  0  0  0
  149.3667  138.3216  155.2160 N   0  3  2  0  0  0  0  0  0  0  0  0
  148.3581  138.7569  154.1889 C   0  0  1  0  0  0  0  0  0  0  0  0
  147.0804  137.8935  154.2714 C   0  0  0  0  0  0  0  0  0  0  0  0
  146.2514  138.0983  155.1593 O   0  0  0  0  0  0  0  0  0  0  0  0
  146.9381  136.9364  153.3423 N   0  0  0  0  0  0  0  0  0  0  0  0
  145.8023  136.0289  153.2492 C   0  0  0  0  0  0  0  0  0  0  0  0
  145.5511  135.6308  151.7882 C   0  0  0  0  0  0  0  0  0  0  0  0
  145.3039  134.1422  151.6315 C   0  0  0  0  0  0  0  0  0  0  0  0
  146.2742  133.2029  152.0414 C   0  0  0  0  0  0  0  0  0  0  0  0
  145.9924  131.8327  151.8775 C   0  0  0  0  0  0  0  0  0  0  0  0
  144.7574  131.4568  151.3149 C   0  0  0  0  0  0  0  0  0  0  0  0
  143.8554  132.4721  150.9392 C   0  0  0  0  0  0  0  0  0  0  0  0
  144.1162  133.7886  151.0904 N   0  0  0  0  0  0  0  0  0  0  0  0
  147.9966  140.2806  154.2418 C   0  0  0  0  0  0  0  0  0  0  0  0
  147.1408  140.7636  153.0520 C   0  0  0  0  0  0  0  0  0  0  0  0
  149.2269  141.1939  154.4118 C   0  0  0  0  0  0  0  0  0  0  0  0
  150.7810  138.6775  154.9168 C   0  0  0  0  0  0  0  0  0  0  0  0
  151.7089  138.2789  156.0797 C   0  0  2  0  0  0  0  0  0  0  0  0
  153.1815  138.5559  155.7578 C   0  0  0  0  0  0  0  0  0  0  0  0
  151.5759  136.8886  156.3511 O   0  0  0  0  0  0  0  0  0  0  0  0
  148.8283  136.5115  158.3135 H   0  0  0  0  0  0  0  0  0  0  0  0
  149.6528  138.0423  158.0825 H   0  0  0  0  0  0  0  0  0  0  0  0
  150.5045  136.6853  158.8179 H   0  0  0  0  0  0  0  0  0  0  0  0
  150.2809  135.3831  156.7095 H   0  0  0  0  0  0  0  0  0  0  0  0
  149.5530  136.3021  154.6216 H   0  0  0  0  0  0  0  0  0  0  0  0
  148.2855  136.5538  155.7949 H   0  0  0  0  0  0  0  0  0  0  0  0
  148.8181  138.5739  153.2156 H   0  0  0  0  0  0  0  0  0  0  0  0
  147.6625  136.8343  152.6460 H   0  0  0  0  0  0  0  0  0  0  0  0
  146.0092  135.1440  153.8524 H   0  0  0  0  0  0  0  0  0  0  0  0
  144.9063  136.4972  153.6608 H   0  0  0  0  0  0  0  0  0  0  0  0
  144.6895  136.1738  151.3965 H   0  0  0  0  0  0  0  0  0  0  0  0
  146.4023  135.9199  151.1703 H   0  0  0  0  0  0  0  0  0  0  0  0
  147.2120  133.5218  152.4719 H   0  0  0  0  0  0  0  0  0  0  0  0
  146.7102  131.0839  152.1789 H   0  0  0  0  0  0  0  0  0  0  0  0
  144.5070  130.4156  151.1748 H   0  0  0  0  0  0  0  0  0  0  0  0
  142.8991  132.2202  150.5053 H   0  0  0  0  0  0  0  0  0  0  0  0
  147.4225  140.4556  155.1503 H   0  0  0  0  0  0  0  0  0  0  0  0
  147.7013  140.7425  152.1172 H   0  0  0  0  0  0  0  0  0  0  0  0
  146.8091  141.7909  153.2056 H   0  0  0  0  0  0  0  0  0  0  0  0
  146.2483  140.1539  152.9141 H   0  0  0  0  0  0  0  0  0  0  0  0
  149.8508  141.2152  153.5177 H   0  0  0  0  0  0  0  0  0  0  0  0
  149.8476  140.8684  155.2471 H   0  0  0  0  0  0  0  0  0  0  0  0
  148.9222  142.2212  154.6145 H   0  0  0  0  0  0  0  0  0  0  0  0
  151.0924  138.1901  153.9913 H   0  0  0  0  0  0  0  0  0  0  0  0
  150.9010  139.7492  154.7737 H   0  0  0  0  0  0  0  0  0  0  0  0
  151.4467  138.8531  156.9684 H   0  0  0  0  0  0  0  0  0  0  0  0
  153.3477  139.6145  155.5564 H   0  0  0  0  0  0  0  0  0  0  0  0
  153.5075  137.9937  154.8824 H   0  0  0  0  0  0  0  0  0  0  0  0
  153.8228  138.2730  156.5929 H   0  0  0  0  0  0  0  0  0  0  0  0
  149.1230  138.8102  156.0661 H   0  0  0  0  0  0  0  0  0  0  0  0
  1  2  1  0  0  0  0
  1 24  1  0  0  0  0
  1 25  1  0  0  0  0
  1 26  1  0  0  0  0
  2 23  1  0  0  0  0
  2  3  1  0  0  0  0
  2 27  1  0  0  0  0
  3  4  1  0  0  0  0
  3 28  1  0  0  0  0
  3 29  1  0  0  0  0
  4  5  1  0  0  0  0
  4 20  1  0  0  0  0
  4 53  1  0  0  0  0
  5  6  1  0  0  0  0
  5 17  1  0  0  0  0
  5 30  1  0  0  0  0
  6  7  2  0  0  0  0
  6  8  1  0  0  0  0
  8  9  1  0  0  0  0
  8 31  1  0  0  0  0
  9 10  1  0  0  0  0
  9 32  1  0  0  0  0
  9 33  1  0  0  0  0
 10 11  1  0  0  0  0
 10 34  1  0  0  0  0
 10 35  1  0  0  0  0
 11 16  1  0  0  0  0
 11 12  2  0  0  0  0
 12 13  1  0  0  0  0
 12 36  1  0  0  0  0
 13 14  2  0  0  0  0
 13 37  1  0  0  0  0
 14 15  1  0  0  0  0
 14 38  1  0  0  0  0
 15 16  2  0  0  0  0
 15 39  1  0  0  0  0
 17 18  1  0  0  0  0
 17 19  1  0  0  0  0
 17 40  1  0  0  0  0
 18 41  1  0  0  0  0
 18 42  1  0  0  0  0
 18 43  1  0  0  0  0
 19 44  1  0  0  0  0
 19 45  1  0  0  0  0
 19 46  1  0  0  0  0
 20 21  1  0  0  0  0
 20 47  1  0  0  0  0
 20 48  1  0  0  0  0
 21 22  1  0  0  0  0
 21 23  1  0  0  0  0
 21 49  1  0  0  0  0
 22 50  1  0  0  0  0
 22 51  1  0  0  0  0
 22 52  1  0  0  0  0
M  CHG  1   4   1
M  END
> <s_m_source_file>
AV-unprocessed.smi

> <i_m_source_file_index>
1762

> <i_lp_mmshare_version>
43012

> <i_f3d_flags>
0

> <s_epik_input>
W0NIM11bQ0BASF0xW0NIMl1OKFtDSDJdW0NASF0oTzEpW0NIM10pW0NAQEhdKFtDSF0oW0NIM10pW0NIM10pQyg9TylbTkhdW0NIMl1bQ0gyXWMyW2NIXVtjSF1bY0hdW2NIXW4y

> <s_epik_cmdline>
J2VwaWtfcHl0aG9uJywgJy1waCcsICc3LjAnLCAnLXRuJywgJzgnLCAnLW1hJywgJzIwMCcsICctbWV0YWxfYmluZGluZycsICctaW1hZScsICc8aW5maWxlLm1hZT4nLCAnLW9tYWUnLCAnPG91dGZpbGUubWFlPic=

> <r_epik_Ionization_Penalty>
2.27005

> <r_epik_Ionization_Penalty_Charging>
2.24983

> <r_epik_Ionization_Penalty_Neutral>
0.0202209

> <r_epik_State_Penalty>
2.40228

> <r_epik_Charging_Adjusted_Penalty>
4.65211

> <i_epik_Tot_Q>
1

> <i_epik_Tot_abs_Q>
1

> <r_epik_Metal_State_Penalty>
2.40762

> <b_epik_Metal_Only>
0

> <s_lp_Force_Field>
OPLS_2005

> <r_lp_Energy>
25.0813

> <b_lp_Chiralities_Consistent>
1

> <s_lp_Variant>
AV-unprocessed.smi:1762-20

> <Gold.Version>
5.8.1

> <Gold.Id.Protein>
6NUR|6NUR_protein|mol2

> <Gold.PLP.Fitness>
42.6001

> <Gold.PLP.PLP>
-36.8781

> <Gold.PLP.part.hbond>
-2.0000

> <Gold.PLP.part.metal>
0.0000

> <Gold.PLP.part.buried>
-4.4527

> <Gold.PLP.part.nonpolar>
-32.8698

> <Gold.PLP.part.repulsive>
0.4465

> <Gold.PLP.ligand.clash>
0.2761

> <Gold.PLP.ligand.torsion>
1.4353

> <Gold.PLP.Chemscore.Hbond>
1.8480

> <Gold.PLP.Chemscore.CHOScore>
1.0287

> <Gold.PLP.Chemscore.Metal>
0.0000

> <Gold.Chemscore.Hbonds>
donor molecule, donor type, donor heavy atom, donor atom, acceptor molecule, acceptor atom, score
      L1  H     8    31       P1  7948  1.00

> <Gold.PLP.Chemscore.Internal.Correction>
0.2385

> <Gold.Rescore>
     Score         DG    S(hbond)    S(metal)    S(lipo)     H(rot)  DE(clash)    DE(int)     intcor
     16.84     -19.23       1.79        0.00     102.92       1.66       0.05       2.33       ----

> <Gold.Chemscore.Fitness>
16.8434

> <Gold.Chemscore.DG>
-19.2252

> <Gold.Chemscore.ZeroCoef>
-5.4800

> <Gold.Chemscore.Hbond>
1.7852

> <Gold.Chemscore.Metal>
0.0000

> <Gold.Chemscore.Lipo>
102.9163

> <Gold.Chemscore.Internal_Hbond>
0.0000

> <Gold.Chemscore.DEClash>
0.0479

> <Gold.Chemscore.DEInternal>
2.3339

> <Gold.Chemscore.Rot>
1.6635

> <Gold.Chemscore.Internal.Correction>
   9.000000E+99

> <Gold.Chemscore.Hbonds>
donor molecule, donor type, donor heavy atom, donor atom, acceptor molecule, acceptor atom, score
      L1  H     8    31       P1  7948  0.99
      P1  H 10752 10765       L1    23  0.03

> <Gold.Chemscore.Hbond.Weighted>
-5.9626

> <Gold.Chemscore.Metal.Weighted>
-0.0000

> <Gold.Chemscore.Lipo.Weighted>
-12.0412

> <Gold.Chemscore.Internal_Hbond.Weighted>
0.0000

> <Gold.Chemscore.DEClash.Weighted>
0.0479

> <Gold.Chemscore.DEInternal.Weighted>
2.3339

> <Gold.Chemscore.Rot.Weighted>
4.2586

> <Gold.Chemscore.Internal.Correction.Weighted>
   9.000000E+99

> <Gold.Protein.RotatedTorsions>
[ 6907 6896 6895 6894 ] final   20.95 input  -60.11 | X-H torsion
[ 7974 7965 7964 7962 ] final -176.55 input  175.53 | X-H torsion
[ 8008 7997 7996 7995 ] final  165.39 input   59.86 | X-H torsion
[ 10167 10162 10161 10158 ] final  -75.31 input  -65.29 | X-H torsion
[ 10718 10713 10712 10709 ] final -152.93 input   66.30 | X-H torsion
[ 10763 10752 10751 10750 ] final -154.58 input  -60.55 | X-H torsion
[ 11005 11000 10999 10996 ] final -172.30 input  -57.11 | X-H torsion

> <Gold.Protein.ActiveResidues>
 VAL166  LYS551  ARG553  GLY616  TRP617  ASP618  TYR619  PRO620  LYS621  CYS622 
 ASP623  PHE694  ASN695  SER759  ASP760  ASP761  ALA762  ILE779  LEU786  VAL792 
 PHE793  MET794  SER795  GLU796  ALA797  LYS798  CYS799  TRP800  GLU811  SER814 

> <Gold.Protein.RotatedAtoms>
  151.9043  135.0365  160.0508 H   0  0  0  0  0  0  0  0  0  0  0  0  # atno 6907 bound_to 6896
  152.2332  133.5070  159.5236 H   0  0  0  0  0  0  0  0  0  0  0  0  # atno 6908 bound_to 6896
  150.7031  134.1105  159.4041 H   0  0  0  0  0  0  0  0  0  0  0  0  # atno 6909 bound_to 6896
  144.7127  140.1153  143.6408 H   0  0  0  0  0  0  0  0  0  0  0  0  # atno 7974 bound_to 7965
  156.1804  140.1671  156.8284 H   0  0  0  0  0  0  0  0  0  0  0  0  # atno 8008 bound_to 7997
  154.5354  140.0748  156.8451 H   0  0  0  0  0  0  0  0  0  0  0  0  # atno 8009 bound_to 7997
  155.3321  140.3380  155.4242 H   0  0  0  0  0  0  0  0  0  0  0  0  # atno 8010 bound_to 7997
  140.4953  143.2372  151.7840 H   0  0  0  0  0  0  0  0  0  0  0  0  # atno 10167 bound_to 10162
  156.4791  130.8294  151.2522 H   0  0  0  0  0  0  0  0  0  0  0  0  # atno 10718 bound_to 10713
  154.7848  135.3187  154.7910 H   0  0  0  0  0  0  0  0  0  0  0  0  # atno 10763 bound_to 10752
  153.8613  135.6853  153.4787 H   0  0  0  0  0  0  0  0  0  0  0  0  # atno 10764 bound_to 10752
  153.1496  135.4705  154.9556 H   0  0  0  0  0  0  0  0  0  0  0  0  # atno 10765 bound_to 10752
  140.4985  134.5916  157.4979 H   0  0  0  0  0  0  0  0  0  0  0  0  # atno 11005 bound_to 11000
  145.9419  139.2674  143.1264 LP  0  0  0  0  0  0  0  0  0  0  0  0  # atno 17320 bound_to 7965
  145.9415  140.8976  143.0305 LP  0  0  0  0  0  0  0  0  0  0  0  0  # atno 17321 bound_to 7965
  139.4860  144.4594  151.9559 LP  0  0  0  0  0  0  0  0  0  0  0  0  # atno 17342 bound_to 10162
  140.3682  144.2888  150.5923 LP  0  0  0  0  0  0  0  0  0  0  0  0  # atno 17343 bound_to 10162
  157.7485  131.0051  150.3100 LP  0  0  0  0  0  0  0  0  0  0  0  0  # atno 17370 bound_to 10713
  156.3540  130.3836  149.7305 LP  0  0  0  0  0  0  0  0  0  0  0  0  # atno 17371 bound_to 10713
  139.9727  134.7266  156.0009 LP  0  0  0  0  0  0  0  0  0  0  0  0  # atno 17394 bound_to 11000
  141.1448  133.6558  156.3834 LP  0  0  0  0  0  0  0  0  0  0  0  0  # atno 17395 bound_to 11000

$$$$
