AV-unprocessed.smi:1598|AV-procd|sdf|6421|dock4
  -GOLD-   22720 7 63D 1   1.00000     0.00000
 Structure written by MMmdl.
 39 39  0  0  0  0  0  0  0  0  1 V2000
  150.6252  145.0163  159.5980 C   0  0  0  0  0  0  0  0  0  0  0  0
  150.8646  143.6240  159.6976 O   0  0  0  0  0  0  0  0  0  0  0  0
  152.2435  143.3168  159.8367 C   0  0  0  0  0  0  0  0  0  0  0  0
  152.4414  141.7905  159.8467 C   0  0  2  0  0  0  0  0  0  0  0  0
  153.7024  141.3706  160.6144 C   0  0  0  0  0  0  0  0  0  0  0  0
  152.5051  141.2769  158.4831 N   0  0  0  0  0  0  0  0  0  0  0  0
  151.4695  141.1565  157.6352 C   0  0  0  0  0  0  0  0  0  0  0  0
  150.3156  141.4497  157.9452 O   0  0  0  0  0  0  0  0  0  0  0  0
  151.7558  140.6453  156.2101 C   0  0  0  0  0  0  0  0  0  0  0  0
  150.5526  140.2788  155.4168 N   0  0  0  0  0  0  0  0  0  0  0  0
  150.3841  138.9364  154.9512 C   0  0  0  0  0  0  0  0  0  0  0  0
  151.4395  137.8768  155.3008 C   0  0  0  0  0  0  0  0  0  0  0  0
  151.1112  136.6858  154.7979 F   0  0  0  0  0  0  0  0  0  0  0  0
  152.6253  138.2005  154.7841 F   0  0  0  0  0  0  0  0  0  0  0  0
  151.5647  137.7098  156.6171 F   0  0  0  0  0  0  0  0  0  0  0  0
  149.2917  138.6083  154.2370 C   0  0  0  0  0  0  0  0  0  0  0  0
  148.2994  139.6025  153.9347 C   0  0  0  0  0  0  0  0  0  0  0  0
  148.4426  140.8757  154.3676 C   0  0  0  0  0  0  0  0  0  0  0  0
  147.4459  141.9337  154.0841 C   0  0  0  0  0  0  0  0  0  0  0  0
  146.2117  141.4758  153.8395 N   0  0  0  0  0  0  0  0  0  0  0  0
  147.6419  143.1487  154.0565 O   0  0  0  0  0  0  0  0  0  0  0  0
  149.6327  141.2727  155.1634 C   0  0  0  0  0  0  0  0  0  0  0  0
  149.8184  142.4125  155.6001 O   0  0  0  0  0  0  0  0  0  0  0  0
  149.5547  145.1977  159.5038 H   0  0  0  0  0  0  0  0  0  0  0  0
  151.1176  145.4387  158.7212 H   0  0  0  0  0  0  0  0  0  0  0  0
  150.9788  145.5419  160.4861 H   0  0  0  0  0  0  0  0  0  0  0  0
  152.8094  143.7612  159.0163 H   0  0  0  0  0  0  0  0  0  0  0  0
  152.6279  143.7492  160.7619 H   0  0  0  0  0  0  0  0  0  0  0  0
  151.5873  141.3381  160.3534 H   0  0  0  0  0  0  0  0  0  0  0  0
  153.6712  141.7277  161.6439 H   0  0  0  0  0  0  0  0  0  0  0  0
  154.6048  141.7704  160.1507 H   0  0  0  0  0  0  0  0  0  0  0  0
  153.7984  140.2847  160.6451 H   0  0  0  0  0  0  0  0  0  0  0  0
  153.4205  141.0184  158.1448 H   0  0  0  0  0  0  0  0  0  0  0  0
  152.3355  141.4124  155.6935 H   0  0  0  0  0  0  0  0  0  0  0  0
  152.4683  139.8295  156.2851 H   0  0  0  0  0  0  0  0  0  0  0  0
  149.1399  137.5999  153.8821 H   0  0  0  0  0  0  0  0  0  0  0  0
  147.4462  139.2858  153.3534 H   0  0  0  0  0  0  0  0  0  0  0  0
  145.4634  142.1212  153.6325 H   0  0  0  0  0  0  0  0  0  0  0  0
  146.0354  140.4819  153.8604 H   0  0  0  0  0  0  0  0  0  0  0  0
  1  2  1  0  0  0  0
  1 24  1  0  0  0  0
  1 25  1  0  0  0  0
  1 26  1  0  0  0  0
  2  3  1  0  0  0  0
  3  4  1  0  0  0  0
  3 27  1  0  0  0  0
  3 28  1  0  0  0  0
  4  5  1  0  0  0  0
  4  6  1  0  0  0  0
  4 29  1  0  0  0  0
  5 30  1  0  0  0  0
  5 31  1  0  0  0  0
  5 32  1  0  0  0  0
  6  7  1  0  0  0  0
  6 33  1  0  0  0  0
  7  8  2  0  0  0  0
  7  9  1  0  0  0  0
  9 10  1  0  0  0  0
  9 34  1  0  0  0  0
  9 35  1  0  0  0  0
 10 22  1  0  0  0  0
 10 11  1  0  0  0  0
 11 12  1  0  0  0  0
 11 16  2  0  0  0  0
 12 13  1  0  0  0  0
 12 14  1  0  0  0  0
 12 15  1  0  0  0  0
 16 17  1  0  0  0  0
 16 36  1  0  0  0  0
 17 18  2  0  0  0  0
 17 37  1  0  0  0  0
 18 19  1  0  0  0  0
 18 22  1  0  0  0  0
 19 20  1  0  0  0  0
 19 21  2  0  0  0  0
 20 38  1  0  0  0  0
 20 39  1  0  0  0  0
 22 23  2  0  0  0  0
M  END
> <s_m_source_file>
AV-unprocessed.smi

> <i_m_source_file_index>
1598

> <i_lp_mmshare_version>
43012

> <i_f3d_flags>
0

> <s_epik_input>
W0NIM11PW0NIMl1bQ0BIXShbQ0gzXSlbTkhdQyg9TylbQ0gyXW4xYyhDKEYpKEYpRilbY0hdW2NIXWMoYzE9TylDKD1PKVtOSDJd

> <s_epik_cmdline>
J2VwaWtfcHl0aG9uJywgJy1waCcsICc3LjAnLCAnLXRuJywgJzgnLCAnLW1hJywgJzIwMCcsICctbWV0YWxfYmluZGluZycsICctaW1hZScsICc8aW5maWxlLm1hZT4nLCAnLW9tYWUnLCAnPG91dGZpbGUubWFlPic=

> <r_lp_tautomer_probability>
1

> <r_epik_Ionization_Penalty>
2.07884e-06

> <r_epik_Ionization_Penalty_Charging>
8.00383e-10

> <r_epik_Ionization_Penalty_Neutral>
2.07804e-06

> <r_epik_State_Penalty>
-0

> <r_epik_Charging_Adjusted_Penalty>
8.00383e-10

> <i_epik_Tot_Q>
0

> <i_epik_Tot_abs_Q>
0

> <r_epik_Metal_State_Penalty>
-0

> <b_epik_Metal_Only>
0

> <s_lp_Force_Field>
OPLS_2005

> <r_lp_Energy>
25.9184

> <b_lp_Chiralities_Consistent>
1

> <s_lp_Variant>
AV-unprocessed.smi:1598-1

> <Gold.Version>
5.8.1

> <Gold.Id.Protein>
6NUR|6NUR_protein|mol2

> <Gold.PLP.Fitness>
37.5345

> <Gold.PLP.PLP>
-37.0594

> <Gold.PLP.part.hbond>
-2.4682

> <Gold.PLP.part.metal>
0.0000

> <Gold.PLP.part.buried>
-2.7763

> <Gold.PLP.part.nonpolar>
-40.0112

> <Gold.PLP.part.repulsive>
8.2020

> <Gold.PLP.ligand.clash>
3.8946

> <Gold.PLP.ligand.torsion>
0.8671

> <Gold.PLP.Chemscore.Hbond>
0.6880

> <Gold.PLP.Chemscore.CHOScore>
0.0000

> <Gold.PLP.Chemscore.Metal>
0.0000

> <Gold.Chemscore.Hbonds>
donor molecule, donor type, donor heavy atom, donor atom, acceptor molecule, acceptor atom, score
      P1  H  8022  8030       L1    21  0.72

> <Gold.PLP.Chemscore.Internal.Correction>
4.0399

> <Gold.Rescore>
     Score         DG    S(hbond)    S(metal)    S(lipo)     H(rot)  DE(clash)    DE(int)     intcor
     -0.38     -10.86       0.89        0.00      73.82       2.43       1.76       9.48       ----

> <Gold.Chemscore.Fitness>
-0.3845

> <Gold.Chemscore.DG>
-10.8627

> <Gold.Chemscore.ZeroCoef>
-5.4800

> <Gold.Chemscore.Hbond>
0.8874

> <Gold.Chemscore.Metal>
0.0000

> <Gold.Chemscore.Lipo>
73.8182

> <Gold.Chemscore.Internal_Hbond>
0.0000

> <Gold.Chemscore.DEClash>
1.7648

> <Gold.Chemscore.DEInternal>
9.4824

> <Gold.Chemscore.Rot>
2.4289

> <Gold.Chemscore.Internal.Correction>
   9.000000E+99

> <Gold.Chemscore.Hbonds>
donor molecule, donor type, donor heavy atom, donor atom, acceptor molecule, acceptor atom, score
      P1  H  8022  8030       L1    21  0.72

> <Gold.Chemscore.Hbond.Weighted>
-2.9640

> <Gold.Chemscore.Metal.Weighted>
-0.0000

> <Gold.Chemscore.Lipo.Weighted>
-8.6367

> <Gold.Chemscore.Internal_Hbond.Weighted>
0.0000

> <Gold.Chemscore.DEClash.Weighted>
1.7648

> <Gold.Chemscore.DEInternal.Weighted>
9.4824

> <Gold.Chemscore.Rot.Weighted>
6.2180

> <Gold.Chemscore.Internal.Correction.Weighted>
   9.000000E+99

> <Gold.Protein.RotatedTorsions>
[ 6907 6896 6895 6894 ] final  -85.68 input  -60.11 | X-H torsion
[ 7974 7965 7964 7962 ] final   16.59 input  175.53 | X-H torsion
[ 8008 7997 7996 7995 ] final  -41.34 input   59.86 | X-H torsion
[ 10167 10162 10161 10158 ] final  -41.97 input  -65.29 | X-H torsion
[ 10718 10713 10712 10709 ] final  -16.40 input   66.30 | X-H torsion
[ 10763 10752 10751 10750 ] final  174.71 input  -60.55 | X-H torsion
[ 11005 11000 10999 10996 ] final -150.08 input  -57.11 | X-H torsion

> <Gold.Protein.ActiveResidues>
 VAL166  LYS551  ARG553  GLY616  TRP617  ASP618  TYR619  PRO620  LYS621  CYS622 
 ASP623  PHE694  ASN695  SER759  ASP760  ASP761  ALA762  ILE779  LEU786  VAL792 
 PHE793  MET794  SER795  GLU796  ALA797  LYS798  CYS799  TRP800  GLU811  SER814 

> <Gold.Protein.RotatedAtoms>
  150.6869  134.3167  159.4769 H   0  0  0  0  0  0  0  0  0  0  0  0  # atno 6907 bound_to 6896
  152.1047  134.9314  160.0578 H   0  0  0  0  0  0  0  0  0  0  0  0  # atno 6908 bound_to 6896
  152.0579  133.4014  159.4442 H   0  0  0  0  0  0  0  0  0  0  0  0  # atno 6909 bound_to 6896
  146.2245  139.8726  142.8585 H   0  0  0  0  0  0  0  0  0  0  0  0  # atno 7974 bound_to 7965
  154.4005  140.1502  156.3175 H   0  0  0  0  0  0  0  0  0  0  0  0  # atno 8008 bound_to 7997
  155.8560  140.3455  155.5703 H   0  0  0  0  0  0  0  0  0  0  0  0  # atno 8009 bound_to 7997
  155.7933  140.0859  157.1988 H   0  0  0  0  0  0  0  0  0  0  0  0  # atno 8010 bound_to 7997
  140.6985  143.3064  151.3142 H   0  0  0  0  0  0  0  0  0  0  0  0  # atno 10167 bound_to 10162
  156.5881  130.4792  149.6291 H   0  0  0  0  0  0  0  0  0  0  0  0  # atno 10718 bound_to 10713
  154.4577  135.2766  155.1736 H   0  0  0  0  0  0  0  0  0  0  0  0  # atno 10763 bound_to 10752
  154.3536  135.6144  153.5659 H   0  0  0  0  0  0  0  0  0  0  0  0  # atno 10764 bound_to 10752
  152.9852  135.5817  154.4933 H   0  0  0  0  0  0  0  0  0  0  0  0  # atno 10765 bound_to 10752
  140.7440  134.3482  157.5141 H   0  0  0  0  0  0  0  0  0  0  0  0  # atno 11005 bound_to 11000
  145.2593  141.0071  143.3836 LP  0  0  0  0  0  0  0  0  0  0  0  0  # atno 17320 bound_to 7965
  144.9311  139.4297  143.6494 LP  0  0  0  0  0  0  0  0  0  0  0  0  # atno 17321 bound_to 7965
  139.6471  144.0431  152.2599 LP  0  0  0  0  0  0  0  0  0  0  0  0  # atno 17342 bound_to 10162
  139.9955  144.6331  150.7776 LP  0  0  0  0  0  0  0  0  0  0  0  0  # atno 17343 bound_to 10162
  156.2573  130.6942  151.1699 LP  0  0  0  0  0  0  0  0  0  0  0  0  # atno 17370 bound_to 10713
  157.7310  131.0611  150.5698 LP  0  0  0  0  0  0  0  0  0  0  0  0  # atno 17371 bound_to 10713
  139.8800  134.9099  156.3002 LP  0  0  0  0  0  0  0  0  0  0  0  0  # atno 17394 bound_to 11000
  140.9811  133.7267  156.0673 LP  0  0  0  0  0  0  0  0  0  0  0  0  # atno 17395 bound_to 11000

$$$$
