AV-unprocessed.smi:2799|AV-procd|sdf|10789|dock2
  -GOLD-   2272015223D 1   1.00000     0.00000
 Structure written by MMmdl.
 52 53  0  0  0  0  0  0  0  0  2 V2000
  149.4614  132.9141  153.9319 C   0  0  0  0  0  0  0  0  0  0  0  0
  147.9865  132.6233  153.6085 C   0  0  0  0  0  0  0  0  0  0  0  0
  147.7604  131.1124  153.4493 C   0  0  0  0  0  0  0  0  0  0  0  0
  147.5127  133.3815  152.3526 C   0  0  0  0  0  0  0  0  0  0  0  0
  146.0839  133.0895  152.0381 N   0  3  2  0  0  0  0  0  0  0  0  0
  145.9957  131.9292  151.1069 C   0  0  0  0  0  0  0  0  0  0  0  0
  144.5506  131.5042  150.8352 C   0  0  0  0  0  0  0  0  0  0  0  0
  143.7767  132.6775  150.2420 C   0  0  0  0  0  0  0  0  0  0  0  0
  143.8318  133.8551  151.2160 C   0  0  0  0  0  0  0  0  0  0  0  0
  145.2773  134.2770  151.5969 C   0  0  1  0  0  0  0  0  0  0  0  0
  145.2179  135.3746  152.6986 C   0  0  0  0  0  0  0  0  0  0  0  0
  146.3494  136.2979  152.6432 N   0  0  0  0  0  0  0  0  0  0  0  0
  146.4134  137.4919  153.2507 C   0  0  0  0  0  0  0  0  0  0  0  0
  145.4898  137.9601  153.9155 O   0  0  0  0  0  0  0  0  0  0  0  0
  147.6078  138.0742  153.0372 N   0  0  0  0  0  0  0  0  0  0  0  0
  148.0824  139.3251  153.4699 C   0  0  0  0  0  0  0  0  0  0  0  0
  147.4394  140.5043  153.2773 C   0  0  0  0  0  0  0  0  0  0  0  0
  148.0063  141.7443  153.7506 C   0  0  0  0  0  0  0  0  0  0  0  0
  149.1923  141.7064  154.3735 C   0  0  0  0  0  0  0  0  0  0  0  0
  149.8828  140.4990  154.5713 N   0  0  0  0  0  0  0  0  0  0  0  0
  151.1722  140.5620  155.2644 C   0  0  0  0  0  0  0  0  0  0  0  0
  149.3905  139.2947  154.1539 C   0  0  0  0  0  0  0  0  0  0  0  0
  150.0154  138.2486  154.3455 O   0  0  0  0  0  0  0  0  0  0  0  0
  150.1130  132.6221  153.1077 H   0  0  0  0  0  0  0  0  0  0  0  0
  149.7835  132.3677  154.8189 H   0  0  0  0  0  0  0  0  0  0  0  0
  149.6268  133.9736  154.1281 H   0  0  0  0  0  0  0  0  0  0  0  0
  147.3862  132.9505  154.4584 H   0  0  0  0  0  0  0  0  0  0  0  0
  148.3363  130.7105  152.6149 H   0  0  0  0  0  0  0  0  0  0  0  0
  146.7091  130.8876  153.2675 H   0  0  0  0  0  0  0  0  0  0  0  0
  148.0584  130.5727  154.3489 H   0  0  0  0  0  0  0  0  0  0  0  0
  147.7114  134.4422  152.4807 H   0  0  0  0  0  0  0  0  0  0  0  0
  148.1356  133.1038  151.5007 H   0  0  0  0  0  0  0  0  0  0  0  0
  146.4827  132.1814  150.1633 H   0  0  0  0  0  0  0  0  0  0  0  0
  146.5421  131.0838  151.5265 H   0  0  0  0  0  0  0  0  0  0  0  0
  144.5326  130.6589  150.1466 H   0  0  0  0  0  0  0  0  0  0  0  0
  144.0776  131.1668  151.7586 H   0  0  0  0  0  0  0  0  0  0  0  0
  144.2047  132.9649  149.2807 H   0  0  0  0  0  0  0  0  0  0  0  0
  142.7416  132.3913  150.0538 H   0  0  0  0  0  0  0  0  0  0  0  0
  143.2962  134.6918  150.7673 H   0  0  0  0  0  0  0  0  0  0  0  0
  143.2803  133.5904  152.1196 H   0  0  0  0  0  0  0  0  0  0  0  0
  145.7603  134.6899  150.7096 H   0  0  0  0  0  0  0  0  0  0  0  0
  144.2716  135.9141  152.6347 H   0  0  0  0  0  0  0  0  0  0  0  0
  145.2469  134.9580  153.7022 H   0  0  0  0  0  0  0  0  0  0  0  0
  147.1569  135.9935  152.1188 H   0  0  0  0  0  0  0  0  0  0  0  0
  148.2841  137.5301  152.5211 H   0  0  0  0  0  0  0  0  0  0  0  0
  146.4980  140.5627  152.7560 H   0  0  0  0  0  0  0  0  0  0  0  0
  147.4860  142.6798  153.6082 H   0  0  0  0  0  0  0  0  0  0  0  0
  149.6807  142.5900  154.7581 H   0  0  0  0  0  0  0  0  0  0  0  0
  151.9534  140.0765  154.6773 H   0  0  0  0  0  0  0  0  0  0  0  0
  151.1090  140.0578  156.2296 H   0  0  0  0  0  0  0  0  0  0  0  0
  151.5006  141.5854  155.4496 H   0  0  0  0  0  0  0  0  0  0  0  0
  145.6612  132.7900  152.9053 H   0  0  0  0  0  0  0  0  0  0  0  0
  1  2  1  0  0  0  0
  1 24  1  0  0  0  0
  1 25  1  0  0  0  0
  1 26  1  0  0  0  0
  2  3  1  0  0  0  0
  2  4  1  0  0  0  0
  2 27  1  0  0  0  0
  3 28  1  0  0  0  0
  3 29  1  0  0  0  0
  3 30  1  0  0  0  0
  4  5  1  0  0  0  0
  4 31  1  0  0  0  0
  4 32  1  0  0  0  0
  5 10  1  0  0  0  0
  5  6  1  0  0  0  0
  5 52  1  0  0  0  0
  6  7  1  0  0  0  0
  6 33  1  0  0  0  0
  6 34  1  0  0  0  0
  7  8  1  0  0  0  0
  7 35  1  0  0  0  0
  7 36  1  0  0  0  0
  8  9  1  0  0  0  0
  8 37  1  0  0  0  0
  8 38  1  0  0  0  0
  9 10  1  0  0  0  0
  9 39  1  0  0  0  0
  9 40  1  0  0  0  0
 10 11  1  0  0  0  0
 10 41  1  0  0  0  0
 11 12  1  0  0  0  0
 11 42  1  0  0  0  0
 11 43  1  0  0  0  0
 12 13  1  0  0  0  0
 12 44  1  0  0  0  0
 13 14  2  0  0  0  0
 13 15  1  0  0  0  0
 15 16  1  0  0  0  0
 15 45  1  0  0  0  0
 16 22  1  0  0  0  0
 16 17  2  0  0  0  0
 17 18  1  0  0  0  0
 17 46  1  0  0  0  0
 18 19  2  0  0  0  0
 18 47  1  0  0  0  0
 19 20  1  0  0  0  0
 19 48  1  0  0  0  0
 20 21  1  0  0  0  0
 20 22  1  0  0  0  0
 21 49  1  0  0  0  0
 21 50  1  0  0  0  0
 21 51  1  0  0  0  0
 22 23  2  0  0  0  0
M  CHG  1   5   1
M  END
> <s_m_source_file>
AV-unprocessed.smi

> <i_m_source_file_index>
2799

> <i_lp_mmshare_version>
43012

> <i_f3d_flags>
0

> <s_epik_input>
W0NIM11bQ0hdKFtDSDNdKVtDSDJdTjFbQ0gyXVtDSDJdW0NIMl1bQ0gyXVtDQEhdMVtDSDJdW05IXUMoPU8pW05IXWMyW2NIXVtjSF1bY0hdbihbQ0gzXSljMj1P

> <s_epik_cmdline>
J2VwaWtfcHl0aG9uJywgJy1waCcsICc3LjAnLCAnLXRuJywgJzgnLCAnLW1hJywgJzIwMCcsICctbWV0YWxfYmluZGluZycsICctaW1hZScsICc8aW5maWxlLm1hZT4nLCAnLW9tYWUnLCAnPG91dGZpbGUubWFlPic=

> <r_lp_tautomer_probability>
1

> <r_epik_Ionization_Penalty>
0.0010885

> <r_epik_Ionization_Penalty_Charging>
0.00106921

> <r_epik_Ionization_Penalty_Neutral>
1.92865e-05

> <r_epik_State_Penalty>
0.000697184

> <r_epik_Charging_Adjusted_Penalty>
0.0017664

> <i_epik_Tot_Q>
1

> <i_epik_Tot_abs_Q>
1

> <r_epik_Metal_State_Penalty>
-0

> <b_epik_Metal_Only>
0

> <s_lp_Force_Field>
OPLS_2005

> <r_lp_Energy>
37.4199

> <b_lp_Chiralities_Consistent>
1

> <s_lp_Variant>
AV-unprocessed.smi:2799-1

> <Gold.Version>
5.8.1

> <Gold.Id.Protein>
6NUR|6NUR_protein|mol2

> <Gold.PLP.Fitness>
50.0587

> <Gold.PLP.PLP>
-43.7139

> <Gold.PLP.part.hbond>
-2.0000

> <Gold.PLP.part.metal>
0.0000

> <Gold.PLP.part.buried>
-2.0055

> <Gold.PLP.part.nonpolar>
-39.7130

> <Gold.PLP.part.repulsive>
0.3605

> <Gold.PLP.ligand.clash>
0.0000

> <Gold.PLP.ligand.torsion>
1.4018

> <Gold.PLP.Chemscore.Hbond>
1.9920

> <Gold.PLP.Chemscore.CHOScore>
1.0000

> <Gold.PLP.Chemscore.Metal>
0.0000

> <Gold.Chemscore.Hbonds>
donor molecule, donor type, donor heavy atom, donor atom, acceptor molecule, acceptor atom, score
      L1  H    12    44       P1  7948  0.93
      L1  H    15    45       P1  7948  1.00
      L1  C    19    48       P1  8028  1.00

> <Gold.PLP.Chemscore.Internal.Correction>
0.1725

> <Gold.Rescore>
     Score         DG    S(hbond)    S(metal)    S(lipo)     H(rot)  DE(clash)    DE(int)     intcor
     18.46     -19.84       1.93        0.00     101.85       1.57       0.09       1.29       ----

> <Gold.Chemscore.Fitness>
18.4575

> <Gold.Chemscore.DG>
-19.8407

> <Gold.Chemscore.ZeroCoef>
-5.4800

> <Gold.Chemscore.Hbond>
1.9341

> <Gold.Chemscore.Metal>
0.0000

> <Gold.Chemscore.Lipo>
101.8546

> <Gold.Chemscore.Internal_Hbond>
0.0000

> <Gold.Chemscore.DEClash>
0.0901

> <Gold.Chemscore.DEInternal>
1.2931

> <Gold.Chemscore.Rot>
1.5688

> <Gold.Chemscore.Internal.Correction>
   9.000000E+99

> <Gold.Chemscore.Hbonds>
donor molecule, donor type, donor heavy atom, donor atom, acceptor molecule, acceptor atom, score
      L1  H    12    44       P1  7948  0.90
      L1  H    15    45       P1  7948  0.97

> <Gold.Chemscore.Hbond.Weighted>
-6.4598

> <Gold.Chemscore.Metal.Weighted>
-0.0000

> <Gold.Chemscore.Lipo.Weighted>
-11.9170

> <Gold.Chemscore.Internal_Hbond.Weighted>
0.0000

> <Gold.Chemscore.DEClash.Weighted>
0.0901

> <Gold.Chemscore.DEInternal.Weighted>
1.2931

> <Gold.Chemscore.Rot.Weighted>
4.0161

> <Gold.Chemscore.Internal.Correction.Weighted>
   9.000000E+99

> <Gold.Protein.RotatedTorsions>
[ 6907 6896 6895 6894 ] final  124.83 input  -60.11 | X-H torsion
[ 7974 7965 7964 7962 ] final  -47.39 input  175.53 | X-H torsion
[ 8008 7997 7996 7995 ] final  166.42 input   59.86 | X-H torsion
[ 10167 10162 10161 10158 ] final  177.45 input  -65.29 | X-H torsion
[ 10718 10713 10712 10709 ] final  -20.54 input   66.30 | X-H torsion
[ 10763 10752 10751 10750 ] final  -50.60 input  -60.55 | X-H torsion
[ 11005 11000 10999 10996 ] final  -59.86 input  -57.11 | X-H torsion

> <Gold.Protein.ActiveResidues>
 VAL166  LYS551  ARG553  GLY616  TRP617  ASP618  TYR619  PRO620  LYS621  CYS622 
 ASP623  PHE694  ASN695  SER759  ASP760  ASP761  ALA762  ILE779  LEU786  VAL792 
 PHE793  MET794  SER795  GLU796  ALA797  LYS798  CYS799  TRP800  GLU811  SER814 

> <Gold.Protein.RotatedAtoms>
  152.4044  133.6867  159.6343 H   0  0  0  0  0  0  0  0  0  0  0  0  # atno 6907 bound_to 6896
  150.7931  133.8734  159.3274 H   0  0  0  0  0  0  0  0  0  0  0  0  # atno 6908 bound_to 6896
  151.6492  135.1005  160.0208 H   0  0  0  0  0  0  0  0  0  0  0  0  # atno 6909 bound_to 6896
  145.9620  140.7469  142.9452 H   0  0  0  0  0  0  0  0  0  0  0  0  # atno 7974 bound_to 7965
  156.1720  140.1644  156.8431 H   0  0  0  0  0  0  0  0  0  0  0  0  # atno 8008 bound_to 7997
  154.5266  140.0766  156.8304 H   0  0  0  0  0  0  0  0  0  0  0  0  # atno 8009 bound_to 7997
  155.3493  140.3389  155.4241 H   0  0  0  0  0  0  0  0  0  0  0  0  # atno 8010 bound_to 7997
  139.5254  144.2797  152.0557 H   0  0  0  0  0  0  0  0  0  0  0  0  # atno 10167 bound_to 10162
  156.5305  130.4654  149.6549 H   0  0  0  0  0  0  0  0  0  0  0  0  # atno 10718 bound_to 10713
  154.1130  135.6546  153.4888 H   0  0  0  0  0  0  0  0  0  0  0  0  # atno 10763 bound_to 10752
  153.0250  135.5252  154.7173 H   0  0  0  0  0  0  0  0  0  0  0  0  # atno 10764 bound_to 10752
  154.6358  135.2982  155.0132 H   0  0  0  0  0  0  0  0  0  0  0  0  # atno 10765 bound_to 10752
  141.1265  133.6618  156.5136 H   0  0  0  0  0  0  0  0  0  0  0  0  # atno 11005 bound_to 11000
  144.6817  140.2607  143.7319 LP  0  0  0  0  0  0  0  0  0  0  0  0  # atno 17320 bound_to 7965
  145.8026  139.1970  143.2039 LP  0  0  0  0  0  0  0  0  0  0  0  0  # atno 17321 bound_to 7965
  140.2253  144.4425  150.6324 LP  0  0  0  0  0  0  0  0  0  0  0  0  # atno 17342 bound_to 10162
  140.6392  143.2200  151.6328 LP  0  0  0  0  0  0  0  0  0  0  0  0  # atno 17343 bound_to 10162
  156.3064  130.7205  151.2088 LP  0  0  0  0  0  0  0  0  0  0  0  0  # atno 17370 bound_to 10713
  157.7422  131.0493  150.5038 LP  0  0  0  0  0  0  0  0  0  0  0  0  # atno 17371 bound_to 10713
  140.4349  134.7068  157.4961 LP  0  0  0  0  0  0  0  0  0  0  0  0  # atno 17394 bound_to 11000
  140.0268  134.6464  155.9161 LP  0  0  0  0  0  0  0  0  0  0  0  0  # atno 17395 bound_to 11000

$$$$
