AV-unprocessed.smi:104|AV-procd|sdf|999|dock8
  -GOLD-   2262017583D 1   1.00000     0.00000
 Structure written by MMmdl.
 47 49  0  0  0  0  0  0  0  0  1 V2000
  147.2324  135.0727  162.5137 C   0  0  0  0  0  0  0  0  0  0  0  0
  147.4398  135.8390  161.2139 C   0  0  0  0  0  0  0  0  0  0  0  0
  147.7547  137.0293  161.2116 O   0  0  0  0  0  0  0  0  0  0  0  0
  147.2410  135.0728  160.1312 O   0  0  0  0  0  0  0  0  0  0  0  0
  147.5593  135.5812  158.8467 C   0  0  0  0  0  0  0  0  0  0  0  0
  149.0756  135.5127  158.6345 C   0  0  2  0  0  0  0  0  0  0  0  0
  149.6916  136.6635  159.1914 O   0  0  0  0  0  0  0  0  0  0  0  0
  150.9083  136.8956  158.5562 C   0  0  2  0  0  0  0  0  0  0  0  0
  151.0572  138.3783  158.3958 N   0  0  0  0  0  0  0  0  0  0  0  0
  152.0070  139.2196  158.9290 C   0  0  0  0  0  0  0  0  0  0  0  0
  153.4197  138.5887  160.0389 Br  0  0  0  0  0  0  0  0  0  0  0  0
  151.9152  140.4858  158.6320 N   0  0  0  0  0  0  0  0  0  0  0  0
  150.7981  140.5265  157.8067 C   0  0  0  0  0  0  0  0  0  0  0  0
  150.1203  141.5629  157.1166 C   0  0  0  0  0  0  0  0  0  0  0  0
  150.5027  142.8466  157.1663 N   0  0  0  0  0  0  0  0  0  0  0  0
  149.0367  141.2425  156.3712 N   0  0  0  0  0  0  0  0  0  0  0  0
  148.6349  139.9689  156.3041 C   0  0  0  0  0  0  0  0  0  0  0  0
  149.1636  138.8936  156.8940 N   0  0  0  0  0  0  0  0  0  0  0  0
  150.2550  139.2179  157.6482 C   0  0  0  0  0  0  0  0  0  0  0  0
  150.8903  136.1464  157.2065 C   0  0  2  0  0  0  0  0  0  0  0  0
  151.1249  137.0105  156.0980 O   0  0  0  0  0  0  0  0  0  0  0  0
  152.3448  137.5284  155.8852 C   0  0  0  0  0  0  0  0  0  0  0  0
  152.3245  138.6507  154.8566 C   0  0  0  0  0  0  0  0  0  0  0  0
  153.3899  137.1716  156.4288 O   0  0  0  0  0  0  0  0  0  0  0  0
  149.4842  135.5637  157.1625 C   0  0  1  0  0  0  0  0  0  0  0  0
  149.5350  134.2587  156.5994 O   0  0  0  0  0  0  0  0  0  0  0  0
  150.0377  134.0652  155.3688 C   0  0  0  0  0  0  0  0  0  0  0  0
  149.9934  132.6018  154.9507 C   0  0  0  0  0  0  0  0  0  0  0  0
  150.4918  134.9331  154.6233 O   0  0  0  0  0  0  0  0  0  0  0  0
  148.0503  134.3696  162.6722 H   0  0  0  0  0  0  0  0  0  0  0  0
  146.2964  134.5149  162.4811 H   0  0  0  0  0  0  0  0  0  0  0  0
  147.1953  135.7578  163.3608 H   0  0  0  0  0  0  0  0  0  0  0  0
  147.0512  134.9747  158.0958 H   0  0  0  0  0  0  0  0  0  0  0  0
  147.2042  136.6069  158.7355 H   0  0  0  0  0  0  0  0  0  0  0  0
  149.4995  134.6241  159.1062 H   0  0  0  0  0  0  0  0  0  0  0  0
  151.7311  136.5869  159.2001 H   0  0  0  0  0  0  0  0  0  0  0  0
  151.3085  143.1112  157.7146 H   0  0  0  0  0  0  0  0  0  0  0  0
  149.9817  143.5479  156.6600 H   0  0  0  0  0  0  0  0  0  0  0  0
  147.7651  139.7847  155.6909 H   0  0  0  0  0  0  0  0  0  0  0  0
  151.6414  135.3572  157.2683 H   0  0  0  0  0  0  0  0  0  0  0  0
  151.7698  139.5065  155.2417 H   0  0  0  0  0  0  0  0  0  0  0  0
  151.8468  138.3129  153.9368 H   0  0  0  0  0  0  0  0  0  0  0  0
  153.3391  138.9725  154.6205 H   0  0  0  0  0  0  0  0  0  0  0  0
  148.8284  136.2434  156.6150 H   0  0  0  0  0  0  0  0  0  0  0  0
  148.9605  132.2688  154.8494 H   0  0  0  0  0  0  0  0  0  0  0  0
  150.4878  131.9794  155.6966 H   0  0  0  0  0  0  0  0  0  0  0  0
  150.4978  132.4612  153.9945 H   0  0  0  0  0  0  0  0  0  0  0  0
  1  2  1  0  0  0  0
  1 30  1  0  0  0  0
  1 31  1  0  0  0  0
  1 32  1  0  0  0  0
  2  3  2  0  0  0  0
  2  4  1  0  0  0  0
  4  5  1  0  0  0  0
  5  6  1  0  0  0  0
  5 33  1  0  0  0  0
  5 34  1  0  0  0  0
  6 25  1  0  0  0  0
  6  7  1  0  0  0  0
  6 35  1  0  0  0  0
  7  8  1  0  0  0  0
  8  9  1  0  0  0  0
  8 20  1  0  0  0  0
  8 36  1  0  0  0  0
  9 19  1  0  0  0  0
  9 10  1  0  0  0  0
 10 11  1  0  0  0  0
 10 12  2  0  0  0  0
 12 13  1  0  0  0  0
 13 19  2  0  0  0  0
 13 14  1  0  0  0  0
 14 15  1  0  0  0  0
 14 16  2  0  0  0  0
 15 37  1  0  0  0  0
 15 38  1  0  0  0  0
 16 17  1  0  0  0  0
 17 18  2  0  0  0  0
 17 39  1  0  0  0  0
 18 19  1  0  0  0  0
 20 21  1  0  0  0  0
 20 25  1  0  0  0  0
 20 40  1  0  0  0  0
 21 22  1  0  0  0  0
 22 23  1  0  0  0  0
 22 24  2  0  0  0  0
 23 41  1  0  0  0  0
 23 42  1  0  0  0  0
 23 43  1  0  0  0  0
 25 26  1  0  0  0  0
 25 44  1  0  0  0  0
 26 27  1  0  0  0  0
 27 28  1  0  0  0  0
 27 29  2  0  0  0  0
 28 45  1  0  0  0  0
 28 46  1  0  0  0  0
 28 47  1  0  0  0  0
M  END
> <s_m_source_file>
AV-unprocessed.smi

> <i_m_source_file_index>
104

> <i_lp_mmshare_version>
43012

> <i_f3d_flags>
0

> <s_epik_input>
W0NIM11DKD1PKU9bQ0gyXVtDQEBIXTFPW0NASF0oW0NAQEhdKE9DKD1PKVtDSDNdKVtDQEhdMU9DKD1PKVtDSDNdKW4oYyhCciluMiljKGMyMyluW2NIXW5jM1tOSDJd

> <s_epik_cmdline>
J2VwaWtfcHl0aG9uJywgJy1waCcsICc3LjAnLCAnLXRuJywgJzgnLCAnLW1hJywgJzIwMCcsICctbWV0YWxfYmluZGluZycsICctaW1hZScsICc8aW5maWxlLm1hZT4nLCAnLW9tYWUnLCAnPG91dGZpbGUubWFlPic=

> <r_lp_tautomer_probability>
1

> <r_epik_Ionization_Penalty>
7.36622e-05

> <r_epik_Ionization_Penalty_Charging>
0

> <r_epik_Ionization_Penalty_Neutral>
7.36622e-05

> <r_epik_State_Penalty>
-0

> <r_epik_Charging_Adjusted_Penalty>
0

> <i_epik_Tot_Q>
0

> <i_epik_Tot_abs_Q>
0

> <r_epik_Metal_State_Penalty>
-0

> <b_epik_Metal_Only>
0

> <s_epik_Chemistry_Notes>
This compound has an ester and may undergo hydrolysis at high or low pH. This compound contains an acetal/aminal-like group ( X-CH(R)-Y where X, Y are N, S, or O) that may be acid/base labile, releasing an aldehyde.

> <s_lp_Force_Field>
OPLS_2005

> <r_lp_Energy>
16.6292

> <b_lp_Chiralities_Consistent>
1

> <s_lp_Variant>
AV-unprocessed.smi:104-7

> <Gold.Version>
5.8.1

> <Gold.Id.Protein>
6NUR|6NUR_protein|mol2

> <Gold.PLP.Fitness>
42.9357

> <Gold.PLP.PLP>
-33.6816

> <Gold.PLP.part.hbond>
-4.0000

> <Gold.PLP.part.metal>
0.0000

> <Gold.PLP.part.buried>
-6.5512

> <Gold.PLP.part.nonpolar>
-24.6011

> <Gold.PLP.part.repulsive>
0.5768

> <Gold.PLP.ligand.clash>
0.0000

> <Gold.PLP.ligand.torsion>
0.6047

> <Gold.PLP.Chemscore.Hbond>
3.4640

> <Gold.PLP.Chemscore.CHOScore>
0.0000

> <Gold.PLP.Chemscore.Metal>
0.0000

> <Gold.Chemscore.Hbonds>
donor molecule, donor type, donor heavy atom, donor atom, acceptor molecule, acceptor atom, score
      L1  H    15    38       P1  8028  1.00
      P1  H  6931  6943       L1     3  1.00
      P1  H  6934  6947       L1     3  0.73
      P1  H 10752 10763       L1    24  0.30

> <Gold.PLP.Chemscore.Internal.Correction>
0.0715

> <Gold.Rescore>
     Score         DG    S(hbond)    S(metal)    S(lipo)     H(rot)  DE(clash)    DE(int)     intcor
      6.24     -10.78       3.29        0.00      45.59       4.31       0.23       4.31       ----

> <Gold.Chemscore.Fitness>
6.2386

> <Gold.Chemscore.DG>
-10.7825

> <Gold.Chemscore.ZeroCoef>
-5.4800

> <Gold.Chemscore.Hbond>
3.2917

> <Gold.Chemscore.Metal>
0.0000

> <Gold.Chemscore.Lipo>
45.5898

> <Gold.Chemscore.Internal_Hbond>
0.0000

> <Gold.Chemscore.DEClash>
0.2341

> <Gold.Chemscore.DEInternal>
4.3097

> <Gold.Chemscore.Rot>
4.3070

> <Gold.Chemscore.Internal.Correction>
   9.000000E+99

> <Gold.Chemscore.Hbonds>
donor molecule, donor type, donor heavy atom, donor atom, acceptor molecule, acceptor atom, score
      L1  H    15    38       P1  8028  1.00
      P1  H  6931  6943       L1     3  0.96
      P1  H  6934  6947       L1     3  0.70
      P1  H 10752 10763       L1    24  0.02

> <Gold.Chemscore.Hbond.Weighted>
-10.9943

> <Gold.Chemscore.Metal.Weighted>
-0.0000

> <Gold.Chemscore.Lipo.Weighted>
-5.3340

> <Gold.Chemscore.Internal_Hbond.Weighted>
0.0000

> <Gold.Chemscore.DEClash.Weighted>
0.2341

> <Gold.Chemscore.DEInternal.Weighted>
4.3097

> <Gold.Chemscore.Rot.Weighted>
11.0259

> <Gold.Chemscore.Internal.Correction.Weighted>
   9.000000E+99

> <Gold.Protein.RotatedTorsions>
[ 6907 6896 6895 6894 ] final  114.07 input  -60.11 | X-H torsion
[ 7974 7965 7964 7962 ] final -179.76 input  175.53 | X-H torsion
[ 8008 7997 7996 7995 ] final -173.97 input   59.86 | X-H torsion
[ 10167 10162 10161 10158 ] final -130.72 input  -65.29 | X-H torsion
[ 10718 10713 10712 10709 ] final   88.57 input   66.30 | X-H torsion
[ 10763 10752 10751 10750 ] final  109.41 input  -60.55 | X-H torsion
[ 11005 11000 10999 10996 ] final   82.00 input  -57.11 | X-H torsion

> <Gold.Protein.ActiveResidues>
 VAL166  LYS551  ARG553  GLY616  TRP617  ASP618  TYR619  PRO620  LYS621  CYS622 
 ASP623  PHE694  ASN695  SER759  ASP760  ASP761  ALA762  ILE779  LEU786  VAL792 
 PHE793  MET794  SER795  GLU796  ALA797  LYS798  CYS799  TRP800  GLU811  SER814 

> <Gold.Protein.RotatedAtoms>
  152.4824  133.8288  159.7091 H   0  0  0  0  0  0  0  0  0  0  0  0  # atno 6907 bound_to 6896
  150.8884  133.7267  159.2918 H   0  0  0  0  0  0  0  0  0  0  0  0  # atno 6908 bound_to 6896
  151.4748  135.1052  159.9813 H   0  0  0  0  0  0  0  0  0  0  0  0  # atno 6909 bound_to 6896
  144.7139  140.0669  143.6431 H   0  0  0  0  0  0  0  0  0  0  0  0  # atno 7974 bound_to 7965
  155.9641  140.1150  157.0870 H   0  0  0  0  0  0  0  0  0  0  0  0  # atno 8008 bound_to 7997
  154.4139  140.1176  156.5286 H   0  0  0  0  0  0  0  0  0  0  0  0  # atno 8009 bound_to 7997
  155.6682  140.3473  155.4810 H   0  0  0  0  0  0  0  0  0  0  0  0  # atno 8010 bound_to 7997
  139.9264  143.6322  152.2541 H   0  0  0  0  0  0  0  0  0  0  0  0  # atno 10167 bound_to 10162
  157.6950  131.0300  150.3294 H   0  0  0  0  0  0  0  0  0  0  0  0  # atno 10718 bound_to 10713
  153.4344  135.3781  155.2190 H   0  0  0  0  0  0  0  0  0  0  0  0  # atno 10763 bound_to 10752
  154.8751  135.3847  154.4229 H   0  0  0  0  0  0  0  0  0  0  0  0  # atno 10764 bound_to 10752
  153.4766  135.7088  153.6025 H   0  0  0  0  0  0  0  0  0  0  0  0  # atno 10765 bound_to 10752
  139.9078  134.8039  156.2116 H   0  0  0  0  0  0  0  0  0  0  0  0  # atno 11005 bound_to 11000
  145.9817  139.2946  143.1038 LP  0  0  0  0  0  0  0  0  0  0  0  0  # atno 17320 bound_to 7965
  145.9003  140.9247  143.0506 LP  0  0  0  0  0  0  0  0  0  0  0  0  # atno 17321 bound_to 7965
  139.6818  144.7655  151.1594 LP  0  0  0  0  0  0  0  0  0  0  0  0  # atno 17342 bound_to 10162
  140.7649  143.5713  150.8992 LP  0  0  0  0  0  0  0  0  0  0  0  0  # atno 17343 bound_to 10162
  156.3770  130.3873  149.7131 LP  0  0  0  0  0  0  0  0  0  0  0  0  # atno 17370 bound_to 10713
  156.4526  130.7914  151.2935 LP  0  0  0  0  0  0  0  0  0  0  0  0  # atno 17371 bound_to 10713
  141.0462  133.6912  156.1687 LP  0  0  0  0  0  0  0  0  0  0  0  0  # atno 17394 bound_to 11000
  140.6881  134.4696  157.5589 LP  0  0  0  0  0  0  0  0  0  0  0  0  # atno 17395 bound_to 11000

$$$$
