AV-unprocessed.smi:157|AV-procd|sdf|1293|dock7
  -GOLD-   2262018573D 1   1.00000     0.00000
 Structure written by MMmdl.
 35 37  0  0  0  0  0  0  0  0  1 V2000
  152.1276  135.5046  156.1444 O   0  0  0  0  0  0  0  0  0  0  0  0
  150.9731  136.0504  156.7463 C   0  0  0  0  0  0  0  0  0  0  0  0
  150.8163  137.5236  156.3413 C   0  0  1  0  0  0  0  0  0  0  0  0
  151.9621  138.2621  156.7558 O   0  0  0  0  0  0  0  0  0  0  0  0
  152.1428  139.3752  155.9299 C   0  0  2  0  0  0  0  0  0  0  0  0
  151.7980  140.6140  156.7012 N   0  0  0  0  0  0  0  0  0  0  0  0
  150.8368  141.5015  156.4097 C   0  0  0  0  0  0  0  0  0  0  0  0
  150.7440  142.5100  157.2596 N   0  0  0  0  0  0  0  0  0  0  0  0
  151.7479  142.2571  158.1922 C   0  0  0  0  0  0  0  0  0  0  0  0
  152.4203  141.0901  157.8588 C   0  0  0  0  0  0  0  0  0  0  0  0
  153.4698  140.3597  158.3830 N   0  0  0  0  0  0  0  0  0  0  0  0
  154.2524  140.9408  159.2369 C   0  0  0  0  0  0  0  0  0  0  0  0
  154.1723  142.1989  159.8168 N   0  0  0  0  0  0  0  0  0  0  0  0
  152.9553  142.7391  160.3983 C   0  0  0  0  0  0  0  0  0  0  0  0
  151.9269  143.1896  159.3545 C   0  0  1  0  0  0  0  0  0  0  0  0
  152.3138  144.4409  158.8246 O   0  0  0  0  0  0  0  0  0  0  0  0
  151.1900  139.2179  154.7402 C   0  0  0  0  0  0  0  0  0  0  0  0
  150.8206  137.7508  154.8287 C   0  0  2  0  0  0  0  0  0  0  0  0
  149.5579  137.5120  154.2420 O   0  0  0  0  0  0  0  0  0  0  0  0
  149.9174  137.9629  156.7786 H   0  0  0  0  0  0  0  0  0  0  0  0
  153.1938  139.4764  155.6573 H   0  0  0  0  0  0  0  0  0  0  0  0
  150.9708  143.3419  159.8567 H   0  0  0  0  0  0  0  0  0  0  0  0
  151.5849  137.1386  154.3476 H   0  0  0  0  0  0  0  0  0  0  0  0
  152.1773  134.5875  156.3666 H   0  0  0  0  0  0  0  0  0  0  0  0
  150.0913  135.4687  156.4762 H   0  0  0  0  0  0  0  0  0  0  0  0
  151.0972  135.9686  157.8264 H   0  0  0  0  0  0  0  0  0  0  0  0
  150.1834  141.4077  155.5550 H   0  0  0  0  0  0  0  0  0  0  0  0
  155.1256  140.3926  159.5933 H   0  0  0  0  0  0  0  0  0  0  0  0
  154.9917  142.5689  160.2764 H   0  0  0  0  0  0  0  0  0  0  0  0
  152.5124  141.9535  161.0124 H   0  0  0  0  0  0  0  0  0  0  0  0
  153.2002  143.5554  161.0784 H   0  0  0  0  0  0  0  0  0  0  0  0
  152.1332  145.1036  159.4740 H   0  0  0  0  0  0  0  0  0  0  0  0
  150.3122  139.8518  154.8818 H   0  0  0  0  0  0  0  0  0  0  0  0
  151.6786  139.4924  153.8049 H   0  0  0  0  0  0  0  0  0  0  0  0
  149.6811  136.9823  153.4689 H   0  0  0  0  0  0  0  0  0  0  0  0
  1  2  1  0  0  0  0
  1 24  1  0  0  0  0
  2  3  1  0  0  0  0
  2 25  1  0  0  0  0
  2 26  1  0  0  0  0
  3 20  1  0  0  0  0
  3 18  1  0  0  0  0
  3  4  1  0  0  0  0
  4  5  1  0  0  0  0
  5 21  1  0  0  0  0
  5  6  1  0  0  0  0
  5 17  1  0  0  0  0
  6 10  1  0  0  0  0
  6  7  1  0  0  0  0
  7  8  2  0  0  0  0
  7 27  1  0  0  0  0
  8  9  1  0  0  0  0
  9 15  1  0  0  0  0
  9 10  2  0  0  0  0
 10 11  1  0  0  0  0
 11 12  2  0  0  0  0
 12 13  1  0  0  0  0
 12 28  1  0  0  0  0
 13 14  1  0  0  0  0
 13 29  1  0  0  0  0
 14 15  1  0  0  0  0
 14 30  1  0  0  0  0
 14 31  1  0  0  0  0
 15 22  1  0  0  0  0
 15 16  1  0  0  0  0
 16 32  1  0  0  0  0
 17 18  1  0  0  0  0
 17 33  1  0  0  0  0
 17 34  1  0  0  0  0
 18 23  1  0  0  0  0
 18 19  1  0  0  0  0
 19 35  1  0  0  0  0
M  END
> <s_m_source_file>
AV-unprocessed.smi

> <i_m_source_file_index>
157

> <i_lp_mmshare_version>
43012

> <i_f3d_flags>
0

> <s_epik_input>
W09IXVtDSDJdW0NASF0xT1tDQEhdKFtDSDJdW0NAQEhdMVtPSF0pbihbY0hdbjIpYyhjMjMpTj1bQ0hdW05IXVtDSDJdW0NASF0zW09IXQ==

> <s_epik_cmdline>
J2VwaWtfcHl0aG9uJywgJy1waCcsICc3LjAnLCAnLXRuJywgJzgnLCAnLW1hJywgJzIwMCcsICctbWV0YWxfYmluZGluZycsICctaW1hZScsICc8aW5maWxlLm1hZT4nLCAnLW9tYWUnLCAnPG91dGZpbGUubWFlPic=

> <r_lp_tautomer_probability>
1

> <r_epik_Ionization_Penalty>
0.0357149

> <r_epik_Ionization_Penalty_Charging>
0.0355056

> <r_epik_Ionization_Penalty_Neutral>
0.000209255

> <r_epik_State_Penalty>
0.0296046

> <r_epik_Charging_Adjusted_Penalty>
0.0651102

> <i_epik_Tot_Q>
0

> <i_epik_Tot_abs_Q>
0

> <r_epik_Metal_State_Penalty>
3.03559e-05

> <b_epik_Metal_Only>
0

> <s_epik_Chemistry_Notes>
This compound has an imine and may undergo hydrolysis. This compound contains an acetal/aminal-like group ( X-CH(R)-Y where X, Y are N, S, or O) that may be acid/base labile, releasing an aldehyde.

> <s_lp_Force_Field>
OPLS_2005

> <r_lp_Energy>
43.2358

> <b_lp_Chiralities_Consistent>
1

> <s_lp_Variant>
AV-unprocessed.smi:157-3

> <Gold.Version>
5.8.1

> <Gold.Id.Protein>
6NUR|6NUR_protein|mol2

> <Gold.PLP.Fitness>
40.1426

> <Gold.PLP.PLP>
-31.5107

> <Gold.PLP.part.hbond>
-3.0000

> <Gold.PLP.part.metal>
0.0000

> <Gold.PLP.part.buried>
-4.3669

> <Gold.PLP.part.nonpolar>
-22.6196

> <Gold.PLP.part.repulsive>
0.1596

> <Gold.PLP.ligand.clash>
0.0000

> <Gold.PLP.ligand.torsion>
0.0129

> <Gold.PLP.Chemscore.Hbond>
2.8796

> <Gold.PLP.Chemscore.CHOScore>
0.0000

> <Gold.PLP.Chemscore.Metal>
0.0000

> <Gold.Chemscore.Hbonds>
donor molecule, donor type, donor heavy atom, donor atom, acceptor molecule, acceptor atom, score
      L1  H    19    35       P1  7948  1.00
      P1  H  7997  8008       L1    11  0.81
      P1  H 10752 10764       L1     1  0.70

> <Gold.PLP.Chemscore.Internal.Correction>
0.0190

> <Gold.Rescore>
     Score         DG    S(hbond)    S(metal)    S(lipo)     H(rot)  DE(clash)    DE(int)     intcor
      6.97      -7.18       1.53        0.00      50.37       3.64       0.10       0.10       ----

> <Gold.Chemscore.Fitness>
6.9736

> <Gold.Chemscore.DG>
-7.1764

> <Gold.Chemscore.ZeroCoef>
-5.4800

> <Gold.Chemscore.Hbond>
1.5306

> <Gold.Chemscore.Metal>
0.0000

> <Gold.Chemscore.Lipo>
50.3679

> <Gold.Chemscore.Internal_Hbond>
0.0000

> <Gold.Chemscore.DEClash>
0.1007

> <Gold.Chemscore.DEInternal>
0.1021

> <Gold.Chemscore.Rot>
3.6362

> <Gold.Chemscore.Internal.Correction>
   9.000000E+99

> <Gold.Chemscore.Hbonds>
donor molecule, donor type, donor heavy atom, donor atom, acceptor molecule, acceptor atom, score
      L1  H    19    35       P1  7948  0.62
      P1  H  7997  8008       L1    11  0.12
      P1  H 10752 10764       L1     1  0.10

> <Gold.Chemscore.Hbond.Weighted>
-5.1121

> <Gold.Chemscore.Metal.Weighted>
-0.0000

> <Gold.Chemscore.Lipo.Weighted>
-5.8930

> <Gold.Chemscore.Internal_Hbond.Weighted>
0.0000

> <Gold.Chemscore.DEClash.Weighted>
0.1007

> <Gold.Chemscore.DEInternal.Weighted>
0.1021

> <Gold.Chemscore.Rot.Weighted>
9.3087

> <Gold.Chemscore.Internal.Correction.Weighted>
   9.000000E+99

> <Gold.Protein.RotatedTorsions>
[ 6907 6896 6895 6894 ] final  132.00 input  -60.11 | X-H torsion
[ 7974 7965 7964 7962 ] final -111.96 input  175.53 | X-H torsion
[ 8008 7997 7996 7995 ] final  -89.24 input   59.86 | X-H torsion
[ 10167 10162 10161 10158 ] final  158.48 input  -65.29 | X-H torsion
[ 10718 10713 10712 10709 ] final  -41.76 input   66.30 | X-H torsion
[ 10763 10752 10751 10750 ] final  -29.70 input  -60.55 | X-H torsion
[ 11005 11000 10999 10996 ] final -164.23 input  -57.11 | X-H torsion

> <Gold.Protein.ActiveResidues>
 VAL166  LYS551  ARG553  GLY616  TRP617  ASP618  TYR619  PRO620  LYS621  CYS622 
 ASP623  PHE694  ASN695  SER759  ASP760  ASP761  ALA762  ILE779  LEU786  VAL792 
 PHE793  MET794  SER795  GLU796  ALA797  LYS798  CYS799  TRP800  GLU811  SER814 

> <Gold.Protein.RotatedAtoms>
  152.3369  133.6021  159.5848 H   0  0  0  0  0  0  0  0  0  0  0  0  # atno 6907 bound_to 6896
  150.7455  133.9783  159.3577 H   0  0  0  0  0  0  0  0  0  0  0  0  # atno 6908 bound_to 6896
  151.7651  135.0801  160.0402 H   0  0  0  0  0  0  0  0  0  0  0  0  # atno 6909 bound_to 6896
  145.1497  140.8823  143.3653 H   0  0  0  0  0  0  0  0  0  0  0  0  # atno 7974 bound_to 7965
  154.6842  140.0544  157.0297 H   0  0  0  0  0  0  0  0  0  0  0  0  # atno 8008 bound_to 7997
  155.0908  140.3219  155.4555 H   0  0  0  0  0  0  0  0  0  0  0  0  # atno 8009 bound_to 7997
  156.2705  140.2048  156.6035 H   0  0  0  0  0  0  0  0  0  0  0  0  # atno 8010 bound_to 7997
  139.4827  144.4820  151.8430 H   0  0  0  0  0  0  0  0  0  0  0  0  # atno 10167 bound_to 10162
  156.2669  130.4202  149.8480 H   0  0  0  0  0  0  0  0  0  0  0  0  # atno 10718 bound_to 10713
  153.7689  135.6914  153.4910 H   0  0  0  0  0  0  0  0  0  0  0  0  # atno 10763 bound_to 10752
  153.1887  135.4479  155.0121 H   0  0  0  0  0  0  0  0  0  0  0  0  # atno 10764 bound_to 10752
  154.8125  135.3384  154.7200 H   0  0  0  0  0  0  0  0  0  0  0  0  # atno 10765 bound_to 10752
  140.5892  134.5062  157.5190 H   0  0  0  0  0  0  0  0  0  0  0  0  # atno 11005 bound_to 11000
  145.0443  139.3234  143.5960 LP  0  0  0  0  0  0  0  0  0  0  0  0  # atno 17320 bound_to 7965
  146.3496  139.9828  142.8694 LP  0  0  0  0  0  0  0  0  0  0  0  0  # atno 17321 bound_to 7965
  140.4297  144.2132  150.5888 LP  0  0  0  0  0  0  0  0  0  0  0  0  # atno 17342 bound_to 10162
  140.4791  143.2385  151.8980 LP  0  0  0  0  0  0  0  0  0  0  0  0  # atno 17343 bound_to 10162
  156.5975  130.8533  151.3423 LP  0  0  0  0  0  0  0  0  0  0  0  0  # atno 17370 bound_to 10713
  157.7270  130.9637  150.1682 LP  0  0  0  0  0  0  0  0  0  0  0  0  # atno 17371 bound_to 10713
  139.9282  134.8015  156.1007 LP  0  0  0  0  0  0  0  0  0  0  0  0  # atno 17394 bound_to 11000
  141.0946  133.6700  156.2616 LP  0  0  0  0  0  0  0  0  0  0  0  0  # atno 17395 bound_to 11000

$$$$
