AV-unprocessed.smi:671|AV-procd|sdf|3282|dock2
  -GOLD-   22720 0243D 1   1.00000     0.00000
 Structure written by MMmdl.
 50 51  0  0  0  0  0  0  0  0  2 V2000
  147.2868  139.8185  153.4524 C   0  0  0  0  0  0  0  0  0  0  0  0
  148.6570  139.6154  154.0068 C   0  0  0  0  0  0  0  0  0  0  0  0
  149.4620  138.5649  153.6937 N   0  3  0  0  0  0  0  0  0  0  0  0
  150.6228  138.6560  154.3587 N   0  0  0  0  0  0  0  0  0  0  0  0
  151.6373  137.6188  154.1698 C   0  0  0  0  0  0  0  0  0  0  0  0
  150.6328  139.7740  155.1377 C   0  0  0  0  0  0  0  0  0  0  0  0
  151.7681  140.1789  156.0206 C   0  0  0  0  0  0  0  0  0  0  0  0
  149.3928  140.3865  154.9147 C   0  0  0  0  0  0  0  0  0  0  0  0
  148.9239  141.6619  155.5568 C   0  0  0  0  0  0  0  0  0  0  0  0
  148.4230  141.4706  157.0068 C   0  0  1  0  0  0  0  0  0  0  0  0
  149.5087  140.9151  157.9415 C   0  0  0  0  0  0  0  0  0  0  0  0
  147.9410  142.7438  157.5477 N   0  0  0  0  0  0  0  0  0  0  0  0
  147.2338  142.9572  158.6728 C   0  0  0  0  0  0  0  0  0  0  0  0
  146.8989  142.0350  159.4131 O   0  0  0  0  0  0  0  0  0  0  0  0
  146.9346  144.2453  158.9088 N   0  0  0  0  0  0  0  0  0  0  0  0
  146.2218  144.7532  160.0767 C   0  0  2  0  0  0  0  0  0  0  0  0
  146.8398  144.1776  161.3647 C   0  0  0  0  0  0  0  0  0  0  0  0
  145.8205  143.1801  161.9140 C   0  0  0  0  0  0  0  0  0  0  0  0
  144.4761  143.7475  161.4725 C   0  0  0  0  0  0  0  0  0  0  0  0
  144.7422  144.3023  160.0690 C   0  0  1  0  0  0  0  0  0  0  0  0
  143.7582  145.4067  159.6581 C   0  0  0  0  0  0  0  0  0  0  0  0
  146.5471  139.7628  154.2514 H   0  0  0  0  0  0  0  0  0  0  0  0
  147.0546  139.0543  152.7100 H   0  0  0  0  0  0  0  0  0  0  0  0
  147.2121  140.7959  152.9764 H   0  0  0  0  0  0  0  0  0  0  0  0
  151.9598  137.2533  155.1452 H   0  0  0  0  0  0  0  0  0  0  0  0
  152.4887  138.0470  153.6403 H   0  0  0  0  0  0  0  0  0  0  0  0
  151.2274  136.7898  153.5910 H   0  0  0  0  0  0  0  0  0  0  0  0
  151.6759  141.2220  156.3204 H   0  0  0  0  0  0  0  0  0  0  0  0
  152.7176  140.0560  155.4994 H   0  0  0  0  0  0  0  0  0  0  0  0
  151.7813  139.5622  156.9193 H   0  0  0  0  0  0  0  0  0  0  0  0
  149.7218  142.4053  155.5455 H   0  0  0  0  0  0  0  0  0  0  0  0
  148.1291  142.0905  154.9455 H   0  0  0  0  0  0  0  0  0  0  0  0
  147.6014  140.7526  157.0123 H   0  0  0  0  0  0  0  0  0  0  0  0
  149.8503  139.9322  157.6170 H   0  0  0  0  0  0  0  0  0  0  0  0
  149.1302  140.8048  158.9583 H   0  0  0  0  0  0  0  0  0  0  0  0
  150.3760  141.5748  157.9801 H   0  0  0  0  0  0  0  0  0  0  0  0
  148.1471  143.5607  156.9903 H   0  0  0  0  0  0  0  0  0  0  0  0
  147.2445  144.9309  158.2364 H   0  0  0  0  0  0  0  0  0  0  0  0
  146.2987  145.8416  160.1144 H   0  0  0  0  0  0  0  0  0  0  0  0
  147.8187  143.7204  161.2117 H   0  0  0  0  0  0  0  0  0  0  0  0
  146.9751  144.9841  162.0868 H   0  0  0  0  0  0  0  0  0  0  0  0
  145.9752  142.2020  161.4573 H   0  0  0  0  0  0  0  0  0  0  0  0
  145.8918  143.0590  162.9952 H   0  0  0  0  0  0  0  0  0  0  0  0
  143.6819  143.0004  161.4836 H   0  0  0  0  0  0  0  0  0  0  0  0
  144.1838  144.5527  162.1482 H   0  0  0  0  0  0  0  0  0  0  0  0
  144.6290  143.4702  159.3711 H   0  0  0  0  0  0  0  0  0  0  0  0
  143.8167  146.2620  160.3319 H   0  0  0  0  0  0  0  0  0  0  0  0
  142.7316  145.0402  159.6723 H   0  0  0  0  0  0  0  0  0  0  0  0
  143.9681  145.7624  158.6495 H   0  0  0  0  0  0  0  0  0  0  0  0
  149.2772  137.7922  153.0666 H   0  0  0  0  0  0  0  0  0  0  0  0
  1  2  1  0  0  0  0
  1 22  1  0  0  0  0
  1 23  1  0  0  0  0
  1 24  1  0  0  0  0
  2  8  1  0  0  0  0
  2  3  2  0  0  0  0
  3  4  1  0  0  0  0
  3 50  1  0  0  0  0
  4  5  1  0  0  0  0
  4  6  1  0  0  0  0
  5 25  1  0  0  0  0
  5 26  1  0  0  0  0
  5 27  1  0  0  0  0
  6  7  1  0  0  0  0
  6  8  2  0  0  0  0
  7 28  1  0  0  0  0
  7 29  1  0  0  0  0
  7 30  1  0  0  0  0
  8  9  1  0  0  0  0
  9 10  1  0  0  0  0
  9 31  1  0  0  0  0
  9 32  1  0  0  0  0
 10 11  1  0  0  0  0
 10 12  1  0  0  0  0
 10 33  1  0  0  0  0
 11 34  1  0  0  0  0
 11 35  1  0  0  0  0
 11 36  1  0  0  0  0
 12 13  1  0  0  0  0
 12 37  1  0  0  0  0
 13 14  2  0  0  0  0
 13 15  1  0  0  0  0
 15 16  1  0  0  0  0
 15 38  1  0  0  0  0
 16 20  1  0  0  0  0
 16 17  1  0  0  0  0
 16 39  1  0  0  0  0
 17 18  1  0  0  0  0
 17 40  1  0  0  0  0
 17 41  1  0  0  0  0
 18 19  1  0  0  0  0
 18 42  1  0  0  0  0
 18 43  1  0  0  0  0
 19 20  1  0  0  0  0
 19 44  1  0  0  0  0
 19 45  1  0  0  0  0
 20 21  1  0  0  0  0
 20 46  1  0  0  0  0
 21 47  1  0  0  0  0
 21 48  1  0  0  0  0
 21 49  1  0  0  0  0
M  CHG  1   3   1
M  END
> <s_m_source_file>
AV-unprocessed.smi

> <i_m_source_file_index>
671

> <i_lp_mmshare_version>
43012

> <i_f3d_flags>
0

> <s_epik_input>
W0NIM11jMW5uKFtDSDNdKWMoW0NIM10pYzFbQ0gyXVtDQEhdKFtDSDNdKVtOSF1DKD1PKVtOSF1bQ0BASF0yW0NIMl1bQ0gyXVtDSDJdW0NASF0yW0NIM10=

> <s_epik_cmdline>
J2VwaWtfcHl0aG9uJywgJy1waCcsICc3LjAnLCAnLXRuJywgJzgnLCAnLW1hJywgJzIwMCcsICctbWV0YWxfYmluZGluZycsICctaW1hZScsICc8aW5maWxlLm1hZT4nLCAnLW9tYWUnLCAnPG91dGZpbGUubWFlPic=

> <r_lp_tautomer_probability>
1

> <r_epik_Ionization_Penalty>
2.28705

> <r_epik_Ionization_Penalty_Charging>
2.28698

> <r_epik_Ionization_Penalty_Neutral>
6.23157e-05

> <r_epik_State_Penalty>
2.43671

> <r_epik_Charging_Adjusted_Penalty>
4.72369

> <i_epik_Tot_Q>
1

> <i_epik_Tot_abs_Q>
1

> <r_epik_Metal_State_Penalty>
2.44911

> <b_epik_Metal_Only>
0

> <s_lp_Force_Field>
OPLS_2005

> <r_lp_Energy>
34.579

> <b_lp_Chiralities_Consistent>
1

> <s_lp_Variant>
AV-unprocessed.smi:671-10

> <Gold.Version>
5.8.1

> <Gold.Id.Protein>
6NUR|6NUR_protein|mol2

> <Gold.PLP.Fitness>
49.1480

> <Gold.PLP.PLP>
-37.0877

> <Gold.PLP.part.hbond>
-5.8201

> <Gold.PLP.part.metal>
0.0000

> <Gold.PLP.part.buried>
-1.4766

> <Gold.PLP.part.nonpolar>
-31.2542

> <Gold.PLP.part.repulsive>
0.1798

> <Gold.PLP.ligand.clash>
0.0000

> <Gold.PLP.ligand.torsion>
0.4502

> <Gold.PLP.Chemscore.Hbond>
4.2913

> <Gold.PLP.Chemscore.CHOScore>
0.0000

> <Gold.PLP.Chemscore.Metal>
0.0000

> <Gold.Chemscore.Hbonds>
donor molecule, donor type, donor heavy atom, donor atom, acceptor molecule, acceptor atom, score
      L1  H     3    50       P1  7948  2.00
      L1  H    12    37       P1  8028  0.45
      L1  H    15    38       P1  8029  0.99
      P1  H  6934  6946       L1    14  0.80

> <Gold.PLP.Chemscore.Internal.Correction>
0.0870

> <Gold.Rescore>
     Score         DG    S(hbond)    S(metal)    S(lipo)     H(rot)  DE(clash)    DE(int)     intcor
     18.17     -20.98       2.81        0.00      85.09       1.51       0.14       2.66       ----

> <Gold.Chemscore.Fitness>
18.1749

> <Gold.Chemscore.DG>
-20.9771

> <Gold.Chemscore.ZeroCoef>
-5.4800

> <Gold.Chemscore.Hbond>
2.8131

> <Gold.Chemscore.Metal>
0.0000

> <Gold.Chemscore.Lipo>
85.0943

> <Gold.Chemscore.Internal_Hbond>
0.0000

> <Gold.Chemscore.DEClash>
0.1414

> <Gold.Chemscore.DEInternal>
2.6609

> <Gold.Chemscore.Rot>
1.5057

> <Gold.Chemscore.Internal.Correction>
   9.000000E+99

> <Gold.Chemscore.Hbonds>
donor molecule, donor type, donor heavy atom, donor atom, acceptor molecule, acceptor atom, score
      L1  H     3    50       P1  7948  0.96
      L1  H    12    37       P1  8028  0.02
      L1  H    15    38       P1  8029  0.89
      P1  H  6934  6946       L1    14  0.80

> <Gold.Chemscore.Hbond.Weighted>
-9.3958

> <Gold.Chemscore.Metal.Weighted>
-0.0000

> <Gold.Chemscore.Lipo.Weighted>
-9.9560

> <Gold.Chemscore.Internal_Hbond.Weighted>
0.0000

> <Gold.Chemscore.DEClash.Weighted>
0.1414

> <Gold.Chemscore.DEInternal.Weighted>
2.6609

> <Gold.Chemscore.Rot.Weighted>
3.8547

> <Gold.Chemscore.Internal.Correction.Weighted>
   9.000000E+99

> <Gold.Protein.RotatedTorsions>
[ 6907 6896 6895 6894 ] final  -57.20 input  -60.11 | X-H torsion
[ 7974 7965 7964 7962 ] final   96.30 input  175.53 | X-H torsion
[ 8008 7997 7996 7995 ] final  173.90 input   59.86 | X-H torsion
[ 10167 10162 10161 10158 ] final  -30.07 input  -65.29 | X-H torsion
[ 10718 10713 10712 10709 ] final  -28.13 input   66.30 | X-H torsion
[ 10763 10752 10751 10750 ] final -132.53 input  -60.55 | X-H torsion
[ 11005 11000 10999 10996 ] final   43.73 input  -57.11 | X-H torsion

> <Gold.Protein.ActiveResidues>
 VAL166  LYS551  ARG553  GLY616  TRP617  ASP618  TYR619  PRO620  LYS621  CYS622 
 ASP623  PHE694  ASN695  SER759  ASP760  ASP761  ALA762  ILE779  LEU786  VAL792 
 PHE793  MET794  SER795  GLU796  ALA797  LYS798  CYS799  TRP800  GLU811  SER814 

> <Gold.Protein.RotatedAtoms>
  150.8106  134.7258  159.6683 H   0  0  0  0  0  0  0  0  0  0  0  0  # atno 6907 bound_to 6896
  152.4225  134.5925  159.9988 H   0  0  0  0  0  0  0  0  0  0  0  0  # atno 6908 bound_to 6896
  151.6136  133.3308  159.3109 H   0  0  0  0  0  0  0  0  0  0  0  0  # atno 6909 bound_to 6896
  145.4406  139.2301  143.3094 H   0  0  0  0  0  0  0  0  0  0  0  0  # atno 7974 bound_to 7965
  156.1028  140.1448  156.9444 H   0  0  0  0  0  0  0  0  0  0  0  0  # atno 8008 bound_to 7997
  154.4714  140.0908  156.7199 H   0  0  0  0  0  0  0  0  0  0  0  0  # atno 8009 bound_to 7997
  155.4730  140.3442  155.4330 H   0  0  0  0  0  0  0  0  0  0  0  0  # atno 8010 bound_to 7997
  140.7253  143.3878  151.1484 H   0  0  0  0  0  0  0  0  0  0  0  0  # atno 10167 bound_to 10162
  156.4292  130.4441  149.7129 H   0  0  0  0  0  0  0  0  0  0  0  0  # atno 10718 bound_to 10713
  154.8742  135.3795  154.4424 H   0  0  0  0  0  0  0  0  0  0  0  0  # atno 10763 bound_to 10752
  153.5108  135.7029  153.5787 H   0  0  0  0  0  0  0  0  0  0  0  0  # atno 10764 bound_to 10752
  153.4077  135.3932  155.1996 H   0  0  0  0  0  0  0  0  0  0  0  0  # atno 10765 bound_to 10752
  140.1617  134.4332  155.8313 H   0  0  0  0  0  0  0  0  0  0  0  0  # atno 11005 bound_to 11000
  146.2558  140.5154  142.8874 LP  0  0  0  0  0  0  0  0  0  0  0  0  # atno 17320 bound_to 7965
  144.8124  140.6408  143.6406 LP  0  0  0  0  0  0  0  0  0  0  0  0  # atno 17321 bound_to 7965
  139.7478  143.8825  152.3068 LP  0  0  0  0  0  0  0  0  0  0  0  0  # atno 17342 bound_to 10162
  139.8669  144.7089  150.9034 LP  0  0  0  0  0  0  0  0  0  0  0  0  # atno 17343 bound_to 10162
  156.4039  130.7688  151.2698 LP  0  0  0  0  0  0  0  0  0  0  0  0  # atno 17370 bound_to 10713
  157.7508  131.0231  150.3822 LP  0  0  0  0  0  0  0  0  0  0  0  0  # atno 17371 bound_to 10713
  141.2210  133.6916  156.7606 LP  0  0  0  0  0  0  0  0  0  0  0  0  # atno 17394 bound_to 11000
  140.2481  134.8561  157.3641 LP  0  0  0  0  0  0  0  0  0  0  0  0  # atno 17395 bound_to 11000

$$$$
