AV-unprocessed.smi:1613|AV-procd|sdf|6479|dock7
  -GOLD-   22720 7143D 1   1.00000     0.00000
 Structure written by MMmdl.
 53 55  0  0  0  0  0  0  0  0  2 V2000
  152.8698  139.7122  156.5892 O   0  0  0  0  0  0  0  0  0  0  0  0
  151.6980  139.8017  156.9519 C   0  0  0  0  0  0  0  0  0  0  0  0
  151.3789  140.2639  158.3849 C   0  0  0  0  0  0  0  0  0  0  0  0
  151.6914  141.6812  158.6536 N   0  0  0  0  0  0  0  0  0  0  0  0
  152.5075  141.9669  159.7613 C   0  0  0  0  0  0  0  0  0  0  0  0
  152.8123  143.2323  160.0836 C   0  0  0  0  0  0  0  0  0  0  0  0
  152.2491  144.2797  159.2216 C   0  0  0  0  0  0  0  0  0  0  0  0
  151.5061  144.0225  158.2111 N   0  0  0  0  0  0  0  0  0  0  0  0
  151.1897  142.6939  157.8724 C   0  0  0  0  0  0  0  0  0  0  0  0
  150.4683  142.4413  156.9073 O   0  0  0  0  0  0  0  0  0  0  0  0
  150.6604  139.5388  156.1416 N   0  0  0  0  0  0  0  0  0  0  0  0
  150.7228  139.2103  154.7208 C   0  0  2  0  0  0  0  0  0  0  0  0
  149.3156  138.9627  154.1412 C   0  0  0  0  0  0  0  0  0  0  0  0
  148.6583  137.7180  154.7648 C   0  0  0  0  0  0  0  0  0  0  0  0
  149.5167  136.5170  154.5979 N   0  3  2  0  0  0  0  0  0  0  0  0
  148.8768  135.2419  155.0201 C   0  0  0  0  0  0  0  0  0  0  0  0
  149.6816  133.9572  154.6831 C   0  0  0  0  0  0  0  0  0  0  0  0
  148.7451  132.8291  154.2022 C   0  0  0  0  0  0  0  0  0  0  0  0
  149.5230  131.5494  153.8556 C   0  0  0  0  0  0  0  0  0  0  0  0
  150.3592  131.0664  155.0495 C   0  0  0  0  0  0  0  0  0  0  0  0
  151.2947  132.1752  155.5522 C   0  0  0  0  0  0  0  0  0  0  0  0
  150.5129  133.4560  155.8869 C   0  0  0  0  0  0  0  0  0  0  0  0
  150.8902  136.7025  155.1384 C   0  0  0  0  0  0  0  0  0  0  0  0
  151.5700  137.9413  154.5230 C   0  0  0  0  0  0  0  0  0  0  0  0
  150.3234  140.0648  158.5761 H   0  0  0  0  0  0  0  0  0  0  0  0
  151.9199  139.6249  159.0854 H   0  0  0  0  0  0  0  0  0  0  0  0
  152.8551  141.1096  160.3195 H   0  0  0  0  0  0  0  0  0  0  0  0
  153.4308  143.5210  160.9203 H   0  0  0  0  0  0  0  0  0  0  0  0
  152.5066  145.3045  159.5009 H   0  0  0  0  0  0  0  0  0  0  0  0
  149.7374  139.6264  156.5419 H   0  0  0  0  0  0  0  0  0  0  0  0
  151.1957  140.0396  154.1918 H   0  0  0  0  0  0  0  0  0  0  0  0
  148.6782  139.8346  154.2923 H   0  0  0  0  0  0  0  0  0  0  0  0
  149.3891  138.8282  153.0614 H   0  0  0  0  0  0  0  0  0  0  0  0
  148.4676  137.8976  155.8227 H   0  0  0  0  0  0  0  0  0  0  0  0
  147.6916  137.5419  154.2921 H   0  0  0  0  0  0  0  0  0  0  0  0
  148.6742  135.2888  156.0908 H   0  0  0  0  0  0  0  0  0  0  0  0
  147.8935  135.2042  154.5493 H   0  0  0  0  0  0  0  0  0  0  0  0
  150.3692  134.1606  153.8633 H   0  0  0  0  0  0  0  0  0  0  0  0
  148.0059  132.6082  154.9734 H   0  0  0  0  0  0  0  0  0  0  0  0
  148.1870  133.1572  153.3245 H   0  0  0  0  0  0  0  0  0  0  0  0
  148.8308  130.7656  153.5465 H   0  0  0  0  0  0  0  0  0  0  0  0
  150.1763  131.7373  153.0030 H   0  0  0  0  0  0  0  0  0  0  0  0
  149.6966  130.7528  155.8571 H   0  0  0  0  0  0  0  0  0  0  0  0
  150.9400  130.1881  154.7668 H   0  0  0  0  0  0  0  0  0  0  0  0
  151.8371  131.8307  156.4332 H   0  0  0  0  0  0  0  0  0  0  0  0
  152.0473  132.3904  154.7939 H   0  0  0  0  0  0  0  0  0  0  0  0
  151.2133  134.2206  156.2195 H   0  0  0  0  0  0  0  0  0  0  0  0
  149.8533  133.2600  156.7335 H   0  0  0  0  0  0  0  0  0  0  0  0
  150.8625  136.7972  156.2241 H   0  0  0  0  0  0  0  0  0  0  0  0
  151.4898  135.8185  154.9191 H   0  0  0  0  0  0  0  0  0  0  0  0
  151.7271  137.7744  153.4566 H   0  0  0  0  0  0  0  0  0  0  0  0
  152.5612  138.0772  154.9577 H   0  0  0  0  0  0  0  0  0  0  0  0
  149.6424  136.4220  153.6001 H   0  0  0  0  0  0  0  0  0  0  0  0
  1  2  2  0  0  0  0
  2  3  1  0  0  0  0
  2 11  1  0  0  0  0
  3  4  1  0  0  0  0
  3 25  1  0  0  0  0
  3 26  1  0  0  0  0
  4  9  1  0  0  0  0
  4  5  1  0  0  0  0
  5  6  2  0  0  0  0
  5 27  1  0  0  0  0
  6  7  1  0  0  0  0
  6 28  1  0  0  0  0
  7  8  2  0  0  0  0
  7 29  1  0  0  0  0
  8  9  1  0  0  0  0
  9 10  2  0  0  0  0
 11 12  1  0  0  0  0
 11 30  1  0  0  0  0
 12 24  1  0  0  0  0
 12 13  1  0  0  0  0
 12 31  1  0  0  0  0
 13 14  1  0  0  0  0
 13 32  1  0  0  0  0
 13 33  1  0  0  0  0
 14 15  1  0  0  0  0
 14 34  1  0  0  0  0
 14 35  1  0  0  0  0
 15 16  1  0  0  0  0
 15 23  1  0  0  0  0
 15 53  1  0  0  0  0
 16 17  1  0  0  0  0
 16 36  1  0  0  0  0
 16 37  1  0  0  0  0
 17 22  1  0  0  0  0
 17 18  1  0  0  0  0
 17 38  1  0  0  0  0
 18 19  1  0  0  0  0
 18 39  1  0  0  0  0
 18 40  1  0  0  0  0
 19 20  1  0  0  0  0
 19 41  1  0  0  0  0
 19 42  1  0  0  0  0
 20 21  1  0  0  0  0
 20 43  1  0  0  0  0
 20 44  1  0  0  0  0
 21 22  1  0  0  0  0
 21 45  1  0  0  0  0
 21 46  1  0  0  0  0
 22 47  1  0  0  0  0
 22 48  1  0  0  0  0
 23 24  1  0  0  0  0
 23 49  1  0  0  0  0
 23 50  1  0  0  0  0
 24 51  1  0  0  0  0
 24 52  1  0  0  0  0
M  CHG  1  15   1
M  END
> <s_m_source_file>
AV-unprocessed.smi

> <i_m_source_file_index>
1613

> <i_lp_mmshare_version>
43012

> <i_f3d_flags>
0

> <s_epik_input>
Tz1jMW5bY0hdW2NIXVtjSF1uMVtDSDJdQyg9TylbTkhdW0NIXTJbQ0gyXVtDSDJdTihbQ0gyXVtDSDJdMilbQ0gyXVtDSF0zW0NIMl1bQ0gyXVtDSDJdW0NIMl1bQ0gyXTM=

> <s_epik_cmdline>
J2VwaWtfcHl0aG9uJywgJy1waCcsICc3LjAnLCAnLXRuJywgJzgnLCAnLW1hJywgJzIwMCcsICctbWV0YWxfYmluZGluZycsICctaW1hZScsICc8aW5maWxlLm1hZT4nLCAnLW9tYWUnLCAnPG91dGZpbGUubWFlPic=

> <r_lp_tautomer_probability>
1

> <r_epik_Ionization_Penalty>
0.00530026

> <r_epik_Ionization_Penalty_Charging>
0.00529416

> <r_epik_Ionization_Penalty_Neutral>
6.10215e-06

> <r_epik_State_Penalty>
0.00386377

> <r_epik_Charging_Adjusted_Penalty>
0.00915793

> <i_epik_Tot_Q>
1

> <i_epik_Tot_abs_Q>
1

> <r_epik_Metal_State_Penalty>
-0

> <b_epik_Metal_Only>
0

> <s_lp_Force_Field>
OPLS_2005

> <r_lp_Energy>
26.8521

> <b_lp_Chiralities_Consistent>
1

> <s_lp_Variant>
AV-unprocessed.smi:1613-2

> <Gold.Version>
5.8.1

> <Gold.Id.Protein>
6NUR|6NUR_protein|mol2

> <Gold.PLP.Fitness>
54.7059

> <Gold.PLP.PLP>
-46.9876

> <Gold.PLP.part.hbond>
-2.0000

> <Gold.PLP.part.metal>
0.0000

> <Gold.PLP.part.buried>
-5.1826

> <Gold.PLP.part.nonpolar>
-40.6826

> <Gold.PLP.part.repulsive>
0.4366

> <Gold.PLP.ligand.clash>
0.0000

> <Gold.PLP.ligand.torsion>
0.6865

> <Gold.PLP.Chemscore.Hbond>
3.0000

> <Gold.PLP.Chemscore.CHOScore>
0.0000

> <Gold.PLP.Chemscore.Metal>
0.0000

> <Gold.Chemscore.Hbonds>
donor molecule, donor type, donor heavy atom, donor atom, acceptor molecule, acceptor atom, score
      L1  H    15    53       P1  7948  2.00
      P1  H  7997  8009       L1     1  0.99

> <Gold.PLP.Chemscore.Internal.Correction>
0.0913

> <Gold.Rescore>
     Score         DG    S(hbond)    S(metal)    S(lipo)     H(rot)  DE(clash)    DE(int)     intcor
     18.23     -19.59       1.98        0.00     104.53       1.84       0.00       1.36       ----

> <Gold.Chemscore.Fitness>
18.2289

> <Gold.Chemscore.DG>
-19.5930

> <Gold.Chemscore.ZeroCoef>
-5.4800

> <Gold.Chemscore.Hbond>
1.9754

> <Gold.Chemscore.Metal>
0.0000

> <Gold.Chemscore.Lipo>
104.5291

> <Gold.Chemscore.Internal_Hbond>
0.0000

> <Gold.Chemscore.DEClash>
0.0029

> <Gold.Chemscore.DEInternal>
1.3612

> <Gold.Chemscore.Rot>
1.8417

> <Gold.Chemscore.Internal.Correction>
   9.000000E+99

> <Gold.Chemscore.Hbonds>
donor molecule, donor type, donor heavy atom, donor atom, acceptor molecule, acceptor atom, score
      L1  H    15    53       P1  7948  0.48
      P1  H  7997  8009       L1     1  0.92

> <Gold.Chemscore.Hbond.Weighted>
-6.5977

> <Gold.Chemscore.Metal.Weighted>
-0.0000

> <Gold.Chemscore.Lipo.Weighted>
-12.2299

> <Gold.Chemscore.Internal_Hbond.Weighted>
0.0000

> <Gold.Chemscore.DEClash.Weighted>
0.0029

> <Gold.Chemscore.DEInternal.Weighted>
1.3612

> <Gold.Chemscore.Rot.Weighted>
4.7147

> <Gold.Chemscore.Internal.Correction.Weighted>
   9.000000E+99

> <Gold.Protein.RotatedTorsions>
[ 6907 6896 6895 6894 ] final -110.79 input  -60.11 | X-H torsion
[ 7974 7965 7964 7962 ] final  102.84 input  175.53 | X-H torsion
[ 8008 7997 7996 7995 ] final -169.21 input   59.86 | X-H torsion
[ 10167 10162 10161 10158 ] final  111.83 input  -65.29 | X-H torsion
[ 10718 10713 10712 10709 ] final   49.26 input   66.30 | X-H torsion
[ 10763 10752 10751 10750 ] final  160.43 input  -60.55 | X-H torsion
[ 11005 11000 10999 10996 ] final -153.97 input  -57.11 | X-H torsion

> <Gold.Protein.ActiveResidues>
 VAL166  LYS551  ARG553  GLY616  TRP617  ASP618  TYR619  PRO620  LYS621  CYS622 
 ASP623  PHE694  ASN695  SER759  ASP760  ASP761  ALA762  ILE779  LEU786  VAL792 
 PHE793  MET794  SER795  GLU796  ALA797  LYS798  CYS799  TRP800  GLU811  SER814 

> <Gold.Protein.RotatedAtoms>
  150.7647  133.9330  159.3432 H   0  0  0  0  0  0  0  0  0  0  0  0  # atno 6907 bound_to 6896
  151.7231  135.0888  160.0297 H   0  0  0  0  0  0  0  0  0  0  0  0  # atno 6908 bound_to 6896
  152.3637  133.6292  159.6070 H   0  0  0  0  0  0  0  0  0  0  0  0  # atno 6909 bound_to 6896
  145.3538  139.2433  143.3544 H   0  0  0  0  0  0  0  0  0  0  0  0  # atno 7974 bound_to 7965
  155.9019  140.1042  157.1343 H   0  0  0  0  0  0  0  0  0  0  0  0  # atno 8008 bound_to 7997
  154.4027  140.1291  156.4512 H   0  0  0  0  0  0  0  0  0  0  0  0  # atno 8009 bound_to 7997
  155.7412  140.3467  155.5107 H   0  0  0  0  0  0  0  0  0  0  0  0  # atno 8010 bound_to 7997
  139.6581  144.7129  151.1917 H   0  0  0  0  0  0  0  0  0  0  0  0  # atno 10167 bound_to 10162
  157.4768  130.8290  149.8049 H   0  0  0  0  0  0  0  0  0  0  0  0  # atno 10718 bound_to 10713
  154.2473  135.2772  155.2830 H   0  0  0  0  0  0  0  0  0  0  0  0  # atno 10763 bound_to 10752
  154.5494  135.5679  153.6912 H   0  0  0  0  0  0  0  0  0  0  0  0  # atno 10764 bound_to 10752
  152.9987  135.6271  154.2619 H   0  0  0  0  0  0  0  0  0  0  0  0  # atno 10765 bound_to 10752
  140.7024  134.3922  157.5208 H   0  0  0  0  0  0  0  0  0  0  0  0  # atno 11005 bound_to 11000
  146.2957  140.4159  142.8723 LP  0  0  0  0  0  0  0  0  0  0  0  0  # atno 17320 bound_to 7965
  144.8698  140.7256  143.6054 LP  0  0  0  0  0  0  0  0  0  0  0  0  # atno 17321 bound_to 7965
  140.7568  143.6038  150.8673 LP  0  0  0  0  0  0  0  0  0  0  0  0  # atno 17342 bound_to 10162
  139.9693  143.6075  152.2978 LP  0  0  0  0  0  0  0  0  0  0  0  0  # atno 17343 bound_to 10162
  156.0101  130.3837  150.2294 LP  0  0  0  0  0  0  0  0  0  0  0  0  # atno 17370 bound_to 10713
  157.0479  131.0054  151.3263 LP  0  0  0  0  0  0  0  0  0  0  0  0  # atno 17371 bound_to 10713
  139.8893  134.8834  156.2428 LP  0  0  0  0  0  0  0  0  0  0  0  0  # atno 17394 bound_to 11000
  141.0152  133.7072  156.1177 LP  0  0  0  0  0  0  0  0  0  0  0  0  # atno 17395 bound_to 11000

$$$$
