AV-unprocessed.smi:1793|AV-procd|sdf|7227|dock8
  -GOLD-   22720 8473D 1   1.00000     0.00000
 Structure written by MMmdl.
 46 48  0  0  0  0  0  0  0  0  1 V2000
  152.9343  140.9669  161.0791 C   0  0  0  0  0  0  0  0  0  0  0  0
  152.6282  142.1994  160.2135 C   0  0  1  0  0  0  0  0  0  0  0  0
  151.8022  141.8195  159.0695 N   0  0  0  0  0  0  0  0  0  0  0  0
  152.0515  140.8101  158.2251 C   0  0  0  0  0  0  0  0  0  0  0  0
  153.0247  140.0620  158.3196 O   0  0  0  0  0  0  0  0  0  0  0  0
  151.0948  140.7208  157.2874 N   0  0  0  0  0  0  0  0  0  0  0  0
  150.9661  139.7402  156.2651 C   0  0  0  0  0  0  0  0  0  0  0  0
  151.9054  138.6889  156.1333 C   0  0  0  0  0  0  0  0  0  0  0  0
  151.7809  137.7836  155.0658 C   0  0  0  0  0  0  0  0  0  0  0  0
  150.7278  137.9715  154.1553 C   0  0  0  0  0  0  0  0  0  0  0  0
  149.8339  138.9752  154.2591 N   0  0  0  0  0  0  0  0  0  0  0  0
  149.9313  139.8483  155.2921 C   0  0  0  0  0  0  0  0  0  0  0  0
  148.9550  140.8693  155.3603 N   0  0  0  0  0  0  0  0  0  0  0  0
  148.1334  141.1891  154.1974 C   0  0  0  0  0  0  0  0  0  0  0  0
  146.9715  142.0120  154.7469 C   0  0  0  0  0  0  0  0  0  0  0  0
  146.7335  141.3683  156.1089 C   0  0  0  0  0  0  0  0  0  0  0  0
  148.1385  140.9654  156.5673 C   0  0  0  0  0  0  0  0  0  0  0  0
  151.9395  143.3199  161.0175 C   0  0  1  0  0  0  0  0  0  0  0  0
  151.6029  144.5814  160.2015 C   0  0  0  0  0  0  0  0  0  0  0  0
  150.1006  144.7363  160.3561 C   0  0  0  0  0  0  0  0  0  0  0  0
  149.8154  143.9669  161.6376 C   0  0  0  0  0  0  0  0  0  0  0  0
  150.6949  142.8598  161.5398 O   0  0  0  0  0  0  0  0  0  0  0  0
  153.5601  141.2329  161.9311 H   0  0  0  0  0  0  0  0  0  0  0  0
  153.4662  140.2062  160.5066 H   0  0  0  0  0  0  0  0  0  0  0  0
  152.0208  140.5140  161.4655 H   0  0  0  0  0  0  0  0  0  0  0  0
  153.5790  142.5970  159.8541 H   0  0  0  0  0  0  0  0  0  0  0  0
  150.9747  142.3758  158.9116 H   0  0  0  0  0  0  0  0  0  0  0  0
  150.3074  141.3437  157.3925 H   0  0  0  0  0  0  0  0  0  0  0  0
  152.7304  138.5780  156.8206 H   0  0  0  0  0  0  0  0  0  0  0  0
  152.4836  136.9730  154.9413 H   0  0  0  0  0  0  0  0  0  0  0  0
  150.6022  137.3015  153.3176 H   0  0  0  0  0  0  0  0  0  0  0  0
  148.7022  141.7401  153.4480 H   0  0  0  0  0  0  0  0  0  0  0  0
  147.7456  140.2803  153.7353 H   0  0  0  0  0  0  0  0  0  0  0  0
  147.2759  143.0517  154.8738 H   0  0  0  0  0  0  0  0  0  0  0  0
  146.0923  141.9901  154.1024 H   0  0  0  0  0  0  0  0  0  0  0  0
  146.2318  142.0318  156.8137 H   0  0  0  0  0  0  0  0  0  0  0  0
  146.1171  140.4763  155.9892 H   0  0  0  0  0  0  0  0  0  0  0  0
  148.1219  140.0315  157.1308 H   0  0  0  0  0  0  0  0  0  0  0  0
  148.5542  141.7414  157.2102 H   0  0  0  0  0  0  0  0  0  0  0  0
  152.5712  143.6083  161.8591 H   0  0  0  0  0  0  0  0  0  0  0  0
  152.1195  145.4441  160.6237 H   0  0  0  0  0  0  0  0  0  0  0  0
  151.8925  144.5097  159.1524 H   0  0  0  0  0  0  0  0  0  0  0  0
  149.7792  145.7771  160.4025 H   0  0  0  0  0  0  0  0  0  0  0  0
  149.5911  144.2586  159.5183 H   0  0  0  0  0  0  0  0  0  0  0  0
  150.0684  144.5615  162.5168 H   0  0  0  0  0  0  0  0  0  0  0  0
  148.7754  143.6505  161.7182 H   0  0  0  0  0  0  0  0  0  0  0  0
  1  2  1  0  0  0  0
  1 23  1  0  0  0  0
  1 24  1  0  0  0  0
  1 25  1  0  0  0  0
  2  3  1  0  0  0  0
  2 18  1  0  0  0  0
  2 26  1  0  0  0  0
  3  4  1  0  0  0  0
  3 27  1  0  0  0  0
  4  5  2  0  0  0  0
  4  6  1  0  0  0  0
  6  7  1  0  0  0  0
  6 28  1  0  0  0  0
  7 12  1  0  0  0  0
  7  8  2  0  0  0  0
  8  9  1  0  0  0  0
  8 29  1  0  0  0  0
  9 10  2  0  0  0  0
  9 30  1  0  0  0  0
 10 11  1  0  0  0  0
 10 31  1  0  0  0  0
 11 12  2  0  0  0  0
 12 13  1  0  0  0  0
 13 17  1  0  0  0  0
 13 14  1  0  0  0  0
 14 15  1  0  0  0  0
 14 32  1  0  0  0  0
 14 33  1  0  0  0  0
 15 16  1  0  0  0  0
 15 34  1  0  0  0  0
 15 35  1  0  0  0  0
 16 17  1  0  0  0  0
 16 36  1  0  0  0  0
 16 37  1  0  0  0  0
 17 38  1  0  0  0  0
 17 39  1  0  0  0  0
 18 22  1  0  0  0  0
 18 19  1  0  0  0  0
 18 40  1  0  0  0  0
 19 20  1  0  0  0  0
 19 41  1  0  0  0  0
 19 42  1  0  0  0  0
 20 21  1  0  0  0  0
 20 43  1  0  0  0  0
 20 44  1  0  0  0  0
 21 22  1  0  0  0  0
 21 45  1  0  0  0  0
 21 46  1  0  0  0  0
M  END
> <s_m_source_file>
AV-unprocessed.smi

> <i_m_source_file_index>
1793

> <i_lp_mmshare_version>
43012

> <i_f3d_flags>
0

> <s_epik_input>
TzFbQ0gyXVtDSDJdW0NIMl1bQ0BIXTFbQ0BIXShbQ0gzXSlbTkhdQyg9TylbTkhdYzJbY0hdW2NIXVtjSF1uYzJOM1tDSDJdW0NIMl1bQ0gyXVtDSDJdMw==

> <s_epik_cmdline>
J2VwaWtfcHl0aG9uJywgJy1waCcsICc3LjAnLCAnLXRuJywgJzgnLCAnLW1hJywgJzIwMCcsICctbWV0YWxfYmluZGluZycsICctaW1hZScsICc8aW5maWxlLm1hZT4nLCAnLW9tYWUnLCAnPG91dGZpbGUubWFlPic=

> <r_lp_tautomer_probability>
1

> <r_epik_Ionization_Penalty>
0.0992086

> <r_epik_Ionization_Penalty_Charging>
0

> <r_epik_Ionization_Penalty_Neutral>
0.0992086

> <r_epik_State_Penalty>
0.0887141

> <r_epik_Charging_Adjusted_Penalty>
0.0887141

> <i_epik_Tot_Q>
0

> <i_epik_Tot_abs_Q>
0

> <r_epik_Metal_State_Penalty>
0.075945

> <b_epik_Metal_Only>
0

> <s_lp_Force_Field>
OPLS_2005

> <r_lp_Energy>
46.9131

> <b_lp_Chiralities_Consistent>
1

> <s_lp_Variant>
AV-unprocessed.smi:1793-4

> <Gold.Version>
5.8.1

> <Gold.Id.Protein>
6NUR|6NUR_protein|mol2

> <Gold.PLP.Fitness>
48.0756

> <Gold.PLP.PLP>
-42.7152

> <Gold.PLP.part.hbond>
-2.0000

> <Gold.PLP.part.metal>
0.0000

> <Gold.PLP.part.buried>
-2.0668

> <Gold.PLP.part.nonpolar>
-38.8254

> <Gold.PLP.part.repulsive>
0.6445

> <Gold.PLP.ligand.clash>
0.0000

> <Gold.PLP.ligand.torsion>
0.2905

> <Gold.PLP.Chemscore.Hbond>
0.9920

> <Gold.PLP.Chemscore.CHOScore>
0.8700

> <Gold.PLP.Chemscore.Metal>
0.0000

> <Gold.Chemscore.Hbonds>
donor molecule, donor type, donor heavy atom, donor atom, acceptor molecule, acceptor atom, score
      P1  H  6933  6945       L1    22  0.16
      P1  H  7997  8009       L1     5  1.00
      L1  C    10    31       P1  7948  0.42
      L1  C    10    31       P1  7949  0.58

> <Gold.PLP.Chemscore.Internal.Correction>
0.3555

> <Gold.Rescore>
     Score         DG    S(hbond)    S(metal)    S(lipo)     H(rot)  DE(clash)    DE(int)     intcor
     16.76     -18.76       0.91        0.00     117.18       1.36       0.31       1.69       ----

> <Gold.Chemscore.Fitness>
16.7607

> <Gold.Chemscore.DG>
-18.7633

> <Gold.Chemscore.ZeroCoef>
-5.4800

> <Gold.Chemscore.Hbond>
0.9131

> <Gold.Chemscore.Metal>
0.0000

> <Gold.Chemscore.Lipo>
117.1838

> <Gold.Chemscore.Internal_Hbond>
0.0000

> <Gold.Chemscore.DEClash>
0.3095

> <Gold.Chemscore.DEInternal>
1.6932

> <Gold.Chemscore.Rot>
1.3582

> <Gold.Chemscore.Internal.Correction>
   9.000000E+99

> <Gold.Chemscore.Hbonds>
donor molecule, donor type, donor heavy atom, donor atom, acceptor molecule, acceptor atom, score
      P1  H  6933  6945       L1    22  0.08
      P1  H  7997  8009       L1     5  0.89

> <Gold.Chemscore.Hbond.Weighted>
-3.0499

> <Gold.Chemscore.Metal.Weighted>
-0.0000

> <Gold.Chemscore.Lipo.Weighted>
-13.7105

> <Gold.Chemscore.Internal_Hbond.Weighted>
0.0000

> <Gold.Chemscore.DEClash.Weighted>
0.3095

> <Gold.Chemscore.DEInternal.Weighted>
1.6932

> <Gold.Chemscore.Rot.Weighted>
3.4771

> <Gold.Chemscore.Internal.Correction.Weighted>
   9.000000E+99

> <Gold.Protein.RotatedTorsions>
[ 6907 6896 6895 6894 ] final  101.15 input  -60.11 | X-H torsion
[ 7974 7965 7964 7962 ] final -140.84 input  175.53 | X-H torsion
[ 8008 7997 7996 7995 ] final  159.91 input   59.86 | X-H torsion
[ 10167 10162 10161 10158 ] final   42.95 input  -65.29 | X-H torsion
[ 10718 10713 10712 10709 ] final   -6.76 input   66.30 | X-H torsion
[ 10763 10752 10751 10750 ] final  122.03 input  -60.55 | X-H torsion
[ 11005 11000 10999 10996 ] final  -21.39 input  -57.11 | X-H torsion

> <Gold.Protein.ActiveResidues>
 VAL166  LYS551  ARG553  GLY616  TRP617  ASP618  TYR619  PRO620  LYS621  CYS622 
 ASP623  PHE694  ASN695  SER759  ASP760  ASP761  ALA762  ILE779  LEU786  VAL792 
 PHE793  MET794  SER795  GLU796  ALA797  LYS798  CYS799  TRP800  GLU811  SER814 

> <Gold.Protein.RotatedAtoms>
  152.5356  134.0169  159.7963 H   0  0  0  0  0  0  0  0  0  0  0  0  # atno 6907 bound_to 6896
  151.0362  133.5738  159.2663 H   0  0  0  0  0  0  0  0  0  0  0  0  # atno 6908 bound_to 6896
  151.2725  135.0696  159.9193 H   0  0  0  0  0  0  0  0  0  0  0  0  # atno 6909 bound_to 6896
  144.8566  140.6152  143.5355 H   0  0  0  0  0  0  0  0  0  0  0  0  # atno 7974 bound_to 7965
  156.2207  140.1818  156.7483 H   0  0  0  0  0  0  0  0  0  0  0  0  # atno 8008 bound_to 7997
  154.5861  140.0658  156.9202 H   0  0  0  0  0  0  0  0  0  0  0  0  # atno 8009 bound_to 7997
  155.2417  140.3322  155.4294 H   0  0  0  0  0  0  0  0  0  0  0  0  # atno 8010 bound_to 7997
  140.3492  144.2371  150.6147 H   0  0  0  0  0  0  0  0  0  0  0  0  # atno 10167 bound_to 10162
  156.7271  130.5168  149.5854 H   0  0  0  0  0  0  0  0  0  0  0  0  # atno 10718 bound_to 10713
  153.6234  135.3409  155.3018 H   0  0  0  0  0  0  0  0  0  0  0  0  # atno 10763 bound_to 10752
  154.8595  135.4278  154.2183 H   0  0  0  0  0  0  0  0  0  0  0  0  # atno 10764 bound_to 10752
  153.3061  135.7028  153.7231 H   0  0  0  0  0  0  0  0  0  0  0  0  # atno 10765 bound_to 10752
  140.8557  133.7824  156.0016 H   0  0  0  0  0  0  0  0  0  0  0  0  # atno 11005 bound_to 11000
  145.4394  139.1538  143.3978 LP  0  0  0  0  0  0  0  0  0  0  0  0  # atno 17320 bound_to 7965
  146.2828  140.4515  142.8770 LP  0  0  0  0  0  0  0  0  0  0  0  0  # atno 17321 bound_to 7965
  140.5235  143.2260  151.8352 LP  0  0  0  0  0  0  0  0  0  0  0  0  # atno 17342 bound_to 10162
  139.4829  144.4808  151.9309 LP  0  0  0  0  0  0  0  0  0  0  0  0  # atno 17343 bound_to 10162
  156.1554  130.6338  151.0650 LP  0  0  0  0  0  0  0  0  0  0  0  0  # atno 17370 bound_to 10713
  157.6874  131.0820  150.7204 LP  0  0  0  0  0  0  0  0  0  0  0  0  # atno 17371 bound_to 10713
  140.8740  134.2692  157.5177 LP  0  0  0  0  0  0  0  0  0  0  0  0  # atno 17394 bound_to 11000
  139.8705  134.9581  156.4291 LP  0  0  0  0  0  0  0  0  0  0  0  0  # atno 17395 bound_to 11000

$$$$
