AV-unprocessed.smi:17|AV-procd|sdf|101|dock6
  -GOLD-   2262015253D 1   1.00000     0.00000
 Structure written by MMmdl.
 57 59  0  0  0  0  0  0  0  0  1 V2000
  147.6598  141.3557  154.0533 C   0  0  0  0  0  0  0  0  0  0  0  0
  147.6492  140.1480  153.1053 C   0  0  0  0  0  0  0  0  0  0  0  0
  147.7812  138.8753  153.8209 N   0  0  0  0  0  0  0  0  0  0  0  0
  146.7709  137.9678  153.7284 C   0  0  0  0  0  0  0  0  0  0  0  0
  146.1573  137.5749  154.8763 N   0  0  0  0  0  0  0  0  0  0  0  0
  145.1518  136.6970  154.8451 C   0  0  0  0  0  0  0  0  0  0  0  0
  144.6119  136.0865  153.7906 N   0  0  0  0  0  0  0  0  0  0  0  0
  145.2323  136.4562  152.6348 C   0  0  0  0  0  0  0  0  0  0  0  0
  146.3099  137.3809  152.5114 C   0  0  0  0  0  0  0  0  0  0  0  0
  146.6845  137.4804  151.1750 N   0  0  0  0  0  0  0  0  0  0  0  0
  145.8688  136.6787  150.5476 C   0  0  0  0  0  0  0  0  0  0  0  0
  144.9673  136.0188  151.3493 N   0  0  0  0  0  0  0  0  0  0  0  0
  143.9608  135.0665  150.9157 C   0  0  0  0  0  0  0  0  0  0  0  0
  144.5895  133.8293  150.2209 C   0  0  2  0  0  0  0  0  0  0  0  0
  143.6095  133.2786  149.1582 C   0  0  0  0  0  0  0  0  0  0  0  0
  143.4539  134.1659  148.0705 O   0  0  0  0  0  0  0  0  0  0  0  0
  145.0179  132.7601  151.2625 C   0  0  1  0  0  0  0  0  0  0  0  0
  145.5067  131.4410  150.6894 C   0  0  0  0  0  0  0  0  0  0  0  0
  146.2674  130.8385  151.8634 C   0  0  0  0  0  0  0  0  0  0  0  0
  146.8485  131.9442  152.5420 O   0  0  0  0  0  0  0  0  0  0  0  0
  146.2344  133.1554  152.1115 C   0  0  0  0  0  0  0  0  0  0  0  0
  148.9389  138.6026  154.6800 C   0  0  2  0  0  0  0  0  0  0  0  0
  148.5527  138.6522  156.1676 C   0  0  0  0  0  0  0  0  0  0  0  0
  150.1399  139.5227  154.3719 C   0  0  0  0  0  0  0  0  0  0  0  0
  151.7642  138.8013  154.8927 S   0  0  0  0  0  0  0  0  0  0  0  0
  151.5284  138.5368  156.6987 C   0  0  0  0  0  0  0  0  0  0  0  0
  151.8931  137.4772  154.2662 O   0  0  0  0  0  0  0  0  0  0  0  0
  152.8253  139.8036  154.7088 O   0  0  0  0  0  0  0  0  0  0  0  0
  147.5917  142.2870  153.4912 H   0  0  0  0  0  0  0  0  0  0  0  0
  148.5768  141.3900  154.6420 H   0  0  0  0  0  0  0  0  0  0  0  0
  146.8182  141.3259  154.7460 H   0  0  0  0  0  0  0  0  0  0  0  0
  146.7402  140.1538  152.5038 H   0  0  0  0  0  0  0  0  0  0  0  0
  148.4695  140.2550  152.3968 H   0  0  0  0  0  0  0  0  0  0  0  0
  144.7179  136.4479  155.8023 H   0  0  0  0  0  0  0  0  0  0  0  0
  145.9085  136.5375  149.4772 H   0  0  0  0  0  0  0  0  0  0  0  0
  143.3553  134.7821  151.7762 H   0  0  0  0  0  0  0  0  0  0  0  0
  143.2731  135.5921  150.2520 H   0  0  0  0  0  0  0  0  0  0  0  0
  145.4886  134.1533  149.6929 H   0  0  0  0  0  0  0  0  0  0  0  0
  143.9350  132.3030  148.7954 H   0  0  0  0  0  0  0  0  0  0  0  0
  142.6176  133.1431  149.5906 H   0  0  0  0  0  0  0  0  0  0  0  0
  143.8226  133.7640  147.2986 H   0  0  0  0  0  0  0  0  0  0  0  0
  144.1815  132.5516  151.9317 H   0  0  0  0  0  0  0  0  0  0  0  0
  144.6989  130.7938  150.3468 H   0  0  0  0  0  0  0  0  0  0  0  0
  146.1866  131.6150  149.8539 H   0  0  0  0  0  0  0  0  0  0  0  0
  145.5794  130.3340  152.5428 H   0  0  0  0  0  0  0  0  0  0  0  0
  147.0237  130.1191  151.5485 H   0  0  0  0  0  0  0  0  0  0  0  0
  146.9604  133.7110  151.5165 H   0  0  0  0  0  0  0  0  0  0  0  0
  145.9626  133.7707  152.9690 H   0  0  0  0  0  0  0  0  0  0  0  0
  149.2976  137.5932  154.4914 H   0  0  0  0  0  0  0  0  0  0  0  0
  149.3911  138.3581  156.7993 H   0  0  0  0  0  0  0  0  0  0  0  0
  147.7280  137.9720  156.3820 H   0  0  0  0  0  0  0  0  0  0  0  0
  148.2468  139.6532  156.4715 H   0  0  0  0  0  0  0  0  0  0  0  0
  150.1983  139.8084  153.3224 H   0  0  0  0  0  0  0  0  0  0  0  0
  150.0266  140.4480  154.9374 H   0  0  0  0  0  0  0  0  0  0  0  0
  152.3998  138.0215  157.1020 H   0  0  0  0  0  0  0  0  0  0  0  0
  150.6410  137.9278  156.8676 H   0  0  0  0  0  0  0  0  0  0  0  0
  151.4171  139.4920  157.2062 H   0  0  0  0  0  0  0  0  0  0  0  0
  1  2  1  0  0  0  0
  1 29  1  0  0  0  0
  1 30  1  0  0  0  0
  1 31  1  0  0  0  0
  2  3  1  0  0  0  0
  2 32  1  0  0  0  0
  2 33  1  0  0  0  0
  3  4  1  0  0  0  0
  3 22  1  0  0  0  0
  4  9  1  0  0  0  0
  4  5  2  0  0  0  0
  5  6  1  0  0  0  0
  6  7  2  0  0  0  0
  6 34  1  0  0  0  0
  7  8  1  0  0  0  0
  8 12  1  0  0  0  0
  8  9  2  0  0  0  0
  9 10  1  0  0  0  0
 10 11  2  0  0  0  0
 11 12  1  0  0  0  0
 11 35  1  0  0  0  0
 12 13  1  0  0  0  0
 13 14  1  0  0  0  0
 13 36  1  0  0  0  0
 13 37  1  0  0  0  0
 14 15  1  0  0  0  0
 14 17  1  0  0  0  0
 14 38  1  0  0  0  0
 15 16  1  0  0  0  0
 15 39  1  0  0  0  0
 15 40  1  0  0  0  0
 16 41  1  0  0  0  0
 17 21  1  0  0  0  0
 17 18  1  0  0  0  0
 17 42  1  0  0  0  0
 18 19  1  0  0  0  0
 18 43  1  0  0  0  0
 18 44  1  0  0  0  0
 19 20  1  0  0  0  0
 19 45  1  0  0  0  0
 19 46  1  0  0  0  0
 20 21  1  0  0  0  0
 21 47  1  0  0  0  0
 21 48  1  0  0  0  0
 22 23  1  0  0  0  0
 22 24  1  0  0  0  0
 22 49  1  0  0  0  0
 23 50  1  0  0  0  0
 23 51  1  0  0  0  0
 23 52  1  0  0  0  0
 24 25  1  0  0  0  0
 24 53  1  0  0  0  0
 24 54  1  0  0  0  0
 25 26  1  0  0  0  0
 25 27  2  0  0  0  0
 25 28  2  0  0  0  0
 26 55  1  0  0  0  0
 26 56  1  0  0  0  0
 26 57  1  0  0  0  0
M  END
> <s_m_source_file>
AV-unprocessed.smi

> <i_m_source_file_index>
17

> <i_lp_mmshare_version>
43012

> <i_f3d_flags>
0

> <s_epik_input>
W0NIM11TKD1PKSg9TylbQ0gyXVtDQEBIXShbQ0gzXSlOKFtDSDJdW0NIM10pYyhuW2NIXW4xKWMoYzEyKW5bY0hdbjJbQ0gyXVtDQEhdKFtDSDJdW09IXSlbQ0BASF0zW0NIMl1bQ0gyXU9bQ0gyXTM=

> <s_epik_cmdline>
J2VwaWtfcHl0aG9uJywgJy1waCcsICc3LjAnLCAnLXRuJywgJzgnLCAnLW1hJywgJzIwMCcsICctbWV0YWxfYmluZGluZycsICctaW1hZScsICc8aW5maWxlLm1hZT4nLCAnLW9tYWUnLCAnPG91dGZpbGUubWFlPic=

> <r_lp_tautomer_probability>
1

> <r_epik_Ionization_Penalty>
0.00119955

> <r_epik_Ionization_Penalty_Charging>
0

> <r_epik_Ionization_Penalty_Neutral>
0.00119955

> <r_epik_State_Penalty>
0.000665399

> <r_epik_Charging_Adjusted_Penalty>
0.000665399

> <i_epik_Tot_Q>
0

> <i_epik_Tot_abs_Q>
0

> <r_epik_Metal_State_Penalty>
-0

> <b_epik_Metal_Only>
0

> <s_lp_Force_Field>
OPLS_2005

> <r_lp_Energy>
37.2201

> <b_lp_Chiralities_Consistent>
1

> <s_lp_Variant>
AV-unprocessed.smi:17-3

> <Gold.Version>
5.8.1

> <Gold.Id.Protein>
6NUR|6NUR_protein|mol2

> <Gold.PLP.Fitness>
50.7164

> <Gold.PLP.PLP>
-38.7112

> <Gold.PLP.part.hbond>
-7.6030

> <Gold.PLP.part.metal>
0.0000

> <Gold.PLP.part.buried>
2.1546

> <Gold.PLP.part.nonpolar>
-38.9353

> <Gold.PLP.part.repulsive>
4.0763

> <Gold.PLP.ligand.clash>
0.0000

> <Gold.PLP.ligand.torsion>
2.1711

> <Gold.PLP.Chemscore.Hbond>
4.2260

> <Gold.PLP.Chemscore.CHOScore>
1.0000

> <Gold.PLP.Chemscore.Metal>
0.0000

> <Gold.Chemscore.Hbonds>
donor molecule, donor type, donor heavy atom, donor atom, acceptor molecule, acceptor atom, score
      P1  H  7954  7966       L1    10  1.00
      P1  H  7989  7998       L1    28  0.25
      P1  H  7997  8010       L1    28  0.89
      P1  H 10192 10197       L1    16  0.85
      P1  H 10752 10764       L1    27  0.78
      L1  C    11    35       P1  7921  1.00

> <Gold.PLP.Chemscore.Internal.Correction>
0.6694

> <Gold.Rescore>
     Score         DG    S(hbond)    S(metal)    S(lipo)     H(rot)  DE(clash)    DE(int)     intcor
      7.25     -13.86       2.14        0.00      87.37       3.51       3.16       3.45       ----

> <Gold.Chemscore.Fitness>
7.2515

> <Gold.Chemscore.DG>
-13.8580

> <Gold.Chemscore.ZeroCoef>
-5.4800

> <Gold.Chemscore.Hbond>
2.1350

> <Gold.Chemscore.Metal>
0.0000

> <Gold.Chemscore.Lipo>
87.3672

> <Gold.Chemscore.Internal_Hbond>
0.0000

> <Gold.Chemscore.DEClash>
3.1610

> <Gold.Chemscore.DEInternal>
3.4454

> <Gold.Chemscore.Rot>
3.5059

> <Gold.Chemscore.Internal.Correction>
   9.000000E+99

> <Gold.Chemscore.Hbonds>
donor molecule, donor type, donor heavy atom, donor atom, acceptor molecule, acceptor atom, score
      P1  H  7954  7966       L1    10  0.53
      P1  H  7989  7998       L1    28  0.02
      P1  H  7997  8010       L1    28  0.87
      P1  H 10192 10197       L1    16  0.14
      P1  H 10752 10764       L1    27  0.75

> <Gold.Chemscore.Hbond.Weighted>
-7.1310

> <Gold.Chemscore.Metal.Weighted>
-0.0000

> <Gold.Chemscore.Lipo.Weighted>
-10.2220

> <Gold.Chemscore.Internal_Hbond.Weighted>
0.0000

> <Gold.Chemscore.DEClash.Weighted>
3.1610

> <Gold.Chemscore.DEInternal.Weighted>
3.4454

> <Gold.Chemscore.Rot.Weighted>
8.9750

> <Gold.Chemscore.Internal.Correction.Weighted>
   9.000000E+99

> <Gold.Protein.RotatedTorsions>
[ 6907 6896 6895 6894 ] final    6.44 input  -60.11 | X-H torsion
[ 7974 7965 7964 7962 ] final  -18.63 input  175.53 | X-H torsion
[ 8008 7997 7996 7995 ] final   96.08 input   59.86 | X-H torsion
[ 10167 10162 10161 10158 ] final -153.37 input  -65.29 | X-H torsion
[ 10718 10713 10712 10709 ] final  -88.75 input   66.30 | X-H torsion
[ 10763 10752 10751 10750 ] final  -75.45 input  -60.55 | X-H torsion
[ 11005 11000 10999 10996 ] final   92.41 input  -57.11 | X-H torsion

> <Gold.Protein.ActiveResidues>
 VAL166  LYS551  ARG553  GLY616  TRP617  ASP618  TYR619  PRO620  LYS621  CYS622 
 ASP623  PHE694  ASN695  SER759  ASP760  ASP761  ALA762  ILE779  LEU786  VAL792 
 PHE793  MET794  SER795  GLU796  ALA797  LYS798  CYS799  TRP800  GLU811  SER814 

> <Gold.Protein.RotatedAtoms>
  151.6737  135.0972  160.0202 H   0  0  0  0  0  0  0  0  0  0  0  0  # atno 6907 bound_to 6896
  152.3876  133.6629  159.6220 H   0  0  0  0  0  0  0  0  0  0  0  0  # atno 6908 bound_to 6896
  150.7798  133.8925  159.3359 H   0  0  0  0  0  0  0  0  0  0  0  0  # atno 6909 bound_to 6896
  146.1882  140.3948  142.8468 H   0  0  0  0  0  0  0  0  0  0  0  0  # atno 7974 bound_to 7965
  156.0757  140.3277  155.7631 H   0  0  0  0  0  0  0  0  0  0  0  0  # atno 8008 bound_to 7997
  155.5233  140.0587  157.2920 H   0  0  0  0  0  0  0  0  0  0  0  0  # atno 8009 bound_to 7997
  154.4554  140.1940  156.0412 H   0  0  0  0  0  0  0  0  0  0  0  0  # atno 8010 bound_to 7997
  139.7102  143.9121  152.2465 H   0  0  0  0  0  0  0  0  0  0  0  0  # atno 10167 bound_to 10162
  155.9983  130.4847  150.5066 H   0  0  0  0  0  0  0  0  0  0  0  0  # atno 10718 bound_to 10713
  154.4867  135.5831  153.6429 H   0  0  0  0  0  0  0  0  0  0  0  0  # atno 10763 bound_to 10752
  152.9856  135.6103  154.3177 H   0  0  0  0  0  0  0  0  0  0  0  0  # atno 10764 bound_to 10752
  154.3073  135.2845  155.2562 H   0  0  0  0  0  0  0  0  0  0  0  0  # atno 10765 bound_to 10752
  139.8824  134.8731  156.3568 H   0  0  0  0  0  0  0  0  0  0  0  0  # atno 11005 bound_to 11000
  144.8437  140.6896  143.6213 LP  0  0  0  0  0  0  0  0  0  0  0  0  # atno 17320 bound_to 7965
  145.3873  139.1624  143.4248 LP  0  0  0  0  0  0  0  0  0  0  0  0  # atno 17321 bound_to 7965
  139.8988  144.6924  150.8689 LP  0  0  0  0  0  0  0  0  0  0  0  0  # atno 17342 bound_to 10162
  140.7731  143.3530  151.1977 LP  0  0  0  0  0  0  0  0  0  0  0  0  # atno 17343 bound_to 10162
  157.3044  131.0651  151.2045 LP  0  0  0  0  0  0  0  0  0  0  0  0  # atno 17370 bound_to 10713
  157.3013  130.6844  149.6165 LP  0  0  0  0  0  0  0  0  0  0  0  0  # atno 17371 bound_to 10713
  140.9556  133.7422  156.0331 LP  0  0  0  0  0  0  0  0  0  0  0  0  # atno 17394 bound_to 11000
  140.8052  134.3463  157.5428 LP  0  0  0  0  0  0  0  0  0  0  0  0  # atno 17395 bound_to 11000

$$$$
