AV-unprocessed.smi:2751|AV-procd|sdf|10596|dock8
  -GOLD-   2272015 43D 1   1.00000     0.00000
 Structure written by MMmdl.
 34 35  0  0  0  0  0  0  0  0  1 V2000
  149.4140  140.6630  157.2636 O   0  0  0  0  0  0  0  0  0  0  0  0
  149.3338  141.7614  156.7129 C   0  0  0  0  0  0  0  0  0  0  0  0
  149.8070  142.8952  157.2502 N   0  0  0  0  0  0  0  0  0  0  0  0
  150.4614  142.9949  158.5499 C   0  0  0  0  0  0  0  0  0  0  0  0
  151.8804  143.5754  158.4227 C   0  0  0  0  0  0  0  0  0  0  0  0
  152.7083  143.4222  159.7083 C   0  0  1  0  0  0  0  0  0  0  0  0
  151.9844  144.0179  160.9320 C   0  0  0  0  0  0  0  0  0  0  0  0
  152.7982  143.7800  162.2088 C   0  0  0  0  0  0  0  0  0  0  0  0
  153.1281  142.2897  162.3403 C   0  0  0  0  0  0  0  0  0  0  0  0
  153.7875  141.7734  161.0519 C   0  0  0  0  0  0  0  0  0  0  0  0
  152.9416  142.0331  159.9354 O   0  0  0  0  0  0  0  0  0  0  0  0
  148.7676  141.9870  155.5154 N   0  0  0  0  0  0  0  0  0  0  0  0
  148.1516  141.0390  154.6599 C   0  0  0  0  0  0  0  0  0  0  0  0
  147.0507  141.2244  153.9294 N   0  0  0  0  0  0  0  0  0  0  0  0
  146.8592  140.0175  153.2725 C   0  0  0  0  0  0  0  0  0  0  0  0
  147.8642  139.1629  153.6468 C   0  0  0  0  0  0  0  0  0  0  0  0
  148.6946  139.7996  154.5300 O   0  0  0  0  0  0  0  0  0  0  0  0
  149.6992  143.7528  156.7287 H   0  0  0  0  0  0  0  0  0  0  0  0
  149.8562  143.5983  159.2288 H   0  0  0  0  0  0  0  0  0  0  0  0
  150.5071  141.9951  158.9823 H   0  0  0  0  0  0  0  0  0  0  0  0
  152.3952  143.0708  157.6042 H   0  0  0  0  0  0  0  0  0  0  0  0
  151.8288  144.6301  158.1487 H   0  0  0  0  0  0  0  0  0  0  0  0
  153.6651  143.9302  159.5734 H   0  0  0  0  0  0  0  0  0  0  0  0
  151.8186  145.0865  160.7916 H   0  0  0  0  0  0  0  0  0  0  0  0
  150.9994  143.5603  161.0363 H   0  0  0  0  0  0  0  0  0  0  0  0
  153.7218  144.3586  162.1683 H   0  0  0  0  0  0  0  0  0  0  0  0
  152.2470  144.1279  163.0828 H   0  0  0  0  0  0  0  0  0  0  0  0
  153.7840  142.1216  163.1949 H   0  0  0  0  0  0  0  0  0  0  0  0
  152.2134  141.7269  162.5309 H   0  0  0  0  0  0  0  0  0  0  0  0
  154.7627  142.2386  160.8995 H   0  0  0  0  0  0  0  0  0  0  0  0
  153.9561  140.6986  161.1232 H   0  0  0  0  0  0  0  0  0  0  0  0
  148.7695  142.9397  155.1827 H   0  0  0  0  0  0  0  0  0  0  0  0
  146.0314  139.8629  152.5964 H   0  0  0  0  0  0  0  0  0  0  0  0
  148.1138  138.1430  153.3940 H   0  0  0  0  0  0  0  0  0  0  0  0
  1  2  2  0  0  0  0
  2  3  1  0  0  0  0
  2 12  1  0  0  0  0
  3  4  1  0  0  0  0
  3 18  1  0  0  0  0
  4  5  1  0  0  0  0
  4 19  1  0  0  0  0
  4 20  1  0  0  0  0
  5  6  1  0  0  0  0
  5 21  1  0  0  0  0
  5 22  1  0  0  0  0
  6 11  1  0  0  0  0
  6  7  1  0  0  0  0
  6 23  1  0  0  0  0
  7  8  1  0  0  0  0
  7 24  1  0  0  0  0
  7 25  1  0  0  0  0
  8  9  1  0  0  0  0
  8 26  1  0  0  0  0
  8 27  1  0  0  0  0
  9 10  1  0  0  0  0
  9 28  1  0  0  0  0
  9 29  1  0  0  0  0
 10 11  1  0  0  0  0
 10 30  1  0  0  0  0
 10 31  1  0  0  0  0
 12 13  1  0  0  0  0
 12 32  1  0  0  0  0
 13 17  1  0  0  0  0
 13 14  2  0  0  0  0
 14 15  1  0  0  0  0
 15 16  2  0  0  0  0
 15 33  1  0  0  0  0
 16 17  1  0  0  0  0
 16 34  1  0  0  0  0
M  END
> <s_m_source_file>
AV-unprocessed.smi

> <i_m_source_file_index>
2751

> <i_lp_mmshare_version>
43012

> <i_f3d_flags>
0

> <s_epik_input>
bzFbY0hdW2NIXW5jMVtOSF1DKD1PKVtOSF1bQ0gyXVtDSDJdW0NAQEhdMltDSDJdW0NIMl1bQ0gyXVtDSDJdTzI=

> <s_epik_cmdline>
J2VwaWtfcHl0aG9uJywgJy1waCcsICc3LjAnLCAnLXRuJywgJzgnLCAnLW1hJywgJzIwMCcsICctbWV0YWxfYmluZGluZycsICctaW1hZScsICc8aW5maWxlLm1hZT4nLCAnLW9tYWUnLCAnPG91dGZpbGUubWFlPic=

> <r_lp_tautomer_probability>
0.785861

> <r_epik_Ionization_Penalty>
4.88827e-05

> <r_epik_Ionization_Penalty_Charging>
0

> <r_epik_Ionization_Penalty_Neutral>
4.88827e-05

> <r_epik_State_Penalty>
0.0434822

> <r_epik_Charging_Adjusted_Penalty>
0.0434822

> <i_epik_Tot_Q>
0

> <i_epik_Tot_abs_Q>
0

> <r_epik_Metal_State_Penalty>
0.0598982

> <b_epik_Metal_Only>
0

> <s_lp_Force_Field>
OPLS_2005

> <r_lp_Energy>
7.8545

> <b_lp_Chiralities_Consistent>
1

> <s_lp_Variant>
AV-unprocessed.smi:2751-2

> <Gold.Version>
5.8.1

> <Gold.Id.Protein>
6NUR|6NUR_protein|mol2

> <Gold.PLP.Fitness>
45.8402

> <Gold.PLP.PLP>
-34.9444

> <Gold.PLP.part.hbond>
-2.0000

> <Gold.PLP.part.metal>
0.0000

> <Gold.PLP.part.buried>
-4.7042

> <Gold.PLP.part.nonpolar>
-29.0898

> <Gold.PLP.part.repulsive>
0.4558

> <Gold.PLP.ligand.clash>
0.0000

> <Gold.PLP.ligand.torsion>
0.3516

> <Gold.PLP.Chemscore.Hbond>
1.8720

> <Gold.PLP.Chemscore.CHOScore>
1.9937

> <Gold.PLP.Chemscore.Metal>
0.0000

> <Gold.Chemscore.Hbonds>
donor molecule, donor type, donor heavy atom, donor atom, acceptor molecule, acceptor atom, score
      L1  H     3    18       P1  8028  1.00
      L1  H    12    32       P1  8028  0.93
      L1  C    15    33       P1 10175  1.00
      L1  C    16    34       P1  7948  0.88

> <Gold.PLP.Chemscore.Internal.Correction>
0.0017

> <Gold.Rescore>
     Score         DG    S(hbond)    S(metal)    S(lipo)     H(rot)  DE(clash)    DE(int)     intcor
     16.73     -18.15       1.87        0.00      90.72       1.63       0.01       1.41       ----

> <Gold.Chemscore.Fitness>
16.7289

> <Gold.Chemscore.DG>
-18.1479

> <Gold.Chemscore.ZeroCoef>
-5.4800

> <Gold.Chemscore.Hbond>
1.8662

> <Gold.Chemscore.Metal>
0.0000

> <Gold.Chemscore.Lipo>
90.7228

> <Gold.Chemscore.Internal_Hbond>
0.0000

> <Gold.Chemscore.DEClash>
0.0137

> <Gold.Chemscore.DEInternal>
1.4053

> <Gold.Chemscore.Rot>
1.6328

> <Gold.Chemscore.Internal.Correction>
   9.000000E+99

> <Gold.Chemscore.Hbonds>
donor molecule, donor type, donor heavy atom, donor atom, acceptor molecule, acceptor atom, score
      L1  H     3    18       P1  8028  0.96
      L1  H    12    32       P1  8028  0.91

> <Gold.Chemscore.Hbond.Weighted>
-6.2332

> <Gold.Chemscore.Metal.Weighted>
-0.0000

> <Gold.Chemscore.Lipo.Weighted>
-10.6146

> <Gold.Chemscore.Internal_Hbond.Weighted>
0.0000

> <Gold.Chemscore.DEClash.Weighted>
0.0137

> <Gold.Chemscore.DEInternal.Weighted>
1.4053

> <Gold.Chemscore.Rot.Weighted>
4.1799

> <Gold.Chemscore.Internal.Correction.Weighted>
   9.000000E+99

> <Gold.Protein.RotatedTorsions>
[ 6907 6896 6895 6894 ] final   99.83 input  -60.11 | X-H torsion
[ 7974 7965 7964 7962 ] final -140.36 input  175.53 | X-H torsion
[ 8008 7997 7996 7995 ] final  -15.12 input   59.86 | X-H torsion
[ 10167 10162 10161 10158 ] final   21.81 input  -65.29 | X-H torsion
[ 10718 10713 10712 10709 ] final -127.64 input   66.30 | X-H torsion
[ 10763 10752 10751 10750 ] final  -87.42 input  -60.55 | X-H torsion
[ 11005 11000 10999 10996 ] final  113.53 input  -57.11 | X-H torsion

> <Gold.Protein.ActiveResidues>
 VAL166  LYS551  ARG553  GLY616  TRP617  ASP618  TYR619  PRO620  LYS621  CYS622 
 ASP623  PHE694  ASN695  SER759  ASP760  ASP761  ALA762  ILE779  LEU786  VAL792 
 PHE793  MET794  SER795  GLU796  ALA797  LYS798  CYS799  TRP800  GLU811  SER814 

> <Gold.Protein.RotatedAtoms>
  152.5384  134.0369  159.8049 H   0  0  0  0  0  0  0  0  0  0  0  0  # atno 6907 bound_to 6896
  151.0531  133.5599  159.2648 H   0  0  0  0  0  0  0  0  0  0  0  0  # atno 6908 bound_to 6896
  151.2526  135.0635  159.9121 H   0  0  0  0  0  0  0  0  0  0  0  0  # atno 6909 bound_to 6896
  144.8603  140.6209  143.5332 H   0  0  0  0  0  0  0  0  0  0  0  0  # atno 7974 bound_to 7965
  154.5156  140.2205  155.9073 H   0  0  0  0  0  0  0  0  0  0  0  0  # atno 8008 bound_to 7997
  156.1603  140.3143  155.8762 H   0  0  0  0  0  0  0  0  0  0  0  0  # atno 8009 bound_to 7997
  155.3764  140.0470  157.3035 H   0  0  0  0  0  0  0  0  0  0  0  0  # atno 8010 bound_to 7997
  140.5398  143.9697  150.6512 H   0  0  0  0  0  0  0  0  0  0  0  0  # atno 10167 bound_to 10162
  156.1876  130.6774  151.0384 H   0  0  0  0  0  0  0  0  0  0  0  0  # atno 10718 bound_to 10713
  154.6334  135.5414  153.7707 H   0  0  0  0  0  0  0  0  0  0  0  0  # atno 10763 bound_to 10752
  153.0296  135.6441  154.1267 H   0  0  0  0  0  0  0  0  0  0  0  0  # atno 10764 bound_to 10752
  154.1195  135.2921  155.3191 H   0  0  0  0  0  0  0  0  0  0  0  0  # atno 10765 bound_to 10752
  139.8955  134.9551  156.6753 H   0  0  0  0  0  0  0  0  0  0  0  0  # atno 11005 bound_to 11000
  145.4325  139.1547  143.4014 LP  0  0  0  0  0  0  0  0  0  0  0  0  # atno 17320 bound_to 7965
  146.2855  140.4442  142.8759 LP  0  0  0  0  0  0  0  0  0  0  0  0  # atno 17321 bound_to 7965
  140.3095  143.3207  152.0893 LP  0  0  0  0  0  0  0  0  0  0  0  0  # atno 17342 bound_to 10162
  139.4984  144.6645  151.6387 LP  0  0  0  0  0  0  0  0  0  0  0  0  # atno 17343 bound_to 10162
  157.6909  131.0810  150.7111 LP  0  0  0  0  0  0  0  0  0  0  0  0  # atno 17370 bound_to 10713
  156.7167  130.4668  149.5533 LP  0  0  0  0  0  0  0  0  0  0  0  0  # atno 17371 bound_to 10713
  140.7342  133.9033  155.8232 LP  0  0  0  0  0  0  0  0  0  0  0  0  # atno 17394 bound_to 11000
  141.0129  134.0995  157.4202 LP  0  0  0  0  0  0  0  0  0  0  0  0  # atno 17395 bound_to 11000

$$$$
