AV-unprocessed.smi:1758|AV-procd|sdf|7082|dock10
  -GOLD-   22720 8303D 1   1.00000     0.00000
 Structure written by MMmdl.
 44 46  0  0  0  0  0  0  0  0  2 V2000
  151.0262  141.7304  157.0963 C   0  0  0  0  0  0  0  0  0  0  0  0
  150.1452  141.7770  155.8418 C   0  0  0  0  0  0  0  0  0  0  0  0
  150.0216  140.4718  155.2230 N   0  0  0  0  0  0  0  0  0  0  0  0
  148.8738  139.7361  155.0034 C   0  0  0  0  0  0  0  0  0  0  0  0
  149.2843  138.5874  154.3877 C   0  0  0  0  0  0  0  0  0  0  0  0
  148.5159  137.4883  153.9288 N   0  0  0  0  0  0  0  0  0  0  0  0
  147.2641  137.1627  154.2890 C   0  0  0  0  0  0  0  0  0  0  0  0
  146.5835  137.7698  155.1156 O   0  0  0  0  0  0  0  0  0  0  0  0
  146.8410  136.0669  153.6424 N   0  0  0  0  0  0  0  0  0  0  0  0
  145.5303  135.4412  153.8093 C   0  0  1  0  0  0  0  0  0  0  0  0
  144.3670  136.3659  153.4019 C   0  0  0  0  0  0  0  0  0  0  0  0
  143.3839  135.4494  152.6662 C   0  0  0  0  0  0  0  0  0  0  0  0
  144.2697  134.4819  152.0087 N   0  3  2  0  0  0  0  0  0  0  0  0
  143.6719  133.2829  151.3874 C   0  0  0  0  0  0  0  0  0  0  0  0
  144.7769  132.5365  150.6095 C   0  0  0  0  0  0  0  0  0  0  0  0
  146.0180  132.2496  151.4852 C   0  0  0  0  0  0  0  0  0  0  0  0
  146.5147  133.5190  152.2106 C   0  0  0  0  0  0  0  0  0  0  0  0
  145.3369  134.1553  152.9704 C   0  0  1  0  0  0  0  0  0  0  0  0
  150.6940  138.6955  154.2656 C   0  0  0  0  0  0  0  0  0  0  0  0
  151.1327  139.8357  154.7762 N   0  0  0  0  0  0  0  0  0  0  0  0
  151.1186  142.7211  157.5416 H   0  0  0  0  0  0  0  0  0  0  0  0
  152.0301  141.3772  156.8588 H   0  0  0  0  0  0  0  0  0  0  0  0
  150.6063  141.0645  157.8508 H   0  0  0  0  0  0  0  0  0  0  0  0
  149.1484  142.1437  156.0900 H   0  0  0  0  0  0  0  0  0  0  0  0
  150.5664  142.4705  155.1131 H   0  0  0  0  0  0  0  0  0  0  0  0
  147.8976  140.0951  155.2942 H   0  0  0  0  0  0  0  0  0  0  0  0
  148.9702  136.8862  153.2580 H   0  0  0  0  0  0  0  0  0  0  0  0
  147.4713  135.6359  152.9820 H   0  0  0  0  0  0  0  0  0  0  0  0
  145.3940  135.1839  154.8619 H   0  0  0  0  0  0  0  0  0  0  0  0
  143.9103  136.8681  154.2553 H   0  0  0  0  0  0  0  0  0  0  0  0
  144.7189  137.1383  152.7162 H   0  0  0  0  0  0  0  0  0  0  0  0
  142.7345  134.9335  153.3755 H   0  0  0  0  0  0  0  0  0  0  0  0
  142.7607  135.9862  151.9506 H   0  0  0  0  0  0  0  0  0  0  0  0
  143.2315  132.6417  152.1525 H   0  0  0  0  0  0  0  0  0  0  0  0
  142.8697  133.5791  150.7108 H   0  0  0  0  0  0  0  0  0  0  0  0
  144.3833  131.6050  150.2016 H   0  0  0  0  0  0  0  0  0  0  0  0
  145.0797  133.1404  149.7530 H   0  0  0  0  0  0  0  0  0  0  0  0
  145.7655  131.4887  152.2249 H   0  0  0  0  0  0  0  0  0  0  0  0
  146.8183  131.8293  150.8752 H   0  0  0  0  0  0  0  0  0  0  0  0
  147.3189  133.2578  152.8991 H   0  0  0  0  0  0  0  0  0  0  0  0
  146.9278  134.2247  151.4887 H   0  0  0  0  0  0  0  0  0  0  0  0
  144.9392  133.4031  153.6554 H   0  0  0  0  0  0  0  0  0  0  0  0
  151.3988  138.0005  153.8337 H   0  0  0  0  0  0  0  0  0  0  0  0
  144.7171  134.9951  151.2626 H   0  0  0  0  0  0  0  0  0  0  0  0
  1  2  1  0  0  0  0
  1 21  1  0  0  0  0
  1 22  1  0  0  0  0
  1 23  1  0  0  0  0
  2  3  1  0  0  0  0
  2 24  1  0  0  0  0
  2 25  1  0  0  0  0
  3 20  1  0  0  0  0
  3  4  1  0  0  0  0
  4  5  2  0  0  0  0
  4 26  1  0  0  0  0
  5  6  1  0  0  0  0
  5 19  1  0  0  0  0
  6  7  1  0  0  0  0
  6 27  1  0  0  0  0
  7  8  2  0  0  0  0
  7  9  1  0  0  0  0
  9 10  1  0  0  0  0
  9 28  1  0  0  0  0
 10 18  1  0  0  0  0
 10 11  1  0  0  0  0
 10 29  1  0  0  0  0
 11 12  1  0  0  0  0
 11 30  1  0  0  0  0
 11 31  1  0  0  0  0
 12 13  1  0  0  0  0
 12 32  1  0  0  0  0
 12 33  1  0  0  0  0
 13 18  1  0  0  0  0
 13 14  1  0  0  0  0
 13 44  1  0  0  0  0
 14 15  1  0  0  0  0
 14 34  1  0  0  0  0
 14 35  1  0  0  0  0
 15 16  1  0  0  0  0
 15 36  1  0  0  0  0
 15 37  1  0  0  0  0
 16 17  1  0  0  0  0
 16 38  1  0  0  0  0
 16 39  1  0  0  0  0
 17 18  1  0  0  0  0
 17 40  1  0  0  0  0
 17 41  1  0  0  0  0
 18 42  1  0  0  0  0
 19 20  2  0  0  0  0
 19 43  1  0  0  0  0
M  CHG  1  13   1
M  END
> <s_m_source_file>
AV-unprocessed.smi

> <i_m_source_file_index>
1758

> <i_lp_mmshare_version>
43012

> <i_f3d_flags>
0

> <s_epik_input>
W0NIM11bQ0gyXW4xW2NIXWMoW2NIXW4xKVtOSF1DKD1PKVtOSF1bQ0BIXShbQ0gyXVtDSDJdMilbQ0BASF0oTjIzKVtDSDJdW0NIMl1bQ0gyXVtDSDJdMw==

> <s_epik_cmdline>
J2VwaWtfcHl0aG9uJywgJy1waCcsICc3LjAnLCAnLXRuJywgJzgnLCAnLW1hJywgJzIwMCcsICctbWV0YWxfYmluZGluZycsICctaW1hZScsICc8aW5maWxlLm1hZT4nLCAnLW9tYWUnLCAnPG91dGZpbGUubWFlPic=

> <r_lp_tautomer_probability>
1

> <r_epik_Ionization_Penalty>
0.00111541

> <r_epik_Ionization_Penalty_Charging>
0.000974069

> <r_epik_Ionization_Penalty_Neutral>
0.000141346

> <r_epik_State_Penalty>
0.000633842

> <r_epik_Charging_Adjusted_Penalty>
0.00160791

> <i_epik_Tot_Q>
1

> <i_epik_Tot_abs_Q>
1

> <r_epik_Metal_State_Penalty>
-0

> <b_epik_Metal_Only>
0

> <s_lp_Force_Field>
OPLS_2005

> <r_lp_Energy>
45.3498

> <b_lp_Chiralities_Consistent>
1

> <s_lp_Variant>
AV-unprocessed.smi:1758-4

> <Gold.Version>
5.8.1

> <Gold.Id.Protein>
6NUR|6NUR_protein|mol2

> <Gold.PLP.Fitness>
38.0916

> <Gold.PLP.PLP>
-30.0142

> <Gold.PLP.part.hbond>
-2.7561

> <Gold.PLP.part.metal>
0.0000

> <Gold.PLP.part.buried>
-5.2278

> <Gold.PLP.part.nonpolar>
-22.6126

> <Gold.PLP.part.repulsive>
0.1090

> <Gold.PLP.ligand.clash>
0.0000

> <Gold.PLP.ligand.torsion>
0.0777

> <Gold.PLP.Chemscore.Hbond>
2.7440

> <Gold.PLP.Chemscore.CHOScore>
0.0000

> <Gold.PLP.Chemscore.Metal>
0.0000

> <Gold.Chemscore.Hbonds>
donor molecule, donor type, donor heavy atom, donor atom, acceptor molecule, acceptor atom, score
      L1  H     6    27       P1  7948  0.98
      L1  H     9    28       P1  7948  0.74
      P1  H  7989  7998       L1    20  1.00

> <Gold.PLP.Chemscore.Internal.Correction>
0.0008

> <Gold.Rescore>
     Score         DG    S(hbond)    S(metal)    S(lipo)     H(rot)  DE(clash)    DE(int)     intcor
     17.11     -18.29       2.24        0.00      71.60       1.19       0.08       1.09       ----

> <Gold.Chemscore.Fitness>
17.1139

> <Gold.Chemscore.DG>
-18.2861

> <Gold.Chemscore.ZeroCoef>
-5.4800

> <Gold.Chemscore.Hbond>
2.2368

> <Gold.Chemscore.Metal>
0.0000

> <Gold.Chemscore.Lipo>
71.6018

> <Gold.Chemscore.Internal_Hbond>
0.0000

> <Gold.Chemscore.DEClash>
0.0811

> <Gold.Chemscore.DEInternal>
1.0912

> <Gold.Chemscore.Rot>
1.1884

> <Gold.Chemscore.Internal.Correction>
   9.000000E+99

> <Gold.Chemscore.Hbonds>
donor molecule, donor type, donor heavy atom, donor atom, acceptor molecule, acceptor atom, score
      L1  H     6    27       P1  7948  0.86
      L1  H     9    28       P1  7948  0.73
      P1  H  7989  7998       L1    20  0.24

> <Gold.Chemscore.Hbond.Weighted>
-7.4710

> <Gold.Chemscore.Metal.Weighted>
-0.0000

> <Gold.Chemscore.Lipo.Weighted>
-8.3774

> <Gold.Chemscore.Internal_Hbond.Weighted>
0.0000

> <Gold.Chemscore.DEClash.Weighted>
0.0811

> <Gold.Chemscore.DEInternal.Weighted>
1.0912

> <Gold.Chemscore.Rot.Weighted>
3.0423

> <Gold.Chemscore.Internal.Correction.Weighted>
   9.000000E+99

> <Gold.Protein.RotatedTorsions>
[ 6907 6896 6895 6894 ] final -161.90 input  -60.11 | X-H torsion
[ 7974 7965 7964 7962 ] final -101.13 input  175.53 | X-H torsion
[ 8008 7997 7996 7995 ] final   90.74 input   59.86 | X-H torsion
[ 10167 10162 10161 10158 ] final  -24.76 input  -65.29 | X-H torsion
[ 10718 10713 10712 10709 ] final  -73.49 input   66.30 | X-H torsion
[ 10763 10752 10751 10750 ] final -156.80 input  -60.55 | X-H torsion
[ 11005 11000 10999 10996 ] final  -10.46 input  -57.11 | X-H torsion

> <Gold.Protein.ActiveResidues>
 VAL166  LYS551  ARG553  GLY616  TRP617  ASP618  TYR619  PRO620  LYS621  CYS622 
 ASP623  PHE694  ASN695  SER759  ASP760  ASP761  ALA762  ILE779  LEU786  VAL792 
 PHE793  MET794  SER795  GLU796  ALA797  LYS798  CYS799  TRP800  GLU811  SER814 

> <Gold.Protein.RotatedAtoms>
  151.3719  133.3852  159.2700 H   0  0  0  0  0  0  0  0  0  0  0  0  # atno 6907 bound_to 6896
  150.9645  134.9029  159.7761 H   0  0  0  0  0  0  0  0  0  0  0  0  # atno 6908 bound_to 6896
  152.5162  134.3679  159.9360 H   0  0  0  0  0  0  0  0  0  0  0  0  # atno 6909 bound_to 6896
  145.2855  140.9338  143.2907 H   0  0  0  0  0  0  0  0  0  0  0  0  # atno 7974 bound_to 7965
  156.0155  140.3346  155.6985 H   0  0  0  0  0  0  0  0  0  0  0  0  # atno 8008 bound_to 7997
  155.6096  140.0664  157.2727 H   0  0  0  0  0  0  0  0  0  0  0  0  # atno 8009 bound_to 7997
  154.4297  140.1796  156.1246 H   0  0  0  0  0  0  0  0  0  0  0  0  # atno 8010 bound_to 7997
  140.7288  143.4324  151.0781 H   0  0  0  0  0  0  0  0  0  0  0  0  # atno 10167 bound_to 10162
  156.0278  130.4395  150.2749 H   0  0  0  0  0  0  0  0  0  0  0  0  # atno 10718 bound_to 10713
  154.7685  135.3138  154.8237 H   0  0  0  0  0  0  0  0  0  0  0  0  # atno 10763 bound_to 10752
  153.8978  135.6819  153.4761 H   0  0  0  0  0  0  0  0  0  0  0  0  # atno 10764 bound_to 10752
  153.1295  135.4786  154.9260 H   0  0  0  0  0  0  0  0  0  0  0  0  # atno 10765 bound_to 10752
  140.7450  133.8639  155.8998 H   0  0  0  0  0  0  0  0  0  0  0  0  # atno 11005 bound_to 11000
  144.9216  139.4404  143.6538 LP  0  0  0  0  0  0  0  0  0  0  0  0  # atno 17320 bound_to 7965
  146.3202  139.8080  142.8951 LP  0  0  0  0  0  0  0  0  0  0  0  0  # atno 17321 bound_to 7965
  139.7982  143.8121  152.3160 LP  0  0  0  0  0  0  0  0  0  0  0  0  # atno 17342 bound_to 10162
  139.8128  144.7328  150.9674 LP  0  0  0  0  0  0  0  0  0  0  0  0  # atno 17343 bound_to 10162
  157.0853  131.0154  151.3142 LP  0  0  0  0  0  0  0  0  0  0  0  0  # atno 17370 bound_to 10713
  157.4896  130.7814  149.7494 LP  0  0  0  0  0  0  0  0  0  0  0  0  # atno 17371 bound_to 10713
  140.9802  134.1415  157.4501 LP  0  0  0  0  0  0  0  0  0  0  0  0  # atno 17394 bound_to 11000
  139.8798  135.0008  156.6031 LP  0  0  0  0  0  0  0  0  0  0  0  0  # atno 17395 bound_to 11000

$$$$
