AV-unprocessed.smi:2159|AV-procd|sdf|8795|dock8
  -GOLD-   2272011573D 1   1.00000     0.00000
 Structure written by MMmdl.
 48 50  0  0  0  0  0  0  0  0  2 V2000
  151.8021  136.2905  155.2878 O   0  0  0  0  0  0  0  0  0  0  0  0
  150.8363  137.0348  155.1214 C   0  0  0  0  0  0  0  0  0  0  0  0
  151.0194  138.3951  154.4476 C   0  0  0  0  0  0  0  0  0  0  0  0
  152.2370  139.1538  155.0126 C   0  0  0  0  0  0  0  0  0  0  0  0
  151.8580  140.0157  156.1359 N   0  0  0  0  0  0  0  0  0  0  0  0
  150.9205  140.9706  156.0601 C   0  0  0  0  0  0  0  0  0  0  0  0
  150.2665  141.2674  155.0593 O   0  0  0  0  0  0  0  0  0  0  0  0
  150.7351  141.6670  157.4057 C   0  0  2  0  0  0  0  0  0  0  0  0
  150.9428  143.1931  157.3085 C   0  0  0  0  0  0  0  0  0  0  0  0
  151.0984  143.8216  158.7039 C   0  0  0  0  0  0  0  0  0  0  0  0
  152.1752  143.1337  159.5726 C   0  0  0  0  0  0  0  0  0  0  0  0
  152.8282  141.9149  158.8964 C   0  0  0  0  0  0  0  0  0  0  0  0
  151.7710  140.9585  158.3054 C   0  0  2  0  0  0  0  0  0  0  0  0
  152.3945  139.9331  157.3612 C   0  0  0  0  0  0  0  0  0  0  0  0
  153.2708  139.1459  157.7184 O   0  0  0  0  0  0  0  0  0  0  0  0
  149.5838  136.7088  155.4749 N   0  0  0  0  0  0  0  0  0  0  0  0
  149.1706  135.4180  156.0178 C   0  0  0  0  0  0  0  0  0  0  0  0
  149.9091  134.2283  155.3678 C   0  0  0  0  0  0  0  0  0  0  0  0
  148.9946  133.2904  154.5973 C   0  0  0  0  0  0  0  0  0  0  0  0
  148.8212  131.9390  154.9694 C   0  0  0  0  0  0  0  0  0  0  0  0
  147.9788  131.1131  154.1972 C   0  0  0  0  0  0  0  0  0  0  0  0
  147.3232  131.6564  153.0732 C   0  0  0  0  0  0  0  0  0  0  0  0
  147.5275  133.0135  152.7497 C   0  0  0  0  0  0  0  0  0  0  0  0
  148.3455  133.7717  153.5126 N   0  3  0  0  0  0  0  0  0  0  0  0
  151.1414  138.2414  153.3738 H   0  0  0  0  0  0  0  0  0  0  0  0
  150.1126  138.9875  154.5739 H   0  0  0  0  0  0  0  0  0  0  0  0
  153.0067  138.4438  155.3203 H   0  0  0  0  0  0  0  0  0  0  0  0
  152.7033  139.7643  154.2367 H   0  0  0  0  0  0  0  0  0  0  0  0
  149.7294  141.4575  157.7729 H   0  0  0  0  0  0  0  0  0  0  0  0
  151.8275  143.4198  156.7108 H   0  0  0  0  0  0  0  0  0  0  0  0
  150.1007  143.6530  156.7901 H   0  0  0  0  0  0  0  0  0  0  0  0
  151.3251  144.8833  158.6042 H   0  0  0  0  0  0  0  0  0  0  0  0
  150.1403  143.7690  159.2225 H   0  0  0  0  0  0  0  0  0  0  0  0
  152.9482  143.8539  159.8424 H   0  0  0  0  0  0  0  0  0  0  0  0
  151.7213  142.8188  160.5131 H   0  0  0  0  0  0  0  0  0  0  0  0
  153.5025  142.2611  158.1111 H   0  0  0  0  0  0  0  0  0  0  0  0
  153.4525  141.3859  159.6175 H   0  0  0  0  0  0  0  0  0  0  0  0
  151.2593  140.4317  159.1120 H   0  0  0  0  0  0  0  0  0  0  0  0
  148.8555  137.3890  155.3109 H   0  0  0  0  0  0  0  0  0  0  0  0
  149.2994  135.4033  157.1011 H   0  0  0  0  0  0  0  0  0  0  0  0
  148.1002  135.3217  155.8339 H   0  0  0  0  0  0  0  0  0  0  0  0
  150.6761  134.6014  154.6880 H   0  0  0  0  0  0  0  0  0  0  0  0
  150.4403  133.6618  156.1333 H   0  0  0  0  0  0  0  0  0  0  0  0
  149.3357  131.5358  155.8297 H   0  0  0  0  0  0  0  0  0  0  0  0
  147.8402  130.0752  154.4628 H   0  0  0  0  0  0  0  0  0  0  0  0
  146.6740  131.0403  152.4683 H   0  0  0  0  0  0  0  0  0  0  0  0
  147.0669  133.5109  151.9086 H   0  0  0  0  0  0  0  0  0  0  0  0
  148.4810  134.7503  153.2575 H   0  0  0  0  0  0  0  0  0  0  0  0
  1  2  2  0  0  0  0
  2  3  1  0  0  0  0
  2 16  1  0  0  0  0
  3  4  1  0  0  0  0
  3 25  1  0  0  0  0
  3 26  1  0  0  0  0
  4  5  1  0  0  0  0
  4 27  1  0  0  0  0
  4 28  1  0  0  0  0
  5 14  1  0  0  0  0
  5  6  1  0  0  0  0
  6  7  2  0  0  0  0
  6  8  1  0  0  0  0
  8 13  1  0  0  0  0
  8  9  1  0  0  0  0
  8 29  1  0  0  0  0
  9 10  1  0  0  0  0
  9 30  1  0  0  0  0
  9 31  1  0  0  0  0
 10 11  1  0  0  0  0
 10 32  1  0  0  0  0
 10 33  1  0  0  0  0
 11 12  1  0  0  0  0
 11 34  1  0  0  0  0
 11 35  1  0  0  0  0
 12 13  1  0  0  0  0
 12 36  1  0  0  0  0
 12 37  1  0  0  0  0
 13 14  1  0  0  0  0
 13 38  1  0  0  0  0
 14 15  2  0  0  0  0
 16 17  1  0  0  0  0
 16 39  1  0  0  0  0
 17 18  1  0  0  0  0
 17 40  1  0  0  0  0
 17 41  1  0  0  0  0
 18 19  1  0  0  0  0
 18 42  1  0  0  0  0
 18 43  1  0  0  0  0
 19 24  1  0  0  0  0
 19 20  2  0  0  0  0
 20 21  1  0  0  0  0
 20 44  1  0  0  0  0
 21 22  2  0  0  0  0
 21 45  1  0  0  0  0
 22 23  1  0  0  0  0
 22 46  1  0  0  0  0
 23 24  2  0  0  0  0
 23 47  1  0  0  0  0
 24 48  1  0  0  0  0
M  CHG  1  24   1
M  END
> <s_m_source_file>
AV-unprocessed.smi

> <i_m_source_file_index>
2159

> <i_lp_mmshare_version>
43012

> <i_f3d_flags>
0

> <s_epik_input>
bjFbY0hdW2NIXVtjSF1bY0hdYzFbQ0gyXVtDSDJdW05IXUMoPU8pW0NIMl1bQ0gyXU4oQzI9TylDKD1PKVtDQEhdKFtDQEBIXTIzKVtDSDJdW0NIMl1bQ0gyXVtDSDJdMw==

> <s_epik_cmdline>
J2VwaWtfcHl0aG9uJywgJy1waCcsICc3LjAnLCAnLXRuJywgJzgnLCAnLW1hJywgJzIwMCcsICctbWV0YWxfYmluZGluZycsICctaW1hZScsICc8aW5maWxlLm1hZT4nLCAnLW9tYWUnLCAnPG91dGZpbGUubWFlPic=

> <r_lp_tautomer_probability>
1

> <r_epik_Ionization_Penalty>
1.85146

> <r_epik_Ionization_Penalty_Charging>
1.85146

> <r_epik_Ionization_Penalty_Neutral>
2.95922e-08

> <r_epik_State_Penalty>
1.96899

> <r_epik_Charging_Adjusted_Penalty>
3.82044

> <i_epik_Tot_Q>
1

> <i_epik_Tot_abs_Q>
1

> <r_epik_Metal_State_Penalty>
1.99467

> <b_epik_Metal_Only>
0

> <s_lp_Force_Field>
OPLS_2005

> <r_lp_Energy>
31.2596

> <b_lp_Chiralities_Consistent>
1

> <s_lp_Variant>
AV-unprocessed.smi:2159-5

> <Gold.Version>
5.8.1

> <Gold.Id.Protein>
6NUR|6NUR_protein|mol2

> <Gold.PLP.Fitness>
56.5538

> <Gold.PLP.PLP>
-44.7000

> <Gold.PLP.part.hbond>
-3.7925

> <Gold.PLP.part.metal>
0.0000

> <Gold.PLP.part.buried>
0.1725

> <Gold.PLP.part.nonpolar>
-40.7706

> <Gold.PLP.part.repulsive>
0.2302

> <Gold.PLP.ligand.clash>
0.0000

> <Gold.PLP.ligand.torsion>
0.9349

> <Gold.PLP.Chemscore.Hbond>
4.5312

> <Gold.PLP.Chemscore.CHOScore>
0.0000

> <Gold.PLP.Chemscore.Metal>
0.0000

> <Gold.Chemscore.Hbonds>
donor molecule, donor type, donor heavy atom, donor atom, acceptor molecule, acceptor atom, score
      L1  H    24    48       P1  7948  1.87
      P1  H  7989  7998       L1     7  0.49
      P1  H  7997  8010       L1    15  0.98
      P1  H 10752 10764       L1     1  0.99

> <Gold.PLP.Chemscore.Internal.Correction>
0.1299

> <Gold.Rescore>
     Score         DG    S(hbond)    S(metal)    S(lipo)     H(rot)  DE(clash)    DE(int)     intcor
     15.91     -19.67       2.34        0.00     100.35       2.10       0.44       3.32       ----

> <Gold.Chemscore.Fitness>
15.9116

> <Gold.Chemscore.DG>
-19.6682

> <Gold.Chemscore.ZeroCoef>
-5.4800

> <Gold.Chemscore.Hbond>
2.3392

> <Gold.Chemscore.Metal>
0.0000

> <Gold.Chemscore.Lipo>
100.3495

> <Gold.Chemscore.Internal_Hbond>
0.0000

> <Gold.Chemscore.DEClash>
0.4380

> <Gold.Chemscore.DEInternal>
3.3187

> <Gold.Chemscore.Rot>
2.0959

> <Gold.Chemscore.Internal.Correction>
   9.000000E+99

> <Gold.Chemscore.Hbonds>
donor molecule, donor type, donor heavy atom, donor atom, acceptor molecule, acceptor atom, score
      L1  H    24    48       P1  7948  0.51
      P1  H  7989  7998       L1     7  0.19
      P1  H  7997  8010       L1    15  0.28
      P1  H 10752 10764       L1     1  0.90

> <Gold.Chemscore.Hbond.Weighted>
-7.8128

> <Gold.Chemscore.Metal.Weighted>
-0.0000

> <Gold.Chemscore.Lipo.Weighted>
-11.7409

> <Gold.Chemscore.Internal_Hbond.Weighted>
0.0000

> <Gold.Chemscore.DEClash.Weighted>
0.4380

> <Gold.Chemscore.DEInternal.Weighted>
3.3187

> <Gold.Chemscore.Rot.Weighted>
5.3655

> <Gold.Chemscore.Internal.Correction.Weighted>
   9.000000E+99

> <Gold.Protein.RotatedTorsions>
[ 6907 6896 6895 6894 ] final  178.22 input  -60.11 | X-H torsion
[ 7974 7965 7964 7962 ] final -179.44 input  175.53 | X-H torsion
[ 8008 7997 7996 7995 ] final   19.69 input   59.86 | X-H torsion
[ 10167 10162 10161 10158 ] final  -20.36 input  -65.29 | X-H torsion
[ 10718 10713 10712 10709 ] final   70.16 input   66.30 | X-H torsion
[ 10763 10752 10751 10750 ] final  -70.76 input  -60.55 | X-H torsion
[ 11005 11000 10999 10996 ] final -157.83 input  -57.11 | X-H torsion

> <Gold.Protein.ActiveResidues>
 VAL166  LYS551  ARG553  GLY616  TRP617  ASP618  TYR619  PRO620  LYS621  CYS622 
 ASP623  PHE694  ASN695  SER759  ASP760  ASP761  ALA762  ILE779  LEU786  VAL792 
 PHE793  MET794  SER795  GLU796  ALA797  LYS798  CYS799  TRP800  GLU811  SER814 

> <Gold.Protein.RotatedAtoms>
  151.6914  133.3311  159.3243 H   0  0  0  0  0  0  0  0  0  0  0  0  # atno 6907 bound_to 6896
  150.7777  134.6695  159.6393 H   0  0  0  0  0  0  0  0  0  0  0  0  # atno 6908 bound_to 6896
  152.3825  134.6572  160.0190 H   0  0  0  0  0  0  0  0  0  0  0  0  # atno 6909 bound_to 6896
  144.7136  140.0717  143.6429 H   0  0  0  0  0  0  0  0  0  0  0  0  # atno 7974 bound_to 7965
  154.9244  140.3032  155.5199 H   0  0  0  0  0  0  0  0  0  0  0  0  # atno 8008 bound_to 7997
  156.3008  140.2365  156.4234 H   0  0  0  0  0  0  0  0  0  0  0  0  # atno 8009 bound_to 7997
  154.8299  140.0419  157.1458 H   0  0  0  0  0  0  0  0  0  0  0  0  # atno 8010 bound_to 7997
  140.7275  143.4730  151.0221 H   0  0  0  0  0  0  0  0  0  0  0  0  # atno 10167 bound_to 10162
  157.6385  130.9463  150.0613 H   0  0  0  0  0  0  0  0  0  0  0  0  # atno 10718 bound_to 10713
  154.4222  135.5984  153.6017 H   0  0  0  0  0  0  0  0  0  0  0  0  # atno 10763 bound_to 10752
  152.9794  135.5955  154.3941 H   0  0  0  0  0  0  0  0  0  0  0  0  # atno 10764 bound_to 10752
  154.3768  135.2841  155.2213 H   0  0  0  0  0  0  0  0  0  0  0  0  # atno 10765 bound_to 10752
  140.6603  134.4356  157.5234 H   0  0  0  0  0  0  0  0  0  0  0  0  # atno 11005 bound_to 11000
  145.9778  139.2918  143.1060 LP  0  0  0  0  0  0  0  0  0  0  0  0  # atno 17320 bound_to 7965
  145.9045  140.9221  143.0486 LP  0  0  0  0  0  0  0  0  0  0  0  0  # atno 17321 bound_to 7965
  139.8423  143.7547  152.3180 LP  0  0  0  0  0  0  0  0  0  0  0  0  # atno 17342 bound_to 10162
  139.7700  144.7479  151.0238 LP  0  0  0  0  0  0  0  0  0  0  0  0  # atno 17343 bound_to 10162
  156.1645  130.3644  149.9252 LP  0  0  0  0  0  0  0  0  0  0  0  0  # atno 17370 bound_to 10713
  156.7242  130.9018  151.3620 LP  0  0  0  0  0  0  0  0  0  0  0  0  # atno 17371 bound_to 10713
  139.9015  134.8545  156.1876 LP  0  0  0  0  0  0  0  0  0  0  0  0  # atno 17394 bound_to 11000
  141.0470  133.6908  156.1701 LP  0  0  0  0  0  0  0  0  0  0  0  0  # atno 17395 bound_to 11000

$$$$
