AV-unprocessed.smi:1099|AV-procd|sdf|4758|dock6
  -GOLD-   22720 3293D 1   1.00000     0.00000
 Structure written by MMmdl.
 41 43  0  0  0  0  0  0  0  0  1 V2000
  150.0931  144.9832  159.8256 C   0  0  0  0  0  0  0  0  0  0  0  0
  151.5884  144.7740  159.5699 C   0  0  0  0  0  0  0  0  0  0  0  0
  152.1282  143.5643  160.2568 C   0  0  0  0  0  0  0  0  0  0  0  0
  152.8464  142.6239  159.6377 N   0  0  0  0  0  0  0  0  0  0  0  0
  153.2318  141.5879  160.4951 C   0  0  0  0  0  0  0  0  0  0  0  0
  154.0566  140.4474  159.9718 C   0  0  0  0  0  0  0  0  0  0  0  0
  153.3007  139.1061  159.9035 C   0  0  0  0  0  0  0  0  0  0  0  0
  152.5574  138.9339  158.6566 N   0  0  0  0  0  0  0  0  0  0  0  0
  151.7546  137.8973  158.3657 C   0  0  0  0  0  0  0  0  0  0  0  0
  151.5656  136.9579  159.1392 O   0  0  0  0  0  0  0  0  0  0  0  0
  151.0705  137.9329  156.9878 C   0  0  1  0  0  0  0  0  0  0  0  0
  150.2494  139.2225  156.7429 C   0  0  0  0  0  0  0  0  0  0  0  0
  150.8458  139.7810  155.4361 C   0  0  2  0  0  0  0  0  0  0  0  0
  150.4600  138.8592  154.2640 C   0  0  0  0  0  0  0  0  0  0  0  0
  151.3342  137.6139  154.5099 C   0  0  0  0  0  0  0  0  0  0  0  0
  152.0774  137.9760  155.8103 C   0  0  1  0  0  0  0  0  0  0  0  0
  152.3265  139.4696  155.6019 C   0  0  0  0  0  0  0  0  0  0  0  0
  152.8146  141.7742  161.7895 C   0  0  0  0  0  0  0  0  0  0  0  0
  151.9258  143.2603  161.9781 S   0  0  0  0  0  0  0  0  0  0  0  0
  149.7273  145.8629  159.2957 H   0  0  0  0  0  0  0  0  0  0  0  0
  149.8982  145.1310  160.8874 H   0  0  0  0  0  0  0  0  0  0  0  0
  149.5108  144.1241  159.4908 H   0  0  0  0  0  0  0  0  0  0  0  0
  151.7705  144.6769  158.4993 H   0  0  0  0  0  0  0  0  0  0  0  0
  152.1489  145.6481  159.9034 H   0  0  0  0  0  0  0  0  0  0  0  0
  154.4341  140.6916  158.9785 H   0  0  0  0  0  0  0  0  0  0  0  0
  154.9428  140.3188  160.5949 H   0  0  0  0  0  0  0  0  0  0  0  0
  154.0025  138.2826  160.0452 H   0  0  0  0  0  0  0  0  0  0  0  0
  152.5959  139.0427  160.7326 H   0  0  0  0  0  0  0  0  0  0  0  0
  152.6632  139.6578  157.9607 H   0  0  0  0  0  0  0  0  0  0  0  0
  150.4260  137.0566  156.8968 H   0  0  0  0  0  0  0  0  0  0  0  0
  149.1849  139.0114  156.6399 H   0  0  0  0  0  0  0  0  0  0  0  0
  150.3613  139.9459  157.5524 H   0  0  0  0  0  0  0  0  0  0  0  0
  150.6113  140.8315  155.2627 H   0  0  0  0  0  0  0  0  0  0  0  0
  149.3944  138.6263  154.2549 H   0  0  0  0  0  0  0  0  0  0  0  0
  150.7100  139.3199  153.3074 H   0  0  0  0  0  0  0  0  0  0  0  0
  150.7455  136.7004  154.6032 H   0  0  0  0  0  0  0  0  0  0  0  0
  152.0384  137.4731  153.6888 H   0  0  0  0  0  0  0  0  0  0  0  0
  152.9792  137.3838  155.9721 H   0  0  0  0  0  0  0  0  0  0  0  0
  152.9160  139.6888  154.7099 H   0  0  0  0  0  0  0  0  0  0  0  0
  152.7817  139.9745  156.4541 H   0  0  0  0  0  0  0  0  0  0  0  0
  152.9915  141.1382  162.6441 H   0  0  0  0  0  0  0  0  0  0  0  0
  1  2  1  0  0  0  0
  1 20  1  0  0  0  0
  1 21  1  0  0  0  0
  1 22  1  0  0  0  0
  2  3  1  0  0  0  0
  2 23  1  0  0  0  0
  2 24  1  0  0  0  0
  3 19  1  0  0  0  0
  3  4  2  0  0  0  0
  4  5  1  0  0  0  0
  5  6  1  0  0  0  0
  5 18  2  0  0  0  0
  6  7  1  0  0  0  0
  6 25  1  0  0  0  0
  6 26  1  0  0  0  0
  7  8  1  0  0  0  0
  7 27  1  0  0  0  0
  7 28  1  0  0  0  0
  8  9  1  0  0  0  0
  8 29  1  0  0  0  0
  9 10  2  0  0  0  0
  9 11  1  0  0  0  0
 11 16  1  0  0  0  0
 11 12  1  0  0  0  0
 11 30  1  0  0  0  0
 12 13  1  0  0  0  0
 12 31  1  0  0  0  0
 12 32  1  0  0  0  0
 13 17  1  0  0  0  0
 13 14  1  0  0  0  0
 13 33  1  0  0  0  0
 14 15  1  0  0  0  0
 14 34  1  0  0  0  0
 14 35  1  0  0  0  0
 15 16  1  0  0  0  0
 15 36  1  0  0  0  0
 15 37  1  0  0  0  0
 16 17  1  0  0  0  0
 16 38  1  0  0  0  0
 17 39  1  0  0  0  0
 17 40  1  0  0  0  0
 18 19  1  0  0  0  0
 18 41  1  0  0  0  0
M  END
> <s_m_source_file>
AV-unprocessed.smi

> <i_m_source_file_index>
1099

> <i_lp_mmshare_version>
43012

> <i_f3d_flags>
0

> <s_epik_input>
W0NIM11bQ0gyXWMxbmMoW2NIXXMxKVtDSDJdW0NIMl1bTkhdQyg9TylbQ0BIXShbQ0gyXVtDQEBIXTIzKVtDQEBIXShbQ0gyXTMpW0NIMl1bQ0gyXTI=

> <s_epik_cmdline>
J2VwaWtfcHl0aG9uJywgJy1waCcsICc3LjAnLCAnLXRuJywgJzgnLCAnLW1hJywgJzIwMCcsICctbWV0YWxfYmluZGluZycsICctaW1hZScsICc8aW5maWxlLm1hZT4nLCAnLW9tYWUnLCAnPG91dGZpbGUubWFlPic=

> <r_epik_Ionization_Penalty>
0.00110131

> <r_epik_Ionization_Penalty_Charging>
0

> <r_epik_Ionization_Penalty_Neutral>
0.00110131

> <r_epik_State_Penalty>
0.00072257

> <r_epik_Charging_Adjusted_Penalty>
0.00072257

> <i_epik_Tot_Q>
0

> <i_epik_Tot_abs_Q>
0

> <r_epik_Metal_State_Penalty>
-0

> <b_epik_Metal_Only>
0

> <s_lp_Force_Field>
OPLS_2005

> <r_lp_Energy>
38.7505

> <b_lp_Chiralities_Consistent>
1

> <s_lp_Variant>
AV-unprocessed.smi:1099-4

> <Gold.Version>
5.8.1

> <Gold.Id.Protein>
6NUR|6NUR_protein|mol2

> <Gold.PLP.Fitness>
46.9568

> <Gold.PLP.PLP>
-44.7742

> <Gold.PLP.part.hbond>
-1.0000

> <Gold.PLP.part.metal>
0.0000

> <Gold.PLP.part.buried>
-5.4707

> <Gold.PLP.part.nonpolar>
-38.8224

> <Gold.PLP.part.repulsive>
0.0837

> <Gold.PLP.ligand.clash>
0.0000

> <Gold.PLP.ligand.torsion>
0.3503

> <Gold.PLP.Chemscore.Hbond>
0.9425

> <Gold.PLP.Chemscore.CHOScore>
0.0000

> <Gold.PLP.Chemscore.Metal>
0.0000

> <Gold.Chemscore.Hbonds>
donor molecule, donor type, donor heavy atom, donor atom, acceptor molecule, acceptor atom, score
      P1  H  6896  6909       L1    10  1.00

> <Gold.PLP.Chemscore.Internal.Correction>
0.0557

> <Gold.Rescore>
     Score         DG    S(hbond)    S(metal)    S(lipo)     H(rot)  DE(clash)    DE(int)     intcor
     19.92     -20.26       0.97        0.00     129.56       1.42       0.08       0.26       ----

> <Gold.Chemscore.Fitness>
19.9172

> <Gold.Chemscore.DG>
-20.2583

> <Gold.Chemscore.ZeroCoef>
-5.4800

> <Gold.Chemscore.Hbond>
0.9720

> <Gold.Chemscore.Metal>
0.0000

> <Gold.Chemscore.Lipo>
129.5559

> <Gold.Chemscore.Internal_Hbond>
0.0000

> <Gold.Chemscore.DEClash>
0.0799

> <Gold.Chemscore.DEInternal>
0.2612

> <Gold.Chemscore.Rot>
1.4165

> <Gold.Chemscore.Internal.Correction>
   9.000000E+99

> <Gold.Chemscore.Hbonds>
donor molecule, donor type, donor heavy atom, donor atom, acceptor molecule, acceptor atom, score
      P1  H  6896  6909       L1    10  0.96

> <Gold.Chemscore.Hbond.Weighted>
-3.2464

> <Gold.Chemscore.Metal.Weighted>
-0.0000

> <Gold.Chemscore.Lipo.Weighted>
-15.1580

> <Gold.Chemscore.Internal_Hbond.Weighted>
0.0000

> <Gold.Chemscore.DEClash.Weighted>
0.0799

> <Gold.Chemscore.DEInternal.Weighted>
0.2612

> <Gold.Chemscore.Rot.Weighted>
3.6262

> <Gold.Chemscore.Internal.Correction.Weighted>
   9.000000E+99

> <Gold.Protein.RotatedTorsions>
[ 6907 6896 6895 6894 ] final  113.20 input  -60.11 | X-H torsion
[ 7974 7965 7964 7962 ] final -155.81 input  175.53 | X-H torsion
[ 8008 7997 7996 7995 ] final   84.39 input   59.86 | X-H torsion
[ 10167 10162 10161 10158 ] final   46.39 input  -65.29 | X-H torsion
[ 10718 10713 10712 10709 ] final  118.42 input   66.30 | X-H torsion
[ 10763 10752 10751 10750 ] final   95.56 input  -60.55 | X-H torsion
[ 11005 11000 10999 10996 ] final   -3.04 input  -57.11 | X-H torsion

> <Gold.Protein.ActiveResidues>
 VAL166  LYS551  ARG553  GLY616  TRP617  ASP618  TYR619  PRO620  LYS621  CYS622 
 ASP623  PHE694  ASN695  SER759  ASP760  ASP761  ALA762  ILE779  LEU786  VAL792 
 PHE793  MET794  SER795  GLU796  ALA797  LYS798  CYS799  TRP800  GLU811  SER814 

> <Gold.Protein.RotatedAtoms>
  152.4874  133.8409  159.7151 H   0  0  0  0  0  0  0  0  0  0  0  0  # atno 6907 bound_to 6896
  150.8973  133.7155  159.2895 H   0  0  0  0  0  0  0  0  0  0  0  0  # atno 6908 bound_to 6896
  151.4608  135.1042  159.9776 H   0  0  0  0  0  0  0  0  0  0  0  0  # atno 6909 bound_to 6896
  144.7622  140.4197  143.5968 H   0  0  0  0  0  0  0  0  0  0  0  0  # atno 7974 bound_to 7965
  155.9364  140.3411  155.6291 H   0  0  0  0  0  0  0  0  0  0  0  0  # atno 8008 bound_to 7997
  155.7094  140.0770  157.2396 H   0  0  0  0  0  0  0  0  0  0  0  0  # atno 8009 bound_to 7997
  154.4094  140.1625  156.2267 H   0  0  0  0  0  0  0  0  0  0  0  0  # atno 8010 bound_to 7997
  140.3144  144.2781  150.6194 H   0  0  0  0  0  0  0  0  0  0  0  0  # atno 10167 bound_to 10162
  157.6031  131.1048  150.7753 H   0  0  0  0  0  0  0  0  0  0  0  0  # atno 10718 bound_to 10713
  153.2547  135.4249  155.0833 H   0  0  0  0  0  0  0  0  0  0  0  0  # atno 10763 bound_to 10752
  154.8396  135.3434  154.6463 H   0  0  0  0  0  0  0  0  0  0  0  0  # atno 10764 bound_to 10752
  153.6884  135.7035  153.5154 H   0  0  0  0  0  0  0  0  0  0  0  0  # atno 10765 bound_to 10752
  140.6649  133.9287  155.8459 H   0  0  0  0  0  0  0  0  0  0  0  0  # atno 11005 bound_to 11000
  145.6582  139.1577  143.2823 LP  0  0  0  0  0  0  0  0  0  0  0  0  # atno 17320 bound_to 7965
  146.1696  140.6665  142.9239 LP  0  0  0  0  0  0  0  0  0  0  0  0  # atno 17321 bound_to 7965
  140.5539  143.2202  151.7880 LP  0  0  0  0  0  0  0  0  0  0  0  0  # atno 17342 bound_to 10162
  139.4887  144.4439  151.9732 LP  0  0  0  0  0  0  0  0  0  0  0  0  # atno 17343 bound_to 10162
  156.8147  130.4964  149.5351 LP  0  0  0  0  0  0  0  0  0  0  0  0  # atno 17370 bound_to 10713
  156.1110  130.6040  151.0047 LP  0  0  0  0  0  0  0  0  0  0  0  0  # atno 17371 bound_to 10713
  141.0436  134.0585  157.3871 LP  0  0  0  0  0  0  0  0  0  0  0  0  # atno 17394 bound_to 11000
  139.9000  135.0161  156.7223 LP  0  0  0  0  0  0  0  0  0  0  0  0  # atno 17395 bound_to 11000

$$$$
