AV-unprocessed.smi:675|AV-procd|sdf|3303|dock6
  -GOLD-   22720 0263D 1   1.00000     0.00000
 Structure written by MMmdl.
 29 30  0  0  0  0  0  0  0  0  1 V2000
  146.8735  140.8369  152.6904 O   0  0  0  0  0  0  0  0  0  0  0  0
  147.6767  140.9432  153.6152 C   0  0  0  0  0  0  0  0  0  0  0  0
  148.8743  140.2227  153.5829 N   0  0  0  0  0  0  0  0  0  0  0  0
  149.8669  140.2502  154.5629 C   0  0  0  0  0  0  0  0  0  0  0  0
  150.8757  139.5580  154.4276 O   0  0  0  0  0  0  0  0  0  0  0  0
  149.6339  141.0856  155.6816 N   0  0  0  0  0  0  0  0  0  0  0  0
  150.6114  141.1192  156.7452 C   0  0  0  0  0  0  0  0  0  0  0  0
  150.6641  142.4693  157.4967 C   0  0  2  0  0  0  0  0  0  0  0  0
  150.9772  143.4784  156.5575 O   0  0  0  0  0  0  0  0  0  0  0  0
  151.6257  142.4614  158.6853 C   0  0  0  0  0  0  0  0  0  0  0  0
  152.2955  141.2622  159.0208 C   0  0  0  0  0  0  0  0  0  0  0  0
  153.1741  141.2119  160.1189 C   0  0  0  0  0  0  0  0  0  0  0  0
  153.3903  142.3621  160.8984 C   0  0  0  0  0  0  0  0  0  0  0  0
  152.7259  143.5600  160.5780 C   0  0  0  0  0  0  0  0  0  0  0  0
  151.8453  143.6173  159.4791 C   0  0  0  0  0  0  0  0  0  0  0  0
  151.0467  145.1161  159.1523 Cl  0  0  0  0  0  0  0  0  0  0  0  0
  148.4586  141.8167  155.7549 C   0  0  0  0  0  0  0  0  0  0  0  0
  147.4991  141.7819  154.7994 C   0  0  0  0  0  0  0  0  0  0  0  0
  146.0566  142.7158  154.9713 Cl  0  0  0  0  0  0  0  0  0  0  0  0
  149.0328  139.6278  152.7827 H   0  0  0  0  0  0  0  0  0  0  0  0
  150.4425  140.2728  157.4138 H   0  0  0  0  0  0  0  0  0  0  0  0
  151.5653  140.9180  156.2540 H   0  0  0  0  0  0  0  0  0  0  0  0
  149.6604  142.7131  157.8414 H   0  0  0  0  0  0  0  0  0  0  0  0
  150.1786  143.7470  156.1295 H   0  0  0  0  0  0  0  0  0  0  0  0
  152.1311  140.3676  158.4382 H   0  0  0  0  0  0  0  0  0  0  0  0
  153.6793  140.2895  160.3650 H   0  0  0  0  0  0  0  0  0  0  0  0
  154.0621  142.3250  161.7433 H   0  0  0  0  0  0  0  0  0  0  0  0
  152.8904  144.4397  161.1825 H   0  0  0  0  0  0  0  0  0  0  0  0
  148.2943  142.4397  156.6227 H   0  0  0  0  0  0  0  0  0  0  0  0
  1  2  2  0  0  0  0
  2 18  1  0  0  0  0
  2  3  1  0  0  0  0
  3 20  1  0  0  0  0
  3  4  1  0  0  0  0
  4  5  2  0  0  0  0
  4  6  1  0  0  0  0
  6  7  1  0  0  0  0
  6 17  1  0  0  0  0
  7  8  1  0  0  0  0
  7 21  1  0  0  0  0
  7 22  1  0  0  0  0
  8  9  1  0  0  0  0
  8 10  1  0  0  0  0
  8 23  1  0  0  0  0
  9 24  1  0  0  0  0
 10 15  1  0  0  0  0
 10 11  2  0  0  0  0
 11 12  1  0  0  0  0
 11 25  1  0  0  0  0
 12 13  2  0  0  0  0
 12 26  1  0  0  0  0
 13 14  1  0  0  0  0
 13 27  1  0  0  0  0
 14 15  2  0  0  0  0
 14 28  1  0  0  0  0
 15 16  1  0  0  0  0
 17 18  2  0  0  0  0
 17 29  1  0  0  0  0
 18 19  1  0  0  0  0
M  END
> <s_m_source_file>
AV-unprocessed.smi

> <i_m_source_file_index>
675

> <i_lp_mmshare_version>
43012

> <i_f3d_flags>
0

> <s_epik_input>
Tz1jMVtuSF1jKD1PKW4oW2NIXWMxQ2wpW0NIMl1bQ0BIXShbT0hdKWMyW2NIXVtjSF1bY0hdW2NIXWMyQ2w=

> <s_epik_cmdline>
J2VwaWtfcHl0aG9uJywgJy1waCcsICc3LjAnLCAnLXRuJywgJzgnLCAnLW1hJywgJzIwMCcsICctbWV0YWxfYmluZGluZycsICctaW1hZScsICc8aW5maWxlLm1hZT4nLCAnLW9tYWUnLCAnPG91dGZpbGUubWFlPic=

> <r_lp_tautomer_probability>
0.999537

> <r_epik_Ionization_Penalty>
0.029206

> <r_epik_Ionization_Penalty_Charging>
0.0292057

> <r_epik_Ionization_Penalty_Neutral>
2.68278e-07

> <r_epik_State_Penalty>
0.0240115

> <r_epik_Charging_Adjusted_Penalty>
0.0532172

> <i_epik_Tot_Q>
0

> <i_epik_Tot_abs_Q>
0

> <r_epik_Metal_State_Penalty>
2.21956

> <b_epik_Metal_Only>
0

> <s_lp_Force_Field>
OPLS_2005

> <r_lp_Energy>
11.7134

> <b_lp_Chiralities_Consistent>
1

> <s_lp_Variant>
AV-unprocessed.smi:675-1

> <Gold.Version>
5.8.1

> <Gold.Id.Protein>
6NUR|6NUR_protein|mol2

> <Gold.PLP.Fitness>
48.9249

> <Gold.PLP.PLP>
-42.0065

> <Gold.PLP.part.hbond>
-3.0000

> <Gold.PLP.part.metal>
0.0000

> <Gold.PLP.part.buried>
-2.9877

> <Gold.PLP.part.nonpolar>
-36.6966

> <Gold.PLP.part.repulsive>
0.5085

> <Gold.PLP.ligand.clash>
0.0000

> <Gold.PLP.ligand.torsion>
0.4142

> <Gold.PLP.Chemscore.Hbond>
2.2400

> <Gold.PLP.Chemscore.CHOScore>
0.3358

> <Gold.PLP.Chemscore.Metal>
0.0000

> <Gold.Chemscore.Hbonds>
donor molecule, donor type, donor heavy atom, donor atom, acceptor molecule, acceptor atom, score
      L1  H     3    20       P1  7957  0.61
      L1  H     9    24       P1  8028  1.00
      P1  H  7989  7998       L1     5  0.50
      L1  C    17    29       P1  8028  0.41

> <Gold.PLP.Chemscore.Internal.Correction>
0.0194

> <Gold.Rescore>
     Score         DG    S(hbond)    S(metal)    S(lipo)     H(rot)  DE(clash)    DE(int)     intcor
     18.98     -20.20       2.65        0.00      97.80       2.18       0.86       0.35       ----

> <Gold.Chemscore.Fitness>
18.9797

> <Gold.Chemscore.DG>
-20.1994

> <Gold.Chemscore.ZeroCoef>
-5.4800

> <Gold.Chemscore.Hbond>
2.6501

> <Gold.Chemscore.Metal>
0.0000

> <Gold.Chemscore.Lipo>
97.7996

> <Gold.Chemscore.Internal_Hbond>
0.0000

> <Gold.Chemscore.DEClash>
0.8647

> <Gold.Chemscore.DEInternal>
0.3550

> <Gold.Chemscore.Rot>
2.1775

> <Gold.Chemscore.Internal.Correction>
   9.000000E+99

> <Gold.Chemscore.Hbonds>
donor molecule, donor type, donor heavy atom, donor atom, acceptor molecule, acceptor atom, score
      L1  H     3    20       P1  7957  0.60
      L1  H     9    24       P1  8028  0.99
      P1  H  7989  7998       L1     5  0.02

> <Gold.Chemscore.Hbond.Weighted>
-8.8513

> <Gold.Chemscore.Metal.Weighted>
-0.0000

> <Gold.Chemscore.Lipo.Weighted>
-11.4426

> <Gold.Chemscore.Internal_Hbond.Weighted>
0.0000

> <Gold.Chemscore.DEClash.Weighted>
0.8647

> <Gold.Chemscore.DEInternal.Weighted>
0.3550

> <Gold.Chemscore.Rot.Weighted>
5.5745

> <Gold.Chemscore.Internal.Correction.Weighted>
   9.000000E+99

> <Gold.Protein.RotatedTorsions>
[ 6907 6896 6895 6894 ] final   63.97 input  -60.11 | X-H torsion
[ 7974 7965 7964 7962 ] final    9.77 input  175.53 | X-H torsion
[ 8008 7997 7996 7995 ] final -116.43 input   59.86 | X-H torsion
[ 10167 10162 10161 10158 ] final -147.78 input  -65.29 | X-H torsion
[ 10718 10713 10712 10709 ] final   92.20 input   66.30 | X-H torsion
[ 10763 10752 10751 10750 ] final -170.59 input  -60.55 | X-H torsion
[ 11005 11000 10999 10996 ] final   -7.32 input  -57.11 | X-H torsion

> <Gold.Protein.ActiveResidues>
 VAL166  LYS551  ARG553  GLY616  TRP617  ASP618  TYR619  PRO620  LYS621  CYS622 
 ASP623  PHE694  ASN695  SER759  ASP760  ASP761  ALA762  ILE779  LEU786  VAL792 
 PHE793  MET794  SER795  GLU796  ALA797  LYS798  CYS799  TRP800  GLU811  SER814 

> <Gold.Protein.RotatedAtoms>
  152.4295  134.5804  159.9946 H   0  0  0  0  0  0  0  0  0  0  0  0  # atno 6907 bound_to 6896
  151.5932  133.3358  159.3040 H   0  0  0  0  0  0  0  0  0  0  0  0  # atno 6908 bound_to 6896
  150.8187  134.7419  159.6818 H   0  0  0  0  0  0  0  0  0  0  0  0  # atno 6909 bound_to 6896
  146.2398  139.9733  142.8444 H   0  0  0  0  0  0  0  0  0  0  0  0  # atno 7974 bound_to 7965
  155.0677  140.0393  157.2598 H   0  0  0  0  0  0  0  0  0  0  0  0  # atno 8008 bound_to 7997
  154.7008  140.2673  155.6697 H   0  0  0  0  0  0  0  0  0  0  0  0  # atno 8009 bound_to 7997
  156.2759  140.2741  156.1618 H   0  0  0  0  0  0  0  0  0  0  0  0  # atno 8010 bound_to 7997
  139.7591  143.8403  152.2603 H   0  0  0  0  0  0  0  0  0  0  0  0  # atno 10167 bound_to 10162
  157.6959  131.0435  150.3845 H   0  0  0  0  0  0  0  0  0  0  0  0  # atno 10718 bound_to 10713
  154.6398  135.2897  155.0117 H   0  0  0  0  0  0  0  0  0  0  0  0  # atno 10763 bound_to 10752
  154.1247  135.6542  153.4914 H   0  0  0  0  0  0  0  0  0  0  0  0  # atno 10764 bound_to 10752
  153.0321  135.5296  154.7260 H   0  0  0  0  0  0  0  0  0  0  0  0  # atno 10765 bound_to 10752
  140.7115  133.8904  155.8754 H   0  0  0  0  0  0  0  0  0  0  0  0  # atno 11005 bound_to 11000
  145.1660  140.9697  143.4349 LP  0  0  0  0  0  0  0  0  0  0  0  0  # atno 17320 bound_to 7965
  145.0072  139.3543  143.6138 LP  0  0  0  0  0  0  0  0  0  0  0  0  # atno 17321 bound_to 7965
  139.8404  144.7212  150.9338 LP  0  0  0  0  0  0  0  0  0  0  0  0  # atno 17342 bound_to 10162
  140.7805  143.3988  151.1184 LP  0  0  0  0  0  0  0  0  0  0  0  0  # atno 17343 bound_to 10162
  156.4255  130.3961  149.6795 LP  0  0  0  0  0  0  0  0  0  0  0  0  # atno 17370 bound_to 10713
  156.4031  130.7684  151.2693 LP  0  0  0  0  0  0  0  0  0  0  0  0  # atno 17371 bound_to 10713
  141.0080  134.1059  157.4250 LP  0  0  0  0  0  0  0  0  0  0  0  0  # atno 17394 bound_to 11000
  139.8870  135.0086  156.6536 LP  0  0  0  0  0  0  0  0  0  0  0  0  # atno 17395 bound_to 11000

$$$$
