AV-unprocessed.smi:1997|AV-procd|sdf|8087|dock9
  -GOLD-   2272010303D 1   1.00000     0.00000
 Structure written by MMmdl.
 37 39  0  0  0  0  0  0  0  0  1 V2000
  147.3006  138.2385  154.6268 O   0  0  0  0  0  0  0  0  0  0  0  0
  147.9412  138.6768  153.6710 C   0  0  0  0  0  0  0  0  0  0  0  0
  147.7199  138.3730  152.3800 N   0  0  0  0  0  0  0  0  0  0  0  0
  146.7494  137.4902  151.8371 C   0  0  0  0  0  0  0  0  0  0  0  0
  146.4673  137.4051  150.5299 N   0  0  0  0  0  0  0  0  0  0  0  0
  145.4743  136.4696  150.2743 N   0  0  0  0  0  0  0  0  0  0  0  0
  145.0345  135.8774  151.3910 C   0  0  0  0  0  0  0  0  0  0  0  0
  143.9609  134.8409  151.3732 C   0  0  0  0  0  0  0  0  0  0  0  0
  144.2109  133.4605  151.9360 C   0  0  0  0  0  0  0  0  0  0  0  0
  144.0308  133.6432  150.4508 C   0  0  0  0  0  0  0  0  0  0  0  0
  145.8199  136.4191  152.8708 S   0  0  0  0  0  0  0  0  0  0  0  0
  148.9665  139.5333  153.7979 N   0  0  0  0  0  0  0  0  0  0  0  0
  149.4692  140.0756  155.0624 C   0  0  1  0  0  0  0  0  0  0  0  0
  150.9805  139.7581  155.1377 C   0  0  0  0  0  0  0  0  0  0  0  0
  151.5455  139.7603  156.5689 C   0  0  0  0  0  0  0  0  0  0  0  0
  151.5153  141.1234  157.2767 C   0  0  0  0  0  0  0  0  0  0  0  0
  150.0970  141.6818  157.4831 C   0  0  0  0  0  0  0  0  0  0  0  0
  149.5509  142.2569  156.2609 N   0  0  0  0  0  0  0  0  0  0  0  0
  149.2686  141.6082  155.1209 C   0  0  0  0  0  0  0  0  0  0  0  0
  148.8626  142.2272  154.1375 O   0  0  0  0  0  0  0  0  0  0  0  0
  148.3256  138.8167  151.7057 H   0  0  0  0  0  0  0  0  0  0  0  0
  142.9864  135.2935  151.5463 H   0  0  0  0  0  0  0  0  0  0  0  0
  145.2130  133.2344  152.2954 H   0  0  0  0  0  0  0  0  0  0  0  0
  143.4000  132.9892  152.4873 H   0  0  0  0  0  0  0  0  0  0  0  0
  143.0991  133.2936  150.0112 H   0  0  0  0  0  0  0  0  0  0  0  0
  144.9136  133.5237  149.8260 H   0  0  0  0  0  0  0  0  0  0  0  0
  149.4283  139.8480  152.9575 H   0  0  0  0  0  0  0  0  0  0  0  0
  148.9419  139.5964  155.8893 H   0  0  0  0  0  0  0  0  0  0  0  0
  151.1548  138.7611  154.7296 H   0  0  0  0  0  0  0  0  0  0  0  0
  151.5552  140.4360  154.5038 H   0  0  0  0  0  0  0  0  0  0  0  0
  151.0070  139.0273  157.1710 H   0  0  0  0  0  0  0  0  0  0  0  0
  152.5785  139.4125  156.5341 H   0  0  0  0  0  0  0  0  0  0  0  0
  151.9856  141.0072  158.2536 H   0  0  0  0  0  0  0  0  0  0  0  0
  152.1289  141.8442  156.7344 H   0  0  0  0  0  0  0  0  0  0  0  0
  149.4256  140.9200  157.8822 H   0  0  0  0  0  0  0  0  0  0  0  0
  150.1308  142.4796  158.2254 H   0  0  0  0  0  0  0  0  0  0  0  0
  149.3977  143.2550  156.2691 H   0  0  0  0  0  0  0  0  0  0  0  0
  1  2  2  0  0  0  0
  2  3  1  0  0  0  0
  2 12  1  0  0  0  0
  3  4  1  0  0  0  0
  3 21  1  0  0  0  0
  4 11  1  0  0  0  0
  4  5  2  0  0  0  0
  5  6  1  0  0  0  0
  6  7  2  0  0  0  0
  7  8  1  0  0  0  0
  7 11  1  0  0  0  0
  8 10  1  0  0  0  0
  8  9  1  0  0  0  0
  8 22  1  0  0  0  0
  9 10  1  0  0  0  0
  9 23  1  0  0  0  0
  9 24  1  0  0  0  0
 10 25  1  0  0  0  0
 10 26  1  0  0  0  0
 12 13  1  0  0  0  0
 12 27  1  0  0  0  0
 13 19  1  0  0  0  0
 13 14  1  0  0  0  0
 13 28  1  0  0  0  0
 14 15  1  0  0  0  0
 14 29  1  0  0  0  0
 14 30  1  0  0  0  0
 15 16  1  0  0  0  0
 15 31  1  0  0  0  0
 15 32  1  0  0  0  0
 16 17  1  0  0  0  0
 16 33  1  0  0  0  0
 16 34  1  0  0  0  0
 17 18  1  0  0  0  0
 17 35  1  0  0  0  0
 17 36  1  0  0  0  0
 18 19  1  0  0  0  0
 18 37  1  0  0  0  0
 19 20  2  0  0  0  0
M  END
> <s_m_source_file>
AV-unprocessed.smi

> <i_m_source_file_index>
1997

> <i_lp_mmshare_version>
43012

> <i_f3d_flags>
0

> <s_epik_input>
W0NIMl0xW0NIMl1bQ0hdMWMoczIpbm5jMltOSF1DKD1PKVtOSF1bQ0BASF0zW0NIMl1bQ0gyXVtDSDJdW0NIMl1bTkhdQzM9Tw==

> <s_epik_cmdline>
J2VwaWtfcHl0aG9uJywgJy1waCcsICc3LjAnLCAnLXRuJywgJzgnLCAnLW1hJywgJzIwMCcsICctbWV0YWxfYmluZGluZycsICctaW1hZScsICc8aW5maWxlLm1hZT4nLCAnLW9tYWUnLCAnPG91dGZpbGUubWFlPic=

> <r_lp_tautomer_probability>
1

> <r_epik_Ionization_Penalty>
0.000421558

> <r_epik_Ionization_Penalty_Charging>
0

> <r_epik_Ionization_Penalty_Neutral>
0.000421558

> <r_epik_State_Penalty>
-0

> <r_epik_Charging_Adjusted_Penalty>
0

> <i_epik_Tot_Q>
0

> <i_epik_Tot_abs_Q>
0

> <r_epik_Metal_State_Penalty>
0.200761

> <b_epik_Metal_Only>
0

> <s_lp_Force_Field>
OPLS_2005

> <r_lp_Energy>
8.5849

> <b_lp_Chiralities_Consistent>
1

> <s_lp_Variant>
AV-unprocessed.smi:1997-2

> <Gold.Version>
5.8.1

> <Gold.Id.Protein>
6NUR|6NUR_protein|mol2

> <Gold.PLP.Fitness>
36.8432

> <Gold.PLP.PLP>
-24.1841

> <Gold.PLP.part.hbond>
-5.7593

> <Gold.PLP.part.metal>
0.0000

> <Gold.PLP.part.buried>
0.9690

> <Gold.PLP.part.nonpolar>
-25.2865

> <Gold.PLP.part.repulsive>
6.7831

> <Gold.PLP.ligand.clash>
0.0000

> <Gold.PLP.ligand.torsion>
0.1294

> <Gold.PLP.Chemscore.Hbond>
4.2640

> <Gold.PLP.Chemscore.CHOScore>
0.0000

> <Gold.PLP.Chemscore.Metal>
0.0000

> <Gold.Chemscore.Hbonds>
donor molecule, donor type, donor heavy atom, donor atom, acceptor molecule, acceptor atom, score
      L1  H     3    21       P1  7957  1.00
      L1  H    12    27       P1  7957  1.00
      L1  H    18    37       P1  8028  1.00
      P1  H  7954  7966       L1     5  0.85
      P1  H  8011  8017       L1    20  0.29

> <Gold.PLP.Chemscore.Internal.Correction>
0.1258

> <Gold.Rescore>
     Score         DG    S(hbond)    S(metal)    S(lipo)     H(rot)  DE(clash)    DE(int)     intcor
     14.52     -19.89       3.46        0.00      52.47       1.29       4.00       1.37       ----

> <Gold.Chemscore.Fitness>
14.5233

> <Gold.Chemscore.DG>
-19.8876

> <Gold.Chemscore.ZeroCoef>
-5.4800

> <Gold.Chemscore.Hbond>
3.4613

> <Gold.Chemscore.Metal>
0.0000

> <Gold.Chemscore.Lipo>
52.4722

> <Gold.Chemscore.Internal_Hbond>
0.0000

> <Gold.Chemscore.DEClash>
3.9956

> <Gold.Chemscore.DEInternal>
1.3687

> <Gold.Chemscore.Rot>
1.2860

> <Gold.Chemscore.Internal.Correction>
   9.000000E+99

> <Gold.Chemscore.Hbonds>
donor molecule, donor type, donor heavy atom, donor atom, acceptor molecule, acceptor atom, score
      L1  H     3    21       P1  7957  0.73
      L1  H    12    27       P1  7957  0.98
      L1  H    18    37       P1  8028  0.98
      P1  H  7954  7966       L1     5  0.16
      P1  H  8011  8017       L1    20  0.26

> <Gold.Chemscore.Hbond.Weighted>
-11.5606

> <Gold.Chemscore.Metal.Weighted>
-0.0000

> <Gold.Chemscore.Lipo.Weighted>
-6.1393

> <Gold.Chemscore.Internal_Hbond.Weighted>
0.0000

> <Gold.Chemscore.DEClash.Weighted>
3.9956

> <Gold.Chemscore.DEInternal.Weighted>
1.3687

> <Gold.Chemscore.Rot.Weighted>
3.2923

> <Gold.Chemscore.Internal.Correction.Weighted>
   9.000000E+99

> <Gold.Protein.RotatedTorsions>
[ 6907 6896 6895 6894 ] final   66.52 input  -60.11 | X-H torsion
[ 7974 7965 7964 7962 ] final  150.86 input  175.53 | X-H torsion
[ 8008 7997 7996 7995 ] final   24.61 input   59.86 | X-H torsion
[ 10167 10162 10161 10158 ] final  129.21 input  -65.29 | X-H torsion
[ 10718 10713 10712 10709 ] final   44.90 input   66.30 | X-H torsion
[ 10763 10752 10751 10750 ] final  -88.31 input  -60.55 | X-H torsion
[ 11005 11000 10999 10996 ] final  165.22 input  -57.11 | X-H torsion

> <Gold.Protein.ActiveResidues>
 VAL166  LYS551  ARG553  GLY616  TRP617  ASP618  TYR619  PRO620  LYS621  CYS622 
 ASP623  PHE694  ASN695  SER759  ASP760  ASP761  ALA762  ILE779  LEU786  VAL792 
 PHE793  MET794  SER795  GLU796  ALA797  LYS798  CYS799  TRP800  GLU811  SER814 

> <Gold.Protein.RotatedAtoms>
  152.4487  134.5440  159.9847 H   0  0  0  0  0  0  0  0  0  0  0  0  # atno 6907 bound_to 6896
  151.5519  133.3410  159.2962 H   0  0  0  0  0  0  0  0  0  0  0  0  # atno 6908 bound_to 6896
  150.8410  134.7733  159.6995 H   0  0  0  0  0  0  0  0  0  0  0  0  # atno 6909 bound_to 6896
  144.8334  139.6463  143.6049 H   0  0  0  0  0  0  0  0  0  0  0  0  # atno 7974 bound_to 7965
  154.9989  140.3123  155.4875 H   0  0  0  0  0  0  0  0  0  0  0  0  # atno 8008 bound_to 7997
  156.2928  140.2235  156.5039 H   0  0  0  0  0  0  0  0  0  0  0  0  # atno 8009 bound_to 7997
  154.7636  140.0457  157.0982 H   0  0  0  0  0  0  0  0  0  0  0  0  # atno 8010 bound_to 7997
  139.5489  144.6796  151.4387 H   0  0  0  0  0  0  0  0  0  0  0  0  # atno 10167 bound_to 10162
  157.4317  130.8029  149.7610 H   0  0  0  0  0  0  0  0  0  0  0  0  # atno 10718 bound_to 10713
  154.6432  135.5381  153.7814 H   0  0  0  0  0  0  0  0  0  0  0  0  # atno 10763 bound_to 10752
  153.0345  135.6464  154.1129 H   0  0  0  0  0  0  0  0  0  0  0  0  # atno 10764 bound_to 10752
  154.1051  135.2930  155.3223 H   0  0  0  0  0  0  0  0  0  0  0  0  # atno 10765 bound_to 10752
  140.2539  134.7955  157.3527 H   0  0  0  0  0  0  0  0  0  0  0  0  # atno 11005 bound_to 11000
  146.2635  139.6464  142.9346 LP  0  0  0  0  0  0  0  0  0  0  0  0  # atno 17320 bound_to 7965
  145.4848  141.0438  143.2626 LP  0  0  0  0  0  0  0  0  0  0  0  0  # atno 17321 bound_to 7965
  140.6745  143.8220  150.7041 LP  0  0  0  0  0  0  0  0  0  0  0  0  # atno 17342 bound_to 10162
  140.1654  143.4239  152.2038 LP  0  0  0  0  0  0  0  0  0  0  0  0  # atno 17343 bound_to 10162
  155.9916  130.3937  150.2979 LP  0  0  0  0  0  0  0  0  0  0  0  0  # atno 17370 bound_to 10713
  157.1136  131.0228  151.3038 LP  0  0  0  0  0  0  0  0  0  0  0  0  # atno 17371 bound_to 10713
  140.1531  134.4825  155.7947 LP  0  0  0  0  0  0  0  0  0  0  0  0  # atno 17394 bound_to 11000
  141.2198  133.6870  156.7413 LP  0  0  0  0  0  0  0  0  0  0  0  0  # atno 17395 bound_to 11000

$$$$
