AV-unprocessed.smi:2553|AV-procd|sdf|10017|dock7
  -GOLD-   2272014 63D 1   1.00000     0.00000
 Structure written by MMmdl.
 29 30  0  0  0  0  0  0  0  0  1 V2000
  149.7433  134.2874  154.0685 O   0  0  0  0  0  0  0  0  0  0  0  0
  150.4439  135.0783  154.6973 C   0  0  0  0  0  0  0  0  0  0  0  0
  150.5525  136.4049  154.2686 N   0  0  0  0  0  0  0  0  0  0  0  0
  151.3102  137.3993  154.8882 C   0  0  0  0  0  0  0  0  0  0  0  0
  151.3448  138.5329  154.4095 O   0  0  0  0  0  0  0  0  0  0  0  0
  152.0134  137.0281  156.0569 N   0  0  0  0  0  0  0  0  0  0  0  0
  152.8331  138.0250  156.7011 C   0  0  0  0  0  0  0  0  0  0  0  0
  152.0149  139.2167  157.2220 C   0  0  0  0  0  0  0  0  0  0  0  0
  152.8198  139.9353  158.1467 O   0  0  0  0  0  0  0  0  0  0  0  0
  152.4307  141.2036  158.5190 C   0  0  0  0  0  0  0  0  0  0  0  0
  151.3441  141.9016  157.9337 C   0  0  0  0  0  0  0  0  0  0  0  0
  151.0074  143.1959  158.3750 C   0  0  0  0  0  0  0  0  0  0  0  0
  151.7482  143.8072  159.4031 C   0  0  0  0  0  0  0  0  0  0  0  0
  151.4214  145.0508  159.8274 F   0  0  0  0  0  0  0  0  0  0  0  0
  152.8289  143.1234  159.9890 C   0  0  0  0  0  0  0  0  0  0  0  0
  153.1687  141.8292  159.5486 C   0  0  0  0  0  0  0  0  0  0  0  0
  154.5026  141.0098  160.2797 Cl  0  0  0  0  0  0  0  0  0  0  0  0
  151.9444  135.7203  156.5120 C   0  0  0  0  0  0  0  0  0  0  0  0
  151.2128  134.7586  155.8995 C   0  0  0  0  0  0  0  0  0  0  0  0
  151.1855  133.1477  156.5223 Cl  0  0  0  0  0  0  0  0  0  0  0  0
  150.0434  136.6640  153.4361 H   0  0  0  0  0  0  0  0  0  0  0  0
  153.4018  137.5319  157.4921 H   0  0  0  0  0  0  0  0  0  0  0  0
  153.5640  138.3484  155.9583 H   0  0  0  0  0  0  0  0  0  0  0  0
  151.7058  139.8574  156.3947 H   0  0  0  0  0  0  0  0  0  0  0  0
  151.1155  138.8503  157.7191 H   0  0  0  0  0  0  0  0  0  0  0  0
  150.7512  141.4651  157.1444 H   0  0  0  0  0  0  0  0  0  0  0  0
  150.1778  143.7202  157.9239 H   0  0  0  0  0  0  0  0  0  0  0  0
  153.3983  143.5931  160.7775 H   0  0  0  0  0  0  0  0  0  0  0  0
  152.5073  135.4487  157.3940 H   0  0  0  0  0  0  0  0  0  0  0  0
  1  2  2  0  0  0  0
  2 19  1  0  0  0  0
  2  3  1  0  0  0  0
  3 21  1  0  0  0  0
  3  4  1  0  0  0  0
  4  5  2  0  0  0  0
  4  6  1  0  0  0  0
  6  7  1  0  0  0  0
  6 18  1  0  0  0  0
  7  8  1  0  0  0  0
  7 22  1  0  0  0  0
  7 23  1  0  0  0  0
  8  9  1  0  0  0  0
  8 24  1  0  0  0  0
  8 25  1  0  0  0  0
  9 10  1  0  0  0  0
 10 16  1  0  0  0  0
 10 11  2  0  0  0  0
 11 12  1  0  0  0  0
 11 26  1  0  0  0  0
 12 13  2  0  0  0  0
 12 27  1  0  0  0  0
 13 14  1  0  0  0  0
 13 15  1  0  0  0  0
 15 16  2  0  0  0  0
 15 28  1  0  0  0  0
 16 17  1  0  0  0  0
 18 19  2  0  0  0  0
 18 29  1  0  0  0  0
 19 20  1  0  0  0  0
M  END
> <s_m_source_file>
AV-unprocessed.smi

> <i_m_source_file_index>
2553

> <i_lp_mmshare_version>
43012

> <i_f3d_flags>
0

> <s_epik_input>
Tz1jMVtuSF1jKD1PKW4oW2NIXWMxQ2wpW0NIMl1bQ0gyXU9jMltjSF1bY0hdYyhGKVtjSF1jMkNs

> <s_epik_cmdline>
J2VwaWtfcHl0aG9uJywgJy1waCcsICc3LjAnLCAnLXRuJywgJzgnLCAnLW1hJywgJzIwMCcsICctbWV0YWxfYmluZGluZycsICctaW1hZScsICc8aW5maWxlLm1hZT4nLCAnLW9tYWUnLCAnPG91dGZpbGUubWFlPic=

> <r_lp_tautomer_probability>
0.999537

> <r_epik_Ionization_Penalty>
0.0476949

> <r_epik_Ionization_Penalty_Charging>
0.0476949

> <r_epik_Ionization_Penalty_Neutral>
0

> <r_epik_State_Penalty>
0.0406325

> <r_epik_Charging_Adjusted_Penalty>
0.0883274

> <i_epik_Tot_Q>
0

> <i_epik_Tot_abs_Q>
0

> <r_epik_Metal_State_Penalty>
2.53375

> <b_epik_Metal_Only>
0

> <s_lp_Force_Field>
OPLS_2005

> <r_lp_Energy>
13.2328

> <b_lp_Chiralities_Consistent>
1

> <s_lp_Variant>
AV-unprocessed.smi:2553-1

> <Gold.Version>
5.8.1

> <Gold.Id.Protein>
6NUR|6NUR_protein|mol2

> <Gold.PLP.Fitness>
43.6208

> <Gold.PLP.PLP>
-38.0718

> <Gold.PLP.part.hbond>
-2.8397

> <Gold.PLP.part.metal>
0.0000

> <Gold.PLP.part.buried>
-4.8308

> <Gold.PLP.part.nonpolar>
-31.3869

> <Gold.PLP.part.repulsive>
0.9385

> <Gold.PLP.ligand.clash>
0.0000

> <Gold.PLP.ligand.torsion>
0.1681

> <Gold.PLP.Chemscore.Hbond>
1.9588

> <Gold.PLP.Chemscore.CHOScore>
0.0000

> <Gold.PLP.Chemscore.Metal>
0.0000

> <Gold.Chemscore.Hbonds>
donor molecule, donor type, donor heavy atom, donor atom, acceptor molecule, acceptor atom, score
      L1  H     3    21       P1  7948  0.80
      P1  H  7997  8010       L1     9  0.69

> <Gold.PLP.Chemscore.Internal.Correction>
0.0089

> <Gold.Rescore>
     Score         DG    S(hbond)    S(metal)    S(lipo)     H(rot)  DE(clash)    DE(int)     intcor
     15.11     -16.10       1.42        0.00      92.53       1.94       0.06       0.93       ----

> <Gold.Chemscore.Fitness>
15.1100

> <Gold.Chemscore.DG>
-16.0969

> <Gold.Chemscore.ZeroCoef>
-5.4800

> <Gold.Chemscore.Hbond>
1.4208

> <Gold.Chemscore.Metal>
0.0000

> <Gold.Chemscore.Lipo>
92.5320

> <Gold.Chemscore.Internal_Hbond>
0.0000

> <Gold.Chemscore.DEClash>
0.0556

> <Gold.Chemscore.DEInternal>
0.9314

> <Gold.Chemscore.Rot>
1.9355

> <Gold.Chemscore.Internal.Correction>
   9.000000E+99

> <Gold.Chemscore.Hbonds>
donor molecule, donor type, donor heavy atom, donor atom, acceptor molecule, acceptor atom, score
      L1  H     3    21       P1  7948  0.11
      P1  H  7989  7998       L1     5  0.01
      P1  H  7997  8010       L1     9  0.07

> <Gold.Chemscore.Hbond.Weighted>
-4.7455

> <Gold.Chemscore.Metal.Weighted>
-0.0000

> <Gold.Chemscore.Lipo.Weighted>
-10.8262

> <Gold.Chemscore.Internal_Hbond.Weighted>
0.0000

> <Gold.Chemscore.DEClash.Weighted>
0.0556

> <Gold.Chemscore.DEInternal.Weighted>
0.9314

> <Gold.Chemscore.Rot.Weighted>
4.9548

> <Gold.Chemscore.Internal.Correction.Weighted>
   9.000000E+99

> <Gold.Protein.RotatedTorsions>
[ 6907 6896 6895 6894 ] final -104.63 input  -60.11 | X-H torsion
[ 7974 7965 7964 7962 ] final  136.85 input  175.53 | X-H torsion
[ 8008 7997 7996 7995 ] final   43.16 input   59.86 | X-H torsion
[ 10167 10162 10161 10158 ] final  138.53 input  -65.29 | X-H torsion
[ 10718 10713 10712 10709 ] final -113.24 input   66.30 | X-H torsion
[ 10763 10752 10751 10750 ] final  -99.98 input  -60.55 | X-H torsion
[ 11005 11000 10999 10996 ] final  121.54 input  -57.11 | X-H torsion

> <Gold.Protein.ActiveResidues>
 VAL166  LYS551  ARG553  GLY616  TRP617  ASP618  TYR619  PRO620  LYS621  CYS622 
 ASP623  PHE694  ASN695  SER759  ASP760  ASP761  ALA762  ILE779  LEU786  VAL792 
 PHE793  MET794  SER795  GLU796  ALA797  LYS798  CYS799  TRP800  GLU811  SER814 

> <Gold.Protein.RotatedAtoms>
  150.7297  134.0248  159.3713 H   0  0  0  0  0  0  0  0  0  0  0  0  # atno 6907 bound_to 6896
  151.8215  135.0648  160.0435 H   0  0  0  0  0  0  0  0  0  0  0  0  # atno 6908 bound_to 6896
  152.3000  133.5610  159.5649 H   0  0  0  0  0  0  0  0  0  0  0  0  # atno 6909 bound_to 6896
  144.9525  139.4803  143.5519 H   0  0  0  0  0  0  0  0  0  0  0  0  # atno 7974 bound_to 7965
  155.2981  140.3383  155.4249 H   0  0  0  0  0  0  0  0  0  0  0  0  # atno 8008 bound_to 7997
  156.2014  140.1734  156.7930 H   0  0  0  0  0  0  0  0  0  0  0  0  # atno 8009 bound_to 7997
  154.5564  140.0695  156.8734 H   0  0  0  0  0  0  0  0  0  0  0  0  # atno 8010 bound_to 7997
  139.5108  144.6348  151.5726 H   0  0  0  0  0  0  0  0  0  0  0  0  # atno 10167 bound_to 10162
  156.0755  130.5963  150.8616 H   0  0  0  0  0  0  0  0  0  0  0  0  # atno 10718 bound_to 10713
  154.7542  135.4952  153.9344 H   0  0  0  0  0  0  0  0  0  0  0  0  # atno 10763 bound_to 10752
  153.1177  135.6724  153.9398 H   0  0  0  0  0  0  0  0  0  0  0  0  # atno 10764 bound_to 10752
  153.9139  135.3096  155.3427 H   0  0  0  0  0  0  0  0  0  0  0  0  # atno 10765 bound_to 10752
  139.9230  134.9639  156.7974 H   0  0  0  0  0  0  0  0  0  0  0  0  # atno 11005 bound_to 11000
  146.3326  139.8619  142.8855 LP  0  0  0  0  0  0  0  0  0  0  0  0  # atno 17320 bound_to 7965
  145.2823  141.0142  143.3710 LP  0  0  0  0  0  0  0  0  0  0  0  0  # atno 17321 bound_to 7965
  140.6093  143.9466  150.6441 LP  0  0  0  0  0  0  0  0  0  0  0  0  # atno 17342 bound_to 10162
  140.2704  143.3460  152.1243 LP  0  0  0  0  0  0  0  0  0  0  0  0  # atno 17343 bound_to 10162
  157.5848  131.0946  150.9214 LP  0  0  0  0  0  0  0  0  0  0  0  0  # atno 17370 bound_to 10713
  156.9402  130.5382  149.5280 LP  0  0  0  0  0  0  0  0  0  0  0  0  # atno 17371 bound_to 10713
  140.6417  133.9812  155.7711 LP  0  0  0  0  0  0  0  0  0  0  0  0  # atno 17394 bound_to 11000
  141.0767  134.0125  157.3448 LP  0  0  0  0  0  0  0  0  0  0  0  0  # atno 17395 bound_to 11000

$$$$
