AV-unprocessed.smi:90|AV-procd|sdf|831|dock3
  -GOLD-   2262017253D 1   1.00000     0.00000
 Structure written by MMmdl.
 64 67  0  0  0  0  0  0  0  0  2 V2000
  142.3714  135.1773  152.7140 C   0  0  0  0  0  0  0  0  0  0  0  0
  143.6597  135.6350  152.2010 N   0  0  0  0  0  0  0  0  0  0  0  0
  144.5050  134.7258  151.4300 C   0  0  0  0  0  0  0  0  0  0  0  0
  145.2354  133.6969  152.3139 C   0  0  0  0  0  0  0  0  0  0  0  0
  146.1163  132.7007  151.5118 C   0  0  2  0  0  0  0  0  0  0  0  0
  145.3027  131.7209  150.6336 C   0  0  0  0  0  0  0  0  0  0  0  0
  144.5540  130.6767  151.4773 C   0  0  0  0  0  0  0  0  0  0  0  0
  145.5353  129.9394  152.3989 C   0  0  0  0  0  0  0  0  0  0  0  0
  146.3647  130.9244  153.2400 C   0  0  0  0  0  0  0  0  0  0  0  0
  147.0514  131.9139  152.3706 N   0  3  2  0  0  0  0  0  0  0  0  0
  148.0563  132.7236  153.0968 C   0  0  0  0  0  0  0  0  0  0  0  0
  144.2217  136.6865  152.8522 C   0  0  0  0  0  0  0  0  0  0  0  0
  143.7187  137.0065  154.0731 N   0  0  0  0  0  0  0  0  0  0  0  0
  144.2228  138.0308  154.7664 C   0  0  0  0  0  0  0  0  0  0  0  0
  145.2217  138.8495  154.4353 N   0  0  0  0  0  0  0  0  0  0  0  0
  145.7450  138.5280  153.2183 C   0  0  0  0  0  0  0  0  0  0  0  0
  145.3066  137.4754  152.3632 C   0  0  0  0  0  0  0  0  0  0  0  0
  146.0856  137.4581  151.2109 N   0  0  0  0  0  0  0  0  0  0  0  0
  146.9209  138.4470  151.3695 C   0  0  0  0  0  0  0  0  0  0  0  0
  146.8020  139.1318  152.5574 N   0  0  0  0  0  0  0  0  0  0  0  0
  147.6066  140.2661  152.9927 C   0  0  0  0  0  0  0  0  0  0  0  0
  148.6591  139.9414  154.0956 C   0  0  0  0  0  0  0  0  0  0  0  0
  147.9579  139.4613  155.3985 C   0  0  0  0  0  0  0  0  0  0  0  0
  147.0955  140.4437  155.9360 O   0  0  0  0  0  0  0  0  0  0  0  0
  149.6286  138.8400  153.5947 C   0  0  0  0  0  0  0  0  0  0  0  0
  150.8858  138.6922  154.4722 C   0  0  0  0  0  0  0  0  0  0  0  0
  151.5572  139.9398  154.5830 O   0  0  0  0  0  0  0  0  0  0  0  0
  150.7591  140.9393  155.2029 C   0  0  0  0  0  0  0  0  0  0  0  0
  149.5102  141.2123  154.3467 C   0  0  0  0  0  0  0  0  0  0  0  0
  142.2362  135.4472  153.7624 H   0  0  0  0  0  0  0  0  0  0  0  0
  142.2848  134.0931  152.6461 H   0  0  0  0  0  0  0  0  0  0  0  0
  141.5596  135.6220  152.1384 H   0  0  0  0  0  0  0  0  0  0  0  0
  143.8819  134.1859  150.7192 H   0  0  0  0  0  0  0  0  0  0  0  0
  145.2229  135.3103  150.8535 H   0  0  0  0  0  0  0  0  0  0  0  0
  145.8608  134.2431  153.0174 H   0  0  0  0  0  0  0  0  0  0  0  0
  144.5031  133.1638  152.9194 H   0  0  0  0  0  0  0  0  0  0  0  0
  146.7384  133.2919  150.8381 H   0  0  0  0  0  0  0  0  0  0  0  0
  144.6065  132.2497  149.9842 H   0  0  0  0  0  0  0  0  0  0  0  0
  145.9862  131.2007  149.9611 H   0  0  0  0  0  0  0  0  0  0  0  0
  143.7749  131.1572  152.0697 H   0  0  0  0  0  0  0  0  0  0  0  0
  144.0476  129.9636  150.8261 H   0  0  0  0  0  0  0  0  0  0  0  0
  144.9927  129.2547  153.0516 H   0  0  0  0  0  0  0  0  0  0  0  0
  146.2050  129.3247  151.7961 H   0  0  0  0  0  0  0  0  0  0  0  0
  145.7329  131.4352  153.9672 H   0  0  0  0  0  0  0  0  0  0  0  0
  147.1082  130.3678  153.8120 H   0  0  0  0  0  0  0  0  0  0  0  0
  147.6136  133.2621  153.9347 H   0  0  0  0  0  0  0  0  0  0  0  0
  148.5313  133.4449  152.4312 H   0  0  0  0  0  0  0  0  0  0  0  0
  148.8391  132.0780  153.4961 H   0  0  0  0  0  0  0  0  0  0  0  0
  143.7609  138.2206  155.7241 H   0  0  0  0  0  0  0  0  0  0  0  0
  147.6606  138.6981  150.6233 H   0  0  0  0  0  0  0  0  0  0  0  0
  148.1042  140.6698  152.1098 H   0  0  0  0  0  0  0  0  0  0  0  0
  146.9318  141.0532  153.3309 H   0  0  0  0  0  0  0  0  0  0  0  0
  147.3791  138.5556  155.2167 H   0  0  0  0  0  0  0  0  0  0  0  0
  148.6786  139.2039  156.1727 H   0  0  0  0  0  0  0  0  0  0  0  0
  147.2939  141.2733  155.5294 H   0  0  0  0  0  0  0  0  0  0  0  0
  149.1205  137.8770  153.5357 H   0  0  0  0  0  0  0  0  0  0  0  0
  149.9516  139.0768  152.5802 H   0  0  0  0  0  0  0  0  0  0  0  0
  150.6429  138.3062  155.4625 H   0  0  0  0  0  0  0  0  0  0  0  0
  151.5676  137.9719  154.0198 H   0  0  0  0  0  0  0  0  0  0  0  0
  150.4943  140.6399  156.2174 H   0  0  0  0  0  0  0  0  0  0  0  0
  151.3522  141.8496  155.2918 H   0  0  0  0  0  0  0  0  0  0  0  0
  149.8434  141.6195  153.3910 H   0  0  0  0  0  0  0  0  0  0  0  0
  148.9100  141.9976  154.8072 H   0  0  0  0  0  0  0  0  0  0  0  0
  147.5907  131.3607  151.7198 H   0  0  0  0  0  0  0  0  0  0  0  0
  1  2  1  0  0  0  0
  1 30  1  0  0  0  0
  1 31  1  0  0  0  0
  1 32  1  0  0  0  0
  2  3  1  0  0  0  0
  2 12  1  0  0  0  0
  3  4  1  0  0  0  0
  3 33  1  0  0  0  0
  3 34  1  0  0  0  0
  4  5  1  0  0  0  0
  4 35  1  0  0  0  0
  4 36  1  0  0  0  0
  5 10  1  0  0  0  0
  5  6  1  0  0  0  0
  5 37  1  0  0  0  0
  6  7  1  0  0  0  0
  6 38  1  0  0  0  0
  6 39  1  0  0  0  0
  7  8  1  0  0  0  0
  7 40  1  0  0  0  0
  7 41  1  0  0  0  0
  8  9  1  0  0  0  0
  8 42  1  0  0  0  0
  8 43  1  0  0  0  0
  9 10  1  0  0  0  0
  9 44  1  0  0  0  0
  9 45  1  0  0  0  0
 10 11  1  0  0  0  0
 10 64  1  0  0  0  0
 11 46  1  0  0  0  0
 11 47  1  0  0  0  0
 11 48  1  0  0  0  0
 12 17  1  0  0  0  0
 12 13  2  0  0  0  0
 13 14  1  0  0  0  0
 14 15  2  0  0  0  0
 14 49  1  0  0  0  0
 15 16  1  0  0  0  0
 16 20  1  0  0  0  0
 16 17  2  0  0  0  0
 17 18  1  0  0  0  0
 18 19  2  0  0  0  0
 19 20  1  0  0  0  0
 19 50  1  0  0  0  0
 20 21  1  0  0  0  0
 21 22  1  0  0  0  0
 21 51  1  0  0  0  0
 21 52  1  0  0  0  0
 22 29  1  0  0  0  0
 22 23  1  0  0  0  0
 22 25  1  0  0  0  0
 23 24  1  0  0  0  0
 23 53  1  0  0  0  0
 23 54  1  0  0  0  0
 24 55  1  0  0  0  0
 25 26  1  0  0  0  0
 25 56  1  0  0  0  0
 25 57  1  0  0  0  0
 26 27  1  0  0  0  0
 26 58  1  0  0  0  0
 26 59  1  0  0  0  0
 27 28  1  0  0  0  0
 28 29  1  0  0  0  0
 28 60  1  0  0  0  0
 28 61  1  0  0  0  0
 29 62  1  0  0  0  0
 29 63  1  0  0  0  0
M  CHG  1  10   1
M  END
> <s_m_source_file>
AV-unprocessed.smi

> <i_m_source_file_index>
90

> <i_lp_mmshare_version>
43012

> <i_f3d_flags>
0

> <s_epik_input>
W0NIM11OMVtDSDJdW0NIMl1bQ0gyXVtDSDJdW0NASF0xW0NIMl1bQ0gyXU4oW0NIM10pYyhuW2NIXW4yKWMoYzIzKW5bY0hdbjNbQ0gyXUM0KFtDSDJdW09IXSlbQ0gyXVtDSDJdT1tDSDJdW0NIMl00

> <s_epik_cmdline>
J2VwaWtfcHl0aG9uJywgJy1waCcsICc3LjAnLCAnLXRuJywgJzgnLCAnLW1hJywgJzIwMCcsICctbWV0YWxfYmluZGluZycsICctaW1hZScsICc8aW5maWxlLm1hZT4nLCAnLW9tYWUnLCAnPG91dGZpbGUubWFlPic=

> <r_lp_tautomer_probability>
1

> <r_epik_Ionization_Penalty>
0.00234895

> <r_epik_Ionization_Penalty_Charging>
0.00106647

> <r_epik_Ionization_Penalty_Neutral>
0.00128248

> <r_epik_State_Penalty>
-0

> <r_epik_Charging_Adjusted_Penalty>
0.00106647

> <i_epik_Tot_Q>
1

> <i_epik_Tot_abs_Q>
1

> <r_epik_Metal_State_Penalty>
-0

> <b_epik_Metal_Only>
0

> <s_lp_Force_Field>
OPLS_2005

> <r_lp_Energy>
45.3808

> <b_lp_Chiralities_Consistent>
1

> <s_lp_Variant>
AV-unprocessed.smi:90-3

> <Gold.Version>
5.8.1

> <Gold.Id.Protein>
6NUR|6NUR_protein|mol2

> <Gold.PLP.Fitness>
55.9978

> <Gold.PLP.PLP>
-48.1093

> <Gold.PLP.part.hbond>
-2.0000

> <Gold.PLP.part.metal>
0.0000

> <Gold.PLP.part.buried>
-4.9659

> <Gold.PLP.part.nonpolar>
-43.6226

> <Gold.PLP.part.repulsive>
0.8977

> <Gold.PLP.ligand.clash>
0.0000

> <Gold.PLP.ligand.torsion>
0.8355

> <Gold.PLP.Chemscore.Hbond>
1.9600

> <Gold.PLP.Chemscore.CHOScore>
1.0000

> <Gold.PLP.Chemscore.Metal>
0.0000

> <Gold.Chemscore.Hbonds>
donor molecule, donor type, donor heavy atom, donor atom, acceptor molecule, acceptor atom, score
      L1  H    10    64       P1 10747  0.93
      P1  H  7989  7998       L1    27  0.18
      L1  C    19    50       P1  7957  0.52

> <Gold.PLP.Chemscore.Internal.Correction>
0.6795

> <Gold.Rescore>
     Score         DG    S(hbond)    S(metal)    S(lipo)     H(rot)  DE(clash)    DE(int)     intcor
     14.17     -15.93       1.36        0.00     110.24       2.73       0.41       1.35       ----

> <Gold.Chemscore.Fitness>
14.1711

> <Gold.Chemscore.DG>
-15.9331

> <Gold.Chemscore.ZeroCoef>
-5.4800

> <Gold.Chemscore.Hbond>
1.3641

> <Gold.Chemscore.Metal>
0.0000

> <Gold.Chemscore.Lipo>
110.2381

> <Gold.Chemscore.Internal_Hbond>
0.0000

> <Gold.Chemscore.DEClash>
0.4114

> <Gold.Chemscore.DEInternal>
1.3506

> <Gold.Chemscore.Rot>
2.7347

> <Gold.Chemscore.Internal.Correction>
   9.000000E+99

> <Gold.Chemscore.Hbonds>
donor molecule, donor type, donor heavy atom, donor atom, acceptor molecule, acceptor atom, score
      L1  H    10    64       P1 10747  0.88

> <Gold.Chemscore.Hbond.Weighted>
-4.5562

> <Gold.Chemscore.Metal.Weighted>
-0.0000

> <Gold.Chemscore.Lipo.Weighted>
-12.8979

> <Gold.Chemscore.Internal_Hbond.Weighted>
0.0000

> <Gold.Chemscore.DEClash.Weighted>
0.4114

> <Gold.Chemscore.DEInternal.Weighted>
1.3506

> <Gold.Chemscore.Rot.Weighted>
7.0009

> <Gold.Chemscore.Internal.Correction.Weighted>
   9.000000E+99

> <Gold.Protein.RotatedTorsions>
[ 6907 6896 6895 6894 ] final  127.47 input  -60.11 | X-H torsion
[ 7974 7965 7964 7962 ] final   45.84 input  175.53 | X-H torsion
[ 8008 7997 7996 7995 ] final -172.45 input   59.86 | X-H torsion
[ 10167 10162 10161 10158 ] final   -5.81 input  -65.29 | X-H torsion
[ 10718 10713 10712 10709 ] final -143.26 input   66.30 | X-H torsion
[ 10763 10752 10751 10750 ] final  -47.32 input  -60.55 | X-H torsion
[ 11005 11000 10999 10996 ] final  124.90 input  -57.11 | X-H torsion

> <Gold.Protein.ActiveResidues>
 VAL166  LYS551  ARG553  GLY616  TRP617  ASP618  TYR619  PRO620  LYS621  CYS622 
 ASP623  PHE694  ASN695  SER759  ASP760  ASP761  ALA762  ILE779  LEU786  VAL792 
 PHE793  MET794  SER795  GLU796  ALA797  LYS798  CYS799  TRP800  GLU811  SER814 

> <Gold.Protein.RotatedAtoms>
  152.3809  133.6545  159.6160 H   0  0  0  0  0  0  0  0  0  0  0  0  # atno 6907 bound_to 6896
  150.7740  133.9115  159.3379 H   0  0  0  0  0  0  0  0  0  0  0  0  # atno 6908 bound_to 6896
  151.6920  135.0946  160.0286 H   0  0  0  0  0  0  0  0  0  0  0  0  # atno 6909 bound_to 6896
  146.0444  139.4921  142.9758 H   0  0  0  0  0  0  0  0  0  0  0  0  # atno 7974 bound_to 7965
  155.9447  140.1115  157.1027 H   0  0  0  0  0  0  0  0  0  0  0  0  # atno 8008 bound_to 7997
  154.4096  140.1212  156.5039 H   0  0  0  0  0  0  0  0  0  0  0  0  # atno 8009 bound_to 7997
  155.6918  140.3472  155.4899 H   0  0  0  0  0  0  0  0  0  0  0  0  # atno 8010 bound_to 7997
  140.6976  143.6265  150.8563 H   0  0  0  0  0  0  0  0  0  0  0  0  # atno 10167 bound_to 10162
  156.3558  130.7712  151.1872 H   0  0  0  0  0  0  0  0  0  0  0  0  # atno 10718 bound_to 10713
  154.0594  135.6620  153.4810 H   0  0  0  0  0  0  0  0  0  0  0  0  # atno 10763 bound_to 10752
  153.0432  135.5131  154.7673 H   0  0  0  0  0  0  0  0  0  0  0  0  # atno 10764 bound_to 10752
  154.6705  135.3029  154.9715 H   0  0  0  0  0  0  0  0  0  0  0  0  # atno 10765 bound_to 10752
  139.9380  134.9638  156.8478 H   0  0  0  0  0  0  0  0  0  0  0  0  # atno 11005 bound_to 11000
  145.6830  141.0185  143.1596 LP  0  0  0  0  0  0  0  0  0  0  0  0  # atno 17320 bound_to 7965
  144.7090  139.8444  143.7420 LP  0  0  0  0  0  0  0  0  0  0  0  0  # atno 17321 bound_to 7965
  139.9985  143.5770  152.2884 LP  0  0  0  0  0  0  0  0  0  0  0  0  # atno 17342 bound_to 10162
  139.6451  144.7657  151.2261 LP  0  0  0  0  0  0  0  0  0  0  0  0  # atno 17343 bound_to 10162
  157.7467  131.0414  150.4646 LP  0  0  0  0  0  0  0  0  0  0  0  0  # atno 17370 bound_to 10713
  156.4848  130.4082  149.6440 LP  0  0  0  0  0  0  0  0  0  0  0  0  # atno 17371 bound_to 10713
  140.6024  134.0159  155.7543 LP  0  0  0  0  0  0  0  0  0  0  0  0  # atno 17394 bound_to 11000
  141.1003  133.9779  157.3090 LP  0  0  0  0  0  0  0  0  0  0  0  0  # atno 17395 bound_to 11000

$$$$
