AV-unprocessed.smi:460|AV-procd|sdf|2627|dock3
  -GOLD-   2262023 33D 1   1.00000     0.00000
 Structure written by MMmdl.
 46 48  0  0  0  0  0  0  0  0  1 V2000
  151.2916  138.0989  154.1372 C   0  0  0  0  0  0  0  0  0  0  0  0
  151.5391  139.2721  155.0986 C   0  0  0  0  0  0  0  0  0  0  0  0
  151.4825  138.9101  156.5985 C   0  0  1  0  0  0  0  0  0  0  0  0
  152.3545  137.8209  156.8325 O   0  0  0  0  0  0  0  0  0  0  0  0
  151.7600  140.0781  157.5094 C   0  0  0  0  0  0  0  0  0  0  0  0
  152.7399  140.0614  158.4172 N   0  0  0  0  0  0  0  0  0  0  0  0
  152.6392  141.3070  159.0032 C   0  0  0  0  0  0  0  0  0  0  0  0
  153.3894  141.8945  160.0469 C   0  0  0  0  0  0  0  0  0  0  0  0
  153.0944  143.2004  160.4905 C   0  0  0  0  0  0  0  0  0  0  0  0
  152.0495  143.9368  159.8959 C   0  0  0  0  0  0  0  0  0  0  0  0
  151.2935  143.3711  158.8517 C   0  0  0  0  0  0  0  0  0  0  0  0
  151.5890  142.0656  158.4153 C   0  0  0  0  0  0  0  0  0  0  0  0
  151.0432  141.2300  157.4445 N   0  0  0  0  0  0  0  0  0  0  0  0
  149.9231  141.5542  156.5702 C   0  0  0  0  0  0  0  0  0  0  0  0
  148.6888  140.6926  156.8756 C   0  0  0  0  0  0  0  0  0  0  0  0
  147.5745  141.5529  157.0635 O   0  0  0  0  0  0  0  0  0  0  0  0
  146.9595  142.1031  155.9606 C   0  0  0  0  0  0  0  0  0  0  0  0
  147.3882  141.8812  154.6284 C   0  0  0  0  0  0  0  0  0  0  0  0
  146.7093  142.4829  153.5530 C   0  0  0  0  0  0  0  0  0  0  0  0
  145.5987  143.3092  153.7971 C   0  0  0  0  0  0  0  0  0  0  0  0
  145.1653  143.5344  155.1165 C   0  0  0  0  0  0  0  0  0  0  0  0
  145.8426  142.9336  156.2077 C   0  0  0  0  0  0  0  0  0  0  0  0
  145.4752  143.1053  157.5267 O   0  0  0  0  0  0  0  0  0  0  0  0
  144.3989  143.9834  157.8184 C   0  0  0  0  0  0  0  0  0  0  0  0
  151.3027  138.4411  153.1022 H   0  0  0  0  0  0  0  0  0  0  0  0
  150.3234  137.6325  154.3203 H   0  0  0  0  0  0  0  0  0  0  0  0
  152.0593  137.3311  154.2350 H   0  0  0  0  0  0  0  0  0  0  0  0
  152.5160  139.6983  154.8700 H   0  0  0  0  0  0  0  0  0  0  0  0
  150.8162  140.0622  154.8917 H   0  0  0  0  0  0  0  0  0  0  0  0
  150.4871  138.5281  156.8237 H   0  0  0  0  0  0  0  0  0  0  0  0
  152.9254  137.7298  156.0851 H   0  0  0  0  0  0  0  0  0  0  0  0
  154.1908  141.3377  160.5095 H   0  0  0  0  0  0  0  0  0  0  0  0
  153.6715  143.6387  161.2916 H   0  0  0  0  0  0  0  0  0  0  0  0
  151.8266  144.9350  160.2430 H   0  0  0  0  0  0  0  0  0  0  0  0
  150.4885  143.9305  158.3988 H   0  0  0  0  0  0  0  0  0  0  0  0
  149.6793  142.6089  156.7012 H   0  0  0  0  0  0  0  0  0  0  0  0
  150.2211  141.4420  155.5287 H   0  0  0  0  0  0  0  0  0  0  0  0
  148.5038  140.0082  156.0467 H   0  0  0  0  0  0  0  0  0  0  0  0
  148.8658  140.0988  157.7736 H   0  0  0  0  0  0  0  0  0  0  0  0
  148.2388  141.2550  154.4062 H   0  0  0  0  0  0  0  0  0  0  0  0
  147.0421  142.3108  152.5402 H   0  0  0  0  0  0  0  0  0  0  0  0
  145.0782  143.7720  152.9714 H   0  0  0  0  0  0  0  0  0  0  0  0
  144.3098  144.1750  155.2658 H   0  0  0  0  0  0  0  0  0  0  0  0
  144.2218  143.9871  158.8939 H   0  0  0  0  0  0  0  0  0  0  0  0
  143.4771  143.6590  157.3338 H   0  0  0  0  0  0  0  0  0  0  0  0
  144.6267  145.0069  157.5179 H   0  0  0  0  0  0  0  0  0  0  0  0
  1  2  1  0  0  0  0
  1 25  1  0  0  0  0
  1 26  1  0  0  0  0
  1 27  1  0  0  0  0
  2  3  1  0  0  0  0
  2 28  1  0  0  0  0
  2 29  1  0  0  0  0
  3  4  1  0  0  0  0
  3  5  1  0  0  0  0
  3 30  1  0  0  0  0
  4 31  1  0  0  0  0
  5 13  1  0  0  0  0
  5  6  2  0  0  0  0
  6  7  1  0  0  0  0
  7 12  2  0  0  0  0
  7  8  1  0  0  0  0
  8  9  2  0  0  0  0
  8 32  1  0  0  0  0
  9 10  1  0  0  0  0
  9 33  1  0  0  0  0
 10 11  2  0  0  0  0
 10 34  1  0  0  0  0
 11 12  1  0  0  0  0
 11 35  1  0  0  0  0
 12 13  1  0  0  0  0
 13 14  1  0  0  0  0
 14 15  1  0  0  0  0
 14 36  1  0  0  0  0
 14 37  1  0  0  0  0
 15 16  1  0  0  0  0
 15 38  1  0  0  0  0
 15 39  1  0  0  0  0
 16 17  1  0  0  0  0
 17 22  1  0  0  0  0
 17 18  2  0  0  0  0
 18 19  1  0  0  0  0
 18 40  1  0  0  0  0
 19 20  2  0  0  0  0
 19 41  1  0  0  0  0
 20 21  1  0  0  0  0
 20 42  1  0  0  0  0
 21 22  2  0  0  0  0
 21 43  1  0  0  0  0
 22 23  1  0  0  0  0
 23 24  1  0  0  0  0
 24 44  1  0  0  0  0
 24 45  1  0  0  0  0
 24 46  1  0  0  0  0
M  END
> <s_m_source_file>
AV-unprocessed.smi

> <i_m_source_file_index>
460

> <i_lp_mmshare_version>
43012

> <i_f3d_flags>
0

> <s_epik_input>
W2NIXTFbY0hdW2NIXVtjSF1jKGMxMiluKGMobjIpW0NAQEhdKFtPSF0pW0NIMl1bQ0gzXSlbQ0gyXVtDSDJdT2MzW2NIXVtjSF1bY0hdW2NIXWMzT1tDSDNd

> <s_epik_cmdline>
J2VwaWtfcHl0aG9uJywgJy1waCcsICc3LjAnLCAnLXRuJywgJzgnLCAnLW1hJywgJzIwMCcsICctbWV0YWxfYmluZGluZycsICctaW1hZScsICc8aW5maWxlLm1hZT4nLCAnLW9tYWUnLCAnPG91dGZpbGUubWFlPic=

> <r_lp_tautomer_probability>
1

> <r_epik_Ionization_Penalty>
0.0507825

> <r_epik_Ionization_Penalty_Charging>
0

> <r_epik_Ionization_Penalty_Neutral>
0.0507825

> <r_epik_State_Penalty>
0.0434615

> <r_epik_Charging_Adjusted_Penalty>
0.0434615

> <i_epik_Tot_Q>
0

> <i_epik_Tot_abs_Q>
0

> <r_epik_Metal_State_Penalty>
4.50935e-05

> <b_epik_Metal_Only>
0

> <s_lp_Force_Field>
OPLS_2005

> <r_lp_Energy>
20.6013

> <b_lp_Chiralities_Consistent>
1

> <s_lp_Variant>
AV-unprocessed.smi:460-2

> <Gold.Version>
5.8.1

> <Gold.Id.Protein>
6NUR|6NUR_protein|mol2

> <Gold.PLP.Fitness>
44.4615

> <Gold.PLP.PLP>
-45.3164

> <Gold.PLP.part.hbond>
-0.3082

> <Gold.PLP.part.metal>
0.0000

> <Gold.PLP.part.buried>
-6.8148

> <Gold.PLP.part.nonpolar>
-37.9485

> <Gold.PLP.part.repulsive>
0.2116

> <Gold.PLP.ligand.clash>
0.0000

> <Gold.PLP.ligand.torsion>
0.5130

> <Gold.PLP.Chemscore.Hbond>
0.0000

> <Gold.PLP.Chemscore.CHOScore>
0.0000

> <Gold.PLP.Chemscore.Metal>
0.0000

> <Gold.PLP.Chemscore.Internal.Correction>
0.1711

> <Gold.Rescore>
     Score         DG    S(hbond)    S(metal)    S(lipo)     H(rot)  DE(clash)    DE(int)     intcor
     13.59     -14.52       0.00        0.00     128.86       2.36       0.37       0.57       ----

> <Gold.Chemscore.Fitness>
13.5870

> <Gold.Chemscore.DG>
-14.5187

> <Gold.Chemscore.ZeroCoef>
-5.4800

> <Gold.Chemscore.Hbond>
0.0000

> <Gold.Chemscore.Metal>
0.0000

> <Gold.Chemscore.Lipo>
128.8639

> <Gold.Chemscore.Internal_Hbond>
0.0000

> <Gold.Chemscore.DEClash>
0.3661

> <Gold.Chemscore.DEInternal>
0.5656

> <Gold.Chemscore.Rot>
2.3587

> <Gold.Chemscore.Internal.Correction>
   9.000000E+99

> <Gold.Chemscore.Hbond.Weighted>
-0.0000

> <Gold.Chemscore.Metal.Weighted>
-0.0000

> <Gold.Chemscore.Lipo.Weighted>
-15.0771

> <Gold.Chemscore.Internal_Hbond.Weighted>
0.0000

> <Gold.Chemscore.DEClash.Weighted>
0.3661

> <Gold.Chemscore.DEInternal.Weighted>
0.5656

> <Gold.Chemscore.Rot.Weighted>
6.0384

> <Gold.Chemscore.Internal.Correction.Weighted>
   9.000000E+99

> <Gold.Protein.RotatedTorsions>
[ 6907 6896 6895 6894 ] final  -28.65 input  -60.11 | X-H torsion
[ 7974 7965 7964 7962 ] final -159.72 input  175.53 | X-H torsion
[ 8008 7997 7996 7995 ] final  -24.98 input   59.86 | X-H torsion
[ 10167 10162 10161 10158 ] final   89.48 input  -65.29 | X-H torsion
[ 10718 10713 10712 10709 ] final  175.16 input   66.30 | X-H torsion
[ 10763 10752 10751 10750 ] final  -79.24 input  -60.55 | X-H torsion
[ 11005 11000 10999 10996 ] final   -4.75 input  -57.11 | X-H torsion

> <Gold.Protein.ActiveResidues>
 VAL166  LYS551  ARG553  GLY616  TRP617  ASP618  TYR619  PRO620  LYS621  CYS622 
 ASP623  PHE694  ASN695  SER759  ASP760  ASP761  ALA762  ILE779  LEU786  VAL792 
 PHE793  MET794  SER795  GLU796  ALA797  LYS798  CYS799  TRP800  GLU811  SER814 

> <Gold.Protein.RotatedAtoms>
  151.1300  135.0125  159.8577 H   0  0  0  0  0  0  0  0  0  0  0  0  # atno 6907 bound_to 6896
  152.5450  134.1621  159.8572 H   0  0  0  0  0  0  0  0  0  0  0  0  # atno 6908 bound_to 6896
  151.1687  133.4753  159.2627 H   0  0  0  0  0  0  0  0  0  0  0  0  # atno 6909 bound_to 6896
  144.7454  140.3644  143.6089 H   0  0  0  0  0  0  0  0  0  0  0  0  # atno 7974 bound_to 7965
  154.4500  140.1939  156.0549 H   0  0  0  0  0  0  0  0  0  0  0  0  # atno 8008 bound_to 7997
  156.0627  140.3295  155.7453 H   0  0  0  0  0  0  0  0  0  0  0  0  # atno 8009 bound_to 7997
  155.5387  140.0584  157.2865 H   0  0  0  0  0  0  0  0  0  0  0  0  # atno 8010 bound_to 7997
  139.8569  144.6564  150.9104 H   0  0  0  0  0  0  0  0  0  0  0  0  # atno 10167 bound_to 10162
  156.9390  130.9995  151.2972 H   0  0  0  0  0  0  0  0  0  0  0  0  # atno 10718 bound_to 10713
  154.5361  135.5702  153.6800 H   0  0  0  0  0  0  0  0  0  0  0  0  # atno 10763 bound_to 10752
  152.9951  135.6216  154.2564 H   0  0  0  0  0  0  0  0  0  0  0  0  # atno 10764 bound_to 10752
  154.2493  135.2859  155.2803 H   0  0  0  0  0  0  0  0  0  0  0  0  # atno 10765 bound_to 10752
  140.6837  133.9131  155.8572 H   0  0  0  0  0  0  0  0  0  0  0  0  # atno 11005 bound_to 11000
  145.7143  139.1693  143.2521 LP  0  0  0  0  0  0  0  0  0  0  0  0  # atno 17320 bound_to 7965
  146.1324  140.7168  142.9406 LP  0  0  0  0  0  0  0  0  0  0  0  0  # atno 17321 bound_to 7965
  140.7780  143.3778  151.1531 LP  0  0  0  0  0  0  0  0  0  0  0  0  # atno 17342 bound_to 10162
  139.7411  143.8922  152.3050 LP  0  0  0  0  0  0  0  0  0  0  0  0  # atno 17343 bound_to 10162
  157.5797  130.8368  149.8505 LP  0  0  0  0  0  0  0  0  0  0  0  0  # atno 17370 bound_to 10713
  156.0413  130.3738  150.1429 LP  0  0  0  0  0  0  0  0  0  0  0  0  # atno 17371 bound_to 10713
  141.0297  134.0773  157.4028 LP  0  0  0  0  0  0  0  0  0  0  0  0  # atno 17394 bound_to 11000
  139.8944  135.0135  156.6948 LP  0  0  0  0  0  0  0  0  0  0  0  0  # atno 17395 bound_to 11000

$$$$
