AV-unprocessed.smi:475|AV-procd|sdf|2667|dock3
  -GOLD-   2262023 83D 1   1.00000     0.00000
 Structure written by MMmdl.
 39 41  0  0  0  0  0  0  0  0  1 V2000
  150.4652  138.9526  154.4791 C   0  0  0  0  0  0  0  0  0  0  0  0
  151.4504  139.9296  154.7649 O   0  0  0  0  0  0  0  0  0  0  0  0
  151.8564  139.9116  156.1239 C   0  0  0  0  0  0  0  0  0  0  0  0
  150.8889  140.7551  156.9672 C   0  0  0  0  0  0  0  0  0  0  0  0
  151.5209  141.2853  158.1667 N   0  0  0  0  0  0  0  0  0  0  0  0
  152.1737  140.5974  159.1347 C   0  0  0  0  0  0  0  0  0  0  0  0
  152.3533  138.8440  159.0588 S   0  0  0  0  0  0  0  0  0  0  0  0
  153.1569  138.5778  160.6650 C   0  0  0  0  0  0  0  0  0  0  0  0
  153.3417  137.0855  160.9216 C   0  0  0  0  0  0  0  0  0  0  0  0
  153.2718  136.2931  159.9825 O   0  0  0  0  0  0  0  0  0  0  0  0
  153.6010  136.6557  162.2932 C   0  0  0  0  0  0  0  0  0  0  0  0
  153.4879  137.2940  163.4994 C   0  0  0  0  0  0  0  0  0  0  0  0
  153.8850  136.3766  164.5174 C   0  0  0  0  0  0  0  0  0  0  0  0
  154.2285  135.1988  163.9116 C   0  0  0  0  0  0  0  0  0  0  0  0
  154.0513  135.3784  162.5564 N   0  0  0  0  0  0  0  0  0  0  0  0
  152.6639  141.3328  160.1339 N   0  0  0  0  0  0  0  0  0  0  0  0
  152.3031  142.6165  159.7749 C   0  0  0  0  0  0  0  0  0  0  0  0
  152.5363  143.8509  160.4224 C   0  0  0  0  0  0  0  0  0  0  0  0
  152.0684  145.0540  159.8548 C   0  0  0  0  0  0  0  0  0  0  0  0
  151.3632  145.0402  158.6340 C   0  0  0  0  0  0  0  0  0  0  0  0
  151.1193  143.8210  157.9731 C   0  0  0  0  0  0  0  0  0  0  0  0
  151.5869  142.6226  158.5450 C   0  0  0  0  0  0  0  0  0  0  0  0
  154.2274  134.6759  161.8519 H   0  0  0  0  0  0  0  0  0  0  0  0
  150.1882  139.0096  153.4267 H   0  0  0  0  0  0  0  0  0  0  0  0
  149.5652  139.1145  155.0736 H   0  0  0  0  0  0  0  0  0  0  0  0
  150.8374  137.9464  154.6748 H   0  0  0  0  0  0  0  0  0  0  0  0
  151.8715  138.8864  156.4965 H   0  0  0  0  0  0  0  0  0  0  0  0
  152.8707  140.3021  156.2136 H   0  0  0  0  0  0  0  0  0  0  0  0
  150.5128  141.5892  156.3742 H   0  0  0  0  0  0  0  0  0  0  0  0
  150.0163  140.1669  157.2526 H   0  0  0  0  0  0  0  0  0  0  0  0
  154.1352  139.0585  160.6775 H   0  0  0  0  0  0  0  0  0  0  0  0
  152.5581  139.0303  161.4558 H   0  0  0  0  0  0  0  0  0  0  0  0
  153.1570  138.3129  163.6397 H   0  0  0  0  0  0  0  0  0  0  0  0
  153.9148  136.5610  165.5810 H   0  0  0  0  0  0  0  0  0  0  0  0
  154.5790  134.2591  164.3123 H   0  0  0  0  0  0  0  0  0  0  0  0
  153.0770  143.8722  161.3570 H   0  0  0  0  0  0  0  0  0  0  0  0
  152.2526  145.9922  160.3577 H   0  0  0  0  0  0  0  0  0  0  0  0
  151.0097  145.9662  158.2046 H   0  0  0  0  0  0  0  0  0  0  0  0
  150.5820  143.8086  157.0367 H   0  0  0  0  0  0  0  0  0  0  0  0
  1  2  1  0  0  0  0
  1 24  1  0  0  0  0
  1 25  1  0  0  0  0
  1 26  1  0  0  0  0
  2  3  1  0  0  0  0
  3  4  1  0  0  0  0
  3 27  1  0  0  0  0
  3 28  1  0  0  0  0
  4  5  1  0  0  0  0
  4 29  1  0  0  0  0
  4 30  1  0  0  0  0
  5 22  1  0  0  0  0
  5  6  1  0  0  0  0
  6  7  1  0  0  0  0
  6 16  2  0  0  0  0
  7  8  1  0  0  0  0
  8  9  1  0  0  0  0
  8 31  1  0  0  0  0
  8 32  1  0  0  0  0
  9 10  2  0  0  0  0
  9 11  1  0  0  0  0
 11 15  1  0  0  0  0
 11 12  2  0  0  0  0
 12 13  1  0  0  0  0
 12 33  1  0  0  0  0
 13 14  2  0  0  0  0
 13 34  1  0  0  0  0
 14 15  1  0  0  0  0
 14 35  1  0  0  0  0
 15 23  1  0  0  0  0
 16 17  1  0  0  0  0
 17 22  2  0  0  0  0
 17 18  1  0  0  0  0
 18 19  2  0  0  0  0
 18 36  1  0  0  0  0
 19 20  1  0  0  0  0
 19 37  1  0  0  0  0
 20 21  2  0  0  0  0
 20 38  1  0  0  0  0
 21 22  1  0  0  0  0
 21 39  1  0  0  0  0
M  END
> <s_m_source_file>
AV-unprocessed.smi

> <i_m_source_file_index>
475

> <i_lp_mmshare_version>
43012

> <i_f3d_flags>
0

> <s_epik_input>
W2NIXTFbY0hdW2NIXVtjSF1jKGMxMiluKFtDSDJdW0NIMl1PW0NIM10pYyhuMilTW0NIMl1DKD1PKWMzW2NIXVtjSF1bY0hdW25IXTM=

> <s_epik_cmdline>
J2VwaWtfcHl0aG9uJywgJy1waCcsICc3LjAnLCAnLXRuJywgJzgnLCAnLW1hJywgJzIwMCcsICctbWV0YWxfYmluZGluZycsICctaW1hZScsICc8aW5maWxlLm1hZT4nLCAnLW9tYWUnLCAnPG91dGZpbGUubWFlPic=

> <r_lp_tautomer_probability>
0.9999

> <r_epik_Ionization_Penalty>
0.016511

> <r_epik_Ionization_Penalty_Charging>
0

> <r_epik_Ionization_Penalty_Neutral>
0.016511

> <r_epik_State_Penalty>
0.0130354

> <r_epik_Charging_Adjusted_Penalty>
0.0130354

> <i_epik_Tot_Q>
0

> <i_epik_Tot_abs_Q>
0

> <r_epik_Metal_State_Penalty>
0.0126412

> <b_epik_Metal_Only>
0

> <s_lp_Force_Field>
OPLS_2005

> <r_lp_Energy>
12.6628

> <b_lp_Chiralities_Consistent>
1

> <s_lp_Variant>
AV-unprocessed.smi:475-1

> <Gold.Version>
5.8.1

> <Gold.Id.Protein>
6NUR|6NUR_protein|mol2

> <Gold.PLP.Fitness>
56.2402

> <Gold.PLP.PLP>
-51.4907

> <Gold.PLP.part.hbond>
-1.9258

> <Gold.PLP.part.metal>
0.0000

> <Gold.PLP.part.buried>
-7.5634

> <Gold.PLP.part.nonpolar>
-42.8241

> <Gold.PLP.part.repulsive>
0.1243

> <Gold.PLP.ligand.clash>
0.0000

> <Gold.PLP.ligand.torsion>
0.6601

> <Gold.PLP.Chemscore.Hbond>
2.0000

> <Gold.PLP.Chemscore.CHOScore>
0.0000

> <Gold.PLP.Chemscore.Metal>
0.0000

> <Gold.Chemscore.Hbonds>
donor molecule, donor type, donor heavy atom, donor atom, acceptor molecule, acceptor atom, score
      P1  H  6896  6909       L1    10  1.00
      P1  H  7989  7998       L1     2  1.00

> <Gold.PLP.Chemscore.Internal.Correction>
0.0697

> <Gold.Rescore>
     Score         DG    S(hbond)    S(metal)    S(lipo)     H(rot)  DE(clash)    DE(int)     intcor
     22.15     -22.80       1.98        0.00     136.16       2.03       0.03       0.62       ----

> <Gold.Chemscore.Fitness>
22.1453

> <Gold.Chemscore.DG>
-22.7984

> <Gold.Chemscore.ZeroCoef>
-5.4800

> <Gold.Chemscore.Hbond>
1.9750

> <Gold.Chemscore.Metal>
0.0000

> <Gold.Chemscore.Lipo>
136.1588

> <Gold.Chemscore.Internal_Hbond>
0.0000

> <Gold.Chemscore.DEClash>
0.0320

> <Gold.Chemscore.DEInternal>
0.6210

> <Gold.Chemscore.Rot>
2.0346

> <Gold.Chemscore.Internal.Correction>
   9.000000E+99

> <Gold.Chemscore.Hbonds>
donor molecule, donor type, donor heavy atom, donor atom, acceptor molecule, acceptor atom, score
      P1  H  6896  6909       L1    10  0.99
      P1  H  7989  7998       L1     2  0.73

> <Gold.Chemscore.Hbond.Weighted>
-6.5965

> <Gold.Chemscore.Metal.Weighted>
-0.0000

> <Gold.Chemscore.Lipo.Weighted>
-15.9306

> <Gold.Chemscore.Internal_Hbond.Weighted>
0.0000

> <Gold.Chemscore.DEClash.Weighted>
0.0320

> <Gold.Chemscore.DEInternal.Weighted>
0.6210

> <Gold.Chemscore.Rot.Weighted>
5.2087

> <Gold.Chemscore.Internal.Correction.Weighted>
   9.000000E+99

> <Gold.Protein.RotatedTorsions>
[ 6907 6896 6895 6894 ] final  167.78 input  -60.11 | X-H torsion
[ 7974 7965 7964 7962 ] final  -42.04 input  175.53 | X-H torsion
[ 8008 7997 7996 7995 ] final -143.49 input   59.86 | X-H torsion
[ 10167 10162 10161 10158 ] final -145.01 input  -65.29 | X-H torsion
[ 10718 10713 10712 10709 ] final   58.93 input   66.30 | X-H torsion
[ 10763 10752 10751 10750 ] final  151.02 input  -60.55 | X-H torsion
[ 11005 11000 10999 10996 ] final  -43.10 input  -57.11 | X-H torsion

> <Gold.Protein.ActiveResidues>
 VAL166  LYS551  ARG553  GLY616  TRP617  ASP618  TYR619  PRO620  LYS621  CYS622 
 ASP623  PHE694  ASN695  SER759  ASP760  ASP761  ALA762  ILE779  LEU786  VAL792 
 PHE793  MET794  SER795  GLU796  ALA797  LYS798  CYS799  TRP800  GLU811  SER814 

> <Gold.Protein.RotatedAtoms>
  151.8580  133.3452  159.3694 H   0  0  0  0  0  0  0  0  0  0  0  0  # atno 6907 bound_to 6896
  150.7187  134.5234  159.5674 H   0  0  0  0  0  0  0  0  0  0  0  0  # atno 6908 bound_to 6896
  152.2742  134.7901  160.0460 H   0  0  0  0  0  0  0  0  0  0  0  0  # atno 6909 bound_to 6896
  146.0153  140.6915  142.9204 H   0  0  0  0  0  0  0  0  0  0  0  0  # atno 7974 bound_to 7965
  155.5115  140.0584  157.2922 H   0  0  0  0  0  0  0  0  0  0  0  0  # atno 8008 bound_to 7997
  154.4550  140.1968  156.0354 H   0  0  0  0  0  0  0  0  0  0  0  0  # atno 8009 bound_to 7997
  156.0781  140.3251  155.7663 H   0  0  0  0  0  0  0  0  0  0  0  0  # atno 8010 bound_to 7997
  139.7845  143.8053  152.2643 H   0  0  0  0  0  0  0  0  0  0  0  0  # atno 10167 bound_to 10162
  157.5636  130.8854  149.9150 H   0  0  0  0  0  0  0  0  0  0  0  0  # atno 10718 bound_to 10713
  154.0970  135.2848  155.3259 H   0  0  0  0  0  0  0  0  0  0  0  0  # atno 10763 bound_to 10752
  154.6581  135.5344  153.7987 H   0  0  0  0  0  0  0  0  0  0  0  0  # atno 10764 bound_to 10752
  153.0392  135.6527  154.1136 H   0  0  0  0  0  0  0  0  0  0  0  0  # atno 10765 bound_to 10752
  141.0361  133.6799  156.2686 H   0  0  0  0  0  0  0  0  0  0  0  0  # atno 11005 bound_to 11000
  144.6968  140.3471  143.7188 LP  0  0  0  0  0  0  0  0  0  0  0  0  # atno 17320 bound_to 7965
  145.7278  139.1727  143.2448 LP  0  0  0  0  0  0  0  0  0  0  0  0  # atno 17321 bound_to 7965
  139.8126  144.7329  150.9678 LP  0  0  0  0  0  0  0  0  0  0  0  0  # atno 17342 bound_to 10162
  140.7819  143.4236  151.0803 LP  0  0  0  0  0  0  0  0  0  0  0  0  # atno 17343 bound_to 10162
  156.0686  130.3688  150.0825 LP  0  0  0  0  0  0  0  0  0  0  0  0  # atno 17370 bound_to 10713
  156.8986  130.9612  151.3579 LP  0  0  0  0  0  0  0  0  0  0  0  0  # atno 17371 bound_to 10713
  140.6320  134.5254  157.5560 LP  0  0  0  0  0  0  0  0  0  0  0  0  # atno 17394 bound_to 11000
  139.9242  134.8089  156.1120 LP  0  0  0  0  0  0  0  0  0  0  0  0  # atno 17395 bound_to 11000

$$$$
