AV-unprocessed.smi:530|AV-procd|sdf|2843|dock7
  -GOLD-   2262023333D 1   1.00000     0.00000
 Structure written by MMmdl.
 35 37  0  0  0  0  0  0  0  0  1 V2000
  151.9060  138.4468  159.1604 C   0  0  0  0  0  0  0  0  0  0  0  0
  151.9884  139.9324  159.0055 C   0  0  0  0  0  0  0  0  0  0  0  0
  152.7364  140.6907  159.8074 N   0  0  0  0  0  0  0  0  0  0  0  0
  152.5180  141.9620  159.3121 C   0  0  0  0  0  0  0  0  0  0  0  0
  153.0291  143.2114  159.7309 C   0  0  0  0  0  0  0  0  0  0  0  0
  152.6567  144.3958  159.0620 C   0  0  0  0  0  0  0  0  0  0  0  0
  151.7693  144.3483  157.9673 C   0  0  0  0  0  0  0  0  0  0  0  0
  151.2500  143.1138  157.5323 C   0  0  0  0  0  0  0  0  0  0  0  0
  151.6256  141.9343  158.2027 C   0  0  0  0  0  0  0  0  0  0  0  0
  151.3061  140.5901  158.0362 N   0  0  0  0  0  0  0  0  0  0  0  0
  150.4228  140.0278  157.0235 C   0  0  0  0  0  0  0  0  0  0  0  0
  150.6220  140.6625  155.6325 C   0  0  1  0  0  0  0  0  0  0  0  0
  151.7701  140.1183  155.0098 O   0  0  0  0  0  0  0  0  0  0  0  0
  149.3750  140.5075  154.7758 C   0  0  0  0  0  0  0  0  0  0  0  0
  148.9587  139.2320  154.3343 C   0  0  0  0  0  0  0  0  0  0  0  0
  147.7971  139.0966  153.5493 C   0  0  0  0  0  0  0  0  0  0  0  0
  147.0437  140.2348  153.2036 C   0  0  0  0  0  0  0  0  0  0  0  0
  147.4514  141.5082  153.6447 C   0  0  0  0  0  0  0  0  0  0  0  0
  148.6128  141.6441  154.4300 C   0  0  0  0  0  0  0  0  0  0  0  0
  152.5257  138.1149  159.9941 H   0  0  0  0  0  0  0  0  0  0  0  0
  152.2576  137.9513  158.2553 H   0  0  0  0  0  0  0  0  0  0  0  0
  150.8784  138.1412  159.3560 H   0  0  0  0  0  0  0  0  0  0  0  0
  153.7085  143.2583  160.5691 H   0  0  0  0  0  0  0  0  0  0  0  0
  153.0529  145.3453  159.3911 H   0  0  0  0  0  0  0  0  0  0  0  0
  151.4872  145.2604  157.4615 H   0  0  0  0  0  0  0  0  0  0  0  0
  150.5677  143.0739  156.6963 H   0  0  0  0  0  0  0  0  0  0  0  0
  150.5914  138.9511  156.9763 H   0  0  0  0  0  0  0  0  0  0  0  0
  149.3908  140.1548  157.3509 H   0  0  0  0  0  0  0  0  0  0  0  0
  150.8171  141.7281  155.7551 H   0  0  0  0  0  0  0  0  0  0  0  0
  152.5031  140.2137  155.5984 H   0  0  0  0  0  0  0  0  0  0  0  0
  149.5276  138.3526  154.5988 H   0  0  0  0  0  0  0  0  0  0  0  0
  147.4835  138.1190  153.2137 H   0  0  0  0  0  0  0  0  0  0  0  0
  146.1528  140.1309  152.6020 H   0  0  0  0  0  0  0  0  0  0  0  0
  146.8724  142.3814  153.3821 H   0  0  0  0  0  0  0  0  0  0  0  0
  148.9148  142.6250  154.7669 H   0  0  0  0  0  0  0  0  0  0  0  0
  1  2  1  0  0  0  0
  1 20  1  0  0  0  0
  1 21  1  0  0  0  0
  1 22  1  0  0  0  0
  2 10  1  0  0  0  0
  2  3  2  0  0  0  0
  3  4  1  0  0  0  0
  4  9  2  0  0  0  0
  4  5  1  0  0  0  0
  5  6  2  0  0  0  0
  5 23  1  0  0  0  0
  6  7  1  0  0  0  0
  6 24  1  0  0  0  0
  7  8  2  0  0  0  0
  7 25  1  0  0  0  0
  8  9  1  0  0  0  0
  8 26  1  0  0  0  0
  9 10  1  0  0  0  0
 10 11  1  0  0  0  0
 11 12  1  0  0  0  0
 11 27  1  0  0  0  0
 11 28  1  0  0  0  0
 12 13  1  0  0  0  0
 12 14  1  0  0  0  0
 12 29  1  0  0  0  0
 13 30  1  0  0  0  0
 14 19  1  0  0  0  0
 14 15  2  0  0  0  0
 15 16  1  0  0  0  0
 15 31  1  0  0  0  0
 16 17  2  0  0  0  0
 16 32  1  0  0  0  0
 17 18  1  0  0  0  0
 17 33  1  0  0  0  0
 18 19  2  0  0  0  0
 18 34  1  0  0  0  0
 19 35  1  0  0  0  0
M  END
> <s_m_source_file>
AV-unprocessed.smi

> <i_m_source_file_index>
530

> <i_lp_mmshare_version>
43012

> <i_f3d_flags>
0

> <s_epik_input>
W2NIXTFbY0hdW2NIXVtjSF1jKGMxMiluKGMobjIpW0NIM10pW0NIMl1bQ0BIXShbT0hdKWMzW2NIXVtjSF1bY0hdW2NIXVtjSF0z

> <s_epik_cmdline>
J2VwaWtfcHl0aG9uJywgJy1waCcsICc3LjAnLCAnLXRuJywgJzgnLCAnLW1hJywgJzIwMCcsICctbWV0YWxfYmluZGluZycsICctaW1hZScsICc8aW5maWxlLm1hZT4nLCAnLW9tYWUnLCAnPG91dGZpbGUubWFlPic=

> <r_epik_Ionization_Penalty>
0.129663

> <r_epik_Ionization_Penalty_Charging>
0

> <r_epik_Ionization_Penalty_Neutral>
0.129663

> <r_epik_State_Penalty>
0.119073

> <r_epik_Charging_Adjusted_Penalty>
0.119073

> <i_epik_Tot_Q>
0

> <i_epik_Tot_abs_Q>
0

> <r_epik_Metal_State_Penalty>
0.000131867

> <b_epik_Metal_Only>
0

> <s_lp_Force_Field>
OPLS_2005

> <r_lp_Energy>
11.6979

> <b_lp_Chiralities_Consistent>
1

> <s_lp_Variant>
AV-unprocessed.smi:530-2

> <Gold.Version>
5.8.1

> <Gold.Id.Protein>
6NUR|6NUR_protein|mol2

> <Gold.PLP.Fitness>
47.8971

> <Gold.PLP.PLP>
-46.4166

> <Gold.PLP.part.hbond>
-1.0000

> <Gold.PLP.part.metal>
0.0000

> <Gold.PLP.part.buried>
-3.9569

> <Gold.PLP.part.nonpolar>
-40.9002

> <Gold.PLP.part.repulsive>
0.0000

> <Gold.PLP.ligand.clash>
0.0000

> <Gold.PLP.ligand.torsion>
0.5237

> <Gold.PLP.Chemscore.Hbond>
0.8352

> <Gold.PLP.Chemscore.CHOScore>
0.0000

> <Gold.PLP.Chemscore.Metal>
0.0000

> <Gold.Chemscore.Hbonds>
donor molecule, donor type, donor heavy atom, donor atom, acceptor molecule, acceptor atom, score
      P1  H  7989  7998       L1    13  0.93

> <Gold.PLP.Chemscore.Internal.Correction>
0.0223

> <Gold.Rescore>
     Score         DG    S(hbond)    S(metal)    S(lipo)     H(rot)  DE(clash)    DE(int)     intcor
     17.21     -17.83       0.67        0.00     123.54       1.70       0.03       0.60       ----

> <Gold.Chemscore.Fitness>
17.2053

> <Gold.Chemscore.DG>
-17.8294

> <Gold.Chemscore.ZeroCoef>
-5.4800

> <Gold.Chemscore.Hbond>
0.6738

> <Gold.Chemscore.Metal>
0.0000

> <Gold.Chemscore.Lipo>
123.5413

> <Gold.Chemscore.Internal_Hbond>
0.0000

> <Gold.Chemscore.DEClash>
0.0256

> <Gold.Chemscore.DEInternal>
0.5985

> <Gold.Chemscore.Rot>
1.7013

> <Gold.Chemscore.Internal.Correction>
   9.000000E+99

> <Gold.Chemscore.Hbonds>
donor molecule, donor type, donor heavy atom, donor atom, acceptor molecule, acceptor atom, score
      P1  H  7989  7998       L1    13  0.23

> <Gold.Chemscore.Hbond.Weighted>
-2.2504

> <Gold.Chemscore.Metal.Weighted>
-0.0000

> <Gold.Chemscore.Lipo.Weighted>
-14.4543

> <Gold.Chemscore.Internal_Hbond.Weighted>
0.0000

> <Gold.Chemscore.DEClash.Weighted>
0.0256

> <Gold.Chemscore.DEInternal.Weighted>
0.5985

> <Gold.Chemscore.Rot.Weighted>
4.3554

> <Gold.Chemscore.Internal.Correction.Weighted>
   9.000000E+99

> <Gold.Protein.RotatedTorsions>
[ 6907 6896 6895 6894 ] final  -93.03 input  -60.11 | X-H torsion
[ 7974 7965 7964 7962 ] final -131.12 input  175.53 | X-H torsion
[ 8008 7997 7996 7995 ] final  111.14 input   59.86 | X-H torsion
[ 10167 10162 10161 10158 ] final -106.38 input  -65.29 | X-H torsion
[ 10718 10713 10712 10709 ] final  114.87 input   66.30 | X-H torsion
[ 10763 10752 10751 10750 ] final   29.42 input  -60.55 | X-H torsion
[ 11005 11000 10999 10996 ] final  -68.22 input  -57.11 | X-H torsion

> <Gold.Protein.ActiveResidues>
 VAL166  LYS551  ARG553  GLY616  TRP617  ASP618  TYR619  PRO620  LYS621  CYS622 
 ASP623  PHE694  ASN695  SER759  ASP760  ASP761  ALA762  ILE779  LEU786  VAL792 
 PHE793  MET794  SER795  GLU796  ALA797  LYS798  CYS799  TRP800  GLU811  SER814 

> <Gold.Protein.RotatedAtoms>
  150.6915  134.2030  159.4329 H   0  0  0  0  0  0  0  0  0  0  0  0  # atno 6907 bound_to 6896
  151.9995  134.9933  160.0574 H   0  0  0  0  0  0  0  0  0  0  0  0  # atno 6908 bound_to 6896
  152.1592  133.4536  159.4889 H   0  0  0  0  0  0  0  0  0  0  0  0  # atno 6909 bound_to 6896
  144.9410  140.7238  143.4847 H   0  0  0  0  0  0  0  0  0  0  0  0  # atno 7974 bound_to 7965
  156.2103  140.3025  155.9718 H   0  0  0  0  0  0  0  0  0  0  0  0  # atno 8008 bound_to 7997
  155.2740  140.0435  157.3026 H   0  0  0  0  0  0  0  0  0  0  0  0  # atno 8009 bound_to 7997
  154.5690  140.2343  155.8228 H   0  0  0  0  0  0  0  0  0  0  0  0  # atno 8010 bound_to 7997
  140.1883  143.3912  152.1226 H   0  0  0  0  0  0  0  0  0  0  0  0  # atno 10167 bound_to 10162
  157.6255  131.1005  150.7249 H   0  0  0  0  0  0  0  0  0  0  0  0  # atno 10718 bound_to 10713
  153.0431  135.6489  154.0888 H   0  0  0  0  0  0  0  0  0  0  0  0  # atno 10763 bound_to 10752
  154.0590  135.2889  155.3329 H   0  0  0  0  0  0  0  0  0  0  0  0  # atno 10764 bound_to 10752
  154.6670  135.5370  153.8155 H   0  0  0  0  0  0  0  0  0  0  0  0  # atno 10765 bound_to 10752
  141.1527  133.6736  156.6413 H   0  0  0  0  0  0  0  0  0  0  0  0  # atno 11005 bound_to 11000
  145.2992  139.1856  143.4699 LP  0  0  0  0  0  0  0  0  0  0  0  0  # atno 17320 bound_to 7965
  146.3285  140.2980  142.8619 LP  0  0  0  0  0  0  0  0  0  0  0  0  # atno 17321 bound_to 7965
  139.5266  144.7110  151.5206 LP  0  0  0  0  0  0  0  0  0  0  0  0  # atno 17342 bound_to 10162
  140.6473  143.8769  150.6750 LP  0  0  0  0  0  0  0  0  0  0  0  0  # atno 17343 bound_to 10162
  156.7598  130.4795  149.5439 LP  0  0  0  0  0  0  0  0  0  0  0  0  # atno 17370 bound_to 10713
  156.1425  130.6254  151.0487 LP  0  0  0  0  0  0  0  0  0  0  0  0  # atno 17371 bound_to 10713
  140.3391  134.7864  157.4384 LP  0  0  0  0  0  0  0  0  0  0  0  0  # atno 17394 bound_to 11000
  140.0953  134.5546  155.8405 LP  0  0  0  0  0  0  0  0  0  0  0  0  # atno 17395 bound_to 11000

$$$$
