AV-unprocessed.smi:269|AV-procd|sdf|2042|dock8
  -GOLD-   2262021263D 1   1.00000     0.00000
 Structure written by MMmdl.
 62 65  0  0  0  0  0  0  0  0  2 V2000
  152.2344  144.5304  159.3874 C   0  0  0  0  0  0  0  0  0  0  0  0
  150.8662  144.8277  158.7597 C   0  0  0  0  0  0  0  0  0  0  0  0
  150.5645  143.9116  157.6657 N   0  0  0  0  0  0  0  0  0  0  0  0
  150.7183  142.5796  157.7117 C   0  0  0  0  0  0  0  0  0  0  0  0
  151.1227  141.9789  158.7078 O   0  0  0  0  0  0  0  0  0  0  0  0
  150.3435  141.8092  156.4412 C   0  0  0  0  0  0  0  0  0  0  0  0
  148.9557  142.0803  155.9862 N   0  3  0  0  0  0  0  0  0  0  0  0
  147.9308  141.7949  157.0264 C   0  0  0  0  0  0  0  0  0  0  0  0
  146.5234  142.1751  156.5348 C   0  0  0  0  0  0  0  0  0  0  0  0
  146.2220  141.5128  155.2684 N   0  0  0  0  0  0  0  0  0  0  0  0
  145.6272  140.2922  155.3527 C   0  0  0  0  0  0  0  0  0  0  0  0
  144.6745  140.0683  156.2968 N   0  0  0  0  0  0  0  0  0  0  0  0
  144.0703  138.8801  156.3821 C   0  0  0  0  0  0  0  0  0  0  0  0
  144.2656  137.7913  155.6376 N   0  0  0  0  0  0  0  0  0  0  0  0
  145.2314  137.9983  154.6983 C   0  0  0  0  0  0  0  0  0  0  0  0
  145.9530  139.2080  154.4871 C   0  0  0  0  0  0  0  0  0  0  0  0
  146.8543  139.0404  153.4429 N   0  0  0  0  0  0  0  0  0  0  0  0
  146.6645  137.8112  153.0495 C   0  0  0  0  0  0  0  0  0  0  0  0
  145.7201  137.1040  153.7600 N   0  0  0  0  0  0  0  0  0  0  0  0
  145.3098  135.7237  153.5338 C   0  0  0  0  0  0  0  0  0  0  0  0
  144.5054  135.4773  152.2171 C   0  0  0  0  0  0  0  0  0  0  0  0
  143.3650  136.5178  152.0571 C   0  0  0  0  0  0  0  0  0  0  0  0
  143.8558  137.8406  151.9663 O   0  0  0  0  0  0  0  0  0  0  0  0
  145.4112  135.5755  150.9635 C   0  0  0  0  0  0  0  0  0  0  0  0
  146.3935  134.3958  150.8416 C   0  0  0  0  0  0  0  0  0  0  0  0
  145.6759  133.1690  150.8290 O   0  0  0  0  0  0  0  0  0  0  0  0
  144.9491  132.9465  152.0303 C   0  0  0  0  0  0  0  0  0  0  0  0
  143.8952  134.0528  152.2209 C   0  0  0  0  0  0  0  0  0  0  0  0
  147.2151  141.7555  154.2215 C   0  0  0  0  0  0  0  0  0  0  0  0
  148.6393  141.4079  154.6998 C   0  0  0  0  0  0  0  0  0  0  0  0
  152.4309  145.2043  160.2215 H   0  0  0  0  0  0  0  0  0  0  0  0
  153.0405  144.6577  158.6640 H   0  0  0  0  0  0  0  0  0  0  0  0
  152.2813  143.5092  159.7673 H   0  0  0  0  0  0  0  0  0  0  0  0
  150.0859  144.7246  159.5143 H   0  0  0  0  0  0  0  0  0  0  0  0
  150.8250  145.8608  158.4105 H   0  0  0  0  0  0  0  0  0  0  0  0
  150.2195  144.3235  156.8104 H   0  0  0  0  0  0  0  0  0  0  0  0
  151.0483  142.1185  155.6682 H   0  0  0  0  0  0  0  0  0  0  0  0
  150.4859  140.7366  156.5849 H   0  0  0  0  0  0  0  0  0  0  0  0
  147.9611  140.7349  157.2839 H   0  0  0  0  0  0  0  0  0  0  0  0
  148.1521  142.3478  157.9394 H   0  0  0  0  0  0  0  0  0  0  0  0
  145.7932  141.9392  157.3072 H   0  0  0  0  0  0  0  0  0  0  0  0
  146.4639  143.2531  156.3802 H   0  0  0  0  0  0  0  0  0  0  0  0
  143.3233  138.7883  157.1570 H   0  0  0  0  0  0  0  0  0  0  0  0
  147.2197  137.3831  152.2276 H   0  0  0  0  0  0  0  0  0  0  0  0
  146.2054  135.1048  153.5675 H   0  0  0  0  0  0  0  0  0  0  0  0
  144.7179  135.4116  154.3950 H   0  0  0  0  0  0  0  0  0  0  0  0
  142.7569  136.3052  151.1781 H   0  0  0  0  0  0  0  0  0  0  0  0
  142.6854  136.4753  152.9093 H   0  0  0  0  0  0  0  0  0  0  0  0
  144.4052  137.9064  151.2006 H   0  0  0  0  0  0  0  0  0  0  0  0
  144.7889  135.5804  150.0675 H   0  0  0  0  0  0  0  0  0  0  0  0
  145.9536  136.5203  150.9446 H   0  0  0  0  0  0  0  0  0  0  0  0
  146.9565  134.4783  149.9119 H   0  0  0  0  0  0  0  0  0  0  0  0
  147.1254  134.3921  151.6490 H   0  0  0  0  0  0  0  0  0  0  0  0
  144.4569  131.9761  151.9623 H   0  0  0  0  0  0  0  0  0  0  0  0
  145.6308  132.8895  152.8794 H   0  0  0  0  0  0  0  0  0  0  0  0
  143.3426  133.8751  153.1443 H   0  0  0  0  0  0  0  0  0  0  0  0
  143.1666  133.9660  151.4136 H   0  0  0  0  0  0  0  0  0  0  0  0
  146.9687  141.2089  153.3103 H   0  0  0  0  0  0  0  0  0  0  0  0
  147.1698  142.8126  153.9572 H   0  0  0  0  0  0  0  0  0  0  0  0
  149.3592  141.7097  153.9382 H   0  0  0  0  0  0  0  0  0  0  0  0
  148.7457  140.3294  154.8240 H   0  0  0  0  0  0  0  0  0  0  0  0
  148.9104  143.0726  155.8016 H   0  0  0  0  0  0  0  0  0  0  0  0
  1  2  1  0  0  0  0
  1 31  1  0  0  0  0
  1 32  1  0  0  0  0
  1 33  1  0  0  0  0
  2  3  1  0  0  0  0
  2 34  1  0  0  0  0
  2 35  1  0  0  0  0
  3  4  1  0  0  0  0
  3 36  1  0  0  0  0
  4  5  2  0  0  0  0
  4  6  1  0  0  0  0
  6  7  1  0  0  0  0
  6 37  1  0  0  0  0
  6 38  1  0  0  0  0
  7 30  1  0  0  0  0
  7  8  1  0  0  0  0
  7 62  1  0  0  0  0
  8  9  1  0  0  0  0
  8 39  1  0  0  0  0
  8 40  1  0  0  0  0
  9 10  1  0  0  0  0
  9 41  1  0  0  0  0
  9 42  1  0  0  0  0
 10 11  1  0  0  0  0
 10 29  1  0  0  0  0
 11 16  1  0  0  0  0
 11 12  2  0  0  0  0
 12 13  1  0  0  0  0
 13 14  2  0  0  0  0
 13 43  1  0  0  0  0
 14 15  1  0  0  0  0
 15 19  1  0  0  0  0
 15 16  2  0  0  0  0
 16 17  1  0  0  0  0
 17 18  2  0  0  0  0
 18 19  1  0  0  0  0
 18 44  1  0  0  0  0
 19 20  1  0  0  0  0
 20 21  1  0  0  0  0
 20 45  1  0  0  0  0
 20 46  1  0  0  0  0
 21 28  1  0  0  0  0
 21 22  1  0  0  0  0
 21 24  1  0  0  0  0
 22 23  1  0  0  0  0
 22 47  1  0  0  0  0
 22 48  1  0  0  0  0
 23 49  1  0  0  0  0
 24 25  1  0  0  0  0
 24 50  1  0  0  0  0
 24 51  1  0  0  0  0
 25 26  1  0  0  0  0
 25 52  1  0  0  0  0
 25 53  1  0  0  0  0
 26 27  1  0  0  0  0
 27 28  1  0  0  0  0
 27 54  1  0  0  0  0
 27 55  1  0  0  0  0
 28 56  1  0  0  0  0
 28 57  1  0  0  0  0
 29 30  1  0  0  0  0
 29 58  1  0  0  0  0
 29 59  1  0  0  0  0
 30 60  1  0  0  0  0
 30 61  1  0  0  0  0
M  CHG  1   7   1
M  END
> <s_m_source_file>
AV-unprocessed.smi

> <i_m_source_file_index>
269

> <i_lp_mmshare_version>
43012

> <i_f3d_flags>
0

> <s_epik_input>
W0NIM11bQ0gyXVtOSF1DKD1PKVtDSDJdTjFbQ0gyXVtDSDJdTihbQ0gyXVtDSDJdMSljKG5bY0hdbjIpYyhjMjMpbltjSF1uM1tDSDJdQzQoW0NIMl1bT0hdKVtDSDJdW0NIMl1PW0NIMl1bQ0gyXTQ=

> <s_epik_cmdline>
J2VwaWtfcHl0aG9uJywgJy1waCcsICc3LjAnLCAnLXRuJywgJzgnLCAnLW1hJywgJzIwMCcsICctbWV0YWxfYmluZGluZycsICctaW1hZScsICc8aW5maWxlLm1hZT4nLCAnLW9tYWUnLCAnPG91dGZpbGUubWFlPic=

> <r_lp_tautomer_probability>
1

> <r_epik_Ionization_Penalty>
0.146524

> <r_epik_Ionization_Penalty_Charging>
0.146459

> <r_epik_Ionization_Penalty_Neutral>
6.45448e-05

> <r_epik_State_Penalty>
0.136576

> <r_epik_Charging_Adjusted_Penalty>
0.283035

> <i_epik_Tot_Q>
1

> <i_epik_Tot_abs_Q>
1

> <r_epik_Metal_State_Penalty>
0.148847

> <b_epik_Metal_Only>
0

> <s_lp_Force_Field>
OPLS_2005

> <r_lp_Energy>
42.6281

> <b_lp_Chiralities_Consistent>
1

> <s_lp_Variant>
AV-unprocessed.smi:269-1

> <Gold.Version>
5.8.1

> <Gold.Id.Protein>
6NUR|6NUR_protein|mol2

> <Gold.PLP.Fitness>
56.1447

> <Gold.PLP.PLP>
-42.0069

> <Gold.PLP.part.hbond>
-4.0000

> <Gold.PLP.part.metal>
0.0000

> <Gold.PLP.part.buried>
-8.1472

> <Gold.PLP.part.nonpolar>
-31.4971

> <Gold.PLP.part.repulsive>
0.6423

> <Gold.PLP.ligand.clash>
0.0000

> <Gold.PLP.ligand.torsion>
0.6087

> <Gold.PLP.Chemscore.Hbond>
3.9840

> <Gold.PLP.Chemscore.CHOScore>
0.9513

> <Gold.PLP.Chemscore.Metal>
0.0000

> <Gold.Chemscore.Hbonds>
donor molecule, donor type, donor heavy atom, donor atom, acceptor molecule, acceptor atom, score
      L1  H     3    36       P1  8028  1.00
      L1  H     7    62       P1  8028  2.00
      L1  H    23    49       P1 10171  0.43
      L1  C    18    44       P1  7948  1.00

> <Gold.PLP.Chemscore.Internal.Correction>
0.5495

> <Gold.Rescore>
     Score         DG    S(hbond)    S(metal)    S(lipo)     H(rot)  DE(clash)    DE(int)     intcor
     12.20     -16.82       2.89        0.00      88.13       3.37       0.02       4.59       ----

> <Gold.Chemscore.Fitness>
12.2002

> <Gold.Chemscore.DG>
-16.8156

> <Gold.Chemscore.ZeroCoef>
-5.4800

> <Gold.Chemscore.Hbond>
2.8924

> <Gold.Chemscore.Metal>
0.0000

> <Gold.Chemscore.Lipo>
88.1348

> <Gold.Chemscore.Internal_Hbond>
0.0000

> <Gold.Chemscore.DEClash>
0.0247

> <Gold.Chemscore.DEInternal>
4.5907

> <Gold.Chemscore.Rot>
3.3738

> <Gold.Chemscore.Internal.Correction>
   9.000000E+99

> <Gold.Chemscore.Hbonds>
donor molecule, donor type, donor heavy atom, donor atom, acceptor molecule, acceptor atom, score
      L1  H     3    36       P1  8028  0.91
      L1  H     7    62       P1  8028  1.00
      L1  H    23    49       P1 10171  0.42

> <Gold.Chemscore.Hbond.Weighted>
-9.6607

> <Gold.Chemscore.Metal.Weighted>
-0.0000

> <Gold.Chemscore.Lipo.Weighted>
-10.3118

> <Gold.Chemscore.Internal_Hbond.Weighted>
0.0000

> <Gold.Chemscore.DEClash.Weighted>
0.0247

> <Gold.Chemscore.DEInternal.Weighted>
4.5907

> <Gold.Chemscore.Rot.Weighted>
8.6369

> <Gold.Chemscore.Internal.Correction.Weighted>
   9.000000E+99

> <Gold.Protein.RotatedTorsions>
[ 6907 6896 6895 6894 ] final  -91.80 input  -60.11 | X-H torsion
[ 7974 7965 7964 7962 ] final  169.42 input  175.53 | X-H torsion
[ 8008 7997 7996 7995 ] final   58.38 input   59.86 | X-H torsion
[ 10167 10162 10161 10158 ] final  -14.31 input  -65.29 | X-H torsion
[ 10718 10713 10712 10709 ] final   79.53 input   66.30 | X-H torsion
[ 10763 10752 10751 10750 ] final   87.42 input  -60.55 | X-H torsion
[ 11005 11000 10999 10996 ] final   98.48 input  -57.11 | X-H torsion

> <Gold.Protein.ActiveResidues>
 VAL166  LYS551  ARG553  GLY616  TRP617  ASP618  TYR619  PRO620  LYS621  CYS622 
 ASP623  PHE694  ASN695  SER759  ASP760  ASP761  ALA762  ILE779  LEU786  VAL792 
 PHE793  MET794  SER795  GLU796  ALA797  LYS798  CYS799  TRP800  GLU811  SER814 

> <Gold.Protein.RotatedAtoms>
  150.6897  134.2220  159.4400 H   0  0  0  0  0  0  0  0  0  0  0  0  # atno 6907 bound_to 6896
  152.0176  134.9838  160.0579 H   0  0  0  0  0  0  0  0  0  0  0  0  # atno 6908 bound_to 6896
  152.1428  133.4439  159.4812 H   0  0  0  0  0  0  0  0  0  0  0  0  # atno 6909 bound_to 6896
  144.7356  139.9051  143.6412 H   0  0  0  0  0  0  0  0  0  0  0  0  # atno 7974 bound_to 7965
  155.5490  140.3486  155.4464 H   0  0  0  0  0  0  0  0  0  0  0  0  # atno 8008 bound_to 7997
  156.0596  140.1337  156.9982 H   0  0  0  0  0  0  0  0  0  0  0  0  # atno 8009 bound_to 7997
  154.4473  140.0988  156.6483 H   0  0  0  0  0  0  0  0  0  0  0  0  # atno 8010 bound_to 7997
  140.7199  143.5335  150.9492 H   0  0  0  0  0  0  0  0  0  0  0  0  # atno 10167 bound_to 10162
  157.6779  130.9918  150.1946 H   0  0  0  0  0  0  0  0  0  0  0  0  # atno 10718 bound_to 10713
  153.1666  135.4544  154.9846 H   0  0  0  0  0  0  0  0  0  0  0  0  # atno 10763 bound_to 10752
  154.7936  135.3229  154.7721 H   0  0  0  0  0  0  0  0  0  0  0  0  # atno 10764 bound_to 10752
  153.8203  135.6947  153.4883 H   0  0  0  0  0  0  0  0  0  0  0  0  # atno 10765 bound_to 10752
  139.8772  134.9051  156.4462 H   0  0  0  0  0  0  0  0  0  0  0  0  # atno 11005 bound_to 11000
  146.1042  139.4041  143.0328 LP  0  0  0  0  0  0  0  0  0  0  0  0  # atno 17320 bound_to 7965
  145.7535  140.9963  143.1238 LP  0  0  0  0  0  0  0  0  0  0  0  0  # atno 17321 bound_to 7965
  139.9055  143.6783  152.3124 LP  0  0  0  0  0  0  0  0  0  0  0  0  # atno 17342 bound_to 10162
  139.7148  144.7614  151.1052 LP  0  0  0  0  0  0  0  0  0  0  0  0  # atno 17343 bound_to 10162
  156.2650  130.3715  149.8090 LP  0  0  0  0  0  0  0  0  0  0  0  0  # atno 17370 bound_to 10713
  156.5824  130.8471  151.3386 LP  0  0  0  0  0  0  0  0  0  0  0  0  # atno 17371 bound_to 10713
  140.8964  133.7811  155.9630 LP  0  0  0  0  0  0  0  0  0  0  0  0  # atno 17394 bound_to 11000
  140.8698  134.2740  157.5196 LP  0  0  0  0  0  0  0  0  0  0  0  0  # atno 17395 bound_to 11000

$$$$
