AV-unprocessed.smi:2973|AV-procd|sdf|11351|dock3
  -GOLD-   2272016263D 1   1.00000     0.00000
 Structure written by MMmdl.
 49 51  0  0  0  0  0  0  0  0  3 V2000
  150.3564  141.8729  157.2221 C   0  0  0  0  0  0  0  0  0  0  0  0
  151.0903  141.0325  158.2899 C   0  0  2  0  0  0  0  0  0  0  0  0
  152.1634  141.8782  159.0091 C   0  0  0  0  0  0  0  0  0  0  0  0
  152.8339  141.0998  160.1506 C   0  0  0  0  0  0  0  0  0  0  0  0
  153.4489  139.7906  159.6403 C   0  0  0  0  0  0  0  0  0  0  0  0
  152.3980  138.9239  158.9263 C   0  0  0  0  0  0  0  0  0  0  0  0
  151.6778  139.6767  157.7774 C   0  0  2  0  0  0  0  0  0  0  0  0
  152.5859  139.8660  156.6580 N   0  5  0  0  0  0  0  0  0  0  0  0
  152.1167  139.1838  155.5875 C   0  0  0  0  0  0  0  0  0  0  0  0
  152.6393  139.1101  154.4760 O   0  0  0  0  0  0  0  0  0  0  0  0
  150.9617  138.5577  155.8830 N   0  0  0  0  0  0  0  0  0  0  0  0
  150.1975  137.7029  154.9650 C   0  0  0  0  0  0  0  0  0  0  0  0
  150.5381  136.2177  155.1371 C   0  0  0  0  0  0  0  0  0  0  0  0
  151.3020  135.8498  156.0307 O   0  0  0  0  0  0  0  0  0  0  0  0
  149.9634  135.3703  154.2691 N   0  0  0  0  0  0  0  0  0  0  0  0
  150.1154  133.9169  154.2809 C   0  0  0  0  0  0  0  0  0  0  0  0
  148.8237  133.1888  154.7063 C   0  0  0  0  0  0  0  0  0  0  0  0
  147.8989  132.8419  153.5514 C   0  0  0  0  0  0  0  0  0  0  0  0
  147.2494  131.5917  153.4578 C   0  0  0  0  0  0  0  0  0  0  0  0
  146.4268  131.3240  152.3441 C   0  0  0  0  0  0  0  0  0  0  0  0
  146.2702  132.3097  151.3486 C   0  0  0  0  0  0  0  0  0  0  0  0
  146.9390  133.5417  151.4936 C   0  0  0  0  0  0  0  0  0  0  0  0
  147.7154  133.7625  152.5772 N   0  3  0  0  0  0  0  0  0  0  0  0
  150.6170  138.7801  157.1561 C   0  0  0  0  0  0  0  0  0  0  0  0
  149.6290  138.3469  157.7515 O   0  0  0  0  0  0  0  0  0  0  0  0
  151.0306  142.1855  156.4242 H   0  0  0  0  0  0  0  0  0  0  0  0
  149.9334  142.7757  157.6629 H   0  0  0  0  0  0  0  0  0  0  0  0
  149.5323  141.3245  156.7665 H   0  0  0  0  0  0  0  0  0  0  0  0
  150.3407  140.7868  159.0443 H   0  0  0  0  0  0  0  0  0  0  0  0
  152.9206  142.2030  158.2943 H   0  0  0  0  0  0  0  0  0  0  0  0
  151.7135  142.7868  159.4103 H   0  0  0  0  0  0  0  0  0  0  0  0
  153.6047  141.7145  160.6162 H   0  0  0  0  0  0  0  0  0  0  0  0
  152.0993  140.8821  160.9269 H   0  0  0  0  0  0  0  0  0  0  0  0
  154.2702  140.0132  158.9578 H   0  0  0  0  0  0  0  0  0  0  0  0
  153.8831  139.2355  160.4720 H   0  0  0  0  0  0  0  0  0  0  0  0
  152.8711  138.0141  158.5528 H   0  0  0  0  0  0  0  0  0  0  0  0
  151.6640  138.5995  159.6654 H   0  0  0  0  0  0  0  0  0  0  0  0
  149.1288  137.8609  155.1228 H   0  0  0  0  0  0  0  0  0  0  0  0
  150.3879  137.9851  153.9286 H   0  0  0  0  0  0  0  0  0  0  0  0
  149.3597  135.7605  153.5596 H   0  0  0  0  0  0  0  0  0  0  0  0
  150.4007  133.5967  153.2787 H   0  0  0  0  0  0  0  0  0  0  0  0
  150.9401  133.6271  154.9343 H   0  0  0  0  0  0  0  0  0  0  0  0
  149.0834  132.2706  155.2345 H   0  0  0  0  0  0  0  0  0  0  0  0
  148.2759  133.8027  155.4220 H   0  0  0  0  0  0  0  0  0  0  0  0
  147.3902  130.8385  154.2191 H   0  0  0  0  0  0  0  0  0  0  0  0
  145.9317  130.3687  152.2496 H   0  0  0  0  0  0  0  0  0  0  0  0
  145.6533  132.1190  150.4825 H   0  0  0  0  0  0  0  0  0  0  0  0
  146.8825  134.3487  150.7780 H   0  0  0  0  0  0  0  0  0  0  0  0
  148.1991  134.6573  152.6546 H   0  0  0  0  0  0  0  0  0  0  0  0
  1  2  1  0  0  0  0
  1 26  1  0  0  0  0
  1 27  1  0  0  0  0
  1 28  1  0  0  0  0
  2  7  1  0  0  0  0
  2  3  1  0  0  0  0
  2 29  1  0  0  0  0
  3  4  1  0  0  0  0
  3 30  1  0  0  0  0
  3 31  1  0  0  0  0
  4  5  1  0  0  0  0
  4 32  1  0  0  0  0
  4 33  1  0  0  0  0
  5  6  1  0  0  0  0
  5 34  1  0  0  0  0
  5 35  1  0  0  0  0
  6  7  1  0  0  0  0
  6 36  1  0  0  0  0
  6 37  1  0  0  0  0
  7 24  1  0  0  0  0
  7  8  1  0  0  0  0
  8  9  1  0  0  0  0
  9 10  2  0  0  0  0
  9 11  1  0  0  0  0
 11 12  1  0  0  0  0
 11 24  1  0  0  0  0
 12 13  1  0  0  0  0
 12 38  1  0  0  0  0
 12 39  1  0  0  0  0
 13 14  2  0  0  0  0
 13 15  1  0  0  0  0
 15 16  1  0  0  0  0
 15 40  1  0  0  0  0
 16 17  1  0  0  0  0
 16 41  1  0  0  0  0
 16 42  1  0  0  0  0
 17 18  1  0  0  0  0
 17 43  1  0  0  0  0
 17 44  1  0  0  0  0
 18 23  1  0  0  0  0
 18 19  2  0  0  0  0
 19 20  1  0  0  0  0
 19 45  1  0  0  0  0
 20 21  2  0  0  0  0
 20 46  1  0  0  0  0
 21 22  1  0  0  0  0
 21 47  1  0  0  0  0
 22 23  2  0  0  0  0
 22 48  1  0  0  0  0
 23 49  1  0  0  0  0
 24 25  2  0  0  0  0
M  CHG  1   8  -1
M  CHG  1  23   1
M  END
> <s_m_source_file>
AV-unprocessed.smi

> <i_m_source_file_index>
2973

> <i_lp_mmshare_version>
43012

> <i_f3d_flags>
0

> <s_epik_input>
W0NIMl0xW0NIMl1bQ0gyXVtDSDJdW0NAQEhdKFtDSDNdKVtDQF0xMltOSF1DKD1PKU4oQzI9TylbQ0gyXUMoPU8pW05IXVtDSDJdW0NIMl1jM1tjSF1bY0hdW2NIXVtjSF1uMw==

> <s_epik_cmdline>
J2VwaWtfcHl0aG9uJywgJy1waCcsICc3LjAnLCAnLXRuJywgJzgnLCAnLW1hJywgJzIwMCcsICctbWV0YWxfYmluZGluZycsICctaW1hZScsICc8aW5maWxlLm1hZT4nLCAnLW9tYWUnLCAnPG91dGZpbGUubWFlPic=

> <r_lp_tautomer_probability>
1

> <r_epik_Ionization_Penalty>
7.89073

> <r_epik_Ionization_Penalty_Charging>
7.89073

> <r_epik_Ionization_Penalty_Neutral>
1.56557e-07

> <r_epik_State_Penalty>
8.01193

> <r_epik_Charging_Adjusted_Penalty>
15.9027

> <i_epik_Tot_Q>
0

> <i_epik_Tot_abs_Q>
2

> <r_epik_Metal_State_Penalty>
3.98737

> <b_epik_Metal_Only>
1

> <s_lp_Force_Field>
OPLS_2005

> <r_lp_Energy>
16.8567

> <b_lp_Chiralities_Consistent>
1

> <s_lp_Variant>
AV-unprocessed.smi:2973-15

> <Gold.Version>
5.8.1

> <Gold.Id.Protein>
6NUR|6NUR_protein|mol2

> <Gold.PLP.Fitness>
55.5857

> <Gold.PLP.PLP>
-37.7937

> <Gold.PLP.part.hbond>
-6.0000

> <Gold.PLP.part.metal>
0.0000

> <Gold.PLP.part.buried>
-2.5484

> <Gold.PLP.part.nonpolar>
-29.3891

> <Gold.PLP.part.repulsive>
0.1840

> <Gold.PLP.ligand.clash>
0.0000

> <Gold.PLP.ligand.torsion>
0.8347

> <Gold.PLP.Chemscore.Hbond>
6.4666

> <Gold.PLP.Chemscore.CHOScore>
0.0000

> <Gold.PLP.Chemscore.Metal>
0.0000

> <Gold.Chemscore.Hbonds>
donor molecule, donor type, donor heavy atom, donor atom, acceptor molecule, acceptor atom, score
      L1  H    15    40       P1  7948  1.00
      L1  H    23    49       P1  7948  1.98
      P1  H  7989  7998       L1    10  0.31
      P1  H  7997  8008       L1     8  2.00
      P1  H 10752 10763       L1    14  0.75

> <Gold.PLP.Chemscore.Internal.Correction>
0.0616

> <Gold.Rescore>
     Score         DG    S(hbond)    S(metal)    S(lipo)     H(rot)  DE(clash)    DE(int)     intcor
     20.20     -22.71       3.48        0.00      89.83       1.92       1.64       0.87       ----

> <Gold.Chemscore.Fitness>
20.1957

> <Gold.Chemscore.DG>
-22.7118

> <Gold.Chemscore.ZeroCoef>
-5.4800

> <Gold.Chemscore.Hbond>
3.4820

> <Gold.Chemscore.Metal>
0.0000

> <Gold.Chemscore.Lipo>
89.8335

> <Gold.Chemscore.Internal_Hbond>
0.0000

> <Gold.Chemscore.DEClash>
1.6446

> <Gold.Chemscore.DEInternal>
0.8715

> <Gold.Chemscore.Rot>
1.9175

> <Gold.Chemscore.Internal.Correction>
   9.000000E+99

> <Gold.Chemscore.Hbonds>
donor molecule, donor type, donor heavy atom, donor atom, acceptor molecule, acceptor atom, score
      L1  H    15    40       P1  7948  0.43
      L1  H    23    49       P1  7948  0.47
      P1  H  7989  7998       L1    10  0.08
      P1  H  7997  8008       L1     8  0.38
      P1  H 10752 10763       L1    14  0.14

> <Gold.Chemscore.Hbond.Weighted>
-11.6300

> <Gold.Chemscore.Metal.Weighted>
-0.0000

> <Gold.Chemscore.Lipo.Weighted>
-10.5105

> <Gold.Chemscore.Internal_Hbond.Weighted>
0.0000

> <Gold.Chemscore.DEClash.Weighted>
1.6446

> <Gold.Chemscore.DEInternal.Weighted>
0.8715

> <Gold.Chemscore.Rot.Weighted>
4.9087

> <Gold.Chemscore.Internal.Correction.Weighted>
   9.000000E+99

> <Gold.Protein.RotatedTorsions>
[ 6907 6896 6895 6894 ] final -158.81 input  -60.11 | X-H torsion
[ 7974 7965 7964 7962 ] final  -24.20 input  175.53 | X-H torsion
[ 8008 7997 7996 7995 ] final  -33.51 input   59.86 | X-H torsion
[ 10167 10162 10161 10158 ] final -152.40 input  -65.29 | X-H torsion
[ 10718 10713 10712 10709 ] final  -23.44 input   66.30 | X-H torsion
[ 10763 10752 10751 10750 ] final   74.23 input  -60.55 | X-H torsion
[ 11005 11000 10999 10996 ] final  -81.66 input  -57.11 | X-H torsion

> <Gold.Protein.ActiveResidues>
 VAL166  LYS551  ARG553  GLY616  TRP617  ASP618  TYR619  PRO620  LYS621  CYS622 
 ASP623  PHE694  ASN695  SER759  ASP760  ASP761  ALA762  ILE779  LEU786  VAL792 
 PHE793  MET794  SER795  GLU796  ALA797  LYS798  CYS799  TRP800  GLU811  SER814 

> <Gold.Protein.RotatedAtoms>
  151.3238  133.4029  159.2656 H   0  0  0  0  0  0  0  0  0  0  0  0  # atno 6907 bound_to 6896
  151.0012  134.9324  159.7965 H   0  0  0  0  0  0  0  0  0  0  0  0  # atno 6908 bound_to 6896
  152.5275  134.3203  159.9198 H   0  0  0  0  0  0  0  0  0  0  0  0  # atno 6909 bound_to 6896
  146.1569  140.4719  142.8587 H   0  0  0  0  0  0  0  0  0  0  0  0  # atno 7974 bound_to 7965
  154.4147  140.1709  156.1899 H   0  0  0  0  0  0  0  0  0  0  0  0  # atno 8008 bound_to 7997
  155.9612  140.3393  155.6468 H   0  0  0  0  0  0  0  0  0  0  0  0  # atno 8009 bound_to 7997
  155.6746  140.0715  157.2498 H   0  0  0  0  0  0  0  0  0  0  0  0  # atno 8010 bound_to 7997
  139.7184  143.8996  152.2494 H   0  0  0  0  0  0  0  0  0  0  0  0  # atno 10167 bound_to 10162
  156.4910  130.4566  149.6755 H   0  0  0  0  0  0  0  0  0  0  0  0  # atno 10718 bound_to 10713
  153.0573  135.5033  154.8011 H   0  0  0  0  0  0  0  0  0  0  0  0  # atno 10763 bound_to 10752
  154.6827  135.2971  154.9593 H   0  0  0  0  0  0  0  0  0  0  0  0  # atno 10764 bound_to 10752
  154.0373  135.6721  153.4839 H   0  0  0  0  0  0  0  0  0  0  0  0  # atno 10765 bound_to 10752
  141.1666  133.7207  156.8455 H   0  0  0  0  0  0  0  0  0  0  0  0  # atno 11005 bound_to 11000
  144.7976  140.6151  143.6500 LP  0  0  0  0  0  0  0  0  0  0  0  0  # atno 17320 bound_to 7965
  145.4685  139.1505  143.3827 LP  0  0  0  0  0  0  0  0  0  0  0  0  # atno 17321 bound_to 7965
  139.8885  144.6979  150.8797 LP  0  0  0  0  0  0  0  0  0  0  0  0  # atno 17342 bound_to 10162
  140.7748  143.3605  151.1838 LP  0  0  0  0  0  0  0  0  0  0  0  0  # atno 17343 bound_to 10162
  156.3426  130.7390  151.2338 LP  0  0  0  0  0  0  0  0  0  0  0  0  # atno 17370 bound_to 10713
  157.7474  131.0399  150.4573 LP  0  0  0  0  0  0  0  0  0  0  0  0  # atno 17371 bound_to 10713
  140.1953  134.8936  157.3107 LP  0  0  0  0  0  0  0  0  0  0  0  0  # atno 17394 bound_to 11000
  140.2246  134.3982  155.7550 LP  0  0  0  0  0  0  0  0  0  0  0  0  # atno 17395 bound_to 11000

$$$$
