AV-unprocessed.smi:2563|AV-procd|sdf|10060|dock3
  -GOLD-   2272014 93D 1   1.00000     0.00000
 Structure written by MMmdl.
 34 35  0  0  0  0  0  0  0  0  1 V2000
  153.2452  140.9079  159.9857 C   0  0  0  0  0  0  0  0  0  0  0  0
  152.2271  140.5010  158.9124 C   0  0  0  0  0  0  0  0  0  0  0  0
  151.4139  141.6322  158.4659 N   0  0  0  0  0  0  0  0  0  0  0  0
  150.3794  141.3967  157.4601 C   0  0  0  0  0  0  0  0  0  0  0  0
  150.9283  140.6936  156.2060 C   0  0  2  0  0  0  0  0  0  0  0  0
  149.8998  140.7026  155.0576 C   0  0  0  0  0  0  0  0  0  0  0  0
  150.4172  139.9713  153.9019 N   0  0  0  0  0  0  0  0  0  0  0  0
  150.8076  138.6110  154.2669 C   0  0  0  0  0  0  0  0  0  0  0  0
  151.8001  138.6389  155.4418 C   0  0  0  0  0  0  0  0  0  0  0  0
  151.2162  139.3368  156.5362 O   0  0  0  0  0  0  0  0  0  0  0  0
  151.5714  142.9096  159.0569 C   0  0  0  0  0  0  0  0  0  0  0  0
  151.8671  144.0601  158.2844 C   0  0  0  0  0  0  0  0  0  0  0  0
  152.0072  145.2895  158.9502 C   0  0  0  0  0  0  0  0  0  0  0  0
  151.8428  145.2915  160.3454 C   0  0  0  0  0  0  0  0  0  0  0  0
  151.5617  144.1706  161.0433 N   0  0  0  0  0  0  0  0  0  0  0  0
  151.4300  143.0028  160.4055 N   0  0  0  0  0  0  0  0  0  0  0  0
  153.8251  140.0451  160.3137 H   0  0  0  0  0  0  0  0  0  0  0  0
  152.7512  141.3279  160.8622 H   0  0  0  0  0  0  0  0  0  0  0  0
  153.9457  141.6526  159.6064 H   0  0  0  0  0  0  0  0  0  0  0  0
  152.7302  140.0254  158.0701 H   0  0  0  0  0  0  0  0  0  0  0  0
  151.5653  139.7378  159.3227 H   0  0  0  0  0  0  0  0  0  0  0  0
  149.5847  140.7904  157.8965 H   0  0  0  0  0  0  0  0  0  0  0  0
  149.9032  142.3406  157.1951 H   0  0  0  0  0  0  0  0  0  0  0  0
  151.8409  141.1940  155.8765 H   0  0  0  0  0  0  0  0  0  0  0  0
  148.9655  140.2508  155.3942 H   0  0  0  0  0  0  0  0  0  0  0  0
  149.6662  141.7287  154.7723 H   0  0  0  0  0  0  0  0  0  0  0  0
  149.7103  139.9388  153.1744 H   0  0  0  0  0  0  0  0  0  0  0  0
  149.9250  138.0348  154.5470 H   0  0  0  0  0  0  0  0  0  0  0  0
  151.2536  138.1054  153.4102 H   0  0  0  0  0  0  0  0  0  0  0  0
  152.0365  137.6227  155.7573 H   0  0  0  0  0  0  0  0  0  0  0  0
  152.7410  139.1088  155.1510 H   0  0  0  0  0  0  0  0  0  0  0  0
  151.9958  144.0255  157.2137 H   0  0  0  0  0  0  0  0  0  0  0  0
  152.2344  146.1969  158.4109 H   0  0  0  0  0  0  0  0  0  0  0  0
  151.9395  146.2057  160.9121 H   0  0  0  0  0  0  0  0  0  0  0  0
  1  2  1  0  0  0  0
  1 17  1  0  0  0  0
  1 18  1  0  0  0  0
  1 19  1  0  0  0  0
  2  3  1  0  0  0  0
  2 20  1  0  0  0  0
  2 21  1  0  0  0  0
  3  4  1  0  0  0  0
  3 11  1  0  0  0  0
  4  5  1  0  0  0  0
  4 22  1  0  0  0  0
  4 23  1  0  0  0  0
  5 10  1  0  0  0  0
  5  6  1  0  0  0  0
  5 24  1  0  0  0  0
  6  7  1  0  0  0  0
  6 25  1  0  0  0  0
  6 26  1  0  0  0  0
  7  8  1  0  0  0  0
  7 27  1  0  0  0  0
  8  9  1  0  0  0  0
  8 28  1  0  0  0  0
  8 29  1  0  0  0  0
  9 10  1  0  0  0  0
  9 30  1  0  0  0  0
  9 31  1  0  0  0  0
 11 16  1  0  0  0  0
 11 12  2  0  0  0  0
 12 13  1  0  0  0  0
 12 32  1  0  0  0  0
 13 14  2  0  0  0  0
 13 33  1  0  0  0  0
 14 15  1  0  0  0  0
 14 34  1  0  0  0  0
 15 16  2  0  0  0  0
M  END
> <s_m_source_file>
AV-unprocessed.smi

> <i_m_source_file_index>
2563

> <i_lp_mmshare_version>
43012

> <i_f3d_flags>
0

> <s_epik_input>
bjFuW2NIXVtjSF1bY0hdYzFOKFtDSDJdW0NIM10pW0NIMl1bQ0BASF0yW0NIMl1bTkhdW0NIMl1bQ0gyXU8y

> <s_epik_cmdline>
J2VwaWtfcHl0aG9uJywgJy1waCcsICc3LjAnLCAnLXRuJywgJzgnLCAnLW1hJywgJzIwMCcsICctbWV0YWxfYmluZGluZycsICctaW1hZScsICc8aW5maWxlLm1hZT4nLCAnLW9tYWUnLCAnPG91dGZpbGUubWFlPic=

> <r_lp_tautomer_probability>
1

> <r_epik_Ionization_Penalty>
2.34719

> <r_epik_Ionization_Penalty_Charging>
0

> <r_epik_Ionization_Penalty_Neutral>
2.34719

> <r_epik_State_Penalty>
2.60452

> <r_epik_Charging_Adjusted_Penalty>
2.60452

> <i_epik_Tot_Q>
0

> <i_epik_Tot_abs_Q>
0

> <r_epik_Metal_State_Penalty>
2.56937

> <b_epik_Metal_Only>
0

> <s_lp_Force_Field>
OPLS_2005

> <r_lp_Energy>
25.5001

> <b_lp_Chiralities_Consistent>
1

> <s_lp_Variant>
AV-unprocessed.smi:2563-5

> <Gold.Version>
5.8.1

> <Gold.Id.Protein>
6NUR|6NUR_protein|mol2

> <Gold.PLP.Fitness>
41.8618

> <Gold.PLP.PLP>
-39.0592

> <Gold.PLP.part.hbond>
-2.7554

> <Gold.PLP.part.metal>
0.0000

> <Gold.PLP.part.buried>
-4.6736

> <Gold.PLP.part.nonpolar>
-31.6542

> <Gold.PLP.part.repulsive>
0.2028

> <Gold.PLP.ligand.clash>
0.0000

> <Gold.PLP.ligand.torsion>
1.2237

> <Gold.PLP.Chemscore.Hbond>
1.7360

> <Gold.PLP.Chemscore.CHOScore>
0.0000

> <Gold.PLP.Chemscore.Metal>
0.0000

> <Gold.Chemscore.Hbonds>
donor molecule, donor type, donor heavy atom, donor atom, acceptor molecule, acceptor atom, score
      L1  H     7    27       P1  7957  0.75
      P1  H  7989  7998       L1     7  1.00

> <Gold.PLP.Chemscore.Internal.Correction>
0.0420

> <Gold.Rescore>
     Score         DG    S(hbond)    S(metal)    S(lipo)     H(rot)  DE(clash)    DE(int)     intcor
     11.86     -15.75       0.99        0.00      89.41       1.36       0.07       3.82       ----

> <Gold.Chemscore.Fitness>
11.8562

> <Gold.Chemscore.DG>
-15.7468

> <Gold.Chemscore.ZeroCoef>
-5.4800

> <Gold.Chemscore.Hbond>
0.9855

> <Gold.Chemscore.Metal>
0.0000

> <Gold.Chemscore.Lipo>
89.4132

> <Gold.Chemscore.Internal_Hbond>
0.0000

> <Gold.Chemscore.DEClash>
0.0670

> <Gold.Chemscore.DEInternal>
3.8236

> <Gold.Chemscore.Rot>
1.3618

> <Gold.Chemscore.Internal.Correction>
   9.000000E+99

> <Gold.Chemscore.Hbonds>
donor molecule, donor type, donor heavy atom, donor atom, acceptor molecule, acceptor atom, score
      L1  H     7    27       P1  7957  0.72
      P1  H  7989  7998       L1     7  0.22

> <Gold.Chemscore.Hbond.Weighted>
-3.2915

> <Gold.Chemscore.Metal.Weighted>
-0.0000

> <Gold.Chemscore.Lipo.Weighted>
-10.4613

> <Gold.Chemscore.Internal_Hbond.Weighted>
0.0000

> <Gold.Chemscore.DEClash.Weighted>
0.0670

> <Gold.Chemscore.DEInternal.Weighted>
3.8236

> <Gold.Chemscore.Rot.Weighted>
3.4861

> <Gold.Chemscore.Internal.Correction.Weighted>
   9.000000E+99

> <Gold.Protein.RotatedTorsions>
[ 6907 6896 6895 6894 ] final   78.38 input  -60.11 | X-H torsion
[ 7974 7965 7964 7962 ] final -127.14 input  175.53 | X-H torsion
[ 8008 7997 7996 7995 ] final   97.02 input   59.86 | X-H torsion
[ 10167 10162 10161 10158 ] final   28.77 input  -65.29 | X-H torsion
[ 10718 10713 10712 10709 ] final -172.09 input   66.30 | X-H torsion
[ 10763 10752 10751 10750 ] final  -90.87 input  -60.55 | X-H torsion
[ 11005 11000 10999 10996 ] final -133.61 input  -57.11 | X-H torsion

> <Gold.Protein.ActiveResidues>
 VAL166  LYS551  ARG553  GLY616  TRP617  ASP618  TYR619  PRO620  LYS621  CYS622 
 ASP623  PHE694  ASN695  SER759  ASP760  ASP761  ALA762  ILE779  LEU786  VAL792 
 PHE793  MET794  SER795  GLU796  ALA797  LYS798  CYS799  TRP800  GLU811  SER814 

> <Gold.Protein.RotatedAtoms>
  152.5157  134.3673  159.9305 H   0  0  0  0  0  0  0  0  0  0  0  0  # atno 6907 bound_to 6896
  151.3627  133.3877  159.2699 H   0  0  0  0  0  0  0  0  0  0  0  0  # atno 6908 bound_to 6896
  150.9639  134.9042  159.7805 H   0  0  0  0  0  0  0  0  0  0  0  0  # atno 6909 bound_to 6896
  144.9801  140.7632  143.4617 H   0  0  0  0  0  0  0  0  0  0  0  0  # atno 7974 bound_to 7965
  156.0857  140.3264  155.7751 H   0  0  0  0  0  0  0  0  0  0  0  0  # atno 8008 bound_to 7997
  155.5079  140.0574  157.2945 H   0  0  0  0  0  0  0  0  0  0  0  0  # atno 8009 bound_to 7997
  154.4608  140.1965  156.0267 H   0  0  0  0  0  0  0  0  0  0  0  0  # atno 8010 bound_to 7997
  140.4824  144.0596  150.6269 H   0  0  0  0  0  0  0  0  0  0  0  0  # atno 10167 bound_to 10162
  156.7504  130.9376  151.3114 H   0  0  0  0  0  0  0  0  0  0  0  0  # atno 10718 bound_to 10713
  154.6702  135.5289  153.8128 H   0  0  0  0  0  0  0  0  0  0  0  0  # atno 10763 bound_to 10752
  153.0496  135.6527  154.0737 H   0  0  0  0  0  0  0  0  0  0  0  0  # atno 10764 bound_to 10752
  154.0636  135.2959  155.3300 H   0  0  0  0  0  0  0  0  0  0  0  0  # atno 10765 bound_to 10752
  140.9065  134.1623  157.4422 H   0  0  0  0  0  0  0  0  0  0  0  0  # atno 11005 bound_to 11000
  145.2433  139.2063  143.4981 LP  0  0  0  0  0  0  0  0  0  0  0  0  # atno 17320 bound_to 7965
  146.3406  140.2332  142.8594 LP  0  0  0  0  0  0  0  0  0  0  0  0  # atno 17321 bound_to 7965
  140.3841  143.2787  152.0136 LP  0  0  0  0  0  0  0  0  0  0  0  0  # atno 17342 bound_to 10162
  139.4836  144.6131  151.7397 LP  0  0  0  0  0  0  0  0  0  0  0  0  # atno 17343 bound_to 10162
  157.6779  130.9112  150.0195 LP  0  0  0  0  0  0  0  0  0  0  0  0  # atno 17370 bound_to 10713
  156.1405  130.3642  149.9590 LP  0  0  0  0  0  0  0  0  0  0  0  0  # atno 17371 bound_to 10713
  139.8750  134.9919  156.5570 LP  0  0  0  0  0  0  0  0  0  0  0  0  # atno 17394 bound_to 11000
  140.8164  133.8388  155.8856 LP  0  0  0  0  0  0  0  0  0  0  0  0  # atno 17395 bound_to 11000

$$$$
