AV-unprocessed.smi:2446|AV-procd|sdf|9641|dock2
  -GOLD-   2272013273D 1   1.00000     0.00000
 Structure written by MMmdl.
 39 40  0  0  0  0  0  0  0  0  1 V2000
  151.3448  144.9398  158.1053 C   0  0  0  0  0  0  0  0  0  0  0  0
  151.8211  143.5607  158.5281 C   0  0  0  0  0  0  0  0  0  0  0  0
  152.8477  143.4344  159.4885 C   0  0  0  0  0  0  0  0  0  0  0  0
  153.3238  142.2485  159.9200 N   0  0  0  0  0  0  0  0  0  0  0  0
  152.7802  141.1273  159.4041 C   0  0  0  0  0  0  0  0  0  0  0  0
  151.7527  141.1362  158.4405 C   0  0  0  0  0  0  0  0  0  0  0  0
  151.2642  142.3814  157.9764 C   0  0  0  0  0  0  0  0  0  0  0  0
  150.2199  142.5077  157.0177 N   0  0  0  0  0  0  0  0  0  0  0  0
  149.5492  141.5457  156.3540 C   0  0  0  0  0  0  0  0  0  0  0  0
  149.7245  140.3380  156.4985 O   0  0  0  0  0  0  0  0  0  0  0  0
  148.6467  142.0138  155.4723 N   0  0  0  0  0  0  0  0  0  0  0  0
  147.7503  141.2600  154.5886 C   0  0  2  0  0  0  0  0  0  0  0  0
  146.9956  142.2251  153.6549 C   0  0  0  0  0  0  0  0  0  0  0  0
  145.9450  143.0594  154.4070 C   0  0  0  0  0  0  0  0  0  0  0  0
  144.9679  142.1630  155.1828 C   0  0  0  0  0  0  0  0  0  0  0  0
  145.7080  141.2217  156.1561 C   0  0  1  0  0  0  0  0  0  0  0  0
  144.7326  140.3305  156.9523 C   0  0  0  0  0  0  0  0  0  0  0  0
  145.3892  139.5813  157.8385 F   0  0  0  0  0  0  0  0  0  0  0  0
  143.8485  141.0887  157.6008 F   0  0  0  0  0  0  0  0  0  0  0  0
  144.0640  139.5297  156.1223 F   0  0  0  0  0  0  0  0  0  0  0  0
  146.7586  140.3862  155.3902 C   0  0  0  0  0  0  0  0  0  0  0  0
  151.8609  145.7239  158.6600 H   0  0  0  0  0  0  0  0  0  0  0  0
  150.2752  145.0474  158.2877 H   0  0  0  0  0  0  0  0  0  0  0  0
  151.5329  145.0979  157.0431 H   0  0  0  0  0  0  0  0  0  0  0  0
  153.3014  144.3108  159.9275 H   0  0  0  0  0  0  0  0  0  0  0  0
  153.1712  140.1918  159.7756 H   0  0  0  0  0  0  0  0  0  0  0  0
  151.3577  140.1949  158.0917 H   0  0  0  0  0  0  0  0  0  0  0  0
  150.0073  143.4546  156.7407 H   0  0  0  0  0  0  0  0  0  0  0  0
  148.5689  143.0187  155.4108 H   0  0  0  0  0  0  0  0  0  0  0  0
  148.3573  140.6102  153.9559 H   0  0  0  0  0  0  0  0  0  0  0  0
  147.6986  142.8833  153.1428 H   0  0  0  0  0  0  0  0  0  0  0  0
  146.4976  141.6493  152.8738 H   0  0  0  0  0  0  0  0  0  0  0  0
  146.4400  143.7441  155.0967 H   0  0  0  0  0  0  0  0  0  0  0  0
  145.3940  143.6817  153.7014 H   0  0  0  0  0  0  0  0  0  0  0  0
  144.2620  142.7887  155.7295 H   0  0  0  0  0  0  0  0  0  0  0  0
  144.3767  141.5765  154.4784 H   0  0  0  0  0  0  0  0  0  0  0  0
  146.2373  141.8437  156.8795 H   0  0  0  0  0  0  0  0  0  0  0  0
  146.2470  139.7141  154.7002 H   0  0  0  0  0  0  0  0  0  0  0  0
  147.2997  139.7420  156.0830 H   0  0  0  0  0  0  0  0  0  0  0  0
  1  2  1  0  0  0  0
  1 22  1  0  0  0  0
  1 23  1  0  0  0  0
  1 24  1  0  0  0  0
  2  7  1  0  0  0  0
  2  3  2  0  0  0  0
  3  4  1  0  0  0  0
  3 25  1  0  0  0  0
  4  5  2  0  0  0  0
  5  6  1  0  0  0  0
  5 26  1  0  0  0  0
  6  7  2  0  0  0  0
  6 27  1  0  0  0  0
  7  8  1  0  0  0  0
  8  9  1  0  0  0  0
  8 28  1  0  0  0  0
  9 10  2  0  0  0  0
  9 11  1  0  0  0  0
 11 12  1  0  0  0  0
 11 29  1  0  0  0  0
 12 21  1  0  0  0  0
 12 13  1  0  0  0  0
 12 30  1  0  0  0  0
 13 14  1  0  0  0  0
 13 31  1  0  0  0  0
 13 32  1  0  0  0  0
 14 15  1  0  0  0  0
 14 33  1  0  0  0  0
 14 34  1  0  0  0  0
 15 16  1  0  0  0  0
 15 35  1  0  0  0  0
 15 36  1  0  0  0  0
 16 17  1  0  0  0  0
 16 21  1  0  0  0  0
 16 37  1  0  0  0  0
 17 18  1  0  0  0  0
 17 19  1  0  0  0  0
 17 20  1  0  0  0  0
 21 38  1  0  0  0  0
 21 39  1  0  0  0  0
M  END
> <s_m_source_file>
AV-unprocessed.smi

> <i_m_source_file_index>
2446

> <i_lp_mmshare_version>
43012

> <i_f3d_flags>
0

> <s_epik_input>
W0NIM11jMVtjSF1uW2NIXVtjSF1jMVtOSF1DKD1PKVtOSF1bQ0BASF0yW0NIMl1bQ0gyXVtDSDJdW0NAQEhdKEMoRikoRilGKVtDSDJdMg==

> <s_epik_cmdline>
J2VwaWtfcHl0aG9uJywgJy1waCcsICc3LjAnLCAnLXRuJywgJzgnLCAnLW1hJywgJzIwMCcsICctbWV0YWxfYmluZGluZycsICctaW1hZScsICc8aW5maWxlLm1hZT4nLCAnLW9tYWUnLCAnPG91dGZpbGUubWFlPic=

> <r_epik_Ionization_Penalty>
0.20168

> <r_epik_Ionization_Penalty_Charging>
0

> <r_epik_Ionization_Penalty_Neutral>
0.20168

> <r_epik_State_Penalty>
0.191514

> <r_epik_Charging_Adjusted_Penalty>
0.191514

> <i_epik_Tot_Q>
0

> <i_epik_Tot_abs_Q>
0

> <r_epik_Metal_State_Penalty>
0.142371

> <b_epik_Metal_Only>
0

> <s_lp_Force_Field>
OPLS_2005

> <r_lp_Energy>
25.5489

> <b_lp_Chiralities_Consistent>
1

> <s_lp_Variant>
AV-unprocessed.smi:2446-1

> <Gold.Version>
5.8.1

> <Gold.Id.Protein>
6NUR|6NUR_protein|mol2

> <Gold.PLP.Fitness>
39.2302

> <Gold.PLP.PLP>
-33.5304

> <Gold.PLP.part.hbond>
-2.0000

> <Gold.PLP.part.metal>
0.0000

> <Gold.PLP.part.buried>
-7.3689

> <Gold.PLP.part.nonpolar>
-24.9248

> <Gold.PLP.part.repulsive>
0.1843

> <Gold.PLP.ligand.clash>
0.0000

> <Gold.PLP.ligand.torsion>
0.0283

> <Gold.PLP.Chemscore.Hbond>
1.9120

> <Gold.PLP.Chemscore.CHOScore>
0.0000

> <Gold.PLP.Chemscore.Metal>
0.0000

> <Gold.Chemscore.Hbonds>
donor molecule, donor type, donor heavy atom, donor atom, acceptor molecule, acceptor atom, score
      L1  H     8    28       P1  8028  0.99
      L1  H    11    29       P1  8028  1.00

> <Gold.PLP.Chemscore.Internal.Correction>
0.0204

> <Gold.Rescore>
     Score         DG    S(hbond)    S(metal)    S(lipo)     H(rot)  DE(clash)    DE(int)     intcor
     18.24     -19.65       1.91        0.00      88.30       1.00       0.16       1.24       ----

> <Gold.Chemscore.Fitness>
18.2433

> <Gold.Chemscore.DG>
-19.6458

> <Gold.Chemscore.ZeroCoef>
-5.4800

> <Gold.Chemscore.Hbond>
1.9147

> <Gold.Chemscore.Metal>
0.0000

> <Gold.Chemscore.Lipo>
88.2970

> <Gold.Chemscore.Internal_Hbond>
0.0000

> <Gold.Chemscore.DEClash>
0.1604

> <Gold.Chemscore.DEInternal>
1.2421

> <Gold.Chemscore.Rot>
1.0000

> <Gold.Chemscore.Internal.Correction>
   9.000000E+99

> <Gold.Chemscore.Hbonds>
donor molecule, donor type, donor heavy atom, donor atom, acceptor molecule, acceptor atom, score
      L1  H     8    28       P1  8028  0.91
      L1  H    11    29       P1  8028  1.00

> <Gold.Chemscore.Hbond.Weighted>
-6.3950

> <Gold.Chemscore.Metal.Weighted>
-0.0000

> <Gold.Chemscore.Lipo.Weighted>
-10.3308

> <Gold.Chemscore.Internal_Hbond.Weighted>
0.0000

> <Gold.Chemscore.DEClash.Weighted>
0.1604

> <Gold.Chemscore.DEInternal.Weighted>
1.2421

> <Gold.Chemscore.Rot.Weighted>
2.5600

> <Gold.Chemscore.Internal.Correction.Weighted>
   9.000000E+99

> <Gold.Protein.RotatedTorsions>
[ 6907 6896 6895 6894 ] final -139.02 input  -60.11 | X-H torsion
[ 7974 7965 7964 7962 ] final  149.42 input  175.53 | X-H torsion
[ 8008 7997 7996 7995 ] final  -73.11 input   59.86 | X-H torsion
[ 10167 10162 10161 10158 ] final   85.54 input  -65.29 | X-H torsion
[ 10718 10713 10712 10709 ] final   65.95 input   66.30 | X-H torsion
[ 10763 10752 10751 10750 ] final   45.05 input  -60.55 | X-H torsion
[ 11005 11000 10999 10996 ] final  111.34 input  -57.11 | X-H torsion

> <Gold.Protein.ActiveResidues>
 VAL166  LYS551  ARG553  GLY616  TRP617  ASP618  TYR619  PRO620  LYS621  CYS622 
 ASP623  PHE694  ASN695  SER759  ASP760  ASP761  ALA762  ILE779  LEU786  VAL792 
 PHE793  MET794  SER795  GLU796  ALA797  LYS798  CYS799  TRP800  GLU811  SER814 

> <Gold.Protein.RotatedAtoms>
  151.0425  133.5694  159.2649 H   0  0  0  0  0  0  0  0  0  0  0  0  # atno 6907 bound_to 6896
  151.2735  135.0691  159.9153 H   0  0  0  0  0  0  0  0  0  0  0  0  # atno 6908 bound_to 6896
  152.5367  134.0151  159.8010 H   0  0  0  0  0  0  0  0  0  0  0  0  # atno 6909 bound_to 6896
  144.8440  139.6278  143.6004 H   0  0  0  0  0  0  0  0  0  0  0  0  # atno 7974 bound_to 7965
  154.5220  140.0785  156.8189 H   0  0  0  0  0  0  0  0  0  0  0  0  # atno 8008 bound_to 7997
  155.3555  140.3415  155.4222 H   0  0  0  0  0  0  0  0  0  0  0  0  # atno 8009 bound_to 7997
  156.1691  140.1614  156.8465 H   0  0  0  0  0  0  0  0  0  0  0  0  # atno 8010 bound_to 7997
  139.8967  144.6353  150.8680 H   0  0  0  0  0  0  0  0  0  0  0  0  # atno 10167 bound_to 10162
  157.6138  130.9241  150.0044 H   0  0  0  0  0  0  0  0  0  0  0  0  # atno 10718 bound_to 10713
  152.9831  135.6051  154.3373 H   0  0  0  0  0  0  0  0  0  0  0  0  # atno 10763 bound_to 10752
  154.3072  135.2772  155.2585 H   0  0  0  0  0  0  0  0  0  0  0  0  # atno 10764 bound_to 10752
  154.4810  135.5917  153.6446 H   0  0  0  0  0  0  0  0  0  0  0  0  # atno 10765 bound_to 10752
  139.8901  134.9505  156.6417 H   0  0  0  0  0  0  0  0  0  0  0  0  # atno 11005 bound_to 11000
  146.2727  139.6676  142.9284 LP  0  0  0  0  0  0  0  0  0  0  0  0  # atno 17320 bound_to 7965
  145.4636  141.0434  143.2738 LP  0  0  0  0  0  0  0  0  0  0  0  0  # atno 17321 bound_to 7965
  140.7715  143.3468  151.2095 LP  0  0  0  0  0  0  0  0  0  0  0  0  # atno 17342 bound_to 10162
  139.7061  143.9453  152.2927 LP  0  0  0  0  0  0  0  0  0  0  0  0  # atno 17343 bound_to 10162
  156.1252  130.3644  149.9822 LP  0  0  0  0  0  0  0  0  0  0  0  0  # atno 17370 bound_to 10713
  156.7894  130.9250  151.3646 LP  0  0  0  0  0  0  0  0  0  0  0  0  # atno 17371 bound_to 10713
  140.7588  133.8835  155.8402 LP  0  0  0  0  0  0  0  0  0  0  0  0  # atno 17394 bound_to 11000
  140.9939  134.1241  157.4382 LP  0  0  0  0  0  0  0  0  0  0  0  0  # atno 17395 bound_to 11000

$$$$
