AV-unprocessed.smi:1793|AV-procd|sdf|7231|dock3
  -GOLD-   22720 8473D 1   1.00000     0.00000
 Structure written by MMmdl.
 47 49  0  0  0  0  0  0  0  0  2 V2000
  144.1512  135.7621  152.4777 C   0  0  0  0  0  0  0  0  0  0  0  0
  145.0696  135.9839  151.2656 C   0  0  1  0  0  0  0  0  0  0  0  0
  146.2455  136.7305  151.7080 N   0  0  0  0  0  0  0  0  0  0  0  0
  146.2256  137.8569  152.4349 C   0  0  0  0  0  0  0  0  0  0  0  0
  145.1929  138.4042  152.8205 O   0  0  0  0  0  0  0  0  0  0  0  0
  147.4698  138.3086  152.6630 N   0  0  0  0  0  0  0  0  0  0  0  0
  147.8585  139.5028  153.3337 C   0  0  0  0  0  0  0  0  0  0  0  0
  147.0983  140.6968  153.2412 C   0  0  0  0  0  0  0  0  0  0  0  0
  147.5031  141.8415  153.9543 C   0  0  0  0  0  0  0  0  0  0  0  0
  148.6550  141.7729  154.7576 C   0  0  0  0  0  0  0  0  0  0  0  0
  149.3473  140.6174  154.8367 N   0  3  0  0  0  0  0  0  0  0  0  0
  149.0054  139.4847  154.1741 C   0  0  0  0  0  0  0  0  0  0  0  0
  149.8193  138.3400  154.3143 N   0  0  0  0  0  0  0  0  0  0  0  0
  151.2297  138.6325  154.5583 C   0  0  0  0  0  0  0  0  0  0  0  0
  151.7341  137.5616  155.5281 C   0  0  0  0  0  0  0  0  0  0  0  0
  150.4726  137.1477  156.2759 C   0  0  0  0  0  0  0  0  0  0  0  0
  149.3993  137.2500  155.1938 C   0  0  0  0  0  0  0  0  0  0  0  0
  145.4984  134.6556  150.6054 C   0  0  1  0  0  0  0  0  0  0  0  0
  146.1674  133.6611  151.5586 C   0  0  0  0  0  0  0  0  0  0  0  0
  145.8576  132.3374  150.8995 C   0  0  0  0  0  0  0  0  0  0  0  0
  144.4339  132.5726  150.4114 C   0  0  0  0  0  0  0  0  0  0  0  0
  144.3674  133.9568  150.0831 O   0  0  0  0  0  0  0  0  0  0  0  0
  143.2220  135.2704  152.1890 H   0  0  0  0  0  0  0  0  0  0  0  0
  143.8830  136.7100  152.9453 H   0  0  0  0  0  0  0  0  0  0  0  0
  144.6342  135.1426  153.2342 H   0  0  0  0  0  0  0  0  0  0  0  0
  144.5160  136.5776  150.5357 H   0  0  0  0  0  0  0  0  0  0  0  0
  147.1428  136.3593  151.4324 H   0  0  0  0  0  0  0  0  0  0  0  0
  148.2157  137.7994  152.2121 H   0  0  0  0  0  0  0  0  0  0  0  0
  146.1992  140.7501  152.6463 H   0  0  0  0  0  0  0  0  0  0  0  0
  146.9331  142.7568  153.8894 H   0  0  0  0  0  0  0  0  0  0  0  0
  149.0390  142.5991  155.3381 H   0  0  0  0  0  0  0  0  0  0  0  0
  151.8009  138.6240  153.6298 H   0  0  0  0  0  0  0  0  0  0  0  0
  151.3357  139.6215  155.0073 H   0  0  0  0  0  0  0  0  0  0  0  0
  152.1268  136.7107  154.9694 H   0  0  0  0  0  0  0  0  0  0  0  0
  152.5224  137.9250  156.1879 H   0  0  0  0  0  0  0  0  0  0  0  0
  150.5416  136.1514  156.7139 H   0  0  0  0  0  0  0  0  0  0  0  0
  150.2645  137.8586  157.0767 H   0  0  0  0  0  0  0  0  0  0  0  0
  148.4038  137.3652  155.6221 H   0  0  0  0  0  0  0  0  0  0  0  0
  149.3825  136.3351  154.6005 H   0  0  0  0  0  0  0  0  0  0  0  0
  146.1725  134.8516  149.7696 H   0  0  0  0  0  0  0  0  0  0  0  0
  147.2367  133.8376  151.6772 H   0  0  0  0  0  0  0  0  0  0  0  0
  145.7032  133.6996  152.5453 H   0  0  0  0  0  0  0  0  0  0  0  0
  146.5256  132.1730  150.0529 H   0  0  0  0  0  0  0  0  0  0  0  0
  145.9424  131.4872  151.5770 H   0  0  0  0  0  0  0  0  0  0  0  0
  144.1735  131.9455  149.5586 H   0  0  0  0  0  0  0  0  0  0  0  0
  143.7201  132.3720  151.2113 H   0  0  0  0  0  0  0  0  0  0  0  0
  150.1795  140.5973  155.4264 H   0  0  0  0  0  0  0  0  0  0  0  0
  1  2  1  0  0  0  0
  1 23  1  0  0  0  0
  1 24  1  0  0  0  0
  1 25  1  0  0  0  0
  2  3  1  0  0  0  0
  2 18  1  0  0  0  0
  2 26  1  0  0  0  0
  3  4  1  0  0  0  0
  3 27  1  0  0  0  0
  4  5  2  0  0  0  0
  4  6  1  0  0  0  0
  6  7  1  0  0  0  0
  6 28  1  0  0  0  0
  7 12  1  0  0  0  0
  7  8  2  0  0  0  0
  8  9  1  0  0  0  0
  8 29  1  0  0  0  0
  9 10  2  0  0  0  0
  9 30  1  0  0  0  0
 10 11  1  0  0  0  0
 10 31  1  0  0  0  0
 11 12  2  0  0  0  0
 11 47  1  0  0  0  0
 12 13  1  0  0  0  0
 13 17  1  0  0  0  0
 13 14  1  0  0  0  0
 14 15  1  0  0  0  0
 14 32  1  0  0  0  0
 14 33  1  0  0  0  0
 15 16  1  0  0  0  0
 15 34  1  0  0  0  0
 15 35  1  0  0  0  0
 16 17  1  0  0  0  0
 16 36  1  0  0  0  0
 16 37  1  0  0  0  0
 17 38  1  0  0  0  0
 17 39  1  0  0  0  0
 18 22  1  0  0  0  0
 18 19  1  0  0  0  0
 18 40  1  0  0  0  0
 19 20  1  0  0  0  0
 19 41  1  0  0  0  0
 19 42  1  0  0  0  0
 20 21  1  0  0  0  0
 20 43  1  0  0  0  0
 20 44  1  0  0  0  0
 21 22  1  0  0  0  0
 21 45  1  0  0  0  0
 21 46  1  0  0  0  0
M  CHG  1  11   1
M  END
> <s_m_source_file>
AV-unprocessed.smi

> <i_m_source_file_index>
1793

> <i_lp_mmshare_version>
43012

> <i_f3d_flags>
0

> <s_epik_input>
TzFbQ0gyXVtDSDJdW0NIMl1bQ0BIXTFbQ0BIXShbQ0gzXSlbTkhdQyg9TylbTkhdYzJbY0hdW2NIXVtjSF1uYzJOM1tDSDJdW0NIMl1bQ0gyXVtDSDJdMw==

> <s_epik_cmdline>
J2VwaWtfcHl0aG9uJywgJy1waCcsICc3LjAnLCAnLXRuJywgJzgnLCAnLW1hJywgJzIwMCcsICctbWV0YWxfYmluZGluZycsICctaW1hZScsICc8aW5maWxlLm1hZT4nLCAnLW9tYWUnLCAnPG91dGZpbGUubWFlPic=

> <r_lp_tautomer_probability>
0.999994

> <r_epik_Ionization_Penalty>
1.11092

> <r_epik_Ionization_Penalty_Charging>
1.1109

> <r_epik_Ionization_Penalty_Neutral>
1.9363e-05

> <r_epik_State_Penalty>
1.16888

> <r_epik_Charging_Adjusted_Penalty>
2.27978

> <i_epik_Tot_Q>
1

> <i_epik_Tot_abs_Q>
1

> <r_epik_Metal_State_Penalty>
1.25472

> <b_epik_Metal_Only>
0

> <s_lp_Force_Field>
OPLS_2005

> <r_lp_Energy>
52.0623

> <b_lp_Chiralities_Consistent>
1

> <s_lp_Variant>
AV-unprocessed.smi:1793-8

> <Gold.Version>
5.8.1

> <Gold.Id.Protein>
6NUR|6NUR_protein|mol2

> <Gold.PLP.Fitness>
38.1019

> <Gold.PLP.PLP>
-34.1663

> <Gold.PLP.part.hbond>
-2.6004

> <Gold.PLP.part.metal>
0.0000

> <Gold.PLP.part.buried>
-2.7373

> <Gold.PLP.part.nonpolar>
-32.6398

> <Gold.PLP.part.repulsive>
4.0273

> <Gold.PLP.ligand.clash>
0.0113

> <Gold.PLP.ligand.torsion>
0.9908

> <Gold.PLP.Chemscore.Hbond>
1.9200

> <Gold.PLP.Chemscore.CHOScore>
0.0000

> <Gold.PLP.Chemscore.Metal>
0.0000

> <Gold.Chemscore.Hbonds>
donor molecule, donor type, donor heavy atom, donor atom, acceptor molecule, acceptor atom, score
      L1  H     3    27       P1  7948  0.94
      L1  H     6    28       P1  7948  0.99

> <Gold.PLP.Chemscore.Internal.Correction>
0.1686

> <Gold.Rescore>
     Score         DG    S(hbond)    S(metal)    S(lipo)     H(rot)  DE(clash)    DE(int)     intcor
     15.20     -18.09       1.87        0.00      84.68       1.38       0.18       2.72       ----

> <Gold.Chemscore.Fitness>
15.2013

> <Gold.Chemscore.DG>
-18.0946

> <Gold.Chemscore.ZeroCoef>
-5.4800

> <Gold.Chemscore.Hbond>
1.8682

> <Gold.Chemscore.Metal>
0.0000

> <Gold.Chemscore.Lipo>
84.6838

> <Gold.Chemscore.Internal_Hbond>
0.0000

> <Gold.Chemscore.DEClash>
0.1776

> <Gold.Chemscore.DEInternal>
2.7156

> <Gold.Chemscore.Rot>
1.3802

> <Gold.Chemscore.Internal.Correction>
   9.000000E+99

> <Gold.Chemscore.Hbonds>
donor molecule, donor type, donor heavy atom, donor atom, acceptor molecule, acceptor atom, score
      L1  H     3    27       P1  7948  0.91
      L1  H     6    28       P1  7948  0.93

> <Gold.Chemscore.Hbond.Weighted>
-6.2398

> <Gold.Chemscore.Metal.Weighted>
-0.0000

> <Gold.Chemscore.Lipo.Weighted>
-9.9080

> <Gold.Chemscore.Internal_Hbond.Weighted>
0.0000

> <Gold.Chemscore.DEClash.Weighted>
0.1776

> <Gold.Chemscore.DEInternal.Weighted>
2.7156

> <Gold.Chemscore.Rot.Weighted>
3.5332

> <Gold.Chemscore.Internal.Correction.Weighted>
   9.000000E+99

> <Gold.Protein.RotatedTorsions>
[ 6907 6896 6895 6894 ] final  -72.35 input  -60.11 | X-H torsion
[ 7974 7965 7964 7962 ] final   96.27 input  175.53 | X-H torsion
[ 8008 7997 7996 7995 ] final   93.02 input   59.86 | X-H torsion
[ 10167 10162 10161 10158 ] final -175.66 input  -65.29 | X-H torsion
[ 10718 10713 10712 10709 ] final    7.86 input   66.30 | X-H torsion
[ 10763 10752 10751 10750 ] final  126.99 input  -60.55 | X-H torsion
[ 11005 11000 10999 10996 ] final -136.48 input  -57.11 | X-H torsion

> <Gold.Protein.ActiveResidues>
 VAL166  LYS551  ARG553  GLY616  TRP617  ASP618  TYR619  PRO620  LYS621  CYS622 
 ASP623  PHE694  ASN695  SER759  ASP760  ASP761  ALA762  ILE779  LEU786  VAL792 
 PHE793  MET794  SER795  GLU796  ALA797  LYS798  CYS799  TRP800  GLU811  SER814 

> <Gold.Protein.RotatedAtoms>
  150.7174  134.5176  159.5637 H   0  0  0  0  0  0  0  0  0  0  0  0  # atno 6907 bound_to 6896
  152.2738  134.7900  160.0418 H   0  0  0  0  0  0  0  0  0  0  0  0  # atno 6908 bound_to 6896
  151.8571  133.3415  159.3728 H   0  0  0  0  0  0  0  0  0  0  0  0  # atno 6909 bound_to 6896
  145.4410  139.2301  143.3092 H   0  0  0  0  0  0  0  0  0  0  0  0  # atno 7974 bound_to 7965
  156.0420  140.3318  155.7254 H   0  0  0  0  0  0  0  0  0  0  0  0  # atno 8008 bound_to 7997
  155.5730  140.0629  157.2819 H   0  0  0  0  0  0  0  0  0  0  0  0  # atno 8009 bound_to 7997
  154.4397  140.1857  156.0887 H   0  0  0  0  0  0  0  0  0  0  0  0  # atno 8010 bound_to 7997
  139.5569  144.1966  152.1175 H   0  0  0  0  0  0  0  0  0  0  0  0  # atno 10167 bound_to 10162
  156.9431  130.5869  149.5653 H   0  0  0  0  0  0  0  0  0  0  0  0  # atno 10718 bound_to 10713
  153.7023  135.3281  155.3227 H   0  0  0  0  0  0  0  0  0  0  0  0  # atno 10763 bound_to 10752
  154.8409  135.4457  154.1398 H   0  0  0  0  0  0  0  0  0  0  0  0  # atno 10764 bound_to 10752
  153.2469  135.6977  153.7800 H   0  0  0  0  0  0  0  0  0  0  0  0  # atno 10765 bound_to 10752
  140.8801  134.1943  157.4597 H   0  0  0  0  0  0  0  0  0  0  0  0  # atno 11005 bound_to 11000
  146.2556  140.5159  142.8875 LP  0  0  0  0  0  0  0  0  0  0  0  0  # atno 17320 bound_to 7965
  144.8121  140.6404  143.6408 LP  0  0  0  0  0  0  0  0  0  0  0  0  # atno 17321 bound_to 7965
  140.1472  144.5148  150.6709 LP  0  0  0  0  0  0  0  0  0  0  0  0  # atno 17342 bound_to 10162
  140.6844  143.2342  151.5300 LP  0  0  0  0  0  0  0  0  0  0  0  0  # atno 17343 bound_to 10162
  156.0395  130.5479  150.8737 LP  0  0  0  0  0  0  0  0  0  0  0  0  # atno 17370 bound_to 10713
  157.5772  131.0946  150.9328 LP  0  0  0  0  0  0  0  0  0  0  0  0  # atno 17371 bound_to 10713
  139.8719  134.9813  156.5111 LP  0  0  0  0  0  0  0  0  0  0  0  0  # atno 17394 bound_to 11000
  140.8472  133.8160  155.9132 LP  0  0  0  0  0  0  0  0  0  0  0  0  # atno 17395 bound_to 11000

$$$$
