AV-unprocessed.smi:3146|AV-procd|sdf|11985|dock8
  -GOLD-   2272017393D 1   1.00000     0.00000
 Structure written by MMmdl.
 35 36  0  0  0  0  0  0  0  0  2 V2000
  154.0804  141.3955  161.1365 O   0  0  0  0  0  0  0  0  0  0  0  0
  153.3281  142.3183  161.4536 C   0  0  0  0  0  0  0  0  0  0  0  0
  153.4168  142.9211  162.8630 C   0  0  0  0  0  0  0  0  0  0  0  0
  154.7306  142.6831  163.4949 N   0  3  0  0  0  0  0  0  0  0  0  0
  155.0311  143.5839  164.6258 C   0  0  0  0  0  0  0  0  0  0  0  0
  155.7766  142.8518  165.7533 C   0  0  0  0  0  0  0  0  0  0  0  0
  156.0804  143.7267  166.8714 N   0  0  0  0  0  0  0  0  0  0  0  0
  155.2032  144.3871  167.7059 C   0  0  0  0  0  0  0  0  0  0  0  0
  155.9512  145.0841  168.6111 C   0  0  0  0  0  0  0  0  0  0  0  0
  157.2932  144.7851  168.2439 C   0  0  0  0  0  0  0  0  0  0  0  0
  157.3670  143.9706  167.2034 N   0  0  0  0  0  0  0  0  0  0  0  0
  152.4186  142.8291  160.5982 N   0  0  0  0  0  0  0  0  0  0  0  0
  152.1920  142.3805  159.2246 C   0  0  0  0  0  0  0  0  0  0  0  0
  150.9259  143.1000  158.7584 C   0  0  0  0  0  0  0  0  0  0  0  0
  150.8691  144.3540  159.6200 C   0  0  0  0  0  0  0  0  0  0  0  0
  151.5210  143.9319  160.9368 C   0  0  0  0  0  0  0  0  0  0  0  0
  153.2398  143.9958  162.8048 H   0  0  0  0  0  0  0  0  0  0  0  0
  152.6382  142.4876  163.4921 H   0  0  0  0  0  0  0  0  0  0  0  0
  154.7559  141.7299  163.8293 H   0  0  0  0  0  0  0  0  0  0  0  0
  155.6425  144.4100  164.2610 H   0  0  0  0  0  0  0  0  0  0  0  0
  154.1056  144.0166  165.0082 H   0  0  0  0  0  0  0  0  0  0  0  0
  155.1980  141.9990  166.1121 H   0  0  0  0  0  0  0  0  0  0  0  0
  156.7169  142.4513  165.3727 H   0  0  0  0  0  0  0  0  0  0  0  0
  154.1322  144.3075  167.5886 H   0  0  0  0  0  0  0  0  0  0  0  0
  155.5943  145.7134  169.4130 H   0  0  0  0  0  0  0  0  0  0  0  0
  158.2087  145.1324  168.7000 H   0  0  0  0  0  0  0  0  0  0  0  0
  153.0438  142.6725  158.6086 H   0  0  0  0  0  0  0  0  0  0  0  0
  152.0735  141.2984  159.1543 H   0  0  0  0  0  0  0  0  0  0  0  0
  150.9329  143.3198  157.6903 H   0  0  0  0  0  0  0  0  0  0  0  0
  150.0543  142.4774  158.9650 H   0  0  0  0  0  0  0  0  0  0  0  0
  151.4616  145.1433  159.1552 H   0  0  0  0  0  0  0  0  0  0  0  0
  149.8547  144.7316  159.7516 H   0  0  0  0  0  0  0  0  0  0  0  0
  150.7674  143.5730  161.6393 H   0  0  0  0  0  0  0  0  0  0  0  0
  152.0494  144.7654  161.4023 H   0  0  0  0  0  0  0  0  0  0  0  0
  155.4486  142.7914  162.7926 H   0  0  0  0  0  0  0  0  0  0  0  0
  1  2  2  0  0  0  0
  2  3  1  0  0  0  0
  2 12  1  0  0  0  0
  3  4  1  0  0  0  0
  3 17  1  0  0  0  0
  3 18  1  0  0  0  0
  4  5  1  0  0  0  0
  4 19  1  0  0  0  0
  4 35  1  0  0  0  0
  5  6  1  0  0  0  0
  5 20  1  0  0  0  0
  5 21  1  0  0  0  0
  6  7  1  0  0  0  0
  6 22  1  0  0  0  0
  6 23  1  0  0  0  0
  7 11  1  0  0  0  0
  7  8  1  0  0  0  0
  8  9  2  0  0  0  0
  8 24  1  0  0  0  0
  9 10  1  0  0  0  0
  9 25  1  0  0  0  0
 10 11  2  0  0  0  0
 10 26  1  0  0  0  0
 12 16  1  0  0  0  0
 12 13  1  0  0  0  0
 13 14  1  0  0  0  0
 13 27  1  0  0  0  0
 13 28  1  0  0  0  0
 14 15  1  0  0  0  0
 14 29  1  0  0  0  0
 14 30  1  0  0  0  0
 15 16  1  0  0  0  0
 15 31  1  0  0  0  0
 15 32  1  0  0  0  0
 16 33  1  0  0  0  0
 16 34  1  0  0  0  0
M  CHG  1   4   1
M  END
> <s_m_source_file>
AV-unprocessed.smi

> <i_m_source_file_index>
3146

> <i_lp_mmshare_version>
43012

> <i_f3d_flags>
0

> <s_epik_input>
W0NIMl0xW0NIMl1bQ0gyXVtDSDJdTjFDKD1PKVtDSDJdW05IXVtDSDJdW0NIMl1uMltjSF1bY0hdW2NIXW4y

> <s_epik_cmdline>
J2VwaWtfcHl0aG9uJywgJy1waCcsICc3LjAnLCAnLXRuJywgJzgnLCAnLW1hJywgJzIwMCcsICctbWV0YWxfYmluZGluZycsICctaW1hZScsICc8aW5maWxlLm1hZT4nLCAnLW9tYWUnLCAnPG91dGZpbGUubWFlPic=

> <r_lp_tautomer_probability>
1

> <r_epik_Ionization_Penalty>
0.203171

> <r_epik_Ionization_Penalty_Charging>
0.203168

> <r_epik_Ionization_Penalty_Neutral>
2.33614e-06

> <r_epik_State_Penalty>
0.193072

> <r_epik_Charging_Adjusted_Penalty>
0.39624

> <i_epik_Tot_Q>
1

> <i_epik_Tot_abs_Q>
1

> <r_epik_Metal_State_Penalty>
0.193553

> <b_epik_Metal_Only>
0

> <s_lp_Force_Field>
OPLS_2005

> <r_lp_Energy>
25.7734

> <b_lp_Chiralities_Consistent>
1

> <s_lp_Variant>
AV-unprocessed.smi:3146-1

> <Gold.Version>
5.8.1

> <Gold.Id.Protein>
6NUR|6NUR_protein|mol2

> <Gold.PLP.Fitness>
44.1979

> <Gold.PLP.PLP>
-45.5270

> <Gold.PLP.part.hbond>
-1.0000

> <Gold.PLP.part.metal>
0.0000

> <Gold.PLP.part.buried>
-6.9065

> <Gold.PLP.part.nonpolar>
-37.1591

> <Gold.PLP.part.repulsive>
0.0555

> <Gold.PLP.ligand.clash>
0.0000

> <Gold.PLP.ligand.torsion>
0.6770

> <Gold.PLP.Chemscore.Hbond>
0.0000

> <Gold.PLP.Chemscore.CHOScore>
0.0000

> <Gold.PLP.Chemscore.Metal>
0.0000

> <Gold.PLP.Chemscore.Internal.Correction>
0.0249

> <Gold.Rescore>
     Score         DG    S(hbond)    S(metal)    S(lipo)     H(rot)  DE(clash)    DE(int)     intcor
     10.99     -11.39       0.00        0.00      92.03       1.90       0.03       0.37       ----

> <Gold.Chemscore.Fitness>
10.9896

> <Gold.Chemscore.DG>
-11.3901

> <Gold.Chemscore.ZeroCoef>
-5.4800

> <Gold.Chemscore.Hbond>
0.0000

> <Gold.Chemscore.Metal>
0.0000

> <Gold.Chemscore.Lipo>
92.0287

> <Gold.Chemscore.Internal_Hbond>
0.0000

> <Gold.Chemscore.DEClash>
0.0309

> <Gold.Chemscore.DEInternal>
0.3697

> <Gold.Chemscore.Rot>
1.8974

> <Gold.Chemscore.Internal.Correction>
   9.000000E+99

> <Gold.Chemscore.Hbond.Weighted>
-0.0000

> <Gold.Chemscore.Metal.Weighted>
-0.0000

> <Gold.Chemscore.Lipo.Weighted>
-10.7674

> <Gold.Chemscore.Internal_Hbond.Weighted>
0.0000

> <Gold.Chemscore.DEClash.Weighted>
0.0309

> <Gold.Chemscore.DEInternal.Weighted>
0.3697

> <Gold.Chemscore.Rot.Weighted>
4.8572

> <Gold.Chemscore.Internal.Correction.Weighted>
   9.000000E+99

> <Gold.Protein.RotatedTorsions>
[ 6907 6896 6895 6894 ] final -166.73 input  -60.11 | X-H torsion
[ 7974 7965 7964 7962 ] final  122.12 input  175.53 | X-H torsion
[ 8008 7997 7996 7995 ] final   40.95 input   59.86 | X-H torsion
[ 10167 10162 10161 10158 ] final  -43.25 input  -65.29 | X-H torsion
[ 10718 10713 10712 10709 ] final  -85.47 input   66.30 | X-H torsion
[ 10763 10752 10751 10750 ] final   82.79 input  -60.55 | X-H torsion
[ 11005 11000 10999 10996 ] final   81.96 input  -57.11 | X-H torsion

> <Gold.Protein.ActiveResidues>
 VAL166  LYS551  ARG553  GLY616  TRP617  ASP618  TYR619  PRO620  LYS621  CYS622 
 ASP623  PHE694  ASN695  SER759  ASP760  ASP761  ALA762  ILE779  LEU786  VAL792 
 PHE793  MET794  SER795  GLU796  ALA797  LYS798  CYS799  TRP800  GLU811  SER814 

> <Gold.Protein.RotatedAtoms>
  151.4482  133.3624  159.2791 H   0  0  0  0  0  0  0  0  0  0  0  0  # atno 6907 bound_to 6896
  150.9109  134.8528  159.7435 H   0  0  0  0  0  0  0  0  0  0  0  0  # atno 6908 bound_to 6896
  152.4932  134.4412  159.9596 H   0  0  0  0  0  0  0  0  0  0  0  0  # atno 6909 bound_to 6896
  145.1113  139.3451  143.4761 H   0  0  0  0  0  0  0  0  0  0  0  0  # atno 7974 bound_to 7965
  155.2616  140.3359  155.4273 H   0  0  0  0  0  0  0  0  0  0  0  0  # atno 8008 bound_to 7997
  156.2172  140.1794  156.7604 H   0  0  0  0  0  0  0  0  0  0  0  0  # atno 8009 bound_to 7997
  154.5771  140.0660  156.9035 H   0  0  0  0  0  0  0  0  0  0  0  0  # atno 8010 bound_to 7997
  140.6940  143.2993  151.3325 H   0  0  0  0  0  0  0  0  0  0  0  0  # atno 10167 bound_to 10162
  155.9996  130.4732  150.4568 H   0  0  0  0  0  0  0  0  0  0  0  0  # atno 10718 bound_to 10713
  153.1233  135.4715  154.9231 H   0  0  0  0  0  0  0  0  0  0  0  0  # atno 10763 bound_to 10752
  154.7596  135.3128  154.8406 H   0  0  0  0  0  0  0  0  0  0  0  0  # atno 10764 bound_to 10752
  153.8965  135.6879  153.4811 H   0  0  0  0  0  0  0  0  0  0  0  0  # atno 10765 bound_to 10752
  139.9080  134.8036  156.2111 H   0  0  0  0  0  0  0  0  0  0  0  0  # atno 11005 bound_to 11000
  146.3526  140.1033  142.8607 LP  0  0  0  0  0  0  0  0  0  0  0  0  # atno 17320 bound_to 7965
  145.0843  140.9242  143.4806 LP  0  0  0  0  0  0  0  0  0  0  0  0  # atno 17321 bound_to 7965
  139.6374  144.0603  152.2527 LP  0  0  0  0  0  0  0  0  0  0  0  0  # atno 17342 bound_to 10162
  140.0098  144.6232  150.7657 LP  0  0  0  0  0  0  0  0  0  0  0  0  # atno 17343 bound_to 10162
  157.2596  131.0564  151.2329 LP  0  0  0  0  0  0  0  0  0  0  0  0  # atno 17370 bound_to 10713
  157.3448  130.7052  149.6404 LP  0  0  0  0  0  0  0  0  0  0  0  0  # atno 17371 bound_to 10713
  141.0465  133.6910  156.1693 LP  0  0  0  0  0  0  0  0  0  0  0  0  # atno 17394 bound_to 11000
  140.6876  134.4700  157.5589 LP  0  0  0  0  0  0  0  0  0  0  0  0  # atno 17395 bound_to 11000

$$$$
