AV-unprocessed.smi:34|AV-procd|sdf|234|dock3
  -GOLD-   2262015573D 1   1.00000     0.00000
 Structure written by MMmdl.
 54 58  0  0  0  0  0  0  0  0  2 V2000
  146.5514  133.7648  154.2822 O   0  0  0  0  0  0  0  0  0  0  0  0
  145.6047  134.2500  153.6586 C   0  0  0  0  0  0  0  0  0  0  0  0
  145.0263  135.4650  153.8350 N   0  5  0  0  0  0  0  0  0  0  0  0
  145.7889  136.5686  153.8606 C   0  0  0  0  0  0  0  0  0  0  0  0
  145.4678  137.6450  153.0975 N   0  0  0  0  0  0  0  0  0  0  0  0
  146.2316  138.7440  153.1218 C   0  0  0  0  0  0  0  0  0  0  0  0
  147.3415  138.9813  153.8284 N   0  0  0  0  0  0  0  0  0  0  0  0
  147.6650  137.9096  154.6086 C   0  0  0  0  0  0  0  0  0  0  0  0
  146.9446  136.6829  154.6809 C   0  0  0  0  0  0  0  0  0  0  0  0
  147.5509  135.8105  155.5732 N   0  0  0  0  0  0  0  0  0  0  0  0
  148.5925  136.5294  155.9885 C   0  0  0  0  0  0  0  0  0  0  0  0
  148.7366  137.7676  155.4705 N   0  0  0  0  0  0  0  0  0  0  0  0
  149.7983  138.7911  155.7333 C   0  0  1  0  0  0  0  0  0  0  0  0
  149.9321  138.9467  157.1172 O   0  0  0  0  0  0  0  0  0  0  0  0
  151.1327  138.3204  157.5564 C   0  0  2  0  0  0  0  0  0  0  0  0
  151.5921  138.9269  158.8858 C   0  0  0  0  0  0  0  0  0  0  0  0
  151.9810  140.2733  158.6697 O   0  0  0  0  0  0  0  0  0  0  0  0
  152.6254  140.9531  159.6375 C   0  0  0  0  0  0  0  0  0  0  0  0
  153.2797  140.4121  160.5313 O   0  0  0  0  0  0  0  0  0  0  0  0
  152.4653  142.4309  159.5140 C   0  0  0  0  0  0  0  0  0  0  0  0
  152.3686  143.0119  158.2279 C   0  0  0  0  0  0  0  0  0  0  0  0
  152.2174  144.4043  158.0792 C   0  0  0  0  0  0  0  0  0  0  0  0
  152.1608  145.2327  159.2149 C   0  0  0  0  0  0  0  0  0  0  0  0
  152.2551  144.6671  160.4999 C   0  0  0  0  0  0  0  0  0  0  0  0
  152.4061  143.2746  160.6508 C   0  0  0  0  0  0  0  0  0  0  0  0
  152.0687  138.6181  156.3906 C   0  0  1  0  0  0  0  0  0  0  0  0
  153.1867  137.8901  156.3927 F   0  0  0  0  0  0  0  0  0  0  0  0
  151.1807  138.3648  155.1830 C   0  0  1  0  0  0  0  0  0  0  0  0
  151.2435  137.0068  154.7764 O   0  0  0  0  0  0  0  0  0  0  0  0
  145.0173  133.4717  152.5119 C   0  0  0  0  0  0  0  0  0  0  0  0
  144.1942  134.1280  151.5685 C   0  0  0  0  0  0  0  0  0  0  0  0
  143.6593  133.4243  150.4719 C   0  0  0  0  0  0  0  0  0  0  0  0
  143.9500  132.0577  150.3015 C   0  0  0  0  0  0  0  0  0  0  0  0
  144.7787  131.3961  151.2269 C   0  0  0  0  0  0  0  0  0  0  0  0
  145.3136  132.0992  152.3240 C   0  0  0  0  0  0  0  0  0  0  0  0
  145.9058  139.5503  152.4814 H   0  0  0  0  0  0  0  0  0  0  0  0
  149.2905  136.1283  156.7084 H   0  0  0  0  0  0  0  0  0  0  0  0
  149.4140  139.7113  155.2915 H   0  0  0  0  0  0  0  0  0  0  0  0
  150.9818  137.2434  157.6494 H   0  0  0  0  0  0  0  0  0  0  0  0
  150.7742  138.9091  159.6073 H   0  0  0  0  0  0  0  0  0  0  0  0
  152.4150  138.3453  159.3040 H   0  0  0  0  0  0  0  0  0  0  0  0
  152.4095  142.3963  157.3408 H   0  0  0  0  0  0  0  0  0  0  0  0
  152.1447  144.8363  157.0921 H   0  0  0  0  0  0  0  0  0  0  0  0
  152.0451  146.3004  159.1006 H   0  0  0  0  0  0  0  0  0  0  0  0
  152.2113  145.3023  161.3723 H   0  0  0  0  0  0  0  0  0  0  0  0
  152.4747  142.8731  161.6513 H   0  0  0  0  0  0  0  0  0  0  0  0
  152.3696  139.6667  156.4131 H   0  0  0  0  0  0  0  0  0  0  0  0
  151.4551  138.9988  154.3393 H   0  0  0  0  0  0  0  0  0  0  0  0
  151.4823  136.4802  155.5240 H   0  0  0  0  0  0  0  0  0  0  0  0
  143.9651  135.1778  151.6827 H   0  0  0  0  0  0  0  0  0  0  0  0
  143.0281  133.9349  149.7600 H   0  0  0  0  0  0  0  0  0  0  0  0
  143.5414  131.5184  149.4597 H   0  0  0  0  0  0  0  0  0  0  0  0
  145.0092  130.3494  151.0942 H   0  0  0  0  0  0  0  0  0  0  0  0
  145.9571  131.5758  153.0162 H   0  0  0  0  0  0  0  0  0  0  0  0
  1  2  2  0  0  0  0
  2  3  1  0  0  0  0
  2 30  1  0  0  0  0
  3  4  1  0  0  0  0
  4  9  1  0  0  0  0
  4  5  2  0  0  0  0
  5  6  1  0  0  0  0
  6  7  2  0  0  0  0
  6 36  1  0  0  0  0
  7  8  1  0  0  0  0
  8 12  1  0  0  0  0
  8  9  2  0  0  0  0
  9 10  1  0  0  0  0
 10 11  2  0  0  0  0
 11 12  1  0  0  0  0
 11 37  1  0  0  0  0
 12 13  1  0  0  0  0
 13 28  1  0  0  0  0
 13 14  1  0  0  0  0
 13 38  1  0  0  0  0
 14 15  1  0  0  0  0
 15 16  1  0  0  0  0
 15 26  1  0  0  0  0
 15 39  1  0  0  0  0
 16 17  1  0  0  0  0
 16 40  1  0  0  0  0
 16 41  1  0  0  0  0
 17 18  1  0  0  0  0
 18 19  2  0  0  0  0
 18 20  1  0  0  0  0
 20 25  1  0  0  0  0
 20 21  2  0  0  0  0
 21 22  1  0  0  0  0
 21 42  1  0  0  0  0
 22 23  2  0  0  0  0
 22 43  1  0  0  0  0
 23 24  1  0  0  0  0
 23 44  1  0  0  0  0
 24 25  2  0  0  0  0
 24 45  1  0  0  0  0
 25 46  1  0  0  0  0
 26 27  1  0  0  0  0
 26 28  1  0  0  0  0
 26 47  1  0  0  0  0
 28 29  1  0  0  0  0
 28 48  1  0  0  0  0
 29 49  1  0  0  0  0
 30 35  1  0  0  0  0
 30 31  2  0  0  0  0
 31 32  1  0  0  0  0
 31 50  1  0  0  0  0
 32 33  2  0  0  0  0
 32 51  1  0  0  0  0
 33 34  1  0  0  0  0
 33 52  1  0  0  0  0
 34 35  2  0  0  0  0
 34 53  1  0  0  0  0
 35 54  1  0  0  0  0
M  CHG  1   3  -1
M  END
> <s_m_source_file>
AV-unprocessed.smi

> <i_m_source_file_index>
34

> <i_lp_mmshare_version>
43012

> <i_f3d_flags>
0

> <s_epik_input>
W2NIXTFbY0hdW2NIXVtjSF1bY0hdYzFDKD1PKVtOSF1jKG5bY0hdbjIpYyhjMjMpbltjSF1uM1tDQEBIXTRPW0NASF0oW0NAQEhdKEYpW0NASF00W09IXSlbQ0gyXU9DKD1PKWM1W2NIXVtjSF1bY0hdW2NIXVtjSF01

> <s_epik_cmdline>
J2VwaWtfcHl0aG9uJywgJy1waCcsICc3LjAnLCAnLXRuJywgJzgnLCAnLW1hJywgJzIwMCcsICctbWV0YWxfYmluZGluZycsICctaW1hZScsICc8aW5maWxlLm1hZT4nLCAnLW9tYWUnLCAnPG91dGZpbGUubWFlPic=

> <r_lp_tautomer_probability>
1

> <r_epik_Ionization_Penalty>
4.33227

> <r_epik_Ionization_Penalty_Charging>
3.41027

> <r_epik_Ionization_Penalty_Neutral>
0.922001

> <r_epik_State_Penalty>
3.41358

> <r_epik_Charging_Adjusted_Penalty>
6.82385

> <i_epik_Tot_Q>
-1

> <i_epik_Tot_abs_Q>
1

> <r_epik_Metal_State_Penalty>
0.496292

> <b_epik_Metal_Only>
1

> <s_epik_Chemistry_Notes>
This compound has an ester and may undergo hydrolysis at high or low pH. This compound contains an acetal/aminal-like group ( X-CH(R)-Y where X, Y are N, S, or O) that may be acid/base labile, releasing an aldehyde.

> <s_lp_Force_Field>
OPLS_2005

> <r_lp_Energy>
50.8657

> <b_lp_Chiralities_Consistent>
1

> <s_lp_Variant>
AV-unprocessed.smi:34-20

> <Gold.Version>
5.8.1

> <Gold.Id.Protein>
6NUR|6NUR_protein|mol2

> <Gold.PLP.Fitness>
52.2281

> <Gold.PLP.PLP>
-54.0614

> <Gold.PLP.part.hbond>
-0.8280

> <Gold.PLP.part.metal>
0.0000

> <Gold.PLP.part.buried>
-4.3654

> <Gold.PLP.part.nonpolar>
-50.7224

> <Gold.PLP.part.repulsive>
0.6360

> <Gold.PLP.ligand.clash>
1.5280

> <Gold.PLP.ligand.torsion>
2.0571

> <Gold.PLP.Chemscore.Hbond>
0.0000

> <Gold.PLP.Chemscore.CHOScore>
1.0000

> <Gold.PLP.Chemscore.Metal>
0.0000

> <Gold.Chemscore.Hbonds>
donor molecule, donor type, donor heavy atom, donor atom, acceptor molecule, acceptor atom, score
      L1  C     6    36       P1 10175  0.90

> <Gold.PLP.Chemscore.Internal.Correction>
0.8089

> <Gold.Rescore>
     Score         DG    S(hbond)    S(metal)    S(lipo)     H(rot)  DE(clash)    DE(int)     intcor
      8.89     -15.68       0.00        0.00     146.10       2.69       0.82       5.97       ----

> <Gold.Chemscore.Fitness>
8.8854

> <Gold.Chemscore.DG>
-15.6759

> <Gold.Chemscore.ZeroCoef>
-5.4800

> <Gold.Chemscore.Hbond>
0.0000

> <Gold.Chemscore.Metal>
0.0000

> <Gold.Chemscore.Lipo>
146.0978

> <Gold.Chemscore.Internal_Hbond>
0.0000

> <Gold.Chemscore.DEClash>
0.8228

> <Gold.Chemscore.DEInternal>
5.9676

> <Gold.Chemscore.Rot>
2.6944

> <Gold.Chemscore.Internal.Correction>
   9.000000E+99

> <Gold.Chemscore.Hbond.Weighted>
-0.0000

> <Gold.Chemscore.Metal.Weighted>
-0.0000

> <Gold.Chemscore.Lipo.Weighted>
-17.0934

> <Gold.Chemscore.Internal_Hbond.Weighted>
0.0000

> <Gold.Chemscore.DEClash.Weighted>
0.8228

> <Gold.Chemscore.DEInternal.Weighted>
5.9676

> <Gold.Chemscore.Rot.Weighted>
6.8975

> <Gold.Chemscore.Internal.Correction.Weighted>
   9.000000E+99

> <Gold.Protein.RotatedTorsions>
[ 6907 6896 6895 6894 ] final -148.78 input  -60.11 | X-H torsion
[ 7974 7965 7964 7962 ] final -169.22 input  175.53 | X-H torsion
[ 8008 7997 7996 7995 ] final -127.98 input   59.86 | X-H torsion
[ 10167 10162 10161 10158 ] final  146.06 input  -65.29 | X-H torsion
[ 10718 10713 10712 10709 ] final  -15.36 input   66.30 | X-H torsion
[ 10763 10752 10751 10750 ] final -123.64 input  -60.55 | X-H torsion
[ 11005 11000 10999 10996 ] final  -14.63 input  -57.11 | X-H torsion

> <Gold.Protein.ActiveResidues>
 VAL166  LYS551  ARG553  GLY616  TRP617  ASP618  TYR619  PRO620  LYS621  CYS622 
 ASP623  PHE694  ASN695  SER759  ASP760  ASP761  ALA762  ILE779  LEU786  VAL792 
 PHE793  MET794  SER795  GLU796  ALA797  LYS798  CYS799  TRP800  GLU811  SER814 

> <Gold.Protein.RotatedAtoms>
  151.1747  133.4762  159.2593 H   0  0  0  0  0  0  0  0  0  0  0  0  # atno 6907 bound_to 6896
  151.1320  135.0135  159.8596 H   0  0  0  0  0  0  0  0  0  0  0  0  # atno 6908 bound_to 6896
  152.5460  134.1649  159.8626 H   0  0  0  0  0  0  0  0  0  0  0  0  # atno 6909 bound_to 6896
  144.7189  140.2253  143.6311 H   0  0  0  0  0  0  0  0  0  0  0  0  # atno 7974 bound_to 7965
  155.2552  140.0434  157.2991 H   0  0  0  0  0  0  0  0  0  0  0  0  # atno 8008 bound_to 7997
  154.5744  140.2383  155.8113 H   0  0  0  0  0  0  0  0  0  0  0  0  # atno 8009 bound_to 7997
  156.2147  140.2988  155.9820 H   0  0  0  0  0  0  0  0  0  0  0  0  # atno 8010 bound_to 7997
  139.4914  144.5857  151.6783 H   0  0  0  0  0  0  0  0  0  0  0  0  # atno 10167 bound_to 10162
  156.6029  130.4829  149.6232 H   0  0  0  0  0  0  0  0  0  0  0  0  # atno 10718 bound_to 10713
  154.8711  135.4091  154.2977 H   0  0  0  0  0  0  0  0  0  0  0  0  # atno 10763 bound_to 10752
  153.3842  135.7012  153.6548 H   0  0  0  0  0  0  0  0  0  0  0  0  # atno 10764 bound_to 10752
  153.5358  135.3658  155.2668 H   0  0  0  0  0  0  0  0  0  0  0  0  # atno 10765 bound_to 10752
  140.7884  133.8307  155.9356 H   0  0  0  0  0  0  0  0  0  0  0  0  # atno 11005 bound_to 11000
  145.8462  139.2153  143.1799 LP  0  0  0  0  0  0  0  0  0  0  0  0  # atno 17320 bound_to 7965
  146.0302  140.8265  142.9880 LP  0  0  0  0  0  0  0  0  0  0  0  0  # atno 17321 bound_to 7965
  140.5472  144.0484  150.6112 LP  0  0  0  0  0  0  0  0  0  0  0  0  # atno 17342 bound_to 10162
  140.3526  143.2954  152.0471 LP  0  0  0  0  0  0  0  0  0  0  0  0  # atno 17343 bound_to 10162
  156.2454  130.6876  151.1595 LP  0  0  0  0  0  0  0  0  0  0  0  0  # atno 17370 bound_to 10713
  157.7275  131.0639  150.5864 LP  0  0  0  0  0  0  0  0  0  0  0  0  # atno 17371 bound_to 10713
  140.9414  134.1896  157.4795 LP  0  0  0  0  0  0  0  0  0  0  0  0  # atno 17394 bound_to 11000
  139.8734  134.9873  156.5363 LP  0  0  0  0  0  0  0  0  0  0  0  0  # atno 17395 bound_to 11000

$$$$
