AV-unprocessed.smi:1768|AV-procd|sdf|7146|dock4
  -GOLD-   22720 8383D 1   1.00000     0.00000
 Structure written by MMmdl.
 33 34  0  0  0  0  0  0  0  0  1 V2000
  151.6300  131.5460  157.3537 C   0  0  0  0  0  0  0  0  0  0  0  0
  150.7811  132.5470  156.6472 C   0  0  0  0  0  0  0  0  0  0  0  0
  150.4308  133.7178  157.1937 N   0  0  0  0  0  0  0  0  0  0  0  0
  149.6365  134.4775  156.3461 N   0  0  0  0  0  0  0  0  0  0  0  0
  149.4107  133.8543  155.1813 C   0  0  0  0  0  0  0  0  0  0  0  0
  148.6308  134.4032  154.1295 N   0  0  0  0  0  0  0  0  0  0  0  0
  147.3456  134.1512  153.8253 C   0  0  0  0  0  0  0  0  0  0  0  0
  146.6171  133.3571  154.4203 O   0  0  0  0  0  0  0  0  0  0  0  0
  146.9482  134.8813  152.7729 N   0  0  0  0  0  0  0  0  0  0  0  0
  145.6149  134.8688  152.1726 C   0  0  1  0  0  0  0  0  0  0  0  0
  145.2868  136.2797  151.6627 C   0  0  0  0  0  0  0  0  0  0  0  0
  145.5493  133.8173  151.0470 C   0  0  1  0  0  0  0  0  0  0  0  0
  145.8394  132.3813  151.4926 C   0  0  0  0  0  0  0  0  0  0  0  0
  145.1122  131.5796  150.4383 C   0  0  0  0  0  0  0  0  0  0  0  0
  143.8554  132.4176  150.2302 C   0  0  0  0  0  0  0  0  0  0  0  0
  144.2394  133.7663  150.4836 O   0  0  0  0  0  0  0  0  0  0  0  0
  150.1600  132.2748  155.0242 S   0  0  0  0  0  0  0  0  0  0  0  0
  151.9136  131.9090  158.3422 H   0  0  0  0  0  0  0  0  0  0  0  0
  152.5361  131.3541  156.7790 H   0  0  0  0  0  0  0  0  0  0  0  0
  151.0829  130.6103  157.4693 H   0  0  0  0  0  0  0  0  0  0  0  0
  149.1064  135.0736  153.5439 H   0  0  0  0  0  0  0  0  0  0  0  0
  147.6228  135.5018  152.3501 H   0  0  0  0  0  0  0  0  0  0  0  0
  144.8665  134.6076  152.9227 H   0  0  0  0  0  0  0  0  0  0  0  0
  144.2844  136.3221  151.2363 H   0  0  0  0  0  0  0  0  0  0  0  0
  145.9894  136.5978  150.8919 H   0  0  0  0  0  0  0  0  0  0  0  0
  145.3282  137.0084  152.4729 H   0  0  0  0  0  0  0  0  0  0  0  0
  146.2407  134.0825  150.2451 H   0  0  0  0  0  0  0  0  0  0  0  0
  146.9052  132.1562  151.5399 H   0  0  0  0  0  0  0  0  0  0  0  0
  145.4049  132.1856  152.4742 H   0  0  0  0  0  0  0  0  0  0  0  0
  145.7010  131.5471  149.5205 H   0  0  0  0  0  0  0  0  0  0  0  0
  144.8971  130.5559  150.7461 H   0  0  0  0  0  0  0  0  0  0  0  0
  143.4382  132.3027  149.2295 H   0  0  0  0  0  0  0  0  0  0  0  0
  143.0874  132.1374  150.9521 H   0  0  0  0  0  0  0  0  0  0  0  0
  1  2  1  0  0  0  0
  1 18  1  0  0  0  0
  1 19  1  0  0  0  0
  1 20  1  0  0  0  0
  2 17  1  0  0  0  0
  2  3  2  0  0  0  0
  3  4  1  0  0  0  0
  4  5  2  0  0  0  0
  5  6  1  0  0  0  0
  5 17  1  0  0  0  0
  6  7  1  0  0  0  0
  6 21  1  0  0  0  0
  7  8  2  0  0  0  0
  7  9  1  0  0  0  0
  9 10  1  0  0  0  0
  9 22  1  0  0  0  0
 10 11  1  0  0  0  0
 10 12  1  0  0  0  0
 10 23  1  0  0  0  0
 11 24  1  0  0  0  0
 11 25  1  0  0  0  0
 11 26  1  0  0  0  0
 12 16  1  0  0  0  0
 12 13  1  0  0  0  0
 12 27  1  0  0  0  0
 13 14  1  0  0  0  0
 13 28  1  0  0  0  0
 13 29  1  0  0  0  0
 14 15  1  0  0  0  0
 14 30  1  0  0  0  0
 14 31  1  0  0  0  0
 15 16  1  0  0  0  0
 15 32  1  0  0  0  0
 15 33  1  0  0  0  0
M  END
> <s_m_source_file>
AV-unprocessed.smi

> <i_m_source_file_index>
1768

> <i_lp_mmshare_version>
43012

> <i_f3d_flags>
0

> <s_epik_input>
W0NIM11jMW5uYyhzMSlbTkhdQyg9TylbTkhdW0NASF0oW0NIM10pW0NAQEhdMltDSDJdW0NIMl1bQ0gyXU8y

> <s_epik_cmdline>
J2VwaWtfcHl0aG9uJywgJy1waCcsICc3LjAnLCAnLXRuJywgJzgnLCAnLW1hJywgJzIwMCcsICctbWV0YWxfYmluZGluZycsICctaW1hZScsICc8aW5maWxlLm1hZT4nLCAnLW9tYWUnLCAnPG91dGZpbGUubWFlPic=

> <r_lp_tautomer_probability>
1

> <r_epik_Ionization_Penalty>
0.000523083

> <r_epik_Ionization_Penalty_Charging>
0

> <r_epik_Ionization_Penalty_Neutral>
0.000523083

> <r_epik_State_Penalty>
-0

> <r_epik_Charging_Adjusted_Penalty>
0

> <i_epik_Tot_Q>
0

> <i_epik_Tot_abs_Q>
0

> <r_epik_Metal_State_Penalty>
0.223408

> <b_epik_Metal_Only>
0

> <s_lp_Force_Field>
OPLS_2005

> <r_lp_Energy>
16.9545

> <b_lp_Chiralities_Consistent>
1

> <s_lp_Variant>
AV-unprocessed.smi:1768-4

> <Gold.Version>
5.8.1

> <Gold.Id.Protein>
6NUR|6NUR_protein|mol2

> <Gold.PLP.Fitness>
32.4658

> <Gold.PLP.PLP>
-26.7711

> <Gold.PLP.part.hbond>
-3.0000

> <Gold.PLP.part.metal>
0.0000

> <Gold.PLP.part.buried>
-4.7396

> <Gold.PLP.part.nonpolar>
-20.2053

> <Gold.PLP.part.repulsive>
0.2350

> <Gold.PLP.ligand.clash>
0.0000

> <Gold.PLP.ligand.torsion>
1.1006

> <Gold.PLP.Chemscore.Hbond>
2.6286

> <Gold.PLP.Chemscore.CHOScore>
0.0000

> <Gold.PLP.Chemscore.Metal>
0.0000

> <Gold.Chemscore.Hbonds>
donor molecule, donor type, donor heavy atom, donor atom, acceptor molecule, acceptor atom, score
      L1  H     6    21       P1  7948  0.91
      L1  H     9    22       P1  7948  1.00
      P1  H  6896  6909       L1     3  0.74

> <Gold.PLP.Chemscore.Internal.Correction>
0.0103

> <Gold.Rescore>
     Score         DG    S(hbond)    S(metal)    S(lipo)     H(rot)  DE(clash)    DE(int)     intcor
     15.41     -16.51       2.25        0.00      58.34       1.29       0.00       1.11       ----

> <Gold.Chemscore.Fitness>
15.4054

> <Gold.Chemscore.DG>
-16.5146

> <Gold.Chemscore.ZeroCoef>
-5.4800

> <Gold.Chemscore.Hbond>
2.2502

> <Gold.Chemscore.Metal>
0.0000

> <Gold.Chemscore.Lipo>
58.3427

> <Gold.Chemscore.Internal_Hbond>
0.0000

> <Gold.Chemscore.DEClash>
0.0000

> <Gold.Chemscore.DEInternal>
1.1093

> <Gold.Chemscore.Rot>
1.2919

> <Gold.Chemscore.Internal.Correction>
   9.000000E+99

> <Gold.Chemscore.Hbonds>
donor molecule, donor type, donor heavy atom, donor atom, acceptor molecule, acceptor atom, score
      L1  H     6    21       P1  7948  0.25
      L1  H     9    22       P1  7948  0.97
      P1  H  6896  6909       L1     3  0.53

> <Gold.Chemscore.Hbond.Weighted>
-7.5157

> <Gold.Chemscore.Metal.Weighted>
-0.0000

> <Gold.Chemscore.Lipo.Weighted>
-6.8261

> <Gold.Chemscore.Internal_Hbond.Weighted>
0.0000

> <Gold.Chemscore.DEClash.Weighted>
0.0000

> <Gold.Chemscore.DEInternal.Weighted>
1.1093

> <Gold.Chemscore.Rot.Weighted>
3.3072

> <Gold.Chemscore.Internal.Correction.Weighted>
   9.000000E+99

> <Gold.Protein.RotatedTorsions>
[ 6907 6896 6895 6894 ] final   -6.04 input  -60.11 | X-H torsion
[ 7974 7965 7964 7962 ] final   94.89 input  175.53 | X-H torsion
[ 8008 7997 7996 7995 ] final   -2.94 input   59.86 | X-H torsion
[ 10167 10162 10161 10158 ] final    0.29 input  -65.29 | X-H torsion
[ 10718 10713 10712 10709 ] final   78.27 input   66.30 | X-H torsion
[ 10763 10752 10751 10750 ] final -137.45 input  -60.55 | X-H torsion
[ 11005 11000 10999 10996 ] final  -14.68 input  -57.11 | X-H torsion

> <Gold.Protein.ActiveResidues>
 VAL166  LYS551  ARG553  GLY616  TRP617  ASP618  TYR619  PRO620  LYS621  CYS622 
 ASP623  PHE694  ASN695  SER759  ASP760  ASP761  ALA762  ILE779  LEU786  VAL792 
 PHE793  MET794  SER795  GLU796  ALA797  LYS798  CYS799  TRP800  GLU811  SER814 

> <Gold.Protein.RotatedAtoms>
  151.4720  135.1046  159.9753 H   0  0  0  0  0  0  0  0  0  0  0  0  # atno 6907 bound_to 6896
  152.4813  133.8257  159.7087 H   0  0  0  0  0  0  0  0  0  0  0  0  # atno 6908 bound_to 6896
  150.8887  133.7212  159.2937 H   0  0  0  0  0  0  0  0  0  0  0  0  # atno 6909 bound_to 6896
  145.4594  139.2288  143.2995 H   0  0  0  0  0  0  0  0  0  0  0  0  # atno 7974 bound_to 7965
  154.6303  140.2522  155.7442 H   0  0  0  0  0  0  0  0  0  0  0  0  # atno 8008 bound_to 7997
  156.2476  140.2908  156.0572 H   0  0  0  0  0  0  0  0  0  0  0  0  # atno 8009 bound_to 7997
  155.1755  140.0387  157.2862 H   0  0  0  0  0  0  0  0  0  0  0  0  # atno 8010 bound_to 7997
  140.6735  143.6982  150.7973 H   0  0  0  0  0  0  0  0  0  0  0  0  # atno 10167 bound_to 10162
  157.6739  130.9860  150.1762 H   0  0  0  0  0  0  0  0  0  0  0  0  # atno 10718 bound_to 10713
  154.8661  135.3642  154.5225 H   0  0  0  0  0  0  0  0  0  0  0  0  # atno 10763 bound_to 10752
  153.5855  135.7017  153.5450 H   0  0  0  0  0  0  0  0  0  0  0  0  # atno 10764 bound_to 10752
  153.3420  135.4095  155.1541 H   0  0  0  0  0  0  0  0  0  0  0  0  # atno 10765 bound_to 10752
  140.7889  133.8303  155.9361 H   0  0  0  0  0  0  0  0  0  0  0  0  # atno 11005 bound_to 11000
  146.2459  140.5362  142.8914 LP  0  0  0  0  0  0  0  0  0  0  0  0  # atno 17320 bound_to 7965
  144.8012  140.6216  143.6477 LP  0  0  0  0  0  0  0  0  0  0  0  0  # atno 17321 bound_to 7965
  140.0671  143.5097  152.2598 LP  0  0  0  0  0  0  0  0  0  0  0  0  # atno 17342 bound_to 10162
  139.6015  144.7584  151.3160 LP  0  0  0  0  0  0  0  0  0  0  0  0  # atno 17343 bound_to 10162
  156.2505  130.3700  149.8238 LP  0  0  0  0  0  0  0  0  0  0  0  0  # atno 17370 bound_to 10713
  156.6012  130.8547  151.3432 LP  0  0  0  0  0  0  0  0  0  0  0  0  # atno 17371 bound_to 10713
  140.9409  134.1902  157.4798 LP  0  0  0  0  0  0  0  0  0  0  0  0  # atno 17394 bound_to 11000
  139.8733  134.9871  156.5354 LP  0  0  0  0  0  0  0  0  0  0  0  0  # atno 17395 bound_to 11000

$$$$
