AV-unprocessed.smi:2204|AV-procd|sdf|8938|dock5
  -GOLD-   2272012153D 1   1.00000     0.00000
 Structure written by MMmdl.
 39 40  0  0  0  0  0  0  0  0  1 V2000
  147.6161  141.2129  154.4110 C   0  0  0  0  0  0  0  0  0  0  0  0
  148.8430  140.6312  155.0489 C   0  0  0  0  0  0  0  0  0  0  0  0
  149.9056  139.9177  154.4279 C   0  0  0  0  0  0  0  0  0  0  0  0
  150.7564  139.6179  155.4542 C   0  0  0  0  0  0  0  0  0  0  0  0
  152.0550  138.8800  155.4416 C   0  0  0  0  0  0  0  0  0  0  0  0
  150.1943  140.1389  156.6070 N   0  0  0  0  0  0  0  0  0  0  0  0
  150.6885  140.0919  157.9767 C   0  0  0  0  0  0  0  0  0  0  0  0
  151.9418  140.9513  158.1744 C   0  0  0  0  0  0  0  0  0  0  0  0
  153.0377  140.4086  158.3125 O   0  0  0  0  0  0  0  0  0  0  0  0
  151.7666  142.2830  158.2080 N   0  0  0  0  0  0  0  0  0  0  0  0
  152.8143  143.2815  158.4002 C   0  0  1  0  0  0  0  0  0  0  0  0
  152.3286  144.6134  157.8076 C   0  0  0  0  0  0  0  0  0  0  0  0
  153.1607  143.3935  159.8998 C   0  0  2  0  0  0  0  0  0  0  0  0
  153.2779  142.0509  160.6264 C   0  0  0  0  0  0  0  0  0  0  0  0
  152.9377  142.4324  162.0485 C   0  0  0  0  0  0  0  0  0  0  0  0
  151.8223  143.4463  161.8273 C   0  0  0  0  0  0  0  0  0  0  0  0
  152.1388  144.1016  160.6030 O   0  0  0  0  0  0  0  0  0  0  0  0
  149.0219  140.7603  156.3529 N   0  0  0  0  0  0  0  0  0  0  0  0
  147.6758  141.1630  153.3237 H   0  0  0  0  0  0  0  0  0  0  0  0
  147.4861  142.2594  154.6877 H   0  0  0  0  0  0  0  0  0  0  0  0
  146.7213  140.6719  154.7191 H   0  0  0  0  0  0  0  0  0  0  0  0
  150.0254  139.6643  153.3849 H   0  0  0  0  0  0  0  0  0  0  0  0
  152.2883  138.5196  154.4397 H   0  0  0  0  0  0  0  0  0  0  0  0
  152.0209  138.0176  156.1071 H   0  0  0  0  0  0  0  0  0  0  0  0
  152.8720  139.5259  155.7631 H   0  0  0  0  0  0  0  0  0  0  0  0
  149.9072  140.4302  158.6574 H   0  0  0  0  0  0  0  0  0  0  0  0
  150.9050  139.0546  158.2377 H   0  0  0  0  0  0  0  0  0  0  0  0
  150.8276  142.6333  158.0875 H   0  0  0  0  0  0  0  0  0  0  0  0
  153.7118  142.9849  157.8545 H   0  0  0  0  0  0  0  0  0  0  0  0
  153.0975  145.3832  157.8726 H   0  0  0  0  0  0  0  0  0  0  0  0
  151.4436  144.9813  158.3278 H   0  0  0  0  0  0  0  0  0  0  0  0
  152.0719  144.5012  156.7535 H   0  0  0  0  0  0  0  0  0  0  0  0
  154.0906  143.9498  160.0308 H   0  0  0  0  0  0  0  0  0  0  0  0
  152.5402  141.3418  160.2475 H   0  0  0  0  0  0  0  0  0  0  0  0
  154.2663  141.5999  160.5313 H   0  0  0  0  0  0  0  0  0  0  0  0
  152.6293  141.5846  162.6606 H   0  0  0  0  0  0  0  0  0  0  0  0
  153.7944  142.9096  162.5260 H   0  0  0  0  0  0  0  0  0  0  0  0
  150.8646  142.9378  161.7094 H   0  0  0  0  0  0  0  0  0  0  0  0
  151.7308  144.1555  162.6502 H   0  0  0  0  0  0  0  0  0  0  0  0
  1  2  1  0  0  0  0
  1 19  1  0  0  0  0
  1 20  1  0  0  0  0
  1 21  1  0  0  0  0
  2 18  2  0  0  0  0
  2  3  1  0  0  0  0
  3  4  2  0  0  0  0
  3 22  1  0  0  0  0
  4  5  1  0  0  0  0
  4  6  1  0  0  0  0
  5 23  1  0  0  0  0
  5 24  1  0  0  0  0
  5 25  1  0  0  0  0
  6  7  1  0  0  0  0
  6 18  1  0  0  0  0
  7  8  1  0  0  0  0
  7 26  1  0  0  0  0
  7 27  1  0  0  0  0
  8  9  2  0  0  0  0
  8 10  1  0  0  0  0
 10 11  1  0  0  0  0
 10 28  1  0  0  0  0
 11 12  1  0  0  0  0
 11 13  1  0  0  0  0
 11 29  1  0  0  0  0
 12 30  1  0  0  0  0
 12 31  1  0  0  0  0
 12 32  1  0  0  0  0
 13 17  1  0  0  0  0
 13 14  1  0  0  0  0
 13 33  1  0  0  0  0
 14 15  1  0  0  0  0
 14 34  1  0  0  0  0
 14 35  1  0  0  0  0
 15 16  1  0  0  0  0
 15 36  1  0  0  0  0
 15 37  1  0  0  0  0
 16 17  1  0  0  0  0
 16 38  1  0  0  0  0
 16 39  1  0  0  0  0
M  END
> <s_m_source_file>
AV-unprocessed.smi

> <i_m_source_file_index>
2204

> <i_lp_mmshare_version>
43012

> <i_f3d_flags>
0

> <s_epik_input>
W0NIM11jMVtjSF1jKFtDSDNdKW4objEpW0NIMl1DKD1PKVtOSF1bQ0BIXShbQ0gzXSlbQ0BASF0yW0NIMl1bQ0gyXVtDSDJdTzI=

> <s_epik_cmdline>
J2VwaWtfcHl0aG9uJywgJy1waCcsICc3LjAnLCAnLXRuJywgJzgnLCAnLW1hJywgJzIwMCcsICctbWV0YWxfYmluZGluZycsICctaW1hZScsICc8aW5maWxlLm1hZT4nLCAnLW9tYWUnLCAnPG91dGZpbGUubWFlPic=

> <r_lp_tautomer_probability>
1

> <r_epik_Ionization_Penalty>
0.000433354

> <r_epik_Ionization_Penalty_Charging>
0

> <r_epik_Ionization_Penalty_Neutral>
0.000433354

> <r_epik_State_Penalty>
-0

> <r_epik_Charging_Adjusted_Penalty>
0

> <i_epik_Tot_Q>
0

> <i_epik_Tot_abs_Q>
0

> <r_epik_Metal_State_Penalty>
-0

> <b_epik_Metal_Only>
0

> <s_lp_Force_Field>
OPLS_2005

> <r_lp_Energy>
17.6032

> <b_lp_Chiralities_Consistent>
1

> <s_lp_Variant>
AV-unprocessed.smi:2204-2

> <Gold.Version>
5.8.1

> <Gold.Id.Protein>
6NUR|6NUR_protein|mol2

> <Gold.PLP.Fitness>
41.2215

> <Gold.PLP.PLP>
-40.1728

> <Gold.PLP.part.hbond>
-1.0000

> <Gold.PLP.part.metal>
0.0000

> <Gold.PLP.part.buried>
-3.5644

> <Gold.PLP.part.nonpolar>
-35.8284

> <Gold.PLP.part.repulsive>
0.2214

> <Gold.PLP.ligand.clash>
0.0000

> <Gold.PLP.ligand.torsion>
0.7811

> <Gold.PLP.Chemscore.Hbond>
0.8640

> <Gold.PLP.Chemscore.CHOScore>
0.0000

> <Gold.PLP.Chemscore.Metal>
0.0000

> <Gold.Chemscore.Hbonds>
donor molecule, donor type, donor heavy atom, donor atom, acceptor molecule, acceptor atom, score
      P1  H  7997  8008       L1     9  0.81

> <Gold.PLP.Chemscore.Internal.Correction>
0.0189

> <Gold.Rescore>
     Score         DG    S(hbond)    S(metal)    S(lipo)     H(rot)  DE(clash)    DE(int)     intcor
     15.56     -17.35       0.75        0.00     112.86       1.50       1.14       0.65       ----

> <Gold.Chemscore.Fitness>
15.5639

> <Gold.Chemscore.DG>
-17.3535

> <Gold.Chemscore.ZeroCoef>
-5.4800

> <Gold.Chemscore.Hbond>
0.7516

> <Gold.Chemscore.Metal>
0.0000

> <Gold.Chemscore.Lipo>
112.8565

> <Gold.Chemscore.Internal_Hbond>
0.0000

> <Gold.Chemscore.DEClash>
1.1368

> <Gold.Chemscore.DEInternal>
0.6527

> <Gold.Chemscore.Rot>
1.5005

> <Gold.Chemscore.Internal.Correction>
   9.000000E+99

> <Gold.Chemscore.Hbonds>
donor molecule, donor type, donor heavy atom, donor atom, acceptor molecule, acceptor atom, score
      P1  H  7997  8008       L1     9  0.76

> <Gold.Chemscore.Hbond.Weighted>
-2.5105

> <Gold.Chemscore.Metal.Weighted>
-0.0000

> <Gold.Chemscore.Lipo.Weighted>
-13.2042

> <Gold.Chemscore.Internal_Hbond.Weighted>
0.0000

> <Gold.Chemscore.DEClash.Weighted>
1.1368

> <Gold.Chemscore.DEInternal.Weighted>
0.6527

> <Gold.Chemscore.Rot.Weighted>
3.8412

> <Gold.Chemscore.Internal.Correction.Weighted>
   9.000000E+99

> <Gold.Protein.RotatedTorsions>
[ 6907 6896 6895 6894 ] final -145.42 input  -60.11 | X-H torsion
[ 7974 7965 7964 7962 ] final   57.26 input  175.53 | X-H torsion
[ 8008 7997 7996 7995 ] final  -78.27 input   59.86 | X-H torsion
[ 10167 10162 10161 10158 ] final   -2.34 input  -65.29 | X-H torsion
[ 10718 10713 10712 10709 ] final  -20.43 input   66.30 | X-H torsion
[ 10763 10752 10751 10750 ] final   -4.78 input  -60.55 | X-H torsion
[ 11005 11000 10999 10996 ] final   14.10 input  -57.11 | X-H torsion

> <Gold.Protein.ActiveResidues>
 VAL166  LYS551  ARG553  GLY616  TRP617  ASP618  TYR619  PRO620  LYS621  CYS622 
 ASP623  PHE694  ASN695  SER759  ASP760  ASP761  ALA762  ILE779  LEU786  VAL792 
 PHE793  MET794  SER795  GLU796  ALA797  LYS798  CYS799  TRP800  GLU811  SER814 

> <Gold.Protein.RotatedAtoms>
  151.1275  133.5060  159.2599 H   0  0  0  0  0  0  0  0  0  0  0  0  # atno 6907 bound_to 6896
  151.1793  135.0353  159.8795 H   0  0  0  0  0  0  0  0  0  0  0  0  # atno 6908 bound_to 6896
  152.5458  134.1129  159.8419 H   0  0  0  0  0  0  0  0  0  0  0  0  # atno 6909 bound_to 6896
  145.9309  139.3807  143.0421 H   0  0  0  0  0  0  0  0  0  0  0  0  # atno 7974 bound_to 7965
  154.5673  140.0697  156.8912 H   0  0  0  0  0  0  0  0  0  0  0  0  # atno 8008 bound_to 7997
  155.2698  140.3364  155.4248 H   0  0  0  0  0  0  0  0  0  0  0  0  # atno 8009 bound_to 7997
  156.2091  140.1752  156.7720 H   0  0  0  0  0  0  0  0  0  0  0  0  # atno 8010 bound_to 7997
  140.6847  143.6668  150.8219 H   0  0  0  0  0  0  0  0  0  0  0  0  # atno 10167 bound_to 10162
  156.5320  130.4657  149.6542 H   0  0  0  0  0  0  0  0  0  0  0  0  # atno 10718 bound_to 10713
  153.3895  135.7001  153.6505 H   0  0  0  0  0  0  0  0  0  0  0  0  # atno 10763 bound_to 10752
  153.5083  135.3637  155.2574 H   0  0  0  0  0  0  0  0  0  0  0  0  # atno 10764 bound_to 10752
  154.8701  135.4128  154.3209 H   0  0  0  0  0  0  0  0  0  0  0  0  # atno 10765 bound_to 10752
  140.4733  134.1009  155.7737 H   0  0  0  0  0  0  0  0  0  0  0  0  # atno 11005 bound_to 11000
  145.8427  140.9572  143.0791 LP  0  0  0  0  0  0  0  0  0  0  0  0  # atno 17320 bound_to 7965
  144.6765  140.0305  143.7482 LP  0  0  0  0  0  0  0  0  0  0  0  0  # atno 17321 bound_to 7965
  140.0374  143.5381  152.2733 LP  0  0  0  0  0  0  0  0  0  0  0  0  # atno 17342 bound_to 10162
  139.6196  144.7626  151.2770 LP  0  0  0  0  0  0  0  0  0  0  0  0  # atno 17343 bound_to 10162
  156.3051  130.7198  151.2078 LP  0  0  0  0  0  0  0  0  0  0  0  0  # atno 17370 bound_to 10713
  157.7420  131.0496  150.5056 LP  0  0  0  0  0  0  0  0  0  0  0  0  # atno 17371 bound_to 10713
  141.1566  133.8870  157.1960 LP  0  0  0  0  0  0  0  0  0  0  0  0  # atno 17394 bound_to 11000
  139.9871  135.0078  156.9889 LP  0  0  0  0  0  0  0  0  0  0  0  0  # atno 17395 bound_to 11000

$$$$
