AV-unprocessed.smi:2473|AV-procd|sdf|9748|dock4
  -GOLD-   2272013393D 1   1.00000     0.00000
 Structure written by MMmdl.
 47 48  0  0  0  0  0  0  0  0  1 V2000
  153.4057  142.3215  162.2187 C   0  0  0  0  0  0  0  0  0  0  0  0
  153.0712  142.6180  160.7497 C   0  0  1  0  0  0  0  0  0  0  0  0
  152.5963  141.3503  160.0164 C   0  0  0  0  0  0  0  0  0  0  0  0
  152.2733  141.6458  158.5392 C   0  0  1  0  0  0  0  0  0  0  0  0
  151.7893  140.3852  157.8112 C   0  0  0  0  0  0  0  0  0  0  0  0
  152.4846  139.8686  156.9362 O   0  0  0  0  0  0  0  0  0  0  0  0
  150.6105  139.8816  158.2112 N   0  0  0  0  0  0  0  0  0  0  0  0
  150.0402  138.6084  157.7782 C   0  0  0  0  0  0  0  0  0  0  0  0
  148.6669  138.7907  157.1020 C   0  0  0  0  0  0  0  0  0  0  0  0
  148.6533  139.8324  156.0209 C   0  0  0  0  0  0  0  0  0  0  0  0
  147.9402  140.9522  156.0928 N   0  0  0  0  0  0  0  0  0  0  0  0
  148.2394  141.6408  154.9227 C   0  0  0  0  0  0  0  0  0  0  0  0
  149.1277  140.9061  154.1756 C   0  0  0  0  0  0  0  0  0  0  0  0
  149.3860  139.7449  154.8918 N   0  0  0  0  0  0  0  0  0  0  0  0
  150.2754  138.6755  154.4796 C   0  0  0  0  0  0  0  0  0  0  0  0
  151.2145  142.7669  158.4368 C   0  0  0  0  0  0  0  0  0  0  0  0
  151.6201  144.0695  159.1678 C   0  0  0  0  0  0  0  0  0  0  0  0
  152.7724  144.7830  158.4272 C   0  0  0  0  0  0  0  0  0  0  0  0
  150.4107  145.0250  159.1826 C   0  0  0  0  0  0  0  0  0  0  0  0
  152.0164  143.7385  160.6289 C   0  0  0  0  0  0  0  0  0  0  0  0
  152.5302  141.9649  162.7618 H   0  0  0  0  0  0  0  0  0  0  0  0
  153.7720  143.2148  162.7256 H   0  0  0  0  0  0  0  0  0  0  0  0
  154.1805  141.5585  162.2983 H   0  0  0  0  0  0  0  0  0  0  0  0
  153.9935  142.9568  160.2776 H   0  0  0  0  0  0  0  0  0  0  0  0
  153.3659  140.5796  160.0799 H   0  0  0  0  0  0  0  0  0  0  0  0
  151.7156  140.9480  160.5202 H   0  0  0  0  0  0  0  0  0  0  0  0
  153.1889  141.9802  158.0503 H   0  0  0  0  0  0  0  0  0  0  0  0
  150.1045  140.3832  158.9265 H   0  0  0  0  0  0  0  0  0  0  0  0
  150.7338  138.1426  157.0780 H   0  0  0  0  0  0  0  0  0  0  0  0
  149.9503  137.9186  158.6188 H   0  0  0  0  0  0  0  0  0  0  0  0
  148.3268  137.8380  156.6963 H   0  0  0  0  0  0  0  0  0  0  0  0
  147.9295  139.0711  157.8547 H   0  0  0  0  0  0  0  0  0  0  0  0
  147.7971  142.6029  154.7107 H   0  0  0  0  0  0  0  0  0  0  0  0
  149.5868  141.1101  153.2196 H   0  0  0  0  0  0  0  0  0  0  0  0
  150.7843  138.9462  153.5542 H   0  0  0  0  0  0  0  0  0  0  0  0
  149.7030  137.7628  154.3138 H   0  0  0  0  0  0  0  0  0  0  0  0
  151.0262  138.4954  155.2491 H   0  0  0  0  0  0  0  0  0  0  0  0
  151.0046  142.9854  157.3891 H   0  0  0  0  0  0  0  0  0  0  0  0
  150.2742  142.4051  158.8567 H   0  0  0  0  0  0  0  0  0  0  0  0
  153.0414  145.7156  158.9243 H   0  0  0  0  0  0  0  0  0  0  0  0
  152.4884  145.0300  157.4037 H   0  0  0  0  0  0  0  0  0  0  0  0
  153.6762  144.1784  158.3715 H   0  0  0  0  0  0  0  0  0  0  0  0
  150.6477  145.9586  159.6939 H   0  0  0  0  0  0  0  0  0  0  0  0
  149.5552  144.5816  159.6935 H   0  0  0  0  0  0  0  0  0  0  0  0
  150.0911  145.2762  158.1705 H   0  0  0  0  0  0  0  0  0  0  0  0
  151.1254  143.4325  161.1796 H   0  0  0  0  0  0  0  0  0  0  0  0
  152.3778  144.6395  161.1262 H   0  0  0  0  0  0  0  0  0  0  0  0
  1  2  1  0  0  0  0
  1 21  1  0  0  0  0
  1 22  1  0  0  0  0
  1 23  1  0  0  0  0
  2 20  1  0  0  0  0
  2  3  1  0  0  0  0
  2 24  1  0  0  0  0
  3  4  1  0  0  0  0
  3 25  1  0  0  0  0
  3 26  1  0  0  0  0
  4  5  1  0  0  0  0
  4 16  1  0  0  0  0
  4 27  1  0  0  0  0
  5  6  2  0  0  0  0
  5  7  1  0  0  0  0
  7  8  1  0  0  0  0
  7 28  1  0  0  0  0
  8  9  1  0  0  0  0
  8 29  1  0  0  0  0
  8 30  1  0  0  0  0
  9 10  1  0  0  0  0
  9 31  1  0  0  0  0
  9 32  1  0  0  0  0
 10 14  1  0  0  0  0
 10 11  2  0  0  0  0
 11 12  1  0  0  0  0
 12 13  2  0  0  0  0
 12 33  1  0  0  0  0
 13 14  1  0  0  0  0
 13 34  1  0  0  0  0
 14 15  1  0  0  0  0
 15 35  1  0  0  0  0
 15 36  1  0  0  0  0
 15 37  1  0  0  0  0
 16 17  1  0  0  0  0
 16 38  1  0  0  0  0
 16 39  1  0  0  0  0
 17 18  1  0  0  0  0
 17 19  1  0  0  0  0
 17 20  1  0  0  0  0
 18 40  1  0  0  0  0
 18 41  1  0  0  0  0
 18 42  1  0  0  0  0
 19 43  1  0  0  0  0
 19 44  1  0  0  0  0
 19 45  1  0  0  0  0
 20 46  1  0  0  0  0
 20 47  1  0  0  0  0
M  END
> <s_m_source_file>
AV-unprocessed.smi

> <i_m_source_file_index>
2473

> <i_lp_mmshare_version>
43012

> <i_f3d_flags>
0

> <s_epik_input>
W0NIM11bQ0BASF0oW0NIMl0xKVtDSDJdW0NASF0oW0NIMl1DMShbQ0gzXSlbQ0gzXSlDKD1PKVtOSF1bQ0gyXVtDSDJdYzJuW2NIXVtjSF1uMltDSDNd

> <s_epik_cmdline>
J2VwaWtfcHl0aG9uJywgJy1waCcsICc3LjAnLCAnLXRuJywgJzgnLCAnLW1hJywgJzIwMCcsICctbWV0YWxfYmluZGluZycsICctaW1hZScsICc8aW5maWxlLm1hZT4nLCAnLW9tYWUnLCAnPG91dGZpbGUubWFlPic=

> <r_lp_tautomer_probability>
1

> <r_epik_Ionization_Penalty>
1.22858

> <r_epik_Ionization_Penalty_Charging>
1.22858

> <r_epik_Ionization_Penalty_Neutral>
2.12671e-08

> <r_epik_State_Penalty>
1.2965

> <r_epik_Charging_Adjusted_Penalty>
2.52508

> <i_epik_Tot_Q>
0

> <i_epik_Tot_abs_Q>
0

> <r_epik_Metal_State_Penalty>
0.411461

> <b_epik_Metal_Only>
0

> <s_lp_Force_Field>
OPLS_2005

> <r_lp_Energy>
12.6142

> <b_lp_Chiralities_Consistent>
1

> <s_lp_Variant>
AV-unprocessed.smi:2473-6

> <Gold.Version>
5.8.1

> <Gold.Id.Protein>
6NUR|6NUR_protein|mol2

> <Gold.PLP.Fitness>
51.6765

> <Gold.PLP.PLP>
-43.4560

> <Gold.PLP.part.hbond>
-1.0000

> <Gold.PLP.part.metal>
0.0000

> <Gold.PLP.part.buried>
-2.9551

> <Gold.PLP.part.nonpolar>
-38.4082

> <Gold.PLP.part.repulsive>
0.1903

> <Gold.PLP.ligand.clash>
0.0000

> <Gold.PLP.ligand.torsion>
0.1090

> <Gold.PLP.Chemscore.Hbond>
1.0000

> <Gold.PLP.Chemscore.CHOScore>
1.8025

> <Gold.PLP.Chemscore.Metal>
0.0000

> <Gold.Chemscore.Hbonds>
donor molecule, donor type, donor heavy atom, donor atom, acceptor molecule, acceptor atom, score
      P1  H  7997  8009       L1     6  1.00
      L1  C    12    33       P1  8028  0.81
      L1  C    13    34       P1  7957  1.00

> <Gold.PLP.Chemscore.Internal.Correction>
0.0310

> <Gold.Rescore>
     Score         DG    S(hbond)    S(metal)    S(lipo)     H(rot)  DE(clash)    DE(int)     intcor
     19.25     -19.40       0.99        0.00     123.65       1.51       0.03       0.12       ----

> <Gold.Chemscore.Fitness>
19.2500

> <Gold.Chemscore.DG>
-19.3982

> <Gold.Chemscore.ZeroCoef>
-5.4800

> <Gold.Chemscore.Hbond>
0.9938

> <Gold.Chemscore.Metal>
0.0000

> <Gold.Chemscore.Lipo>
123.6479

> <Gold.Chemscore.Internal_Hbond>
0.0000

> <Gold.Chemscore.DEClash>
0.0291

> <Gold.Chemscore.DEInternal>
0.1191

> <Gold.Chemscore.Rot>
1.5109

> <Gold.Chemscore.Internal.Correction>
   9.000000E+99

> <Gold.Chemscore.Hbonds>
donor molecule, donor type, donor heavy atom, donor atom, acceptor molecule, acceptor atom, score
      P1  H  7997  8009       L1     6  0.96

> <Gold.Chemscore.Hbond.Weighted>
-3.3194

> <Gold.Chemscore.Metal.Weighted>
-0.0000

> <Gold.Chemscore.Lipo.Weighted>
-14.4668

> <Gold.Chemscore.Internal_Hbond.Weighted>
0.0000

> <Gold.Chemscore.DEClash.Weighted>
0.0291

> <Gold.Chemscore.DEInternal.Weighted>
0.1191

> <Gold.Chemscore.Rot.Weighted>
3.8680

> <Gold.Chemscore.Internal.Correction.Weighted>
   9.000000E+99

> <Gold.Protein.RotatedTorsions>
[ 6907 6896 6895 6894 ] final -154.90 input  -60.11 | X-H torsion
[ 7974 7965 7964 7962 ] final  132.99 input  175.53 | X-H torsion
[ 8008 7997 7996 7995 ] final -161.53 input   59.86 | X-H torsion
[ 10167 10162 10161 10158 ] final   18.16 input  -65.29 | X-H torsion
[ 10718 10713 10712 10709 ] final   36.52 input   66.30 | X-H torsion
[ 10763 10752 10751 10750 ] final   18.19 input  -60.55 | X-H torsion
[ 11005 11000 10999 10996 ] final    8.02 input  -57.11 | X-H torsion

> <Gold.Protein.ActiveResidues>
 VAL166  LYS551  ARG553  GLY616  TRP617  ASP618  TYR619  PRO620  LYS621  CYS622 
 ASP623  PHE694  ASN695  SER759  ASP760  ASP761  ALA762  ILE779  LEU786  VAL792 
 PHE793  MET794  SER795  GLU796  ALA797  LYS798  CYS799  TRP800  GLU811  SER814 

> <Gold.Protein.RotatedAtoms>
  151.2644  133.4286  159.2617 H   0  0  0  0  0  0  0  0  0  0  0  0  # atno 6907 bound_to 6896
  151.0501  134.9667  159.8217 H   0  0  0  0  0  0  0  0  0  0  0  0  # atno 6908 bound_to 6896
  152.5381  134.2599  159.8984 H   0  0  0  0  0  0  0  0  0  0  0  0  # atno 6909 bound_to 6896
  144.9911  139.4405  143.5338 H   0  0  0  0  0  0  0  0  0  0  0  0  # atno 7974 bound_to 7965
  155.7935  140.0881  157.1996 H   0  0  0  0  0  0  0  0  0  0  0  0  # atno 8008 bound_to 7997
  154.3984  140.1485  156.3249 H   0  0  0  0  0  0  0  0  0  0  0  0  # atno 8009 bound_to 7997
  155.8535  140.3433  155.5711 H   0  0  0  0  0  0  0  0  0  0  0  0  # atno 8010 bound_to 7997
  140.5673  143.9226  150.6686 H   0  0  0  0  0  0  0  0  0  0  0  0  # atno 10167 bound_to 10162
  157.3359  130.7522  149.6879 H   0  0  0  0  0  0  0  0  0  0  0  0  # atno 10718 bound_to 10713
  153.1271  135.6732  153.9239 H   0  0  0  0  0  0  0  0  0  0  0  0  # atno 10763 bound_to 10752
  153.8737  135.3066  155.3444 H   0  0  0  0  0  0  0  0  0  0  0  0  # atno 10764 bound_to 10752
  154.7674  135.4957  153.9662 H   0  0  0  0  0  0  0  0  0  0  0  0  # atno 10765 bound_to 10752
  140.5417  134.0368  155.7906 H   0  0  0  0  0  0  0  0  0  0  0  0  # atno 11005 bound_to 11000
  146.3431  139.9244  142.8762 LP  0  0  0  0  0  0  0  0  0  0  0  0  # atno 17320 bound_to 7965
  145.2284  140.9963  143.4005 LP  0  0  0  0  0  0  0  0  0  0  0  0  # atno 17321 bound_to 7965
  140.2692  143.3468  152.1253 LP  0  0  0  0  0  0  0  0  0  0  0  0  # atno 17342 bound_to 10162
  139.5099  144.6876  151.5846 LP  0  0  0  0  0  0  0  0  0  0  0  0  # atno 17343 bound_to 10162
  155.9701  130.4181  150.4314 LP  0  0  0  0  0  0  0  0  0  0  0  0  # atno 17370 bound_to 10713
  157.2354  131.0513  151.2468 LP  0  0  0  0  0  0  0  0  0  0  0  0  # atno 17371 bound_to 10713
  141.1223  133.9440  157.2704 LP  0  0  0  0  0  0  0  0  0  0  0  0  # atno 17394 bound_to 11000
  139.9501  135.0177  156.8967 LP  0  0  0  0  0  0  0  0  0  0  0  0  # atno 17395 bound_to 11000

$$$$
