AV-unprocessed.smi:170|AV-procd|sdf|1407|dock4
  -GOLD-   2262019163D 1   1.00000     0.00000
 Structure written by MMmdl.
 57 61  0  0  0  0  0  0  0  0  1 V2000
  144.9596  144.6043  156.8715 O   0  0  0  0  0  0  0  0  0  0  0  0
  144.9613  143.8332  155.6844 C   0  0  1  0  0  0  0  0  0  0  0  0
  144.9094  142.3281  156.0120 C   0  0  0  0  0  0  0  0  0  0  0  0
  146.1752  141.8304  156.5191 N   0  0  0  0  0  0  0  0  0  0  0  0
  146.4637  141.4734  157.8166 C   0  0  0  0  0  0  0  0  0  0  0  0
  147.6831  141.0543  158.0188 N   0  0  0  0  0  0  0  0  0  0  0  0
  148.2811  141.1321  156.7663 C   0  0  0  0  0  0  0  0  0  0  0  0
  149.5804  140.8416  156.2603 C   0  0  0  0  0  0  0  0  0  0  0  0
  150.6154  140.3797  156.9978 N   0  0  0  0  0  0  0  0  0  0  0  0
  150.3915  138.9920  157.3855 C   0  0  0  0  0  0  0  0  0  0  0  0
  151.6468  138.4191  158.0558 C   0  0  0  0  0  0  0  0  0  0  0  0
  151.9875  139.2341  159.1689 O   0  0  0  0  0  0  0  0  0  0  0  0
  152.2958  140.5676  158.7781 C   0  0  0  0  0  0  0  0  0  0  0  0
  151.0733  141.2326  158.1024 C   0  0  1  0  0  0  0  0  0  0  0  0
  151.3935  142.6776  157.6381 C   0  0  0  0  0  0  0  0  0  0  0  0
  152.0199  143.5567  158.7184 C   0  0  0  0  0  0  0  0  0  0  0  0
  151.1423  144.1298  159.8419 C   0  0  0  0  0  0  0  0  0  0  0  0
  152.0148  145.3875  159.8174 C   0  0  0  0  0  0  0  0  0  0  0  0
  152.4082  145.0056  158.3877 C   0  0  0  0  0  0  0  0  0  0  0  0
  149.8052  141.0316  154.9372 N   0  0  0  0  0  0  0  0  0  0  0  0
  148.8260  141.4918  154.1523 C   0  0  0  0  0  0  0  0  0  0  0  0
  147.5727  141.8132  154.4812 N   0  0  0  0  0  0  0  0  0  0  0  0
  147.3429  141.6137  155.8108 C   0  0  0  0  0  0  0  0  0  0  0  0
  143.8168  144.2800  154.7537 C   0  0  2  0  0  0  0  0  0  0  0  0
  143.8798  145.7298  154.2435 C   0  0  0  0  0  0  0  0  0  0  0  0
  142.4795  146.2676  154.4962 C   0  0  0  0  0  0  0  0  0  0  0  0
  141.6492  145.0089  154.7214 C   0  0  0  0  0  0  0  0  0  0  0  0
  142.5523  144.1466  155.3919 O   0  0  0  0  0  0  0  0  0  0  0  0
  144.6578  145.4745  156.6597 H   0  0  0  0  0  0  0  0  0  0  0  0
  145.9041  144.0445  155.1781 H   0  0  0  0  0  0  0  0  0  0  0  0
  144.1330  142.1200  156.7494 H   0  0  0  0  0  0  0  0  0  0  0  0
  144.6525  141.7568  155.1190 H   0  0  0  0  0  0  0  0  0  0  0  0
  145.7371  141.5362  158.6137 H   0  0  0  0  0  0  0  0  0  0  0  0
  149.5458  138.9347  158.0726 H   0  0  0  0  0  0  0  0  0  0  0  0
  150.1365  138.3940  156.5092 H   0  0  0  0  0  0  0  0  0  0  0  0
  151.4582  137.4028  158.4019 H   0  0  0  0  0  0  0  0  0  0  0  0
  152.4798  138.3699  157.3526 H   0  0  0  0  0  0  0  0  0  0  0  0
  152.5857  141.1119  159.6762 H   0  0  0  0  0  0  0  0  0  0  0  0
  153.1602  140.5691  158.1118 H   0  0  0  0  0  0  0  0  0  0  0  0
  150.2771  141.2772  158.8454 H   0  0  0  0  0  0  0  0  0  0  0  0
  152.0520  142.6392  156.7695 H   0  0  0  0  0  0  0  0  0  0  0  0
  150.4831  143.1663  157.2911 H   0  0  0  0  0  0  0  0  0  0  0  0
  152.8884  143.0691  159.1657 H   0  0  0  0  0  0  0  0  0  0  0  0
  150.1165  144.3219  159.5217 H   0  0  0  0  0  0  0  0  0  0  0  0
  151.1730  143.5679  160.7758 H   0  0  0  0  0  0  0  0  0  0  0  0
  151.4679  146.3266  159.9067 H   0  0  0  0  0  0  0  0  0  0  0  0
  152.8522  145.3357  160.5153 H   0  0  0  0  0  0  0  0  0  0  0  0
  153.4619  145.1525  158.1482 H   0  0  0  0  0  0  0  0  0  0  0  0
  151.7586  145.4608  157.6381 H   0  0  0  0  0  0  0  0  0  0  0  0
  149.0841  141.6229  153.1118 H   0  0  0  0  0  0  0  0  0  0  0  0
  143.7977  143.6176  153.8861 H   0  0  0  0  0  0  0  0  0  0  0  0
  144.6279  146.3370  154.7542 H   0  0  0  0  0  0  0  0  0  0  0  0
  144.1195  145.7439  153.1797 H   0  0  0  0  0  0  0  0  0  0  0  0
  142.4772  146.8746  155.4024 H   0  0  0  0  0  0  0  0  0  0  0  0
  142.1028  146.8814  153.6775 H   0  0  0  0  0  0  0  0  0  0  0  0
  140.7530  145.1944  155.3136 H   0  0  0  0  0  0  0  0  0  0  0  0
  141.3510  144.5612  153.7721 H   0  0  0  0  0  0  0  0  0  0  0  0
  1  2  1  0  0  0  0
  1 29  1  0  0  0  0
  2  3  1  0  0  0  0
  2 24  1  0  0  0  0
  2 30  1  0  0  0  0
  3  4  1  0  0  0  0
  3 31  1  0  0  0  0
  3 32  1  0  0  0  0
  4 23  1  0  0  0  0
  4  5  1  0  0  0  0
  5  6  2  0  0  0  0
  5 33  1  0  0  0  0
  6  7  1  0  0  0  0
  7 23  2  0  0  0  0
  7  8  1  0  0  0  0
  8  9  1  0  0  0  0
  8 20  2  0  0  0  0
  9 14  1  0  0  0  0
  9 10  1  0  0  0  0
 10 11  1  0  0  0  0
 10 34  1  0  0  0  0
 10 35  1  0  0  0  0
 11 12  1  0  0  0  0
 11 36  1  0  0  0  0
 11 37  1  0  0  0  0
 12 13  1  0  0  0  0
 13 14  1  0  0  0  0
 13 38  1  0  0  0  0
 13 39  1  0  0  0  0
 14 15  1  0  0  0  0
 14 40  1  0  0  0  0
 15 16  1  0  0  0  0
 15 41  1  0  0  0  0
 15 42  1  0  0  0  0
 16 19  1  0  0  0  0
 16 17  1  0  0  0  0
 16 43  1  0  0  0  0
 17 18  1  0  0  0  0
 17 44  1  0  0  0  0
 17 45  1  0  0  0  0
 18 19  1  0  0  0  0
 18 46  1  0  0  0  0
 18 47  1  0  0  0  0
 19 48  1  0  0  0  0
 19 49  1  0  0  0  0
 20 21  1  0  0  0  0
 21 22  2  0  0  0  0
 21 50  1  0  0  0  0
 22 23  1  0  0  0  0
 24 28  1  0  0  0  0
 24 25  1  0  0  0  0
 24 51  1  0  0  0  0
 25 26  1  0  0  0  0
 25 52  1  0  0  0  0
 25 53  1  0  0  0  0
 26 27  1  0  0  0  0
 26 54  1  0  0  0  0
 26 55  1  0  0  0  0
 27 28  1  0  0  0  0
 27 56  1  0  0  0  0
 27 57  1  0  0  0  0
M  END
> <s_m_source_file>
AV-unprocessed.smi

> <i_m_source_file_index>
170

> <i_lp_mmshare_version>
43012

> <i_f3d_flags>
0

> <s_epik_input>
TzFbQ0gyXVtDSDJdW0NIMl1bQ0BIXTFbQ0BIXShbT0hdKVtDSDJdbihbY0hdbjIpYyhjMjMpbltjSF1uYzNONFtDSDJdW0NIMl1PW0NIMl1bQ0BIXTRbQ0gyXVtDSF01W0NIMl1bQ0gyXVtDSDJdNQ==

> <s_epik_cmdline>
J2VwaWtfcHl0aG9uJywgJy1waCcsICc3LjAnLCAnLXRuJywgJzgnLCAnLW1hJywgJzIwMCcsICctbWV0YWxfYmluZGluZycsICctaW1hZScsICc8aW5maWxlLm1hZT4nLCAnLW9tYWUnLCAnPG91dGZpbGUubWFlPic=

> <r_lp_tautomer_probability>
1

> <r_epik_Ionization_Penalty>
4.98275e-05

> <r_epik_Ionization_Penalty_Charging>
0

> <r_epik_Ionization_Penalty_Neutral>
4.98275e-05

> <r_epik_State_Penalty>
-0

> <r_epik_Charging_Adjusted_Penalty>
0

> <i_epik_Tot_Q>
0

> <i_epik_Tot_abs_Q>
0

> <r_epik_Metal_State_Penalty>
-0

> <b_epik_Metal_Only>
0

> <s_lp_Force_Field>
OPLS_2005

> <r_lp_Energy>
52.7393

> <b_lp_Chiralities_Consistent>
1

> <s_lp_Variant>
AV-unprocessed.smi:170-2

> <Gold.Version>
5.8.1

> <Gold.Id.Protein>
6NUR|6NUR_protein|mol2

> <Gold.PLP.Fitness>
47.8159

> <Gold.PLP.PLP>
-44.8190

> <Gold.PLP.part.hbond>
-2.0571

> <Gold.PLP.part.metal>
0.0000

> <Gold.PLP.part.buried>
-7.3917

> <Gold.PLP.part.nonpolar>
-35.3594

> <Gold.PLP.part.repulsive>
0.3769

> <Gold.PLP.ligand.clash>
0.0000

> <Gold.PLP.ligand.torsion>
0.5069

> <Gold.PLP.Chemscore.Hbond>
0.2293

> <Gold.PLP.Chemscore.CHOScore>
1.0000

> <Gold.PLP.Chemscore.Metal>
0.0000

> <Gold.Chemscore.Hbonds>
donor molecule, donor type, donor heavy atom, donor atom, acceptor molecule, acceptor atom, score
      P1  H  7989  7998       L1    20  0.19
      L1  C    21    50       P1  7957  0.95

> <Gold.PLP.Chemscore.Internal.Correction>
0.3227

> <Gold.Rescore>
     Score         DG    S(hbond)    S(metal)    S(lipo)     H(rot)  DE(clash)    DE(int)     intcor
     12.12     -12.67       0.00        0.00     118.62       2.61       0.08       0.47       ----

> <Gold.Chemscore.Fitness>
12.1164

> <Gold.Chemscore.DG>
-12.6690

> <Gold.Chemscore.ZeroCoef>
-5.4800

> <Gold.Chemscore.Hbond>
0.0012

> <Gold.Chemscore.Metal>
0.0000

> <Gold.Chemscore.Lipo>
118.6150

> <Gold.Chemscore.Internal_Hbond>
0.0000

> <Gold.Chemscore.DEClash>
0.0844

> <Gold.Chemscore.DEInternal>
0.4683

> <Gold.Chemscore.Rot>
2.6144

> <Gold.Chemscore.Internal.Correction>
   9.000000E+99

> <Gold.Chemscore.Hbonds>
donor molecule, donor type, donor heavy atom, donor atom, acceptor molecule, acceptor atom, score
      P1  H  7989  7998       L1    20  0.08

> <Gold.Chemscore.Hbond.Weighted>
-0.0040

> <Gold.Chemscore.Metal.Weighted>
-0.0000

> <Gold.Chemscore.Lipo.Weighted>
-13.8780

> <Gold.Chemscore.Internal_Hbond.Weighted>
0.0000

> <Gold.Chemscore.DEClash.Weighted>
0.0844

> <Gold.Chemscore.DEInternal.Weighted>
0.4683

> <Gold.Chemscore.Rot.Weighted>
6.6929

> <Gold.Chemscore.Internal.Correction.Weighted>
   9.000000E+99

> <Gold.Protein.RotatedTorsions>
[ 6907 6896 6895 6894 ] final -137.82 input  -60.11 | X-H torsion
[ 7974 7965 7964 7962 ] final -149.33 input  175.53 | X-H torsion
[ 8008 7997 7996 7995 ] final -120.53 input   59.86 | X-H torsion
[ 10167 10162 10161 10158 ] final  123.69 input  -65.29 | X-H torsion
[ 10718 10713 10712 10709 ] final  -51.35 input   66.30 | X-H torsion
[ 10763 10752 10751 10750 ] final  165.18 input  -60.55 | X-H torsion
[ 11005 11000 10999 10996 ] final   75.82 input  -57.11 | X-H torsion

> <Gold.Protein.ActiveResidues>
 VAL166  LYS551  ARG553  GLY616  TRP617  ASP618  TYR619  PRO620  LYS621  CYS622 
 ASP623  PHE694  ASN695  SER759  ASP760  ASP761  ALA762  ILE779  LEU786  VAL792 
 PHE793  MET794  SER795  GLU796  ALA797  LYS798  CYS799  TRP800  GLU811  SER814 

> <Gold.Protein.RotatedAtoms>
  151.0272  133.5823  159.2664 H   0  0  0  0  0  0  0  0  0  0  0  0  # atno 6907 bound_to 6896
  151.2918  135.0743  159.9216 H   0  0  0  0  0  0  0  0  0  0  0  0  # atno 6908 bound_to 6896
  152.5336  133.9969  159.7931 H   0  0  0  0  0  0  0  0  0  0  0  0  # atno 6909 bound_to 6896
  144.7974  140.5079  143.5731 H   0  0  0  0  0  0  0  0  0  0  0  0  # atno 7974 bound_to 7965
  155.1333  140.0400  157.2780 H   0  0  0  0  0  0  0  0  0  0  0  0  # atno 8008 bound_to 7997
  154.6526  140.2573  155.7170 H   0  0  0  0  0  0  0  0  0  0  0  0  # atno 8009 bound_to 7997
  156.2584  140.2833  156.0966 H   0  0  0  0  0  0  0  0  0  0  0  0  # atno 8010 bound_to 7997
  139.5785  144.6975  151.3591 H   0  0  0  0  0  0  0  0  0  0  0  0  # atno 10167 bound_to 10162
  156.1718  130.4149  149.9636 H   0  0  0  0  0  0  0  0  0  0  0  0  # atno 10718 bound_to 10713
  154.3202  135.2756  155.2523 H   0  0  0  0  0  0  0  0  0  0  0  0  # atno 10763 bound_to 10752
  154.4880  135.5841  153.6441 H   0  0  0  0  0  0  0  0  0  0  0  0  # atno 10764 bound_to 10752
  152.9877  135.6127  154.3386 H   0  0  0  0  0  0  0  0  0  0  0  0  # atno 10765 bound_to 10752
  139.9326  134.7550  156.1319 H   0  0  0  0  0  0  0  0  0  0  0  0  # atno 11005 bound_to 11000
  145.5639  139.1480  143.3326 LP  0  0  0  0  0  0  0  0  0  0  0  0  # atno 17320 bound_to 7965
  146.2246  140.5774  142.9002 LP  0  0  0  0  0  0  0  0  0  0  0  0  # atno 17321 bound_to 7965
  140.7065  143.7500  150.7491 LP  0  0  0  0  0  0  0  0  0  0  0  0  # atno 17342 bound_to 10162
  140.1026  143.4773  152.2416 LP  0  0  0  0  0  0  0  0  0  0  0  0  # atno 17343 bound_to 10162
  156.7434  130.9088  151.3633 LP  0  0  0  0  0  0  0  0  0  0  0  0  # atno 17370 bound_to 10713
  157.6808  130.9138  150.0262 LP  0  0  0  0  0  0  0  0  0  0  0  0  # atno 17371 bound_to 10713
  141.0923  133.6709  156.2567 LP  0  0  0  0  0  0  0  0  0  0  0  0  # atno 17394 bound_to 11000
  140.6161  134.5409  157.5541 LP  0  0  0  0  0  0  0  0  0  0  0  0  # atno 17395 bound_to 11000

$$$$
