AV-unprocessed.smi:2954|AV-procd|sdf|11299|dock2
  -GOLD-   2272016193D 1   1.00000     0.00000
 Structure written by MMmdl.
 43 45  0  0  0  0  0  0  0  0  2 V2000
  148.9814  134.0873  155.1730 C   0  0  0  0  0  0  0  0  0  0  0  0
  147.9340  135.2056  155.2601 C   0  0  2  0  0  0  0  0  0  0  0  0
  147.1324  135.2262  154.0424 N   0  0  0  0  0  0  0  0  0  0  0  0
  145.8290  134.9241  153.9972 C   0  0  0  0  0  0  0  0  0  0  0  0
  145.1820  134.5941  154.9873 O   0  0  0  0  0  0  0  0  0  0  0  0
  148.5969  136.5271  155.5203 C   0  0  0  0  0  0  0  0  0  0  0  0
  149.3800  137.2127  154.6384 N   0  3  0  0  0  0  0  0  0  0  0  0
  149.8542  138.3816  155.2327 C   0  0  0  0  0  0  0  0  0  0  0  0
  150.6836  139.3827  154.7370 C   0  0  0  0  0  0  0  0  0  0  0  0
  150.9907  140.4425  155.6149 C   0  0  0  0  0  0  0  0  0  0  0  0
  150.4775  140.4801  156.9274 C   0  0  0  0  0  0  0  0  0  0  0  0
  149.6337  139.4615  157.4166 C   0  0  0  0  0  0  0  0  0  0  0  0
  149.3343  138.4158  156.5425 C   0  0  0  0  0  0  0  0  0  0  0  0
  148.5614  137.2546  156.6752 N   0  0  0  0  0  0  0  0  0  0  0  0
  147.8925  136.9765  157.9568 C   0  0  0  0  0  0  0  0  0  0  0  0
  148.8496  137.1343  159.1468 C   0  0  0  0  0  0  0  0  0  0  0  0
  148.0887  137.1805  160.3461 O   0  0  0  0  0  0  0  0  0  0  0  0
  147.6940  135.9944  160.9255 C   0  0  0  0  0  0  0  0  0  0  0  0
  147.9870  134.7164  160.3859 C   0  0  0  0  0  0  0  0  0  0  0  0
  147.5471  133.5487  161.0386 C   0  0  0  0  0  0  0  0  0  0  0  0
  146.8101  133.6419  162.2333 C   0  0  0  0  0  0  0  0  0  0  0  0
  146.5127  134.9054  162.7755 C   0  0  0  0  0  0  0  0  0  0  0  0
  146.9521  136.0751  162.1251 C   0  0  0  0  0  0  0  0  0  0  0  0
  146.5821  137.6154  162.8151 Cl  0  0  0  0  0  0  0  0  0  0  0  0
  149.5641  134.0238  156.0925 H   0  0  0  0  0  0  0  0  0  0  0  0
  149.6775  134.2540  154.3502 H   0  0  0  0  0  0  0  0  0  0  0  0
  148.5081  133.1173  155.0172 H   0  0  0  0  0  0  0  0  0  0  0  0
  147.2694  134.9728  156.0929 H   0  0  0  0  0  0  0  0  0  0  0  0
  147.5972  135.4778  153.1819 H   0  0  0  0  0  0  0  0  0  0  0  0
  145.4236  135.0047  152.9762 H   0  0  0  0  0  0  0  0  0  0  0  0
  151.0817  139.3538  153.7333 H   0  0  0  0  0  0  0  0  0  0  0  0
  151.6355  141.2407  155.2760 H   0  0  0  0  0  0  0  0  0  0  0  0
  150.7389  141.3049  157.5745 H   0  0  0  0  0  0  0  0  0  0  0  0
  149.2564  139.4989  158.4276 H   0  0  0  0  0  0  0  0  0  0  0  0
  147.0293  137.6328  158.0636 H   0  0  0  0  0  0  0  0  0  0  0  0
  147.4936  135.9628  157.9206 H   0  0  0  0  0  0  0  0  0  0  0  0
  149.5508  136.2990  159.1728 H   0  0  0  0  0  0  0  0  0  0  0  0
  149.4239  138.0542  159.0272 H   0  0  0  0  0  0  0  0  0  0  0  0
  148.5454  134.6053  159.4690 H   0  0  0  0  0  0  0  0  0  0  0  0
  147.7749  132.5790  160.6208 H   0  0  0  0  0  0  0  0  0  0  0  0
  146.4730  132.7456  162.7328 H   0  0  0  0  0  0  0  0  0  0  0  0
  145.9477  134.9766  163.6934 H   0  0  0  0  0  0  0  0  0  0  0  0
  149.5788  136.8957  153.6983 H   0  0  0  0  0  0  0  0  0  0  0  0
  1  2  1  0  0  0  0
  1 25  1  0  0  0  0
  1 26  1  0  0  0  0
  1 27  1  0  0  0  0
  2  3  1  0  0  0  0
  2  6  1  0  0  0  0
  2 28  1  0  0  0  0
  3  4  1  0  0  0  0
  3 29  1  0  0  0  0
  4  5  2  0  0  0  0
  4 30  1  0  0  0  0
  6 14  1  0  0  0  0
  6  7  2  0  0  0  0
  7  8  1  0  0  0  0
  7 43  1  0  0  0  0
  8 13  2  0  0  0  0
  8  9  1  0  0  0  0
  9 10  2  0  0  0  0
  9 31  1  0  0  0  0
 10 11  1  0  0  0  0
 10 32  1  0  0  0  0
 11 12  2  0  0  0  0
 11 33  1  0  0  0  0
 12 13  1  0  0  0  0
 12 34  1  0  0  0  0
 13 14  1  0  0  0  0
 14 15  1  0  0  0  0
 15 16  1  0  0  0  0
 15 35  1  0  0  0  0
 15 36  1  0  0  0  0
 16 17  1  0  0  0  0
 16 37  1  0  0  0  0
 16 38  1  0  0  0  0
 17 18  1  0  0  0  0
 18 23  1  0  0  0  0
 18 19  2  0  0  0  0
 19 20  1  0  0  0  0
 19 39  1  0  0  0  0
 20 21  2  0  0  0  0
 20 40  1  0  0  0  0
 21 22  1  0  0  0  0
 21 41  1  0  0  0  0
 22 23  2  0  0  0  0
 22 42  1  0  0  0  0
 23 24  1  0  0  0  0
M  CHG  1   7   1
M  END
> <s_m_source_file>
AV-unprocessed.smi

> <i_m_source_file_index>
2954

> <i_lp_mmshare_version>
43012

> <i_f3d_flags>
0

> <s_epik_input>
Tz1bQ0hdW05IXVtDQEBIXShbQ0gzXSljKG4xKW4oYyhjMTIpW2NIXVtjSF1bY0hdW2NIXTIpW0NIMl1bQ0gyXU9jM1tjSF1bY0hdW2NIXVtjSF1jM0Ns

> <s_epik_cmdline>
J2VwaWtfcHl0aG9uJywgJy1waCcsICc3LjAnLCAnLXRuJywgJzgnLCAnLW1hJywgJzIwMCcsICctbWV0YWxfYmluZGluZycsICctaW1hZScsICc8aW5maWxlLm1hZT4nLCAnLW9tYWUnLCAnPG91dGZpbGUubWFlPic=

> <r_lp_tautomer_probability>
1

> <r_epik_Ionization_Penalty>
1.18508

> <r_epik_Ionization_Penalty_Charging>
1.18508

> <r_epik_Ionization_Penalty_Neutral>
5.5802e-08

> <r_epik_State_Penalty>
1.24934

> <r_epik_Charging_Adjusted_Penalty>
2.43443

> <i_epik_Tot_Q>
1

> <i_epik_Tot_abs_Q>
1

> <r_epik_Metal_State_Penalty>
1.32564

> <b_epik_Metal_Only>
0

> <s_lp_Force_Field>
OPLS_2005

> <r_lp_Energy>
16.9753

> <b_lp_Chiralities_Consistent>
1

> <s_lp_Variant>
AV-unprocessed.smi:2954-3

> <Gold.Version>
5.8.1

> <Gold.Id.Protein>
6NUR|6NUR_protein|mol2

> <Gold.PLP.Fitness>
48.0923

> <Gold.PLP.PLP>
-36.4289

> <Gold.PLP.part.hbond>
-4.0000

> <Gold.PLP.part.metal>
0.0000

> <Gold.PLP.part.buried>
-2.0361

> <Gold.PLP.part.nonpolar>
-31.0496

> <Gold.PLP.part.repulsive>
0.0656

> <Gold.PLP.ligand.clash>
0.0000

> <Gold.PLP.ligand.torsion>
0.4637

> <Gold.PLP.Chemscore.Hbond>
4.1565

> <Gold.PLP.Chemscore.CHOScore>
0.0000

> <Gold.PLP.Chemscore.Metal>
0.0000

> <Gold.Chemscore.Hbonds>
donor molecule, donor type, donor heavy atom, donor atom, acceptor molecule, acceptor atom, score
      L1  H     3    29       P1  7948  1.00
      L1  H     7    43       P1  7948  2.00
      P1  H  6931  6943       L1    17  0.57
      P1  H  6934  6947       L1    17  0.55

> <Gold.PLP.Chemscore.Internal.Correction>
0.1214

> <Gold.Rescore>
     Score         DG    S(hbond)    S(metal)    S(lipo)     H(rot)  DE(clash)    DE(int)     intcor
     18.21     -18.70       2.49        0.00      93.11       2.35       0.04       0.44       ----

> <Gold.Chemscore.Fitness>
18.2094

> <Gold.Chemscore.DG>
-18.6952

> <Gold.Chemscore.ZeroCoef>
-5.4800

> <Gold.Chemscore.Hbond>
2.4937

> <Gold.Chemscore.Metal>
0.0000

> <Gold.Chemscore.Lipo>
93.1100

> <Gold.Chemscore.Internal_Hbond>
0.0000

> <Gold.Chemscore.DEClash>
0.0416

> <Gold.Chemscore.DEInternal>
0.4442

> <Gold.Chemscore.Rot>
2.3467

> <Gold.Chemscore.Internal.Correction>
   9.000000E+99

> <Gold.Chemscore.Hbonds>
donor molecule, donor type, donor heavy atom, donor atom, acceptor molecule, acceptor atom, score
      L1  H     3    29       P1  7948  0.93
      L1  H     7    43       P1  7948  0.75
      P1  H  6931  6943       L1    17  0.25
      P1  H  6934  6947       L1    17  0.51

> <Gold.Chemscore.Hbond.Weighted>
-8.3290

> <Gold.Chemscore.Metal.Weighted>
-0.0000

> <Gold.Chemscore.Lipo.Weighted>
-10.8939

> <Gold.Chemscore.Internal_Hbond.Weighted>
0.0000

> <Gold.Chemscore.DEClash.Weighted>
0.0416

> <Gold.Chemscore.DEInternal.Weighted>
0.4442

> <Gold.Chemscore.Rot.Weighted>
6.0077

> <Gold.Chemscore.Internal.Correction.Weighted>
   9.000000E+99

> <Gold.Protein.RotatedTorsions>
[ 6907 6896 6895 6894 ] final  167.10 input  -60.11 | X-H torsion
[ 7974 7965 7964 7962 ] final  177.81 input  175.53 | X-H torsion
[ 8008 7997 7996 7995 ] final -153.67 input   59.86 | X-H torsion
[ 10167 10162 10161 10158 ] final  166.04 input  -65.29 | X-H torsion
[ 10718 10713 10712 10709 ] final  126.60 input   66.30 | X-H torsion
[ 10763 10752 10751 10750 ] final -123.60 input  -60.55 | X-H torsion
[ 11005 11000 10999 10996 ] final  152.83 input  -57.11 | X-H torsion

> <Gold.Protein.ActiveResidues>
 VAL166  LYS551  ARG553  GLY616  TRP617  ASP618  TYR619  PRO620  LYS621  CYS622 
 ASP623  PHE694  ASN695  SER759  ASP760  ASP761  ALA762  ILE779  LEU786  VAL792 
 PHE793  MET794  SER795  GLU796  ALA797  LYS798  CYS799  TRP800  GLU811  SER814 

> <Gold.Protein.RotatedAtoms>
  151.8685  133.3471  159.3726 H   0  0  0  0  0  0  0  0  0  0  0  0  # atno 6907 bound_to 6896
  150.7159  134.5136  159.5628 H   0  0  0  0  0  0  0  0  0  0  0  0  # atno 6908 bound_to 6896
  152.2664  134.7980  160.0473 H   0  0  0  0  0  0  0  0  0  0  0  0  # atno 6909 bound_to 6896
  144.7164  140.0303  143.6439 H   0  0  0  0  0  0  0  0  0  0  0  0  # atno 7974 bound_to 7965
  155.6745  140.0737  157.2508 H   0  0  0  0  0  0  0  0  0  0  0  0  # atno 8008 bound_to 7997
  154.4117  140.1693  156.1966 H   0  0  0  0  0  0  0  0  0  0  0  0  # atno 8009 bound_to 7997
  155.9588  140.3371  155.6475 H   0  0  0  0  0  0  0  0  0  0  0  0  # atno 8010 bound_to 7997
  139.4917  144.4069  151.9345 H   0  0  0  0  0  0  0  0  0  0  0  0  # atno 10167 bound_to 10162
  157.5405  131.1097  150.8866 H   0  0  0  0  0  0  0  0  0  0  0  0  # atno 10718 bound_to 10713
  154.8710  135.4092  154.2970 H   0  0  0  0  0  0  0  0  0  0  0  0  # atno 10763 bound_to 10752
  153.3836  135.7012  153.6552 H   0  0  0  0  0  0  0  0  0  0  0  0  # atno 10764 bound_to 10752
  153.5365  135.3657  155.2670 H   0  0  0  0  0  0  0  0  0  0  0  0  # atno 10765 bound_to 10752
  140.1343  134.8781  157.2246 H   0  0  0  0  0  0  0  0  0  0  0  0  # atno 11005 bound_to 11000
  146.0108  139.3168  143.0872 LP  0  0  0  0  0  0  0  0  0  0  0  0  # atno 17320 bound_to 7965
  145.8684  140.9434  143.0663 LP  0  0  0  0  0  0  0  0  0  0  0  0  # atno 17321 bound_to 7965
  140.3509  144.3090  150.5949 LP  0  0  0  0  0  0  0  0  0  0  0  0  # atno 17342 bound_to 10162
  140.5486  143.2210  151.7965 LP  0  0  0  0  0  0  0  0  0  0  0  0  # atno 17343 bound_to 10162
  156.9420  130.5388  149.5280 LP  0  0  0  0  0  0  0  0  0  0  0  0  # atno 17370 bound_to 10713
  156.0493  130.5565  150.8953 LP  0  0  0  0  0  0  0  0  0  0  0  0  # atno 17371 bound_to 10713
  140.2802  134.3358  155.7345 LP  0  0  0  0  0  0  0  0  0  0  0  0  # atno 17394 bound_to 11000
  141.2175  133.7474  156.9353 LP  0  0  0  0  0  0  0  0  0  0  0  0  # atno 17395 bound_to 11000

$$$$
