AV-unprocessed.smi:2010|AV-procd|sdf|8149|dock4
  -GOLD-   2272010393D 1   1.00000     0.00000
 Structure written by MMmdl.
 41 42  0  0  0  0  0  0  0  0  1 V2000
  151.6989  144.6800  159.6944 C   0  0  0  0  0  0  0  0  0  0  0  0
  152.2362  143.3871  159.0646 C   0  0  0  0  0  0  0  0  0  0  0  0
  151.2688  142.8175  158.0182 C   0  0  0  0  0  0  0  0  0  0  0  0
  151.8100  141.5204  157.3938 C   0  0  0  0  0  0  0  0  0  0  0  0
  152.1363  140.5150  158.4236 N   0  0  0  0  0  0  0  0  0  0  0  0
  152.3802  138.8904  157.8727 S   0  0  0  0  0  0  0  0  0  0  0  0
  153.8159  138.6742  157.6370 O   0  0  0  0  0  0  0  0  0  0  0  0
  151.6105  137.9805  158.7345 O   0  0  0  0  0  0  0  0  0  0  0  0
  151.5959  138.9892  156.3407 N   0  0  0  0  0  0  0  0  0  0  0  0
  150.5627  138.0126  155.9887 C   0  0  2  0  0  0  0  0  0  0  0  0
  151.1618  136.5966  155.9925 C   0  0  0  0  0  0  0  0  0  0  0  0
  149.8978  138.4135  154.6546 C   0  0  0  0  0  0  0  0  0  0  0  0
  149.3355  139.7544  154.6616 N   0  0  0  0  0  0  0  0  0  0  0  0
  148.0574  140.1486  154.3250 C   0  0  0  0  0  0  0  0  0  0  0  0
  147.9941  141.5034  154.4831 C   0  0  0  0  0  0  0  0  0  0  0  0
  149.3016  141.8536  154.9215 C   0  0  0  0  0  0  0  0  0  0  0  0
  150.1026  140.8055  155.0255 N   0  0  0  0  0  0  0  0  0  0  0  0
  153.0396  141.0152  159.4812 C   0  0  0  0  0  0  0  0  0  0  0  0
  152.5008  142.3054  160.1207 C   0  0  0  0  0  0  0  0  0  0  0  0
  150.7518  144.5085  160.2068 H   0  0  0  0  0  0  0  0  0  0  0  0
  151.5335  145.4459  158.9362 H   0  0  0  0  0  0  0  0  0  0  0  0
  152.4033  145.0840  160.4220 H   0  0  0  0  0  0  0  0  0  0  0  0
  153.1792  143.6236  158.5696 H   0  0  0  0  0  0  0  0  0  0  0  0
  150.2991  142.6210  158.4779 H   0  0  0  0  0  0  0  0  0  0  0  0
  151.0933  143.5530  157.2323 H   0  0  0  0  0  0  0  0  0  0  0  0
  151.0663  141.1145  156.7079 H   0  0  0  0  0  0  0  0  0  0  0  0
  152.7044  141.7264  156.8043 H   0  0  0  0  0  0  0  0  0  0  0  0
  152.2439  139.1880  155.5788 H   0  0  0  0  0  0  0  0  0  0  0  0
  149.7890  138.0553  156.7563 H   0  0  0  0  0  0  0  0  0  0  0  0
  150.4122  135.8560  155.7125 H   0  0  0  0  0  0  0  0  0  0  0  0
  151.5333  136.3283  156.9815 H   0  0  0  0  0  0  0  0  0  0  0  0
  151.9941  136.5080  155.2941 H   0  0  0  0  0  0  0  0  0  0  0  0
  150.6301  138.3503  153.8482 H   0  0  0  0  0  0  0  0  0  0  0  0
  149.1048  137.7089  154.3996 H   0  0  0  0  0  0  0  0  0  0  0  0
  147.3078  139.4388  154.0068 H   0  0  0  0  0  0  0  0  0  0  0  0
  147.1439  142.1464  154.3108 H   0  0  0  0  0  0  0  0  0  0  0  0
  149.6903  142.8314  155.1646 H   0  0  0  0  0  0  0  0  0  0  0  0
  153.1677  140.2578  160.2538 H   0  0  0  0  0  0  0  0  0  0  0  0
  154.0255  141.1914  159.0492 H   0  0  0  0  0  0  0  0  0  0  0  0
  153.2149  142.6708  160.8593 H   0  0  0  0  0  0  0  0  0  0  0  0
  151.5810  142.0840  160.6642 H   0  0  0  0  0  0  0  0  0  0  0  0
  1  2  1  0  0  0  0
  1 20  1  0  0  0  0
  1 21  1  0  0  0  0
  1 22  1  0  0  0  0
  2 19  1  0  0  0  0
  2  3  1  0  0  0  0
  2 23  1  0  0  0  0
  3  4  1  0  0  0  0
  3 24  1  0  0  0  0
  3 25  1  0  0  0  0
  4  5  1  0  0  0  0
  4 26  1  0  0  0  0
  4 27  1  0  0  0  0
  5  6  1  0  0  0  0
  5 18  1  0  0  0  0
  6  7  2  0  0  0  0
  6  8  2  0  0  0  0
  6  9  1  0  0  0  0
  9 10  1  0  0  0  0
  9 28  1  0  0  0  0
 10 11  1  0  0  0  0
 10 12  1  0  0  0  0
 10 29  1  0  0  0  0
 11 30  1  0  0  0  0
 11 31  1  0  0  0  0
 11 32  1  0  0  0  0
 12 13  1  0  0  0  0
 12 33  1  0  0  0  0
 12 34  1  0  0  0  0
 13 17  1  0  0  0  0
 13 14  1  0  0  0  0
 14 15  2  0  0  0  0
 14 35  1  0  0  0  0
 15 16  1  0  0  0  0
 15 36  1  0  0  0  0
 16 17  2  0  0  0  0
 16 37  1  0  0  0  0
 18 19  1  0  0  0  0
 18 38  1  0  0  0  0
 18 39  1  0  0  0  0
 19 40  1  0  0  0  0
 19 41  1  0  0  0  0
M  END
> <s_m_source_file>
AV-unprocessed.smi

> <i_m_source_file_index>
2010

> <i_lp_mmshare_version>
43012

> <i_f3d_flags>
0

> <s_epik_input>
W0NIM11bQ0hdMVtDSDJdW0NIMl1OKFtDSDJdW0NIMl0xKVMoPU8pKD1PKVtOSF1bQ0BIXShbQ0gzXSlbQ0gyXW4yW2NIXVtjSF1bY0hdbjI=

> <s_epik_cmdline>
J2VwaWtfcHl0aG9uJywgJy1waCcsICc3LjAnLCAnLXRuJywgJzgnLCAnLW1hJywgJzIwMCcsICctbWV0YWxfYmluZGluZycsICctaW1hZScsICc8aW5maWxlLm1hZT4nLCAnLW9tYWUnLCAnPG91dGZpbGUubWFlPic=

> <r_lp_tautomer_probability>
1

> <r_epik_Ionization_Penalty>
0.0313937

> <r_epik_Ionization_Penalty_Charging>
0

> <r_epik_Ionization_Penalty_Neutral>
0.0313937

> <r_epik_State_Penalty>
0.0259441

> <r_epik_Charging_Adjusted_Penalty>
0.0259441

> <i_epik_Tot_Q>
0

> <i_epik_Tot_abs_Q>
0

> <r_epik_Metal_State_Penalty>
0.365037

> <b_epik_Metal_Only>
0

> <s_lp_Force_Field>
OPLS_2005

> <r_lp_Energy>
8.42971

> <b_lp_Chiralities_Consistent>
1

> <s_lp_Variant>
AV-unprocessed.smi:2010-1

> <Gold.Version>
5.8.1

> <Gold.Id.Protein>
6NUR|6NUR_protein|mol2

> <Gold.PLP.Fitness>
42.4492

> <Gold.PLP.PLP>
-34.9408

> <Gold.PLP.part.hbond>
-2.0000

> <Gold.PLP.part.metal>
0.0000

> <Gold.PLP.part.buried>
-3.0837

> <Gold.PLP.part.nonpolar>
-28.4082

> <Gold.PLP.part.repulsive>
0.0920

> <Gold.PLP.ligand.clash>
0.0030

> <Gold.PLP.ligand.torsion>
0.9739

> <Gold.PLP.Chemscore.Hbond>
1.8960

> <Gold.PLP.Chemscore.CHOScore>
1.0000

> <Gold.PLP.Chemscore.Metal>
0.0000

> <Gold.Chemscore.Hbonds>
donor molecule, donor type, donor heavy atom, donor atom, acceptor molecule, acceptor atom, score
      P1  H  7989  7998       L1    17  0.56
      P1  H  7997  8009       L1     7  1.00
      L1  C    16    37       P1  8028  1.00

> <Gold.PLP.Chemscore.Internal.Correction>
0.7711

> <Gold.Rescore>
     Score         DG    S(hbond)    S(metal)    S(lipo)     H(rot)  DE(clash)    DE(int)     intcor
     13.35     -16.68       1.59        0.00      89.36       1.78       0.00       3.33       ----

> <Gold.Chemscore.Fitness>
13.3484

> <Gold.Chemscore.DG>
-16.6848

> <Gold.Chemscore.ZeroCoef>
-5.4800

> <Gold.Chemscore.Hbond>
1.5870

> <Gold.Chemscore.Metal>
0.0000

> <Gold.Chemscore.Lipo>
89.3622

> <Gold.Chemscore.Internal_Hbond>
0.0000

> <Gold.Chemscore.DEClash>
0.0038

> <Gold.Chemscore.DEInternal>
3.3327

> <Gold.Chemscore.Rot>
1.7778

> <Gold.Chemscore.Internal.Correction>
   9.000000E+99

> <Gold.Chemscore.Hbonds>
donor molecule, donor type, donor heavy atom, donor atom, acceptor molecule, acceptor atom, score
      P1  H  7989  7998       L1    17  0.18
      P1  H  7997  8009       L1     7  0.86

> <Gold.Chemscore.Hbond.Weighted>
-5.3006

> <Gold.Chemscore.Metal.Weighted>
-0.0000

> <Gold.Chemscore.Lipo.Weighted>
-10.4554

> <Gold.Chemscore.Internal_Hbond.Weighted>
0.0000

> <Gold.Chemscore.DEClash.Weighted>
0.0038

> <Gold.Chemscore.DEInternal.Weighted>
3.3327

> <Gold.Chemscore.Rot.Weighted>
4.5511

> <Gold.Chemscore.Internal.Correction.Weighted>
   9.000000E+99

> <Gold.Protein.RotatedTorsions>
[ 6907 6896 6895 6894 ] final   11.71 input  -60.11 | X-H torsion
[ 7974 7965 7964 7962 ] final  -44.40 input  175.53 | X-H torsion
[ 8008 7997 7996 7995 ] final  155.61 input   59.86 | X-H torsion
[ 10167 10162 10161 10158 ] final   -3.98 input  -65.29 | X-H torsion
[ 10718 10713 10712 10709 ] final -158.01 input   66.30 | X-H torsion
[ 10763 10752 10751 10750 ] final -115.88 input  -60.55 | X-H torsion
[ 11005 11000 10999 10996 ] final   41.26 input  -57.11 | X-H torsion

> <Gold.Protein.ActiveResidues>
 VAL166  LYS551  ARG553  GLY616  TRP617  ASP618  TYR619  PRO620  LYS621  CYS622 
 ASP623  PHE694  ASN695  SER759  ASP760  ASP761  ALA762  ILE779  LEU786  VAL792 
 PHE793  MET794  SER795  GLU796  ALA797  LYS798  CYS799  TRP800  GLU811  SER814 

> <Gold.Protein.RotatedAtoms>
  151.7586  135.0815  160.0341 H   0  0  0  0  0  0  0  0  0  0  0  0  # atno 6907 bound_to 6896
  152.3368  133.6017  159.5857 H   0  0  0  0  0  0  0  0  0  0  0  0  # atno 6908 bound_to 6896
  150.7455  133.9699  159.3584 H   0  0  0  0  0  0  0  0  0  0  0  0  # atno 6909 bound_to 6896
  145.9924  140.7166  142.9310 H   0  0  0  0  0  0  0  0  0  0  0  0  # atno 7974 bound_to 7965
  156.2469  140.1935  156.6828 H   0  0  0  0  0  0  0  0  0  0  0  0  # atno 8008 bound_to 7997
  154.6309  140.0596  156.9757 H   0  0  0  0  0  0  0  0  0  0  0  0  # atno 8009 bound_to 7997
  155.1712  140.3268  155.4395 H   0  0  0  0  0  0  0  0  0  0  0  0  # atno 8010 bound_to 7997
  140.6910  143.6477  150.8378 H   0  0  0  0  0  0  0  0  0  0  0  0  # atno 10167 bound_to 10162
  156.5482  130.8593  151.2771 H   0  0  0  0  0  0  0  0  0  0  0  0  # atno 10718 bound_to 10713
  154.8498  135.4365  154.1733 H   0  0  0  0  0  0  0  0  0  0  0  0  # atno 10763 bound_to 10752
  153.2841  135.6956  153.7362 H   0  0  0  0  0  0  0  0  0  0  0  0  # atno 10764 bound_to 10752
  153.6555  135.3444  155.3087 H   0  0  0  0  0  0  0  0  0  0  0  0  # atno 10765 bound_to 10752
  140.1851  134.4055  155.8177 H   0  0  0  0  0  0  0  0  0  0  0  0  # atno 11005 bound_to 11000
  144.6893  140.3092  143.7251 LP  0  0  0  0  0  0  0  0  0  0  0  0  # atno 17320 bound_to 7965
  145.7610  139.1825  143.2267 LP  0  0  0  0  0  0  0  0  0  0  0  0  # atno 17321 bound_to 7965
  140.0190  143.5562  152.2808 LP  0  0  0  0  0  0  0  0  0  0  0  0  # atno 17342 bound_to 10162
  139.6314  144.7644  151.2529 LP  0  0  0  0  0  0  0  0  0  0  0  0  # atno 17343 bound_to 10162
  157.7392  130.9828  150.2302 LP  0  0  0  0  0  0  0  0  0  0  0  0  # atno 17370 bound_to 10713
  156.2909  130.3745  149.7842 LP  0  0  0  0  0  0  0  0  0  0  0  0  # atno 17371 bound_to 10713
  141.2224  133.7019  156.7999 LP  0  0  0  0  0  0  0  0  0  0  0  0  # atno 17394 bound_to 11000
  140.2222  134.8748  157.3389 LP  0  0  0  0  0  0  0  0  0  0  0  0  # atno 17395 bound_to 11000

$$$$
