AV-unprocessed.smi:1600|AV-procd|sdf|6428|dock3
  -GOLD-   22720 7 73D 1   1.00000     0.00000
 Structure written by MMmdl.
 46 47  0  0  0  0  0  0  0  0  2 V2000
  151.9298  138.5895  154.7876 C   0  0  0  0  0  0  0  0  0  0  0  0
  150.5249  139.0404  154.5165 C   0  0  0  0  0  0  0  0  0  0  0  0
  149.3727  138.2328  154.2904 C   0  0  0  0  0  0  0  0  0  0  0  0
  148.3862  139.1618  154.1006 C   0  0  0  0  0  0  0  0  0  0  0  0
  147.0650  138.9656  153.8460 N   0  0  0  0  0  0  0  0  0  0  0  0
  146.3449  137.8378  153.9779 C   0  0  0  0  0  0  0  0  0  0  0  0
  146.7762  136.7573  154.3808 O   0  0  0  0  0  0  0  0  0  0  0  0
  145.0740  138.0257  153.5930 N   0  0  0  0  0  0  0  0  0  0  0  0
  144.0249  137.0081  153.6088 C   0  0  0  0  0  0  0  0  0  0  0  0
  143.8267  136.2993  152.2508 C   0  0  1  0  0  0  0  0  0  0  0  0
  145.0782  136.1651  151.3837 C   0  0  0  0  0  0  0  0  0  0  0  0
  144.7558  135.0126  150.4217 C   0  0  0  0  0  0  0  0  0  0  0  0
  143.5575  134.3141  150.9546 N   0  3  1  0  0  0  0  0  0  0  0  0
  143.5946  132.8273  150.8551 C   0  0  0  0  0  0  0  0  0  0  0  0
  144.7057  132.2408  151.7461 C   0  0  0  0  0  0  0  0  0  0  0  0
  143.7986  132.3552  149.4028 C   0  0  0  0  0  0  0  0  0  0  0  0
  143.3162  134.8585  152.3086 C   0  0  0  0  0  0  0  0  0  0  0  0
  148.9326  140.4206  154.2149 N   0  0  0  0  0  0  0  0  0  0  0  0
  148.2928  141.7166  154.0994 C   0  0  0  0  0  0  0  0  0  0  0  0
  150.2565  140.3405  154.4688 N   0  0  0  0  0  0  0  0  0  0  0  0
  151.9743  137.5112  154.9418 H   0  0  0  0  0  0  0  0  0  0  0  0
  152.3321  139.0680  155.6809 H   0  0  0  0  0  0  0  0  0  0  0  0
  152.5870  138.8323  153.9525 H   0  0  0  0  0  0  0  0  0  0  0  0
  149.3048  137.1556  154.2769 H   0  0  0  0  0  0  0  0  0  0  0  0
  146.5721  139.7709  153.4891 H   0  0  0  0  0  0  0  0  0  0  0  0
  144.8063  138.9467  153.2766 H   0  0  0  0  0  0  0  0  0  0  0  0
  144.2186  136.2695  154.3885 H   0  0  0  0  0  0  0  0  0  0  0  0
  143.0953  137.5015  153.8931 H   0  0  0  0  0  0  0  0  0  0  0  0
  143.0962  136.8788  151.6837 H   0  0  0  0  0  0  0  0  0  0  0  0
  145.3234  137.0903  150.8610 H   0  0  0  0  0  0  0  0  0  0  0  0
  145.9418  135.8919  151.9911 H   0  0  0  0  0  0  0  0  0  0  0  0
  144.5325  135.3838  149.4210 H   0  0  0  0  0  0  0  0  0  0  0  0
  145.6168  134.3470  150.3444 H   0  0  0  0  0  0  0  0  0  0  0  0
  142.6351  132.4404  151.2022 H   0  0  0  0  0  0  0  0  0  0  0  0
  144.7392  131.1539  151.6633 H   0  0  0  0  0  0  0  0  0  0  0  0
  144.5552  132.4732  152.8001 H   0  0  0  0  0  0  0  0  0  0  0  0
  145.6856  132.6230  151.4583 H   0  0  0  0  0  0  0  0  0  0  0  0
  143.8702  131.2681  149.3532 H   0  0  0  0  0  0  0  0  0  0  0  0
  144.7147  132.7653  148.9766 H   0  0  0  0  0  0  0  0  0  0  0  0
  142.9690  132.6437  148.7574 H   0  0  0  0  0  0  0  0  0  0  0  0
  143.8870  134.2720  153.0287 H   0  0  0  0  0  0  0  0  0  0  0  0
  142.2630  134.8091  152.5861 H   0  0  0  0  0  0  0  0  0  0  0  0
  147.8281  141.8096  153.1175 H   0  0  0  0  0  0  0  0  0  0  0  0
  149.0224  142.5181  154.2227 H   0  0  0  0  0  0  0  0  0  0  0  0
  147.5264  141.8158  154.8681 H   0  0  0  0  0  0  0  0  0  0  0  0
  142.7796  134.6278  150.3920 H   0  0  0  0  0  0  0  0  0  0  0  0
  1  2  1  0  0  0  0
  1 21  1  0  0  0  0
  1 22  1  0  0  0  0
  1 23  1  0  0  0  0
  2 20  2  0  0  0  0
  2  3  1  0  0  0  0
  3  4  2  0  0  0  0
  3 24  1  0  0  0  0
  4  5  1  0  0  0  0
  4 18  1  0  0  0  0
  5  6  1  0  0  0  0
  5 25  1  0  0  0  0
  6  7  2  0  0  0  0
  6  8  1  0  0  0  0
  8  9  1  0  0  0  0
  8 26  1  0  0  0  0
  9 10  1  0  0  0  0
  9 27  1  0  0  0  0
  9 28  1  0  0  0  0
 10 17  1  0  0  0  0
 10 11  1  0  0  0  0
 10 29  1  0  0  0  0
 11 12  1  0  0  0  0
 11 30  1  0  0  0  0
 11 31  1  0  0  0  0
 12 13  1  0  0  0  0
 12 32  1  0  0  0  0
 12 33  1  0  0  0  0
 13 14  1  0  0  0  0
 13 17  1  0  0  0  0
 13 46  1  0  0  0  0
 14 15  1  0  0  0  0
 14 16  1  0  0  0  0
 14 34  1  0  0  0  0
 15 35  1  0  0  0  0
 15 36  1  0  0  0  0
 15 37  1  0  0  0  0
 16 38  1  0  0  0  0
 16 39  1  0  0  0  0
 16 40  1  0  0  0  0
 17 41  1  0  0  0  0
 17 42  1  0  0  0  0
 18 19  1  0  0  0  0
 18 20  1  0  0  0  0
 19 43  1  0  0  0  0
 19 44  1  0  0  0  0
 19 45  1  0  0  0  0
M  CHG  1  13   1
M  END
> <s_m_source_file>
AV-unprocessed.smi

> <i_m_source_file_index>
1600

> <i_lp_mmshare_version>
43012

> <i_f3d_flags>
0

> <s_epik_input>
W0NIM11jMVtjSF1jKG4objEpW0NIM10pW05IXUMoPU8pW05IXVtDSDJdW0NAQEhdMltDSDJdW0NIMl1OKFtDSDJdMilbQ0hdKFtDSDNdKVtDSDNd

> <s_epik_cmdline>
J2VwaWtfcHl0aG9uJywgJy1waCcsICc3LjAnLCAnLXRuJywgJzgnLCAnLW1hJywgJzIwMCcsICctbWV0YWxfYmluZGluZycsICctaW1hZScsICc8aW5maWxlLm1hZT4nLCAnLW9tYWUnLCAnPG91dGZpbGUubWFlPic=

> <r_lp_tautomer_probability>
1

> <r_epik_Ionization_Penalty>
0.000297652

> <r_epik_Ionization_Penalty_Charging>
0.000213653

> <r_epik_Ionization_Penalty_Neutral>
8.3999e-05

> <r_epik_State_Penalty>
-0

> <r_epik_Charging_Adjusted_Penalty>
0.000213653

> <i_epik_Tot_Q>
1

> <i_epik_Tot_abs_Q>
1

> <r_epik_Metal_State_Penalty>
-0

> <b_epik_Metal_Only>
0

> <s_lp_Force_Field>
OPLS_2005

> <r_lp_Energy>
33.4544

> <b_lp_Chiralities_Consistent>
1

> <s_lp_Variant>
AV-unprocessed.smi:1600-2

> <Gold.Version>
5.8.1

> <Gold.Id.Protein>
6NUR|6NUR_protein|mol2

> <Gold.PLP.Fitness>
48.4799

> <Gold.PLP.PLP>
-37.7397

> <Gold.PLP.part.hbond>
-3.0000

> <Gold.PLP.part.metal>
0.0000

> <Gold.PLP.part.buried>
-1.6771

> <Gold.PLP.part.nonpolar>
-33.6862

> <Gold.PLP.part.repulsive>
0.1907

> <Gold.PLP.ligand.clash>
0.0000

> <Gold.PLP.ligand.torsion>
0.5883

> <Gold.PLP.Chemscore.Hbond>
3.9588

> <Gold.PLP.Chemscore.CHOScore>
0.0000

> <Gold.PLP.Chemscore.Metal>
0.0000

> <Gold.Chemscore.Hbonds>
donor molecule, donor type, donor heavy atom, donor atom, acceptor molecule, acceptor atom, score
      L1  H     8    26       P1 10175  0.94
      L1  H    13    46       P1 10186  2.00
      P1  H  7989  7998       L1    20  1.00

> <Gold.PLP.Chemscore.Internal.Correction>
0.0405

> <Gold.Rescore>
     Score         DG    S(hbond)    S(metal)    S(lipo)     H(rot)  DE(clash)    DE(int)     intcor
     16.10     -18.57       2.15        0.00      81.93       1.44       0.77       1.70       ----

> <Gold.Chemscore.Fitness>
16.1009

> <Gold.Chemscore.DG>
-18.5728

> <Gold.Chemscore.ZeroCoef>
-5.4800

> <Gold.Chemscore.Hbond>
2.1512

> <Gold.Chemscore.Metal>
0.0000

> <Gold.Chemscore.Lipo>
81.9342

> <Gold.Chemscore.Internal_Hbond>
0.0000

> <Gold.Chemscore.DEClash>
0.7701

> <Gold.Chemscore.DEInternal>
1.7018

> <Gold.Chemscore.Rot>
1.4369

> <Gold.Chemscore.Internal.Correction>
   9.000000E+99

> <Gold.Chemscore.Hbonds>
donor molecule, donor type, donor heavy atom, donor atom, acceptor molecule, acceptor atom, score
      L1  H     8    26       P1 10175  0.90
      L1  H    13    46       P1 10186  0.38
      P1  H  7989  7998       L1    20  0.24

> <Gold.Chemscore.Hbond.Weighted>
-7.1850

> <Gold.Chemscore.Metal.Weighted>
-0.0000

> <Gold.Chemscore.Lipo.Weighted>
-9.5863

> <Gold.Chemscore.Internal_Hbond.Weighted>
0.0000

> <Gold.Chemscore.DEClash.Weighted>
0.7701

> <Gold.Chemscore.DEInternal.Weighted>
1.7018

> <Gold.Chemscore.Rot.Weighted>
3.6785

> <Gold.Chemscore.Internal.Correction.Weighted>
   9.000000E+99

> <Gold.Protein.RotatedTorsions>
[ 6907 6896 6895 6894 ] final  129.20 input  -60.11 | X-H torsion
[ 7974 7965 7964 7962 ] final  147.96 input  175.53 | X-H torsion
[ 8008 7997 7996 7995 ] final -124.75 input   59.86 | X-H torsion
[ 10167 10162 10161 10158 ] final   79.93 input  -65.29 | X-H torsion
[ 10718 10713 10712 10709 ] final  -63.26 input   66.30 | X-H torsion
[ 10763 10752 10751 10750 ] final   83.07 input  -60.55 | X-H torsion
[ 11005 11000 10999 10996 ] final  -81.51 input  -57.11 | X-H torsion

> <Gold.Protein.ActiveResidues>
 VAL166  LYS551  ARG553  GLY616  TRP617  ASP618  TYR619  PRO620  LYS621  CYS622 
 ASP623  PHE694  ASN695  SER759  ASP760  ASP761  ALA762  ILE779  LEU786  VAL792 
 PHE793  MET794  SER795  GLU796  ALA797  LYS798  CYS799  TRP800  GLU811  SER814 

> <Gold.Protein.RotatedAtoms>
  152.3647  133.6341  159.6041 H   0  0  0  0  0  0  0  0  0  0  0  0  # atno 6907 bound_to 6896
  150.7625  133.9367  159.3452 H   0  0  0  0  0  0  0  0  0  0  0  0  # atno 6908 bound_to 6896
  151.7200  135.0897  160.0333 H   0  0  0  0  0  0  0  0  0  0  0  0  # atno 6909 bound_to 6896
  144.8551  139.6094  143.5956 H   0  0  0  0  0  0  0  0  0  0  0  0  # atno 7974 bound_to 7965
  155.2019  140.0416  157.2919 H   0  0  0  0  0  0  0  0  0  0  0  0  # atno 8008 bound_to 7997
  154.6069  140.2466  155.7691 H   0  0  0  0  0  0  0  0  0  0  0  0  # atno 8009 bound_to 7997
  156.2355  140.2923  156.0311 H   0  0  0  0  0  0  0  0  0  0  0  0  # atno 8010 bound_to 7997
  139.9551  144.5999  150.8124 H   0  0  0  0  0  0  0  0  0  0  0  0  # atno 10167 bound_to 10162
  156.0802  130.4218  150.1252 H   0  0  0  0  0  0  0  0  0  0  0  0  # atno 10718 bound_to 10713
  153.1259  135.4705  154.9270 H   0  0  0  0  0  0  0  0  0  0  0  0  # atno 10763 bound_to 10752
  154.7619  135.3134  154.8364 H   0  0  0  0  0  0  0  0  0  0  0  0  # atno 10764 bound_to 10752
  153.8917  135.6884  153.4814 H   0  0  0  0  0  0  0  0  0  0  0  0  # atno 10765 bound_to 10752
  141.1666  133.7200  156.8433 H   0  0  0  0  0  0  0  0  0  0  0  0  # atno 11005 bound_to 11000
  146.2816  139.6892  142.9225 LP  0  0  0  0  0  0  0  0  0  0  0  0  # atno 17320 bound_to 7965
  145.4423  141.0423  143.2850 LP  0  0  0  0  0  0  0  0  0  0  0  0  # atno 17321 bound_to 7965
  140.7571  143.3079  151.2917 LP  0  0  0  0  0  0  0  0  0  0  0  0  # atno 17342 bound_to 10162
  139.6598  144.0211  152.2684 LP  0  0  0  0  0  0  0  0  0  0  0  0  # atno 17343 bound_to 10162
  156.9285  130.9706  151.3537 LP  0  0  0  0  0  0  0  0  0  0  0  0  # atno 17370 bound_to 10713
  157.5915  130.8447  149.8667 LP  0  0  0  0  0  0  0  0  0  0  0  0  # atno 17371 bound_to 10713
  140.1968  134.8926  157.3123 LP  0  0  0  0  0  0  0  0  0  0  0  0  # atno 17394 bound_to 11000
  140.2231  134.4000  155.7556 LP  0  0  0  0  0  0  0  0  0  0  0  0  # atno 17395 bound_to 11000

$$$$
