AV-unprocessed.smi:1072|AV-procd|sdf|4685|dock9
  -GOLD-   22720 3203D 1   1.00000     0.00000
 Structure written by MMmdl.
 46 47  0  0  0  0  0  0  0  0  1 V2000
  147.0966  132.5528  161.7522 C   0  0  0  0  0  0  0  0  0  0  0  0
  147.4672  133.8776  161.1211 C   0  0  0  0  0  0  0  0  0  0  0  0
  147.9616  133.7612  159.8323 N   0  0  0  0  0  0  0  0  0  0  0  0
  148.3321  134.9206  159.1739 C   0  0  0  0  0  0  0  0  0  0  0  0
  148.8673  134.7054  157.7687 C   0  0  0  0  0  0  0  0  0  0  0  0
  148.2097  136.1353  159.7671 C   0  0  0  0  0  0  0  0  0  0  0  0
  148.6034  137.4376  159.0708 C   0  0  0  0  0  0  0  0  0  0  0  0
  150.0661  137.5431  158.6325 C   0  0  0  0  0  0  0  0  0  0  0  0
  150.8733  136.6741  158.9610 O   0  0  0  0  0  0  0  0  0  0  0  0
  150.3818  138.6216  157.8940 N   0  0  0  0  0  0  0  0  0  0  0  0
  151.6901  139.0047  157.3428 C   0  0  1  0  0  0  0  0  0  0  0  0
  152.4741  137.7404  156.9285 C   0  0  0  0  0  0  0  0  0  0  0  0
  151.5434  139.9690  156.1358 C   0  0  0  0  0  0  0  0  0  0  0  0
  150.9032  141.3148  156.5203 C   0  0  0  0  0  0  0  0  0  0  0  0
  151.6970  142.0169  157.6366 C   0  0  1  0  0  0  0  0  0  0  0  0
  151.0550  143.3555  158.0265 C   0  0  0  0  0  0  0  0  0  0  0  0
  151.8484  141.0857  158.8531 C   0  0  0  0  0  0  0  0  0  0  0  0
  152.4749  139.7341  158.4601 C   0  0  0  0  0  0  0  0  0  0  0  0
  147.6635  136.1971  161.1435 C   0  0  0  0  0  0  0  0  0  0  0  0
  147.5124  137.2685  161.7289 O   0  0  0  0  0  0  0  0  0  0  0  0
  147.3120  134.9908  161.7711 N   0  0  0  0  0  0  0  0  0  0  0  0
  148.0657  132.8785  159.3528 H   0  0  0  0  0  0  0  0  0  0  0  0
  146.8781  132.6749  162.8138 H   0  0  0  0  0  0  0  0  0  0  0  0
  147.9150  131.8387  161.6543 H   0  0  0  0  0  0  0  0  0  0  0  0
  146.2129  132.1375  161.2670 H   0  0  0  0  0  0  0  0  0  0  0  0
  149.8953  135.0599  157.6939 H   0  0  0  0  0  0  0  0  0  0  0  0
  148.2607  135.2466  157.0421 H   0  0  0  0  0  0  0  0  0  0  0  0
  148.8569  133.6504  157.4922 H   0  0  0  0  0  0  0  0  0  0  0  0
  148.3827  138.2640  159.7473 H   0  0  0  0  0  0  0  0  0  0  0  0
  147.9724  137.6175  158.1999 H   0  0  0  0  0  0  0  0  0  0  0  0
  149.6260  139.2585  157.6874 H   0  0  0  0  0  0  0  0  0  0  0  0
  153.4833  137.9923  156.6009 H   0  0  0  0  0  0  0  0  0  0  0  0
  151.9960  137.2127  156.1033 H   0  0  0  0  0  0  0  0  0  0  0  0
  152.5657  137.0400  157.7595 H   0  0  0  0  0  0  0  0  0  0  0  0
  152.5296  140.1639  155.7120 H   0  0  0  0  0  0  0  0  0  0  0  0
  150.9702  139.5085  155.3313 H   0  0  0  0  0  0  0  0  0  0  0  0
  150.8556  141.9572  155.6405 H   0  0  0  0  0  0  0  0  0  0  0  0
  149.8717  141.1571  156.8380 H   0  0  0  0  0  0  0  0  0  0  0  0
  152.6957  142.2320  157.2536 H   0  0  0  0  0  0  0  0  0  0  0  0
  150.0452  143.2140  158.4130 H   0  0  0  0  0  0  0  0  0  0  0  0
  150.9919  144.0250  157.1681 H   0  0  0  0  0  0  0  0  0  0  0  0
  151.6389  143.8614  158.7957 H   0  0  0  0  0  0  0  0  0  0  0  0
  152.4695  141.5650  159.6105 H   0  0  0  0  0  0  0  0  0  0  0  0
  150.8753  140.9221  159.3181 H   0  0  0  0  0  0  0  0  0  0  0  0
  152.5517  139.0981  159.3433 H   0  0  0  0  0  0  0  0  0  0  0  0
  153.4998  139.9105  158.1298 H   0  0  0  0  0  0  0  0  0  0  0  0
  1 23  1  0  0  0  0
  1 24  1  0  0  0  0
  1 25  1  0  0  0  0
  1  2  1  0  0  0  0
  2  3  1  0  0  0  0
  2 21  2  0  0  0  0
  3  4  1  0  0  0  0
  3 22  1  0  0  0  0
  4  6  2  0  0  0  0
  4  5  1  0  0  0  0
  5 26  1  0  0  0  0
  5 27  1  0  0  0  0
  5 28  1  0  0  0  0
  6 19  1  0  0  0  0
  6  7  1  0  0  0  0
  7  8  1  0  0  0  0
  7 29  1  0  0  0  0
  7 30  1  0  0  0  0
  8  9  2  0  0  0  0
  8 10  1  0  0  0  0
 10 11  1  0  0  0  0
 10 31  1  0  0  0  0
 11 18  1  0  0  0  0
 11 12  1  0  0  0  0
 11 13  1  0  0  0  0
 12 32  1  0  0  0  0
 12 33  1  0  0  0  0
 12 34  1  0  0  0  0
 13 14  1  0  0  0  0
 13 35  1  0  0  0  0
 13 36  1  0  0  0  0
 14 15  1  0  0  0  0
 14 37  1  0  0  0  0
 14 38  1  0  0  0  0
 15 16  1  0  0  0  0
 15 17  1  0  0  0  0
 15 39  1  0  0  0  0
 16 40  1  0  0  0  0
 16 41  1  0  0  0  0
 16 42  1  0  0  0  0
 17 18  1  0  0  0  0
 17 43  1  0  0  0  0
 17 44  1  0  0  0  0
 18 45  1  0  0  0  0
 18 46  1  0  0  0  0
 19 20  2  0  0  0  0
 19 21  1  0  0  0  0
M  END
> <s_m_source_file>
AV-unprocessed.smi

> <i_m_source_file_index>
1072

> <i_lp_mmshare_version>
43012

> <i_f3d_flags>
0

> <s_epik_input>
W0NIM11jMW5jKFtDSDNdKWMoYyg9TylbbkhdMSlbQ0gyXUMoPU8pW05IXVtDQEBdMihbQ0gzXSlbQ0gyXVtDSDJdW0NAQEhdKFtDSDNdKVtDSDJdW0NIMl0y

> <s_epik_cmdline>
J2VwaWtfcHl0aG9uJywgJy1waCcsICc3LjAnLCAnLXRuJywgJzgnLCAnLW1hJywgJzIwMCcsICctbWV0YWxfYmluZGluZycsICctaW1hZScsICc8aW5maWxlLm1hZT4nLCAnLW9tYWUnLCAnPG91dGZpbGUubWFlPic=

> <r_lp_tautomer_probability>
0.156392

> <r_epik_Ionization_Penalty>
0.0131066

> <r_epik_Ionization_Penalty_Charging>
0.0129643

> <r_epik_Ionization_Penalty_Neutral>
0.000142248

> <r_epik_State_Penalty>
1.15342

> <r_epik_Charging_Adjusted_Penalty>
1.16638

> <i_epik_Tot_Q>
0

> <i_epik_Tot_abs_Q>
0

> <r_epik_Metal_State_Penalty>
1.30766

> <b_epik_Metal_Only>
0

> <s_lp_Force_Field>
OPLS_2005

> <r_lp_Energy>
14.6826

> <b_lp_Chiralities_Consistent>
1

> <s_lp_Variant>
AV-unprocessed.smi:1072-3

> <Gold.Version>
5.8.1

> <Gold.Id.Protein>
6NUR|6NUR_protein|mol2

> <Gold.PLP.Fitness>
38.4507

> <Gold.PLP.PLP>
-31.5670

> <Gold.PLP.part.hbond>
-3.0000

> <Gold.PLP.part.metal>
0.0000

> <Gold.PLP.part.buried>
-5.2508

> <Gold.PLP.part.nonpolar>
-23.1442

> <Gold.PLP.part.repulsive>
0.1428

> <Gold.PLP.ligand.clash>
0.0000

> <Gold.PLP.ligand.torsion>
0.5449

> <Gold.PLP.Chemscore.Hbond>
2.6560

> <Gold.PLP.Chemscore.CHOScore>
0.0000

> <Gold.PLP.Chemscore.Metal>
0.0000

> <Gold.Chemscore.Hbonds>
donor molecule, donor type, donor heavy atom, donor atom, acceptor molecule, acceptor atom, score
      P1  H  6896  6908       L1     9  0.93
      P1  H  6931  6943       L1    20  0.91
      P1  H  6934  6947       L1    20  0.75

> <Gold.PLP.Chemscore.Internal.Correction>
0.0054

> <Gold.Rescore>
     Score         DG    S(hbond)    S(metal)    S(lipo)     H(rot)  DE(clash)    DE(int)     intcor
     16.30     -18.19       2.48        0.00      69.98       1.47       0.12       1.76       ----

> <Gold.Chemscore.Fitness>
16.2990

> <Gold.Chemscore.DG>
-18.1853

> <Gold.Chemscore.ZeroCoef>
-5.4800

> <Gold.Chemscore.Hbond>
2.4785

> <Gold.Chemscore.Metal>
0.0000

> <Gold.Chemscore.Lipo>
69.9802

> <Gold.Chemscore.Internal_Hbond>
0.0000

> <Gold.Chemscore.DEClash>
0.1214

> <Gold.Chemscore.DEInternal>
1.7649

> <Gold.Chemscore.Rot>
1.4690

> <Gold.Chemscore.Internal.Correction>
   9.000000E+99

> <Gold.Chemscore.Hbonds>
donor molecule, donor type, donor heavy atom, donor atom, acceptor molecule, acceptor atom, score
      P1  H  6896  6908       L1     9  0.89
      P1  H  6931  6943       L1    20  0.81
      P1  H  6934  6947       L1    20  0.75

> <Gold.Chemscore.Hbond.Weighted>
-8.2783

> <Gold.Chemscore.Metal.Weighted>
-0.0000

> <Gold.Chemscore.Lipo.Weighted>
-8.1877

> <Gold.Chemscore.Internal_Hbond.Weighted>
0.0000

> <Gold.Chemscore.DEClash.Weighted>
0.1214

> <Gold.Chemscore.DEInternal.Weighted>
1.7649

> <Gold.Chemscore.Rot.Weighted>
3.7607

> <Gold.Chemscore.Internal.Correction.Weighted>
   9.000000E+99

> <Gold.Protein.RotatedTorsions>
[ 6907 6896 6895 6894 ] final -161.52 input  -60.11 | X-H torsion
[ 7974 7965 7964 7962 ] final -113.00 input  175.53 | X-H torsion
[ 8008 7997 7996 7995 ] final   -0.88 input   59.86 | X-H torsion
[ 10167 10162 10161 10158 ] final -127.82 input  -65.29 | X-H torsion
[ 10718 10713 10712 10709 ] final  115.78 input   66.30 | X-H torsion
[ 10763 10752 10751 10750 ] final  149.84 input  -60.55 | X-H torsion
[ 11005 11000 10999 10996 ] final   76.43 input  -57.11 | X-H torsion

> <Gold.Protein.ActiveResidues>
 VAL166  LYS551  ARG553  GLY616  TRP617  ASP618  TYR619  PRO620  LYS621  CYS622 
 ASP623  PHE694  ASN695  SER759  ASP760  ASP761  ALA762  ILE779  LEU786  VAL792 
 PHE793  MET794  SER795  GLU796  ALA797  LYS798  CYS799  TRP800  GLU811  SER814 

> <Gold.Protein.RotatedAtoms>
  151.3659  133.3872  159.2694 H   0  0  0  0  0  0  0  0  0  0  0  0  # atno 6907 bound_to 6896
  150.9689  134.9066  159.7786 H   0  0  0  0  0  0  0  0  0  0  0  0  # atno 6908 bound_to 6896
  152.5177  134.3620  159.9340 H   0  0  0  0  0  0  0  0  0  0  0  0  # atno 6909 bound_to 6896
  145.1372  140.8758  143.3723 H   0  0  0  0  0  0  0  0  0  0  0  0  # atno 7974 bound_to 7965
  154.6530  140.2573  155.7193 H   0  0  0  0  0  0  0  0  0  0  0  0  # atno 8008 bound_to 7997
  156.2584  140.2864  156.0892 H   0  0  0  0  0  0  0  0  0  0  0  0  # atno 8009 bound_to 7997
  155.1422  140.0380  157.2791 H   0  0  0  0  0  0  0  0  0  0  0  0  # atno 8010 bound_to 7997
  139.9568  143.5994  152.2458 H   0  0  0  0  0  0  0  0  0  0  0  0  # atno 10167 bound_to 10162
  157.6201  131.1017  150.7379 H   0  0  0  0  0  0  0  0  0  0  0  0  # atno 10718 bound_to 10713
  154.0776  135.2862  155.3296 H   0  0  0  0  0  0  0  0  0  0  0  0  # atno 10763 bound_to 10752
  154.6705  135.5301  153.8135 H   0  0  0  0  0  0  0  0  0  0  0  0  # atno 10764 bound_to 10752
  153.0461  135.6556  154.0954 H   0  0  0  0  0  0  0  0  0  0  0  0  # atno 10765 bound_to 10752
  139.9299  134.7600  156.1394 H   0  0  0  0  0  0  0  0  0  0  0  0  # atno 11005 bound_to 11000
  145.0571  139.3135  143.5899 LP  0  0  0  0  0  0  0  0  0  0  0  0  # atno 17320 bound_to 7965
  146.3508  140.0000  142.8677 LP  0  0  0  0  0  0  0  0  0  0  0  0  # atno 17321 bound_to 7965
  139.6585  144.7662  151.2009 LP  0  0  0  0  0  0  0  0  0  0  0  0  # atno 17342 bound_to 10162
  140.7565  143.6048  150.8664 LP  0  0  0  0  0  0  0  0  0  0  0  0  # atno 17343 bound_to 10162
  156.7739  130.4837  149.5413 LP  0  0  0  0  0  0  0  0  0  0  0  0  # atno 17370 bound_to 10713
  156.1342  130.6199  151.0376 LP  0  0  0  0  0  0  0  0  0  0  0  0  # atno 17371 bound_to 10713
  141.0881  133.6726  156.2479 LP  0  0  0  0  0  0  0  0  0  0  0  0  # atno 17394 bound_to 11000
  140.6232  134.5340  157.5550 LP  0  0  0  0  0  0  0  0  0  0  0  0  # atno 17395 bound_to 11000

$$$$
