AV-unprocessed.smi:72|AV-procd|sdf|706|dock4
  -GOLD-   2262017 23D 1   1.00000     0.00000
 Structure written by MMmdl.
 30 31  0  0  0  0  0  0  0  0  2 V2000
  150.6320  135.5505  155.3346 N   0  0  0  0  0  0  0  0  0  0  0  0
  150.3462  136.8974  155.4139 C   0  0  0  0  0  0  0  0  0  0  0  0
  150.0159  137.5545  154.2434 N   0  3  0  0  0  0  0  0  0  0  0  0
  149.6871  138.8501  154.1540 C   0  0  0  0  0  0  0  0  0  0  0  0
  149.6240  139.5762  155.2540 N   0  0  0  0  0  0  0  0  0  0  0  0
  149.2541  141.0426  155.2100 C   0  0  1  0  0  0  0  0  0  0  0  0
  148.9707  141.3820  153.8841 O   0  0  0  0  0  0  0  0  0  0  0  0
  147.5646  141.4356  153.6473 C   0  0  1  0  0  0  0  0  0  0  0  0
  147.0074  140.0438  153.2613 C   0  0  0  0  0  0  0  0  0  0  0  0
  147.4473  139.6914  151.9675 O   0  0  0  0  0  0  0  0  0  0  0  0
  147.0585  141.9957  154.9826 C   0  0  1  0  0  0  0  0  0  0  0  0
  145.6986  141.6963  155.2301 O   0  0  0  0  0  0  0  0  0  0  0  0
  147.9740  141.3549  156.0204 C   0  0  2  0  0  0  0  0  0  0  0  0
  148.2252  142.2753  157.0635 O   0  0  0  0  0  0  0  0  0  0  0  0
  150.0451  139.0108  156.4868 C   0  0  0  0  0  0  0  0  0  0  0  0
  150.1189  139.7039  157.4998 O   0  0  0  0  0  0  0  0  0  0  0  0
  150.3650  137.6455  156.4816 N   0  0  0  0  0  0  0  0  0  0  0  0
  150.1496  141.5636  155.5530 H   0  0  0  0  0  0  0  0  0  0  0  0
  147.3500  142.1430  152.8450 H   0  0  0  0  0  0  0  0  0  0  0  0
  147.1914  143.0791  154.9777 H   0  0  0  0  0  0  0  0  0  0  0  0
  147.5357  140.4356  156.4123 H   0  0  0  0  0  0  0  0  0  0  0  0
  150.8949  134.9935  156.1355 H   0  0  0  0  0  0  0  0  0  0  0  0
  150.6027  135.0157  154.4784 H   0  0  0  0  0  0  0  0  0  0  0  0
  149.4990  139.2701  153.1751 H   0  0  0  0  0  0  0  0  0  0  0  0
  147.2688  139.2675  153.9788 H   0  0  0  0  0  0  0  0  0  0  0  0
  145.9190  140.0694  153.2127 H   0  0  0  0  0  0  0  0  0  0  0  0
  148.3914  139.7362  151.9468 H   0  0  0  0  0  0  0  0  0  0  0  0
  145.6069  140.7592  155.3153 H   0  0  0  0  0  0  0  0  0  0  0  0
  148.7011  143.0116  156.7109 H   0  0  0  0  0  0  0  0  0  0  0  0
  150.0311  137.0145  153.3899 H   0  0  0  0  0  0  0  0  0  0  0  0
  1  2  1  0  0  0  0
  1 22  1  0  0  0  0
  1 23  1  0  0  0  0
  2 17  2  0  0  0  0
  2  3  1  0  0  0  0
  3  4  2  0  0  0  0
  3 30  1  0  0  0  0
  4  5  1  0  0  0  0
  4 24  1  0  0  0  0
  5  6  1  0  0  0  0
  5 15  1  0  0  0  0
  6 18  1  0  0  0  0
  6 13  1  0  0  0  0
  6  7  1  0  0  0  0
  7  8  1  0  0  0  0
  8 19  1  0  0  0  0
  8  9  1  0  0  0  0
  8 11  1  0  0  0  0
  9 10  1  0  0  0  0
  9 25  1  0  0  0  0
  9 26  1  0  0  0  0
 10 27  1  0  0  0  0
 11 20  1  0  0  0  0
 11 12  1  0  0  0  0
 11 13  1  0  0  0  0
 12 28  1  0  0  0  0
 13 21  1  0  0  0  0
 13 14  1  0  0  0  0
 14 29  1  0  0  0  0
 15 16  2  0  0  0  0
 15 17  1  0  0  0  0
M  CHG  1   3   1
M  END
> <s_m_source_file>
AV-unprocessed.smi

> <i_m_source_file_index>
72

> <i_lp_mmshare_version>
43012

> <i_f3d_flags>
0

> <s_epik_input>
W05IMl1jMW5bY0hdbihjKD1PKW4xKVtDQEBIXTJPW0NASF0oW0NIMl1bT0hdKVtDQEBIXShbT0hdKVtDQEhdMltPSF0=

> <s_epik_cmdline>
J2VwaWtfcHl0aG9uJywgJy1waCcsICc3LjAnLCAnLXRuJywgJzgnLCAnLW1hJywgJzIwMCcsICctbWV0YWxfYmluZGluZycsICctaW1hZScsICc8aW5maWxlLm1hZT4nLCAnLW9tYWUnLCAnPG91dGZpbGUubWFlPic=

> <r_lp_tautomer_probability>
4.77166e-05

> <r_epik_Ionization_Penalty>
0.104979

> <r_epik_Ionization_Penalty_Charging>
0.0999619

> <r_epik_Ionization_Penalty_Neutral>
0.00501745

> <r_epik_State_Penalty>
2.51541

> <r_epik_Charging_Adjusted_Penalty>
2.61537

> <i_epik_Tot_Q>
1

> <i_epik_Tot_abs_Q>
1

> <r_epik_Metal_State_Penalty>
3.53763

> <b_epik_Metal_Only>
0

> <s_epik_Chemistry_Notes>
This compound contains an acetal/aminal-like group ( X-CH(R)-Y where X, Y are N, S, or O) that may be acid/base labile, releasing an aldehyde.

> <s_lp_Force_Field>
OPLS_2005

> <r_lp_Energy>
30.8227

> <b_lp_Chiralities_Consistent>
1

> <s_lp_Variant>
AV-unprocessed.smi:72-44

> <Gold.Version>
5.8.1

> <Gold.Id.Protein>
6NUR|6NUR_protein|mol2

> <Gold.PLP.Fitness>
39.8835

> <Gold.PLP.PLP>
-22.5704

> <Gold.PLP.part.hbond>
-4.0899

> <Gold.PLP.part.metal>
0.0000

> <Gold.PLP.part.buried>
-5.6235

> <Gold.PLP.part.nonpolar>
-14.6518

> <Gold.PLP.part.repulsive>
0.9653

> <Gold.PLP.ligand.clash>
0.0000

> <Gold.PLP.ligand.torsion>
0.0740

> <Gold.PLP.Chemscore.Hbond>
4.8000

> <Gold.PLP.Chemscore.CHOScore>
1.0000

> <Gold.PLP.Chemscore.Metal>
0.0000

> <Gold.Chemscore.Hbonds>
donor molecule, donor type, donor heavy atom, donor atom, acceptor molecule, acceptor atom, score
      L1  H     3    30       P1  7948  1.82
      L1  H    10    27       P1  7957  0.76
      L1  H    14    29       P1  8028  1.00
      P1  H  8011  8017       L1     7  0.76
      L1  C     4    24       P1  7957  1.00

> <Gold.PLP.Chemscore.Internal.Correction>
0.0610

> <Gold.Rescore>
     Score         DG    S(hbond)    S(metal)    S(lipo)     H(rot)  DE(clash)    DE(int)     intcor
      8.02      -9.42       3.48        0.00      23.53       4.08       0.32       1.09       ----

> <Gold.Chemscore.Fitness>
8.0203

> <Gold.Chemscore.DG>
-9.4247

> <Gold.Chemscore.ZeroCoef>
-5.4800

> <Gold.Chemscore.Hbond>
3.4826

> <Gold.Chemscore.Metal>
0.0000

> <Gold.Chemscore.Lipo>
23.5325

> <Gold.Chemscore.Internal_Hbond>
0.0000

> <Gold.Chemscore.DEClash>
0.3156

> <Gold.Chemscore.DEInternal>
1.0887

> <Gold.Chemscore.Rot>
4.0783

> <Gold.Chemscore.Internal.Correction>
   9.000000E+99

> <Gold.Chemscore.Hbonds>
donor molecule, donor type, donor heavy atom, donor atom, acceptor molecule, acceptor atom, score
      L1  H     3    30       P1  7948  0.19
      L1  H    10    27       P1  7957  0.72
      L1  H    14    29       P1  8028  0.79
      P1  H  8011  8017       L1     7  0.35

> <Gold.Chemscore.Hbond.Weighted>
-11.6318

> <Gold.Chemscore.Metal.Weighted>
-0.0000

> <Gold.Chemscore.Lipo.Weighted>
-2.7533

> <Gold.Chemscore.Internal_Hbond.Weighted>
0.0000

> <Gold.Chemscore.DEClash.Weighted>
0.3156

> <Gold.Chemscore.DEInternal.Weighted>
1.0887

> <Gold.Chemscore.Rot.Weighted>
10.4404

> <Gold.Chemscore.Internal.Correction.Weighted>
   9.000000E+99

> <Gold.Protein.RotatedTorsions>
[ 6907 6896 6895 6894 ] final -108.87 input  -60.11 | X-H torsion
[ 7974 7965 7964 7962 ] final  -46.06 input  175.53 | X-H torsion
[ 8008 7997 7996 7995 ] final   31.75 input   59.86 | X-H torsion
[ 10167 10162 10161 10158 ] final   24.45 input  -65.29 | X-H torsion
[ 10718 10713 10712 10709 ] final  -32.74 input   66.30 | X-H torsion
[ 10763 10752 10751 10750 ] final -154.85 input  -60.55 | X-H torsion
[ 11005 11000 10999 10996 ] final -147.16 input  -57.11 | X-H torsion

> <Gold.Protein.ActiveResidues>
 VAL166  LYS551  ARG553  GLY616  TRP617  ASP618  TYR619  PRO620  LYS621  CYS622 
 ASP623  PHE694  ASN695  SER759  ASP760  ASP761  ALA762  ILE779  LEU786  VAL792 
 PHE793  MET794  SER795  GLU796  ALA797  LYS798  CYS799  TRP800  GLU811  SER814 

> <Gold.Protein.RotatedAtoms>
  150.7528  133.9613  159.3516 H   0  0  0  0  0  0  0  0  0  0  0  0  # atno 6907 bound_to 6896
  151.7539  135.0824  160.0344 H   0  0  0  0  0  0  0  0  0  0  0  0  # atno 6908 bound_to 6896
  152.3448  133.6072  159.5938 H   0  0  0  0  0  0  0  0  0  0  0  0  # atno 6909 bound_to 6896
  145.9758  140.7336  142.9388 H   0  0  0  0  0  0  0  0  0  0  0  0  # atno 7974 bound_to 7965
  155.1114  140.3239  155.4521 H   0  0  0  0  0  0  0  0  0  0  0  0  # atno 8008 bound_to 7997
  156.2689  140.2043  156.6186 H   0  0  0  0  0  0  0  0  0  0  0  0  # atno 8009 bound_to 7997
  154.6753  140.0532  157.0196 H   0  0  0  0  0  0  0  0  0  0  0  0  # atno 8010 bound_to 7997
  140.5187  144.0039  150.6406 H   0  0  0  0  0  0  0  0  0  0  0  0  # atno 10167 bound_to 10162
  156.3712  130.4340  149.7544 H   0  0  0  0  0  0  0  0  0  0  0  0  # atno 10718 bound_to 10713
  154.7829  135.3181  154.7949 H   0  0  0  0  0  0  0  0  0  0  0  0  # atno 10763 bound_to 10752
  153.8656  135.6849  153.4783 H   0  0  0  0  0  0  0  0  0  0  0  0  # atno 10764 bound_to 10752
  153.1471  135.4714  154.9521 H   0  0  0  0  0  0  0  0  0  0  0  0  # atno 10765 bound_to 10752
  140.7746  134.3150  157.5064 H   0  0  0  0  0  0  0  0  0  0  0  0  # atno 11005 bound_to 11000
  144.6848  140.2824  143.7290 LP  0  0  0  0  0  0  0  0  0  0  0  0  # atno 17320 bound_to 7965
  145.7841  139.1902  143.2140 LP  0  0  0  0  0  0  0  0  0  0  0  0  # atno 17321 bound_to 7965
  140.3382  143.3036  152.0616 LP  0  0  0  0  0  0  0  0  0  0  0  0  # atno 17342 bound_to 10162
  139.4917  144.6461  151.6774 LP  0  0  0  0  0  0  0  0  0  0  0  0  # atno 17343 bound_to 10162
  156.4670  130.7979  151.2998 LP  0  0  0  0  0  0  0  0  0  0  0  0  # atno 17370 bound_to 10713
  157.7484  131.0048  150.3088 LP  0  0  0  0  0  0  0  0  0  0  0  0  # atno 17371 bound_to 10713
  139.8751  134.9281  156.3443 LP  0  0  0  0  0  0  0  0  0  0  0  0  # atno 17394 bound_to 11000
  140.9541  133.7431  156.0312 LP  0  0  0  0  0  0  0  0  0  0  0  0  # atno 17395 bound_to 11000

$$$$
