AV-unprocessed.smi:2909|AV-procd|sdf|11174|dock10
  -GOLD-   2272016 63D 1   1.00000     0.00000
 Structure written by MMmdl.
 44 45  0  0  0  0  0  0  0  0  1 V2000
  148.5508  141.6192  154.9814 C   0  0  0  0  0  0  0  0  0  0  0  0
  149.0020  140.2296  154.6406 C   0  0  0  0  0  0  0  0  0  0  0  0
  150.1405  139.5276  155.1342 C   0  0  0  0  0  0  0  0  0  0  0  0
  150.0876  138.3138  154.5075 C   0  0  0  0  0  0  0  0  0  0  0  0
  150.9899  137.1210  154.5788 C   0  0  0  0  0  0  0  0  0  0  0  0
  150.2956  135.9060  155.2025 C   0  0  0  0  0  0  0  0  0  0  0  0
  150.4786  135.6405  156.3901 O   0  0  0  0  0  0  0  0  0  0  0  0
  149.4844  135.1925  154.4048 N   0  0  0  0  0  0  0  0  0  0  0  0
  148.7060  134.0216  154.8020 C   0  0  2  0  0  0  0  0  0  0  0  0
  148.8627  132.9017  153.7611 C   0  0  0  0  0  0  0  0  0  0  0  0
  148.1852  133.2468  152.4230 C   0  0  0  0  0  0  0  0  0  0  0  0
  146.6867  133.6042  152.5854 C   0  0  2  0  0  0  0  0  0  0  0  0
  146.0207  133.9786  151.2284 C   0  0  0  0  0  0  0  0  0  0  0  0
  144.5214  134.3059  151.3689 C   0  0  0  0  0  0  0  0  0  0  0  0
  146.1894  132.8805  150.1602 C   0  0  0  0  0  0  0  0  0  0  0  0
  146.5403  134.7265  153.6431 C   0  0  0  0  0  0  0  0  0  0  0  0
  147.2188  134.3750  154.9789 C   0  0  0  0  0  0  0  0  0  0  0  0
  148.9658  138.3437  153.7099 N   0  0  0  0  0  0  0  0  0  0  0  0
  148.2967  139.5089  153.7812 N   0  0  0  0  0  0  0  0  0  0  0  0
  148.6490  137.5866  153.1206 H   0  0  0  0  0  0  0  0  0  0  0  0
  149.3097  142.1499  155.5564 H   0  0  0  0  0  0  0  0  0  0  0  0
  147.6376  141.5988  155.5762 H   0  0  0  0  0  0  0  0  0  0  0  0
  148.3506  142.2012  154.0813 H   0  0  0  0  0  0  0  0  0  0  0  0
  150.8861  139.8661  155.8386 H   0  0  0  0  0  0  0  0  0  0  0  0
  151.8801  137.3529  155.1643 H   0  0  0  0  0  0  0  0  0  0  0  0
  151.3355  136.8636  153.5768 H   0  0  0  0  0  0  0  0  0  0  0  0
  149.3969  135.4850  153.4423 H   0  0  0  0  0  0  0  0  0  0  0  0
  149.0955  133.6530  155.7529 H   0  0  0  0  0  0  0  0  0  0  0  0
  149.9194  132.6856  153.5984 H   0  0  0  0  0  0  0  0  0  0  0  0
  148.4241  131.9838  154.1547 H   0  0  0  0  0  0  0  0  0  0  0  0
  148.7121  134.0748  151.9470 H   0  0  0  0  0  0  0  0  0  0  0  0
  148.3057  132.3885  151.7636 H   0  0  0  0  0  0  0  0  0  0  0  0
  146.1773  132.7205  152.9729 H   0  0  0  0  0  0  0  0  0  0  0  0
  146.5107  134.8758  150.8475 H   0  0  0  0  0  0  0  0  0  0  0  0
  143.9788  133.4864  151.8412 H   0  0  0  0  0  0  0  0  0  0  0  0
  144.0652  134.4856  150.3951 H   0  0  0  0  0  0  0  0  0  0  0  0
  144.3526  135.2075  151.9567 H   0  0  0  0  0  0  0  0  0  0  0  0
  145.8106  131.9214  150.5144 H   0  0  0  0  0  0  0  0  0  0  0  0
  147.2310  132.7471  149.8703 H   0  0  0  0  0  0  0  0  0  0  0  0
  145.6472  133.1317  149.2481 H   0  0  0  0  0  0  0  0  0  0  0  0
  146.9559  135.6567  153.2535 H   0  0  0  0  0  0  0  0  0  0  0  0
  145.4896  134.9237  153.8511 H   0  0  0  0  0  0  0  0  0  0  0  0
  146.7014  133.5260  155.4272 H   0  0  0  0  0  0  0  0  0  0  0  0
  147.1061  135.2007  155.6826 H   0  0  0  0  0  0  0  0  0  0  0  0
  1 21  1  0  0  0  0
  1 22  1  0  0  0  0
  1 23  1  0  0  0  0
  1  2  1  0  0  0  0
  2 19  2  0  0  0  0
  2  3  1  0  0  0  0
  3  4  2  0  0  0  0
  3 24  1  0  0  0  0
  4 18  1  0  0  0  0
  4  5  1  0  0  0  0
  5  6  1  0  0  0  0
  5 25  1  0  0  0  0
  5 26  1  0  0  0  0
  6  7  2  0  0  0  0
  6  8  1  0  0  0  0
  8  9  1  0  0  0  0
  8 27  1  0  0  0  0
  9 17  1  0  0  0  0
  9 10  1  0  0  0  0
  9 28  1  0  0  0  0
 10 11  1  0  0  0  0
 10 29  1  0  0  0  0
 10 30  1  0  0  0  0
 11 12  1  0  0  0  0
 11 31  1  0  0  0  0
 11 32  1  0  0  0  0
 12 13  1  0  0  0  0
 12 16  1  0  0  0  0
 12 33  1  0  0  0  0
 13 14  1  0  0  0  0
 13 15  1  0  0  0  0
 13 34  1  0  0  0  0
 14 35  1  0  0  0  0
 14 36  1  0  0  0  0
 14 37  1  0  0  0  0
 15 38  1  0  0  0  0
 15 39  1  0  0  0  0
 15 40  1  0  0  0  0
 16 17  1  0  0  0  0
 16 41  1  0  0  0  0
 16 42  1  0  0  0  0
 17 43  1  0  0  0  0
 17 44  1  0  0  0  0
 18 19  1  0  0  0  0
 18 20  1  0  0  0  0
M  END
> <s_m_source_file>
AV-unprocessed.smi

> <i_m_source_file_index>
2909

> <i_lp_mmshare_version>
43012

> <i_f3d_flags>
0

> <s_epik_input>
W0NIM11jMVtjSF1jKG5bbkhdMSlbQ0gyXUMoPU8pW05IXVtDQEBIXTJbQ0gyXVtDSDJdW0NAQEhdKFtDSF0oW0NIM10pW0NIM10pW0NIMl1bQ0gyXTI=

> <s_epik_cmdline>
J2VwaWtfcHl0aG9uJywgJy1waCcsICc3LjAnLCAnLXRuJywgJzgnLCAnLW1hJywgJzIwMCcsICctbWV0YWxfYmluZGluZycsICctaW1hZScsICc8aW5maWxlLm1hZT4nLCAnLW9tYWUnLCAnPG91dGZpbGUubWFlPic=

> <r_lp_tautomer_probability>
0.5

> <r_epik_Ionization_Penalty>
0.00013296

> <r_epik_Ionization_Penalty_Charging>
0

> <r_epik_Ionization_Penalty_Neutral>
0.00013296

> <r_epik_State_Penalty>
0.41068

> <r_epik_Charging_Adjusted_Penalty>
0.41068

> <i_epik_Tot_Q>
0

> <i_epik_Tot_abs_Q>
0

> <r_epik_Metal_State_Penalty>
0.41066

> <b_epik_Metal_Only>
0

> <s_lp_Force_Field>
OPLS_2005

> <r_lp_Energy>
9.99393

> <b_lp_Chiralities_Consistent>
1

> <s_lp_Variant>
AV-unprocessed.smi:2909-4

> <Gold.Version>
5.8.1

> <Gold.Id.Protein>
6NUR|6NUR_protein|mol2

> <Gold.PLP.Fitness>
37.7792

> <Gold.PLP.PLP>
-32.8260

> <Gold.PLP.part.hbond>
-3.0000

> <Gold.PLP.part.metal>
0.0000

> <Gold.PLP.part.buried>
-3.4831

> <Gold.PLP.part.nonpolar>
-28.9733

> <Gold.PLP.part.repulsive>
2.1604

> <Gold.PLP.ligand.clash>
0.0000

> <Gold.PLP.ligand.torsion>
0.5222

> <Gold.PLP.Chemscore.Hbond>
1.9920

> <Gold.PLP.Chemscore.CHOScore>
0.0000

> <Gold.PLP.Chemscore.Metal>
0.0000

> <Gold.Chemscore.Hbonds>
donor molecule, donor type, donor heavy atom, donor atom, acceptor molecule, acceptor atom, score
      L1  H     8    27       P1  7948  0.90
      L1  H    18    20       P1  7948  1.00

> <Gold.PLP.Chemscore.Internal.Correction>
0.0216

> <Gold.Rescore>
     Score         DG    S(hbond)    S(metal)    S(lipo)     H(rot)  DE(clash)    DE(int)     intcor
     14.28     -15.04       1.36        0.00      75.63       1.50       0.14       0.62       ----

> <Gold.Chemscore.Fitness>
14.2775

> <Gold.Chemscore.DG>
-15.0365

> <Gold.Chemscore.ZeroCoef>
-5.4800

> <Gold.Chemscore.Hbond>
1.3623

> <Gold.Chemscore.Metal>
0.0000

> <Gold.Chemscore.Lipo>
75.6341

> <Gold.Chemscore.Internal_Hbond>
0.0000

> <Gold.Chemscore.DEClash>
0.1401

> <Gold.Chemscore.DEInternal>
0.6190

> <Gold.Chemscore.Rot>
1.5011

> <Gold.Chemscore.Internal.Correction>
   9.000000E+99

> <Gold.Chemscore.Hbonds>
donor molecule, donor type, donor heavy atom, donor atom, acceptor molecule, acceptor atom, score
      L1  H     8    27       P1  7948  0.18
      L1  H    18    20       P1  7948  0.95

> <Gold.Chemscore.Hbond.Weighted>
-4.5502

> <Gold.Chemscore.Metal.Weighted>
-0.0000

> <Gold.Chemscore.Lipo.Weighted>
-8.8492

> <Gold.Chemscore.Internal_Hbond.Weighted>
0.0000

> <Gold.Chemscore.DEClash.Weighted>
0.1401

> <Gold.Chemscore.DEInternal.Weighted>
0.6190

> <Gold.Chemscore.Rot.Weighted>
3.8429

> <Gold.Chemscore.Internal.Correction.Weighted>
   9.000000E+99

> <Gold.Protein.RotatedTorsions>
[ 6907 6896 6895 6894 ] final   50.53 input  -60.11 | X-H torsion
[ 7974 7965 7964 7962 ] final -116.38 input  175.53 | X-H torsion
[ 8008 7997 7996 7995 ] final   78.74 input   59.86 | X-H torsion
[ 10167 10162 10161 10158 ] final  -78.11 input  -65.29 | X-H torsion
[ 10718 10713 10712 10709 ] final  -21.85 input   66.30 | X-H torsion
[ 10763 10752 10751 10750 ] final  164.99 input  -60.55 | X-H torsion
[ 11005 11000 10999 10996 ] final -115.86 input  -57.11 | X-H torsion

> <Gold.Protein.ActiveResidues>
 VAL166  LYS551  ARG553  GLY616  TRP617  ASP618  TYR619  PRO620  LYS621  CYS622 
 ASP623  PHE694  ASN695  SER759  ASP760  ASP761  ALA762  ILE779  LEU786  VAL792 
 PHE793  MET794  SER795  GLU796  ALA797  LYS798  CYS799  TRP800  GLU811  SER814 

> <Gold.Protein.RotatedAtoms>
  152.3028  134.7590  160.0353 H   0  0  0  0  0  0  0  0  0  0  0  0  # atno 6907 bound_to 6896
  151.8097  133.3375  159.3560 H   0  0  0  0  0  0  0  0  0  0  0  0  # atno 6908 bound_to 6896
  150.7282  134.5605  159.5884 H   0  0  0  0  0  0  0  0  0  0  0  0  # atno 6909 bound_to 6896
  145.0974  140.8529  143.3946 H   0  0  0  0  0  0  0  0  0  0  0  0  # atno 7974 bound_to 7965
  155.8599  140.3454  155.5749 H   0  0  0  0  0  0  0  0  0  0  0  0  # atno 8008 bound_to 7997
  155.7944  140.0876  157.2010 H   0  0  0  0  0  0  0  0  0  0  0  0  # atno 8009 bound_to 7997
  154.4011  140.1477  156.3188 H   0  0  0  0  0  0  0  0  0  0  0  0  # atno 8010 bound_to 7997
  140.4711  143.2426  151.8204 H   0  0  0  0  0  0  0  0  0  0  0  0  # atno 10167 bound_to 10162
  156.5125  130.4613  149.6640 H   0  0  0  0  0  0  0  0  0  0  0  0  # atno 10718 bound_to 10713
  154.3173  135.2756  155.2537 H   0  0  0  0  0  0  0  0  0  0  0  0  # atno 10763 bound_to 10752
  154.4906  135.5834  153.6460 H   0  0  0  0  0  0  0  0  0  0  0  0  # atno 10764 bound_to 10752
  152.9881  135.6133  154.3355 H   0  0  0  0  0  0  0  0  0  0  0  0  # atno 10765 bound_to 10752
  141.0460  133.9761  157.2916 H   0  0  0  0  0  0  0  0  0  0  0  0  # atno 11005 bound_to 11000
  145.0995  139.2832  143.5693 LP  0  0  0  0  0  0  0  0  0  0  0  0  # atno 17320 bound_to 7965
  146.3530  140.0558  142.8632 LP  0  0  0  0  0  0  0  0  0  0  0  0  # atno 17321 bound_to 7965
  139.4818  144.4891  151.9208 LP  0  0  0  0  0  0  0  0  0  0  0  0  # atno 17342 bound_to 10162
  140.3976  144.2535  150.5895 LP  0  0  0  0  0  0  0  0  0  0  0  0  # atno 17343 bound_to 10162
  156.3227  130.7289  151.2204 LP  0  0  0  0  0  0  0  0  0  0  0  0  # atno 17370 bound_to 10713
  157.7448  131.0451  150.4827 LP  0  0  0  0  0  0  0  0  0  0  0  0  # atno 17371 bound_to 10713
  139.9312  135.0200  156.8407 LP  0  0  0  0  0  0  0  0  0  0  0  0  # atno 17394 bound_to 11000
  140.6145  134.0051  155.7591 LP  0  0  0  0  0  0  0  0  0  0  0  0  # atno 17395 bound_to 11000

$$$$
