AV-unprocessed.smi:3261|AV-procd|sdf|12483|dock9
  -GOLD-   2272018383D 1   1.00000     0.00000
 Structure written by MMmdl.
 30 31  0  0  0  0  0  0  0  0  3 V2000
  152.9316  139.5589  159.8687 O   0  0  0  0  0  0  0  0  0  0  0  0
  153.6902  140.3478  160.4300 C   0  0  0  0  0  0  0  0  0  0  0  0
  153.5978  141.6681  160.1351 N   0  0  0  0  0  0  0  0  0  0  0  0
  152.7575  142.3162  159.1903 C   0  0  0  0  0  0  0  0  0  0  0  0
  152.9575  143.6966  158.9694 C   0  0  0  0  0  0  0  0  0  0  0  0
  152.1573  144.3715  158.0252 C   0  0  0  0  0  0  0  0  0  0  0  0
  151.2184  143.6925  157.3313 N   0  3  0  0  0  0  0  0  0  0  0  0
  151.0051  142.3689  157.4937 C   0  0  0  0  0  0  0  0  0  0  0  0
  151.7745  141.6411  158.4239 C   0  0  0  0  0  0  0  0  0  0  0  0
  154.6016  139.9190  161.3555 N   0  5  0  0  0  0  0  0  0  0  0  0
  155.3206  138.6347  161.4322 C   0  0  1  0  0  0  0  0  0  0  0  0
  154.8595  137.8698  162.6926 C   0  0  0  0  0  0  0  0  0  0  0  0
  153.5185  137.1783  162.4116 C   0  0  0  0  0  0  0  0  0  0  0  0
  153.5989  136.6658  160.6568 S   0  0  0  0  0  0  0  0  0  0  0  0
  154.0567  135.2694  160.5820 O   0  0  0  0  0  0  0  0  0  0  0  0
  152.3710  137.0921  159.9675 O   0  0  0  0  0  0  0  0  0  0  0  0
  154.9944  137.7705  160.1966 C   0  0  0  0  0  0  0  0  0  0  0  0
  154.1582  142.2787  160.7114 H   0  0  0  0  0  0  0  0  0  0  0  0
  153.7112  144.2371  159.5239 H   0  0  0  0  0  0  0  0  0  0  0  0
  152.2413  145.4255  157.8045 H   0  0  0  0  0  0  0  0  0  0  0  0
  150.2354  141.9321  156.8746 H   0  0  0  0  0  0  0  0  0  0  0  0
  151.6080  140.5793  158.5273 H   0  0  0  0  0  0  0  0  0  0  0  0
  156.3991  138.7914  161.4885 H   0  0  0  0  0  0  0  0  0  0  0  0
  155.6000  137.1010  162.9163 H   0  0  0  0  0  0  0  0  0  0  0  0
  154.8058  138.5120  163.5729 H   0  0  0  0  0  0  0  0  0  0  0  0
  153.3399  136.3139  163.0505 H   0  0  0  0  0  0  0  0  0  0  0  0
  152.6853  137.8739  162.5264 H   0  0  0  0  0  0  0  0  0  0  0  0
  154.7335  138.3507  159.3110 H   0  0  0  0  0  0  0  0  0  0  0  0
  155.8437  137.1361  159.9436 H   0  0  0  0  0  0  0  0  0  0  0  0
  150.6507  144.1992  156.6517 H   0  0  0  0  0  0  0  0  0  0  0  0
  1  2  2  0  0  0  0
  2  3  1  0  0  0  0
  2 10  1  0  0  0  0
  3  4  1  0  0  0  0
  3 18  1  0  0  0  0
  4  9  1  0  0  0  0
  4  5  2  0  0  0  0
  5  6  1  0  0  0  0
  5 19  1  0  0  0  0
  6  7  2  0  0  0  0
  6 20  1  0  0  0  0
  7  8  1  0  0  0  0
  7 30  1  0  0  0  0
  8  9  2  0  0  0  0
  8 21  1  0  0  0  0
  9 22  1  0  0  0  0
 10 11  1  0  0  0  0
 11 17  1  0  0  0  0
 11 12  1  0  0  0  0
 11 23  1  0  0  0  0
 12 13  1  0  0  0  0
 12 24  1  0  0  0  0
 12 25  1  0  0  0  0
 13 14  1  0  0  0  0
 13 26  1  0  0  0  0
 13 27  1  0  0  0  0
 14 15  2  0  0  0  0
 14 16  2  0  0  0  0
 14 17  1  0  0  0  0
 17 28  1  0  0  0  0
 17 29  1  0  0  0  0
M  CHG  1   7   1
M  CHG  1  10  -1
M  END
> <s_m_source_file>
AV-unprocessed.smi

> <i_m_source_file_index>
3261

> <i_lp_mmshare_version>
43012

> <i_f3d_flags>
0

> <s_epik_input>
Tz1TMSg9TylbQ0gyXVtDSDJdW0NASF0oW0NIMl0xKVtOSF1DKD1PKVtOSF1jMltjSF1bY0hdbltjSF1bY0hdMg==

> <s_epik_cmdline>
J2VwaWtfcHl0aG9uJywgJy1waCcsICc3LjAnLCAnLXRuJywgJzgnLCAnLW1hJywgJzIwMCcsICctbWV0YWxfYmluZGluZycsICctaW1hZScsICc8aW5maWxlLm1hZT4nLCAnLW9tYWUnLCAnPG91dGZpbGUubWFlPic=

> <r_epik_Ionization_Penalty>
8.1176

> <r_epik_Ionization_Penalty_Charging>
8.1176

> <r_epik_Ionization_Penalty_Neutral>
3.03687e-06

> <r_epik_State_Penalty>
7.79629

> <r_epik_Charging_Adjusted_Penalty>
15.9139

> <i_epik_Tot_Q>
0

> <i_epik_Tot_abs_Q>
2

> <r_epik_Metal_State_Penalty>
3.7997

> <b_epik_Metal_Only>
1

> <s_lp_Force_Field>
OPLS_2005

> <r_lp_Energy>
21.8236

> <b_lp_Chiralities_Consistent>
1

> <s_lp_Variant>
AV-unprocessed.smi:3261-6

> <Gold.Version>
5.8.1

> <Gold.Id.Protein>
6NUR|6NUR_protein|mol2

> <Gold.PLP.Fitness>
41.2694

> <Gold.PLP.PLP>
-32.7631

> <Gold.PLP.part.hbond>
-2.2872

> <Gold.PLP.part.metal>
0.0000

> <Gold.PLP.part.buried>
-5.9086

> <Gold.PLP.part.nonpolar>
-25.3047

> <Gold.PLP.part.repulsive>
0.0584

> <Gold.PLP.ligand.clash>
0.0061

> <Gold.PLP.ligand.torsion>
0.2325

> <Gold.PLP.Chemscore.Hbond>
2.9913

> <Gold.PLP.Chemscore.CHOScore>
0.0000

> <Gold.PLP.Chemscore.Metal>
0.0000

> <Gold.Chemscore.Hbonds>
donor molecule, donor type, donor heavy atom, donor atom, acceptor molecule, acceptor atom, score
      L1  H     7    30       P1  8028  1.82
      P1  H  6896  6907       L1    15  0.95

> <Gold.PLP.Chemscore.Internal.Correction>
0.0036

> <Gold.Rescore>
     Score         DG    S(hbond)    S(metal)    S(lipo)     H(rot)  DE(clash)    DE(int)     intcor
     11.19     -15.94       1.11        0.00      79.58       1.00       0.05       4.70       ----

> <Gold.Chemscore.Fitness>
11.1857

> <Gold.Chemscore.DG>
-15.9369

> <Gold.Chemscore.ZeroCoef>
-5.4800

> <Gold.Chemscore.Hbond>
1.1096

> <Gold.Chemscore.Metal>
0.0000

> <Gold.Chemscore.Lipo>
79.5793

> <Gold.Chemscore.Internal_Hbond>
0.0000

> <Gold.Chemscore.DEClash>
0.0541

> <Gold.Chemscore.DEInternal>
4.6971

> <Gold.Chemscore.Rot>
1.0000

> <Gold.Chemscore.Internal.Correction>
   9.000000E+99

> <Gold.Chemscore.Hbonds>
donor molecule, donor type, donor heavy atom, donor atom, acceptor molecule, acceptor atom, score
      L1  H     7    30       P1  8028  0.87
      P1  H  6896  6907       L1    15  0.21

> <Gold.Chemscore.Hbond.Weighted>
-3.7061

> <Gold.Chemscore.Metal.Weighted>
-0.0000

> <Gold.Chemscore.Lipo.Weighted>
-9.3108

> <Gold.Chemscore.Internal_Hbond.Weighted>
0.0000

> <Gold.Chemscore.DEClash.Weighted>
0.0541

> <Gold.Chemscore.DEInternal.Weighted>
4.6971

> <Gold.Chemscore.Rot.Weighted>
2.5600

> <Gold.Chemscore.Internal.Correction.Weighted>
   9.000000E+99

> <Gold.Protein.RotatedTorsions>
[ 6907 6896 6895 6894 ] final   70.33 input  -60.11 | X-H torsion
[ 7974 7965 7964 7962 ] final  179.68 input  175.53 | X-H torsion
[ 8008 7997 7996 7995 ] final   40.25 input   59.86 | X-H torsion
[ 10167 10162 10161 10158 ] final   75.61 input  -65.29 | X-H torsion
[ 10718 10713 10712 10709 ] final  -70.79 input   66.30 | X-H torsion
[ 10763 10752 10751 10750 ] final  -76.31 input  -60.55 | X-H torsion
[ 11005 11000 10999 10996 ] final  -76.01 input  -57.11 | X-H torsion

> <Gold.Protein.ActiveResidues>
 VAL166  LYS551  ARG553  GLY616  TRP617  ASP618  TYR619  PRO620  LYS621  CYS622 
 ASP623  PHE694  ASN695  SER759  ASP760  ASP761  ALA762  ILE779  LEU786  VAL792 
 PHE793  MET794  SER795  GLU796  ALA797  LYS798  CYS799  TRP800  GLU811  SER814 

> <Gold.Protein.RotatedAtoms>
  152.4742  134.4884  159.9687 H   0  0  0  0  0  0  0  0  0  0  0  0  # atno 6907 bound_to 6896
  151.4904  133.3520  159.2860 H   0  0  0  0  0  0  0  0  0  0  0  0  # atno 6908 bound_to 6896
  150.8771  134.8183  159.7259 H   0  0  0  0  0  0  0  0  0  0  0  0  # atno 6909 bound_to 6896
  144.7143  140.0584  143.6433 H   0  0  0  0  0  0  0  0  0  0  0  0  # atno 7974 bound_to 7965
  155.2501  140.3352  155.4283 H   0  0  0  0  0  0  0  0  0  0  0  0  # atno 8008 bound_to 7997
  156.2219  140.1813  156.7500 H   0  0  0  0  0  0  0  0  0  0  0  0  # atno 8009 bound_to 7997
  154.5839  140.0649  156.9128 H   0  0  0  0  0  0  0  0  0  0  0  0  # atno 8010 bound_to 7997
  140.0011  144.5685  150.7736 H   0  0  0  0  0  0  0  0  0  0  0  0  # atno 10167 bound_to 10162
  156.0392  130.4338  150.2348 H   0  0  0  0  0  0  0  0  0  0  0  0  # atno 10718 bound_to 10713
  154.4981  135.5802  153.6510 H   0  0  0  0  0  0  0  0  0  0  0  0  # atno 10763 bound_to 10752
  152.9874  135.6129  154.3038 H   0  0  0  0  0  0  0  0  0  0  0  0  # atno 10764 bound_to 10752
  154.2943  135.2848  155.2620 H   0  0  0  0  0  0  0  0  0  0  0  0  # atno 10765 bound_to 10752
  141.1650  133.6968  156.7604 H   0  0  0  0  0  0  0  0  0  0  0  0  # atno 11005 bound_to 11000
  145.9885  139.2996  143.0999 LP  0  0  0  0  0  0  0  0  0  0  0  0  # atno 17320 bound_to 7965
  145.8930  140.9291  143.0542 LP  0  0  0  0  0  0  0  0  0  0  0  0  # atno 17321 bound_to 7965
  140.7418  143.2823  151.3561 LP  0  0  0  0  0  0  0  0  0  0  0  0  # atno 17342 bound_to 10162
  139.6271  144.0793  152.2444 LP  0  0  0  0  0  0  0  0  0  0  0  0  # atno 17343 bound_to 10162
  157.0445  131.0045  151.3273 LP  0  0  0  0  0  0  0  0  0  0  0  0  # atno 17370 bound_to 10713
  157.5186  130.7983  149.7783 LP  0  0  0  0  0  0  0  0  0  0  0  0  # atno 17371 bound_to 10713
  140.2538  134.8520  157.3693 LP  0  0  0  0  0  0  0  0  0  0  0  0  # atno 17394 bound_to 11000
  140.1677  134.4648  155.7852 LP  0  0  0  0  0  0  0  0  0  0  0  0  # atno 17395 bound_to 11000

$$$$
