AV-unprocessed.smi:2339|AV-procd|sdf|9339|dock10
  -GOLD-   2272012563D 1   1.00000     0.00000
 Structure written by MMmdl.
 49 52  0  0  0  0  0  0  0  0  1 V2000
  143.7743  132.4783  149.5733 C   0  0  0  0  0  0  0  0  0  0  0  0
  144.2516  132.3754  151.0263 C   0  0  0  0  0  0  0  0  0  0  0  0
  144.2544  133.6732  151.6858 N   0  0  0  0  0  0  0  0  0  0  0  0
  143.0685  134.3387  151.9767 C   0  0  0  0  0  0  0  0  0  0  0  0
  143.0080  135.5546  152.5528 C   0  0  0  0  0  0  0  0  0  0  0  0
  144.2610  136.2520  152.9049 C   0  0  0  0  0  0  0  0  0  0  0  0
  144.2396  137.3583  153.4438 O   0  0  0  0  0  0  0  0  0  0  0  0
  145.5302  135.5499  152.5763 C   0  0  0  0  0  0  0  0  0  0  0  0
  146.7171  136.2306  152.8963 N   0  0  0  0  0  0  0  0  0  0  0  0
  147.1048  136.7815  154.0650 C   0  0  0  0  0  0  0  0  0  0  0  0
  146.4354  136.8145  155.0948 O   0  0  0  0  0  0  0  0  0  0  0  0
  148.3395  137.3109  154.0330 N   0  0  0  0  0  0  0  0  0  0  0  0
  149.0614  137.9797  155.1154 C   0  0  1  0  0  0  0  0  0  0  0  0
  150.4857  138.3511  154.7005 C   0  0  2  0  0  0  0  0  0  0  0  0
  151.8406  137.8836  155.0959 C   0  0  0  0  0  0  0  0  0  0  0  0
  152.5022  139.2753  155.2757 C   0  0  0  0  0  0  0  0  0  0  0  0
  151.4221  140.2385  155.2215 O   0  0  0  0  0  0  0  0  0  0  0  0
  150.2931  139.5085  155.6570 C   0  0  1  0  0  0  0  0  0  0  0  0
  148.8219  139.5377  155.1988 C   0  0  0  0  0  0  0  0  0  0  0  0
  148.4537  140.3368  153.9388 C   0  0  0  0  0  0  0  0  0  0  0  0
  146.9474  140.5804  153.9939 C   0  0  0  0  0  0  0  0  0  0  0  0
  146.6078  140.6494  155.4815 C   0  0  0  0  0  0  0  0  0  0  0  0
  147.8028  140.0379  156.2246 C   0  0  0  0  0  0  0  0  0  0  0  0
  145.4464  134.3257  151.9945 C   0  0  0  0  0  0  0  0  0  0  0  0
  143.7755  131.4989  149.0948 H   0  0  0  0  0  0  0  0  0  0  0  0
  144.4225  133.1343  148.9913 H   0  0  0  0  0  0  0  0  0  0  0  0
  142.7597  132.8743  149.5191 H   0  0  0  0  0  0  0  0  0  0  0  0
  143.6106  131.6873  151.5787 H   0  0  0  0  0  0  0  0  0  0  0  0
  145.2549  131.9486  151.0570 H   0  0  0  0  0  0  0  0  0  0  0  0
  142.1748  133.7954  151.7056 H   0  0  0  0  0  0  0  0  0  0  0  0
  142.0626  136.0326  152.7632 H   0  0  0  0  0  0  0  0  0  0  0  0
  147.3806  136.2912  152.1373 H   0  0  0  0  0  0  0  0  0  0  0  0
  148.8353  137.2397  153.1561 H   0  0  0  0  0  0  0  0  0  0  0  0
  149.0181  137.4597  156.0769 H   0  0  0  0  0  0  0  0  0  0  0  0
  150.5047  138.6726  153.6549 H   0  0  0  0  0  0  0  0  0  0  0  0
  151.8213  137.3165  156.0277 H   0  0  0  0  0  0  0  0  0  0  0  0
  152.3252  137.2859  154.3236 H   0  0  0  0  0  0  0  0  0  0  0  0
  153.0216  139.3379  156.2328 H   0  0  0  0  0  0  0  0  0  0  0  0
  153.2212  139.4898  154.4847 H   0  0  0  0  0  0  0  0  0  0  0  0
  150.3905  139.2341  156.7137 H   0  0  0  0  0  0  0  0  0  0  0  0
  148.9742  141.2954  153.9463 H   0  0  0  0  0  0  0  0  0  0  0  0
  148.7263  139.8405  153.0077 H   0  0  0  0  0  0  0  0  0  0  0  0
  146.6510  141.4804  153.4546 H   0  0  0  0  0  0  0  0  0  0  0  0
  146.4232  139.7395  153.5391 H   0  0  0  0  0  0  0  0  0  0  0  0
  146.4670  141.6851  155.7925 H   0  0  0  0  0  0  0  0  0  0  0  0
  145.6818  140.1152  155.6980 H   0  0  0  0  0  0  0  0  0  0  0  0
  147.4779  139.2366  156.8869 H   0  0  0  0  0  0  0  0  0  0  0  0
  148.2542  140.7962  156.8658 H   0  0  0  0  0  0  0  0  0  0  0  0
  146.3102  133.7423  151.7207 H   0  0  0  0  0  0  0  0  0  0  0  0
  1  2  1  0  0  0  0
  1 25  1  0  0  0  0
  1 26  1  0  0  0  0
  1 27  1  0  0  0  0
  2  3  1  0  0  0  0
  2 28  1  0  0  0  0
  2 29  1  0  0  0  0
  3 24  1  0  0  0  0
  3  4  1  0  0  0  0
  4  5  2  0  0  0  0
  4 30  1  0  0  0  0
  5  6  1  0  0  0  0
  5 31  1  0  0  0  0
  6  7  2  0  0  0  0
  6  8  1  0  0  0  0
  8  9  1  0  0  0  0
  8 24  2  0  0  0  0
  9 10  1  0  0  0  0
  9 32  1  0  0  0  0
 10 11  2  0  0  0  0
 10 12  1  0  0  0  0
 12 13  1  0  0  0  0
 12 33  1  0  0  0  0
 13 19  1  0  0  0  0
 13 14  1  0  0  0  0
 13 34  1  0  0  0  0
 14 18  1  0  0  0  0
 14 15  1  0  0  0  0
 14 35  1  0  0  0  0
 15 16  1  0  0  0  0
 15 36  1  0  0  0  0
 15 37  1  0  0  0  0
 16 17  1  0  0  0  0
 16 38  1  0  0  0  0
 16 39  1  0  0  0  0
 17 18  1  0  0  0  0
 18 19  1  0  0  0  0
 18 40  1  0  0  0  0
 19 23  1  0  0  0  0
 19 20  1  0  0  0  0
 20 21  1  0  0  0  0
 20 41  1  0  0  0  0
 20 42  1  0  0  0  0
 21 22  1  0  0  0  0
 21 43  1  0  0  0  0
 21 44  1  0  0  0  0
 22 23  1  0  0  0  0
 22 45  1  0  0  0  0
 22 46  1  0  0  0  0
 23 47  1  0  0  0  0
 23 48  1  0  0  0  0
 24 49  1  0  0  0  0
M  END
> <s_m_source_file>
AV-unprocessed.smi

> <i_m_source_file_index>
2339

> <i_lp_mmshare_version>
43012

> <i_f3d_flags>
0

> <s_epik_input>
W0NIM11bQ0gyXW4xW2NIXVtjSF1jKD1PKWMoW2NIXTEpW05IXUMoPU8pW05IXVtDQEBIXTJbQ0BASF0oW0NIMl1bQ0gyXU8zKVtDQEBIXTNDMjRbQ0gyXVtDSDJdW0NIMl1bQ0gyXTQ=

> <s_epik_cmdline>
J2VwaWtfcHl0aG9uJywgJy1waCcsICc3LjAnLCAnLXRuJywgJzgnLCAnLW1hJywgJzIwMCcsICctbWV0YWxfYmluZGluZycsICctaW1hZScsICc8aW5maWxlLm1hZT4nLCAnLW9tYWUnLCAnPG91dGZpbGUubWFlPic=

> <r_lp_tautomer_probability>
1

> <r_epik_Ionization_Penalty>
0.00145966

> <r_epik_Ionization_Penalty_Charging>
0.00143969

> <r_epik_Ionization_Penalty_Neutral>
1.99697e-05

> <r_epik_State_Penalty>
0.000961843

> <r_epik_Charging_Adjusted_Penalty>
0.00240153

> <i_epik_Tot_Q>
0

> <i_epik_Tot_abs_Q>
0

> <r_epik_Metal_State_Penalty>
-0

> <b_epik_Metal_Only>
0

> <s_lp_Force_Field>
OPLS_2005

> <r_lp_Energy>
78.6826

> <b_lp_Chiralities_Consistent>
1

> <s_lp_Variant>
AV-unprocessed.smi:2339-4

> <Gold.Version>
5.8.1

> <Gold.Id.Protein>
6NUR|6NUR_protein|mol2

> <Gold.PLP.Fitness>
41.8688

> <Gold.PLP.PLP>
-33.4219

> <Gold.PLP.part.hbond>
-2.6009

> <Gold.PLP.part.metal>
0.0000

> <Gold.PLP.part.buried>
-2.6856

> <Gold.PLP.part.nonpolar>
-28.7781

> <Gold.PLP.part.repulsive>
0.2362

> <Gold.PLP.ligand.clash>
0.0000

> <Gold.PLP.ligand.torsion>
0.7597

> <Gold.PLP.Chemscore.Hbond>
2.6800

> <Gold.PLP.Chemscore.CHOScore>
0.5458

> <Gold.PLP.Chemscore.Metal>
0.0000

> <Gold.Chemscore.Hbonds>
donor molecule, donor type, donor heavy atom, donor atom, acceptor molecule, acceptor atom, score
      L1  H     9    32       P1  7948  0.85
      L1  H    12    33       P1  7948  0.82
      P1  H  7989  7998       L1    17  1.00
      L1  C     4    30       P1 10186  0.55

> <Gold.PLP.Chemscore.Internal.Correction>
0.2889

> <Gold.Rescore>
     Score         DG    S(hbond)    S(metal)    S(lipo)     H(rot)  DE(clash)    DE(int)     intcor
     17.72     -21.66       2.74        0.00      85.49       1.17       0.87       3.08       ----

> <Gold.Chemscore.Fitness>
17.7196

> <Gold.Chemscore.DG>
-21.6628

> <Gold.Chemscore.ZeroCoef>
-5.4800

> <Gold.Chemscore.Hbond>
2.7449

> <Gold.Chemscore.Metal>
0.0000

> <Gold.Chemscore.Lipo>
85.4896

> <Gold.Chemscore.Internal_Hbond>
0.0000

> <Gold.Chemscore.DEClash>
0.8659

> <Gold.Chemscore.DEInternal>
3.0774

> <Gold.Chemscore.Rot>
1.1670

> <Gold.Chemscore.Internal.Correction>
   9.000000E+99

> <Gold.Chemscore.Hbonds>
donor molecule, donor type, donor heavy atom, donor atom, acceptor molecule, acceptor atom, score
      L1  H     9    32       P1  7948  0.81
      L1  H    12    33       P1  7948  0.81
      P1  H  7989  7998       L1    17  0.24

> <Gold.Chemscore.Hbond.Weighted>
-9.1680

> <Gold.Chemscore.Metal.Weighted>
-0.0000

> <Gold.Chemscore.Lipo.Weighted>
-10.0023

> <Gold.Chemscore.Internal_Hbond.Weighted>
0.0000

> <Gold.Chemscore.DEClash.Weighted>
0.8659

> <Gold.Chemscore.DEInternal.Weighted>
3.0774

> <Gold.Chemscore.Rot.Weighted>
2.9874

> <Gold.Chemscore.Internal.Correction.Weighted>
   9.000000E+99

> <Gold.Protein.RotatedTorsions>
[ 6907 6896 6895 6894 ] final -112.51 input  -60.11 | X-H torsion
[ 7974 7965 7964 7962 ] final  -69.61 input  175.53 | X-H torsion
[ 8008 7997 7996 7995 ] final -139.33 input   59.86 | X-H torsion
[ 10167 10162 10161 10158 ] final  110.56 input  -65.29 | X-H torsion
[ 10718 10713 10712 10709 ] final  -52.43 input   66.30 | X-H torsion
[ 10763 10752 10751 10750 ] final -162.19 input  -60.55 | X-H torsion
[ 11005 11000 10999 10996 ] final  -21.22 input  -57.11 | X-H torsion

> <Gold.Protein.ActiveResidues>
 VAL166  LYS551  ARG553  GLY616  TRP617  ASP618  TYR619  PRO620  LYS621  CYS622 
 ASP623  PHE694  ASN695  SER759  ASP760  ASP761  ALA762  ILE779  LEU786  VAL792 
 PHE793  MET794  SER795  GLU796  ALA797  LYS798  CYS799  TRP800  GLU811  SER814 

> <Gold.Protein.RotatedAtoms>
  150.7763  133.9080  159.3360 H   0  0  0  0  0  0  0  0  0  0  0  0  # atno 6907 bound_to 6896
  151.6954  135.0937  160.0250 H   0  0  0  0  0  0  0  0  0  0  0  0  # atno 6908 bound_to 6896
  152.3800  133.6495  159.6189 H   0  0  0  0  0  0  0  0  0  0  0  0  # atno 6909 bound_to 6896
  145.7016  140.9114  143.0728 H   0  0  0  0  0  0  0  0  0  0  0  0  # atno 7974 bound_to 7965
  155.4431  140.0533  157.3008 H   0  0  0  0  0  0  0  0  0  0  0  0  # atno 8008 bound_to 7997
  154.4809  140.2081  155.9722 H   0  0  0  0  0  0  0  0  0  0  0  0  # atno 8009 bound_to 7997
  156.1204  140.3189  155.8205 H   0  0  0  0  0  0  0  0  0  0  0  0  # atno 8010 bound_to 7997
  139.6679  144.7126  151.1742 H   0  0  0  0  0  0  0  0  0  0  0  0  # atno 10167 bound_to 10162
  156.1622  130.4149  149.9775 H   0  0  0  0  0  0  0  0  0  0  0  0  # atno 10718 bound_to 10713
  154.7236  135.3031  154.9007 H   0  0  0  0  0  0  0  0  0  0  0  0  # atno 10763 bound_to 10752
  153.9871  135.6723  153.4756 H   0  0  0  0  0  0  0  0  0  0  0  0  # atno 10764 bound_to 10752
  153.0856  135.4986  154.8508 H   0  0  0  0  0  0  0  0  0  0  0  0  # atno 10765 bound_to 10752
  140.8540  133.7836  155.9999 H   0  0  0  0  0  0  0  0  0  0  0  0  # atno 11005 bound_to 11000
  144.6967  139.8955  143.7455 LP  0  0  0  0  0  0  0  0  0  0  0  0  # atno 17320 bound_to 7965
  146.0793  139.3780  143.0474 LP  0  0  0  0  0  0  0  0  0  0  0  0  # atno 17321 bound_to 7965
  140.7606  143.5890  150.8816 LP  0  0  0  0  0  0  0  0  0  0  0  0  # atno 17342 bound_to 10162
  139.9553  143.6225  152.3017 LP  0  0  0  0  0  0  0  0  0  0  0  0  # atno 17343 bound_to 10162
  156.7600  130.9147  151.3641 LP  0  0  0  0  0  0  0  0  0  0  0  0  # atno 17370 bound_to 10713
  157.6741  130.9078  150.0109 LP  0  0  0  0  0  0  0  0  0  0  0  0  # atno 17371 bound_to 10713
  140.8758  134.2672  157.5169 LP  0  0  0  0  0  0  0  0  0  0  0  0  # atno 17394 bound_to 11000
  139.8705  134.9590  156.4318 LP  0  0  0  0  0  0  0  0  0  0  0  0  # atno 17395 bound_to 11000

$$$$
