AV-unprocessed.smi:1906|AV-procd|sdf|7727|dock3
  -GOLD-   22720 9473D 1   1.00000     0.00000
 Structure written by MMmdl.
 35 37  0  0  0  0  0  0  0  0  1 V2000
  152.5525  139.1444  155.7306 C   0  0  0  0  0  0  0  0  0  0  0  0
  151.2052  139.7921  155.6770 C   0  0  0  0  0  0  0  0  0  0  0  0
  150.5388  139.9511  154.5330 N   0  0  0  0  0  0  0  0  0  0  0  0
  149.3739  140.5701  154.9440 C   0  0  0  0  0  0  0  0  0  0  0  0
  148.2515  141.0037  154.2025 C   0  0  0  0  0  0  0  0  0  0  0  0
  147.1614  141.6197  154.8518 C   0  0  0  0  0  0  0  0  0  0  0  0
  147.1774  141.8108  156.2487 C   0  0  0  0  0  0  0  0  0  0  0  0
  148.2855  141.3858  157.0067 C   0  0  0  0  0  0  0  0  0  0  0  0
  149.3707  140.7716  156.3533 C   0  0  0  0  0  0  0  0  0  0  0  0
  150.5836  140.2512  156.7915 N   0  0  0  0  0  0  0  0  0  0  0  0
  151.0520  140.2177  158.1700 C   0  0  0  0  0  0  0  0  0  0  0  0
  152.4552  140.8342  158.3341 C   0  0  2  0  0  0  0  0  0  0  0  0
  153.3995  139.8190  158.6134 O   0  0  0  0  0  0  0  0  0  0  0  0
  152.4567  141.9266  159.3914 C   0  0  0  0  0  0  0  0  0  0  0  0
  153.1202  141.7349  160.6235 C   0  0  0  0  0  0  0  0  0  0  0  0
  153.1048  142.7474  161.6027 C   0  0  0  0  0  0  0  0  0  0  0  0
  152.4260  143.9562  161.3562 C   0  0  0  0  0  0  0  0  0  0  0  0
  151.7613  144.1516  160.1301 C   0  0  0  0  0  0  0  0  0  0  0  0
  151.1064  145.3125  159.8925 F   0  0  0  0  0  0  0  0  0  0  0  0
  151.7756  143.1392  159.1514 C   0  0  0  0  0  0  0  0  0  0  0  0
  152.9078  138.9167  154.7251 H   0  0  0  0  0  0  0  0  0  0  0  0
  152.5001  138.2133  156.2952 H   0  0  0  0  0  0  0  0  0  0  0  0
  153.2754  139.8071  156.2060 H   0  0  0  0  0  0  0  0  0  0  0  0
  148.2288  140.8622  153.1323 H   0  0  0  0  0  0  0  0  0  0  0  0
  146.3085  141.9468  154.2754 H   0  0  0  0  0  0  0  0  0  0  0  0
  146.3387  142.2837  156.7383 H   0  0  0  0  0  0  0  0  0  0  0  0
  148.3015  141.5303  158.0768 H   0  0  0  0  0  0  0  0  0  0  0  0
  150.3338  140.7709  158.7766 H   0  0  0  0  0  0  0  0  0  0  0  0
  151.0338  139.1928  158.5410 H   0  0  0  0  0  0  0  0  0  0  0  0
  152.7552  141.2809  157.3852 H   0  0  0  0  0  0  0  0  0  0  0  0
  153.7085  139.9332  159.4992 H   0  0  0  0  0  0  0  0  0  0  0  0
  153.6396  140.8086  160.8224 H   0  0  0  0  0  0  0  0  0  0  0  0
  153.6125  142.5957  162.5439 H   0  0  0  0  0  0  0  0  0  0  0  0
  152.4137  144.7321  162.1075 H   0  0  0  0  0  0  0  0  0  0  0  0
  151.2591  143.2971  158.2159 H   0  0  0  0  0  0  0  0  0  0  0  0
  1  2  1  0  0  0  0
  1 21  1  0  0  0  0
  1 22  1  0  0  0  0
  1 23  1  0  0  0  0
  2 10  1  0  0  0  0
  2  3  2  0  0  0  0
  3  4  1  0  0  0  0
  4  9  2  0  0  0  0
  4  5  1  0  0  0  0
  5  6  2  0  0  0  0
  5 24  1  0  0  0  0
  6  7  1  0  0  0  0
  6 25  1  0  0  0  0
  7  8  2  0  0  0  0
  7 26  1  0  0  0  0
  8  9  1  0  0  0  0
  8 27  1  0  0  0  0
  9 10  1  0  0  0  0
 10 11  1  0  0  0  0
 11 12  1  0  0  0  0
 11 28  1  0  0  0  0
 11 29  1  0  0  0  0
 12 13  1  0  0  0  0
 12 14  1  0  0  0  0
 12 30  1  0  0  0  0
 13 31  1  0  0  0  0
 14 20  1  0  0  0  0
 14 15  2  0  0  0  0
 15 16  1  0  0  0  0
 15 32  1  0  0  0  0
 16 17  2  0  0  0  0
 16 33  1  0  0  0  0
 17 18  1  0  0  0  0
 17 34  1  0  0  0  0
 18 19  1  0  0  0  0
 18 20  2  0  0  0  0
 20 35  1  0  0  0  0
M  END
> <s_m_source_file>
AV-unprocessed.smi

> <i_m_source_file_index>
1906

> <i_lp_mmshare_version>
43012

> <i_f3d_flags>
0

> <s_epik_input>
W2NIXTFbY0hdW2NIXVtjSF1jKGMxMiluKGMobjIpW0NIM10pW0NIMl1bQ0BIXShbT0hdKWMzW2NIXVtjSF1bY0hdYyhGKVtjSF0z

> <s_epik_cmdline>
J2VwaWtfcHl0aG9uJywgJy1waCcsICc3LjAnLCAnLXRuJywgJzgnLCAnLW1hJywgJzIwMCcsICctbWV0YWxfYmluZGluZycsICctaW1hZScsICc8aW5maWxlLm1hZT4nLCAnLW9tYWUnLCAnPG91dGZpbGUubWFlPic=

> <r_epik_Ionization_Penalty>
0.129664

> <r_epik_Ionization_Penalty_Charging>
0

> <r_epik_Ionization_Penalty_Neutral>
0.129664

> <r_epik_State_Penalty>
0.119073

> <r_epik_Charging_Adjusted_Penalty>
0.119073

> <i_epik_Tot_Q>
0

> <i_epik_Tot_abs_Q>
0

> <r_epik_Metal_State_Penalty>
0.000131867

> <b_epik_Metal_Only>
0

> <s_lp_Force_Field>
OPLS_2005

> <r_lp_Energy>
10.1528

> <b_lp_Chiralities_Consistent>
1

> <s_lp_Variant>
AV-unprocessed.smi:1906-1

> <Gold.Version>
5.8.1

> <Gold.Id.Protein>
6NUR|6NUR_protein|mol2

> <Gold.PLP.Fitness>
52.9253

> <Gold.PLP.PLP>
-48.8698

> <Gold.PLP.part.hbond>
-1.9067

> <Gold.PLP.part.metal>
0.0000

> <Gold.PLP.part.buried>
-3.1261

> <Gold.PLP.part.nonpolar>
-42.6969

> <Gold.PLP.part.repulsive>
0.1038

> <Gold.PLP.ligand.clash>
0.0000

> <Gold.PLP.ligand.torsion>
0.9860

> <Gold.PLP.Chemscore.Hbond>
2.0000

> <Gold.PLP.Chemscore.CHOScore>
0.0000

> <Gold.PLP.Chemscore.Metal>
0.0000

> <Gold.Chemscore.Hbonds>
donor molecule, donor type, donor heavy atom, donor atom, acceptor molecule, acceptor atom, score
      P1  H  7989  7998       L1     3  1.00
      P1  H  7997  8010       L1    13  0.95

> <Gold.PLP.Chemscore.Internal.Correction>
0.0276

> <Gold.Rescore>
     Score         DG    S(hbond)    S(metal)    S(lipo)     H(rot)  DE(clash)    DE(int)     intcor
     16.36     -17.48       0.85        0.00     117.54       1.79       0.23       0.89       ----

> <Gold.Chemscore.Fitness>
16.3590

> <Gold.Chemscore.DG>
-17.4752

> <Gold.Chemscore.ZeroCoef>
-5.4800

> <Gold.Chemscore.Hbond>
0.8478

> <Gold.Chemscore.Metal>
0.0000

> <Gold.Chemscore.Lipo>
117.5443

> <Gold.Chemscore.Internal_Hbond>
0.0000

> <Gold.Chemscore.DEClash>
0.2268

> <Gold.Chemscore.DEInternal>
0.8894

> <Gold.Chemscore.Rot>
1.7926

> <Gold.Chemscore.Internal.Correction>
   9.000000E+99

> <Gold.Chemscore.Hbonds>
donor molecule, donor type, donor heavy atom, donor atom, acceptor molecule, acceptor atom, score
      P1  H  7989  7998       L1     3  0.47
      P1  H  7997  8010       L1    13  0.20

> <Gold.Chemscore.Hbond.Weighted>
-2.8316

> <Gold.Chemscore.Metal.Weighted>
-0.0000

> <Gold.Chemscore.Lipo.Weighted>
-13.7527

> <Gold.Chemscore.Internal_Hbond.Weighted>
0.0000

> <Gold.Chemscore.DEClash.Weighted>
0.2268

> <Gold.Chemscore.DEInternal.Weighted>
0.8894

> <Gold.Chemscore.Rot.Weighted>
4.5890

> <Gold.Chemscore.Internal.Correction.Weighted>
   9.000000E+99

> <Gold.Protein.RotatedTorsions>
[ 6907 6896 6895 6894 ] final -149.86 input  -60.11 | X-H torsion
[ 7974 7965 7964 7962 ] final    4.79 input  175.53 | X-H torsion
[ 8008 7997 7996 7995 ] final   35.60 input   59.86 | X-H torsion
[ 10167 10162 10161 10158 ] final  -51.68 input  -65.29 | X-H torsion
[ 10718 10713 10712 10709 ] final -158.42 input   66.30 | X-H torsion
[ 10763 10752 10751 10750 ] final  156.83 input  -60.55 | X-H torsion
[ 11005 11000 10999 10996 ] final  127.74 input  -57.11 | X-H torsion

> <Gold.Protein.ActiveResidues>
 VAL166  LYS551  ARG553  GLY616  TRP617  ASP618  TYR619  PRO620  LYS621  CYS622 
 ASP623  PHE694  ASN695  SER759  ASP760  ASP761  ALA762  ILE779  LEU786  VAL792 
 PHE793  MET794  SER795  GLU796  ALA797  LYS798  CYS799  TRP800  GLU811  SER814 

> <Gold.Protein.RotatedAtoms>
  151.1902  133.4672  159.2594 H   0  0  0  0  0  0  0  0  0  0  0  0  # atno 6907 bound_to 6896
  151.1171  135.0059  159.8531 H   0  0  0  0  0  0  0  0  0  0  0  0  # atno 6908 bound_to 6896
  152.5454  134.1816  159.8691 H   0  0  0  0  0  0  0  0  0  0  0  0  # atno 6909 bound_to 6896
  146.2443  140.0481  142.8377 H   0  0  0  0  0  0  0  0  0  0  0  0  # atno 7974 bound_to 7965
  155.1737  140.3294  155.4388 H   0  0  0  0  0  0  0  0  0  0  0  0  # atno 8008 bound_to 7997
  156.2501  140.1939  156.6789 H   0  0  0  0  0  0  0  0  0  0  0  0  # atno 8009 bound_to 7997
  154.6319  140.0581  156.9729 H   0  0  0  0  0  0  0  0  0  0  0  0  # atno 8010 bound_to 7997
  140.6576  143.2611  151.4539 H   0  0  0  0  0  0  0  0  0  0  0  0  # atno 10167 bound_to 10162
  156.5539  130.8617  151.2788 H   0  0  0  0  0  0  0  0  0  0  0  0  # atno 10718 bound_to 10713
  154.1905  135.2795  155.3023 H   0  0  0  0  0  0  0  0  0  0  0  0  # atno 10763 bound_to 10752
  154.5932  135.5553  153.7303 H   0  0  0  0  0  0  0  0  0  0  0  0  # atno 10764 bound_to 10752
  153.0113  135.6373  154.2044 H   0  0  0  0  0  0  0  0  0  0  0  0  # atno 10765 bound_to 10752
  139.9523  134.9619  156.8900 H   0  0  0  0  0  0  0  0  0  0  0  0  # atno 11005 bound_to 11000
  145.1009  140.9345  143.4713 LP  0  0  0  0  0  0  0  0  0  0  0  0  # atno 17320 bound_to 7965
  145.0674  139.3058  143.5849 LP  0  0  0  0  0  0  0  0  0  0  0  0  # atno 17321 bound_to 7965
  139.5802  144.1728  152.1957 LP  0  0  0  0  0  0  0  0  0  0  0  0  # atno 17342 bound_to 10162
  140.1050  144.5506  150.6963 LP  0  0  0  0  0  0  0  0  0  0  0  0  # atno 17343 bound_to 10162
  157.7382  130.9809  150.2238 LP  0  0  0  0  0  0  0  0  0  0  0  0  # atno 17370 bound_to 10713
  156.2860  130.3739  149.7888 LP  0  0  0  0  0  0  0  0  0  0  0  0  # atno 17371 bound_to 10713
  140.5689  134.0462  155.7423 LP  0  0  0  0  0  0  0  0  0  0  0  0  # atno 17394 bound_to 11000
  141.1189  133.9494  157.2769 LP  0  0  0  0  0  0  0  0  0  0  0  0  # atno 17395 bound_to 11000

$$$$
