AV-unprocessed.smi:3271|AV-procd|sdf|12516|dock1
  -GOLD-   2272018423D 1   1.00000     0.00000
 Structure written by MMmdl.
 41 41  0  0  0  0  0  0  0  0  1 V2000
  149.3515  141.5767  154.3475 C   0  0  0  0  0  0  0  0  0  0  0  0
  147.9836  141.8976  153.7244 C   0  0  0  0  0  0  0  0  0  0  0  0
  146.8758  140.8705  154.0519 C   0  0  0  0  0  0  0  0  0  0  0  0
  146.7622  140.6628  155.5796 C   0  0  0  0  0  0  0  0  0  0  0  0
  146.5170  141.9496  156.3829 C   0  0  0  0  0  0  0  0  0  0  0  0
  147.1135  139.5403  153.3165 C   0  0  0  0  0  0  0  0  0  0  0  0
  148.1506  138.9033  153.5009 O   0  0  0  0  0  0  0  0  0  0  0  0
  146.1382  139.1349  152.4899 N   0  0  0  0  0  0  0  0  0  0  0  0
  146.1495  137.9019  151.7061 C   0  0  0  0  0  0  0  0  0  0  0  0
  145.1342  136.8320  152.1923 C   0  0  1  0  0  0  0  0  0  0  0  0
  145.3164  136.5760  153.6983 C   0  0  0  0  0  0  0  0  0  0  0  0
  143.8475  137.4094  152.0805 O   0  0  0  0  0  0  0  0  0  0  0  0
  145.2338  135.5221  151.4357 C   0  0  0  0  0  0  0  0  0  0  0  0
  146.3486  134.6375  151.3433 C   0  0  0  0  0  0  0  0  0  0  0  0
  146.1016  133.5659  150.6081 N   0  0  0  0  0  0  0  0  0  0  0  0
  144.8307  133.7320  150.1917 N   0  0  0  0  0  0  0  0  0  0  0  0
  144.2173  132.7265  149.3511 C   0  0  0  0  0  0  0  0  0  0  0  0
  144.2858  134.9044  150.6666 C   0  0  0  0  0  0  0  0  0  0  0  0
  150.1013  142.2979  154.0214 H   0  0  0  0  0  0  0  0  0  0  0  0
  149.6954  140.5853  154.0518 H   0  0  0  0  0  0  0  0  0  0  0  0
  149.3186  141.6109  155.4366 H   0  0  0  0  0  0  0  0  0  0  0  0
  147.6711  142.8961  154.0338 H   0  0  0  0  0  0  0  0  0  0  0  0
  148.1100  141.9498  152.6424 H   0  0  0  0  0  0  0  0  0  0  0  0
  145.9271  141.2874  153.7088 H   0  0  0  0  0  0  0  0  0  0  0  0
  145.9732  139.9434  155.8031 H   0  0  0  0  0  0  0  0  0  0  0  0
  147.6862  140.2108  155.9422 H   0  0  0  0  0  0  0  0  0  0  0  0
  146.5555  141.7493  157.4537 H   0  0  0  0  0  0  0  0  0  0  0  0
  145.5360  142.3718  156.1684 H   0  0  0  0  0  0  0  0  0  0  0  0
  147.2676  142.7081  156.1592 H   0  0  0  0  0  0  0  0  0  0  0  0
  145.3207  139.7207  152.4026 H   0  0  0  0  0  0  0  0  0  0  0  0
  145.8705  138.2139  150.6991 H   0  0  0  0  0  0  0  0  0  0  0  0
  147.1584  137.4943  151.6159 H   0  0  0  0  0  0  0  0  0  0  0  0
  146.2927  136.1384  153.9101 H   0  0  0  0  0  0  0  0  0  0  0  0
  144.5606  135.8876  154.0790 H   0  0  0  0  0  0  0  0  0  0  0  0
  145.2407  137.5000  154.2731 H   0  0  0  0  0  0  0  0  0  0  0  0
  143.7892  137.8491  151.2453 H   0  0  0  0  0  0  0  0  0  0  0  0
  147.3236  134.7371  151.7971 H   0  0  0  0  0  0  0  0  0  0  0  0
  143.3137  133.1263  148.8901 H   0  0  0  0  0  0  0  0  0  0  0  0
  143.9547  131.8563  149.9534 H   0  0  0  0  0  0  0  0  0  0  0  0
  144.9099  132.4234  148.5651 H   0  0  0  0  0  0  0  0  0  0  0  0
  143.2736  135.1975  150.4301 H   0  0  0  0  0  0  0  0  0  0  0  0
  1  2  1  0  0  0  0
  1 19  1  0  0  0  0
  1 20  1  0  0  0  0
  1 21  1  0  0  0  0
  2  3  1  0  0  0  0
  2 22  1  0  0  0  0
  2 23  1  0  0  0  0
  3  4  1  0  0  0  0
  3  6  1  0  0  0  0
  3 24  1  0  0  0  0
  4  5  1  0  0  0  0
  4 25  1  0  0  0  0
  4 26  1  0  0  0  0
  5 27  1  0  0  0  0
  5 28  1  0  0  0  0
  5 29  1  0  0  0  0
  6  7  2  0  0  0  0
  6  8  1  0  0  0  0
  8  9  1  0  0  0  0
  8 30  1  0  0  0  0
  9 10  1  0  0  0  0
  9 31  1  0  0  0  0
  9 32  1  0  0  0  0
 10 11  1  0  0  0  0
 10 12  1  0  0  0  0
 10 13  1  0  0  0  0
 11 33  1  0  0  0  0
 11 34  1  0  0  0  0
 11 35  1  0  0  0  0
 12 36  1  0  0  0  0
 13 18  2  0  0  0  0
 13 14  1  0  0  0  0
 14 15  2  0  0  0  0
 14 37  1  0  0  0  0
 15 16  1  0  0  0  0
 16 17  1  0  0  0  0
 16 18  1  0  0  0  0
 17 38  1  0  0  0  0
 17 39  1  0  0  0  0
 17 40  1  0  0  0  0
 18 41  1  0  0  0  0
M  END
> <s_m_source_file>
AV-unprocessed.smi

> <i_m_source_file_index>
3271

> <i_lp_mmshare_version>
43012

> <i_f3d_flags>
0

> <s_epik_input>
W0NIM11bQ0gyXVtDSF0oW0NIMl1bQ0gzXSlDKD1PKVtOSF1bQ0gyXVtDQEBdKFtDSDNdKShbT0hdKWMxW2NIXW5uKFtDSDNdKVtjSF0x

> <s_epik_cmdline>
J2VwaWtfcHl0aG9uJywgJy1waCcsICc3LjAnLCAnLXRuJywgJzgnLCAnLW1hJywgJzIwMCcsICctbWV0YWxfYmluZGluZycsICctaW1hZScsICc8aW5maWxlLm1hZT4nLCAnLW9tYWUnLCAnPG91dGZpbGUubWFlPic=

> <r_lp_tautomer_probability>
1

> <r_epik_Ionization_Penalty>
6.03488e-05

> <r_epik_Ionization_Penalty_Charging>
0

> <r_epik_Ionization_Penalty_Neutral>
6.03488e-05

> <r_epik_State_Penalty>
-0

> <r_epik_Charging_Adjusted_Penalty>
0

> <i_epik_Tot_Q>
0

> <i_epik_Tot_abs_Q>
0

> <r_epik_Metal_State_Penalty>
-0

> <b_epik_Metal_Only>
0

> <s_lp_Force_Field>
OPLS_2005

> <r_lp_Energy>
0.472609

> <b_lp_Chiralities_Consistent>
1

> <s_lp_Variant>
AV-unprocessed.smi:3271-1

> <Gold.Version>
5.8.1

> <Gold.Id.Protein>
6NUR|6NUR_protein|mol2

> <Gold.PLP.Fitness>
43.4321

> <Gold.PLP.PLP>
-31.9822

> <Gold.PLP.part.hbond>
-2.7417

> <Gold.PLP.part.metal>
0.0000

> <Gold.PLP.part.buried>
-2.5034

> <Gold.PLP.part.nonpolar>
-26.9909

> <Gold.PLP.part.repulsive>
0.4032

> <Gold.PLP.ligand.clash>
0.0000

> <Gold.PLP.ligand.torsion>
0.1488

> <Gold.PLP.Chemscore.Hbond>
2.0000

> <Gold.PLP.Chemscore.CHOScore>
1.8484

> <Gold.PLP.Chemscore.Metal>
0.0000

> <Gold.Chemscore.Hbonds>
donor molecule, donor type, donor heavy atom, donor atom, acceptor molecule, acceptor atom, score
      L1  H     8    30       P1 10175  1.00
      L1  H    12    36       P1 10171  1.00
      L1  C    14    37       P1  7948  1.00
      L1  C    18    41       P1 10186  0.82

> <Gold.PLP.Chemscore.Internal.Correction>
0.2022

> <Gold.Rescore>
     Score         DG    S(hbond)    S(metal)    S(lipo)     H(rot)  DE(clash)    DE(int)     intcor
     13.65     -14.04       1.99        0.00      67.33       2.33       0.22       0.18       ----

> <Gold.Chemscore.Fitness>
13.6501

> <Gold.Chemscore.DG>
-14.0421

> <Gold.Chemscore.ZeroCoef>
-5.4800

> <Gold.Chemscore.Hbond>
1.9941

> <Gold.Chemscore.Metal>
0.0000

> <Gold.Chemscore.Lipo>
67.3263

> <Gold.Chemscore.Internal_Hbond>
0.0000

> <Gold.Chemscore.DEClash>
0.2153

> <Gold.Chemscore.DEInternal>
0.1768

> <Gold.Chemscore.Rot>
2.3341

> <Gold.Chemscore.Internal.Correction>
   9.000000E+99

> <Gold.Chemscore.Hbonds>
donor molecule, donor type, donor heavy atom, donor atom, acceptor molecule, acceptor atom, score
      L1  H     8    30       P1 10175  0.99
      L1  H    12    36       P1 10171  0.98

> <Gold.Chemscore.Hbond.Weighted>
-6.6602

> <Gold.Chemscore.Metal.Weighted>
-0.0000

> <Gold.Chemscore.Lipo.Weighted>
-7.8772

> <Gold.Chemscore.Internal_Hbond.Weighted>
0.0000

> <Gold.Chemscore.DEClash.Weighted>
0.2153

> <Gold.Chemscore.DEInternal.Weighted>
0.1768

> <Gold.Chemscore.Rot.Weighted>
5.9753

> <Gold.Chemscore.Internal.Correction.Weighted>
   9.000000E+99

> <Gold.Protein.RotatedTorsions>
[ 6907 6896 6895 6894 ] final -153.33 input  -60.11 | X-H torsion
[ 7974 7965 7964 7962 ] final  -82.05 input  175.53 | X-H torsion
[ 8008 7997 7996 7995 ] final   -3.92 input   59.86 | X-H torsion
[ 10167 10162 10161 10158 ] final  133.07 input  -65.29 | X-H torsion
[ 10718 10713 10712 10709 ] final  -16.75 input   66.30 | X-H torsion
[ 10763 10752 10751 10750 ] final -136.67 input  -60.55 | X-H torsion
[ 11005 11000 10999 10996 ] final  107.97 input  -57.11 | X-H torsion

> <Gold.Protein.ActiveResidues>
 VAL166  LYS551  ARG553  GLY616  TRP617  ASP618  TYR619  PRO620  LYS621  CYS622 
 ASP623  PHE694  ASN695  SER759  ASP760  ASP761  ALA762  ILE779  LEU786  VAL792 
 PHE793  MET794  SER795  GLU796  ALA797  LYS798  CYS799  TRP800  GLU811  SER814 

> <Gold.Protein.RotatedAtoms>
  151.2410  133.4399  159.2607 H   0  0  0  0  0  0  0  0  0  0  0  0  # atno 6907 bound_to 6896
  151.0705  134.9795  159.8316 H   0  0  0  0  0  0  0  0  0  0  0  0  # atno 6908 bound_to 6896
  152.5411  134.2356  159.8895 H   0  0  0  0  0  0  0  0  0  0  0  0  # atno 6909 bound_to 6896
  145.5385  140.9512  143.1564 H   0  0  0  0  0  0  0  0  0  0  0  0  # atno 7974 bound_to 7965
  154.6198  140.2497  155.7564 H   0  0  0  0  0  0  0  0  0  0  0  0  # atno 8008 bound_to 7997
  156.2420  140.2929  156.0420 H   0  0  0  0  0  0  0  0  0  0  0  0  # atno 8009 bound_to 7997
  155.1915  140.0391  157.2891 H   0  0  0  0  0  0  0  0  0  0  0  0  # atno 8010 bound_to 7997
  139.5313  144.6633  151.4942 H   0  0  0  0  0  0  0  0  0  0  0  0  # atno 10167 bound_to 10162
  156.5832  130.4779  149.6311 H   0  0  0  0  0  0  0  0  0  0  0  0  # atno 10718 bound_to 10713
  154.8679  135.3665  154.5098 H   0  0  0  0  0  0  0  0  0  0  0  0  # atno 10763 bound_to 10752
  153.5734  135.7020  153.5499 H   0  0  0  0  0  0  0  0  0  0  0  0  # atno 10764 bound_to 10752
  153.3521  135.4069  155.1617 H   0  0  0  0  0  0  0  0  0  0  0  0  # atno 10765 bound_to 10752
  139.8836  134.9417  156.5901 H   0  0  0  0  0  0  0  0  0  0  0  0  # atno 11005 bound_to 11000
  144.7589  139.7006  143.7242 LP  0  0  0  0  0  0  0  0  0  0  0  0  # atno 17320 bound_to 7965
  146.1997  139.5284  142.9751 LP  0  0  0  0  0  0  0  0  0  0  0  0  # atno 17321 bound_to 7965
  140.6492  143.8732  150.6768 LP  0  0  0  0  0  0  0  0  0  0  0  0  # atno 17342 bound_to 10162
  140.2091  143.3898  152.1732 LP  0  0  0  0  0  0  0  0  0  0  0  0  # atno 17343 bound_to 10162
  156.2613  130.6964  151.1733 LP  0  0  0  0  0  0  0  0  0  0  0  0  # atno 17370 bound_to 10713
  157.7321  131.0602  150.5643 LP  0  0  0  0  0  0  0  0  0  0  0  0  # atno 17371 bound_to 10713
  140.7962  133.8542  155.8687 LP  0  0  0  0  0  0  0  0  0  0  0  0  # atno 17394 bound_to 11000
  140.9633  134.1626  157.4636 LP  0  0  0  0  0  0  0  0  0  0  0  0  # atno 17395 bound_to 11000

$$$$
