AV-unprocessed.smi:2119|AV-procd|sdf|8631|dock3
  -GOLD-   2272011373D 1   1.00000     0.00000
 Structure written by MMmdl.
 47 49  0  0  0  0  0  0  0  0  1 V2000
  145.1394  135.3696  154.1914 O   0  0  0  0  0  0  0  0  0  0  0  0
  146.1088  135.5147  153.4474 C   0  0  0  0  0  0  0  0  0  0  0  0
  147.1203  136.3511  153.7125 N   0  0  0  0  0  0  0  0  0  0  0  0
  147.2136  137.1824  154.9069 C   0  0  0  0  0  0  0  0  0  0  0  0
  148.6517  137.1897  155.4898 C   0  0  1  0  0  0  0  0  0  0  0  0
  149.6309  138.0588  154.6390 C   0  0  2  0  0  0  0  0  0  0  0  0
  151.0877  137.5911  154.5615 C   0  0  0  0  0  0  0  0  0  0  0  0
  151.8955  138.8498  154.8765 C   0  0  0  0  0  0  0  0  0  0  0  0
  151.0276  139.9162  154.5289 O   0  0  0  0  0  0  0  0  0  0  0  0
  149.7313  139.5552  154.9772 C   0  0  0  0  0  0  0  0  0  0  0  0
  148.7284  137.3993  156.9500 N   0  0  0  0  0  0  0  0  0  0  0  0
  150.0879  137.6366  157.4314 C   0  0  0  0  0  0  0  0  0  0  0  0
  150.1089  137.9963  158.9257 C   0  0  0  0  0  0  0  0  0  0  0  0
  149.4880  136.9534  159.6689 O   0  0  0  0  0  0  0  0  0  0  0  0
  148.1406  136.7254  159.2703 C   0  0  0  0  0  0  0  0  0  0  0  0
  148.0839  136.3769  157.7721 C   0  0  0  0  0  0  0  0  0  0  0  0
  146.2960  134.8860  152.2741 N   0  0  0  0  0  0  0  0  0  0  0  0
  145.4788  133.9094  151.6416 C   0  0  0  0  0  0  0  0  0  0  0  0
  145.9545  132.9182  150.7484 C   0  0  0  0  0  0  0  0  0  0  0  0
  145.0331  132.0195  150.1768 C   0  0  0  0  0  0  0  0  0  0  0  0
  143.6713  132.1477  150.5113 C   0  0  0  0  0  0  0  0  0  0  0  0
  143.2020  133.0935  151.3517 N   0  0  0  0  0  0  0  0  0  0  0  0
  144.0912  133.9510  151.8964 C   0  0  0  0  0  0  0  0  0  0  0  0
  147.8766  136.4174  153.0471 H   0  0  0  0  0  0  0  0  0  0  0  0
  146.8930  138.1975  154.6684 H   0  0  0  0  0  0  0  0  0  0  0  0
  146.4984  136.7901  155.6289 H   0  0  0  0  0  0  0  0  0  0  0  0
  149.0220  136.1750  155.3353 H   0  0  0  0  0  0  0  0  0  0  0  0
  149.2616  138.0232  153.6128 H   0  0  0  0  0  0  0  0  0  0  0  0
  151.3452  136.7788  155.2405 H   0  0  0  0  0  0  0  0  0  0  0  0
  151.3091  137.2451  153.5510 H   0  0  0  0  0  0  0  0  0  0  0  0
  152.1249  138.9045  155.9417 H   0  0  0  0  0  0  0  0  0  0  0  0
  152.8336  138.8975  154.3232 H   0  0  0  0  0  0  0  0  0  0  0  0
  148.9677  140.1465  154.4715 H   0  0  0  0  0  0  0  0  0  0  0  0
  149.6476  139.7594  156.0427 H   0  0  0  0  0  0  0  0  0  0  0  0
  150.7038  136.7498  157.2836 H   0  0  0  0  0  0  0  0  0  0  0  0
  150.5507  138.4423  156.8606 H   0  0  0  0  0  0  0  0  0  0  0  0
  151.1351  138.1193  159.2719 H   0  0  0  0  0  0  0  0  0  0  0  0
  149.5930  138.9409  159.1045 H   0  0  0  0  0  0  0  0  0  0  0  0
  147.7257  135.9107  159.8640 H   0  0  0  0  0  0  0  0  0  0  0  0
  147.5397  137.6115  159.4809 H   0  0  0  0  0  0  0  0  0  0  0  0
  147.0367  136.2760  157.4997 H   0  0  0  0  0  0  0  0  0  0  0  0
  148.5577  135.4083  157.6085 H   0  0  0  0  0  0  0  0  0  0  0  0
  147.1113  135.1673  151.7491 H   0  0  0  0  0  0  0  0  0  0  0  0
  146.9950  132.8334  150.4782 H   0  0  0  0  0  0  0  0  0  0  0  0
  145.3627  131.2519  149.4926 H   0  0  0  0  0  0  0  0  0  0  0  0
  142.9391  131.4755  150.0888 H   0  0  0  0  0  0  0  0  0  0  0  0
  143.6790  134.6961  152.5614 H   0  0  0  0  0  0  0  0  0  0  0  0
  1  2  2  0  0  0  0
  2  3  1  0  0  0  0
  2 17  1  0  0  0  0
  3  4  1  0  0  0  0
  3 24  1  0  0  0  0
  4  5  1  0  0  0  0
  4 25  1  0  0  0  0
  4 26  1  0  0  0  0
  5  6  1  0  0  0  0
  5 11  1  0  0  0  0
  5 27  1  0  0  0  0
  6 10  1  0  0  0  0
  6  7  1  0  0  0  0
  6 28  1  0  0  0  0
  7  8  1  0  0  0  0
  7 29  1  0  0  0  0
  7 30  1  0  0  0  0
  8  9  1  0  0  0  0
  8 31  1  0  0  0  0
  8 32  1  0  0  0  0
  9 10  1  0  0  0  0
 10 33  1  0  0  0  0
 10 34  1  0  0  0  0
 11 16  1  0  0  0  0
 11 12  1  0  0  0  0
 12 13  1  0  0  0  0
 12 35  1  0  0  0  0
 12 36  1  0  0  0  0
 13 14  1  0  0  0  0
 13 37  1  0  0  0  0
 13 38  1  0  0  0  0
 14 15  1  0  0  0  0
 15 16  1  0  0  0  0
 15 39  1  0  0  0  0
 15 40  1  0  0  0  0
 16 41  1  0  0  0  0
 16 42  1  0  0  0  0
 17 18  1  0  0  0  0
 17 43  1  0  0  0  0
 18 23  1  0  0  0  0
 18 19  2  0  0  0  0
 19 20  1  0  0  0  0
 19 44  1  0  0  0  0
 20 21  2  0  0  0  0
 20 45  1  0  0  0  0
 21 22  1  0  0  0  0
 21 46  1  0  0  0  0
 22 23  2  0  0  0  0
 23 47  1  0  0  0  0
M  END
> <s_m_source_file>
AV-unprocessed.smi

> <i_m_source_file_index>
2119

> <i_lp_mmshare_version>
43012

> <i_f3d_flags>
0

> <s_epik_input>
W2NIXTFuW2NIXVtjSF1bY0hdYzFbTkhdQyg9TylbTkhdW0NIMl1bQ0BIXShbQ0BASF0yW0NIMl1bQ0gyXU9bQ0gyXTIpTjNbQ0gyXVtDSDJdT1tDSDJdW0NIMl0z

> <s_epik_cmdline>
J2VwaWtfcHl0aG9uJywgJy1waCcsICc3LjAnLCAnLXRuJywgJzgnLCAnLW1hJywgJzIwMCcsICctbWV0YWxfYmluZGluZycsICctaW1hZScsICc8aW5maWxlLm1hZT4nLCAnLW9tYWUnLCAnPG91dGZpbGUubWFlPic=

> <r_epik_Ionization_Penalty>
0.129787

> <r_epik_Ionization_Penalty_Charging>
0

> <r_epik_Ionization_Penalty_Neutral>
0.129787

> <r_epik_State_Penalty>
0.121311

> <r_epik_Charging_Adjusted_Penalty>
0.121311

> <i_epik_Tot_Q>
0

> <i_epik_Tot_abs_Q>
0

> <r_epik_Metal_State_Penalty>
0.117931

> <b_epik_Metal_Only>
0

> <s_lp_Force_Field>
OPLS_2005

> <r_lp_Energy>
56.2921

> <b_lp_Chiralities_Consistent>
1

> <s_lp_Variant>
AV-unprocessed.smi:2119-2

> <Gold.Version>
5.8.1

> <Gold.Id.Protein>
6NUR|6NUR_protein|mol2

> <Gold.PLP.Fitness>
46.5552

> <Gold.PLP.PLP>
-34.0364

> <Gold.PLP.part.hbond>
-3.9694

> <Gold.PLP.part.metal>
0.0000

> <Gold.PLP.part.buried>
-7.3067

> <Gold.PLP.part.nonpolar>
-24.7285

> <Gold.PLP.part.repulsive>
0.3895

> <Gold.PLP.ligand.clash>
0.0000

> <Gold.PLP.ligand.torsion>
1.2434

> <Gold.PLP.Chemscore.Hbond>
3.8800

> <Gold.PLP.Chemscore.CHOScore>
0.9986

> <Gold.PLP.Chemscore.Metal>
0.0000

> <Gold.Chemscore.Hbonds>
donor molecule, donor type, donor heavy atom, donor atom, acceptor molecule, acceptor atom, score
      L1  H     3    24       P1  7948  1.00
      L1  H    17    43       P1  7948  0.79
      P1  H  7989  7998       L1     9  0.99
      L1  C    21    46       P1 10952  1.00

> <Gold.PLP.Chemscore.Internal.Correction>
0.3700

> <Gold.Rescore>
     Score         DG    S(hbond)    S(metal)    S(lipo)     H(rot)  DE(clash)    DE(int)     intcor
     20.57     -23.06       3.67        0.00      81.71       1.65       0.01       2.48       ----

> <Gold.Chemscore.Fitness>
20.5685

> <Gold.Chemscore.DG>
-23.0632

> <Gold.Chemscore.ZeroCoef>
-5.4800

> <Gold.Chemscore.Hbond>
3.6675

> <Gold.Chemscore.Metal>
0.0000

> <Gold.Chemscore.Lipo>
81.7089

> <Gold.Chemscore.Internal_Hbond>
0.0000

> <Gold.Chemscore.DEClash>
0.0106

> <Gold.Chemscore.DEInternal>
2.4840

> <Gold.Chemscore.Rot>
1.6508

> <Gold.Chemscore.Internal.Correction>
   9.000000E+99

> <Gold.Chemscore.Hbonds>
donor molecule, donor type, donor heavy atom, donor atom, acceptor molecule, acceptor atom, score
      L1  H     3    24       P1  7948  0.99
      L1  H    17    43       P1  7948  0.73
      P1  H  6896  6908       L1    14  0.01
      P1  H  7989  7998       L1     9  0.79

> <Gold.Chemscore.Hbond.Weighted>
-12.2494

> <Gold.Chemscore.Metal.Weighted>
-0.0000

> <Gold.Chemscore.Lipo.Weighted>
-9.5599

> <Gold.Chemscore.Internal_Hbond.Weighted>
0.0000

> <Gold.Chemscore.DEClash.Weighted>
0.0106

> <Gold.Chemscore.DEInternal.Weighted>
2.4840

> <Gold.Chemscore.Rot.Weighted>
4.2262

> <Gold.Chemscore.Internal.Correction.Weighted>
   9.000000E+99

> <Gold.Protein.RotatedTorsions>
[ 6907 6896 6895 6894 ] final -174.18 input  -60.11 | X-H torsion
[ 7974 7965 7964 7962 ] final   16.84 input  175.53 | X-H torsion
[ 8008 7997 7996 7995 ] final  107.21 input   59.86 | X-H torsion
[ 10167 10162 10161 10158 ] final  111.25 input  -65.29 | X-H torsion
[ 10718 10713 10712 10709 ] final   52.31 input   66.30 | X-H torsion
[ 10763 10752 10751 10750 ] final  -46.48 input  -60.55 | X-H torsion
[ 11005 11000 10999 10996 ] final  147.50 input  -57.11 | X-H torsion

> <Gold.Protein.ActiveResidues>
 VAL166  LYS551  ARG553  GLY616  TRP617  ASP618  TYR619  PRO620  LYS621  CYS622 
 ASP623  PHE694  ASN695  SER759  ASP760  ASP761  ALA762  ILE779  LEU786  VAL792 
 PHE793  MET794  SER795  GLU796  ALA797  LYS798  CYS799  TRP800  GLU811  SER814 

> <Gold.Protein.RotatedAtoms>
  151.5682  133.3393  159.2984 H   0  0  0  0  0  0  0  0  0  0  0  0  # atno 6907 bound_to 6896
  150.8383  134.7667  159.6922 H   0  0  0  0  0  0  0  0  0  0  0  0  # atno 6908 bound_to 6896
  152.4455  134.5510  159.9918 H   0  0  0  0  0  0  0  0  0  0  0  0  # atno 6909 bound_to 6896
  146.2237  139.8690  142.8591 H   0  0  0  0  0  0  0  0  0  0  0  0  # atno 7974 bound_to 7965
  156.1806  140.3099  155.9140 H   0  0  0  0  0  0  0  0  0  0  0  0  # atno 8008 bound_to 7997
  155.3393  140.0465  157.3061 H   0  0  0  0  0  0  0  0  0  0  0  0  # atno 8009 bound_to 7997
  154.5338  140.2239  155.8768 H   0  0  0  0  0  0  0  0  0  0  0  0  # atno 8010 bound_to 7997
  139.6625  144.7128  151.1838 H   0  0  0  0  0  0  0  0  0  0  0  0  # atno 10167 bound_to 10162
  157.5063  130.8471  149.8378 H   0  0  0  0  0  0  0  0  0  0  0  0  # atno 10718 bound_to 10713
  154.0457  135.6638  153.4795 H   0  0  0  0  0  0  0  0  0  0  0  0  # atno 10763 bound_to 10752
  153.0483  135.5100  154.7799 H   0  0  0  0  0  0  0  0  0  0  0  0  # atno 10764 bound_to 10752
  154.6789  135.3042  154.9606 H   0  0  0  0  0  0  0  0  0  0  0  0  # atno 10765 bound_to 10752
  140.0881  134.9057  157.1607 H   0  0  0  0  0  0  0  0  0  0  0  0  # atno 11005 bound_to 11000
  145.2628  141.0082  143.3817 LP  0  0  0  0  0  0  0  0  0  0  0  0  # atno 17320 bound_to 7965
  144.9285  139.4326  143.6506 LP  0  0  0  0  0  0  0  0  0  0  0  0  # atno 17321 bound_to 7965
  140.7586  143.5971  150.8737 LP  0  0  0  0  0  0  0  0  0  0  0  0  # atno 17342 bound_to 10162
  139.9630  143.6143  152.2997 LP  0  0  0  0  0  0  0  0  0  0  0  0  # atno 17343 bound_to 10162
  156.0260  130.3779  150.1822 LP  0  0  0  0  0  0  0  0  0  0  0  0  # atno 17370 bound_to 10713
  157.0011  130.9922  151.3390 LP  0  0  0  0  0  0  0  0  0  0  0  0  # atno 17371 bound_to 10713
  140.3392  134.2723  155.7215 LP  0  0  0  0  0  0  0  0  0  0  0  0  # atno 17394 bound_to 11000
  141.2069  133.7821  157.0151 LP  0  0  0  0  0  0  0  0  0  0  0  0  # atno 17395 bound_to 11000

$$$$
