AV-unprocessed.smi:528|AV-procd|sdf|2835|dock7
  -GOLD-   2262023323D 1   1.00000     0.00000
 Structure written by MMmdl.
 45 47  0  0  0  0  0  0  0  0  1 V2000
  148.2215  139.5719  157.4143 C   0  0  0  0  0  0  0  0  0  0  0  0
  149.1570  139.1306  156.2756 C   0  0  2  0  0  0  0  0  0  0  0  0
  150.5288  139.4829  156.6389 N   0  0  0  0  0  0  0  0  0  0  0  0
  151.1205  139.2351  157.8177 C   0  0  0  0  0  0  0  0  0  0  0  0
  150.5641  138.6465  158.7458 O   0  0  0  0  0  0  0  0  0  0  0  0
  152.5710  139.7222  157.9494 C   0  0  0  0  0  0  0  0  0  0  0  0
  152.7491  140.7725  158.9663 N   0  0  0  0  0  0  0  0  0  0  0  0
  152.1129  142.0074  158.7314 C   0  0  0  0  0  0  0  0  0  0  0  0
  152.1858  143.0443  159.5878 C   0  0  0  0  0  0  0  0  0  0  0  0
  151.5377  144.3849  159.2784 C   0  0  0  0  0  0  0  0  0  0  0  0
  150.2324  144.2444  159.0464 F   0  0  0  0  0  0  0  0  0  0  0  0
  151.6937  145.2409  160.2889 F   0  0  0  0  0  0  0  0  0  0  0  0
  152.0970  144.9182  158.1931 F   0  0  0  0  0  0  0  0  0  0  0  0
  152.9930  142.8444  160.7754 C   0  0  0  0  0  0  0  0  0  0  0  0
  153.6187  141.6742  161.0090 C   0  0  0  0  0  0  0  0  0  0  0  0
  153.5128  140.5487  160.0776 C   0  0  0  0  0  0  0  0  0  0  0  0
  154.0757  139.4731  160.2826 O   0  0  0  0  0  0  0  0  0  0  0  0
  148.7858  139.7807  154.9201 C   0  0  2  0  0  0  0  0  0  0  0  0
  148.8952  141.3255  154.9209 C   0  0  0  0  0  0  0  0  0  0  0  0
  147.5094  141.7810  154.4313 C   0  0  1  0  0  0  0  0  0  0  0  0
  147.3435  141.4209  152.9439 C   0  0  0  0  0  0  0  0  0  0  0  0
  147.1785  139.8905  152.9848 C   0  0  0  0  0  0  0  0  0  0  0  0
  147.3108  139.5734  154.4869 C   0  0  2  0  0  0  0  0  0  0  0  0
  146.5976  140.7684  155.1105 C   0  0  0  0  0  0  0  0  0  0  0  0
  147.1885  139.2825  157.2231 H   0  0  0  0  0  0  0  0  0  0  0  0
  148.2429  140.6540  157.5486 H   0  0  0  0  0  0  0  0  0  0  0  0
  148.5131  139.1146  158.3603 H   0  0  0  0  0  0  0  0  0  0  0  0
  149.0710  138.0481  156.1708 H   0  0  0  0  0  0  0  0  0  0  0  0
  151.0697  139.9664  155.9366 H   0  0  0  0  0  0  0  0  0  0  0  0
  153.1997  138.8599  158.1750 H   0  0  0  0  0  0  0  0  0  0  0  0
  152.9188  140.0814  156.9789 H   0  0  0  0  0  0  0  0  0  0  0  0
  151.5661  142.0613  157.8011 H   0  0  0  0  0  0  0  0  0  0  0  0
  153.0959  143.6456  161.4923 H   0  0  0  0  0  0  0  0  0  0  0  0
  154.2115  141.5607  161.9049 H   0  0  0  0  0  0  0  0  0  0  0  0
  149.4465  139.3665  154.1565 H   0  0  0  0  0  0  0  0  0  0  0  0
  149.0748  141.7152  155.9238 H   0  0  0  0  0  0  0  0  0  0  0  0
  149.7008  141.6840  154.2791 H   0  0  0  0  0  0  0  0  0  0  0  0
  147.2881  142.8246  154.6563 H   0  0  0  0  0  0  0  0  0  0  0  0
  146.4535  141.8921  152.5245 H   0  0  0  0  0  0  0  0  0  0  0  0
  148.2013  141.7323  152.3468 H   0  0  0  0  0  0  0  0  0  0  0  0
  146.1931  139.6036  152.6153 H   0  0  0  0  0  0  0  0  0  0  0  0
  147.9235  139.3725  152.3797 H   0  0  0  0  0  0  0  0  0  0  0  0
  146.8893  138.6037  154.7515 H   0  0  0  0  0  0  0  0  0  0  0  0
  146.6553  140.7935  156.1998 H   0  0  0  0  0  0  0  0  0  0  0  0
  145.5528  140.8555  154.8068 H   0  0  0  0  0  0  0  0  0  0  0  0
  1  2  1  0  0  0  0
  1 25  1  0  0  0  0
  1 26  1  0  0  0  0
  1 27  1  0  0  0  0
  2  3  1  0  0  0  0
  2 18  1  0  0  0  0
  2 28  1  0  0  0  0
  3  4  1  0  0  0  0
  3 29  1  0  0  0  0
  4  5  2  0  0  0  0
  4  6  1  0  0  0  0
  6  7  1  0  0  0  0
  6 30  1  0  0  0  0
  6 31  1  0  0  0  0
  7 16  1  0  0  0  0
  7  8  1  0  0  0  0
  8  9  2  0  0  0  0
  8 32  1  0  0  0  0
  9 10  1  0  0  0  0
  9 14  1  0  0  0  0
 10 11  1  0  0  0  0
 10 12  1  0  0  0  0
 10 13  1  0  0  0  0
 14 15  2  0  0  0  0
 14 33  1  0  0  0  0
 15 16  1  0  0  0  0
 15 34  1  0  0  0  0
 16 17  2  0  0  0  0
 18 23  1  0  0  0  0
 18 19  1  0  0  0  0
 18 35  1  0  0  0  0
 19 20  1  0  0  0  0
 19 36  1  0  0  0  0
 19 37  1  0  0  0  0
 20 24  1  0  0  0  0
 20 21  1  0  0  0  0
 20 38  1  0  0  0  0
 21 22  1  0  0  0  0
 21 39  1  0  0  0  0
 21 40  1  0  0  0  0
 22 23  1  0  0  0  0
 22 41  1  0  0  0  0
 22 42  1  0  0  0  0
 23 24  1  0  0  0  0
 23 43  1  0  0  0  0
 24 44  1  0  0  0  0
 24 45  1  0  0  0  0
M  END
> <s_m_source_file>
AV-unprocessed.smi

> <i_m_source_file_index>
528

> <i_lp_mmshare_version>
43012

> <i_f3d_flags>
0

> <s_epik_input>
W0NIMl0xW0NIMl1bQ0BASF0oW0NIMl0yKVtDQEBIXShbQ0gyXVtDQEhdMTIpW0NASF0oW0NIM10pW05IXUMoPU8pW0NIMl1uM1tjSF1jKEMoRikoRilGKVtjSF1bY0hdYzM9Tw==

> <s_epik_cmdline>
J2VwaWtfcHl0aG9uJywgJy1waCcsICc3LjAnLCAnLXRuJywgJzgnLCAnLW1hJywgJzIwMCcsICctbWV0YWxfYmluZGluZycsICctaW1hZScsICc8aW5maWxlLm1hZT4nLCAnLW9tYWUnLCAnPG91dGZpbGUubWFlPic=

> <r_lp_tautomer_probability>
1

> <r_epik_Ionization_Penalty>
4.09479e-08

> <r_epik_Ionization_Penalty_Charging>
1.9321e-08

> <r_epik_Ionization_Penalty_Neutral>
2.16269e-08

> <r_epik_State_Penalty>
-0

> <r_epik_Charging_Adjusted_Penalty>
1.9321e-08

> <i_epik_Tot_Q>
0

> <i_epik_Tot_abs_Q>
0

> <r_epik_Metal_State_Penalty>
-0

> <b_epik_Metal_Only>
0

> <s_lp_Force_Field>
OPLS_2005

> <r_lp_Energy>
63.0094

> <b_lp_Chiralities_Consistent>
1

> <s_lp_Variant>
AV-unprocessed.smi:528-5

> <Gold.Version>
5.8.1

> <Gold.Id.Protein>
6NUR|6NUR_protein|mol2

> <Gold.PLP.Fitness>
48.2221

> <Gold.PLP.PLP>
-48.6397

> <Gold.PLP.part.hbond>
-0.3473

> <Gold.PLP.part.metal>
0.0000

> <Gold.PLP.part.buried>
-6.2243

> <Gold.PLP.part.nonpolar>
-41.7711

> <Gold.PLP.part.repulsive>
0.0147

> <Gold.PLP.ligand.clash>
0.0000

> <Gold.PLP.ligand.torsion>
0.2558

> <Gold.PLP.Chemscore.Hbond>
0.0000

> <Gold.PLP.Chemscore.CHOScore>
0.0000

> <Gold.PLP.Chemscore.Metal>
0.0000

> <Gold.PLP.Chemscore.Internal.Correction>
0.0939

> <Gold.Rescore>
     Score         DG    S(hbond)    S(metal)    S(lipo)     H(rot)  DE(clash)    DE(int)     intcor
     10.73     -12.94       0.00        0.00     101.26       1.71       0.26       1.95       ----

> <Gold.Chemscore.Fitness>
10.7318

> <Gold.Chemscore.DG>
-12.9432

> <Gold.Chemscore.ZeroCoef>
-5.4800

> <Gold.Chemscore.Hbond>
0.0000

> <Gold.Chemscore.Metal>
0.0000

> <Gold.Chemscore.Lipo>
101.2578

> <Gold.Chemscore.Internal_Hbond>
0.0000

> <Gold.Chemscore.DEClash>
0.2645

> <Gold.Chemscore.DEInternal>
1.9469

> <Gold.Chemscore.Rot>
1.7125

> <Gold.Chemscore.Internal.Correction>
   9.000000E+99

> <Gold.Chemscore.Hbond.Weighted>
-0.0000

> <Gold.Chemscore.Metal.Weighted>
-0.0000

> <Gold.Chemscore.Lipo.Weighted>
-11.8472

> <Gold.Chemscore.Internal_Hbond.Weighted>
0.0000

> <Gold.Chemscore.DEClash.Weighted>
0.2645

> <Gold.Chemscore.DEInternal.Weighted>
1.9469

> <Gold.Chemscore.Rot.Weighted>
4.3840

> <Gold.Chemscore.Internal.Correction.Weighted>
   9.000000E+99

> <Gold.Protein.RotatedTorsions>
[ 6907 6896 6895 6894 ] final -177.34 input  -60.11 | X-H torsion
[ 7974 7965 7964 7962 ] final   19.01 input  175.53 | X-H torsion
[ 8008 7997 7996 7995 ] final -105.42 input   59.86 | X-H torsion
[ 10167 10162 10161 10158 ] final  -93.29 input  -65.29 | X-H torsion
[ 10718 10713 10712 10709 ] final -144.02 input   66.30 | X-H torsion
[ 10763 10752 10751 10750 ] final  151.11 input  -60.55 | X-H torsion
[ 11005 11000 10999 10996 ] final   20.68 input  -57.11 | X-H torsion

> <Gold.Protein.ActiveResidues>
 VAL166  LYS551  ARG553  GLY616  TRP617  ASP618  TYR619  PRO620  LYS621  CYS622 
 ASP623  PHE694  ASN695  SER759  ASP760  ASP761  ALA762  ILE779  LEU786  VAL792 
 PHE793  MET794  SER795  GLU796  ALA797  LYS798  CYS799  TRP800  GLU811  SER814 

> <Gold.Protein.RotatedAtoms>
  151.6194  133.3340  159.3084 H   0  0  0  0  0  0  0  0  0  0  0  0  # atno 6907 bound_to 6896
  150.8114  134.7274  159.6703 H   0  0  0  0  0  0  0  0  0  0  0  0  # atno 6908 bound_to 6896
  152.4210  134.5959  160.0038 H   0  0  0  0  0  0  0  0  0  0  0  0  # atno 6909 bound_to 6896
  146.2164  139.8374  142.8648 H   0  0  0  0  0  0  0  0  0  0  0  0  # atno 7974 bound_to 7965
  154.8997  140.0413  157.1886 H   0  0  0  0  0  0  0  0  0  0  0  0  # atno 8008 bound_to 7997
  154.8457  140.2921  155.5609 H   0  0  0  0  0  0  0  0  0  0  0  0  # atno 8009 bound_to 7997
  156.2994  140.2474  156.3407 H   0  0  0  0  0  0  0  0  0  0  0  0  # atno 8010 bound_to 7997
  140.3261  143.3021  151.9993 H   0  0  0  0  0  0  0  0  0  0  0  0  # atno 10167 bound_to 10162
  156.3650  130.7758  151.1931 H   0  0  0  0  0  0  0  0  0  0  0  0  # atno 10718 bound_to 10713
  154.0984  135.2847  155.3257 H   0  0  0  0  0  0  0  0  0  0  0  0  # atno 10763 bound_to 10752
  154.6572  135.5347  153.7977 H   0  0  0  0  0  0  0  0  0  0  0  0  # atno 10764 bound_to 10752
  153.0388  135.6525  154.1149 H   0  0  0  0  0  0  0  0  0  0  0  0  # atno 10765 bound_to 10752
  140.4000  134.1729  155.7663 H   0  0  0  0  0  0  0  0  0  0  0  0  # atno 11005 bound_to 11000
  145.2934  141.0174  143.3650 LP  0  0  0  0  0  0  0  0  0  0  0  0  # atno 17320 bound_to 7965
  144.9060  139.4588  143.6610 LP  0  0  0  0  0  0  0  0  0  0  0  0  # atno 17321 bound_to 7965
  139.4865  144.6272  151.7141 LP  0  0  0  0  0  0  0  0  0  0  0  0  # atno 17342 bound_to 10162
  140.5439  144.0534  150.6099 LP  0  0  0  0  0  0  0  0  0  0  0  0  # atno 17343 bound_to 10162
  157.7478  131.0389  150.4524 LP  0  0  0  0  0  0  0  0  0  0  0  0  # atno 17370 bound_to 10713
  156.4741  130.4059  149.6500 LP  0  0  0  0  0  0  0  0  0  0  0  0  # atno 17371 bound_to 10713
  141.1860  133.8311  157.1083 LP  0  0  0  0  0  0  0  0  0  0  0  0  # atno 17394 bound_to 11000
  140.0344  134.9885  157.0842 LP  0  0  0  0  0  0  0  0  0  0  0  0  # atno 17395 bound_to 11000

$$$$
