AV-unprocessed.smi:3200|AV-procd|sdf|12235|dock1
  -GOLD-   2272018 73D 1   1.00000     0.00000
 Structure written by MMmdl.
 38 39  0  0  0  0  0  0  0  0  2 V2000
  153.3389  138.0749  154.8413 C   0  0  0  0  0  0  0  0  0  0  0  0
  152.4072  139.0152  155.5271 C   0  0  0  0  0  0  0  0  0  0  0  0
  152.4707  139.2214  156.8372 N   0  0  0  0  0  0  0  0  0  0  0  0
  151.4500  140.1546  157.0682 O   0  0  0  0  0  0  0  0  0  0  0  0
  150.8795  140.3833  155.8611 C   0  0  0  0  0  0  0  0  0  0  0  0
  149.7749  141.3813  155.7631 C   0  0  0  0  0  0  0  0  0  0  0  0
  149.2096  141.7647  157.1366 C   0  0  0  0  0  0  0  0  0  0  0  0
  149.9065  142.9459  157.6851 N   0  3  0  0  0  0  0  0  0  0  0  0
  151.3162  142.7130  158.0732 C   0  0  2  0  0  0  0  0  0  0  0  0
  151.4727  141.8147  159.3082 C   0  0  0  0  0  0  0  0  0  0  0  0
  152.8221  142.2021  159.9271 C   0  0  0  0  0  0  0  0  0  0  0  0
  153.3064  143.4459  159.1666 C   0  0  0  0  0  0  0  0  0  0  0  0
  152.0813  144.0078  158.4225 C   0  0  0  0  0  0  0  0  0  0  0  0
  152.5031  144.7830  157.1602 C   0  0  0  0  0  0  0  0  0  0  0  0
  151.2836  144.9436  159.3606 C   0  0  0  0  0  0  0  0  0  0  0  0
  151.4488  139.7160  154.8608 N   0  0  0  0  0  0  0  0  0  0  0  0
  154.0494  137.6430  155.5471 H   0  0  0  0  0  0  0  0  0  0  0  0
  153.8990  138.5985  154.0662 H   0  0  0  0  0  0  0  0  0  0  0  0
  152.7791  137.2637  154.3760 H   0  0  0  0  0  0  0  0  0  0  0  0
  150.1529  142.2673  155.2509 H   0  0  0  0  0  0  0  0  0  0  0  0
  148.9871  140.9662  155.1330 H   0  0  0  0  0  0  0  0  0  0  0  0
  148.1433  141.9772  157.0508 H   0  0  0  0  0  0  0  0  0  0  0  0
  149.3184  140.9283  157.8286 H   0  0  0  0  0  0  0  0  0  0  0  0
  149.8970  143.6673  156.9782 H   0  0  0  0  0  0  0  0  0  0  0  0
  151.8245  142.2297  157.2364 H   0  0  0  0  0  0  0  0  0  0  0  0
  150.6749  142.0083  160.0267 H   0  0  0  0  0  0  0  0  0  0  0  0
  151.4297  140.7556  159.0517 H   0  0  0  0  0  0  0  0  0  0  0  0
  152.6988  142.4214  160.9881 H   0  0  0  0  0  0  0  0  0  0  0  0
  153.5474  141.3919  159.8450 H   0  0  0  0  0  0  0  0  0  0  0  0
  153.7746  144.1773  159.8269 H   0  0  0  0  0  0  0  0  0  0  0  0
  154.0682  143.1379  158.4488 H   0  0  0  0  0  0  0  0  0  0  0  0
  153.1149  145.6485  157.4166 H   0  0  0  0  0  0  0  0  0  0  0  0
  151.6345  145.1452  156.6090 H   0  0  0  0  0  0  0  0  0  0  0  0
  153.0857  144.1602  156.4805 H   0  0  0  0  0  0  0  0  0  0  0  0
  151.8908  145.7951  159.6696 H   0  0  0  0  0  0  0  0  0  0  0  0
  150.9560  144.4352  160.2675 H   0  0  0  0  0  0  0  0  0  0  0  0
  150.3971  145.3464  158.8702 H   0  0  0  0  0  0  0  0  0  0  0  0
  149.4007  143.2814  158.4925 H   0  0  0  0  0  0  0  0  0  0  0  0
  1  2  1  0  0  0  0
  1 17  1  0  0  0  0
  1 18  1  0  0  0  0
  1 19  1  0  0  0  0
  2 16  1  0  0  0  0
  2  3  2  0  0  0  0
  3  4  1  0  0  0  0
  4  5  1  0  0  0  0
  5  6  1  0  0  0  0
  5 16  2  0  0  0  0
  6  7  1  0  0  0  0
  6 20  1  0  0  0  0
  6 21  1  0  0  0  0
  7  8  1  0  0  0  0
  7 22  1  0  0  0  0
  7 23  1  0  0  0  0
  8  9  1  0  0  0  0
  8 24  1  0  0  0  0
  8 38  1  0  0  0  0
  9 13  1  0  0  0  0
  9 10  1  0  0  0  0
  9 25  1  0  0  0  0
 10 11  1  0  0  0  0
 10 26  1  0  0  0  0
 10 27  1  0  0  0  0
 11 12  1  0  0  0  0
 11 28  1  0  0  0  0
 11 29  1  0  0  0  0
 12 13  1  0  0  0  0
 12 30  1  0  0  0  0
 12 31  1  0  0  0  0
 13 14  1  0  0  0  0
 13 15  1  0  0  0  0
 14 32  1  0  0  0  0
 14 33  1  0  0  0  0
 14 34  1  0  0  0  0
 15 35  1  0  0  0  0
 15 36  1  0  0  0  0
 15 37  1  0  0  0  0
M  CHG  1   8   1
M  END
> <s_m_source_file>
AV-unprocessed.smi

> <i_m_source_file_index>
3200

> <i_lp_mmshare_version>
43012

> <i_f3d_flags>
0

> <s_epik_input>
W0NIM11jMW5vYyhuMSlbQ0gyXVtDSDJdW05IXVtDQEBIXShDMihbQ0gzXSlbQ0gzXSlbQ0gyXVtDSDJdW0NIMl0y

> <s_epik_cmdline>
J2VwaWtfcHl0aG9uJywgJy1waCcsICc3LjAnLCAnLXRuJywgJzgnLCAnLW1hJywgJzIwMCcsICctbWV0YWxfYmluZGluZycsICctaW1hZScsICc8aW5maWxlLm1hZT4nLCAnLW9tYWUnLCAnPG91dGZpbGUubWFlPic=

> <r_lp_tautomer_probability>
1

> <r_epik_Ionization_Penalty>
0.000953161

> <r_epik_Ionization_Penalty_Charging>
0.000953161

> <r_epik_Ionization_Penalty_Neutral>
4.23223e-13

> <r_epik_State_Penalty>
0.000619331

> <r_epik_Charging_Adjusted_Penalty>
0.00157249

> <i_epik_Tot_Q>
1

> <i_epik_Tot_abs_Q>
1

> <r_epik_Metal_State_Penalty>
-0

> <b_epik_Metal_Only>
0

> <s_lp_Force_Field>
OPLS_2005

> <r_lp_Energy>
25.4915

> <b_lp_Chiralities_Consistent>
1

> <s_lp_Variant>
AV-unprocessed.smi:3200-1

> <Gold.Version>
5.8.1

> <Gold.Id.Protein>
6NUR|6NUR_protein|mol2

> <Gold.PLP.Fitness>
48.2585

> <Gold.PLP.PLP>
-37.0637

> <Gold.PLP.part.hbond>
-2.8615

> <Gold.PLP.part.metal>
0.0000

> <Gold.PLP.part.buried>
-4.0635

> <Gold.PLP.part.nonpolar>
-32.1630

> <Gold.PLP.part.repulsive>
0.1132

> <Gold.PLP.ligand.clash>
0.0000

> <Gold.PLP.ligand.torsion>
0.4013

> <Gold.PLP.Chemscore.Hbond>
3.9750

> <Gold.PLP.Chemscore.CHOScore>
0.0000

> <Gold.PLP.Chemscore.Metal>
0.0000

> <Gold.Chemscore.Hbonds>
donor molecule, donor type, donor heavy atom, donor atom, acceptor molecule, acceptor atom, score
      L1  H     8    24       P1  8028  1.98
      P1  H  7989  7998       L1    16  1.00
      P1  H  7997  8008       L1     3  0.52

> <Gold.PLP.Chemscore.Internal.Correction>
0.0724

> <Gold.Rescore>
     Score         DG    S(hbond)    S(metal)    S(lipo)     H(rot)  DE(clash)    DE(int)     intcor
     14.28     -16.31       1.32        0.00      93.87       1.79       0.27       1.76       ----

> <Gold.Chemscore.Fitness>
14.2777

> <Gold.Chemscore.DG>
-16.3078

> <Gold.Chemscore.ZeroCoef>
-5.4800

> <Gold.Chemscore.Hbond>
1.3233

> <Gold.Chemscore.Metal>
0.0000

> <Gold.Chemscore.Lipo>
93.8746

> <Gold.Chemscore.Internal_Hbond>
0.0000

> <Gold.Chemscore.DEClash>
0.2736

> <Gold.Chemscore.DEInternal>
1.7565

> <Gold.Chemscore.Rot>
1.7872

> <Gold.Chemscore.Internal.Correction>
   9.000000E+99

> <Gold.Chemscore.Hbonds>
donor molecule, donor type, donor heavy atom, donor atom, acceptor molecule, acceptor atom, score
      L1  H     8    24       P1  8028  0.91
      P1  H  7989  7998       L1    16  0.65
      P1  H  7997  8008       L1     3  0.06

> <Gold.Chemscore.Hbond.Weighted>
-4.4198

> <Gold.Chemscore.Metal.Weighted>
-0.0000

> <Gold.Chemscore.Lipo.Weighted>
-10.9833

> <Gold.Chemscore.Internal_Hbond.Weighted>
0.0000

> <Gold.Chemscore.DEClash.Weighted>
0.2736

> <Gold.Chemscore.DEInternal.Weighted>
1.7565

> <Gold.Chemscore.Rot.Weighted>
4.5753

> <Gold.Chemscore.Internal.Correction.Weighted>
   9.000000E+99

> <Gold.Protein.RotatedTorsions>
[ 6907 6896 6895 6894 ] final   84.77 input  -60.11 | X-H torsion
[ 7974 7965 7964 7962 ] final   26.68 input  175.53 | X-H torsion
[ 8008 7997 7996 7995 ] final  -73.07 input   59.86 | X-H torsion
[ 10167 10162 10161 10158 ] final   89.31 input  -65.29 | X-H torsion
[ 10718 10713 10712 10709 ] final -138.99 input   66.30 | X-H torsion
[ 10763 10752 10751 10750 ] final  115.04 input  -60.55 | X-H torsion
[ 11005 11000 10999 10996 ] final   84.66 input  -57.11 | X-H torsion

> <Gold.Protein.ActiveResidues>
 VAL166  LYS551  ARG553  GLY616  TRP617  ASP618  TYR619  PRO620  LYS621  CYS622 
 ASP623  PHE694  ASN695  SER759  ASP760  ASP761  ALA762  ILE779  LEU786  VAL792 
 PHE793  MET794  SER795  GLU796  ALA797  LYS798  CYS799  TRP800  GLU811  SER814 

> <Gold.Protein.RotatedAtoms>
  152.5360  134.2690  159.8963 H   0  0  0  0  0  0  0  0  0  0  0  0  # atno 6907 bound_to 6896
  151.2647  133.4278  159.2625 H   0  0  0  0  0  0  0  0  0  0  0  0  # atno 6908 bound_to 6896
  151.0421  134.9629  159.8223 H   0  0  0  0  0  0  0  0  0  0  0  0  # atno 6909 bound_to 6896
  146.1825  139.7295  142.8890 H   0  0  0  0  0  0  0  0  0  0  0  0  # atno 7974 bound_to 7965
  154.5217  140.0786  156.8184 H   0  0  0  0  0  0  0  0  0  0  0  0  # atno 8008 bound_to 7997
  155.3561  140.3415  155.4222 H   0  0  0  0  0  0  0  0  0  0  0  0  # atno 8009 bound_to 7997
  156.1688  140.1613  156.8471 H   0  0  0  0  0  0  0  0  0  0  0  0  # atno 8010 bound_to 7997
  139.8585  144.6556  150.9086 H   0  0  0  0  0  0  0  0  0  0  0  0  # atno 10167 bound_to 10162
  156.3056  130.7453  151.1516 H   0  0  0  0  0  0  0  0  0  0  0  0  # atno 10718 bound_to 10713
  153.5163  135.3607  155.2611 H   0  0  0  0  0  0  0  0  0  0  0  0  # atno 10763 bound_to 10752
  154.8738  135.4035  154.3311 H   0  0  0  0  0  0  0  0  0  0  0  0  # atno 10764 bound_to 10752
  153.3973  135.7074  153.6518 H   0  0  0  0  0  0  0  0  0  0  0  0  # atno 10765 bound_to 10752
  139.8994  134.8232  156.2476 H   0  0  0  0  0  0  0  0  0  0  0  0  # atno 11005 bound_to 11000
  145.4036  141.0388  143.3056 LP  0  0  0  0  0  0  0  0  0  0  0  0  # atno 17320 bound_to 7965
  144.8339  139.5583  143.6931 LP  0  0  0  0  0  0  0  0  0  0  0  0  # atno 17321 bound_to 7965
  140.7778  143.3765  151.1554 LP  0  0  0  0  0  0  0  0  0  0  0  0  # atno 17342 bound_to 10162
  139.7396  143.8944  152.3046 LP  0  0  0  0  0  0  0  0  0  0  0  0  # atno 17343 bound_to 10162
  157.7379  131.0547  150.5329 LP  0  0  0  0  0  0  0  0  0  0  0  0  # atno 17370 bound_to 10713
  156.5462  130.4220  149.6129 LP  0  0  0  0  0  0  0  0  0  0  0  0  # atno 17371 bound_to 10713
  141.0245  133.7023  156.1324 LP  0  0  0  0  0  0  0  0  0  0  0  0  # atno 17394 bound_to 11000
  140.7186  134.4383  157.5576 LP  0  0  0  0  0  0  0  0  0  0  0  0  # atno 17395 bound_to 11000

$$$$
