AV-unprocessed.smi:1973|AV-procd|sdf|7976|dock5
  -GOLD-   2272010153D 1   1.00000     0.00000
 Structure written by MMmdl.
 48 50  0  0  0  0  0  0  0  0  2 V2000
  156.2188  138.7117  153.3803 C   0  0  0  0  0  0  0  0  0  0  0  0
  155.3552  138.8549  154.4944 O   0  0  0  0  0  0  0  0  0  0  0  0
  154.0659  138.3169  154.2538 C   0  0  0  0  0  0  0  0  0  0  0  0
  153.2487  138.3839  155.5529 C   0  0  0  0  0  0  0  0  0  0  0  0
  151.8311  138.0885  155.3181 N   0  0  0  0  0  0  0  0  0  0  0  0
  151.4922  136.7584  155.5034 N   0  0  0  0  0  0  0  0  0  0  0  0
  150.2761  136.3632  155.3143 C   0  0  0  0  0  0  0  0  0  0  0  0
  149.9264  134.9262  155.5042 C   0  0  0  0  0  0  0  0  0  0  0  0
  149.8498  134.4339  156.6313 O   0  0  0  0  0  0  0  0  0  0  0  0
  149.7063  134.2107  154.3873 N   0  0  0  0  0  0  0  0  0  0  0  0
  149.3706  132.7912  154.3483 C   0  0  0  0  0  0  0  0  0  0  0  0
  147.9888  132.5378  153.7158 C   0  0  2  0  0  0  0  0  0  0  0  0
  147.5316  131.0834  153.7840 C   0  0  0  0  0  0  0  0  0  0  0  0
  146.4516  131.0264  152.7074 C   0  0  0  0  0  0  0  0  0  0  0  0
  146.9291  131.9145  151.6264 N   0  3  1  0  0  0  0  0  0  0  0  0
  145.8442  132.5534  150.8518 C   0  0  0  0  0  0  0  0  0  0  0  0
  144.6344  131.6695  150.6652 C   0  0  0  0  0  0  0  0  0  0  0  0
  145.5917  131.8973  149.5153 C   0  0  0  0  0  0  0  0  0  0  0  0
  147.8965  132.8686  152.2177 C   0  0  0  0  0  0  0  0  0  0  0  0
  149.2399  137.3085  154.9176 C   0  0  0  0  0  0  0  0  0  0  0  0
  149.5859  138.6033  154.7482 C   0  0  0  0  0  0  0  0  0  0  0  0
  150.9574  139.0725  154.9482 C   0  0  0  0  0  0  0  0  0  0  0  0
  151.2948  140.2465  154.7984 O   0  0  0  0  0  0  0  0  0  0  0  0
  157.1903  139.1490  153.6108 H   0  0  0  0  0  0  0  0  0  0  0  0
  155.8195  139.2214  152.5024 H   0  0  0  0  0  0  0  0  0  0  0  0
  156.3732  137.6602  153.1351 H   0  0  0  0  0  0  0  0  0  0  0  0
  153.5673  138.8846  153.4665 H   0  0  0  0  0  0  0  0  0  0  0  0
  154.1529  137.2846  153.9115 H   0  0  0  0  0  0  0  0  0  0  0  0
  153.6614  137.6929  156.2901 H   0  0  0  0  0  0  0  0  0  0  0  0
  153.3547  139.3761  155.9954 H   0  0  0  0  0  0  0  0  0  0  0  0
  149.7973  134.6833  153.4994 H   0  0  0  0  0  0  0  0  0  0  0  0
  150.1444  132.2791  153.7752 H   0  0  0  0  0  0  0  0  0  0  0  0
  149.4082  132.3737  155.3558 H   0  0  0  0  0  0  0  0  0  0  0  0
  147.2425  133.1380  154.2392 H   0  0  0  0  0  0  0  0  0  0  0  0
  148.3520  130.4121  153.5253 H   0  0  0  0  0  0  0  0  0  0  0  0
  147.1604  130.8006  154.7695 H   0  0  0  0  0  0  0  0  0  0  0  0
  146.2725  130.0141  152.3442 H   0  0  0  0  0  0  0  0  0  0  0  0
  145.5137  131.4086  153.1142 H   0  0  0  0  0  0  0  0  0  0  0  0
  145.7316  133.6301  150.9688 H   0  0  0  0  0  0  0  0  0  0  0  0
  144.6366  130.6867  151.1337 H   0  0  0  0  0  0  0  0  0  0  0  0
  143.6620  132.1544  150.6072 H   0  0  0  0  0  0  0  0  0  0  0  0
  145.2495  132.5327  148.7008 H   0  0  0  0  0  0  0  0  0  0  0  0
  146.2295  131.0659  149.2200 H   0  0  0  0  0  0  0  0  0  0  0  0
  147.6066  133.9091  152.0613 H   0  0  0  0  0  0  0  0  0  0  0  0
  148.8573  132.7194  151.7240 H   0  0  0  0  0  0  0  0  0  0  0  0
  148.2155  137.0057  154.7619 H   0  0  0  0  0  0  0  0  0  0  0  0
  148.8289  139.3164  154.4566 H   0  0  0  0  0  0  0  0  0  0  0  0
  147.4568  131.3371  150.9875 H   0  0  0  0  0  0  0  0  0  0  0  0
  1  2  1  0  0  0  0
  1 24  1  0  0  0  0
  1 25  1  0  0  0  0
  1 26  1  0  0  0  0
  2  3  1  0  0  0  0
  3  4  1  0  0  0  0
  3 27  1  0  0  0  0
  3 28  1  0  0  0  0
  4  5  1  0  0  0  0
  4 29  1  0  0  0  0
  4 30  1  0  0  0  0
  5 22  1  0  0  0  0
  5  6  1  0  0  0  0
  6  7  2  0  0  0  0
  7  8  1  0  0  0  0
  7 20  1  0  0  0  0
  8  9  2  0  0  0  0
  8 10  1  0  0  0  0
 10 11  1  0  0  0  0
 10 31  1  0  0  0  0
 11 12  1  0  0  0  0
 11 32  1  0  0  0  0
 11 33  1  0  0  0  0
 12 19  1  0  0  0  0
 12 13  1  0  0  0  0
 12 34  1  0  0  0  0
 13 14  1  0  0  0  0
 13 35  1  0  0  0  0
 13 36  1  0  0  0  0
 14 15  1  0  0  0  0
 14 37  1  0  0  0  0
 14 38  1  0  0  0  0
 15 16  1  0  0  0  0
 15 19  1  0  0  0  0
 15 48  1  0  0  0  0
 16 18  1  0  0  0  0
 16 17  1  0  0  0  0
 16 39  1  0  0  0  0
 17 18  1  0  0  0  0
 17 40  1  0  0  0  0
 17 41  1  0  0  0  0
 18 42  1  0  0  0  0
 18 43  1  0  0  0  0
 19 44  1  0  0  0  0
 19 45  1  0  0  0  0
 20 21  2  0  0  0  0
 20 46  1  0  0  0  0
 21 22  1  0  0  0  0
 21 47  1  0  0  0  0
 22 23  2  0  0  0  0
M  CHG  1  15   1
M  END
> <s_m_source_file>
AV-unprocessed.smi

> <i_m_source_file_index>
1973

> <i_lp_mmshare_version>
43012

> <i_f3d_flags>
0

> <s_epik_input>
W0NIM11PW0NIMl1bQ0gyXW4xbmMoW2NIXVtjSF1jMT1PKUMoPU8pW05IXVtDSDJdW0NAQEhdMltDSDJdW0NIMl1OKFtDSDJdMilbQ0hdM1tDSDJdW0NIMl0z

> <s_epik_cmdline>
J2VwaWtfcHl0aG9uJywgJy1waCcsICc3LjAnLCAnLXRuJywgJzgnLCAnLW1hJywgJzIwMCcsICctbWV0YWxfYmluZGluZycsICctaW1hZScsICc8aW5maWxlLm1hZT4nLCAnLW9tYWUnLCAnPG91dGZpbGUubWFlPic=

> <r_lp_tautomer_probability>
1

> <r_epik_Ionization_Penalty>
0.000225706

> <r_epik_Ionization_Penalty_Charging>
0.000223776

> <r_epik_Ionization_Penalty_Neutral>
1.93004e-06

> <r_epik_State_Penalty>
-0

> <r_epik_Charging_Adjusted_Penalty>
0.000223776

> <i_epik_Tot_Q>
1

> <i_epik_Tot_abs_Q>
1

> <r_epik_Metal_State_Penalty>
-0

> <b_epik_Metal_Only>
0

> <s_lp_Force_Field>
OPLS_2005

> <r_lp_Energy>
57.8958

> <b_lp_Chiralities_Consistent>
1

> <s_lp_Variant>
AV-unprocessed.smi:1973-1

> <Gold.Version>
5.8.1

> <Gold.Id.Protein>
6NUR|6NUR_protein|mol2

> <Gold.PLP.Fitness>
48.5617

> <Gold.PLP.PLP>
-41.3182

> <Gold.PLP.part.hbond>
-4.1077

> <Gold.PLP.part.metal>
0.0000

> <Gold.PLP.part.buried>
-2.8231

> <Gold.PLP.part.nonpolar>
-35.2473

> <Gold.PLP.part.repulsive>
0.2002

> <Gold.PLP.ligand.clash>
0.0000

> <Gold.PLP.ligand.torsion>
2.6606

> <Gold.PLP.Chemscore.Hbond>
3.7622

> <Gold.PLP.Chemscore.CHOScore>
0.0000

> <Gold.PLP.Chemscore.Metal>
0.0000

> <Gold.Chemscore.Hbonds>
donor molecule, donor type, donor heavy atom, donor atom, acceptor molecule, acceptor atom, score
      L1  H    10    31       P1  7948  0.03
      L1  H    15    48       P1 10747  1.00
      P1  H  7989  7998       L1    23  0.86
      P1  H  7997  8009       L1     2  0.66
      P1  H 10752 10764       L1     6  0.96

> <Gold.PLP.Chemscore.Internal.Correction>
1.2780

> <Gold.Rescore>
     Score         DG    S(hbond)    S(metal)    S(lipo)     H(rot)  DE(clash)    DE(int)     intcor
     19.03     -24.30       3.35        0.00     108.27       1.97       2.51       2.76       ----

> <Gold.Chemscore.Fitness>
19.0279

> <Gold.Chemscore.DG>
-24.2982

> <Gold.Chemscore.ZeroCoef>
-5.4800

> <Gold.Chemscore.Hbond>
3.3522

> <Gold.Chemscore.Metal>
0.0000

> <Gold.Chemscore.Lipo>
108.2718

> <Gold.Chemscore.Internal_Hbond>
0.0000

> <Gold.Chemscore.DEClash>
2.5068

> <Gold.Chemscore.DEInternal>
2.7635

> <Gold.Chemscore.Rot>
1.9711

> <Gold.Chemscore.Internal.Correction>
   9.000000E+99

> <Gold.Chemscore.Hbonds>
donor molecule, donor type, donor heavy atom, donor atom, acceptor molecule, acceptor atom, score
      L1  H    15    48       P1 10747  0.95
      P1  H  7989  7998       L1    23  0.83
      P1  H  7997  8009       L1     2  0.55
      P1  H 10752 10764       L1     6  0.63

> <Gold.Chemscore.Hbond.Weighted>
-11.1964

> <Gold.Chemscore.Metal.Weighted>
-0.0000

> <Gold.Chemscore.Lipo.Weighted>
-12.6678

> <Gold.Chemscore.Internal_Hbond.Weighted>
0.0000

> <Gold.Chemscore.DEClash.Weighted>
2.5068

> <Gold.Chemscore.DEInternal.Weighted>
2.7635

> <Gold.Chemscore.Rot.Weighted>
5.0460

> <Gold.Chemscore.Internal.Correction.Weighted>
   9.000000E+99

> <Gold.Protein.RotatedTorsions>
[ 6907 6896 6895 6894 ] final  -33.37 input  -60.11 | X-H torsion
[ 7974 7965 7964 7962 ] final  117.46 input  175.53 | X-H torsion
[ 8008 7997 7996 7995 ] final  -73.29 input   59.86 | X-H torsion
[ 10167 10162 10161 10158 ] final  -62.17 input  -65.29 | X-H torsion
[ 10718 10713 10712 10709 ] final -115.95 input   66.30 | X-H torsion
[ 10763 10752 10751 10750 ] final  -48.50 input  -60.55 | X-H torsion
[ 11005 11000 10999 10996 ] final   19.44 input  -57.11 | X-H torsion

> <Gold.Protein.ActiveResidues>
 VAL166  LYS551  ARG553  GLY616  TRP617  ASP618  TYR619  PRO620  LYS621  CYS622 
 ASP623  PHE694  ASN695  SER759  ASP760  ASP761  ALA762  ILE779  LEU786  VAL792 
 PHE793  MET794  SER795  GLU796  ALA797  LYS798  CYS799  TRP800  GLU811  SER814 

> <Gold.Protein.RotatedAtoms>
  151.0665  134.9771  159.8286 H   0  0  0  0  0  0  0  0  0  0  0  0  # atno 6907 bound_to 6896
  152.5403  134.2352  159.8850 H   0  0  0  0  0  0  0  0  0  0  0  0  # atno 6908 bound_to 6896
  151.2374  133.4374  159.2639 H   0  0  0  0  0  0  0  0  0  0  0  0  # atno 6909 bound_to 6896
  145.1670  139.3122  143.4487 H   0  0  0  0  0  0  0  0  0  0  0  0  # atno 7974 bound_to 7965
  154.5235  140.0782  156.8216 H   0  0  0  0  0  0  0  0  0  0  0  0  # atno 8008 bound_to 7997
  155.3524  140.3413  155.4221 H   0  0  0  0  0  0  0  0  0  0  0  0  # atno 8009 bound_to 7997
  156.1707  140.1619  156.8439 H   0  0  0  0  0  0  0  0  0  0  0  0  # atno 8010 bound_to 7997
  140.5957  143.2350  151.6042 H   0  0  0  0  0  0  0  0  0  0  0  0  # atno 10167 bound_to 10162
  156.0930  130.6108  150.8972 H   0  0  0  0  0  0  0  0  0  0  0  0  # atno 10718 bound_to 10713
  154.0787  135.6594  153.4834 H   0  0  0  0  0  0  0  0  0  0  0  0  # atno 10763 bound_to 10752
  153.0364  135.5174  154.7495 H   0  0  0  0  0  0  0  0  0  0  0  0  # atno 10764 bound_to 10752
  154.6583  135.3011  154.9867 H   0  0  0  0  0  0  0  0  0  0  0  0  # atno 10765 bound_to 10752
  140.4137  134.1591  155.7668 H   0  0  0  0  0  0  0  0  0  0  0  0  # atno 11005 bound_to 11000
  146.3474  140.1802  142.8589 LP  0  0  0  0  0  0  0  0  0  0  0  0  # atno 17320 bound_to 7965
  145.0271  140.8841  143.5131 LP  0  0  0  0  0  0  0  0  0  0  0  0  # atno 17321 bound_to 7965
  139.5256  144.3069  152.1026 LP  0  0  0  0  0  0  0  0  0  0  0  0  # atno 17342 bound_to 10162
  140.2241  144.4436  150.6329 LP  0  0  0  0  0  0  0  0  0  0  0  0  # atno 17343 bound_to 10162
  157.6084  131.0938  150.8838 LP  0  0  0  0  0  0  0  0  0  0  0  0  # atno 17370 bound_to 10713
  156.8982  130.5237  149.5283 LP  0  0  0  0  0  0  0  0  0  0  0  0  # atno 17371 bound_to 10713
  141.1811  133.8412  157.1254 LP  0  0  0  0  0  0  0  0  0  0  0  0  # atno 17394 bound_to 11000
  140.0249  134.9928  157.0666 LP  0  0  0  0  0  0  0  0  0  0  0  0  # atno 17395 bound_to 11000

$$$$
