AV-unprocessed.smi:613|AV-procd|sdf|3067|dock9
  -GOLD-   2262023593D 1   1.00000     0.00000
 Structure written by MMmdl.
 39 40  0  0  0  0  0  0  0  0  2 V2000
  150.4410  140.3907  157.9928 C   0  0  0  0  0  0  0  0  0  0  0  0
  150.9156  141.5555  157.2559 N   0  0  0  0  0  0  0  0  0  0  0  0
  150.6822  141.6146  155.8108 C   0  0  0  0  0  0  0  0  0  0  0  0
  149.2595  141.1802  155.4054 C   0  0  1  0  0  0  0  0  0  0  0  0
  148.1617  141.7115  156.3523 C   0  0  0  0  0  0  0  0  0  0  0  0
  146.8125  141.3853  155.8837 N   0  0  0  0  0  0  0  0  0  0  0  0
  145.7431  141.8826  156.7606 C   0  0  0  0  0  0  0  0  0  0  0  0
  145.7156  141.2397  158.1523 C   0  0  0  0  0  0  0  0  0  0  0  0
  145.4748  139.9277  158.2088 N   0  0  0  0  0  0  0  0  0  0  0  0
  145.9170  141.9171  159.1582 O   0  0  0  0  0  0  0  0  0  0  0  0
  146.6429  141.8594  154.5135 C   0  0  0  0  0  0  0  0  0  0  0  0
  147.7412  141.3228  153.5813 C   0  0  0  0  0  0  0  0  0  0  0  0
  149.0186  141.6850  154.0951 O   0  0  0  0  0  0  0  0  0  0  0  0
  151.2923  142.7136  157.9769 C   0  0  0  0  0  0  0  0  0  0  0  0
  152.1587  142.6752  159.0971 C   0  0  0  0  0  0  0  0  0  0  0  0
  152.4627  143.8755  159.7615 C   0  0  0  0  0  0  0  0  0  0  0  0
  151.8850  145.0568  159.2681 C   0  0  0  0  0  0  0  0  0  0  0  0
  151.0669  145.0850  158.1944 N   0  0  0  0  0  0  0  0  0  0  0  0
  150.7983  143.9193  157.5820 N   0  3  0  0  0  0  0  0  0  0  0  0
  151.2212  140.0068  158.6506 H   0  0  0  0  0  0  0  0  0  0  0  0
  150.1572  139.5873  157.3123 H   0  0  0  0  0  0  0  0  0  0  0  0
  149.5666  140.6431  158.5933 H   0  0  0  0  0  0  0  0  0  0  0  0
  150.9110  142.5986  155.4018 H   0  0  0  0  0  0  0  0  0  0  0  0
  151.3990  140.9405  155.3407 H   0  0  0  0  0  0  0  0  0  0  0  0
  149.2126  140.0904  155.3655 H   0  0  0  0  0  0  0  0  0  0  0  0
  148.3297  141.2830  157.3393 H   0  0  0  0  0  0  0  0  0  0  0  0
  148.2622  142.7932  156.4583 H   0  0  0  0  0  0  0  0  0  0  0  0
  145.8319  142.9638  156.8804 H   0  0  0  0  0  0  0  0  0  0  0  0
  144.7724  141.7102  156.2926 H   0  0  0  0  0  0  0  0  0  0  0  0
  145.4538  139.4578  159.1023 H   0  0  0  0  0  0  0  0  0  0  0  0
  145.3216  139.4083  157.3567 H   0  0  0  0  0  0  0  0  0  0  0  0
  145.6684  141.5527  154.1310 H   0  0  0  0  0  0  0  0  0  0  0  0
  146.6555  142.9506  154.4916 H   0  0  0  0  0  0  0  0  0  0  0  0
  147.6728  140.2382  153.4852 H   0  0  0  0  0  0  0  0  0  0  0  0
  147.6277  141.7414  152.5810 H   0  0  0  0  0  0  0  0  0  0  0  0
  152.5880  141.7531  159.4593 H   0  0  0  0  0  0  0  0  0  0  0  0
  153.1146  143.8905  160.6224 H   0  0  0  0  0  0  0  0  0  0  0  0
  152.0852  146.0054  159.7441 H   0  0  0  0  0  0  0  0  0  0  0  0
  150.1781  143.9366  156.7724 H   0  0  0  0  0  0  0  0  0  0  0  0
  1  2  1  0  0  0  0
  1 20  1  0  0  0  0
  1 21  1  0  0  0  0
  1 22  1  0  0  0  0
  2  3  1  0  0  0  0
  2 14  1  0  0  0  0
  3  4  1  0  0  0  0
  3 23  1  0  0  0  0
  3 24  1  0  0  0  0
  4 13  1  0  0  0  0
  4  5  1  0  0  0  0
  4 25  1  0  0  0  0
  5  6  1  0  0  0  0
  5 26  1  0  0  0  0
  5 27  1  0  0  0  0
  6  7  1  0  0  0  0
  6 11  1  0  0  0  0
  7  8  1  0  0  0  0
  7 28  1  0  0  0  0
  7 29  1  0  0  0  0
  8  9  1  0  0  0  0
  8 10  2  0  0  0  0
  9 30  1  0  0  0  0
  9 31  1  0  0  0  0
 11 12  1  0  0  0  0
 11 32  1  0  0  0  0
 11 33  1  0  0  0  0
 12 13  1  0  0  0  0
 12 34  1  0  0  0  0
 12 35  1  0  0  0  0
 14 19  1  0  0  0  0
 14 15  2  0  0  0  0
 15 16  1  0  0  0  0
 15 36  1  0  0  0  0
 16 17  2  0  0  0  0
 16 37  1  0  0  0  0
 17 18  1  0  0  0  0
 17 38  1  0  0  0  0
 18 19  2  0  0  0  0
 19 39  1  0  0  0  0
M  CHG  1  19   1
M  END
> <s_m_source_file>
AV-unprocessed.smi

> <i_m_source_file_index>
613

> <i_lp_mmshare_version>
43012

> <i_f3d_flags>
0

> <s_epik_input>
bjFuW2NIXVtjSF1bY0hdYzFOKFtDSDNdKVtDSDJdW0NAQEhdMltDSDJdTihbQ0gyXVtDSDJdTzIpW0NIMl1DKD1PKVtOSDJd

> <s_epik_cmdline>
J2VwaWtfcHl0aG9uJywgJy1waCcsICc3LjAnLCAnLXRuJywgJzgnLCAnLW1hJywgJzIwMCcsICctbWV0YWxfYmluZGluZycsICctaW1hZScsICc8aW5maWxlLm1hZT4nLCAnLW9tYWUnLCAnPG91dGZpbGUubWFlPic=

> <r_lp_tautomer_probability>
0.966961

> <r_epik_Ionization_Penalty>
1.86301

> <r_epik_Ionization_Penalty_Charging>
1.86058

> <r_epik_Ionization_Penalty_Neutral>
0.00243207

> <r_epik_State_Penalty>
1.48112

> <r_epik_Charging_Adjusted_Penalty>
3.3417

> <i_epik_Tot_Q>
1

> <i_epik_Tot_abs_Q>
1

> <r_epik_Metal_State_Penalty>
1.50193

> <b_epik_Metal_Only>
0

> <s_lp_Force_Field>
OPLS_2005

> <r_lp_Energy>
27.4635

> <b_lp_Chiralities_Consistent>
1

> <s_lp_Variant>
AV-unprocessed.smi:613-4

> <Gold.Version>
5.8.1

> <Gold.Id.Protein>
6NUR|6NUR_protein|mol2

> <Gold.PLP.Fitness>
42.6125

> <Gold.PLP.PLP>
-34.0495

> <Gold.PLP.part.hbond>
-3.2276

> <Gold.PLP.part.metal>
0.0000

> <Gold.PLP.part.buried>
-5.0318

> <Gold.PLP.part.nonpolar>
-25.8793

> <Gold.PLP.part.repulsive>
0.5278

> <Gold.PLP.ligand.clash>
0.0000

> <Gold.PLP.ligand.torsion>
0.9738

> <Gold.PLP.Chemscore.Hbond>
3.4358

> <Gold.PLP.Chemscore.CHOScore>
0.0000

> <Gold.PLP.Chemscore.Metal>
0.0000

> <Gold.Chemscore.Hbonds>
donor molecule, donor type, donor heavy atom, donor atom, acceptor molecule, acceptor atom, score
      L1  H    19    39       P1  8028  2.00
      P1  H  6934  6946       L1    10  0.78
      P1  H  8011  8017       L1    13  0.46

> <Gold.PLP.Chemscore.Internal.Correction>
0.2031

> <Gold.Rescore>
     Score         DG    S(hbond)    S(metal)    S(lipo)     H(rot)  DE(clash)    DE(int)     intcor
     13.90     -15.13       2.05        0.00      72.71       2.23       0.04       1.18       ----

> <Gold.Chemscore.Fitness>
13.9004

> <Gold.Chemscore.DG>
-15.1266

> <Gold.Chemscore.ZeroCoef>
-5.4800

> <Gold.Chemscore.Hbond>
2.0540

> <Gold.Chemscore.Metal>
0.0000

> <Gold.Chemscore.Lipo>
72.7136

> <Gold.Chemscore.Internal_Hbond>
0.0000

> <Gold.Chemscore.DEClash>
0.0416

> <Gold.Chemscore.DEInternal>
1.1846

> <Gold.Chemscore.Rot>
2.2348

> <Gold.Chemscore.Internal.Correction>
   9.000000E+99

> <Gold.Chemscore.Hbonds>
donor molecule, donor type, donor heavy atom, donor atom, acceptor molecule, acceptor atom, score
      L1  H    19    39       P1  8028  0.96
      P1  H  6934  6946       L1    10  0.63
      P1  H  8011  8017       L1    13  0.08

> <Gold.Chemscore.Hbond.Weighted>
-6.8602

> <Gold.Chemscore.Metal.Weighted>
-0.0000

> <Gold.Chemscore.Lipo.Weighted>
-8.5075

> <Gold.Chemscore.Internal_Hbond.Weighted>
0.0000

> <Gold.Chemscore.DEClash.Weighted>
0.0416

> <Gold.Chemscore.DEInternal.Weighted>
1.1846

> <Gold.Chemscore.Rot.Weighted>
5.7211

> <Gold.Chemscore.Internal.Correction.Weighted>
   9.000000E+99

> <Gold.Protein.RotatedTorsions>
[ 6907 6896 6895 6894 ] final -173.69 input  -60.11 | X-H torsion
[ 7974 7965 7964 7962 ] final  144.25 input  175.53 | X-H torsion
[ 8008 7997 7996 7995 ] final  173.06 input   59.86 | X-H torsion
[ 10167 10162 10161 10158 ] final -142.98 input  -65.29 | X-H torsion
[ 10718 10713 10712 10709 ] final  174.75 input   66.30 | X-H torsion
[ 10763 10752 10751 10750 ] final  -88.57 input  -60.55 | X-H torsion
[ 11005 11000 10999 10996 ] final  101.67 input  -57.11 | X-H torsion

> <Gold.Protein.ActiveResidues>
 VAL166  LYS551  ARG553  GLY616  TRP617  ASP618  TYR619  PRO620  LYS621  CYS622 
 ASP623  PHE694  ASN695  SER759  ASP760  ASP761  ALA762  ILE779  LEU786  VAL792 
 PHE793  MET794  SER795  GLU796  ALA797  LYS798  CYS799  TRP800  GLU811  SER814 

> <Gold.Protein.RotatedAtoms>
  151.5602  133.3404  159.2969 H   0  0  0  0  0  0  0  0  0  0  0  0  # atno 6907 bound_to 6896
  150.8427  134.7728  159.6956 H   0  0  0  0  0  0  0  0  0  0  0  0  # atno 6908 bound_to 6896
  152.4491  134.5439  159.9898 H   0  0  0  0  0  0  0  0  0  0  0  0  # atno 6909 bound_to 6896
  144.8852  139.5640  143.5824 H   0  0  0  0  0  0  0  0  0  0  0  0  # atno 7974 bound_to 7965
  156.1113  140.1470  156.9335 H   0  0  0  0  0  0  0  0  0  0  0  0  # atno 8008 bound_to 7997
  154.4769  140.0892  156.7326 H   0  0  0  0  0  0  0  0  0  0  0  0  # atno 8009 bound_to 7997
  155.4592  140.3437  155.4313 H   0  0  0  0  0  0  0  0  0  0  0  0  # atno 8010 bound_to 7997
  139.8036  143.7799  152.2660 H   0  0  0  0  0  0  0  0  0  0  0  0  # atno 10167 bound_to 10162
  156.9450  131.0013  151.2960 H   0  0  0  0  0  0  0  0  0  0  0  0  # atno 10718 bound_to 10713
  154.6460  135.5372  153.7844 H   0  0  0  0  0  0  0  0  0  0  0  0  # atno 10763 bound_to 10752
  153.0359  135.6470  154.1089 H   0  0  0  0  0  0  0  0  0  0  0  0  # atno 10764 bound_to 10752
  154.1010  135.2933  155.3231 H   0  0  0  0  0  0  0  0  0  0  0  0  # atno 10765 bound_to 10752
  139.8774  134.9192  156.4941 H   0  0  0  0  0  0  0  0  0  0  0  0  # atno 11005 bound_to 11000
  146.3020  139.7456  142.9084 LP  0  0  0  0  0  0  0  0  0  0  0  0  # atno 17320 bound_to 7965
  145.3882  141.0368  143.3139 LP  0  0  0  0  0  0  0  0  0  0  0  0  # atno 17321 bound_to 7965
  139.7926  144.7404  150.9934 LP  0  0  0  0  0  0  0  0  0  0  0  0  # atno 17342 bound_to 10162
  140.7819  143.4426  151.0529 LP  0  0  0  0  0  0  0  0  0  0  0  0  # atno 17343 bound_to 10162
  157.5760  130.8343  149.8456 LP  0  0  0  0  0  0  0  0  0  0  0  0  # atno 17370 bound_to 10713
  156.0388  130.3744  150.1491 LP  0  0  0  0  0  0  0  0  0  0  0  0  # atno 17371 bound_to 10713
  140.8637  133.8040  155.9291 LP  0  0  0  0  0  0  0  0  0  0  0  0  # atno 17394 bound_to 11000
  140.9023  134.2363  157.5034 LP  0  0  0  0  0  0  0  0  0  0  0  0  # atno 17395 bound_to 11000

$$$$
