AV-unprocessed.smi:249|AV-procd|sdf|1926|dock6
  -GOLD-   2262021 43D 1   1.00000     0.00000
 Structure written by MMmdl.
 64 67  0  0  0  0  0  0  0  0  2 V2000
  144.0119  133.0143  149.6047 C   0  0  0  0  0  0  0  0  0  0  0  0
  145.4487  133.1045  150.1377 C   0  0  0  0  0  0  0  0  0  0  0  0
  145.5172  133.7871  151.4553 N   0  3  2  0  0  0  0  0  0  0  0  0
  145.2857  135.2549  151.3796 C   0  0  0  0  0  0  0  0  0  0  0  0
  145.1540  135.8634  152.7844 C   0  0  0  0  0  0  0  0  0  0  0  0
  146.3950  135.5550  153.6477 C   0  0  1  0  0  0  0  0  0  0  0  0
  146.3510  136.1594  154.9858 N   0  0  0  0  0  0  0  0  0  0  0  0
  145.1679  135.9156  155.8022 C   0  0  0  0  0  0  0  0  0  0  0  0
  146.8812  137.3955  155.1390 C   0  0  0  0  0  0  0  0  0  0  0  0
  146.5763  138.3246  154.1989 N   0  0  0  0  0  0  0  0  0  0  0  0
  147.0663  139.5636  154.2979 C   0  0  0  0  0  0  0  0  0  0  0  0
  147.8661  140.0719  155.2374 N   0  0  0  0  0  0  0  0  0  0  0  0
  148.1845  139.1370  156.1781 C   0  0  0  0  0  0  0  0  0  0  0  0
  147.7390  137.7855  156.2067 C   0  0  0  0  0  0  0  0  0  0  0  0
  148.2565  137.1406  157.3238 N   0  0  0  0  0  0  0  0  0  0  0  0
  148.9643  138.0586  157.9229 C   0  0  0  0  0  0  0  0  0  0  0  0
  148.9926  139.2823  157.2922 N   0  0  0  0  0  0  0  0  0  0  0  0
  149.6887  140.4746  157.7442 C   0  0  0  0  0  0  0  0  0  0  0  0
  151.1664  140.5786  157.2831 C   0  0  1  0  0  0  0  0  0  0  0  0
  151.2188  140.5841  155.7378 C   0  0  0  0  0  0  0  0  0  0  0  0
  152.5399  140.4256  155.2611 O   0  0  0  0  0  0  0  0  0  0  0  0
  151.9565  141.7663  157.9067 C   0  0  1  0  0  0  0  0  0  0  0  0
  151.1855  143.0684  158.0675 C   0  0  0  0  0  0  0  0  0  0  0  0
  151.9757  143.8191  159.1369 C   0  0  0  0  0  0  0  0  0  0  0  0
  152.6726  142.8310  159.8852 O   0  0  0  0  0  0  0  0  0  0  0  0
  152.3841  141.5424  159.3610 C   0  0  0  0  0  0  0  0  0  0  0  0
  146.6226  134.0279  153.6747 C   0  0  0  0  0  0  0  0  0  0  0  0
  146.7250  133.4297  152.2569 C   0  0  2  0  0  0  0  0  0  0  0  0
  148.0546  133.7896  151.5592 C   0  0  0  0  0  0  0  0  0  0  0  0
  143.9844  132.4494  148.6727 H   0  0  0  0  0  0  0  0  0  0  0  0
  143.5870  133.9965  149.4003 H   0  0  0  0  0  0  0  0  0  0  0  0
  143.3596  132.5069  150.3162 H   0  0  0  0  0  0  0  0  0  0  0  0
  145.8288  132.0869  150.2362 H   0  0  0  0  0  0  0  0  0  0  0  0
  146.0944  133.6093  149.4177 H   0  0  0  0  0  0  0  0  0  0  0  0
  146.0925  135.7383  150.8281 H   0  0  0  0  0  0  0  0  0  0  0  0
  144.3705  135.4605  150.8259 H   0  0  0  0  0  0  0  0  0  0  0  0
  145.0112  136.9415  152.7053 H   0  0  0  0  0  0  0  0  0  0  0  0
  144.2535  135.4619  153.2509 H   0  0  0  0  0  0  0  0  0  0  0  0
  147.2518  136.0134  153.1530 H   0  0  0  0  0  0  0  0  0  0  0  0
  145.3011  136.3122  156.8096 H   0  0  0  0  0  0  0  0  0  0  0  0
  144.9856  134.8443  155.8884 H   0  0  0  0  0  0  0  0  0  0  0  0
  144.2799  136.3755  155.3691 H   0  0  0  0  0  0  0  0  0  0  0  0
  146.7769  140.2452  153.5116 H   0  0  0  0  0  0  0  0  0  0  0  0
  149.4995  137.8632  158.8409 H   0  0  0  0  0  0  0  0  0  0  0  0
  149.1232  141.3310  157.3749 H   0  0  0  0  0  0  0  0  0  0  0  0
  149.6314  140.5189  158.8326 H   0  0  0  0  0  0  0  0  0  0  0  0
  151.6720  139.6620  157.5873 H   0  0  0  0  0  0  0  0  0  0  0  0
  150.5949  139.7950  155.3186 H   0  0  0  0  0  0  0  0  0  0  0  0
  150.8201  141.5213  155.3482 H   0  0  0  0  0  0  0  0  0  0  0  0
  152.6386  139.5439  154.9358 H   0  0  0  0  0  0  0  0  0  0  0  0
  152.8500  141.9621  157.3115 H   0  0  0  0  0  0  0  0  0  0  0  0
  151.1148  143.6491  157.1496 H   0  0  0  0  0  0  0  0  0  0  0  0
  150.1736  142.8698  158.4243 H   0  0  0  0  0  0  0  0  0  0  0  0
  152.7073  144.4859  158.6798 H   0  0  0  0  0  0  0  0  0  0  0  0
  151.3276  144.4167  159.7783 H   0  0  0  0  0  0  0  0  0  0  0  0
  151.5679  141.1086  159.9409 H   0  0  0  0  0  0  0  0  0  0  0  0
  153.2501  140.8864  159.4508 H   0  0  0  0  0  0  0  0  0  0  0  0
  147.5210  133.7805  154.2406 H   0  0  0  0  0  0  0  0  0  0  0  0
  145.7939  133.5443  154.1922 H   0  0  0  0  0  0  0  0  0  0  0  0
  146.7156  132.3453  152.3781 H   0  0  0  0  0  0  0  0  0  0  0  0
  148.9039  133.4957  152.1763 H   0  0  0  0  0  0  0  0  0  0  0  0
  148.1499  134.8580  151.3681 H   0  0  0  0  0  0  0  0  0  0  0  0
  148.1623  133.2730  150.6057 H   0  0  0  0  0  0  0  0  0  0  0  0
  144.7406  133.4164  151.9843 H   0  0  0  0  0  0  0  0  0  0  0  0
  1  2  1  0  0  0  0
  1 30  1  0  0  0  0
  1 31  1  0  0  0  0
  1 32  1  0  0  0  0
  2  3  1  0  0  0  0
  2 33  1  0  0  0  0
  2 34  1  0  0  0  0
  3 28  1  0  0  0  0
  3  4  1  0  0  0  0
  3 64  1  0  0  0  0
  4  5  1  0  0  0  0
  4 35  1  0  0  0  0
  4 36  1  0  0  0  0
  5  6  1  0  0  0  0
  5 37  1  0  0  0  0
  5 38  1  0  0  0  0
  6  7  1  0  0  0  0
  6 27  1  0  0  0  0
  6 39  1  0  0  0  0
  7  8  1  0  0  0  0
  7  9  1  0  0  0  0
  8 40  1  0  0  0  0
  8 41  1  0  0  0  0
  8 42  1  0  0  0  0
  9 14  1  0  0  0  0
  9 10  2  0  0  0  0
 10 11  1  0  0  0  0
 11 12  2  0  0  0  0
 11 43  1  0  0  0  0
 12 13  1  0  0  0  0
 13 17  1  0  0  0  0
 13 14  2  0  0  0  0
 14 15  1  0  0  0  0
 15 16  2  0  0  0  0
 16 17  1  0  0  0  0
 16 44  1  0  0  0  0
 17 18  1  0  0  0  0
 18 19  1  0  0  0  0
 18 45  1  0  0  0  0
 18 46  1  0  0  0  0
 19 20  1  0  0  0  0
 19 22  1  0  0  0  0
 19 47  1  0  0  0  0
 20 21  1  0  0  0  0
 20 48  1  0  0  0  0
 20 49  1  0  0  0  0
 21 50  1  0  0  0  0
 22 26  1  0  0  0  0
 22 23  1  0  0  0  0
 22 51  1  0  0  0  0
 23 24  1  0  0  0  0
 23 52  1  0  0  0  0
 23 53  1  0  0  0  0
 24 25  1  0  0  0  0
 24 54  1  0  0  0  0
 24 55  1  0  0  0  0
 25 26  1  0  0  0  0
 26 56  1  0  0  0  0
 26 57  1  0  0  0  0
 27 28  1  0  0  0  0
 27 58  1  0  0  0  0
 27 59  1  0  0  0  0
 28 29  1  0  0  0  0
 28 60  1  0  0  0  0
 29 61  1  0  0  0  0
 29 62  1  0  0  0  0
 29 63  1  0  0  0  0
M  CHG  1   3   1
M  END
> <s_m_source_file>
AV-unprocessed.smi

> <i_m_source_file_index>
249

> <i_lp_mmshare_version>
43012

> <i_f3d_flags>
0

> <s_epik_input>
W0NIM11bQ0gyXU4xW0NIMl1bQ0gyXVtDQEhdKFtDSDJdW0NASF0xW0NIM10pTihbQ0gzXSljKG5bY0hdbjIpYyhjMjMpbltjSF1uM1tDSDJdW0NASF0oW0NIMl1bT0hdKVtDQEBIXTRbQ0gyXVtDSDJdT1tDSDJdNA==

> <s_epik_cmdline>
J2VwaWtfcHl0aG9uJywgJy1waCcsICc3LjAnLCAnLXRuJywgJzgnLCAnLW1hJywgJzIwMCcsICctbWV0YWxfYmluZGluZycsICctaW1hZScsICc8aW5maWxlLm1hZT4nLCAnLW9tYWUnLCAnPG91dGZpbGUubWFlPic=

> <r_lp_tautomer_probability>
1

> <r_epik_Ionization_Penalty>
0.00294688

> <r_epik_Ionization_Penalty_Charging>
0.00169971

> <r_epik_Ionization_Penalty_Neutral>
0.00124717

> <r_epik_State_Penalty>
-0

> <r_epik_Charging_Adjusted_Penalty>
0.00169971

> <i_epik_Tot_Q>
1

> <i_epik_Tot_abs_Q>
1

> <r_epik_Metal_State_Penalty>
-0

> <b_epik_Metal_Only>
0

> <s_lp_Force_Field>
OPLS_2005

> <r_lp_Energy>
54.3628

> <b_lp_Chiralities_Consistent>
1

> <s_lp_Variant>
AV-unprocessed.smi:249-29

> <Gold.Version>
5.8.1

> <Gold.Id.Protein>
6NUR|6NUR_protein|mol2

> <Gold.PLP.Fitness>
41.0879

> <Gold.PLP.PLP>
-38.4247

> <Gold.PLP.part.hbond>
-1.0000

> <Gold.PLP.part.metal>
0.0000

> <Gold.PLP.part.buried>
-5.9170

> <Gold.PLP.part.nonpolar>
-31.9277

> <Gold.PLP.part.repulsive>
0.4330

> <Gold.PLP.ligand.clash>
0.0000

> <Gold.PLP.ligand.torsion>
1.9666

> <Gold.PLP.Chemscore.Hbond>
1.0000

> <Gold.PLP.Chemscore.CHOScore>
0.8791

> <Gold.PLP.Chemscore.Metal>
0.0000

> <Gold.Chemscore.Hbonds>
donor molecule, donor type, donor heavy atom, donor atom, acceptor molecule, acceptor atom, score
      P1  H  7989  7998       L1    21  0.03
      P1  H  7997  8010       L1    21  0.25

> <Gold.PLP.Chemscore.Internal.Correction>
0.9593

> <Gold.Rescore>
     Score         DG    S(hbond)    S(metal)    S(lipo)     H(rot)  DE(clash)    DE(int)     intcor
      9.49     -13.05       0.98        0.00     100.10       2.90       0.61       2.95       ----

> <Gold.Chemscore.Fitness>
9.4940

> <Gold.Chemscore.DG>
-13.0532

> <Gold.Chemscore.ZeroCoef>
-5.4800

> <Gold.Chemscore.Hbond>
0.9840

> <Gold.Chemscore.Metal>
0.0000

> <Gold.Chemscore.Lipo>
100.1047

> <Gold.Chemscore.Internal_Hbond>
0.0000

> <Gold.Chemscore.DEClash>
0.6101

> <Gold.Chemscore.DEInternal>
2.9490

> <Gold.Chemscore.Rot>
2.9006

> <Gold.Chemscore.Internal.Correction>
   9.000000E+99

> <Gold.Chemscore.Hbond.Weighted>
-3.2866

> <Gold.Chemscore.Metal.Weighted>
-0.0000

> <Gold.Chemscore.Lipo.Weighted>
-11.7123

> <Gold.Chemscore.Internal_Hbond.Weighted>
0.0000

> <Gold.Chemscore.DEClash.Weighted>
0.6101

> <Gold.Chemscore.DEInternal.Weighted>
2.9490

> <Gold.Chemscore.Rot.Weighted>
7.4256

> <Gold.Chemscore.Internal.Correction.Weighted>
   9.000000E+99

> <Gold.Protein.RotatedTorsions>
[ 6907 6896 6895 6894 ] final  -41.33 input  -60.11 | X-H torsion
[ 7974 7965 7964 7962 ] final   68.21 input  175.53 | X-H torsion
[ 8008 7997 7996 7995 ] final  101.35 input   59.86 | X-H torsion
[ 10167 10162 10161 10158 ] final -104.15 input  -65.29 | X-H torsion
[ 10718 10713 10712 10709 ] final -166.07 input   66.30 | X-H torsion
[ 10763 10752 10751 10750 ] final   -0.37 input  -60.55 | X-H torsion
[ 11005 11000 10999 10996 ] final   69.91 input  -57.11 | X-H torsion

> <Gold.Protein.ActiveResidues>
 VAL166  LYS551  ARG553  GLY616  TRP617  ASP618  TYR619  PRO620  LYS621  CYS622 
 ASP623  PHE694  ASN695  SER759  ASP760  ASP761  ALA762  ILE779  LEU786  VAL792 
 PHE793  MET794  SER795  GLU796  ALA797  LYS798  CYS799  TRP800  GLU811  SER814 

> <Gold.Protein.RotatedAtoms>
  150.9680  134.9058  159.7770 H   0  0  0  0  0  0  0  0  0  0  0  0  # atno 6907 bound_to 6896
  152.5180  134.3580  159.9284 H   0  0  0  0  0  0  0  0  0  0  0  0  # atno 6908 bound_to 6896
  151.3590  133.3856  159.2722 H   0  0  0  0  0  0  0  0  0  0  0  0  # atno 6909 bound_to 6896
  145.8053  139.3004  143.1131 H   0  0  0  0  0  0  0  0  0  0  0  0  # atno 7974 bound_to 7965
  156.1291  140.3199  155.8321 H   0  0  0  0  0  0  0  0  0  0  0  0  # atno 8008 bound_to 7997
  155.4365  140.0522  157.3031 H   0  0  0  0  0  0  0  0  0  0  0  0  # atno 8009 bound_to 7997
  154.4885  140.2082  155.9614 H   0  0  0  0  0  0  0  0  0  0  0  0  # atno 8010 bound_to 7997
  140.2124  143.3737  152.1039 H   0  0  0  0  0  0  0  0  0  0  0  0  # atno 10167 bound_to 10162
  156.6625  130.9052  151.3031 H   0  0  0  0  0  0  0  0  0  0  0  0  # atno 10718 bound_to 10713
  153.3311  135.6975  153.6947 H   0  0  0  0  0  0  0  0  0  0  0  0  # atno 10763 bound_to 10752
  153.5750  135.3509  155.2853 H   0  0  0  0  0  0  0  0  0  0  0  0  # atno 10764 bound_to 10752
  154.8618  135.4281  154.2500 H   0  0  0  0  0  0  0  0  0  0  0  0  # atno 10765 bound_to 10752
  139.9627  134.7033  156.0611 H   0  0  0  0  0  0  0  0  0  0  0  0  # atno 11005 bound_to 11000
  145.9835  140.8663  143.0102 LP  0  0  0  0  0  0  0  0  0  0  0  0  # atno 17320 bound_to 7965
  144.6764  140.2113  143.7376 LP  0  0  0  0  0  0  0  0  0  0  0  0  # atno 17321 bound_to 7965
  139.5175  144.6992  151.5541 LP  0  0  0  0  0  0  0  0  0  0  0  0  # atno 17342 bound_to 10162
  140.6314  143.9068  150.6609 LP  0  0  0  0  0  0  0  0  0  0  0  0  # atno 17343 bound_to 10162
  157.7105  130.9434  150.1072 LP  0  0  0  0  0  0  0  0  0  0  0  0  # atno 17370 bound_to 10713
  156.2000  130.3659  149.8800 LP  0  0  0  0  0  0  0  0  0  0  0  0  # atno 17371 bound_to 10713
  141.1305  133.6587  156.3453 LP  0  0  0  0  0  0  0  0  0  0  0  0  # atno 17394 bound_to 11000
  140.5464  134.6070  157.5395 LP  0  0  0  0  0  0  0  0  0  0  0  0  # atno 17395 bound_to 11000

$$$$
