AV-unprocessed.smi:3298|AV-procd|sdf|12647|dock6
  -GOLD-   2272018583D 1   1.00000     0.00000
 Structure written by MMmdl.
 36 37  0  0  0  0  0  0  0  0  2 V2000
  146.2474  143.1552  154.0731 C   0  0  0  0  0  0  0  0  0  0  0  0
  147.2250  142.0007  154.1369 C   0  0  0  0  0  0  0  0  0  0  0  0
  146.9058  140.7149  153.6506 C   0  0  0  0  0  0  0  0  0  0  0  0
  147.8563  139.6747  153.7481 C   0  0  0  0  0  0  0  0  0  0  0  0
  147.4941  138.4018  153.2301 N   0  0  0  0  0  0  0  0  0  0  0  0
  146.2812  137.8228  153.2082 C   0  0  0  0  0  0  0  0  0  0  0  0
  145.2414  138.3340  153.6240 O   0  0  0  0  0  0  0  0  0  0  0  0
  146.3348  136.6043  152.6525 N   0  0  0  0  0  0  0  0  0  0  0  0
  145.1921  135.7137  152.4837 C   0  0  1  0  0  0  0  0  0  0  0  0
  144.9309  135.4684  151.0217 C   0  0  0  0  0  0  0  0  0  0  0  0
  144.9855  134.1786  150.6975 C   0  0  0  0  0  0  0  0  0  0  0  0
  145.3071  133.2975  151.8767 C   0  0  1  0  0  0  0  0  0  0  0  0
  146.5408  132.4043  151.6456 C   0  0  0  0  0  0  0  0  0  0  0  0
  146.3967  131.5997  150.4915 O   0  0  0  0  0  0  0  0  0  0  0  0
  145.4511  134.2941  153.0555 C   0  0  0  0  0  0  0  0  0  0  0  0
  149.1234  139.9651  154.3144 C   0  0  0  0  0  0  0  0  0  0  0  0
  149.3867  141.2680  154.7834 C   0  0  0  0  0  0  0  0  0  0  0  0
  148.4405  142.2258  154.6821 N   0  3  0  0  0  0  0  0  0  0  0  0
  144.2982  136.1560  152.9268 H   0  0  0  0  0  0  0  0  0  0  0  0
  144.4408  132.6587  152.0521 H   0  0  0  0  0  0  0  0  0  0  0  0
  145.3651  142.8906  153.4893 H   0  0  0  0  0  0  0  0  0  0  0  0
  146.7127  144.0253  153.6090 H   0  0  0  0  0  0  0  0  0  0  0  0
  145.9225  143.4316  155.0764 H   0  0  0  0  0  0  0  0  0  0  0  0
  145.9361  140.5269  153.2122 H   0  0  0  0  0  0  0  0  0  0  0  0
  148.2354  137.8921  152.7721 H   0  0  0  0  0  0  0  0  0  0  0  0
  147.2290  136.2590  152.3356 H   0  0  0  0  0  0  0  0  0  0  0  0
  144.7123  136.2718  150.3338 H   0  0  0  0  0  0  0  0  0  0  0  0
  144.8212  133.7784  149.7080 H   0  0  0  0  0  0  0  0  0  0  0  0
  147.4358  133.0176  151.5384 H   0  0  0  0  0  0  0  0  0  0  0  0
  146.7017  131.7539  152.5057 H   0  0  0  0  0  0  0  0  0  0  0  0
  147.2569  131.4036  150.1532 H   0  0  0  0  0  0  0  0  0  0  0  0
  146.4353  134.2198  153.5202 H   0  0  0  0  0  0  0  0  0  0  0  0
  144.7253  134.0642  153.8364 H   0  0  0  0  0  0  0  0  0  0  0  0
  149.9008  139.2199  154.3870 H   0  0  0  0  0  0  0  0  0  0  0  0
  150.3232  141.5715  155.2279 H   0  0  0  0  0  0  0  0  0  0  0  0
  148.6547  143.1616  155.0280 H   0  0  0  0  0  0  0  0  0  0  0  0
  1  2  1  0  0  0  0
  1 21  1  0  0  0  0
  1 22  1  0  0  0  0
  1 23  1  0  0  0  0
  2 18  1  0  0  0  0
  2  3  2  0  0  0  0
  3  4  1  0  0  0  0
  3 24  1  0  0  0  0
  4  5  1  0  0  0  0
  4 16  2  0  0  0  0
  5  6  1  0  0  0  0
  5 25  1  0  0  0  0
  6  7  2  0  0  0  0
  6  8  1  0  0  0  0
  8  9  1  0  0  0  0
  8 26  1  0  0  0  0
  9 19  1  0  0  0  0
  9 15  1  0  0  0  0
  9 10  1  0  0  0  0
 10 11  2  0  0  0  0
 10 27  1  0  0  0  0
 11 12  1  0  0  0  0
 11 28  1  0  0  0  0
 12 20  1  0  0  0  0
 12 13  1  0  0  0  0
 12 15  1  0  0  0  0
 13 14  1  0  0  0  0
 13 29  1  0  0  0  0
 13 30  1  0  0  0  0
 14 31  1  0  0  0  0
 15 32  1  0  0  0  0
 15 33  1  0  0  0  0
 16 17  1  0  0  0  0
 16 34  1  0  0  0  0
 17 18  2  0  0  0  0
 17 35  1  0  0  0  0
 18 36  1  0  0  0  0
M  CHG  1  18   1
M  END
> <s_m_source_file>
AV-unprocessed.smi

> <i_m_source_file_index>
3298

> <i_lp_mmshare_version>
43012

> <i_f3d_flags>
0

> <s_epik_input>
W0NIM11jMVtjSF1jKFtjSF1bY0hdbjEpW05IXUMoPU8pW05IXVtDQEBIXTJbQ0hdPVtDSF1bQ0BASF0oW0NIMl0yKVtDSDJdW09IXQ==

> <s_epik_cmdline>
J2VwaWtfcHl0aG9uJywgJy1waCcsICc3LjAnLCAnLXRuJywgJzgnLCAnLW1hJywgJzIwMCcsICctbWV0YWxfYmluZGluZycsICctaW1hZScsICc8aW5maWxlLm1hZT4nLCAnLW9tYWUnLCAnPG91dGZpbGUubWFlPic=

> <r_epik_Ionization_Penalty>
0.443901

> <r_epik_Ionization_Penalty_Charging>
0.443881

> <r_epik_Ionization_Penalty_Neutral>
1.94967e-05

> <r_epik_State_Penalty>
0.446172

> <r_epik_Charging_Adjusted_Penalty>
0.890053

> <i_epik_Tot_Q>
1

> <i_epik_Tot_abs_Q>
1

> <r_epik_Metal_State_Penalty>
0.675842

> <b_epik_Metal_Only>
0

> <s_lp_Force_Field>
OPLS_2005

> <r_lp_Energy>
27.9023

> <b_lp_Chiralities_Consistent>
1

> <s_lp_Variant>
AV-unprocessed.smi:3298-8

> <Gold.Version>
5.8.1

> <Gold.Id.Protein>
6NUR|6NUR_protein|mol2

> <Gold.PLP.Fitness>
46.8508

> <Gold.PLP.PLP>
-32.3615

> <Gold.PLP.part.hbond>
-4.0000

> <Gold.PLP.part.metal>
0.0000

> <Gold.PLP.part.buried>
-4.9260

> <Gold.PLP.part.nonpolar>
-26.3655

> <Gold.PLP.part.repulsive>
1.9740

> <Gold.PLP.ligand.clash>
0.0000

> <Gold.PLP.ligand.torsion>
0.2618

> <Gold.PLP.Chemscore.Hbond>
5.0000

> <Gold.PLP.Chemscore.CHOScore>
0.0000

> <Gold.PLP.Chemscore.Metal>
0.0000

> <Gold.Chemscore.Hbonds>
donor molecule, donor type, donor heavy atom, donor atom, acceptor molecule, acceptor atom, score
      L1  H     5    25       P1  7948  1.00
      L1  H     8    26       P1  7948  1.00
      L1  H    14    31       P1 10747  1.00
      L1  H    18    36       P1  8028  2.00

> <Gold.PLP.Chemscore.Internal.Correction>
0.0130

> <Gold.Rescore>
     Score         DG    S(hbond)    S(metal)    S(lipo)     H(rot)  DE(clash)    DE(int)     intcor
     20.34     -22.09       3.95        0.00      68.80       1.81       0.25       1.50       ----

> <Gold.Chemscore.Fitness>
20.3371

> <Gold.Chemscore.DG>
-22.0851

> <Gold.Chemscore.ZeroCoef>
-5.4800

> <Gold.Chemscore.Hbond>
3.9460

> <Gold.Chemscore.Metal>
0.0000

> <Gold.Chemscore.Lipo>
68.7972

> <Gold.Chemscore.Internal_Hbond>
0.0000

> <Gold.Chemscore.DEClash>
0.2495

> <Gold.Chemscore.DEInternal>
1.4985

> <Gold.Chemscore.Rot>
1.8061

> <Gold.Chemscore.Internal.Correction>
   9.000000E+99

> <Gold.Chemscore.Hbonds>
donor molecule, donor type, donor heavy atom, donor atom, acceptor molecule, acceptor atom, score
      L1  H     5    25       P1  7948  0.92
      L1  H     8    26       P1  7948  1.00
      L1  H    14    31       P1 10747  0.99
      L1  H    18    36       P1  8028  1.00

> <Gold.Chemscore.Hbond.Weighted>
-13.1795

> <Gold.Chemscore.Metal.Weighted>
-0.0000

> <Gold.Chemscore.Lipo.Weighted>
-8.0493

> <Gold.Chemscore.Internal_Hbond.Weighted>
0.0000

> <Gold.Chemscore.DEClash.Weighted>
0.2495

> <Gold.Chemscore.DEInternal.Weighted>
1.4985

> <Gold.Chemscore.Rot.Weighted>
4.6237

> <Gold.Chemscore.Internal.Correction.Weighted>
   9.000000E+99

> <Gold.Protein.RotatedTorsions>
[ 6907 6896 6895 6894 ] final  -48.32 input  -60.11 | X-H torsion
[ 7974 7965 7964 7962 ] final -150.50 input  175.53 | X-H torsion
[ 8008 7997 7996 7995 ] final  -44.78 input   59.86 | X-H torsion
[ 10167 10162 10161 10158 ] final  175.21 input  -65.29 | X-H torsion
[ 10718 10713 10712 10709 ] final    2.68 input   66.30 | X-H torsion
[ 10763 10752 10751 10750 ] final   64.86 input  -60.55 | X-H torsion
[ 11005 11000 10999 10996 ] final -140.00 input  -57.11 | X-H torsion

> <Gold.Protein.ActiveResidues>
 VAL166  LYS551  ARG553  GLY616  TRP617  ASP618  TYR619  PRO620  LYS621  CYS622 
 ASP623  PHE694  ASN695  SER759  ASP760  ASP761  ALA762  ILE779  LEU786  VAL792 
 PHE793  MET794  SER795  GLU796  ALA797  LYS798  CYS799  TRP800  GLU811  SER814 

> <Gold.Protein.RotatedAtoms>
  150.8918  134.8322  159.7298 H   0  0  0  0  0  0  0  0  0  0  0  0  # atno 6907 bound_to 6896
  152.4841  134.4637  159.9623 H   0  0  0  0  0  0  0  0  0  0  0  0  # atno 6908 bound_to 6896
  151.4699  133.3533  159.2857 H   0  0  0  0  0  0  0  0  0  0  0  0  # atno 6909 bound_to 6896
  144.7904  140.4924  143.5777 H   0  0  0  0  0  0  0  0  0  0  0  0  # atno 7974 bound_to 7965
  154.3998  140.1413  156.3739 H   0  0  0  0  0  0  0  0  0  0  0  0  # atno 8008 bound_to 7997
  155.8067  140.3474  155.5413 H   0  0  0  0  0  0  0  0  0  0  0  0  # atno 8009 bound_to 7997
  155.8428  140.0929  157.1714 H   0  0  0  0  0  0  0  0  0  0  0  0  # atno 8010 bound_to 7997
  139.5169  144.3058  152.0337 H   0  0  0  0  0  0  0  0  0  0  0  0  # atno 10167 bound_to 10162
  156.8666  130.5605  149.5660 H   0  0  0  0  0  0  0  0  0  0  0  0  # atno 10718 bound_to 10713
  153.0072  135.5378  154.6576 H   0  0  0  0  0  0  0  0  0  0  0  0  # atno 10763 bound_to 10752
  154.5792  135.2848  155.0751 H   0  0  0  0  0  0  0  0  0  0  0  0  # atno 10764 bound_to 10752
  154.1887  135.6504  153.5106 H   0  0  0  0  0  0  0  0  0  0  0  0  # atno 10765 bound_to 10752
  140.8465  134.2338  157.4783 H   0  0  0  0  0  0  0  0  0  0  0  0  # atno 11005 bound_to 11000
  145.5810  139.1489  143.3235 LP  0  0  0  0  0  0  0  0  0  0  0  0  # atno 17320 bound_to 7965
  146.2154  140.5939  142.9041 LP  0  0  0  0  0  0  0  0  0  0  0  0  # atno 17321 bound_to 7965
  140.2504  144.4175  150.6224 LP  0  0  0  0  0  0  0  0  0  0  0  0  # atno 17342 bound_to 10162
  140.6228  143.2178  151.6658 LP  0  0  0  0  0  0  0  0  0  0  0  0  # atno 17343 bound_to 10162
  156.0749  130.5773  150.9453 LP  0  0  0  0  0  0  0  0  0  0  0  0  # atno 17370 bound_to 10713
  157.6220  131.0929  150.8605 LP  0  0  0  0  0  0  0  0  0  0  0  0  # atno 17371 bound_to 10713
  139.8703  134.9662  156.4554 LP  0  0  0  0  0  0  0  0  0  0  0  0  # atno 17394 bound_to 11000
  140.8837  133.7899  155.9495 LP  0  0  0  0  0  0  0  0  0  0  0  0  # atno 17395 bound_to 11000

$$$$
