AV-unprocessed.smi:1133|AV-procd|sdf|4856|dock2
  -GOLD-   22720 3423D 1   1.00000     0.00000
 Structure written by MMmdl.
 41 42  0  0  0  0  0  0  0  0  1 V2000
  150.6992  139.5759  157.3077 C   0  0  0  0  0  0  0  0  0  0  0  0
  150.5591  140.3063  155.9701 C   0  0  0  0  0  0  0  0  0  0  0  0
  151.4894  140.2266  155.1676 O   0  0  0  0  0  0  0  0  0  0  0  0
  149.4272  141.0047  155.7120 N   0  0  0  0  0  0  0  0  0  0  0  0
  149.1751  141.6595  154.4232 C   0  0  0  0  0  0  0  0  0  0  0  0
  148.0746  140.8813  153.6794 C   0  0  0  0  0  0  0  0  0  0  0  0
  146.7925  140.7648  154.5320 C   0  0  0  0  0  0  0  0  0  0  0  0
  145.8484  139.8641  153.8778 N   0  0  0  0  0  0  0  0  0  0  0  0
  146.0016  138.5375  153.7626 C   0  0  0  0  0  0  0  0  0  0  0  0
  146.9612  137.9111  154.2128 O   0  0  0  0  0  0  0  0  0  0  0  0
  144.9881  137.9754  153.0894 N   0  0  0  0  0  0  0  0  0  0  0  0
  144.8749  136.5531  152.7896 C   0  0  0  0  0  0  0  0  0  0  0  0
  144.8135  136.2962  151.2745 C   0  0  0  0  0  0  0  0  0  0  0  0
  145.1976  134.9376  150.9512 N   0  0  0  0  0  0  0  0  0  0  0  0
  146.4225  134.3313  151.1958 C   0  0  0  0  0  0  0  0  0  0  0  0
  146.3254  133.0438  150.7182 C   0  0  0  0  0  0  0  0  0  0  0  0
  145.0584  132.8385  150.1770 N   0  0  0  0  0  0  0  0  0  0  0  0
  144.4473  134.0034  150.3510 C   0  0  0  0  0  0  0  0  0  0  0  0
  147.1083  140.2723  155.9638 C   0  0  0  0  0  0  0  0  0  0  0  0
  148.2560  141.0814  156.5936 C   0  0  0  0  0  0  0  0  0  0  0  0
  149.8923  138.8545  157.4416 H   0  0  0  0  0  0  0  0  0  0  0  0
  150.6856  140.2830  158.1374 H   0  0  0  0  0  0  0  0  0  0  0  0
  151.6426  139.0305  157.3508 H   0  0  0  0  0  0  0  0  0  0  0  0
  148.8566  142.6888  154.5954 H   0  0  0  0  0  0  0  0  0  0  0  0
  150.0684  141.7262  153.8009 H   0  0  0  0  0  0  0  0  0  0  0  0
  147.8505  141.3699  152.7305 H   0  0  0  0  0  0  0  0  0  0  0  0
  148.4484  139.8858  153.4342 H   0  0  0  0  0  0  0  0  0  0  0  0
  146.3502  141.7607  154.5999 H   0  0  0  0  0  0  0  0  0  0  0  0
  145.0243  140.2844  153.4739 H   0  0  0  0  0  0  0  0  0  0  0  0
  144.2449  138.5727  152.7575 H   0  0  0  0  0  0  0  0  0  0  0  0
  145.7100  136.0116  153.2378 H   0  0  0  0  0  0  0  0  0  0  0  0
  143.9692  136.1779  153.2671 H   0  0  0  0  0  0  0  0  0  0  0  0
  143.8050  136.4720  150.8976 H   0  0  0  0  0  0  0  0  0  0  0  0
  145.4761  136.9767  150.7378 H   0  0  0  0  0  0  0  0  0  0  0  0
  147.2385  134.8512  151.6757 H   0  0  0  0  0  0  0  0  0  0  0  0
  147.0642  132.2561  150.7212 H   0  0  0  0  0  0  0  0  0  0  0  0
  143.4306  134.1823  150.0326 H   0  0  0  0  0  0  0  0  0  0  0  0
  146.2188  140.3419  156.5910 H   0  0  0  0  0  0  0  0  0  0  0  0
  147.3872  139.2177  155.9397 H   0  0  0  0  0  0  0  0  0  0  0  0
  148.4467  140.7289  157.6062 H   0  0  0  0  0  0  0  0  0  0  0  0
  147.9580  142.1252  156.7027 H   0  0  0  0  0  0  0  0  0  0  0  0
  1  2  1  0  0  0  0
  1 21  1  0  0  0  0
  1 22  1  0  0  0  0
  1 23  1  0  0  0  0
  2  3  2  0  0  0  0
  2  4  1  0  0  0  0
  4 20  1  0  0  0  0
  4  5  1  0  0  0  0
  5  6  1  0  0  0  0
  5 24  1  0  0  0  0
  5 25  1  0  0  0  0
  6  7  1  0  0  0  0
  6 26  1  0  0  0  0
  6 27  1  0  0  0  0
  7  8  1  0  0  0  0
  7 19  1  0  0  0  0
  7 28  1  0  0  0  0
  8  9  1  0  0  0  0
  8 29  1  0  0  0  0
  9 10  2  0  0  0  0
  9 11  1  0  0  0  0
 11 12  1  0  0  0  0
 11 30  1  0  0  0  0
 12 13  1  0  0  0  0
 12 31  1  0  0  0  0
 12 32  1  0  0  0  0
 13 14  1  0  0  0  0
 13 33  1  0  0  0  0
 13 34  1  0  0  0  0
 14 18  1  0  0  0  0
 14 15  1  0  0  0  0
 15 16  2  0  0  0  0
 15 35  1  0  0  0  0
 16 17  1  0  0  0  0
 16 36  1  0  0  0  0
 17 18  2  0  0  0  0
 18 37  1  0  0  0  0
 19 20  1  0  0  0  0
 19 38  1  0  0  0  0
 19 39  1  0  0  0  0
 20 40  1  0  0  0  0
 20 41  1  0  0  0  0
M  END
> <s_m_source_file>
AV-unprocessed.smi

> <i_m_source_file_index>
1133

> <i_lp_mmshare_version>
43012

> <i_f3d_flags>
0

> <s_epik_input>
W0NIM11DKD1PKU4xW0NIMl1bQ0gyXVtDSF0oW0NIMl1bQ0gyXTEpW05IXUMoPU8pW05IXVtDSDJdW0NIMl1uMltjSF1bY0hdbltjSF0y

> <s_epik_cmdline>
J2VwaWtfcHl0aG9uJywgJy1waCcsICc3LjAnLCAnLXRuJywgJzgnLCAnLW1hJywgJzIwMCcsICctbWV0YWxfYmluZGluZycsICctaW1hZScsICc8aW5maWxlLm1hZT4nLCAnLW9tYWUnLCAnPG91dGZpbGUubWFlPic=

> <r_lp_tautomer_probability>
1

> <r_epik_Ionization_Penalty>
0.622276

> <r_epik_Ionization_Penalty_Charging>
0.622222

> <r_epik_Ionization_Penalty_Neutral>
5.3634e-05

> <r_epik_State_Penalty>
0.638348

> <r_epik_Charging_Adjusted_Penalty>
1.26057

> <i_epik_Tot_Q>
0

> <i_epik_Tot_abs_Q>
0

> <r_epik_Metal_State_Penalty>
0.307013

> <b_epik_Metal_Only>
0

> <s_lp_Force_Field>
OPLS_2005

> <r_lp_Energy>
21.3303

> <b_lp_Chiralities_Consistent>
1

> <s_lp_Variant>
AV-unprocessed.smi:1133-2

> <Gold.Version>
5.8.1

> <Gold.Id.Protein>
6NUR|6NUR_protein|mol2

> <Gold.PLP.Fitness>
45.6694

> <Gold.PLP.PLP>
-28.2767

> <Gold.PLP.part.hbond>
-3.0000

> <Gold.PLP.part.metal>
0.0000

> <Gold.PLP.part.buried>
-0.7516

> <Gold.PLP.part.nonpolar>
-24.1931

> <Gold.PLP.part.repulsive>
0.2760

> <Gold.PLP.ligand.clash>
0.0000

> <Gold.PLP.ligand.torsion>
0.1859

> <Gold.PLP.Chemscore.Hbond>
2.9119

> <Gold.PLP.Chemscore.CHOScore>
3.0000

> <Gold.PLP.Chemscore.Metal>
0.0000

> <Gold.Chemscore.Hbonds>
donor molecule, donor type, donor heavy atom, donor atom, acceptor molecule, acceptor atom, score
      L1  H     8    29       P1 10175  1.00
      L1  H    11    30       P1 10175  0.93
      P1  H  7989  7998       L1     3  0.99
      L1  C    15    35       P1  7948  1.00
      L1  C    16    36       P1 10747  1.00
      L1  C    18    37       P1 10186  1.00

> <Gold.PLP.Chemscore.Internal.Correction>
0.0289

> <Gold.Rescore>
     Score         DG    S(hbond)    S(metal)    S(lipo)     H(rot)  DE(clash)    DE(int)     intcor
     13.04     -14.44       2.50        0.00      49.39       2.01       0.12       1.29       ----

> <Gold.Chemscore.Fitness>
13.0364

> <Gold.Chemscore.DG>
-14.4444

> <Gold.Chemscore.ZeroCoef>
-5.4800

> <Gold.Chemscore.Hbond>
2.4958

> <Gold.Chemscore.Metal>
0.0000

> <Gold.Chemscore.Lipo>
49.3907

> <Gold.Chemscore.Internal_Hbond>
0.0000

> <Gold.Chemscore.DEClash>
0.1176

> <Gold.Chemscore.DEInternal>
1.2904

> <Gold.Chemscore.Rot>
2.0119

> <Gold.Chemscore.Internal.Correction>
   9.000000E+99

> <Gold.Chemscore.Hbonds>
donor molecule, donor type, donor heavy atom, donor atom, acceptor molecule, acceptor atom, score
      L1  H     8    29       P1 10175  0.99
      L1  H    11    30       P1 10175  0.87
      P1  H  7989  7998       L1     3  0.94

> <Gold.Chemscore.Hbond.Weighted>
-8.3360

> <Gold.Chemscore.Metal.Weighted>
-0.0000

> <Gold.Chemscore.Lipo.Weighted>
-5.7787

> <Gold.Chemscore.Internal_Hbond.Weighted>
0.0000

> <Gold.Chemscore.DEClash.Weighted>
0.1176

> <Gold.Chemscore.DEInternal.Weighted>
1.2904

> <Gold.Chemscore.Rot.Weighted>
5.1503

> <Gold.Chemscore.Internal.Correction.Weighted>
   9.000000E+99

> <Gold.Protein.RotatedTorsions>
[ 6907 6896 6895 6894 ] final -139.31 input  -60.11 | X-H torsion
[ 7974 7965 7964 7962 ] final  132.67 input  175.53 | X-H torsion
[ 8008 7997 7996 7995 ] final -118.34 input   59.86 | X-H torsion
[ 10167 10162 10161 10158 ] final    4.42 input  -65.29 | X-H torsion
[ 10718 10713 10712 10709 ] final    6.58 input   66.30 | X-H torsion
[ 10763 10752 10751 10750 ] final  127.52 input  -60.55 | X-H torsion
[ 11005 11000 10999 10996 ] final  -39.13 input  -57.11 | X-H torsion

> <Gold.Protein.ActiveResidues>
 VAL166  LYS551  ARG553  GLY616  TRP617  ASP618  TYR619  PRO620  LYS621  CYS622 
 ASP623  PHE694  ASN695  SER759  ASP760  ASP761  ALA762  ILE779  LEU786  VAL792 
 PHE793  MET794  SER795  GLU796  ALA797  LYS798  CYS799  TRP800  GLU811  SER814 

> <Gold.Protein.RotatedAtoms>
  151.0462  133.5663  159.2646 H   0  0  0  0  0  0  0  0  0  0  0  0  # atno 6907 bound_to 6896
  151.2691  135.0678  159.9137 H   0  0  0  0  0  0  0  0  0  0  0  0  # atno 6908 bound_to 6896
  152.5373  134.0195  159.8029 H   0  0  0  0  0  0  0  0  0  0  0  0  # atno 6909 bound_to 6896
  144.9945  139.4373  143.5323 H   0  0  0  0  0  0  0  0  0  0  0  0  # atno 7974 bound_to 7965
  155.0982  140.0395  157.2689 H   0  0  0  0  0  0  0  0  0  0  0  0  # atno 8008 bound_to 7997
  154.6779  140.2626  155.6913 H   0  0  0  0  0  0  0  0  0  0  0  0  # atno 8009 bound_to 7997
  156.2683  140.2784  156.1312 H   0  0  0  0  0  0  0  0  0  0  0  0  # atno 8010 bound_to 7997
  140.6536  143.7484  150.7615 H   0  0  0  0  0  0  0  0  0  0  0  0  # atno 10167 bound_to 10162
  156.9242  130.5802  149.5648 H   0  0  0  0  0  0  0  0  0  0  0  0  # atno 10718 bound_to 10713
  153.7107  135.3269  155.3245 H   0  0  0  0  0  0  0  0  0  0  0  0  # atno 10763 bound_to 10752
  154.8386  135.4476  154.1317 H   0  0  0  0  0  0  0  0  0  0  0  0  # atno 10764 bound_to 10752
  153.2410  135.6971  153.7863 H   0  0  0  0  0  0  0  0  0  0  0  0  # atno 10765 bound_to 10752
  141.0079  133.6922  156.2145 H   0  0  0  0  0  0  0  0  0  0  0  0  # atno 11005 bound_to 11000
  146.3439  139.9296  142.8755 LP  0  0  0  0  0  0  0  0  0  0  0  0  # atno 17320 bound_to 7965
  145.2239  140.9946  143.4029 LP  0  0  0  0  0  0  0  0  0  0  0  0  # atno 17321 bound_to 7965
  140.1139  143.4673  152.2353 LP  0  0  0  0  0  0  0  0  0  0  0  0  # atno 17342 bound_to 10162
  139.5754  144.7485  151.3778 LP  0  0  0  0  0  0  0  0  0  0  0  0  # atno 17343 bound_to 10162
  156.0477  130.5551  150.8918 LP  0  0  0  0  0  0  0  0  0  0  0  0  # atno 17370 bound_to 10713
  157.5888  131.0945  150.9152 LP  0  0  0  0  0  0  0  0  0  0  0  0  # atno 17371 bound_to 10713
  140.6782  134.4795  157.5588 LP  0  0  0  0  0  0  0  0  0  0  0  0  # atno 17394 bound_to 11000
  139.9073  134.8420  156.1657 LP  0  0  0  0  0  0  0  0  0  0  0  0  # atno 17395 bound_to 11000

$$$$
