AV-unprocessed.smi:249|AV-procd|sdf|1899|dock2
  -GOLD-   2262020573D 1   1.00000     0.00000
 Structure written by MMmdl.
 64 67  0  0  0  0  0  0  0  0  2 V2000
  144.2930  132.5844  151.2560 C   0  0  0  0  0  0  0  0  0  0  0  0
  143.7707  133.9308  151.7796 C   0  0  0  0  0  0  0  0  0  0  0  0
  143.9053  134.0792  153.2597 N   0  3  1  0  0  0  0  0  0  0  0  0
  145.3108  134.0400  153.7526 C   0  0  0  0  0  0  0  0  0  0  0  0
  146.0803  135.3238  153.3890 C   0  0  0  0  0  0  0  0  0  0  0  0
  145.3598  136.5801  153.9286 C   0  0  1  0  0  0  0  0  0  0  0  0
  146.0600  137.8371  153.6264 N   0  0  0  0  0  0  0  0  0  0  0  0
  146.2219  138.1988  152.2233 C   0  0  0  0  0  0  0  0  0  0  0  0
  147.1257  138.1491  154.4015 C   0  0  0  0  0  0  0  0  0  0  0  0
  147.6949  137.1452  155.1144 N   0  0  0  0  0  0  0  0  0  0  0  0
  148.7752  137.3843  155.8635 C   0  0  0  0  0  0  0  0  0  0  0  0
  149.4395  138.5299  156.0274 N   0  0  0  0  0  0  0  0  0  0  0  0
  148.8623  139.5441  155.3217 C   0  0  0  0  0  0  0  0  0  0  0  0
  147.7006  139.4479  154.5057 C   0  0  0  0  0  0  0  0  0  0  0  0
  147.4030  140.6907  153.9580 N   0  0  0  0  0  0  0  0  0  0  0  0
  148.3448  141.4725  154.4090 C   0  0  0  0  0  0  0  0  0  0  0  0
  149.2850  140.8566  155.2039 N   0  0  0  0  0  0  0  0  0  0  0  0
  150.4499  141.4785  155.8054 C   0  0  0  0  0  0  0  0  0  0  0  0
  150.6303  141.1985  157.3250 C   0  0  2  0  0  0  0  0  0  0  0  0
  150.4977  142.5335  158.0986 C   0  0  0  0  0  0  0  0  0  0  0  0
  149.2361  143.1320  157.8829 O   0  0  0  0  0  0  0  0  0  0  0  0
  151.9630  140.4659  157.6766 C   0  0  2  0  0  0  0  0  0  0  0  0
  152.0290  138.9821  157.3319 C   0  0  0  0  0  0  0  0  0  0  0  0
  153.1613  138.4645  158.2128 C   0  0  0  0  0  0  0  0  0  0  0  0
  153.2044  139.3242  159.3424 O   0  0  0  0  0  0  0  0  0  0  0  0
  152.2681  140.3810  159.1783 C   0  0  0  0  0  0  0  0  0  0  0  0
  143.8814  136.5757  153.4755 C   0  0  0  0  0  0  0  0  0  0  0  0
  143.1864  135.2501  153.8472 C   0  0  1  0  0  0  0  0  0  0  0  0
  141.6793  135.2675  153.5341 C   0  0  0  0  0  0  0  0  0  0  0  0
  144.0370  132.4606  150.2035 H   0  0  0  0  0  0  0  0  0  0  0  0
  143.8523  131.7494  151.8012 H   0  0  0  0  0  0  0  0  0  0  0  0
  145.3772  132.5064  151.3286 H   0  0  0  0  0  0  0  0  0  0  0  0
  144.2625  134.7500  151.2557 H   0  0  0  0  0  0  0  0  0  0  0  0
  142.7202  133.9813  151.4995 H   0  0  0  0  0  0  0  0  0  0  0  0
  145.2928  133.9279  154.8374 H   0  0  0  0  0  0  0  0  0  0  0  0
  145.8371  133.1619  153.3822 H   0  0  0  0  0  0  0  0  0  0  0  0
  147.0887  135.2729  153.8010 H   0  0  0  0  0  0  0  0  0  0  0  0
  146.1969  135.3725  152.3069 H   0  0  0  0  0  0  0  0  0  0  0  0
  145.3611  136.4981  155.0164 H   0  0  0  0  0  0  0  0  0  0  0  0
  146.6961  139.1763  152.1238 H   0  0  0  0  0  0  0  0  0  0  0  0
  145.2478  138.2521  151.7364 H   0  0  0  0  0  0  0  0  0  0  0  0
  146.8273  137.4687  151.6866 H   0  0  0  0  0  0  0  0  0  0  0  0
  149.1704  136.5342  156.3999 H   0  0  0  0  0  0  0  0  0  0  0  0
  148.3949  142.5203  154.1500 H   0  0  0  0  0  0  0  0  0  0  0  0
  151.3360  141.1463  155.2628 H   0  0  0  0  0  0  0  0  0  0  0  0
  150.3645  142.5496  155.6202 H   0  0  0  0  0  0  0  0  0  0  0  0
  149.8110  140.5602  157.6576 H   0  0  0  0  0  0  0  0  0  0  0  0
  150.5848  142.3858  159.1739 H   0  0  0  0  0  0  0  0  0  0  0  0
  151.2831  143.2308  157.8060 H   0  0  0  0  0  0  0  0  0  0  0  0
  149.3122  143.7449  157.1677 H   0  0  0  0  0  0  0  0  0  0  0  0
  152.7944  140.9770  157.1887 H   0  0  0  0  0  0  0  0  0  0  0  0
  151.0944  138.4864  157.5984 H   0  0  0  0  0  0  0  0  0  0  0  0
  152.2347  138.7795  156.2831 H   0  0  0  0  0  0  0  0  0  0  0  0
  153.0111  137.4269  158.5105 H   0  0  0  0  0  0  0  0  0  0  0  0
  154.1157  138.5316  157.6893 H   0  0  0  0  0  0  0  0  0  0  0  0
  152.6713  141.3109  159.5798 H   0  0  0  0  0  0  0  0  0  0  0  0
  151.3676  140.1311  159.7410 H   0  0  0  0  0  0  0  0  0  0  0  0
  143.3472  137.4043  153.9408 H   0  0  0  0  0  0  0  0  0  0  0  0
  143.8085  136.7301  152.3996 H   0  0  0  0  0  0  0  0  0  0  0  0
  143.2605  135.1368  154.9301 H   0  0  0  0  0  0  0  0  0  0  0  0
  141.1698  136.0097  154.1492 H   0  0  0  0  0  0  0  0  0  0  0  0
  141.2196  134.3009  153.7422 H   0  0  0  0  0  0  0  0  0  0  0  0
  141.4755  135.5270  152.4953 H   0  0  0  0  0  0  0  0  0  0  0  0
  143.4543  133.2625  153.6470 H   0  0  0  0  0  0  0  0  0  0  0  0
  1  2  1  0  0  0  0
  1 30  1  0  0  0  0
  1 31  1  0  0  0  0
  1 32  1  0  0  0  0
  2  3  1  0  0  0  0
  2 33  1  0  0  0  0
  2 34  1  0  0  0  0
  3 28  1  0  0  0  0
  3  4  1  0  0  0  0
  3 64  1  0  0  0  0
  4  5  1  0  0  0  0
  4 35  1  0  0  0  0
  4 36  1  0  0  0  0
  5  6  1  0  0  0  0
  5 37  1  0  0  0  0
  5 38  1  0  0  0  0
  6  7  1  0  0  0  0
  6 27  1  0  0  0  0
  6 39  1  0  0  0  0
  7  8  1  0  0  0  0
  7  9  1  0  0  0  0
  8 40  1  0  0  0  0
  8 41  1  0  0  0  0
  8 42  1  0  0  0  0
  9 14  1  0  0  0  0
  9 10  2  0  0  0  0
 10 11  1  0  0  0  0
 11 12  2  0  0  0  0
 11 43  1  0  0  0  0
 12 13  1  0  0  0  0
 13 17  1  0  0  0  0
 13 14  2  0  0  0  0
 14 15  1  0  0  0  0
 15 16  2  0  0  0  0
 16 17  1  0  0  0  0
 16 44  1  0  0  0  0
 17 18  1  0  0  0  0
 18 19  1  0  0  0  0
 18 45  1  0  0  0  0
 18 46  1  0  0  0  0
 19 20  1  0  0  0  0
 19 22  1  0  0  0  0
 19 47  1  0  0  0  0
 20 21  1  0  0  0  0
 20 48  1  0  0  0  0
 20 49  1  0  0  0  0
 21 50  1  0  0  0  0
 22 26  1  0  0  0  0
 22 23  1  0  0  0  0
 22 51  1  0  0  0  0
 23 24  1  0  0  0  0
 23 52  1  0  0  0  0
 23 53  1  0  0  0  0
 24 25  1  0  0  0  0
 24 54  1  0  0  0  0
 24 55  1  0  0  0  0
 25 26  1  0  0  0  0
 26 56  1  0  0  0  0
 26 57  1  0  0  0  0
 27 28  1  0  0  0  0
 27 58  1  0  0  0  0
 27 59  1  0  0  0  0
 28 29  1  0  0  0  0
 28 60  1  0  0  0  0
 29 61  1  0  0  0  0
 29 62  1  0  0  0  0
 29 63  1  0  0  0  0
M  CHG  1   3   1
M  END
> <s_m_source_file>
AV-unprocessed.smi

> <i_m_source_file_index>
249

> <i_lp_mmshare_version>
43012

> <i_f3d_flags>
0

> <s_epik_input>
W0NIM11bQ0gyXU4xW0NIMl1bQ0gyXVtDQEhdKFtDSDJdW0NASF0xW0NIM10pTihbQ0gzXSljKG5bY0hdbjIpYyhjMjMpbltjSF1uM1tDSDJdW0NASF0oW0NIMl1bT0hdKVtDQEBIXTRbQ0gyXVtDSDJdT1tDSDJdNA==

> <s_epik_cmdline>
J2VwaWtfcHl0aG9uJywgJy1waCcsICc3LjAnLCAnLXRuJywgJzgnLCAnLW1hJywgJzIwMCcsICctbWV0YWxfYmluZGluZycsICctaW1hZScsICc8aW5maWxlLm1hZT4nLCAnLW9tYWUnLCAnPG91dGZpbGUubWFlPic=

> <r_lp_tautomer_probability>
1

> <r_epik_Ionization_Penalty>
0.00294688

> <r_epik_Ionization_Penalty_Charging>
0.00169971

> <r_epik_Ionization_Penalty_Neutral>
0.00124717

> <r_epik_State_Penalty>
-0

> <r_epik_Charging_Adjusted_Penalty>
0.00169971

> <i_epik_Tot_Q>
1

> <i_epik_Tot_abs_Q>
1

> <r_epik_Metal_State_Penalty>
-0

> <b_epik_Metal_Only>
0

> <s_lp_Force_Field>
OPLS_2005

> <r_lp_Energy>
54.564

> <b_lp_Chiralities_Consistent>
1

> <s_lp_Variant>
AV-unprocessed.smi:249-2

> <Gold.Version>
5.8.1

> <Gold.Id.Protein>
6NUR|6NUR_protein|mol2

> <Gold.PLP.Fitness>
46.1748

> <Gold.PLP.PLP>
-37.3721

> <Gold.PLP.part.hbond>
-2.7676

> <Gold.PLP.part.metal>
0.0000

> <Gold.PLP.part.buried>
-7.8021

> <Gold.PLP.part.nonpolar>
-29.2058

> <Gold.PLP.part.repulsive>
0.3901

> <Gold.PLP.ligand.clash>
0.0000

> <Gold.PLP.ligand.torsion>
1.5862

> <Gold.PLP.Chemscore.Hbond>
2.9825

> <Gold.PLP.Chemscore.CHOScore>
0.6181

> <Gold.PLP.Chemscore.Metal>
0.0000

> <Gold.Chemscore.Hbonds>
donor molecule, donor type, donor heavy atom, donor atom, acceptor molecule, acceptor atom, score
      L1  H     3    64       P1 10957  1.98
      L1  H    21    50       P1  8028  1.00
      L1  C    16    44       P1  8028  0.62

> <Gold.PLP.Chemscore.Internal.Correction>
1.1731

> <Gold.Rescore>
     Score         DG    S(hbond)    S(metal)    S(lipo)     H(rot)  DE(clash)    DE(int)     intcor
     12.60     -14.64       1.93        0.00      86.50       2.90       0.10       1.94       ----

> <Gold.Chemscore.Fitness>
12.6035

> <Gold.Chemscore.DG>
-14.6375

> <Gold.Chemscore.ZeroCoef>
-5.4800

> <Gold.Chemscore.Hbond>
1.9350

> <Gold.Chemscore.Metal>
0.0000

> <Gold.Chemscore.Lipo>
86.4986

> <Gold.Chemscore.Internal_Hbond>
0.0000

> <Gold.Chemscore.DEClash>
0.0989

> <Gold.Chemscore.DEInternal>
1.9351

> <Gold.Chemscore.Rot>
2.9006

> <Gold.Chemscore.Internal.Correction>
   9.000000E+99

> <Gold.Chemscore.Hbonds>
donor molecule, donor type, donor heavy atom, donor atom, acceptor molecule, acceptor atom, score
      L1  H     3    64       P1 10957  0.91
      L1  H    21    50       P1  8028  0.60

> <Gold.Chemscore.Hbond.Weighted>
-6.4628

> <Gold.Chemscore.Metal.Weighted>
-0.0000

> <Gold.Chemscore.Lipo.Weighted>
-10.1203

> <Gold.Chemscore.Internal_Hbond.Weighted>
0.0000

> <Gold.Chemscore.DEClash.Weighted>
0.0989

> <Gold.Chemscore.DEInternal.Weighted>
1.9351

> <Gold.Chemscore.Rot.Weighted>
7.4256

> <Gold.Chemscore.Internal.Correction.Weighted>
   9.000000E+99

> <Gold.Protein.RotatedTorsions>
[ 6907 6896 6895 6894 ] final -109.43 input  -60.11 | X-H torsion
[ 7974 7965 7964 7962 ] final  -90.03 input  175.53 | X-H torsion
[ 8008 7997 7996 7995 ] final  150.47 input   59.86 | X-H torsion
[ 10167 10162 10161 10158 ] final   34.08 input  -65.29 | X-H torsion
[ 10718 10713 10712 10709 ] final    8.00 input   66.30 | X-H torsion
[ 10763 10752 10751 10750 ] final  -14.33 input  -60.55 | X-H torsion
[ 11005 11000 10999 10996 ] final  -87.58 input  -57.11 | X-H torsion

> <Gold.Protein.ActiveResidues>
 VAL166  LYS551  ARG553  GLY616  TRP617  ASP618  TYR619  PRO620  LYS621  CYS622 
 ASP623  PHE694  ASN695  SER759  ASP760  ASP761  ALA762  ILE779  LEU786  VAL792 
 PHE793  MET794  SER795  GLU796  ALA797  LYS798  CYS799  TRP800  GLU811  SER814 

> <Gold.Protein.RotatedAtoms>
  150.7561  133.9530  159.3491 H   0  0  0  0  0  0  0  0  0  0  0  0  # atno 6907 bound_to 6896
  151.7449  135.0844  160.0331 H   0  0  0  0  0  0  0  0  0  0  0  0  # atno 6908 bound_to 6896
  152.3504  133.6135  159.5976 H   0  0  0  0  0  0  0  0  0  0  0  0  # atno 6909 bound_to 6896
  145.4320  140.9556  143.2123 H   0  0  0  0  0  0  0  0  0  0  0  0  # atno 7974 bound_to 7965
  156.2714  140.2074  156.6023 H   0  0  0  0  0  0  0  0  0  0  0  0  # atno 8008 bound_to 7997
  154.6897  140.0531  157.0374 H   0  0  0  0  0  0  0  0  0  0  0  0  # atno 8009 bound_to 7997
  155.0884  140.3194  155.4584 H   0  0  0  0  0  0  0  0  0  0  0  0  # atno 8010 bound_to 7997
  140.4348  144.1273  150.6164 H   0  0  0  0  0  0  0  0  0  0  0  0  # atno 10167 bound_to 10162
  156.9453  130.5876  149.5654 H   0  0  0  0  0  0  0  0  0  0  0  0  # atno 10718 bound_to 10713
  153.5267  135.7015  153.5704 H   0  0  0  0  0  0  0  0  0  0  0  0  # atno 10763 bound_to 10752
  153.3729  135.3940  155.1801 H   0  0  0  0  0  0  0  0  0  0  0  0  # atno 10764 bound_to 10752
  154.8689  135.3816  154.4761 H   0  0  0  0  0  0  0  0  0  0  0  0  # atno 10765 bound_to 10752
  141.1615  133.7520  156.9328 H   0  0  0  0  0  0  0  0  0  0  0  0  # atno 11005 bound_to 11000
  144.8177  139.5847  143.7001 LP  0  0  0  0  0  0  0  0  0  0  0  0  # atno 17320 bound_to 7965
  146.2602  139.6393  142.9367 LP  0  0  0  0  0  0  0  0  0  0  0  0  # atno 17321 bound_to 7965
  140.4386  143.2536  151.9502 LP  0  0  0  0  0  0  0  0  0  0  0  0  # atno 17342 bound_to 10162
  139.4786  144.5676  151.8141 LP  0  0  0  0  0  0  0  0  0  0  0  0  # atno 17343 bound_to 10162
  156.0386  130.5471  150.8716 LP  0  0  0  0  0  0  0  0  0  0  0  0  # atno 17370 bound_to 10713
  157.5758  131.0946  150.9348 LP  0  0  0  0  0  0  0  0  0  0  0  0  # atno 17371 bound_to 10713
  140.1375  134.9315  157.2421 LP  0  0  0  0  0  0  0  0  0  0  0  0  # atno 17394 bound_to 11000
  140.2877  134.3276  155.7324 LP  0  0  0  0  0  0  0  0  0  0  0  0  # atno 17395 bound_to 11000

$$$$
