AV-unprocessed.smi:3336|AV-procd|sdf|12859|dock9
  -GOLD-   2272019253D 1   1.00000     0.00000
 Structure written by MMmdl.
 41 42  0  0  0  0  0  0  0  0  1 V2000
  151.4260  144.8567  158.2513 C   0  0  0  0  0  0  0  0  0  0  0  0
  151.1639  143.3493  158.4019 C   0  0  2  0  0  0  0  0  0  0  0  0
  152.4338  142.6051  158.8600 C   0  0  0  0  0  0  0  0  0  0  0  0
  152.6527  142.7196  160.2912 N   0  0  0  0  0  0  0  0  0  0  0  0
  152.2728  143.7393  161.1388 C   0  0  0  0  0  0  0  0  0  0  0  0
  152.7111  143.4117  162.3898 C   0  0  0  0  0  0  0  0  0  0  0  0
  153.3567  142.1572  162.2040 C   0  0  0  0  0  0  0  0  0  0  0  0
  153.3176  141.7438  160.9475 N   0  0  0  0  0  0  0  0  0  0  0  0
  150.7399  142.8063  157.1104 N   0  0  0  0  0  0  0  0  0  0  0  0
  150.2985  141.3980  157.1418 C   0  0  1  0  0  0  0  0  0  0  0  0
  148.7939  141.3500  157.4545 C   0  0  0  0  0  0  0  0  0  0  0  0
  150.5884  140.6380  155.8247 C   0  0  0  0  0  0  0  0  0  0  0  0
  150.0577  141.0473  154.7902 O   0  0  0  0  0  0  0  0  0  0  0  0
  151.4037  139.5531  155.8241 N   0  0  0  0  0  0  0  0  0  0  0  0
  151.7477  138.8225  154.5989 C   0  0  0  0  0  0  0  0  0  0  0  0
  151.1823  137.3954  154.6999 C   0  0  0  0  0  0  0  0  0  0  0  0
  151.7198  136.7531  155.8523 O   0  0  0  0  0  0  0  0  0  0  0  0
  151.4236  137.4462  157.0611 C   0  0  0  0  0  0  0  0  0  0  0  0
  151.9805  138.8805  156.9948 C   0  0  0  0  0  0  0  0  0  0  0  0
  151.7687  145.2865  159.1931 H   0  0  0  0  0  0  0  0  0  0  0  0
  150.5252  145.3970  157.9607 H   0  0  0  0  0  0  0  0  0  0  0  0
  152.1916  145.0551  157.5005 H   0  0  0  0  0  0  0  0  0  0  0  0
  150.3956  143.2064  159.1626 H   0  0  0  0  0  0  0  0  0  0  0  0
  152.3848  141.5480  158.5943 H   0  0  0  0  0  0  0  0  0  0  0  0
  153.3102  143.0108  158.3523 H   0  0  0  0  0  0  0  0  0  0  0  0
  151.7343  144.6054  160.7833 H   0  0  0  0  0  0  0  0  0  0  0  0
  152.5924  143.9832  163.2984 H   0  0  0  0  0  0  0  0  0  0  0  0
  153.8491  141.5389  162.9399 H   0  0  0  0  0  0  0  0  0  0  0  0
  150.0469  143.4132  156.6969 H   0  0  0  0  0  0  0  0  0  0  0  0
  150.8341  140.9260  157.9628 H   0  0  0  0  0  0  0  0  0  0  0  0
  148.4295  140.3253  157.5308 H   0  0  0  0  0  0  0  0  0  0  0  0
  148.2098  141.8510  156.6810 H   0  0  0  0  0  0  0  0  0  0  0  0
  148.5762  141.8418  158.4030 H   0  0  0  0  0  0  0  0  0  0  0  0
  151.3741  139.3017  153.6930 H   0  0  0  0  0  0  0  0  0  0  0  0
  152.8331  138.7892  154.4928 H   0  0  0  0  0  0  0  0  0  0  0  0
  150.0924  137.4099  154.7527 H   0  0  0  0  0  0  0  0  0  0  0  0
  151.4528  136.8185  153.8154 H   0  0  0  0  0  0  0  0  0  0  0  0
  150.3455  137.4560  157.2295 H   0  0  0  0  0  0  0  0  0  0  0  0
  151.8716  136.9056  157.8950 H   0  0  0  0  0  0  0  0  0  0  0  0
  153.0667  138.8581  156.8966 H   0  0  0  0  0  0  0  0  0  0  0  0
  151.7756  139.3712  157.9427 H   0  0  0  0  0  0  0  0  0  0  0  0
  1  2  1  0  0  0  0
  1 20  1  0  0  0  0
  1 21  1  0  0  0  0
  1 22  1  0  0  0  0
  2  3  1  0  0  0  0
  2  9  1  0  0  0  0
  2 23  1  0  0  0  0
  3  4  1  0  0  0  0
  3 24  1  0  0  0  0
  3 25  1  0  0  0  0
  4  8  1  0  0  0  0
  4  5  1  0  0  0  0
  5  6  2  0  0  0  0
  5 26  1  0  0  0  0
  6  7  1  0  0  0  0
  6 27  1  0  0  0  0
  7  8  2  0  0  0  0
  7 28  1  0  0  0  0
  9 10  1  0  0  0  0
  9 29  1  0  0  0  0
 10 11  1  0  0  0  0
 10 12  1  0  0  0  0
 10 30  1  0  0  0  0
 11 31  1  0  0  0  0
 11 32  1  0  0  0  0
 11 33  1  0  0  0  0
 12 13  2  0  0  0  0
 12 14  1  0  0  0  0
 14 19  1  0  0  0  0
 14 15  1  0  0  0  0
 15 16  1  0  0  0  0
 15 34  1  0  0  0  0
 15 35  1  0  0  0  0
 16 17  1  0  0  0  0
 16 36  1  0  0  0  0
 16 37  1  0  0  0  0
 17 18  1  0  0  0  0
 18 19  1  0  0  0  0
 18 38  1  0  0  0  0
 18 39  1  0  0  0  0
 19 40  1  0  0  0  0
 19 41  1  0  0  0  0
M  END
> <s_m_source_file>
AV-unprocessed.smi

> <i_m_source_file_index>
3336

> <i_lp_mmshare_version>
43012

> <i_f3d_flags>
0

> <s_epik_input>
bjFbY0hdW2NIXVtjSF1uMVtDSDJdW0NAQEhdKFtDSDNdKVtOSF1bQ0BIXShbQ0gzXSlDKD1PKU4yW0NIMl1bQ0gyXU9bQ0gyXVtDSDJdMg==

> <s_epik_cmdline>
J2VwaWtfcHl0aG9uJywgJy1waCcsICc3LjAnLCAnLXRuJywgJzgnLCAnLW1hJywgJzIwMCcsICctbWV0YWxfYmluZGluZycsICctaW1hZScsICc8aW5maWxlLm1hZT4nLCAnLW9tYWUnLCAnPG91dGZpbGUubWFlPic=

> <r_lp_tautomer_probability>
1

> <r_epik_Ionization_Penalty>
0.739958

> <r_epik_Ionization_Penalty_Charging>
0

> <r_epik_Ionization_Penalty_Neutral>
0.739958

> <r_epik_State_Penalty>
0.765967

> <r_epik_Charging_Adjusted_Penalty>
0.765967

> <i_epik_Tot_Q>
0

> <i_epik_Tot_abs_Q>
0

> <r_epik_Metal_State_Penalty>
0.765947

> <b_epik_Metal_Only>
0

> <s_lp_Force_Field>
OPLS_2005

> <r_lp_Energy>
28.023

> <b_lp_Chiralities_Consistent>
1

> <s_lp_Variant>
AV-unprocessed.smi:3336-7

> <Gold.Version>
5.8.1

> <Gold.Id.Protein>
6NUR|6NUR_protein|mol2

> <Gold.PLP.Fitness>
49.8670

> <Gold.PLP.PLP>
-44.3705

> <Gold.PLP.part.hbond>
-3.0000

> <Gold.PLP.part.metal>
0.0000

> <Gold.PLP.part.buried>
-5.1488

> <Gold.PLP.part.nonpolar>
-36.0951

> <Gold.PLP.part.repulsive>
0.1687

> <Gold.PLP.ligand.clash>
0.0000

> <Gold.PLP.ligand.torsion>
0.9754

> <Gold.PLP.Chemscore.Hbond>
2.4668

> <Gold.PLP.Chemscore.CHOScore>
0.0000

> <Gold.PLP.Chemscore.Metal>
0.0000

> <Gold.Chemscore.Hbonds>
donor molecule, donor type, donor heavy atom, donor atom, acceptor molecule, acceptor atom, score
      L1  H     9    29       P1  8028  1.00
      P1  H  7989  7998       L1    13  0.64
      P1  H 10752 10765       L1    17  0.56

> <Gold.PLP.Chemscore.Internal.Correction>
0.0469

> <Gold.Rescore>
     Score         DG    S(hbond)    S(metal)    S(lipo)     H(rot)  DE(clash)    DE(int)     intcor
     16.47     -17.61       1.42        0.00     102.28       1.79       0.25       0.88       ----

> <Gold.Chemscore.Fitness>
16.4661

> <Gold.Chemscore.DG>
-17.6053

> <Gold.Chemscore.ZeroCoef>
-5.4800

> <Gold.Chemscore.Hbond>
1.4219

> <Gold.Chemscore.Metal>
0.0000

> <Gold.Chemscore.Lipo>
102.2847

> <Gold.Chemscore.Internal_Hbond>
0.0000

> <Gold.Chemscore.DEClash>
0.2545

> <Gold.Chemscore.DEInternal>
0.8848

> <Gold.Chemscore.Rot>
1.7935

> <Gold.Chemscore.Internal.Correction>
   9.000000E+99

> <Gold.Chemscore.Hbonds>
donor molecule, donor type, donor heavy atom, donor atom, acceptor molecule, acceptor atom, score
      L1  H     9    29       P1  8028  0.93
      P1  H  7989  7998       L1    13  0.18
      P1  H 10752 10765       L1    17  0.04

> <Gold.Chemscore.Hbond.Weighted>
-4.7493

> <Gold.Chemscore.Metal.Weighted>
-0.0000

> <Gold.Chemscore.Lipo.Weighted>
-11.9673

> <Gold.Chemscore.Internal_Hbond.Weighted>
0.0000

> <Gold.Chemscore.DEClash.Weighted>
0.2545

> <Gold.Chemscore.DEInternal.Weighted>
0.8848

> <Gold.Chemscore.Rot.Weighted>
4.5912

> <Gold.Chemscore.Internal.Correction.Weighted>
   9.000000E+99

> <Gold.Protein.RotatedTorsions>
[ 6907 6896 6895 6894 ] final  -44.63 input  -60.11 | X-H torsion
[ 7974 7965 7964 7962 ] final  123.12 input  175.53 | X-H torsion
[ 8008 7997 7996 7995 ] final  -94.88 input   59.86 | X-H torsion
[ 10167 10162 10161 10158 ] final -134.77 input  -65.29 | X-H torsion
[ 10718 10713 10712 10709 ] final  -94.20 input   66.30 | X-H torsion
[ 10763 10752 10751 10750 ] final -173.60 input  -60.55 | X-H torsion
[ 11005 11000 10999 10996 ] final -102.27 input  -57.11 | X-H torsion

> <Gold.Protein.ActiveResidues>
 VAL166  LYS551  ARG553  GLY616  TRP617  ASP618  TYR619  PRO620  LYS621  CYS622 
 ASP623  PHE694  ASN695  SER759  ASP760  ASP761  ALA762  ILE779  LEU786  VAL792 
 PHE793  MET794  SER795  GLU796  ALA797  LYS798  CYS799  TRP800  GLU811  SER814 

> <Gold.Protein.RotatedAtoms>
  150.9308  134.8723  159.7549 H   0  0  0  0  0  0  0  0  0  0  0  0  # atno 6907 bound_to 6896
  152.5037  134.4082  159.9449 H   0  0  0  0  0  0  0  0  0  0  0  0  # atno 6908 bound_to 6896
  151.4109  133.3688  159.2779 H   0  0  0  0  0  0  0  0  0  0  0  0  # atno 6909 bound_to 6896
  145.0996  139.3528  143.4819 H   0  0  0  0  0  0  0  0  0  0  0  0  # atno 7974 bound_to 7965
  154.7541  140.0485  157.0918 H   0  0  0  0  0  0  0  0  0  0  0  0  # atno 8008 bound_to 7997
  155.0020  140.3126  155.4844 H   0  0  0  0  0  0  0  0  0  0  0  0  # atno 8009 bound_to 7997
  156.2891  140.2199  156.5130 H   0  0  0  0  0  0  0  0  0  0  0  0  # atno 8010 bound_to 7997
  139.8847  143.6796  152.2622 H   0  0  0  0  0  0  0  0  0  0  0  0  # atno 10167 bound_to 10162
  156.0024  130.5058  150.5891 H   0  0  0  0  0  0  0  0  0  0  0  0  # atno 10718 bound_to 10713
  154.6060  135.2859  155.0484 H   0  0  0  0  0  0  0  0  0  0  0  0  # atno 10763 bound_to 10752
  154.1731  135.6469  153.5018 H   0  0  0  0  0  0  0  0  0  0  0  0  # atno 10764 bound_to 10752
  153.0176  135.5405  154.6796 H   0  0  0  0  0  0  0  0  0  0  0  0  # atno 10765 bound_to 10752
  141.1196  133.8544  157.1338 H   0  0  0  0  0  0  0  0  0  0  0  0  # atno 11005 bound_to 11000
  146.3530  140.0867  142.8614 LP  0  0  0  0  0  0  0  0  0  0  0  0  # atno 17320 bound_to 7965
  145.0971  140.9322  143.4735 LP  0  0  0  0  0  0  0  0  0  0  0  0  # atno 17321 bound_to 7965
  139.7164  144.7611  151.1027 LP  0  0  0  0  0  0  0  0  0  0  0  0  # atno 17342 bound_to 10162
  140.7738  143.5264  150.9475 LP  0  0  0  0  0  0  0  0  0  0  0  0  # atno 17343 bound_to 10162
  157.3759  131.0773  151.1518 LP  0  0  0  0  0  0  0  0  0  0  0  0  # atno 17370 bound_to 10713
  157.2257  130.6502  149.5829 LP  0  0  0  0  0  0  0  0  0  0  0  0  # atno 17371 bound_to 10713
  140.0144  134.9974  157.0462 LP  0  0  0  0  0  0  0  0  0  0  0  0  # atno 17394 bound_to 11000
  140.4545  134.1547  155.7185 LP  0  0  0  0  0  0  0  0  0  0  0  0  # atno 17395 bound_to 11000

$$$$
