AV-unprocessed.smi:457|AV-procd|sdf|2619|dock7
  -GOLD-   2262023 23D 1   1.00000     0.00000
 Structure written by MMmdl.
 41 41  0  0  0  0  0  0  0  0  1 V2000
  147.2839  141.3661  153.8772 C   0  0  0  0  0  0  0  0  0  0  0  0
  148.4694  140.7803  154.6501 C   0  0  0  0  0  0  0  0  0  0  0  0
  149.5098  141.8497  155.0235 C   0  0  0  0  0  0  0  0  0  0  0  0
  150.4836  141.3710  155.9845 N   0  0  0  0  0  0  0  0  0  0  0  0
  150.7711  142.0214  157.1880 C   0  0  0  0  0  0  0  0  0  0  0  0
  150.1044  143.2038  157.4702 N   0  0  0  0  0  0  0  0  0  0  0  0
  151.7002  141.5401  158.0645 C   0  0  0  0  0  0  0  0  0  0  0  0
  152.0057  142.1622  159.2724 N   0  0  0  0  0  0  0  0  0  0  0  0
  151.3325  143.3942  159.6781 C   0  0  0  0  0  0  0  0  0  0  0  0
  152.1641  144.6442  159.3611 C   0  0  0  0  0  0  0  0  0  0  0  0
  153.0416  141.6323  160.1577 C   0  0  0  0  0  0  0  0  0  0  0  0
  153.4362  142.6256  161.2599 C   0  0  0  0  0  0  0  0  0  0  0  0
  154.1047  141.9207  162.2920 O   0  0  0  0  0  0  0  0  0  0  0  0
  154.0463  142.5960  163.5362 C   0  0  0  0  0  0  0  0  0  0  0  0
  152.4355  140.3058  157.7638 C   0  0  0  0  0  0  0  0  0  0  0  0
  153.2757  139.7753  158.4899 O   0  0  0  0  0  0  0  0  0  0  0  0
  152.1240  139.7194  156.5396 N   0  0  0  0  0  0  0  0  0  0  0  0
  151.1907  140.1982  155.6273 C   0  0  0  0  0  0  0  0  0  0  0  0
  151.0195  139.5972  154.5659 O   0  0  0  0  0  0  0  0  0  0  0  0
  152.6214  138.8763  156.2920 H   0  0  0  0  0  0  0  0  0  0  0  0
  146.5614  140.5891  153.6266 H   0  0  0  0  0  0  0  0  0  0  0  0
  147.6117  141.8294  152.9464 H   0  0  0  0  0  0  0  0  0  0  0  0
  146.7667  142.1241  154.4660 H   0  0  0  0  0  0  0  0  0  0  0  0
  148.0998  140.2907  155.5518 H   0  0  0  0  0  0  0  0  0  0  0  0
  148.9419  140.0025  154.0492 H   0  0  0  0  0  0  0  0  0  0  0  0
  150.0642  142.1899  154.1494 H   0  0  0  0  0  0  0  0  0  0  0  0
  149.0462  142.7499  155.4313 H   0  0  0  0  0  0  0  0  0  0  0  0
  149.4274  143.5936  156.8303 H   0  0  0  0  0  0  0  0  0  0  0  0
  150.2178  143.6828  158.3518 H   0  0  0  0  0  0  0  0  0  0  0  0
  150.3589  143.4665  159.1941 H   0  0  0  0  0  0  0  0  0  0  0  0
  151.1328  143.3638  160.7500 H   0  0  0  0  0  0  0  0  0  0  0  0
  151.6602  145.5428  159.7172 H   0  0  0  0  0  0  0  0  0  0  0  0
  152.3259  144.7633  158.2900 H   0  0  0  0  0  0  0  0  0  0  0  0
  153.1404  144.5983  159.8444 H   0  0  0  0  0  0  0  0  0  0  0  0
  152.7033  140.6987  160.6067 H   0  0  0  0  0  0  0  0  0  0  0  0
  153.9268  141.3784  159.5730 H   0  0  0  0  0  0  0  0  0  0  0  0
  154.0927  143.3952  160.8508 H   0  0  0  0  0  0  0  0  0  0  0  0
  152.5558  143.1239  161.6668 H   0  0  0  0  0  0  0  0  0  0  0  0
  154.5694  142.0128  164.2941 H   0  0  0  0  0  0  0  0  0  0  0  0
  153.0147  142.7280  163.8660 H   0  0  0  0  0  0  0  0  0  0  0  0
  154.5230  143.5754  163.4759 H   0  0  0  0  0  0  0  0  0  0  0  0
  1  2  1  0  0  0  0
  1 21  1  0  0  0  0
  1 22  1  0  0  0  0
  1 23  1  0  0  0  0
  2  3  1  0  0  0  0
  2 24  1  0  0  0  0
  2 25  1  0  0  0  0
  3  4  1  0  0  0  0
  3 26  1  0  0  0  0
  3 27  1  0  0  0  0
  4 18  1  0  0  0  0
  4  5  1  0  0  0  0
  5  6  1  0  0  0  0
  5  7  2  0  0  0  0
  6 28  1  0  0  0  0
  6 29  1  0  0  0  0
  7  8  1  0  0  0  0
  7 15  1  0  0  0  0
  8  9  1  0  0  0  0
  8 11  1  0  0  0  0
  9 10  1  0  0  0  0
  9 30  1  0  0  0  0
  9 31  1  0  0  0  0
 10 32  1  0  0  0  0
 10 33  1  0  0  0  0
 10 34  1  0  0  0  0
 11 12  1  0  0  0  0
 11 35  1  0  0  0  0
 11 36  1  0  0  0  0
 12 13  1  0  0  0  0
 12 37  1  0  0  0  0
 12 38  1  0  0  0  0
 13 14  1  0  0  0  0
 14 39  1  0  0  0  0
 14 40  1  0  0  0  0
 14 41  1  0  0  0  0
 15 16  2  0  0  0  0
 15 17  1  0  0  0  0
 17 20  1  0  0  0  0
 17 18  1  0  0  0  0
 18 19  2  0  0  0  0
M  END
> <s_m_source_file>
AV-unprocessed.smi

> <i_m_source_file_index>
457

> <i_lp_mmshare_version>
43012

> <i_f3d_flags>
0

> <s_epik_input>
W0NIM11bQ0gyXVtDSDJdbjFjKFtOSDJdKWMoYyg9TylbbkhdYzE9TylOKFtDSDJdW0NIM10pW0NIMl1bQ0gyXU9bQ0gzXQ==

> <s_epik_cmdline>
J2VwaWtfcHl0aG9uJywgJy1waCcsICc3LjAnLCAnLXRuJywgJzgnLCAnLW1hJywgJzIwMCcsICctbWV0YWxfYmluZGluZycsICctaW1hZScsICc8aW5maWxlLm1hZT4nLCAnLW9tYWUnLCAnPG91dGZpbGUubWFlPic=

> <r_lp_tautomer_probability>
1

> <r_epik_Ionization_Penalty>
0.000127086

> <r_epik_Ionization_Penalty_Charging>
2.15301e-06

> <r_epik_Ionization_Penalty_Neutral>
0.000124933

> <r_epik_State_Penalty>
-0

> <r_epik_Charging_Adjusted_Penalty>
2.15301e-06

> <i_epik_Tot_Q>
0

> <i_epik_Tot_abs_Q>
0

> <r_epik_Metal_State_Penalty>
-0

> <b_epik_Metal_Only>
0

> <s_epik_Chemistry_Notes>
This compound has an imine and may undergo hydrolysis.

> <s_lp_Force_Field>
OPLS_2005

> <r_lp_Energy>
18.1381

> <b_lp_Chiralities_Consistent>
1

> <s_lp_Variant>
AV-unprocessed.smi:457-1

> <Gold.Version>
5.8.1

> <Gold.Id.Protein>
6NUR|6NUR_protein|mol2

> <Gold.PLP.Fitness>
49.5146

> <Gold.PLP.PLP>
-43.2022

> <Gold.PLP.part.hbond>
-4.0000

> <Gold.PLP.part.metal>
0.0000

> <Gold.PLP.part.buried>
-1.5508

> <Gold.PLP.part.nonpolar>
-35.4596

> <Gold.PLP.part.repulsive>
0.2700

> <Gold.PLP.ligand.clash>
23.0736

> <Gold.PLP.ligand.torsion>
0.6966

> <Gold.PLP.Chemscore.Hbond>
2.6436

> <Gold.PLP.Chemscore.CHOScore>
0.0000

> <Gold.PLP.Chemscore.Metal>
0.0000

> <Gold.Chemscore.Hbonds>
donor molecule, donor type, donor heavy atom, donor atom, acceptor molecule, acceptor atom, score
      L1  H     6    28       P1  8028  1.00
      P1  H  7989  7998       L1    19  0.85
      P1  H  7997  8010       L1    16  0.82

> <Gold.PLP.Chemscore.Internal.Correction>
22.8484

> <Gold.Rescore>
     Score         DG    S(hbond)    S(metal)    S(lipo)     H(rot)  DE(clash)    DE(int)     intcor
      8.47     -14.33       1.28        0.00      85.52       2.12       0.36       5.50       ----

> <Gold.Chemscore.Fitness>
8.4733

> <Gold.Chemscore.DG>
-14.3321

> <Gold.Chemscore.ZeroCoef>
-5.4800

> <Gold.Chemscore.Hbond>
1.2824

> <Gold.Chemscore.Metal>
0.0000

> <Gold.Chemscore.Lipo>
85.5179

> <Gold.Chemscore.Internal_Hbond>
0.0000

> <Gold.Chemscore.DEClash>
0.3621

> <Gold.Chemscore.DEInternal>
5.4967

> <Gold.Chemscore.Rot>
2.1237

> <Gold.Chemscore.Internal.Correction>
   9.000000E+99

> <Gold.Chemscore.Hbonds>
donor molecule, donor type, donor heavy atom, donor atom, acceptor molecule, acceptor atom, score
      L1  H     6    28       P1  8028  0.93
      P1  H  7989  7998       L1    19  0.15
      P1  H  7997  8010       L1    16  0.13

> <Gold.Chemscore.Hbond.Weighted>
-4.2832

> <Gold.Chemscore.Metal.Weighted>
-0.0000

> <Gold.Chemscore.Lipo.Weighted>
-10.0056

> <Gold.Chemscore.Internal_Hbond.Weighted>
0.0000

> <Gold.Chemscore.DEClash.Weighted>
0.3621

> <Gold.Chemscore.DEInternal.Weighted>
5.4967

> <Gold.Chemscore.Rot.Weighted>
5.4367

> <Gold.Chemscore.Internal.Correction.Weighted>
   9.000000E+99

> <Gold.Protein.RotatedTorsions>
[ 6907 6896 6895 6894 ] final  -56.28 input  -60.11 | X-H torsion
[ 7974 7965 7964 7962 ] final -115.49 input  175.53 | X-H torsion
[ 8008 7997 7996 7995 ] final   13.76 input   59.86 | X-H torsion
[ 10167 10162 10161 10158 ] final   68.34 input  -65.29 | X-H torsion
[ 10718 10713 10712 10709 ] final  -23.91 input   66.30 | X-H torsion
[ 10763 10752 10751 10750 ] final  124.88 input  -60.55 | X-H torsion
[ 11005 11000 10999 10996 ] final  -68.60 input  -57.11 | X-H torsion

> <Gold.Protein.ActiveResidues>
 VAL166  LYS551  ARG553  GLY616  TRP617  ASP618  TYR619  PRO620  LYS621  CYS622 
 ASP623  PHE694  ASN695  SER759  ASP760  ASP761  ALA762  ILE779  LEU786  VAL792 
 PHE793  MET794  SER795  GLU796  ALA797  LYS798  CYS799  TRP800  GLU811  SER814 

> <Gold.Protein.RotatedAtoms>
  150.8181  134.7374  159.6747 H   0  0  0  0  0  0  0  0  0  0  0  0  # atno 6907 bound_to 6896
  152.4298  134.5795  159.9954 H   0  0  0  0  0  0  0  0  0  0  0  0  # atno 6908 bound_to 6896
  151.5987  133.3321  159.3079 H   0  0  0  0  0  0  0  0  0  0  0  0  # atno 6909 bound_to 6896
  145.1078  140.8592  143.3888 H   0  0  0  0  0  0  0  0  0  0  0  0  # atno 7974 bound_to 7965
  154.8390  140.2911  155.5672 H   0  0  0  0  0  0  0  0  0  0  0  0  # atno 8008 bound_to 7997
  156.3010  140.2517  156.3261 H   0  0  0  0  0  0  0  0  0  0  0  0  # atno 8009 bound_to 7997
  154.9146  140.0387  157.1954 H   0  0  0  0  0  0  0  0  0  0  0  0  # atno 8010 bound_to 7997
  140.0797  144.5081  150.7170 H   0  0  0  0  0  0  0  0  0  0  0  0  # atno 10167 bound_to 10162
  156.4846  130.4553  149.6791 H   0  0  0  0  0  0  0  0  0  0  0  0  # atno 10718 bound_to 10713
  153.6685  135.3334  155.3147 H   0  0  0  0  0  0  0  0  0  0  0  0  # atno 10763 bound_to 10752
  154.8497  135.4380  154.1730 H   0  0  0  0  0  0  0  0  0  0  0  0  # atno 10764 bound_to 10752
  153.2715  135.7001  153.7552 H   0  0  0  0  0  0  0  0  0  0  0  0  # atno 10765 bound_to 10752
  141.1535  133.6744  156.6471 H   0  0  0  0  0  0  0  0  0  0  0  0  # atno 11005 bound_to 11000
  145.0882  139.2910  143.5749 LP  0  0  0  0  0  0  0  0  0  0  0  0  # atno 17320 bound_to 7965
  146.3527  140.0410  142.8643 LP  0  0  0  0  0  0  0  0  0  0  0  0  # atno 17321 bound_to 7965
  140.7084  143.2485  151.4657 LP  0  0  0  0  0  0  0  0  0  0  0  0  # atno 17342 bound_to 10162
  139.5787  144.1760  152.1938 LP  0  0  0  0  0  0  0  0  0  0  0  0  # atno 17343 bound_to 10162
  156.3487  130.7420  151.2376 LP  0  0  0  0  0  0  0  0  0  0  0  0  # atno 17370 bound_to 10713
  157.7480  131.0383  150.4497 LP  0  0  0  0  0  0  0  0  0  0  0  0  # atno 17371 bound_to 10713
  140.3349  134.7898  157.4354 LP  0  0  0  0  0  0  0  0  0  0  0  0  # atno 17394 bound_to 11000
  140.0986  134.5503  155.8374 LP  0  0  0  0  0  0  0  0  0  0  0  0  # atno 17395 bound_to 11000

$$$$
