AV-unprocessed.smi:3287|AV-procd|sdf|12591|dock5
  -GOLD-   2272018513D 1   1.00000     0.00000
 Structure written by MMmdl.
 43 44  0  0  0  0  0  0  0  0  2 V2000
  152.3216  143.3381  161.5918 C   0  0  0  0  0  0  0  0  0  0  0  0
  153.1135  143.1524  160.2817 C   0  0  1  0  0  0  0  0  0  0  0  0
  153.4548  141.6698  160.0286 C   0  0  0  0  0  0  0  0  0  0  0  0
  152.2248  140.8521  159.5990 C   0  0  0  0  0  0  0  0  0  0  0  0
  151.5491  141.4578  158.3559 C   0  0  1  0  0  0  0  0  0  0  0  0
  150.3544  140.6624  157.9971 N   0  3  0  0  0  0  0  0  0  0  0  0
  149.4929  141.2540  156.9504 C   0  0  0  0  0  0  0  0  0  0  0  0
  150.2446  141.3939  155.6154 C   0  0  2  0  0  0  0  0  0  0  0  0
  149.3805  141.9878  154.6656 O   0  0  0  0  0  0  0  0  0  0  0  0
  150.7690  140.0481  155.1394 C   0  0  0  0  0  0  0  0  0  0  0  0
  152.1550  139.7855  155.1247 C   0  0  0  0  0  0  0  0  0  0  0  0
  152.5970  138.5218  154.6838 C   0  0  0  0  0  0  0  0  0  0  0  0
  151.7600  137.5448  154.2746 N   0  0  0  0  0  0  0  0  0  0  0  0
  150.4344  137.7997  154.2928 C   0  0  0  0  0  0  0  0  0  0  0  0
  149.8889  139.0281  154.7160 C   0  0  0  0  0  0  0  0  0  0  0  0
  151.1921  142.9391  158.6019 C   0  0  0  0  0  0  0  0  0  0  0  0
  152.4257  143.7594  159.0321 C   0  0  1  0  0  0  0  0  0  0  0  0
  152.0935  145.2528  159.1858 C   0  0  0  0  0  0  0  0  0  0  0  0
  151.3234  142.9052  161.5357 H   0  0  0  0  0  0  0  0  0  0  0  0
  152.2118  144.3924  161.8460 H   0  0  0  0  0  0  0  0  0  0  0  0
  152.8375  142.8645  162.4277 H   0  0  0  0  0  0  0  0  0  0  0  0
  154.0608  143.6760  160.4205 H   0  0  0  0  0  0  0  0  0  0  0  0
  154.2132  141.6054  159.2471 H   0  0  0  0  0  0  0  0  0  0  0  0
  153.9040  141.2278  160.9187 H   0  0  0  0  0  0  0  0  0  0  0  0
  152.5291  139.8253  159.3918 H   0  0  0  0  0  0  0  0  0  0  0  0
  151.5123  140.7971  160.4231 H   0  0  0  0  0  0  0  0  0  0  0  0
  152.2593  141.3960  157.5297 H   0  0  0  0  0  0  0  0  0  0  0  0
  150.6746  139.7725  157.6421 H   0  0  0  0  0  0  0  0  0  0  0  0
  148.6182  140.6193  156.8066 H   0  0  0  0  0  0  0  0  0  0  0  0
  149.1305  142.2284  157.2816 H   0  0  0  0  0  0  0  0  0  0  0  0
  151.0934  142.0667  155.7474 H   0  0  0  0  0  0  0  0  0  0  0  0
  149.1262  142.8408  154.9845 H   0  0  0  0  0  0  0  0  0  0  0  0
  152.8681  140.5313  155.4433 H   0  0  0  0  0  0  0  0  0  0  0  0
  153.6514  138.2893  154.6605 H   0  0  0  0  0  0  0  0  0  0  0  0
  149.7876  137.0005  153.9621 H   0  0  0  0  0  0  0  0  0  0  0  0
  148.8191  139.1779  154.7141 H   0  0  0  0  0  0  0  0  0  0  0  0
  150.7767  143.3785  157.6950 H   0  0  0  0  0  0  0  0  0  0  0  0
  150.4111  143.0133  159.3598 H   0  0  0  0  0  0  0  0  0  0  0  0
  153.1474  143.6934  158.2162 H   0  0  0  0  0  0  0  0  0  0  0  0
  151.3104  145.4197  159.9255 H   0  0  0  0  0  0  0  0  0  0  0  0
  151.7439  145.6730  158.2424 H   0  0  0  0  0  0  0  0  0  0  0  0
  152.9719  145.8218  159.4916 H   0  0  0  0  0  0  0  0  0  0  0  0
  149.8069  140.4953  158.8290 H   0  0  0  0  0  0  0  0  0  0  0  0
  1  2  1  0  0  0  0
  1 19  1  0  0  0  0
  1 20  1  0  0  0  0
  1 21  1  0  0  0  0
  2 17  1  0  0  0  0
  2  3  1  0  0  0  0
  2 22  1  0  0  0  0
  3  4  1  0  0  0  0
  3 23  1  0  0  0  0
  3 24  1  0  0  0  0
  4  5  1  0  0  0  0
  4 25  1  0  0  0  0
  4 26  1  0  0  0  0
  5  6  1  0  0  0  0
  5 16  1  0  0  0  0
  5 27  1  0  0  0  0
  6  7  1  0  0  0  0
  6 28  1  0  0  0  0
  6 43  1  0  0  0  0
  7  8  1  0  0  0  0
  7 29  1  0  0  0  0
  7 30  1  0  0  0  0
  8  9  1  0  0  0  0
  8 10  1  0  0  0  0
  8 31  1  0  0  0  0
  9 32  1  0  0  0  0
 10 15  1  0  0  0  0
 10 11  2  0  0  0  0
 11 12  1  0  0  0  0
 11 33  1  0  0  0  0
 12 13  2  0  0  0  0
 12 34  1  0  0  0  0
 13 14  1  0  0  0  0
 14 15  2  0  0  0  0
 14 35  1  0  0  0  0
 15 36  1  0  0  0  0
 16 17  1  0  0  0  0
 16 37  1  0  0  0  0
 16 38  1  0  0  0  0
 17 18  1  0  0  0  0
 17 39  1  0  0  0  0
 18 40  1  0  0  0  0
 18 41  1  0  0  0  0
 18 42  1  0  0  0  0
M  CHG  1   6   1
M  END
> <s_m_source_file>
AV-unprocessed.smi

> <i_m_source_file_index>
3287

> <i_lp_mmshare_version>
43012

> <i_f3d_flags>
0

> <s_epik_input>
W0NIM11bQ0BASF0xW0NIMl1bQ0gyXVtDQEhdKFtDSDJdW0NASF0xW0NIM10pW05IXVtDSDJdW0NASF0oW09IXSljMltjSF1bY0hdbltjSF1bY0hdMg==

> <s_epik_cmdline>
J2VwaWtfcHl0aG9uJywgJy1waCcsICc3LjAnLCAnLXRuJywgJzgnLCAnLW1hJywgJzIwMCcsICctbWV0YWxfYmluZGluZycsICctaW1hZScsICc8aW5maWxlLm1hZT4nLCAnLW9tYWUnLCAnPG91dGZpbGUubWFlPic=

> <r_lp_tautomer_probability>
1

> <r_epik_Ionization_Penalty>
0.00537262

> <r_epik_Ionization_Penalty_Charging>
0.00321624

> <r_epik_Ionization_Penalty_Neutral>
0.00215638

> <r_epik_State_Penalty>
-0

> <r_epik_Charging_Adjusted_Penalty>
0.00321624

> <i_epik_Tot_Q>
1

> <i_epik_Tot_abs_Q>
1

> <r_epik_Metal_State_Penalty>
-0

> <b_epik_Metal_Only>
0

> <s_lp_Force_Field>
OPLS_2005

> <r_lp_Energy>
17.4427

> <b_lp_Chiralities_Consistent>
1

> <s_lp_Variant>
AV-unprocessed.smi:3287-2

> <Gold.Version>
5.8.1

> <Gold.Id.Protein>
6NUR|6NUR_protein|mol2

> <Gold.PLP.Fitness>
54.7615

> <Gold.PLP.PLP>
-46.8324

> <Gold.PLP.part.hbond>
-3.7299

> <Gold.PLP.part.metal>
0.0000

> <Gold.PLP.part.buried>
-0.9679

> <Gold.PLP.part.nonpolar>
-42.1551

> <Gold.PLP.part.repulsive>
0.2787

> <Gold.PLP.ligand.clash>
0.0000

> <Gold.PLP.ligand.torsion>
0.1733

> <Gold.PLP.Chemscore.Hbond>
1.7438

> <Gold.PLP.Chemscore.CHOScore>
1.0000

> <Gold.PLP.Chemscore.Metal>
0.0000

> <Gold.Chemscore.Hbonds>
donor molecule, donor type, donor heavy atom, donor atom, acceptor molecule, acceptor atom, score
      L1  H     9    32       P1  8028  1.00
      P1  H  8011  8017       L1     9  0.03
      P1  H 10752 10765       L1    13  0.53
      L1  C    14    35       P1  7948  1.00

> <Gold.PLP.Chemscore.Internal.Correction>
0.0443

> <Gold.Rescore>
     Score         DG    S(hbond)    S(metal)    S(lipo)     H(rot)  DE(clash)    DE(int)     intcor
     21.23     -21.78       1.59        0.00     135.55       1.90       0.35       0.20       ----

> <Gold.Chemscore.Fitness>
21.2336

> <Gold.Chemscore.DG>
-21.7844

> <Gold.Chemscore.ZeroCoef>
-5.4800

> <Gold.Chemscore.Hbond>
1.5922

> <Gold.Chemscore.Metal>
0.0000

> <Gold.Chemscore.Lipo>
135.5492

> <Gold.Chemscore.Internal_Hbond>
0.0000

> <Gold.Chemscore.DEClash>
0.3532

> <Gold.Chemscore.DEInternal>
0.1976

> <Gold.Chemscore.Rot>
1.9035

> <Gold.Chemscore.Internal.Correction>
   9.000000E+99

> <Gold.Chemscore.Hbonds>
donor molecule, donor type, donor heavy atom, donor atom, acceptor molecule, acceptor atom, score
      L1  H     9    32       P1  8028  0.96
      P1  H  8011  8017       L1     9  0.01
      P1  H 10752 10765       L1    13  0.28

> <Gold.Chemscore.Hbond.Weighted>
-5.3181

> <Gold.Chemscore.Metal.Weighted>
-0.0000

> <Gold.Chemscore.Lipo.Weighted>
-15.8593

> <Gold.Chemscore.Internal_Hbond.Weighted>
0.0000

> <Gold.Chemscore.DEClash.Weighted>
0.3532

> <Gold.Chemscore.DEInternal.Weighted>
0.1976

> <Gold.Chemscore.Rot.Weighted>
4.8729

> <Gold.Chemscore.Internal.Correction.Weighted>
   9.000000E+99

> <Gold.Protein.RotatedTorsions>
[ 6907 6896 6895 6894 ] final -149.24 input  -60.11 | X-H torsion
[ 7974 7965 7964 7962 ] final  -70.78 input  175.53 | X-H torsion
[ 8008 7997 7996 7995 ] final -137.14 input   59.86 | X-H torsion
[ 10167 10162 10161 10158 ] final  -33.72 input  -65.29 | X-H torsion
[ 10718 10713 10712 10709 ] final  -54.69 input   66.30 | X-H torsion
[ 10763 10752 10751 10750 ] final  159.69 input  -60.55 | X-H torsion
[ 11005 11000 10999 10996 ] final   97.39 input  -57.11 | X-H torsion

> <Gold.Protein.ActiveResidues>
 VAL166  LYS551  ARG553  GLY616  TRP617  ASP618  TYR619  PRO620  LYS621  CYS622 
 ASP623  PHE694  ASN695  SER759  ASP760  ASP761  ALA762  ILE779  LEU786  VAL792 
 PHE793  MET794  SER795  GLU796  ALA797  LYS798  CYS799  TRP800  GLU811  SER814 

> <Gold.Protein.RotatedAtoms>
  151.1813  133.4723  159.2593 H   0  0  0  0  0  0  0  0  0  0  0  0  # atno 6907 bound_to 6896
  151.1256  135.0103  159.8569 H   0  0  0  0  0  0  0  0  0  0  0  0  # atno 6908 bound_to 6896
  152.5458  134.1720  159.8654 H   0  0  0  0  0  0  0  0  0  0  0  0  # atno 6909 bound_to 6896
  145.6865  140.9169  143.0804 H   0  0  0  0  0  0  0  0  0  0  0  0  # atno 7974 bound_to 7965
  155.4069  140.0509  157.3034 H   0  0  0  0  0  0  0  0  0  0  0  0  # atno 8008 bound_to 7997
  154.4964  140.2140  155.9398 H   0  0  0  0  0  0  0  0  0  0  0  0  # atno 8009 bound_to 7997
  156.1411  140.3154  155.8502 H   0  0  0  0  0  0  0  0  0  0  0  0  # atno 8010 bound_to 7997
  140.7199  143.3599  151.1983 H   0  0  0  0  0  0  0  0  0  0  0  0  # atno 10167 bound_to 10162
  156.1430  130.4154  150.0072 H   0  0  0  0  0  0  0  0  0  0  0  0  # atno 10718 bound_to 10713
  154.2357  135.2776  155.2873 H   0  0  0  0  0  0  0  0  0  0  0  0  # atno 10763 bound_to 10752
  154.5587  135.5653  153.6990 H   0  0  0  0  0  0  0  0  0  0  0  0  # atno 10764 bound_to 10752
  153.0010  135.6292  154.2500 H   0  0  0  0  0  0  0  0  0  0  0  0  # atno 10765 bound_to 10752
  139.8776  134.8998  156.4300 H   0  0  0  0  0  0  0  0  0  0  0  0  # atno 11005 bound_to 11000
  144.7010  139.8765  143.7444 LP  0  0  0  0  0  0  0  0  0  0  0  0  # atno 17320 bound_to 7965
  146.0919  139.3909  143.0400 LP  0  0  0  0  0  0  0  0  0  0  0  0  # atno 17321 bound_to 7965
  139.7149  143.9316  152.2962 LP  0  0  0  0  0  0  0  0  0  0  0  0  # atno 17342 bound_to 10162
  139.9054  144.6888  150.8620 LP  0  0  0  0  0  0  0  0  0  0  0  0  # atno 17343 bound_to 10162
  156.7952  130.9270  151.3646 LP  0  0  0  0  0  0  0  0  0  0  0  0  # atno 17370 bound_to 10713
  157.6592  130.8951  149.9793 LP  0  0  0  0  0  0  0  0  0  0  0  0  # atno 17371 bound_to 10713
  140.9073  133.7736  155.9750 LP  0  0  0  0  0  0  0  0  0  0  0  0  # atno 17394 bound_to 11000
  140.8585  134.2869  157.5245 LP  0  0  0  0  0  0  0  0  0  0  0  0  # atno 17395 bound_to 11000

$$$$
