AV-unprocessed.smi:845|AV-procd|sdf|3929|dock3
  -GOLD-   22720 1393D 1   1.00000     0.00000
 Structure written by MMmdl.
 42 43  0  0  0  0  0  0  0  0  1 V2000
  146.9324  141.7715  153.7881 C   0  0  0  0  0  0  0  0  0  0  0  0
  147.7259  140.7161  154.5809 C   0  0  0  0  0  0  0  0  0  0  0  0
  148.9851  141.3250  155.2272 C   0  0  0  0  0  0  0  0  0  0  0  0
  147.9938  139.3863  153.7842 C   0  0  2  0  0  0  0  0  0  0  0  0
  146.6654  138.7424  153.2738 C   0  0  0  0  0  0  0  0  0  0  0  0
  146.8582  137.4492  152.6299 N   0  0  0  0  0  0  0  0  0  0  0  0
  145.8770  136.6698  152.1554 C   0  0  0  0  0  0  0  0  0  0  0  0
  144.6817  136.9539  152.2392 O   0  0  0  0  0  0  0  0  0  0  0  0
  146.3746  135.5598  151.5830 N   0  0  0  0  0  0  0  0  0  0  0  0
  145.6675  134.5117  150.9377 C   0  0  0  0  0  0  0  0  0  0  0  0
  144.3473  134.5140  150.7195 N   0  0  0  0  0  0  0  0  0  0  0  0
  143.9223  133.3568  150.0619 C   0  0  0  0  0  0  0  0  0  0  0  0
  144.9397  132.4777  149.7854 C   0  0  0  0  0  0  0  0  0  0  0  0
  146.4811  133.0725  150.3419 S   0  0  0  0  0  0  0  0  0  0  0  0
  148.8638  138.4390  154.5348 N   0  0  0  0  0  0  0  0  0  0  0  0
  150.2967  138.7457  154.4346 C   0  0  0  0  0  0  0  0  0  0  0  0
  151.1785  137.7665  155.2291 C   0  0  0  0  0  0  0  0  0  0  0  0
  150.7843  137.7634  156.5933 O   0  0  0  0  0  0  0  0  0  0  0  0
  149.4205  137.4000  156.7505 C   0  0  0  0  0  0  0  0  0  0  0  0
  148.5310  138.3811  155.9676 C   0  0  0  0  0  0  0  0  0  0  0  0
  147.5135  142.1960  152.9699 H   0  0  0  0  0  0  0  0  0  0  0  0
  146.6350  142.5986  154.4334 H   0  0  0  0  0  0  0  0  0  0  0  0
  146.0227  141.3430  153.3667 H   0  0  0  0  0  0  0  0  0  0  0  0
  147.0981  140.5007  155.4384 H   0  0  0  0  0  0  0  0  0  0  0  0
  149.6530  141.7900  154.5048 H   0  0  0  0  0  0  0  0  0  0  0  0
  149.5514  140.5716  155.7749 H   0  0  0  0  0  0  0  0  0  0  0  0
  148.7096  142.1020  155.9409 H   0  0  0  0  0  0  0  0  0  0  0  0
  148.5466  139.6641  152.8855 H   0  0  0  0  0  0  0  0  0  0  0  0
  145.9908  138.5307  154.1024 H   0  0  0  0  0  0  0  0  0  0  0  0
  146.1407  139.4350  152.6132 H   0  0  0  0  0  0  0  0  0  0  0  0
  147.8114  137.1360  152.5184 H   0  0  0  0  0  0  0  0  0  0  0  0
  147.3789  135.4589  151.5977 H   0  0  0  0  0  0  0  0  0  0  0  0
  142.8742  133.2407  149.8288 H   0  0  0  0  0  0  0  0  0  0  0  0
  144.8759  131.5206  149.2896 H   0  0  0  0  0  0  0  0  0  0  0  0
  150.6286  138.6861  153.3991 H   0  0  0  0  0  0  0  0  0  0  0  0
  150.4841  139.7650  154.7756 H   0  0  0  0  0  0  0  0  0  0  0  0
  151.1031  136.7586  154.8178 H   0  0  0  0  0  0  0  0  0  0  0  0
  152.2259  138.0613  155.1629 H   0  0  0  0  0  0  0  0  0  0  0  0
  149.2639  136.3763  156.4069 H   0  0  0  0  0  0  0  0  0  0  0  0
  149.1676  137.4240  157.8105 H   0  0  0  0  0  0  0  0  0  0  0  0
  148.6269  139.3753  156.4064 H   0  0  0  0  0  0  0  0  0  0  0  0
  147.5044  138.0711  156.1375 H   0  0  0  0  0  0  0  0  0  0  0  0
  1  2  1  0  0  0  0
  1 21  1  0  0  0  0
  1 22  1  0  0  0  0
  1 23  1  0  0  0  0
  2  3  1  0  0  0  0
  2  4  1  0  0  0  0
  2 24  1  0  0  0  0
  3 25  1  0  0  0  0
  3 26  1  0  0  0  0
  3 27  1  0  0  0  0
  4  5  1  0  0  0  0
  4 15  1  0  0  0  0
  4 28  1  0  0  0  0
  5  6  1  0  0  0  0
  5 29  1  0  0  0  0
  5 30  1  0  0  0  0
  6  7  1  0  0  0  0
  6 31  1  0  0  0  0
  7  8  2  0  0  0  0
  7  9  1  0  0  0  0
  9 10  1  0  0  0  0
  9 32  1  0  0  0  0
 10 14  1  0  0  0  0
 10 11  2  0  0  0  0
 11 12  1  0  0  0  0
 12 13  2  0  0  0  0
 12 33  1  0  0  0  0
 13 14  1  0  0  0  0
 13 34  1  0  0  0  0
 15 20  1  0  0  0  0
 15 16  1  0  0  0  0
 16 17  1  0  0  0  0
 16 35  1  0  0  0  0
 16 36  1  0  0  0  0
 17 18  1  0  0  0  0
 17 37  1  0  0  0  0
 17 38  1  0  0  0  0
 18 19  1  0  0  0  0
 19 20  1  0  0  0  0
 19 39  1  0  0  0  0
 19 40  1  0  0  0  0
 20 41  1  0  0  0  0
 20 42  1  0  0  0  0
M  END
> <s_m_source_file>
AV-unprocessed.smi

> <i_m_source_file_index>
845

> <i_lp_mmshare_version>
43012

> <i_f3d_flags>
0

> <s_epik_input>
W0NIMl0xW0NIMl1PW0NIMl1bQ0gyXU4xW0NASF0oW0NIXShbQ0gzXSlbQ0gzXSlbQ0gyXVtOSF1DKD1PKVtOSF1jMm5bY0hdW2NIXXMy

> <s_epik_cmdline>
J2VwaWtfcHl0aG9uJywgJy1waCcsICc3LjAnLCAnLXRuJywgJzgnLCAnLW1hJywgJzIwMCcsICctbWV0YWxfYmluZGluZycsICctaW1hZScsICc8aW5maWxlLm1hZT4nLCAnLW9tYWUnLCAnPG91dGZpbGUubWFlPic=

> <r_lp_tautomer_probability>
0.999

> <r_epik_Ionization_Penalty>
0.423897

> <r_epik_Ionization_Penalty_Charging>
0

> <r_epik_Ionization_Penalty_Neutral>
0.423897

> <r_epik_State_Penalty>
0.424384

> <r_epik_Charging_Adjusted_Penalty>
0.424384

> <i_epik_Tot_Q>
0

> <i_epik_Tot_abs_Q>
0

> <r_epik_Metal_State_Penalty>
0.434476

> <b_epik_Metal_Only>
0

> <s_lp_Force_Field>
OPLS_2005

> <r_lp_Energy>
36.4292

> <b_lp_Chiralities_Consistent>
1

> <s_lp_Variant>
AV-unprocessed.smi:845-3

> <Gold.Version>
5.8.1

> <Gold.Id.Protein>
6NUR|6NUR_protein|mol2

> <Gold.PLP.Fitness>
38.9277

> <Gold.PLP.PLP>
-30.9072

> <Gold.PLP.part.hbond>
-2.0000

> <Gold.PLP.part.metal>
0.0000

> <Gold.PLP.part.buried>
-4.3685

> <Gold.PLP.part.nonpolar>
-25.4301

> <Gold.PLP.part.repulsive>
0.6323

> <Gold.PLP.ligand.clash>
0.0000

> <Gold.PLP.ligand.torsion>
0.6585

> <Gold.PLP.Chemscore.Hbond>
1.9920

> <Gold.PLP.Chemscore.CHOScore>
1.0000

> <Gold.PLP.Chemscore.Metal>
0.0000

> <Gold.Chemscore.Hbonds>
donor molecule, donor type, donor heavy atom, donor atom, acceptor molecule, acceptor atom, score
      L1  H     6    31       P1  7948  1.00
      L1  H     9    32       P1  7948  0.98
      L1  C    12    33       P1 10186  1.00

> <Gold.PLP.Chemscore.Internal.Correction>
0.3615

> <Gold.Rescore>
     Score         DG    S(hbond)    S(metal)    S(lipo)     H(rot)  DE(clash)    DE(int)     intcor
     13.49     -16.50       1.90        0.00      78.20       1.75       0.05       2.95       ----

> <Gold.Chemscore.Fitness>
13.4945

> <Gold.Chemscore.DG>
-16.4975

> <Gold.Chemscore.ZeroCoef>
-5.4800

> <Gold.Chemscore.Hbond>
1.9012

> <Gold.Chemscore.Metal>
0.0000

> <Gold.Chemscore.Lipo>
78.2045

> <Gold.Chemscore.Internal_Hbond>
0.0000

> <Gold.Chemscore.DEClash>
0.0524

> <Gold.Chemscore.DEInternal>
2.9507

> <Gold.Chemscore.Rot>
1.7509

> <Gold.Chemscore.Internal.Correction>
   9.000000E+99

> <Gold.Chemscore.Hbonds>
donor molecule, donor type, donor heavy atom, donor atom, acceptor molecule, acceptor atom, score
      L1  H     6    31       P1  7948  0.95
      L1  H     9    32       P1  7948  0.90

> <Gold.Chemscore.Hbond.Weighted>
-6.3499

> <Gold.Chemscore.Metal.Weighted>
-0.0000

> <Gold.Chemscore.Lipo.Weighted>
-9.1499

> <Gold.Chemscore.Internal_Hbond.Weighted>
0.0000

> <Gold.Chemscore.DEClash.Weighted>
0.0524

> <Gold.Chemscore.DEInternal.Weighted>
2.9507

> <Gold.Chemscore.Rot.Weighted>
4.4823

> <Gold.Chemscore.Internal.Correction.Weighted>
   9.000000E+99

> <Gold.Protein.RotatedTorsions>
[ 6907 6896 6895 6894 ] final  -99.67 input  -60.11 | X-H torsion
[ 7974 7965 7964 7962 ] final  -57.91 input  175.53 | X-H torsion
[ 8008 7997 7996 7995 ] final  110.53 input   59.86 | X-H torsion
[ 10167 10162 10161 10158 ] final   17.78 input  -65.29 | X-H torsion
[ 10718 10713 10712 10709 ] final   99.56 input   66.30 | X-H torsion
[ 10763 10752 10751 10750 ] final -168.79 input  -60.55 | X-H torsion
[ 11005 11000 10999 10996 ] final   87.86 input  -57.11 | X-H torsion

> <Gold.Protein.ActiveResidues>
 VAL166  LYS551  ARG553  GLY616  TRP617  ASP618  TYR619  PRO620  LYS621  CYS622 
 ASP623  PHE694  ASN695  SER759  ASP760  ASP761  ALA762  ILE779  LEU786  VAL792 
 PHE793  MET794  SER795  GLU796  ALA797  LYS798  CYS799  TRP800  GLU811  SER814 

> <Gold.Protein.RotatedAtoms>
  150.7088  134.1004  159.3963 H   0  0  0  0  0  0  0  0  0  0  0  0  # atno 6907 bound_to 6896
  151.8990  135.0383  160.0514 H   0  0  0  0  0  0  0  0  0  0  0  0  # atno 6908 bound_to 6896
  152.2429  133.5115  159.5317 H   0  0  0  0  0  0  0  0  0  0  0  0  # atno 6909 bound_to 6896
  145.8456  140.8388  143.0012 H   0  0  0  0  0  0  0  0  0  0  0  0  # atno 7974 bound_to 7965
  156.2059  140.3037  155.9626 H   0  0  0  0  0  0  0  0  0  0  0  0  # atno 8008 bound_to 7997
  155.2842  140.0439  157.3035 H   0  0  0  0  0  0  0  0  0  0  0  0  # atno 8009 bound_to 7997
  154.5633  140.2326  155.8311 H   0  0  0  0  0  0  0  0  0  0  0  0  # atno 8010 bound_to 7997
  140.5701  143.9177  150.6706 H   0  0  0  0  0  0  0  0  0  0  0  0  # atno 10167 bound_to 10162
  157.6873  131.0673  150.4967 H   0  0  0  0  0  0  0  0  0  0  0  0  # atno 10718 bound_to 10713
  154.6592  135.2922  154.9888 H   0  0  0  0  0  0  0  0  0  0  0  0  # atno 10763 bound_to 10752
  154.0954  135.6584  153.4863 H   0  0  0  0  0  0  0  0  0  0  0  0  # atno 10764 bound_to 10752
  153.0420  135.5230  154.7535 H   0  0  0  0  0  0  0  0  0  0  0  0  # atno 10765 bound_to 10752
  139.8909  134.8450  156.2919 H   0  0  0  0  0  0  0  0  0  0  0  0  # atno 11005 bound_to 11000
  144.6731  140.0876  143.7466 LP  0  0  0  0  0  0  0  0  0  0  0  0  # atno 17320 bound_to 7965
  145.9416  139.2673  143.1265 LP  0  0  0  0  0  0  0  0  0  0  0  0  # atno 17321 bound_to 7965
  140.2650  143.3496  152.1289 LP  0  0  0  0  0  0  0  0  0  0  0  0  # atno 17342 bound_to 10162
  139.5113  144.6898  151.5790 LP  0  0  0  0  0  0  0  0  0  0  0  0  # atno 17343 bound_to 10162
  156.5290  130.4180  149.6211 LP  0  0  0  0  0  0  0  0  0  0  0  0  # atno 17370 bound_to 10713
  156.3086  130.7216  151.2104 LP  0  0  0  0  0  0  0  0  0  0  0  0  # atno 17371 bound_to 10713
  140.9970  133.7174  156.0901 LP  0  0  0  0  0  0  0  0  0  0  0  0  # atno 17394 bound_to 11000
  140.7549  134.4004  157.5535 LP  0  0  0  0  0  0  0  0  0  0  0  0  # atno 17395 bound_to 11000

$$$$
