AV-unprocessed.smi:2751|AV-procd|sdf|10598|dock8
  -GOLD-   2272015 53D 1   1.00000     0.00000
 Structure written by MMmdl.
 35 36  0  0  0  0  0  0  0  0  2 V2000
  146.7674  137.5089  153.8595 O   0  0  0  0  0  0  0  0  0  0  0  0
  146.1457  138.2203  153.0694 C   0  0  0  0  0  0  0  0  0  0  0  0
  146.1129  139.5593  153.1445 N   0  0  0  0  0  0  0  0  0  0  0  0
  146.7918  140.3550  154.1615 C   0  0  0  0  0  0  0  0  0  0  0  0
  148.3212  140.2724  154.0161 C   0  0  0  0  0  0  0  0  0  0  0  0
  149.0683  140.7090  155.2862 C   0  0  1  0  0  0  0  0  0  0  0  0
  148.4585  140.0806  156.5545 C   0  0  0  0  0  0  0  0  0  0  0  0
  149.2733  140.4647  157.7944 C   0  0  0  0  0  0  0  0  0  0  0  0
  150.7487  140.1183  157.5699 C   0  0  0  0  0  0  0  0  0  0  0  0
  151.2474  140.7360  156.2542 C   0  0  0  0  0  0  0  0  0  0  0  0
  150.4302  140.3001  155.1721 O   0  0  0  0  0  0  0  0  0  0  0  0
  145.4188  137.7651  152.0349 N   0  0  0  0  0  0  0  0  0  0  0  0
  145.2213  136.4126  151.6574 C   0  0  0  0  0  0  0  0  0  0  0  0
  146.1346  135.4389  151.6432 N   0  3  0  0  0  0  0  0  0  0  0  0
  145.5412  134.2780  151.2154 C   0  0  0  0  0  0  0  0  0  0  0  0
  144.2276  134.5998  150.9738 C   0  0  0  0  0  0  0  0  0  0  0  0
  144.0129  135.9366  151.2472 O   0  0  0  0  0  0  0  0  0  0  0  0
  145.5789  140.0677  152.4545 H   0  0  0  0  0  0  0  0  0  0  0  0
  146.4542  141.3915  154.1122 H   0  0  0  0  0  0  0  0  0  0  0  0
  146.4919  139.9787  155.1398 H   0  0  0  0  0  0  0  0  0  0  0  0
  148.5982  139.2456  153.7735 H   0  0  0  0  0  0  0  0  0  0  0  0
  148.6504  140.8857  153.1762 H   0  0  0  0  0  0  0  0  0  0  0  0
  149.0249  141.7969  155.3654 H   0  0  0  0  0  0  0  0  0  0  0  0
  147.4236  140.4016  156.6768 H   0  0  0  0  0  0  0  0  0  0  0  0
  148.4394  138.9946  156.4542 H   0  0  0  0  0  0  0  0  0  0  0  0
  149.1716  141.5337  157.9852 H   0  0  0  0  0  0  0  0  0  0  0  0
  148.8909  139.9500  158.6762 H   0  0  0  0  0  0  0  0  0  0  0  0
  151.3517  140.4717  158.4068 H   0  0  0  0  0  0  0  0  0  0  0  0
  150.8695  139.0349  157.5320 H   0  0  0  0  0  0  0  0  0  0  0  0
  151.2449  141.8256  156.3098 H   0  0  0  0  0  0  0  0  0  0  0  0
  152.2762  140.4303  156.0636 H   0  0  0  0  0  0  0  0  0  0  0  0
  147.1122  135.5087  151.8995 H   0  0  0  0  0  0  0  0  0  0  0  0
  146.1016  133.3582  151.1275 H   0  0  0  0  0  0  0  0  0  0  0  0
  143.3731  134.0360  150.6283 H   0  0  0  0  0  0  0  0  0  0  0  0
  144.9576  138.4549  151.4602 H   0  0  0  0  0  0  0  0  0  0  0  0
  1  2  2  0  0  0  0
  2 12  1  0  0  0  0
  2  3  1  0  0  0  0
  3  4  1  0  0  0  0
  3 18  1  0  0  0  0
  4  5  1  0  0  0  0
  4 19  1  0  0  0  0
  4 20  1  0  0  0  0
  5  6  1  0  0  0  0
  5 21  1  0  0  0  0
  5 22  1  0  0  0  0
  6 11  1  0  0  0  0
  6  7  1  0  0  0  0
  6 23  1  0  0  0  0
  7  8  1  0  0  0  0
  7 24  1  0  0  0  0
  7 25  1  0  0  0  0
  8  9  1  0  0  0  0
  8 26  1  0  0  0  0
  8 27  1  0  0  0  0
  9 10  1  0  0  0  0
  9 28  1  0  0  0  0
  9 29  1  0  0  0  0
 10 11  1  0  0  0  0
 10 30  1  0  0  0  0
 10 31  1  0  0  0  0
 12 13  1  0  0  0  0
 12 35  1  0  0  0  0
 13 17  1  0  0  0  0
 13 14  2  0  0  0  0
 14 32  1  0  0  0  0
 14 15  1  0  0  0  0
 15 33  1  0  0  0  0
 15 16  2  0  0  0  0
 16 34  1  0  0  0  0
 16 17  1  0  0  0  0
M  CHG  1  14   1
M  END
> <s_m_source_file>
AV-unprocessed.smi

> <i_m_source_file_index>
2751

> <i_lp_mmshare_version>
43012

> <i_f3d_flags>
0

> <s_epik_input>
bzFbY0hdW2NIXW5jMVtOSF1DKD1PKVtOSF1bQ0gyXVtDSDJdW0NAQEhdMltDSDJdW0NIMl1bQ0gyXVtDSDJdTzI=

> <s_epik_cmdline>
J2VwaWtfcHl0aG9uJywgJy1waCcsICc3LjAnLCAnLXRuJywgJzgnLCAnLW1hJywgJzIwMCcsICctbWV0YWxfYmluZGluZycsICctaW1hZScsICc8aW5maWxlLm1hZT4nLCAnLW9tYWUnLCAnPG91dGZpbGUubWFlPic=

> <r_epik_Ionization_Penalty>
6.63408

> <r_epik_Ionization_Penalty_Charging>
6.57733

> <r_epik_Ionization_Penalty_Neutral>
0.0567487

> <r_epik_State_Penalty>
1.8175

> <r_epik_Charging_Adjusted_Penalty>
8.39483

> <i_epik_Tot_Q>
1

> <i_epik_Tot_abs_Q>
1

> <r_epik_Metal_State_Penalty>
1.83396

> <b_epik_Metal_Only>
0

> <s_lp_Force_Field>
OPLS_2005

> <r_lp_Energy>
17.5714

> <b_lp_Chiralities_Consistent>
1

> <s_lp_Variant>
AV-unprocessed.smi:2751-4

> <Gold.Version>
5.8.1

> <Gold.Id.Protein>
6NUR|6NUR_protein|mol2

> <Gold.PLP.Fitness>
37.8012

> <Gold.PLP.PLP>
-23.8100

> <Gold.PLP.part.hbond>
-4.4211

> <Gold.PLP.part.metal>
0.0000

> <Gold.PLP.part.buried>
-4.2210

> <Gold.PLP.part.nonpolar>
-17.2016

> <Gold.PLP.part.repulsive>
1.3672

> <Gold.PLP.ligand.clash>
0.0000

> <Gold.PLP.ligand.torsion>
0.5265

> <Gold.PLP.Chemscore.Hbond>
4.3760

> <Gold.PLP.Chemscore.CHOScore>
0.6318

> <Gold.PLP.Chemscore.Metal>
0.0000

> <Gold.Chemscore.Hbonds>
donor molecule, donor type, donor heavy atom, donor atom, acceptor molecule, acceptor atom, score
      L1  H     3    18       P1 10175  0.58
      L1  H    12    35       P1 10171  0.83
      L1  H    14    32       P1  7948  2.00
      P1  H  7989  7998       L1    11  0.73
      L1  C    16    34       P1 10186  0.77

> <Gold.PLP.Chemscore.Internal.Correction>
0.0207

> <Gold.Rescore>
     Score         DG    S(hbond)    S(metal)    S(lipo)     H(rot)  DE(clash)    DE(int)     intcor
     14.74     -15.29       2.66        0.00      44.19       1.66       0.04       0.51       ----

> <Gold.Chemscore.Fitness>
14.7447

> <Gold.Chemscore.DG>
-15.2895

> <Gold.Chemscore.ZeroCoef>
-5.4800

> <Gold.Chemscore.Hbond>
2.6594

> <Gold.Chemscore.Metal>
0.0000

> <Gold.Chemscore.Lipo>
44.1907

> <Gold.Chemscore.Internal_Hbond>
0.0000

> <Gold.Chemscore.DEClash>
0.0363

> <Gold.Chemscore.DEInternal>
0.5085

> <Gold.Chemscore.Rot>
1.6575

> <Gold.Chemscore.Internal.Correction>
   9.000000E+99

> <Gold.Chemscore.Hbonds>
donor molecule, donor type, donor heavy atom, donor atom, acceptor molecule, acceptor atom, score
      L1  H     3    18       P1 10175  0.51
      L1  H    12    35       P1 10171  0.80
      L1  H    14    32       P1  7948  0.98
      P1  H  7989  7998       L1    11  0.21

> <Gold.Chemscore.Hbond.Weighted>
-8.8823

> <Gold.Chemscore.Metal.Weighted>
-0.0000

> <Gold.Chemscore.Lipo.Weighted>
-5.1703

> <Gold.Chemscore.Internal_Hbond.Weighted>
0.0000

> <Gold.Chemscore.DEClash.Weighted>
0.0363

> <Gold.Chemscore.DEInternal.Weighted>
0.5085

> <Gold.Chemscore.Rot.Weighted>
4.2431

> <Gold.Chemscore.Internal.Correction.Weighted>
   9.000000E+99

> <Gold.Protein.RotatedTorsions>
[ 6907 6896 6895 6894 ] final   44.15 input  -60.11 | X-H torsion
[ 7974 7965 7964 7962 ] final   10.70 input  175.53 | X-H torsion
[ 8008 7997 7996 7995 ] final  -97.46 input   59.86 | X-H torsion
[ 10167 10162 10161 10158 ] final   75.70 input  -65.29 | X-H torsion
[ 10718 10713 10712 10709 ] final -177.79 input   66.30 | X-H torsion
[ 10763 10752 10751 10750 ] final  -81.16 input  -60.55 | X-H torsion
[ 11005 11000 10999 10996 ] final   22.63 input  -57.11 | X-H torsion

> <Gold.Protein.ActiveResidues>
 VAL166  LYS551  ARG553  GLY616  TRP617  ASP618  TYR619  PRO620  LYS621  CYS622 
 ASP623  PHE694  ASN695  SER759  ASP760  ASP761  ALA762  ILE779  LEU786  VAL792 
 PHE793  MET794  SER795  GLU796  ALA797  LYS798  CYS799  TRP800  GLU811  SER814 

> <Gold.Protein.RotatedAtoms>
  152.2290  134.8340  160.0475 H   0  0  0  0  0  0  0  0  0  0  0  0  # atno 6907 bound_to 6896
  151.9096  133.3553  159.3867 H   0  0  0  0  0  0  0  0  0  0  0  0  # atno 6908 bound_to 6896
  150.7020  134.4671  159.5452 H   0  0  0  0  0  0  0  0  0  0  0  0  # atno 6909 bound_to 6896
  146.2384  139.9594  142.8460 H   0  0  0  0  0  0  0  0  0  0  0  0  # atno 7974 bound_to 7965
  154.7880  140.0463  157.1179 H   0  0  0  0  0  0  0  0  0  0  0  0  # atno 8008 bound_to 7997
  154.9624  140.3079  155.5005 H   0  0  0  0  0  0  0  0  0  0  0  0  # atno 8009 bound_to 7997
  156.2946  140.2268  156.4711 H   0  0  0  0  0  0  0  0  0  0  0  0  # atno 8010 bound_to 7997
  140.0001  144.5692  150.7744 H   0  0  0  0  0  0  0  0  0  0  0  0  # atno 10167 bound_to 10162
  156.8347  130.9665  151.3104 H   0  0  0  0  0  0  0  0  0  0  0  0  # atno 10718 bound_to 10713
  154.5602  135.5636  153.7000 H   0  0  0  0  0  0  0  0  0  0  0  0  # atno 10763 bound_to 10752
  153.0015  135.6272  154.2255 H   0  0  0  0  0  0  0  0  0  0  0  0  # atno 10764 bound_to 10752
  154.2192  135.2870  155.2910 H   0  0  0  0  0  0  0  0  0  0  0  0  # atno 10765 bound_to 10752
  140.3785  134.1946  155.7664 H   0  0  0  0  0  0  0  0  0  0  0  0  # atno 11005 bound_to 11000
  145.1785  140.9755  143.4280 LP  0  0  0  0  0  0  0  0  0  0  0  0  # atno 17320 bound_to 7965
  144.9964  139.3640  143.6189 LP  0  0  0  0  0  0  0  0  0  0  0  0  # atno 17321 bound_to 7965
  140.7422  143.2829  151.3548 LP  0  0  0  0  0  0  0  0  0  0  0  0  # atno 17342 bound_to 10162
  139.6278  144.0780  152.2449 LP  0  0  0  0  0  0  0  0  0  0  0  0  # atno 17343 bound_to 10162
  157.6388  130.8788  149.9409 LP  0  0  0  0  0  0  0  0  0  0  0  0  # atno 17370 bound_to 10713
  156.0914  130.3663  150.0388 LP  0  0  0  0  0  0  0  0  0  0  0  0  # atno 17371 bound_to 10713
  141.1931  133.8158  157.0811 LP  0  0  0  0  0  0  0  0  0  0  0  0  # atno 17394 bound_to 11000
  140.0497  134.9812  157.1113 LP  0  0  0  0  0  0  0  0  0  0  0  0  # atno 17395 bound_to 11000

$$$$
