AV-unprocessed.smi:2855|AV-procd|sdf|10981|dock8
  -GOLD-   2272015433D 1   1.00000     0.00000
 Structure written by MMmdl.
 47 48  0  0  0  0  0  0  0  0  1 V2000
  152.1751  144.9003  158.7927 C   0  0  0  0  0  0  0  0  0  0  0  0
  152.5290  143.4090  158.7032 C   0  0  2  0  0  0  0  0  0  0  0  0
  151.3284  142.5723  158.2296 C   0  0  0  0  0  0  0  0  0  0  0  0
  151.6824  141.0801  158.1359 C   0  0  0  0  0  0  0  0  0  0  0  0
  152.2064  140.5250  159.4815 C   0  0  1  0  0  0  0  0  0  0  0  0
  152.4821  138.9908  159.4514 C   0  0  0  0  0  0  0  0  0  0  0  0
  153.7992  138.6015  158.7552 C   0  0  0  0  0  0  0  0  0  0  0  0
  151.3035  138.1925  158.8686 C   0  0  0  0  0  0  0  0  0  0  0  0
  153.4131  141.3758  159.9670 C   0  0  2  0  0  0  0  0  0  0  0  0
  153.8700  140.9302  161.2823 N   0  0  0  0  0  0  0  0  0  0  0  0
  154.9979  140.2482  161.5350 C   0  0  0  0  0  0  0  0  0  0  0  0
  155.8300  139.9652  160.6722 O   0  0  0  0  0  0  0  0  0  0  0  0
  155.2210  139.8286  162.9937 C   0  0  0  0  0  0  0  0  0  0  0  0
  154.9844  138.3935  163.2062 N   0  0  0  0  0  0  0  0  0  0  0  0
  154.5684  137.5868  162.1566 C   0  0  0  0  0  0  0  0  0  0  0  0
  154.3220  136.2617  162.2873 C   0  0  0  0  0  0  0  0  0  0  0  0
  154.4880  135.6031  163.5787 C   0  0  0  0  0  0  0  0  0  0  0  0
  154.2918  134.4096  163.7967 O   0  0  0  0  0  0  0  0  0  0  0  0
  154.9051  136.4486  164.6102 N   0  0  0  0  0  0  0  0  0  0  0  0
  155.1593  137.8150  164.4829 C   0  0  0  0  0  0  0  0  0  0  0  0
  155.5200  138.4706  165.4601 O   0  0  0  0  0  0  0  0  0  0  0  0
  153.0505  142.8713  160.0474 C   0  0  0  0  0  0  0  0  0  0  0  0
  155.0316  136.0375  165.5236 H   0  0  0  0  0  0  0  0  0  0  0  0
  151.3782  145.0764  159.5158 H   0  0  0  0  0  0  0  0  0  0  0  0
  151.8401  145.2826  157.8281 H   0  0  0  0  0  0  0  0  0  0  0  0
  153.0392  145.4909  159.0986 H   0  0  0  0  0  0  0  0  0  0  0  0
  153.3259  143.3040  157.9654 H   0  0  0  0  0  0  0  0  0  0  0  0
  150.4905  142.7048  158.9155 H   0  0  0  0  0  0  0  0  0  0  0  0
  150.9882  142.9268  157.2560 H   0  0  0  0  0  0  0  0  0  0  0  0
  150.7967  140.5342  157.8132 H   0  0  0  0  0  0  0  0  0  0  0  0
  152.4312  140.9424  157.3556 H   0  0  0  0  0  0  0  0  0  0  0  0
  151.4097  140.6758  160.2123 H   0  0  0  0  0  0  0  0  0  0  0  0
  152.5672  138.6524  160.4839 H   0  0  0  0  0  0  0  0  0  0  0  0
  153.7882  138.8558  157.6956 H   0  0  0  0  0  0  0  0  0  0  0  0
  153.9711  137.5273  158.8293 H   0  0  0  0  0  0  0  0  0  0  0  0
  154.6588  139.0920  159.2100 H   0  0  0  0  0  0  0  0  0  0  0  0
  151.1819  138.3661  157.7997 H   0  0  0  0  0  0  0  0  0  0  0  0
  150.3662  138.4541  159.3607 H   0  0  0  0  0  0  0  0  0  0  0  0
  151.4551  137.1216  159.0066 H   0  0  0  0  0  0  0  0  0  0  0  0
  154.2176  141.2788  159.2368 H   0  0  0  0  0  0  0  0  0  0  0  0
  153.2563  141.1232  162.0603 H   0  0  0  0  0  0  0  0  0  0  0  0
  156.2421  140.0947  163.2700 H   0  0  0  0  0  0  0  0  0  0  0  0
  154.5799  140.4118  163.6585 H   0  0  0  0  0  0  0  0  0  0  0  0
  154.4272  138.0321  161.1820 H   0  0  0  0  0  0  0  0  0  0  0  0
  153.9992  135.6860  161.4319 H   0  0  0  0  0  0  0  0  0  0  0  0
  153.9272  143.4438  160.3544 H   0  0  0  0  0  0  0  0  0  0  0  0
  152.2959  143.0268  160.8202 H   0  0  0  0  0  0  0  0  0  0  0  0
  1  2  1  0  0  0  0
  1 24  1  0  0  0  0
  1 25  1  0  0  0  0
  1 26  1  0  0  0  0
  2 22  1  0  0  0  0
  2  3  1  0  0  0  0
  2 27  1  0  0  0  0
  3  4  1  0  0  0  0
  3 28  1  0  0  0  0
  3 29  1  0  0  0  0
  4  5  1  0  0  0  0
  4 30  1  0  0  0  0
  4 31  1  0  0  0  0
  5  6  1  0  0  0  0
  5  9  1  0  0  0  0
  5 32  1  0  0  0  0
  6  7  1  0  0  0  0
  6  8  1  0  0  0  0
  6 33  1  0  0  0  0
  7 34  1  0  0  0  0
  7 35  1  0  0  0  0
  7 36  1  0  0  0  0
  8 37  1  0  0  0  0
  8 38  1  0  0  0  0
  8 39  1  0  0  0  0
  9 10  1  0  0  0  0
  9 22  1  0  0  0  0
  9 40  1  0  0  0  0
 10 11  1  0  0  0  0
 10 41  1  0  0  0  0
 11 12  2  0  0  0  0
 11 13  1  0  0  0  0
 13 14  1  0  0  0  0
 13 42  1  0  0  0  0
 13 43  1  0  0  0  0
 14 20  1  0  0  0  0
 14 15  1  0  0  0  0
 15 16  2  0  0  0  0
 15 44  1  0  0  0  0
 16 17  1  0  0  0  0
 16 45  1  0  0  0  0
 17 18  2  0  0  0  0
 17 19  1  0  0  0  0
 19 23  1  0  0  0  0
 19 20  1  0  0  0  0
 20 21  2  0  0  0  0
 22 46  1  0  0  0  0
 22 47  1  0  0  0  0
M  END
> <s_m_source_file>
AV-unprocessed.smi

> <i_m_source_file_index>
2855

> <i_lp_mmshare_version>
43012

> <i_f3d_flags>
0

> <s_epik_input>
W0NIM11bQ0BASF0xW0NIMl1bQ0gyXVtDQEBIXShbQ0hdKFtDSDNdKVtDSDNdKVtDQEhdKFtDSDJdMSlbTkhdQyg9TylbQ0gyXW4yW2NIXVtjSF1jKD1PKVtuSF1jMj1P

> <s_epik_cmdline>
J2VwaWtfcHl0aG9uJywgJy1waCcsICc3LjAnLCAnLXRuJywgJzgnLCAnLW1hJywgJzIwMCcsICctbWV0YWxfYmluZGluZycsICctaW1hZScsICc8aW5maWxlLm1hZT4nLCAnLW9tYWUnLCAnPG91dGZpbGUubWFlPic=

> <r_lp_tautomer_probability>
0.999537

> <r_epik_Ionization_Penalty>
0.00306256

> <r_epik_Ionization_Penalty_Charging>
0.00306254

> <r_epik_Ionization_Penalty_Neutral>
2.0223e-08

> <r_epik_State_Penalty>
0.0021533

> <r_epik_Charging_Adjusted_Penalty>
0.00521583

> <i_epik_Tot_Q>
0

> <i_epik_Tot_abs_Q>
0

> <r_epik_Metal_State_Penalty>
0.362116

> <b_epik_Metal_Only>
0

> <s_lp_Force_Field>
OPLS_2005

> <r_lp_Energy>
14.402

> <b_lp_Chiralities_Consistent>
1

> <s_lp_Variant>
AV-unprocessed.smi:2855-5

> <Gold.Version>
5.8.1

> <Gold.Id.Protein>
6NUR|6NUR_protein|mol2

> <Gold.PLP.Fitness>
42.9608

> <Gold.PLP.PLP>
-43.7983

> <Gold.PLP.part.hbond>
-0.4048

> <Gold.PLP.part.metal>
0.0000

> <Gold.PLP.part.buried>
-6.7680

> <Gold.PLP.part.nonpolar>
-37.6752

> <Gold.PLP.part.repulsive>
0.2203

> <Gold.PLP.ligand.clash>
0.0000

> <Gold.PLP.ligand.torsion>
0.4482

> <Gold.PLP.Chemscore.Hbond>
0.0000

> <Gold.PLP.Chemscore.CHOScore>
0.0000

> <Gold.PLP.Chemscore.Metal>
0.0000

> <Gold.PLP.Chemscore.Internal.Correction>
0.0589

> <Gold.Rescore>
     Score         DG    S(hbond)    S(metal)    S(lipo)     H(rot)  DE(clash)    DE(int)     intcor
     12.46     -13.44       0.00        0.00     108.58       1.85       0.05       0.92       ----

> <Gold.Chemscore.Fitness>
12.4630

> <Gold.Chemscore.DG>
-13.4383

> <Gold.Chemscore.ZeroCoef>
-5.4800

> <Gold.Chemscore.Hbond>
0.0000

> <Gold.Chemscore.Metal>
0.0000

> <Gold.Chemscore.Lipo>
108.5840

> <Gold.Chemscore.Internal_Hbond>
0.0000

> <Gold.Chemscore.DEClash>
0.0543

> <Gold.Chemscore.DEInternal>
0.9210

> <Gold.Chemscore.Rot>
1.8539

> <Gold.Chemscore.Internal.Correction>
   9.000000E+99

> <Gold.Chemscore.Hbond.Weighted>
-0.0000

> <Gold.Chemscore.Metal.Weighted>
-0.0000

> <Gold.Chemscore.Lipo.Weighted>
-12.7043

> <Gold.Chemscore.Internal_Hbond.Weighted>
0.0000

> <Gold.Chemscore.DEClash.Weighted>
0.0543

> <Gold.Chemscore.DEInternal.Weighted>
0.9210

> <Gold.Chemscore.Rot.Weighted>
4.7460

> <Gold.Chemscore.Internal.Correction.Weighted>
   9.000000E+99

> <Gold.Protein.RotatedTorsions>
[ 6907 6896 6895 6894 ] final  167.49 input  -60.11 | X-H torsion
[ 7974 7965 7964 7962 ] final   66.94 input  175.53 | X-H torsion
[ 8008 7997 7996 7995 ] final    1.72 input   59.86 | X-H torsion
[ 10167 10162 10161 10158 ] final  -37.96 input  -65.29 | X-H torsion
[ 10718 10713 10712 10709 ] final  -70.33 input   66.30 | X-H torsion
[ 10763 10752 10751 10750 ] final  -72.01 input  -60.55 | X-H torsion
[ 11005 11000 10999 10996 ] final  -31.91 input  -57.11 | X-H torsion

> <Gold.Protein.ActiveResidues>
 VAL166  LYS551  ARG553  GLY616  TRP617  ASP618  TYR619  PRO620  LYS621  CYS622 
 ASP623  PHE694  ASN695  SER759  ASP760  ASP761  ALA762  ILE779  LEU786  VAL792 
 PHE793  MET794  SER795  GLU796  ALA797  LYS798  CYS799  TRP800  GLU811  SER814 

> <Gold.Protein.RotatedAtoms>
  151.8625  133.3460  159.3708 H   0  0  0  0  0  0  0  0  0  0  0  0  # atno 6907 bound_to 6896
  150.7175  134.5192  159.5654 H   0  0  0  0  0  0  0  0  0  0  0  0  # atno 6908 bound_to 6896
  152.2708  134.7935  160.0465 H   0  0  0  0  0  0  0  0  0  0  0  0  # atno 6909 bound_to 6896
  145.8206  139.3082  143.1045 H   0  0  0  0  0  0  0  0  0  0  0  0  # atno 7974 bound_to 7965
  154.6831  140.2637  155.6888 H   0  0  0  0  0  0  0  0  0  0  0  0  # atno 8008 bound_to 7997
  156.2704  140.2806  156.1305 H   0  0  0  0  0  0  0  0  0  0  0  0  # atno 8009 bound_to 7997
  155.1003  140.0374  157.2685 H   0  0  0  0  0  0  0  0  0  0  0  0  # atno 8010 bound_to 7997
  140.7104  143.3308  151.2574 H   0  0  0  0  0  0  0  0  0  0  0  0  # atno 10167 bound_to 10162
  156.0413  130.4329  150.2279 H   0  0  0  0  0  0  0  0  0  0  0  0  # atno 10718 bound_to 10713
  154.4398  135.5943  153.6122 H   0  0  0  0  0  0  0  0  0  0  0  0  # atno 10763 bound_to 10752
  152.9804  135.5995  154.3736 H   0  0  0  0  0  0  0  0  0  0  0  0  # atno 10764 bound_to 10752
  154.3585  135.2841  155.2312 H   0  0  0  0  0  0  0  0  0  0  0  0  # atno 10765 bound_to 10752
  140.9508  133.7222  156.1216 H   0  0  0  0  0  0  0  0  0  0  0  0  # atno 11005 bound_to 11000
  145.9679  140.8784  143.0177 LP  0  0  0  0  0  0  0  0  0  0  0  0  # atno 17320 bound_to 7965
  144.6748  140.1904  143.7397 LP  0  0  0  0  0  0  0  0  0  0  0  0  # atno 17321 bound_to 7965
  139.6789  143.9889  152.2797 LP  0  0  0  0  0  0  0  0  0  0  0  0  # atno 17342 bound_to 10162
  139.9512  144.6619  150.8170 LP  0  0  0  0  0  0  0  0  0  0  0  0  # atno 17343 bound_to 10162
  157.0374  131.0025  151.3294 LP  0  0  0  0  0  0  0  0  0  0  0  0  # atno 17370 bound_to 10713
  157.5234  130.8012  149.7834 LP  0  0  0  0  0  0  0  0  0  0  0  0  # atno 17371 bound_to 10713
  140.7606  134.3944  157.5526 LP  0  0  0  0  0  0  0  0  0  0  0  0  # atno 17394 bound_to 11000
  139.8847  134.8958  156.2689 LP  0  0  0  0  0  0  0  0  0  0  0  0  # atno 17395 bound_to 11000

$$$$
