AV-unprocessed.smi:3219|AV-procd|sdf|12296|dock7
  -GOLD-   2272018143D 1   1.00000     0.00000
 Structure written by MMmdl.
 41 42  0  0  0  0  0  0  0  0  2 V2000
  146.3613  133.4518  152.4318 C   0  0  0  0  0  0  0  0  0  0  0  0
  145.3089  134.1573  151.6380 C   0  0  0  0  0  0  0  0  0  0  0  0
  144.9927  135.4872  151.5488 C   0  0  0  0  0  0  0  0  0  0  0  0
  145.6311  136.6681  152.2335 C   0  0  0  0  0  0  0  0  0  0  0  0
  146.0855  137.7372  151.2284 C   0  0  0  0  0  0  0  0  0  0  0  0
  147.3167  138.4127  151.6836 N   0  3  0  0  0  0  0  0  0  0  0  0
  147.1518  139.2246  152.9043 C   0  0  0  0  0  0  0  0  0  0  0  0
  148.4922  139.8322  153.3555 C   0  0  1  0  0  0  0  0  0  0  0  0
  148.2965  140.9280  154.4307 C   0  0  0  0  0  0  0  0  0  0  0  0
  149.5993  141.3364  155.0950 C   0  0  0  0  0  0  0  0  0  0  0  0
  150.7340  140.6234  154.9997 C   0  0  0  0  0  0  0  0  0  0  0  0
  150.8388  139.3248  154.2223 C   0  0  0  0  0  0  0  0  0  0  0  0
  149.4567  138.7453  153.8676 C   0  0  0  0  0  0  0  0  0  0  0  0
  143.9038  135.5133  150.6320 C   0  0  0  0  0  0  0  0  0  0  0  0
  143.5787  134.3133  150.1871 N   0  0  0  0  0  0  0  0  0  0  0  0
  144.4387  133.4787  150.8058 N   0  0  0  0  0  0  0  0  0  0  0  0
  144.3616  132.0548  150.5424 C   0  0  0  0  0  0  0  0  0  0  0  0
  147.0429  134.1582  152.9048 H   0  0  0  0  0  0  0  0  0  0  0  0
  146.9544  132.7946  151.7955 H   0  0  0  0  0  0  0  0  0  0  0  0
  145.9099  132.8454  153.2172 H   0  0  0  0  0  0  0  0  0  0  0  0
  144.9283  137.1227  152.9325 H   0  0  0  0  0  0  0  0  0  0  0  0
  146.4810  136.3565  152.8415 H   0  0  0  0  0  0  0  0  0  0  0  0
  146.2611  137.2778  150.2543 H   0  0  0  0  0  0  0  0  0  0  0  0
  145.2994  138.4813  151.0949 H   0  0  0  0  0  0  0  0  0  0  0  0
  148.0280  137.7154  151.8505 H   0  0  0  0  0  0  0  0  0  0  0  0
  146.4211  140.0145  152.7237 H   0  0  0  0  0  0  0  0  0  0  0  0
  146.7458  138.5872  153.6911 H   0  0  0  0  0  0  0  0  0  0  0  0
  148.9627  140.2922  152.4846 H   0  0  0  0  0  0  0  0  0  0  0  0
  147.8402  141.8133  153.9864 H   0  0  0  0  0  0  0  0  0  0  0  0
  147.6199  140.5819  155.2131 H   0  0  0  0  0  0  0  0  0  0  0  0
  149.5849  142.2452  155.6789 H   0  0  0  0  0  0  0  0  0  0  0  0
  151.6326  140.9750  155.4851 H   0  0  0  0  0  0  0  0  0  0  0  0
  151.4117  139.5193  153.3150 H   0  0  0  0  0  0  0  0  0  0  0  0
  151.4064  138.6000  154.8068 H   0  0  0  0  0  0  0  0  0  0  0  0
  149.0267  138.2714  154.7514 H   0  0  0  0  0  0  0  0  0  0  0  0
  149.5756  137.9559  153.1244 H   0  0  0  0  0  0  0  0  0  0  0  0
  143.3474  136.3672  150.2741 H   0  0  0  0  0  0  0  0  0  0  0  0
  144.2196  131.5156  151.4793 H   0  0  0  0  0  0  0  0  0  0  0  0
  145.2867  131.7184  150.0738 H   0  0  0  0  0  0  0  0  0  0  0  0
  143.5270  131.8299  149.8765 H   0  0  0  0  0  0  0  0  0  0  0  0
  147.6308  139.0221  150.9415 H   0  0  0  0  0  0  0  0  0  0  0  0
  1  2  1  0  0  0  0
  1 18  1  0  0  0  0
  1 19  1  0  0  0  0
  1 20  1  0  0  0  0
  2 16  1  0  0  0  0
  2  3  2  0  0  0  0
  3  4  1  0  0  0  0
  3 14  1  0  0  0  0
  4  5  1  0  0  0  0
  4 21  1  0  0  0  0
  4 22  1  0  0  0  0
  5  6  1  0  0  0  0
  5 23  1  0  0  0  0
  5 24  1  0  0  0  0
  6  7  1  0  0  0  0
  6 25  1  0  0  0  0
  6 41  1  0  0  0  0
  7  8  1  0  0  0  0
  7 26  1  0  0  0  0
  7 27  1  0  0  0  0
  8 13  1  0  0  0  0
  8  9  1  0  0  0  0
  8 28  1  0  0  0  0
  9 10  1  0  0  0  0
  9 29  1  0  0  0  0
  9 30  1  0  0  0  0
 10 11  2  0  0  0  0
 10 31  1  0  0  0  0
 11 12  1  0  0  0  0
 11 32  1  0  0  0  0
 12 13  1  0  0  0  0
 12 33  1  0  0  0  0
 12 34  1  0  0  0  0
 13 35  1  0  0  0  0
 13 36  1  0  0  0  0
 14 15  2  0  0  0  0
 14 37  1  0  0  0  0
 15 16  1  0  0  0  0
 16 17  1  0  0  0  0
 17 38  1  0  0  0  0
 17 39  1  0  0  0  0
 17 40  1  0  0  0  0
M  CHG  1   6   1
M  END
> <s_m_source_file>
AV-unprocessed.smi

> <i_m_source_file_index>
3219

> <i_lp_mmshare_version>
43012

> <i_f3d_flags>
0

> <s_epik_input>
W0NIM11uMW5bY0hdYyhjMVtDSDNdKVtDSDJdW0NIMl1bTkhdW0NIMl1bQ0BASF0yW0NIMl1bQ0hdPVtDSF1bQ0gyXVtDSDJdMg==

> <s_epik_cmdline>
J2VwaWtfcHl0aG9uJywgJy1waCcsICc3LjAnLCAnLXRuJywgJzgnLCAnLW1hJywgJzIwMCcsICctbWV0YWxfYmluZGluZycsICctaW1hZScsICc8aW5maWxlLm1hZT4nLCAnLW9tYWUnLCAnPG91dGZpbGUubWFlPic=

> <r_lp_tautomer_probability>
1

> <r_epik_Ionization_Penalty>
0.000661401

> <r_epik_Ionization_Penalty_Charging>
0.00057791

> <r_epik_Ionization_Penalty_Neutral>
8.34914e-05

> <r_epik_State_Penalty>
-0

> <r_epik_Charging_Adjusted_Penalty>
0.00057791

> <i_epik_Tot_Q>
1

> <i_epik_Tot_abs_Q>
1

> <r_epik_Metal_State_Penalty>
-0

> <b_epik_Metal_Only>
0

> <s_lp_Force_Field>
OPLS_2005

> <r_lp_Energy>
9.67125

> <b_lp_Chiralities_Consistent>
1

> <s_lp_Variant>
AV-unprocessed.smi:3219-2

> <Gold.Version>
5.8.1

> <Gold.Id.Protein>
6NUR|6NUR_protein|mol2

> <Gold.PLP.Fitness>
43.1041

> <Gold.PLP.PLP>
-33.0511

> <Gold.PLP.part.hbond>
-2.0000

> <Gold.PLP.part.metal>
0.0000

> <Gold.PLP.part.buried>
4.6100

> <Gold.PLP.part.nonpolar>
-36.1607

> <Gold.PLP.part.repulsive>
1.4634

> <Gold.PLP.ligand.clash>
0.0000

> <Gold.PLP.ligand.torsion>
0.3297

> <Gold.PLP.Chemscore.Hbond>
2.5600

> <Gold.PLP.Chemscore.CHOScore>
1.0000

> <Gold.PLP.Chemscore.Metal>
0.0000

> <Gold.Chemscore.Hbonds>
donor molecule, donor type, donor heavy atom, donor atom, acceptor molecule, acceptor atom, score
      L1  H     6    25       P1  7948  2.00
      L1  H     6    41       P1  7957  0.26
      L1  C    14    37       P1 10171  1.00

> <Gold.PLP.Chemscore.Internal.Correction>
0.0323

> <Gold.Rescore>
     Score         DG    S(hbond)    S(metal)    S(lipo)     H(rot)  DE(clash)    DE(int)     intcor
     14.55     -15.53       1.23        0.00      82.80       1.46       0.53       0.44       ----

> <Gold.Chemscore.Fitness>
14.5550

> <Gold.Chemscore.DG>
-15.5329

> <Gold.Chemscore.ZeroCoef>
-5.4800

> <Gold.Chemscore.Hbond>
1.2283

> <Gold.Chemscore.Metal>
0.0000

> <Gold.Chemscore.Lipo>
82.7961

> <Gold.Chemscore.Internal_Hbond>
0.0000

> <Gold.Chemscore.DEClash>
0.5349

> <Gold.Chemscore.DEInternal>
0.4429

> <Gold.Chemscore.Rot>
1.4597

> <Gold.Chemscore.Internal.Correction>
   9.000000E+99

> <Gold.Chemscore.Hbonds>
donor molecule, donor type, donor heavy atom, donor atom, acceptor molecule, acceptor atom, score
      L1  H     6    25       P1  7948  1.00
      L1  H     6    41       P1  7957  0.09

> <Gold.Chemscore.Hbond.Weighted>
-4.1025

> <Gold.Chemscore.Metal.Weighted>
-0.0000

> <Gold.Chemscore.Lipo.Weighted>
-9.6871

> <Gold.Chemscore.Internal_Hbond.Weighted>
0.0000

> <Gold.Chemscore.DEClash.Weighted>
0.5349

> <Gold.Chemscore.DEInternal.Weighted>
0.4429

> <Gold.Chemscore.Rot.Weighted>
3.7368

> <Gold.Chemscore.Internal.Correction.Weighted>
   9.000000E+99

> <Gold.Protein.RotatedTorsions>
[ 6907 6896 6895 6894 ] final -148.30 input  -60.11 | X-H torsion
[ 7974 7965 7964 7962 ] final   74.65 input  175.53 | X-H torsion
[ 8008 7997 7996 7995 ] final  152.07 input   59.86 | X-H torsion
[ 10167 10162 10161 10158 ] final  -98.64 input  -65.29 | X-H torsion
[ 10718 10713 10712 10709 ] final   20.27 input   66.30 | X-H torsion
[ 10763 10752 10751 10750 ] final   19.86 input  -60.55 | X-H torsion
[ 11005 11000 10999 10996 ] final  113.43 input  -57.11 | X-H torsion

> <Gold.Protein.ActiveResidues>
 VAL166  LYS551  ARG553  GLY616  TRP617  ASP618  TYR619  PRO620  LYS621  CYS622 
 ASP623  PHE694  ASN695  SER759  ASP760  ASP761  ALA762  ILE779  LEU786  VAL792 
 PHE793  MET794  SER795  GLU796  ALA797  LYS798  CYS799  TRP800  GLU811  SER814 

> <Gold.Protein.RotatedAtoms>
  151.1679  133.4803  159.2593 H   0  0  0  0  0  0  0  0  0  0  0  0  # atno 6907 bound_to 6896
  151.1386  135.0168  159.8625 H   0  0  0  0  0  0  0  0  0  0  0  0  # atno 6908 bound_to 6896
  152.5462  134.1575  159.8597 H   0  0  0  0  0  0  0  0  0  0  0  0  # atno 6909 bound_to 6896
  145.7256  139.2664  143.1571 H   0  0  0  0  0  0  0  0  0  0  0  0  # atno 7974 bound_to 7965
  156.2646  140.2031  156.6275 H   0  0  0  0  0  0  0  0  0  0  0  0  # atno 8008 bound_to 7997
  154.6708  140.0550  157.0188 H   0  0  0  0  0  0  0  0  0  0  0  0  # atno 8009 bound_to 7997
  155.1139  140.3218  155.4517 H   0  0  0  0  0  0  0  0  0  0  0  0  # atno 8010 bound_to 7997
  140.2709  143.3345  152.0536 H   0  0  0  0  0  0  0  0  0  0  0  0  # atno 10167 bound_to 10162
  157.1222  130.6554  149.5927 H   0  0  0  0  0  0  0  0  0  0  0  0  # atno 10718 bound_to 10713
  153.1126  135.6700  153.9473 H   0  0  0  0  0  0  0  0  0  0  0  0  # atno 10763 bound_to 10752
  153.9012  135.3036  155.3450 H   0  0  0  0  0  0  0  0  0  0  0  0  # atno 10764 bound_to 10752
  154.7545  135.5018  153.9427 H   0  0  0  0  0  0  0  0  0  0  0  0  # atno 10765 bound_to 10752
  139.8953  134.9549  156.6737 H   0  0  0  0  0  0  0  0  0  0  0  0  # atno 11005 bound_to 11000
  146.0585  140.7995  142.9746 LP  0  0  0  0  0  0  0  0  0  0  0  0  # atno 17320 bound_to 7965
  144.6905  140.3161  143.7240 LP  0  0  0  0  0  0  0  0  0  0  0  0  # atno 17321 bound_to 7965
  139.4989  144.6657  151.6361 LP  0  0  0  0  0  0  0  0  0  0  0  0  # atno 17342 bound_to 10162
  140.5891  143.9812  150.6313 LP  0  0  0  0  0  0  0  0  0  0  0  0  # atno 17343 bound_to 10162
  155.9826  130.4841  150.6890 LP  0  0  0  0  0  0  0  0  0  0  0  0  # atno 17370 bound_to 10713
  157.4467  131.0867  151.0888 LP  0  0  0  0  0  0  0  0  0  0  0  0  # atno 17371 bound_to 10713
  140.7353  133.9024  155.8240 LP  0  0  0  0  0  0  0  0  0  0  0  0  # atno 17394 bound_to 11000
  141.0121  134.1006  157.4211 LP  0  0  0  0  0  0  0  0  0  0  0  0  # atno 17395 bound_to 11000

$$$$
