AV-unprocessed.smi:688|AV-procd|sdf|3357|dock6
  -GOLD-   22720 0333D 1   1.00000     0.00000
 Structure written by MMmdl.
 35 36  0  0  0  0  0  0  0  0  2 V2000
  150.3687  133.3388  157.5086 O   0  0  0  0  0  0  0  0  0  0  0  0
  150.1824  134.4747  157.0749 C   0  0  0  0  0  0  0  0  0  0  0  0
  150.2249  135.5827  157.8708 N   0  5  0  0  0  0  0  0  0  0  0  0
  150.0132  136.8536  157.4089 C   0  0  0  0  0  0  0  0  0  0  0  0
  150.0571  137.8366  158.1484 O   0  0  0  0  0  0  0  0  0  0  0  0
  149.7423  137.0365  156.0820 N   0  0  0  0  0  0  0  0  0  0  0  0
  149.4870  138.3687  155.5063 C   0  0  0  0  0  0  0  0  0  0  0  0
  150.6264  138.8431  154.5752 C   0  0  1  0  0  0  0  0  0  0  0  0
  150.3034  140.1339  154.1004 O   0  0  0  0  0  0  0  0  0  0  0  0
  152.0059  138.8971  155.2602 C   0  0  0  0  0  0  0  0  0  0  0  0
  152.0109  139.9584  156.2057 O   0  0  0  0  0  0  0  0  0  0  0  0
  152.4975  139.5819  157.4861 C   0  0  0  0  0  0  0  0  0  0  0  0
  152.4095  140.7117  158.4994 C   0  0  0  0  0  0  0  0  0  0  0  0
  151.6341  141.8557  158.2148 C   0  0  0  0  0  0  0  0  0  0  0  0
  151.5605  142.9106  159.1445 C   0  0  0  0  0  0  0  0  0  0  0  0
  152.2641  142.8275  160.3615 C   0  0  0  0  0  0  0  0  0  0  0  0
  152.1875  144.1266  161.4939 Cl  0  0  0  0  0  0  0  0  0  0  0  0
  153.0343  141.6844  160.6517 C   0  0  0  0  0  0  0  0  0  0  0  0
  153.1038  140.6264  159.7244 C   0  0  0  0  0  0  0  0  0  0  0  0
  149.6953  135.9277  155.2184 C   0  0  0  0  0  0  0  0  0  0  0  0
  149.8964  134.6696  155.6555 C   0  0  0  0  0  0  0  0  0  0  0  0
  149.8066  133.3252  154.5739 Cl  0  0  0  0  0  0  0  0  0  0  0  0
  148.5463  138.3381  154.9532 H   0  0  0  0  0  0  0  0  0  0  0  0
  149.3259  139.1048  156.2952 H   0  0  0  0  0  0  0  0  0  0  0  0
  150.6747  138.1811  153.7099 H   0  0  0  0  0  0  0  0  0  0  0  0
  149.4160  140.1165  153.7762 H   0  0  0  0  0  0  0  0  0  0  0  0
  152.2630  137.9529  155.7430 H   0  0  0  0  0  0  0  0  0  0  0  0
  152.7793  139.0701  154.5147 H   0  0  0  0  0  0  0  0  0  0  0  0
  151.8881  138.7551  157.8512 H   0  0  0  0  0  0  0  0  0  0  0  0
  153.5192  139.2067  157.4059 H   0  0  0  0  0  0  0  0  0  0  0  0
  151.1018  141.9321  157.2778 H   0  0  0  0  0  0  0  0  0  0  0  0
  150.9739  143.7885  158.9165 H   0  0  0  0  0  0  0  0  0  0  0  0
  153.5752  141.6194  161.5843 H   0  0  0  0  0  0  0  0  0  0  0  0
  153.6996  139.7549  159.9532 H   0  0  0  0  0  0  0  0  0  0  0  0
  149.4733  136.1592  154.1870 H   0  0  0  0  0  0  0  0  0  0  0  0
  1  2  2  0  0  0  0
  2 21  1  0  0  0  0
  2  3  1  0  0  0  0
  3  4  1  0  0  0  0
  4  5  2  0  0  0  0
  4  6  1  0  0  0  0
  6  7  1  0  0  0  0
  6 20  1  0  0  0  0
  7  8  1  0  0  0  0
  7 23  1  0  0  0  0
  7 24  1  0  0  0  0
  8  9  1  0  0  0  0
  8 10  1  0  0  0  0
  8 25  1  0  0  0  0
  9 26  1  0  0  0  0
 10 11  1  0  0  0  0
 10 27  1  0  0  0  0
 10 28  1  0  0  0  0
 11 12  1  0  0  0  0
 12 13  1  0  0  0  0
 12 29  1  0  0  0  0
 12 30  1  0  0  0  0
 13 19  1  0  0  0  0
 13 14  2  0  0  0  0
 14 15  1  0  0  0  0
 14 31  1  0  0  0  0
 15 16  2  0  0  0  0
 15 32  1  0  0  0  0
 16 17  1  0  0  0  0
 16 18  1  0  0  0  0
 18 19  2  0  0  0  0
 18 33  1  0  0  0  0
 19 34  1  0  0  0  0
 20 21  2  0  0  0  0
 20 35  1  0  0  0  0
 21 22  1  0  0  0  0
M  CHG  1   3  -1
M  END
> <s_m_source_file>
AV-unprocessed.smi

> <i_m_source_file_index>
688

> <i_lp_mmshare_version>
43012

> <i_f3d_flags>
0

> <s_epik_input>
Tz1jMVtuSF1jKD1PKW4oW2NIXWMxQ2wpW0NIMl1bQ0BIXShbT0hdKVtDSDJdT1tDSDJdYzJbY0hdW2NIXWMoQ2wpW2NIXVtjSF0y

> <s_epik_cmdline>
J2VwaWtfcHl0aG9uJywgJy1waCcsICc3LjAnLCAnLXRuJywgJzgnLCAnLW1hJywgJzIwMCcsICctbWV0YWxfYmluZGluZycsICctaW1hZScsICc8aW5maWxlLm1hZT4nLCAnLW9tYWUnLCAnPG91dGZpbGUubWFlPic=

> <r_epik_Ionization_Penalty>
1.82111

> <r_epik_Ionization_Penalty_Charging>
5.03334e-08

> <r_epik_Ionization_Penalty_Neutral>
1.82111

> <r_epik_State_Penalty>
1.93633

> <r_epik_Charging_Adjusted_Penalty>
1.93633

> <i_epik_Tot_Q>
-1

> <i_epik_Tot_abs_Q>
1

> <r_epik_Metal_State_Penalty>
0.0147818

> <b_epik_Metal_Only>
0

> <s_lp_Force_Field>
OPLS_2005

> <r_lp_Energy>
20.5354

> <b_lp_Chiralities_Consistent>
1

> <s_lp_Variant>
AV-unprocessed.smi:688-4

> <Gold.Version>
5.8.1

> <Gold.Id.Protein>
6NUR|6NUR_protein|mol2

> <Gold.PLP.Fitness>
49.4108

> <Gold.PLP.PLP>
-39.1231

> <Gold.PLP.part.hbond>
-4.0885

> <Gold.PLP.part.metal>
0.0000

> <Gold.PLP.part.buried>
-4.6745

> <Gold.PLP.part.nonpolar>
-31.0523

> <Gold.PLP.part.repulsive>
0.0000

> <Gold.PLP.ligand.clash>
0.0000

> <Gold.PLP.ligand.torsion>
0.6449

> <Gold.PLP.Chemscore.Hbond>
2.7982

> <Gold.PLP.Chemscore.CHOScore>
1.0000

> <Gold.PLP.Chemscore.Metal>
0.0000

> <Gold.Chemscore.Hbonds>
donor molecule, donor type, donor heavy atom, donor atom, acceptor molecule, acceptor atom, score
      P1  H  6896  6907       L1     3  1.30
      P1  H  6896  6909       L1     1  0.50
      P1  H  7989  7998       L1     9  1.00
      L1  C    20    35       P1  7948  1.00

> <Gold.PLP.Chemscore.Internal.Correction>
0.1831

> <Gold.Rescore>
     Score         DG    S(hbond)    S(metal)    S(lipo)     H(rot)  DE(clash)    DE(int)     intcor
     15.29     -16.15       1.74        0.00     104.08       2.85       0.24       0.62       ----

> <Gold.Chemscore.Fitness>
15.2939

> <Gold.Chemscore.DG>
-16.1489

> <Gold.Chemscore.ZeroCoef>
-5.4800

> <Gold.Chemscore.Hbond>
1.7360

> <Gold.Chemscore.Metal>
0.0000

> <Gold.Chemscore.Lipo>
104.0787

> <Gold.Chemscore.Internal_Hbond>
0.0000

> <Gold.Chemscore.DEClash>
0.2365

> <Gold.Chemscore.DEInternal>
0.6185

> <Gold.Chemscore.Rot>
2.8542

> <Gold.Chemscore.Internal.Correction>
   9.000000E+99

> <Gold.Chemscore.Hbonds>
donor molecule, donor type, donor heavy atom, donor atom, acceptor molecule, acceptor atom, score
      P1  H  6896  6907       L1     3  0.24
      P1  H  6896  6909       L1     1  0.39
      P1  H  7989  7998       L1     9  0.74

> <Gold.Chemscore.Hbond.Weighted>
-5.7984

> <Gold.Chemscore.Metal.Weighted>
-0.0000

> <Gold.Chemscore.Lipo.Weighted>
-12.1772

> <Gold.Chemscore.Internal_Hbond.Weighted>
0.0000

> <Gold.Chemscore.DEClash.Weighted>
0.2365

> <Gold.Chemscore.DEInternal.Weighted>
0.6185

> <Gold.Chemscore.Rot.Weighted>
7.3067

> <Gold.Chemscore.Internal.Correction.Weighted>
   9.000000E+99

> <Gold.Protein.RotatedTorsions>
[ 6907 6896 6895 6894 ] final  -50.36 input  -60.11 | X-H torsion
[ 7974 7965 7964 7962 ] final   26.30 input  175.53 | X-H torsion
[ 8008 7997 7996 7995 ] final   31.94 input   59.86 | X-H torsion
[ 10167 10162 10161 10158 ] final   34.64 input  -65.29 | X-H torsion
[ 10718 10713 10712 10709 ] final -137.69 input   66.30 | X-H torsion
[ 10763 10752 10751 10750 ] final   36.23 input  -60.55 | X-H torsion
[ 11005 11000 10999 10996 ] final   55.36 input  -57.11 | X-H torsion

> <Gold.Protein.ActiveResidues>
 VAL166  LYS551  ARG553  GLY616  TRP617  ASP618  TYR619  PRO620  LYS621  CYS622 
 ASP623  PHE694  ASN695  SER759  ASP760  ASP761  ALA762  ILE779  LEU786  VAL792 
 PHE793  MET794  SER795  GLU796  ALA797  LYS798  CYS799  TRP800  GLU811  SER814 

> <Gold.Protein.RotatedAtoms>
  150.8715  134.8090  159.7158 H   0  0  0  0  0  0  0  0  0  0  0  0  # atno 6907 bound_to 6896
  152.4718  134.4939  159.9713 H   0  0  0  0  0  0  0  0  0  0  0  0  # atno 6908 bound_to 6896
  151.5027  133.3462  159.2907 H   0  0  0  0  0  0  0  0  0  0  0  0  # atno 6909 bound_to 6896
  146.1845  139.7347  142.8877 H   0  0  0  0  0  0  0  0  0  0  0  0  # atno 7974 bound_to 7965
  155.1145  140.3242  155.4513 H   0  0  0  0  0  0  0  0  0  0  0  0  # atno 8008 bound_to 7997
  156.2681  140.2038  156.6217 H   0  0  0  0  0  0  0  0  0  0  0  0  # atno 8009 bound_to 7997
  154.6730  140.0534  157.0173 H   0  0  0  0  0  0  0  0  0  0  0  0  # atno 8010 bound_to 7997
  140.4296  144.1343  150.6158 H   0  0  0  0  0  0  0  0  0  0  0  0  # atno 10167 bound_to 10162
  156.2909  130.7374  151.1400 H   0  0  0  0  0  0  0  0  0  0  0  0  # atno 10718 bound_to 10713
  153.0085  135.6311  154.1953 H   0  0  0  0  0  0  0  0  0  0  0  0  # atno 10763 bound_to 10752
  154.1696  135.2819  155.3086 H   0  0  0  0  0  0  0  0  0  0  0  0  # atno 10764 bound_to 10752
  154.5919  135.5615  153.7347 H   0  0  0  0  0  0  0  0  0  0  0  0  # atno 10765 bound_to 10752
  140.0613  134.5598  155.9149 H   0  0  0  0  0  0  0  0  0  0  0  0  # atno 11005 bound_to 11000
  145.3980  141.0381  143.3086 LP  0  0  0  0  0  0  0  0  0  0  0  0  # atno 17320 bound_to 7965
  144.8372  139.5531  143.6917 LP  0  0  0  0  0  0  0  0  0  0  0  0  # atno 17321 bound_to 7965
  140.4442  143.2513  151.9433 LP  0  0  0  0  0  0  0  0  0  0  0  0  # atno 17342 bound_to 10162
  139.4784  144.5625  151.8217 LP  0  0  0  0  0  0  0  0  0  0  0  0  # atno 17343 bound_to 10162
  157.7342  131.0584  150.5536 LP  0  0  0  0  0  0  0  0  0  0  0  0  # atno 17370 bound_to 10713
  156.5652  130.4266  149.6044 LP  0  0  0  0  0  0  0  0  0  0  0  0  # atno 17371 bound_to 10713
  141.1974  133.6596  156.5741 LP  0  0  0  0  0  0  0  0  0  0  0  0  # atno 17394 bound_to 11000
  140.3765  134.7560  157.4633 LP  0  0  0  0  0  0  0  0  0  0  0  0  # atno 17395 bound_to 11000

$$$$
