AV-unprocessed.smi:1575|AV-procd|sdf|6340|dock3
  -GOLD-   22720 6553D 1   1.00000     0.00000
 Structure written by MMmdl.
 41 41  0  0  0  0  0  0  0  0  1 V2000
  146.5038  138.3883  152.3044 C   0  0  0  0  0  0  0  0  0  0  0  0
  146.5036  136.9346  152.2539 N   0  0  0  0  0  0  0  0  0  0  0  0
  145.3957  136.1798  152.2530 C   0  0  0  0  0  0  0  0  0  0  0  0
  144.2594  136.6541  152.3049 O   0  0  0  0  0  0  0  0  0  0  0  0
  145.6108  134.6570  152.2074 C   0  0  1  0  0  0  0  0  0  0  0  0
  145.1652  134.1568  150.8127 C   0  0  0  0  0  0  0  0  0  0  0  0
  144.4091  132.8083  150.8088 C   0  0  0  0  0  0  0  0  0  0  0  0
  145.3292  131.6724  151.2807 C   0  0  0  0  0  0  0  0  0  0  0  0
  143.8110  132.4743  149.4319 C   0  0  0  0  0  0  0  0  0  0  0  0
  147.0293  134.3466  152.3870 N   0  0  0  0  0  0  0  0  0  0  0  0
  147.5206  133.4132  153.2163 C   0  0  0  0  0  0  0  0  0  0  0  0
  146.8080  132.6762  153.8993 O   0  0  0  0  0  0  0  0  0  0  0  0
  149.0495  133.2862  153.2608 C   0  0  0  0  0  0  0  0  0  0  0  0
  149.5497  132.8984  154.5875 N   0  0  0  0  0  0  0  0  0  0  0  0
  150.2624  133.8035  155.3611 C   0  0  0  0  0  0  0  0  0  0  0  0
  150.7640  133.5070  156.5834 C   0  0  0  0  0  0  0  0  0  0  0  0
  150.5715  132.1801  157.1588 C   0  0  0  0  0  0  0  0  0  0  0  0
  150.9864  131.8162  158.2568 O   0  0  0  0  0  0  0  0  0  0  0  0
  149.8508  131.2978  156.3499 N   0  0  0  0  0  0  0  0  0  0  0  0
  149.3318  131.5966  155.0892 C   0  0  0  0  0  0  0  0  0  0  0  0
  148.7128  130.7415  154.4567 O   0  0  0  0  0  0  0  0  0  0  0  0
  149.6940  130.3660  156.7056 H   0  0  0  0  0  0  0  0  0  0  0  0
  147.5281  138.7585  152.3452 H   0  0  0  0  0  0  0  0  0  0  0  0
  145.9765  138.7475  153.1890 H   0  0  0  0  0  0  0  0  0  0  0  0
  146.0240  138.8064  151.4185 H   0  0  0  0  0  0  0  0  0  0  0  0
  147.4006  136.4728  152.2128 H   0  0  0  0  0  0  0  0  0  0  0  0
  145.0162  134.1845  152.9909 H   0  0  0  0  0  0  0  0  0  0  0  0
  144.5319  134.9097  150.3402 H   0  0  0  0  0  0  0  0  0  0  0  0
  146.0438  134.0669  150.1708 H   0  0  0  0  0  0  0  0  0  0  0  0
  143.5874  132.8656  151.5234 H   0  0  0  0  0  0  0  0  0  0  0  0
  146.1768  131.5425  150.6068 H   0  0  0  0  0  0  0  0  0  0  0  0
  144.7922  130.7244  151.3270 H   0  0  0  0  0  0  0  0  0  0  0  0
  145.7238  131.8726  152.2772 H   0  0  0  0  0  0  0  0  0  0  0  0
  144.5813  132.4494  148.6603 H   0  0  0  0  0  0  0  0  0  0  0  0
  143.0588  133.2032  149.1313 H   0  0  0  0  0  0  0  0  0  0  0  0
  143.3228  131.4994  149.4434 H   0  0  0  0  0  0  0  0  0  0  0  0
  147.6854  134.9088  151.8648 H   0  0  0  0  0  0  0  0  0  0  0  0
  149.3495  132.5531  152.5106 H   0  0  0  0  0  0  0  0  0  0  0  0
  149.5120  134.2249  152.9476 H   0  0  0  0  0  0  0  0  0  0  0  0
  150.4334  134.7975  154.9733 H   0  0  0  0  0  0  0  0  0  0  0  0
  151.3116  134.2551  157.1380 H   0  0  0  0  0  0  0  0  0  0  0  0
  1  2  1  0  0  0  0
  1 23  1  0  0  0  0
  1 24  1  0  0  0  0
  1 25  1  0  0  0  0
  2  3  1  0  0  0  0
  2 26  1  0  0  0  0
  3  4  2  0  0  0  0
  3  5  1  0  0  0  0
  5  6  1  0  0  0  0
  5 10  1  0  0  0  0
  5 27  1  0  0  0  0
  6  7  1  0  0  0  0
  6 28  1  0  0  0  0
  6 29  1  0  0  0  0
  7  8  1  0  0  0  0
  7  9  1  0  0  0  0
  7 30  1  0  0  0  0
  8 31  1  0  0  0  0
  8 32  1  0  0  0  0
  8 33  1  0  0  0  0
  9 34  1  0  0  0  0
  9 35  1  0  0  0  0
  9 36  1  0  0  0  0
 10 11  1  0  0  0  0
 10 37  1  0  0  0  0
 11 12  2  0  0  0  0
 11 13  1  0  0  0  0
 13 14  1  0  0  0  0
 13 38  1  0  0  0  0
 13 39  1  0  0  0  0
 14 20  1  0  0  0  0
 14 15  1  0  0  0  0
 15 16  2  0  0  0  0
 15 40  1  0  0  0  0
 16 17  1  0  0  0  0
 16 41  1  0  0  0  0
 17 18  2  0  0  0  0
 17 19  1  0  0  0  0
 19 22  1  0  0  0  0
 19 20  1  0  0  0  0
 20 21  2  0  0  0  0
M  END
> <s_m_source_file>
AV-unprocessed.smi

> <i_m_source_file_index>
1575

> <i_lp_mmshare_version>
43012

> <i_f3d_flags>
0

> <s_epik_input>
W0NIM11bTkhdQyg9TylbQ0BIXShbQ0gyXVtDSF0oW0NIM10pW0NIM10pW05IXUMoPU8pW0NIMl1uMVtjSF1bY0hdYyg9TylbbkhdYzE9Tw==

> <s_epik_cmdline>
J2VwaWtfcHl0aG9uJywgJy1waCcsICc3LjAnLCAnLXRuJywgJzgnLCAnLW1hJywgJzIwMCcsICctbWV0YWxfYmluZGluZycsICctaW1hZScsICc8aW5maWxlLm1hZT4nLCAnLW9tYWUnLCAnPG91dGZpbGUubWFlPic=

> <r_lp_tautomer_probability>
0.999537

> <r_epik_Ionization_Penalty>
0.00357166

> <r_epik_Ionization_Penalty_Charging>
0.00357161

> <r_epik_Ionization_Penalty_Neutral>
5.44484e-08

> <r_epik_State_Penalty>
0.00253761

> <r_epik_Charging_Adjusted_Penalty>
0.00610921

> <i_epik_Tot_Q>
0

> <i_epik_Tot_abs_Q>
0

> <r_epik_Metal_State_Penalty>
0.368734

> <b_epik_Metal_Only>
0

> <s_lp_Force_Field>
OPLS_2005

> <r_lp_Energy>
5.11716

> <b_lp_Chiralities_Consistent>
1

> <s_lp_Variant>
AV-unprocessed.smi:1575-2

> <Gold.Version>
5.8.1

> <Gold.Id.Protein>
6NUR|6NUR_protein|mol2

> <Gold.PLP.Fitness>
42.7072

> <Gold.PLP.PLP>
-36.2827

> <Gold.PLP.part.hbond>
-3.0000

> <Gold.PLP.part.metal>
0.0000

> <Gold.PLP.part.buried>
-5.6901

> <Gold.PLP.part.nonpolar>
-28.6507

> <Gold.PLP.part.repulsive>
0.3777

> <Gold.PLP.ligand.clash>
0.0000

> <Gold.PLP.ligand.torsion>
1.3669

> <Gold.PLP.Chemscore.Hbond>
2.9920

> <Gold.PLP.Chemscore.CHOScore>
0.0000

> <Gold.PLP.Chemscore.Metal>
0.0000

> <Gold.Chemscore.Hbonds>
donor molecule, donor type, donor heavy atom, donor atom, acceptor molecule, acceptor atom, score
      L1  H     2    26       P1  7948  1.00
      L1  H    10    37       P1  7948  1.00
      P1  H  6896  6907       L1    18  0.99

> <Gold.PLP.Chemscore.Internal.Correction>
0.1823

> <Gold.Rescore>
     Score         DG    S(hbond)    S(metal)    S(lipo)     H(rot)  DE(clash)    DE(int)     intcor
     12.76     -14.53       2.68        0.00      62.17       2.81       0.29       1.49       ----

> <Gold.Chemscore.Fitness>
12.7608

> <Gold.Chemscore.DG>
-14.5347

> <Gold.Chemscore.ZeroCoef>
-5.4800

> <Gold.Chemscore.Hbond>
2.6848

> <Gold.Chemscore.Metal>
0.0000

> <Gold.Chemscore.Lipo>
62.1715

> <Gold.Chemscore.Internal_Hbond>
0.0000

> <Gold.Chemscore.DEClash>
0.2864

> <Gold.Chemscore.DEInternal>
1.4875

> <Gold.Chemscore.Rot>
2.8072

> <Gold.Chemscore.Internal.Correction>
   9.000000E+99

> <Gold.Chemscore.Hbonds>
donor molecule, donor type, donor heavy atom, donor atom, acceptor molecule, acceptor atom, score
      L1  H     2    26       P1  7948  0.98
      L1  H    10    37       P1  7948  0.62
      P1  H  6896  6907       L1    18  0.76

> <Gold.Chemscore.Hbond.Weighted>
-8.9671

> <Gold.Chemscore.Metal.Weighted>
-0.0000

> <Gold.Chemscore.Lipo.Weighted>
-7.2741

> <Gold.Chemscore.Internal_Hbond.Weighted>
0.0000

> <Gold.Chemscore.DEClash.Weighted>
0.2864

> <Gold.Chemscore.DEInternal.Weighted>
1.4875

> <Gold.Chemscore.Rot.Weighted>
7.1864

> <Gold.Chemscore.Internal.Correction.Weighted>
   9.000000E+99

> <Gold.Protein.RotatedTorsions>
[ 6907 6896 6895 6894 ] final  177.50 input  -60.11 | X-H torsion
[ 7974 7965 7964 7962 ] final   -0.68 input  175.53 | X-H torsion
[ 8008 7997 7996 7995 ] final   49.36 input   59.86 | X-H torsion
[ 10167 10162 10161 10158 ] final  175.00 input  -65.29 | X-H torsion
[ 10718 10713 10712 10709 ] final   46.95 input   66.30 | X-H torsion
[ 10763 10752 10751 10750 ] final  124.37 input  -60.55 | X-H torsion
[ 11005 11000 10999 10996 ] final    8.25 input  -57.11 | X-H torsion

> <Gold.Protein.ActiveResidues>
 VAL166  LYS551  ARG553  GLY616  TRP617  ASP618  TYR619  PRO620  LYS621  CYS622 
 ASP623  PHE694  ASN695  SER759  ASP760  ASP761  ALA762  ILE779  LEU786  VAL792 
 PHE793  MET794  SER795  GLU796  ALA797  LYS798  CYS799  TRP800  GLU811  SER814 

> <Gold.Protein.RotatedAtoms>
  151.7030  133.3311  159.3271 H   0  0  0  0  0  0  0  0  0  0  0  0  # atno 6907 bound_to 6896
  150.7727  134.6599  159.6343 H   0  0  0  0  0  0  0  0  0  0  0  0  # atno 6908 bound_to 6896
  152.3758  134.6668  160.0212 H   0  0  0  0  0  0  0  0  0  0  0  0  # atno 6909 bound_to 6896
  146.2425  140.1306  142.8338 H   0  0  0  0  0  0  0  0  0  0  0  0  # atno 7974 bound_to 7965
  155.4010  140.3438  155.4257 H   0  0  0  0  0  0  0  0  0  0  0  0  # atno 8008 bound_to 7997
  156.1504  140.1569  156.8812 H   0  0  0  0  0  0  0  0  0  0  0  0  # atno 8009 bound_to 7997
  154.5047  140.0805  156.7851 H   0  0  0  0  0  0  0  0  0  0  0  0  # atno 8010 bound_to 7997
  139.5162  144.3081  152.0317 H   0  0  0  0  0  0  0  0  0  0  0  0  # atno 10167 bound_to 10162
  157.4534  130.8152  149.7812 H   0  0  0  0  0  0  0  0  0  0  0  0  # atno 10718 bound_to 10713
  153.6603  135.3347  155.3125 H   0  0  0  0  0  0  0  0  0  0  0  0  # atno 10763 bound_to 10752
  154.8516  135.4362  154.1811 H   0  0  0  0  0  0  0  0  0  0  0  0  # atno 10764 bound_to 10752
  153.2776  135.7006  153.7493 H   0  0  0  0  0  0  0  0  0  0  0  0  # atno 10765 bound_to 10752
  140.5391  134.0392  155.7898 H   0  0  0  0  0  0  0  0  0  0  0  0  # atno 11005 bound_to 11000
  145.0330  140.8885  143.5098 LP  0  0  0  0  0  0  0  0  0  0  0  0  # atno 17320 bound_to 7965
  145.1373  139.2594  143.5508 LP  0  0  0  0  0  0  0  0  0  0  0  0  # atno 17321 bound_to 7965
  140.2527  144.4152  150.6216 LP  0  0  0  0  0  0  0  0  0  0  0  0  # atno 17342 bound_to 10162
  140.6213  143.2176  151.6687 LP  0  0  0  0  0  0  0  0  0  0  0  0  # atno 17343 bound_to 10162
  155.9997  130.3887  150.2655 LP  0  0  0  0  0  0  0  0  0  0  0  0  # atno 17370 bound_to 10713
  157.0828  131.0148  151.3150 LP  0  0  0  0  0  0  0  0  0  0  0  0  # atno 17371 bound_to 10713
  141.1237  133.9418  157.2677 LP  0  0  0  0  0  0  0  0  0  0  0  0  # atno 17394 bound_to 11000
  139.9513  135.0175  156.9003 LP  0  0  0  0  0  0  0  0  0  0  0  0  # atno 17395 bound_to 11000

$$$$
