AV-unprocessed.smi:1815|AV-procd|sdf|7358|dock7
  -GOLD-   22720 9 23D 1   1.00000     0.00000
 Structure written by MMmdl.
 38 39  0  0  0  0  0  0  0  0  2 V2000
  147.1655  141.9844  153.9305 C   0  0  0  0  0  0  0  0  0  0  0  0
  147.6763  141.3018  155.2034 C   0  0  1  0  0  0  0  0  0  0  0  0
  149.2072  141.1337  155.1998 C   0  0  0  0  0  0  0  0  0  0  0  0
  149.6966  140.5515  156.4440 N   0  0  0  0  0  0  0  0  0  0  0  0
  151.1499  140.3936  156.4101 C   0  0  0  0  0  0  0  0  0  0  0  0
  151.7459  139.5970  157.5816 C   0  0  0  0  0  0  0  0  0  0  0  0
  151.9083  140.4579  158.7449 N   0  0  0  0  0  0  0  0  0  0  0  0
  153.0578  140.6581  159.4033 C   0  0  0  0  0  0  0  0  0  0  0  0
  154.0862  140.0895  159.0291 O   0  0  0  0  0  0  0  0  0  0  0  0
  152.9443  141.5030  160.4537 N   0  5  0  0  0  0  0  0  0  0  0  0
  152.4964  142.7549  160.2647 C   0  0  0  0  0  0  0  0  0  0  0  0
  152.4357  143.3326  159.0595 N   0  0  0  0  0  0  0  0  0  0  0  0
  151.9322  144.6341  159.0917 C   0  0  0  0  0  0  0  0  0  0  0  0
  151.5927  145.0545  160.3500 C   0  0  0  0  0  0  0  0  0  0  0  0
  151.8968  143.8205  161.5392 S   0  0  0  0  0  0  0  0  0  0  0  0
  149.2472  141.3785  157.5613 C   0  0  0  0  0  0  0  0  0  0  0  0
  147.7162  141.5537  157.5699 C   0  0  1  0  0  0  0  0  0  0  0  0
  147.2458  142.4917  158.6867 C   0  0  0  0  0  0  0  0  0  0  0  0
  147.2995  142.1004  156.3216 O   0  0  0  0  0  0  0  0  0  0  0  0
  147.4249  141.4051  153.0442 H   0  0  0  0  0  0  0  0  0  0  0  0
  147.5945  142.9806  153.8177 H   0  0  0  0  0  0  0  0  0  0  0  0
  146.0807  142.0894  153.9536 H   0  0  0  0  0  0  0  0  0  0  0  0
  147.2015  140.3229  155.2912 H   0  0  0  0  0  0  0  0  0  0  0  0
  149.4982  140.5025  154.3594 H   0  0  0  0  0  0  0  0  0  0  0  0
  149.6785  142.1046  155.0371 H   0  0  0  0  0  0  0  0  0  0  0  0
  151.4231  139.8762  155.4892 H   0  0  0  0  0  0  0  0  0  0  0  0
  151.6258  141.3741  156.3543 H   0  0  0  0  0  0  0  0  0  0  0  0
  151.1012  138.7625  157.8582 H   0  0  0  0  0  0  0  0  0  0  0  0
  152.7140  139.1824  157.2960 H   0  0  0  0  0  0  0  0  0  0  0  0
  151.0877  140.9415  159.0787 H   0  0  0  0  0  0  0  0  0  0  0  0
  151.8492  145.1892  158.1691 H   0  0  0  0  0  0  0  0  0  0  0  0
  151.1843  146.0078  160.6487 H   0  0  0  0  0  0  0  0  0  0  0  0
  149.5506  140.9315  158.5071 H   0  0  0  0  0  0  0  0  0  0  0  0
  149.7257  142.3579  157.5099 H   0  0  0  0  0  0  0  0  0  0  0  0
  147.2395  140.5814  157.7055 H   0  0  0  0  0  0  0  0  0  0  0  0
  147.5307  142.1089  159.6668 H   0  0  0  0  0  0  0  0  0  0  0  0
  146.1609  142.5988  158.6743 H   0  0  0  0  0  0  0  0  0  0  0  0
  147.6794  143.4859  158.5758 H   0  0  0  0  0  0  0  0  0  0  0  0
  1  2  1  0  0  0  0
  1 20  1  0  0  0  0
  1 21  1  0  0  0  0
  1 22  1  0  0  0  0
  2 19  1  0  0  0  0
  2  3  1  0  0  0  0
  2 23  1  0  0  0  0
  3  4  1  0  0  0  0
  3 24  1  0  0  0  0
  3 25  1  0  0  0  0
  4  5  1  0  0  0  0
  4 16  1  0  0  0  0
  5  6  1  0  0  0  0
  5 26  1  0  0  0  0
  5 27  1  0  0  0  0
  6  7  1  0  0  0  0
  6 28  1  0  0  0  0
  6 29  1  0  0  0  0
  7  8  1  0  0  0  0
  7 30  1  0  0  0  0
  8  9  2  0  0  0  0
  8 10  1  0  0  0  0
 10 11  1  0  0  0  0
 11 15  1  0  0  0  0
 11 12  2  0  0  0  0
 12 13  1  0  0  0  0
 13 14  2  0  0  0  0
 13 31  1  0  0  0  0
 14 15  1  0  0  0  0
 14 32  1  0  0  0  0
 16 17  1  0  0  0  0
 16 33  1  0  0  0  0
 16 34  1  0  0  0  0
 17 18  1  0  0  0  0
 17 19  1  0  0  0  0
 17 35  1  0  0  0  0
 18 36  1  0  0  0  0
 18 37  1  0  0  0  0
 18 38  1  0  0  0  0
M  CHG  1  10  -1
M  END
> <s_m_source_file>
AV-unprocessed.smi

> <i_m_source_file_index>
1815

> <i_lp_mmshare_version>
43012

> <i_f3d_flags>
0

> <s_epik_input>
W0NIM11bQ0BASF0xW0NIMl1OKFtDSDJdW0NASF0oTzEpW0NIM10pW0NIMl1bQ0gyXVtOSF1DKD1PKVtOSF1jMm5bY0hdW2NIXXMy

> <s_epik_cmdline>
J2VwaWtfcHl0aG9uJywgJy1waCcsICc3LjAnLCAnLXRuJywgJzgnLCAnLW1hJywgJzIwMCcsICctbWV0YWxfYmluZGluZycsICctaW1hZScsICc8aW5maWxlLm1hZT4nLCAnLW9tYWUnLCAnPG91dGZpbGUubWFlPic=

> <r_lp_tautomer_probability>
0.999

> <r_epik_Ionization_Penalty>
7.22374

> <r_epik_Ionization_Penalty_Charging>
5.82415

> <r_epik_Ionization_Penalty_Neutral>
1.39959

> <r_epik_State_Penalty>
6.03347

> <r_epik_Charging_Adjusted_Penalty>
11.8576

> <i_epik_Tot_Q>
-1

> <i_epik_Tot_abs_Q>
1

> <r_epik_Metal_State_Penalty>
2.01024

> <b_epik_Metal_Only>
1

> <s_lp_Force_Field>
OPLS_2005

> <r_lp_Energy>
15.5459

> <b_lp_Chiralities_Consistent>
1

> <s_lp_Variant>
AV-unprocessed.smi:1815-9

> <Gold.Version>
5.8.1

> <Gold.Id.Protein>
6NUR|6NUR_protein|mol2

> <Gold.PLP.Fitness>
38.8081

> <Gold.PLP.PLP>
-37.3128

> <Gold.PLP.part.hbond>
-1.0000

> <Gold.PLP.part.metal>
0.0000

> <Gold.PLP.part.buried>
-7.5819

> <Gold.PLP.part.nonpolar>
-30.2119

> <Gold.PLP.part.repulsive>
1.8583

> <Gold.PLP.ligand.clash>
0.0000

> <Gold.PLP.ligand.torsion>
0.7525

> <Gold.PLP.Chemscore.Hbond>
0.9920

> <Gold.PLP.Chemscore.CHOScore>
0.0000

> <Gold.PLP.Chemscore.Metal>
0.0000

> <Gold.Chemscore.Hbonds>
donor molecule, donor type, donor heavy atom, donor atom, acceptor molecule, acceptor atom, score
      P1  H  7997  8010       L1     9  0.99

> <Gold.PLP.Chemscore.Internal.Correction>
0.0244

> <Gold.Rescore>
     Score         DG    S(hbond)    S(metal)    S(lipo)     H(rot)  DE(clash)    DE(int)     intcor
     11.21     -13.28       0.99        0.00      72.77       1.57       0.02       2.05       ----

> <Gold.Chemscore.Fitness>
11.2078

> <Gold.Chemscore.DG>
-13.2837

> <Gold.Chemscore.ZeroCoef>
-5.4800

> <Gold.Chemscore.Hbond>
0.9887

> <Gold.Chemscore.Metal>
0.0000

> <Gold.Chemscore.Lipo>
72.7727

> <Gold.Chemscore.Internal_Hbond>
0.0000

> <Gold.Chemscore.DEClash>
0.0234

> <Gold.Chemscore.DEInternal>
2.0525

> <Gold.Chemscore.Rot>
1.5676

> <Gold.Chemscore.Internal.Correction>
   9.000000E+99

> <Gold.Chemscore.Hbonds>
donor molecule, donor type, donor heavy atom, donor atom, acceptor molecule, acceptor atom, score
      P1  H  7997  8010       L1     9  0.94

> <Gold.Chemscore.Hbond.Weighted>
-3.3023

> <Gold.Chemscore.Metal.Weighted>
-0.0000

> <Gold.Chemscore.Lipo.Weighted>
-8.5144

> <Gold.Chemscore.Internal_Hbond.Weighted>
0.0000

> <Gold.Chemscore.DEClash.Weighted>
0.0234

> <Gold.Chemscore.DEInternal.Weighted>
2.0525

> <Gold.Chemscore.Rot.Weighted>
4.0130

> <Gold.Chemscore.Internal.Correction.Weighted>
   9.000000E+99

> <Gold.Protein.RotatedTorsions>
[ 6907 6896 6895 6894 ] final  -47.73 input  -60.11 | X-H torsion
[ 7974 7965 7964 7962 ] final  174.29 input  175.53 | X-H torsion
[ 8008 7997 7996 7995 ] final   11.62 input   59.86 | X-H torsion
[ 10167 10162 10161 10158 ] final -136.38 input  -65.29 | X-H torsion
[ 10718 10713 10712 10709 ] final   81.25 input   66.30 | X-H torsion
[ 10763 10752 10751 10750 ] final  -96.79 input  -60.55 | X-H torsion
[ 11005 11000 10999 10996 ] final -110.86 input  -57.11 | X-H torsion

> <Gold.Protein.ActiveResidues>
 VAL166  LYS551  ARG553  GLY616  TRP617  ASP618  TYR619  PRO620  LYS621  CYS622 
 ASP623  PHE694  ASN695  SER759  ASP760  ASP761  ALA762  ILE779  LEU786  VAL792 
 PHE793  MET794  SER795  GLU796  ALA797  LYS798  CYS799  TRP800  GLU811  SER814 

> <Gold.Protein.RotatedAtoms>
  150.8978  134.8387  159.7338 H   0  0  0  0  0  0  0  0  0  0  0  0  # atno 6907 bound_to 6896
  152.4875  134.4549  159.9596 H   0  0  0  0  0  0  0  0  0  0  0  0  # atno 6908 bound_to 6896
  151.4605  133.3555  159.2843 H   0  0  0  0  0  0  0  0  0  0  0  0  # atno 6909 bound_to 6896
  144.7225  139.9775  143.6438 H   0  0  0  0  0  0  0  0  0  0  0  0  # atno 7974 bound_to 7965
  154.8095  140.2865  155.5863 H   0  0  0  0  0  0  0  0  0  0  0  0  # atno 8008 bound_to 7997
  156.2986  140.2571  156.2910 H   0  0  0  0  0  0  0  0  0  0  0  0  # atno 8009 bound_to 7997
  154.9464  140.0380  157.2112 H   0  0  0  0  0  0  0  0  0  0  0  0  # atno 8010 bound_to 7997
  139.8684  143.6988  152.2642 H   0  0  0  0  0  0  0  0  0  0  0  0  # atno 10167 bound_to 10162
  157.6828  130.9995  150.2198 H   0  0  0  0  0  0  0  0  0  0  0  0  # atno 10718 bound_to 10713
  154.7271  135.5070  153.8904 H   0  0  0  0  0  0  0  0  0  0  0  0  # atno 10763 bound_to 10752
  153.0915  135.6660  153.9854 H   0  0  0  0  0  0  0  0  0  0  0  0  # atno 10764 bound_to 10752
  153.9664  135.3043  155.3409 H   0  0  0  0  0  0  0  0  0  0  0  0  # atno 10765 bound_to 10752
  141.0768  133.9288  157.2373 H   0  0  0  0  0  0  0  0  0  0  0  0  # atno 11005 bound_to 11000
  146.0514  139.3514  143.0637 LP  0  0  0  0  0  0  0  0  0  0  0  0  # atno 17320 bound_to 7965
  145.8210  140.9679  143.0899 LP  0  0  0  0  0  0  0  0  0  0  0  0  # atno 17321 bound_to 7965
  139.7307  144.7583  151.0806 LP  0  0  0  0  0  0  0  0  0  0  0  0  # atno 17342 bound_to 10162
  140.7764  143.5092  150.9674 LP  0  0  0  0  0  0  0  0  0  0  0  0  # atno 17343 bound_to 10162
  156.2852  130.3738  149.7895 LP  0  0  0  0  0  0  0  0  0  0  0  0  # atno 17370 bound_to 10713
  156.5572  130.8367  151.3317 LP  0  0  0  0  0  0  0  0  0  0  0  0  # atno 17371 bound_to 10713
  139.9580  135.0161  156.9183 LP  0  0  0  0  0  0  0  0  0  0  0  0  # atno 17394 bound_to 11000
  140.5556  134.0584  155.7382 LP  0  0  0  0  0  0  0  0  0  0  0  0  # atno 17395 bound_to 11000

$$$$
