AV-unprocessed.smi:35|AV-procd|sdf|275|dock6
  -GOLD-   2262016 43D 1   1.00000     0.00000
 Structure written by MMmdl.
 28 29  0  0  0  0  0  0  0  0  2 V2000
  152.9631  140.9047  158.7350 O   0  0  0  0  0  0  0  0  0  0  0  0
  152.2116  140.9014  157.7617 C   0  0  0  0  0  0  0  0  0  0  0  0
  152.3621  140.0413  156.7131 N   0  5  0  0  0  0  0  0  0  0  0  0
  151.5251  140.0417  155.6342 C   0  0  0  0  0  0  0  0  0  0  0  0
  151.6419  139.2594  154.6906 O   0  0  0  0  0  0  0  0  0  0  0  0
  150.4550  140.9771  155.5920 N   0  0  0  0  0  0  0  0  0  0  0  0
  149.5324  140.9777  154.3866 C   0  0  2  0  0  0  0  0  0  0  0  0
  148.5960  142.0109  154.5109 O   0  0  0  0  0  0  0  0  0  0  0  0
  147.3087  141.4748  154.8036 C   0  0  1  0  0  0  0  0  0  0  0  0
  146.2195  142.4668  154.3679 C   0  0  0  0  0  0  0  0  0  0  0  0
  144.9434  141.9669  154.7063 O   0  0  0  0  0  0  0  0  0  0  0  0
  147.3256  140.1837  153.9867 C   0  0  2  0  0  0  0  0  0  0  0  0
  146.3107  139.2707  154.3619 O   0  0  0  0  0  0  0  0  0  0  0  0
  148.7381  139.6590  154.2243 C   0  0  2  0  0  0  0  0  0  0  0  0
  148.8050  138.8084  155.3595 O   0  0  0  0  0  0  0  0  0  0  0  0
  150.2752  141.8604  156.6442 C   0  0  0  0  0  0  0  0  0  0  0  0
  151.1036  141.8516  157.7080 C   0  0  0  0  0  0  0  0  0  0  0  0
  150.7271  143.1689  159.1398 Br  0  0  0  0  0  0  0  0  0  0  0  0
  150.1675  141.2109  153.5303 H   0  0  0  0  0  0  0  0  0  0  0  0
  147.2295  141.2381  155.8664 H   0  0  0  0  0  0  0  0  0  0  0  0
  146.3744  143.4493  154.8149 H   0  0  0  0  0  0  0  0  0  0  0  0
  146.2421  142.5966  153.2855 H   0  0  0  0  0  0  0  0  0  0  0  0
  144.6314  141.4321  153.9924 H   0  0  0  0  0  0  0  0  0  0  0  0
  147.2094  140.4223  152.9283 H   0  0  0  0  0  0  0  0  0  0  0  0
  146.3212  139.1842  155.3027 H   0  0  0  0  0  0  0  0  0  0  0  0
  149.1135  139.1110  153.3594 H   0  0  0  0  0  0  0  0  0  0  0  0
  147.9910  138.8848  155.8343 H   0  0  0  0  0  0  0  0  0  0  0  0
  149.4641  142.5718  156.6288 H   0  0  0  0  0  0  0  0  0  0  0  0
  1  2  2  0  0  0  0
  2 17  1  0  0  0  0
  2  3  1  0  0  0  0
  3  4  1  0  0  0  0
  4  5  2  0  0  0  0
  4  6  1  0  0  0  0
  6  7  1  0  0  0  0
  6 16  1  0  0  0  0
  7 14  1  0  0  0  0
  7  8  1  0  0  0  0
  7 19  1  0  0  0  0
  8  9  1  0  0  0  0
  9 10  1  0  0  0  0
  9 12  1  0  0  0  0
  9 20  1  0  0  0  0
 10 11  1  0  0  0  0
 10 21  1  0  0  0  0
 10 22  1  0  0  0  0
 11 23  1  0  0  0  0
 12 13  1  0  0  0  0
 12 14  1  0  0  0  0
 12 24  1  0  0  0  0
 13 25  1  0  0  0  0
 14 15  1  0  0  0  0
 14 26  1  0  0  0  0
 15 27  1  0  0  0  0
 16 17  2  0  0  0  0
 16 28  1  0  0  0  0
 17 18  1  0  0  0  0
M  CHG  1   3  -1
M  END
> <s_m_source_file>
AV-unprocessed.smi

> <i_m_source_file_index>
35

> <i_lp_mmshare_version>
43012

> <i_f3d_flags>
0

> <s_epik_input>
Tz1jMVtuSF1jKD1PKW4oW2NIXWMxQnIpW0NAQEhdMk9bQ0BASF0oW0NIMl1bT0hdKVtDQEBIXShbT0hdKVtDQEhdMltPSF0=

> <s_epik_cmdline>
J2VwaWtfcHl0aG9uJywgJy1waCcsICc3LjAnLCAnLXRuJywgJzgnLCAnLW1hJywgJzIwMCcsICctbWV0YWxfYmluZGluZycsICctaW1hZScsICc8aW5maWxlLm1hZT4nLCAnLW9tYWUnLCAnPG91dGZpbGUubWFlPic=

> <r_epik_Ionization_Penalty>
1.06112

> <r_epik_Ionization_Penalty_Charging>
2.1796e-09

> <r_epik_Ionization_Penalty_Neutral>
1.06112

> <r_epik_State_Penalty>
1.11484

> <r_epik_Charging_Adjusted_Penalty>
1.11484

> <i_epik_Tot_Q>
-1

> <i_epik_Tot_abs_Q>
1

> <r_epik_Metal_State_Penalty>
0.0032876

> <b_epik_Metal_Only>
0

> <s_epik_Chemistry_Notes>
This compound contains an acetal/aminal-like group ( X-CH(R)-Y where X, Y are N, S, or O) that may be acid/base labile, releasing an aldehyde.

> <s_lp_Force_Field>
OPLS_2005

> <r_lp_Energy>
47.3884

> <b_lp_Chiralities_Consistent>
1

> <s_lp_Variant>
AV-unprocessed.smi:35-29

> <Gold.Version>
5.8.1

> <Gold.Id.Protein>
6NUR|6NUR_protein|mol2

> <Gold.PLP.Fitness>
40.5445

> <Gold.PLP.PLP>
-27.4035

> <Gold.PLP.part.hbond>
-3.8740

> <Gold.PLP.part.metal>
0.0000

> <Gold.PLP.part.buried>
-1.6695

> <Gold.PLP.part.nonpolar>
-23.0609

> <Gold.PLP.part.repulsive>
1.4225

> <Gold.PLP.ligand.clash>
0.0262

> <Gold.PLP.ligand.torsion>
0.0461

> <Gold.PLP.Chemscore.Hbond>
3.4000

> <Gold.PLP.Chemscore.CHOScore>
1.0000

> <Gold.PLP.Chemscore.Metal>
0.0000

> <Gold.Chemscore.Hbonds>
donor molecule, donor type, donor heavy atom, donor atom, acceptor molecule, acceptor atom, score
      L1  H    11    23       P1 10175  1.00
      P1  H  7989  7998       L1     5  0.40
      P1  H  7997  8008       L1     3  2.00
      L1  C    16    28       P1  8028  1.00

> <Gold.PLP.Chemscore.Internal.Correction>
0.0595

> <Gold.Rescore>
     Score         DG    S(hbond)    S(metal)    S(lipo)     H(rot)  DE(clash)    DE(int)     intcor
      4.47      -6.61       1.75        0.00      38.99       3.63       0.25       1.89       ----

> <Gold.Chemscore.Fitness>
4.4741

> <Gold.Chemscore.DG>
-6.6089

> <Gold.Chemscore.ZeroCoef>
-5.4800

> <Gold.Chemscore.Hbond>
1.7514

> <Gold.Chemscore.Metal>
0.0000

> <Gold.Chemscore.Lipo>
38.9921

> <Gold.Chemscore.Internal_Hbond>
0.0000

> <Gold.Chemscore.DEClash>
0.2497

> <Gold.Chemscore.DEInternal>
1.8851

> <Gold.Chemscore.Rot>
3.6261

> <Gold.Chemscore.Internal.Correction>
   9.000000E+99

> <Gold.Chemscore.Hbonds>
donor molecule, donor type, donor heavy atom, donor atom, acceptor molecule, acceptor atom, score
      L1  H    11    23       P1 10175  0.33
      P1  H  7989  7998       L1     5  0.01
      P1  H  7997  8008       L1     3  0.34

> <Gold.Chemscore.Hbond.Weighted>
-5.8496

> <Gold.Chemscore.Metal.Weighted>
-0.0000

> <Gold.Chemscore.Lipo.Weighted>
-4.5621

> <Gold.Chemscore.Internal_Hbond.Weighted>
0.0000

> <Gold.Chemscore.DEClash.Weighted>
0.2497

> <Gold.Chemscore.DEInternal.Weighted>
1.8851

> <Gold.Chemscore.Rot.Weighted>
9.2828

> <Gold.Chemscore.Internal.Correction.Weighted>
   9.000000E+99

> <Gold.Protein.RotatedTorsions>
[ 6907 6896 6895 6894 ] final -151.19 input  -60.11 | X-H torsion
[ 7974 7965 7964 7962 ] final  -91.87 input  175.53 | X-H torsion
[ 8008 7997 7996 7995 ] final  -40.09 input   59.86 | X-H torsion
[ 10167 10162 10161 10158 ] final  -10.47 input  -65.29 | X-H torsion
[ 10718 10713 10712 10709 ] final  119.77 input   66.30 | X-H torsion
[ 10763 10752 10751 10750 ] final  -51.50 input  -60.55 | X-H torsion
[ 11005 11000 10999 10996 ] final  -85.70 input  -57.11 | X-H torsion

> <Gold.Protein.ActiveResidues>
 VAL166  LYS551  ARG553  GLY616  TRP617  ASP618  TYR619  PRO620  LYS621  CYS622 
 ASP623  PHE694  ASN695  SER759  ASP760  ASP761  ALA762  ILE779  LEU786  VAL792 
 PHE793  MET794  SER795  GLU796  ALA797  LYS798  CYS799  TRP800  GLU811  SER814 

> <Gold.Protein.RotatedAtoms>
  151.2095  133.4564  159.2597 H   0  0  0  0  0  0  0  0  0  0  0  0  # atno 6907 bound_to 6896
  151.0990  134.9961  159.8450 H   0  0  0  0  0  0  0  0  0  0  0  0  # atno 6908 bound_to 6896
  152.5441  134.2023  159.8770 H   0  0  0  0  0  0  0  0  0  0  0  0  # atno 6909 bound_to 6896
  145.4074  140.9542  143.2253 H   0  0  0  0  0  0  0  0  0  0  0  0  # atno 7974 bound_to 7965
  154.4016  140.1534  156.2969 H   0  0  0  0  0  0  0  0  0  0  0  0  # atno 8008 bound_to 7997
  155.8735  140.3447  155.5816 H   0  0  0  0  0  0  0  0  0  0  0  0  # atno 8009 bound_to 7997
  155.7748  140.0835  157.2080 H   0  0  0  0  0  0  0  0  0  0  0  0  # atno 8010 bound_to 7997
  140.7114  143.5744  150.9058 H   0  0  0  0  0  0  0  0  0  0  0  0  # atno 10167 bound_to 10162
  157.5938  131.1060  150.7942 H   0  0  0  0  0  0  0  0  0  0  0  0  # atno 10718 bound_to 10713
  154.1276  135.6525  153.4915 H   0  0  0  0  0  0  0  0  0  0  0  0  # atno 10763 bound_to 10752
  153.0205  135.5285  154.7034 H   0  0  0  0  0  0  0  0  0  0  0  0  # atno 10764 bound_to 10752
  154.6259  135.2970  155.0242 H   0  0  0  0  0  0  0  0  0  0  0  0  # atno 10765 bound_to 10752
  141.1638  133.7414  156.9054 H   0  0  0  0  0  0  0  0  0  0  0  0  # atno 11005 bound_to 11000
  144.8332  139.5593  143.6934 LP  0  0  0  0  0  0  0  0  0  0  0  0  # atno 17320 bound_to 7965
  146.2722  139.6663  142.9288 LP  0  0  0  0  0  0  0  0  0  0  0  0  # atno 17321 bound_to 7965
  139.9470  143.6315  152.3039 LP  0  0  0  0  0  0  0  0  0  0  0  0  # atno 17342 bound_to 10162
  139.6821  144.7654  151.1590 LP  0  0  0  0  0  0  0  0  0  0  0  0  # atno 17343 bound_to 10162
  156.8357  130.5031  149.5326 LP  0  0  0  0  0  0  0  0  0  0  0  0  # atno 17370 bound_to 10713
  156.0997  130.5960  150.9874 LP  0  0  0  0  0  0  0  0  0  0  0  0  # atno 17371 bound_to 10713
  140.1554  134.9202  157.2646 LP  0  0  0  0  0  0  0  0  0  0  0  0  # atno 17394 bound_to 11000
  140.2674  134.3500  155.7385 LP  0  0  0  0  0  0  0  0  0  0  0  0  # atno 17395 bound_to 11000

$$$$
