AV-unprocessed.smi:981|AV-procd|sdf|4313|dock10
  -GOLD-   22720 2223D 1   1.00000     0.00000
 Structure written by MMmdl.
 36 37  0  0  0  0  0  0  0  0  1 V2000
  142.9928  142.8276  155.6448 C   0  0  0  0  0  0  0  0  0  0  0  0
  144.3577  143.1936  156.2457 C   0  0  0  0  0  0  0  0  0  0  0  0
  144.4158  144.6327  156.7785 C   0  0  0  0  0  0  0  0  0  0  0  0
  145.4847  142.8944  155.3076 C   0  0  0  0  0  0  0  0  0  0  0  0
  146.4640  142.0252  155.5760 N   0  0  0  0  0  0  0  0  0  0  0  0
  147.3968  141.9241  154.5393 C   0  0  0  0  0  0  0  0  0  0  0  0
  148.5672  140.9981  154.6738 C   0  0  0  0  0  0  0  0  0  0  0  0
  149.1585  141.0112  156.0901 C   0  0  0  0  0  0  0  0  0  0  0  0
  149.7452  142.3099  156.3890 N   0  0  0  0  0  0  0  0  0  0  0  0
  150.8346  142.4952  157.1512 C   0  0  0  0  0  0  0  0  0  0  0  0
  151.4447  141.5734  157.6900 O   0  0  0  0  0  0  0  0  0  0  0  0
  151.2099  143.7779  157.3050 N   0  0  0  0  0  0  0  0  0  0  0  0
  152.3190  144.2924  158.0520 C   0  0  0  0  0  0  0  0  0  0  0  0
  152.4409  143.8576  159.4967 C   0  0  0  0  0  0  0  0  0  0  0  0
  152.0242  145.2656  159.1731 C   0  0  0  0  0  0  0  0  0  0  0  0
  147.1087  142.7364  153.4714 C   0  0  0  0  0  0  0  0  0  0  0  0
  145.6532  143.6579  153.7301 S   0  0  0  0  0  0  0  0  0  0  0  0
  142.9620  141.7774  155.3533 H   0  0  0  0  0  0  0  0  0  0  0  0
  142.7757  143.4257  154.7592 H   0  0  0  0  0  0  0  0  0  0  0  0
  142.1901  142.9944  156.3634 H   0  0  0  0  0  0  0  0  0  0  0  0
  144.4967  142.5418  157.1091 H   0  0  0  0  0  0  0  0  0  0  0  0
  145.3686  144.8305  157.2704 H   0  0  0  0  0  0  0  0  0  0  0  0
  143.6244  144.8147  157.5060 H   0  0  0  0  0  0  0  0  0  0  0  0
  144.2996  145.3587  155.9730 H   0  0  0  0  0  0  0  0  0  0  0  0
  148.2663  139.9822  154.4137 H   0  0  0  0  0  0  0  0  0  0  0  0
  149.3410  141.2731  153.9556 H   0  0  0  0  0  0  0  0  0  0  0  0
  148.3807  140.7862  156.8219 H   0  0  0  0  0  0  0  0  0  0  0  0
  149.9254  140.2408  156.1857 H   0  0  0  0  0  0  0  0  0  0  0  0
  149.2980  143.1214  155.9879 H   0  0  0  0  0  0  0  0  0  0  0  0
  150.6181  144.4713  156.8705 H   0  0  0  0  0  0  0  0  0  0  0  0
  153.2658  144.4300  157.5323 H   0  0  0  0  0  0  0  0  0  0  0  0
  151.6803  143.1885  159.8949 H   0  0  0  0  0  0  0  0  0  0  0  0
  153.4435  143.7096  159.8925 H   0  0  0  0  0  0  0  0  0  0  0  0
  152.7483  146.0577  159.3526 H   0  0  0  0  0  0  0  0  0  0  0  0
  150.9851  145.5360  159.3518 H   0  0  0  0  0  0  0  0  0  0  0  0
  147.6636  142.8494  152.5520 H   0  0  0  0  0  0  0  0  0  0  0  0
  1  2  1  0  0  0  0
  1 18  1  0  0  0  0
  1 19  1  0  0  0  0
  1 20  1  0  0  0  0
  2  3  1  0  0  0  0
  2  4  1  0  0  0  0
  2 21  1  0  0  0  0
  3 22  1  0  0  0  0
  3 23  1  0  0  0  0
  3 24  1  0  0  0  0
  4 17  1  0  0  0  0
  4  5  2  0  0  0  0
  5  6  1  0  0  0  0
  6  7  1  0  0  0  0
  6 16  2  0  0  0  0
  7  8  1  0  0  0  0
  7 25  1  0  0  0  0
  7 26  1  0  0  0  0
  8  9  1  0  0  0  0
  8 27  1  0  0  0  0
  8 28  1  0  0  0  0
  9 10  1  0  0  0  0
  9 29  1  0  0  0  0
 10 11  2  0  0  0  0
 10 12  1  0  0  0  0
 12 13  1  0  0  0  0
 12 30  1  0  0  0  0
 13 15  1  0  0  0  0
 13 14  1  0  0  0  0
 13 31  1  0  0  0  0
 14 15  1  0  0  0  0
 14 32  1  0  0  0  0
 14 33  1  0  0  0  0
 15 34  1  0  0  0  0
 15 35  1  0  0  0  0
 16 17  1  0  0  0  0
 16 36  1  0  0  0  0
M  END
> <s_m_source_file>
AV-unprocessed.smi

> <i_m_source_file_index>
981

> <i_lp_mmshare_version>
43012

> <i_f3d_flags>
0

> <s_epik_input>
W0NIM11bQ0hdKFtDSDNdKWMxbmMoW2NIXXMxKVtDSDJdW0NIMl1bTkhdQyg9TylbTkhdW0NIXTJbQ0gyXVtDSDJdMg==

> <s_epik_cmdline>
J2VwaWtfcHl0aG9uJywgJy1waCcsICc3LjAnLCAnLXRuJywgJzgnLCAnLW1hJywgJzIwMCcsICctbWV0YWxfYmluZGluZycsICctaW1hZScsICc8aW5maWxlLm1hZT4nLCAnLW9tYWUnLCAnPG91dGZpbGUubWFlPic=

> <r_epik_Ionization_Penalty>
0.00156572

> <r_epik_Ionization_Penalty_Charging>
0

> <r_epik_Ionization_Penalty_Neutral>
0.00156572

> <r_epik_State_Penalty>
0.0010059

> <r_epik_Charging_Adjusted_Penalty>
0.0010059

> <i_epik_Tot_Q>
0

> <i_epik_Tot_abs_Q>
0

> <r_epik_Metal_State_Penalty>
-0

> <b_epik_Metal_Only>
0

> <s_lp_Force_Field>
OPLS_2005

> <r_lp_Energy>
12.4684

> <b_lp_Chiralities_Consistent>
1

> <s_lp_Variant>
AV-unprocessed.smi:981-1

> <Gold.Version>
5.8.1

> <Gold.Id.Protein>
6NUR|6NUR_protein|mol2

> <Gold.PLP.Fitness>
40.8364

> <Gold.PLP.PLP>
-36.1239

> <Gold.PLP.part.hbond>
-2.0000

> <Gold.PLP.part.metal>
0.0000

> <Gold.PLP.part.buried>
-6.0577

> <Gold.PLP.part.nonpolar>
-29.2458

> <Gold.PLP.part.repulsive>
0.2113

> <Gold.PLP.ligand.clash>
0.0000

> <Gold.PLP.ligand.torsion>
0.5469

> <Gold.PLP.Chemscore.Hbond>
1.8960

> <Gold.PLP.Chemscore.CHOScore>
0.0000

> <Gold.PLP.Chemscore.Metal>
0.0000

> <Gold.Chemscore.Hbonds>
donor molecule, donor type, donor heavy atom, donor atom, acceptor molecule, acceptor atom, score
      L1  H     9    29       P1  8028  1.00
      L1  H    12    30       P1  8028  0.76

> <Gold.PLP.Chemscore.Internal.Correction>
0.1184

> <Gold.Rescore>
     Score         DG    S(hbond)    S(metal)    S(lipo)     H(rot)  DE(clash)    DE(int)     intcor
     16.09     -16.62       1.89        0.00      78.61       1.70       0.10       0.43       ----

> <Gold.Chemscore.Fitness>
16.0928

> <Gold.Chemscore.DG>
-16.6161

> <Gold.Chemscore.ZeroCoef>
-5.4800

> <Gold.Chemscore.Hbond>
1.8870

> <Gold.Chemscore.Metal>
0.0000

> <Gold.Chemscore.Lipo>
78.6085

> <Gold.Chemscore.Internal_Hbond>
0.0000

> <Gold.Chemscore.DEClash>
0.0975

> <Gold.Chemscore.DEInternal>
0.4258

> <Gold.Chemscore.Rot>
1.7045

> <Gold.Chemscore.Internal.Correction>
   9.000000E+99

> <Gold.Chemscore.Hbonds>
donor molecule, donor type, donor heavy atom, donor atom, acceptor molecule, acceptor atom, score
      L1  H     9    29       P1  8028  1.00
      L1  H    12    30       P1  8028  0.68

> <Gold.Chemscore.Hbond.Weighted>
-6.3025

> <Gold.Chemscore.Metal.Weighted>
-0.0000

> <Gold.Chemscore.Lipo.Weighted>
-9.1972

> <Gold.Chemscore.Internal_Hbond.Weighted>
0.0000

> <Gold.Chemscore.DEClash.Weighted>
0.0975

> <Gold.Chemscore.DEInternal.Weighted>
0.4258

> <Gold.Chemscore.Rot.Weighted>
4.3636

> <Gold.Chemscore.Internal.Correction.Weighted>
   9.000000E+99

> <Gold.Protein.RotatedTorsions>
[ 6907 6896 6895 6894 ] final -166.12 input  -60.11 | X-H torsion
[ 7974 7965 7964 7962 ] final -151.54 input  175.53 | X-H torsion
[ 8008 7997 7996 7995 ] final  -63.98 input   59.86 | X-H torsion
[ 10167 10162 10161 10158 ] final -157.74 input  -65.29 | X-H torsion
[ 10718 10713 10712 10709 ] final  136.29 input   66.30 | X-H torsion
[ 10763 10752 10751 10750 ] final  -79.18 input  -60.55 | X-H torsion
[ 11005 11000 10999 10996 ] final  130.02 input  -57.11 | X-H torsion

> <Gold.Protein.ActiveResidues>
 VAL166  LYS551  ARG553  GLY616  TRP617  ASP618  TYR619  PRO620  LYS621  CYS622 
 ASP623  PHE694  ASN695  SER759  ASP760  ASP761  ALA762  ILE779  LEU786  VAL792 
 PHE793  MET794  SER795  GLU796  ALA797  LYS798  CYS799  TRP800  GLU811  SER814 

> <Gold.Protein.RotatedAtoms>
  151.4385  133.3650  159.2778 H   0  0  0  0  0  0  0  0  0  0  0  0  # atno 6907 bound_to 6896
  150.9175  134.8594  159.7477 H   0  0  0  0  0  0  0  0  0  0  0  0  # atno 6908 bound_to 6896
  152.4964  134.4320  159.9567 H   0  0  0  0  0  0  0  0  0  0  0  0  # atno 6909 bound_to 6896
  144.7844  140.4784  143.5816 H   0  0  0  0  0  0  0  0  0  0  0  0  # atno 7974 bound_to 7965
  154.4585  140.0963  156.6827 H   0  0  0  0  0  0  0  0  0  0  0  0  # atno 8008 bound_to 7997
  155.5064  140.3475  155.4362 H   0  0  0  0  0  0  0  0  0  0  0  0  # atno 8009 bound_to 7997
  156.0825  140.1376  156.9683 H   0  0  0  0  0  0  0  0  0  0  0  0  # atno 8010 bound_to 7997
  139.6747  143.9684  152.2304 H   0  0  0  0  0  0  0  0  0  0  0  0  # atno 10167 bound_to 10162
  157.4482  131.1063  151.0064 H   0  0  0  0  0  0  0  0  0  0  0  0  # atno 10718 bound_to 10713
  154.5354  135.5704  153.6794 H   0  0  0  0  0  0  0  0  0  0  0  0  # atno 10763 bound_to 10752
  152.9950  135.6215  154.2573 H   0  0  0  0  0  0  0  0  0  0  0  0  # atno 10764 bound_to 10752
  154.2502  135.2859  155.2799 H   0  0  0  0  0  0  0  0  0  0  0  0  # atno 10765 bound_to 10752
  139.9648  134.9593  156.9233 H   0  0  0  0  0  0  0  0  0  0  0  0  # atno 11005 bound_to 11000
  145.5961  139.1499  143.3155 LP  0  0  0  0  0  0  0  0  0  0  0  0  # atno 17320 bound_to 7965
  146.2069  140.6085  142.9077 LP  0  0  0  0  0  0  0  0  0  0  0  0  # atno 17321 bound_to 7965
  139.9458  144.6652  150.8221 LP  0  0  0  0  0  0  0  0  0  0  0  0  # atno 17342 bound_to 10162
  140.7631  143.3214  151.2613 LP  0  0  0  0  0  0  0  0  0  0  0  0  # atno 17343 bound_to 10162
  157.0903  130.5939  149.5438 LP  0  0  0  0  0  0  0  0  0  0  0  0  # atno 17370 bound_to 10713
  155.9976  130.5048  150.7540 LP  0  0  0  0  0  0  0  0  0  0  0  0  # atno 17371 bound_to 10713
  140.5420  134.0710  155.7344 LP  0  0  0  0  0  0  0  0  0  0  0  0  # atno 17394 bound_to 11000
  141.1327  133.9274  157.2500 LP  0  0  0  0  0  0  0  0  0  0  0  0  # atno 17395 bound_to 11000

$$$$
