AV-unprocessed.smi:1501|AV-procd|sdf|6065|dock3
  -GOLD-   22720 6183D 1   1.00000     0.00000
 Structure written by MMmdl.
 49 50  0  0  0  0  0  0  0  0  1 V2000
  147.3302  142.3209  154.2140 C   0  0  0  0  0  0  0  0  0  0  0  0
  148.4176  141.5104  154.8968 C   0  0  0  0  0  0  0  0  0  0  0  0
  149.1853  142.2247  155.7977 N   0  0  0  0  0  0  0  0  0  0  0  0
  150.2237  141.5848  156.4632 C   0  0  0  0  0  0  0  0  0  0  0  0
  150.9460  142.4040  157.3306 N   0  0  0  0  0  0  0  0  0  0  0  0
  151.7802  141.8122  158.3764 C   0  0  0  0  0  0  0  0  0  0  0  0
  152.0795  142.8263  159.4931 C   0  0  0  0  0  0  0  0  0  0  0  0
  152.6801  143.9877  158.9359 O   0  0  0  0  0  0  0  0  0  0  0  0
  151.8144  144.6249  158.0058 C   0  0  0  0  0  0  0  0  0  0  0  0
  151.5055  143.6657  156.8437 C   0  0  0  0  0  0  0  0  0  0  0  0
  150.4957  140.3214  156.3029 N   0  0  0  0  0  0  0  0  0  0  0  0
  149.7386  139.5374  155.4197 C   0  0  0  0  0  0  0  0  0  0  0  0
  149.9846  138.3401  155.2801 O   0  0  0  0  0  0  0  0  0  0  0  0
  148.6436  140.1937  154.6757 C   0  0  0  0  0  0  0  0  0  0  0  0
  147.8367  139.3643  153.6811 C   0  0  0  0  0  0  0  0  0  0  0  0
  147.1528  138.1560  154.3496 C   0  0  0  0  0  0  0  0  0  0  0  0
  145.9914  137.5818  153.5319 C   0  0  0  0  0  0  0  0  0  0  0  0
  144.8222  137.8043  153.8488 O   0  0  0  0  0  0  0  0  0  0  0  0
  146.3340  136.8346  152.4717 N   0  0  0  0  0  0  0  0  0  0  0  0
  145.3927  136.2030  151.5520 C   0  0  0  0  0  0  0  0  0  0  0  0
  145.2828  134.6790  151.7718 C   0  0  0  0  0  0  0  0  0  0  0  0
  144.2369  134.0661  150.8292 C   0  0  0  0  0  0  0  0  0  0  0  0
  144.9718  134.3205  153.2352 C   0  0  0  0  0  0  0  0  0  0  0  0
  148.9685  143.2013  155.9333 H   0  0  0  0  0  0  0  0  0  0  0  0
  146.3560  141.8552  154.3656 H   0  0  0  0  0  0  0  0  0  0  0  0
  147.5206  142.3847  153.1425 H   0  0  0  0  0  0  0  0  0  0  0  0
  147.2798  143.3376  154.6061 H   0  0  0  0  0  0  0  0  0  0  0  0
  152.7125  141.4624  157.9303 H   0  0  0  0  0  0  0  0  0  0  0  0
  151.2859  140.9400  158.8073 H   0  0  0  0  0  0  0  0  0  0  0  0
  151.1678  143.0944  160.0295 H   0  0  0  0  0  0  0  0  0  0  0  0
  152.7614  142.3900  160.2229 H   0  0  0  0  0  0  0  0  0  0  0  0
  150.8961  144.9425  158.5024 H   0  0  0  0  0  0  0  0  0  0  0  0
  152.3004  145.5250  157.6296 H   0  0  0  0  0  0  0  0  0  0  0  0
  150.8246  144.1582  156.1488 H   0  0  0  0  0  0  0  0  0  0  0  0
  152.4195  143.4521  156.2875 H   0  0  0  0  0  0  0  0  0  0  0  0
  148.4881  139.0306  152.8716 H   0  0  0  0  0  0  0  0  0  0  0  0
  147.0878  139.9960  153.2032 H   0  0  0  0  0  0  0  0  0  0  0  0
  147.8863  137.3656  154.5156 H   0  0  0  0  0  0  0  0  0  0  0  0
  146.7720  138.4410  155.3309 H   0  0  0  0  0  0  0  0  0  0  0  0
  147.3169  136.7019  152.2818 H   0  0  0  0  0  0  0  0  0  0  0  0
  144.4177  136.6708  151.6927 H   0  0  0  0  0  0  0  0  0  0  0  0
  145.6874  136.4187  150.5235 H   0  0  0  0  0  0  0  0  0  0  0  0
  146.2441  134.2294  151.5192 H   0  0  0  0  0  0  0  0  0  0  0  0
  143.2420  134.4679  151.0248 H   0  0  0  0  0  0  0  0  0  0  0  0
  144.1881  132.9830  150.9465 H   0  0  0  0  0  0  0  0  0  0  0  0
  144.4803  134.2712  149.7864 H   0  0  0  0  0  0  0  0  0  0  0  0
  144.0288  134.7621  153.5586 H   0  0  0  0  0  0  0  0  0  0  0  0
  145.7532  134.6717  153.9094 H   0  0  0  0  0  0  0  0  0  0  0  0
  144.8946  133.2407  153.3658 H   0  0  0  0  0  0  0  0  0  0  0  0
  1 25  1  0  0  0  0
  1 26  1  0  0  0  0
  1 27  1  0  0  0  0
  1  2  1  0  0  0  0
  2 14  2  0  0  0  0
  2  3  1  0  0  0  0
  3 24  1  0  0  0  0
  3  4  1  0  0  0  0
  4  5  1  0  0  0  0
  4 11  2  0  0  0  0
  5 10  1  0  0  0  0
  5  6  1  0  0  0  0
  6  7  1  0  0  0  0
  6 28  1  0  0  0  0
  6 29  1  0  0  0  0
  7  8  1  0  0  0  0
  7 30  1  0  0  0  0
  7 31  1  0  0  0  0
  8  9  1  0  0  0  0
  9 10  1  0  0  0  0
  9 32  1  0  0  0  0
  9 33  1  0  0  0  0
 10 34  1  0  0  0  0
 10 35  1  0  0  0  0
 11 12  1  0  0  0  0
 12 13  2  0  0  0  0
 12 14  1  0  0  0  0
 14 15  1  0  0  0  0
 15 16  1  0  0  0  0
 15 36  1  0  0  0  0
 15 37  1  0  0  0  0
 16 17  1  0  0  0  0
 16 38  1  0  0  0  0
 16 39  1  0  0  0  0
 17 18  2  0  0  0  0
 17 19  1  0  0  0  0
 19 20  1  0  0  0  0
 19 40  1  0  0  0  0
 20 21  1  0  0  0  0
 20 41  1  0  0  0  0
 20 42  1  0  0  0  0
 21 22  1  0  0  0  0
 21 23  1  0  0  0  0
 21 43  1  0  0  0  0
 22 44  1  0  0  0  0
 22 45  1  0  0  0  0
 22 46  1  0  0  0  0
 23 47  1  0  0  0  0
 23 48  1  0  0  0  0
 23 49  1  0  0  0  0
M  END
> <s_m_source_file>
AV-unprocessed.smi

> <i_m_source_file_index>
1501

> <i_lp_mmshare_version>
43012

> <i_f3d_flags>
0

> <s_epik_input>
W0NIMl0xW0NIMl1PW0NIMl1bQ0gyXU4xYyhuYzJbQ0gzXSlbbkhdYyg9TyljMltDSDJdW0NIMl1DKD1PKVtOSF1bQ0gyXVtDSF0oW0NIM10pW0NIM10=

> <s_epik_cmdline>
J2VwaWtfcHl0aG9uJywgJy1waCcsICc3LjAnLCAnLXRuJywgJzgnLCAnLW1hJywgJzIwMCcsICctbWV0YWxfYmluZGluZycsICctaW1hZScsICc8aW5maWxlLm1hZT4nLCAnLW9tYWUnLCAnPG91dGZpbGUubWFlPic=

> <r_lp_tautomer_probability>
0.108306

> <r_epik_Ionization_Penalty>
0.0740208

> <r_epik_Ionization_Penalty_Charging>
0.0617106

> <r_epik_Ionization_Penalty_Neutral>
0.0123101

> <r_epik_State_Penalty>
1.70915

> <r_epik_Charging_Adjusted_Penalty>
1.77086

> <i_epik_Tot_Q>
0

> <i_epik_Tot_abs_Q>
0

> <r_epik_Metal_State_Penalty>
2.68075

> <b_epik_Metal_Only>
0

> <s_lp_Force_Field>
OPLS_2005

> <r_lp_Energy>
26.7913

> <b_lp_Chiralities_Consistent>
1

> <s_lp_Variant>
AV-unprocessed.smi:1501-2

> <Gold.Version>
5.8.1

> <Gold.Id.Protein>
6NUR|6NUR_protein|mol2

> <Gold.PLP.Fitness>
44.1410

> <Gold.PLP.PLP>
-39.6625

> <Gold.PLP.part.hbond>
-1.9148

> <Gold.PLP.part.metal>
0.0000

> <Gold.PLP.part.buried>
-3.6468

> <Gold.PLP.part.nonpolar>
-35.1635

> <Gold.PLP.part.repulsive>
0.4828

> <Gold.PLP.ligand.clash>
0.0000

> <Gold.PLP.ligand.torsion>
0.9538

> <Gold.PLP.Chemscore.Hbond>
2.0000

> <Gold.PLP.Chemscore.CHOScore>
0.0000

> <Gold.PLP.Chemscore.Metal>
0.0000

> <Gold.Chemscore.Hbonds>
donor molecule, donor type, donor heavy atom, donor atom, acceptor molecule, acceptor atom, score
      L1  H     3    24       P1  8028  1.00
      L1  H    19    40       P1  7948  1.00

> <Gold.PLP.Chemscore.Internal.Correction>
0.3861

> <Gold.Rescore>
     Score         DG    S(hbond)    S(metal)    S(lipo)     H(rot)  DE(clash)    DE(int)     intcor
     15.92     -18.07       1.95        0.00      92.05       1.83       1.15       0.99       ----

> <Gold.Chemscore.Fitness>
15.9234

> <Gold.Chemscore.DG>
-18.0704

> <Gold.Chemscore.ZeroCoef>
-5.4800

> <Gold.Chemscore.Hbond>
1.9502

> <Gold.Chemscore.Metal>
0.0000

> <Gold.Chemscore.Lipo>
92.0544

> <Gold.Chemscore.Internal_Hbond>
0.0000

> <Gold.Chemscore.DEClash>
1.1535

> <Gold.Chemscore.DEInternal>
0.9935

> <Gold.Chemscore.Rot>
1.8335

> <Gold.Chemscore.Internal.Correction>
   9.000000E+99

> <Gold.Chemscore.Hbonds>
donor molecule, donor type, donor heavy atom, donor atom, acceptor molecule, acceptor atom, score
      L1  H     3    24       P1  8028  0.94
      L1  H    19    40       P1  7948  1.00

> <Gold.Chemscore.Hbond.Weighted>
-6.5138

> <Gold.Chemscore.Metal.Weighted>
-0.0000

> <Gold.Chemscore.Lipo.Weighted>
-10.7704

> <Gold.Chemscore.Internal_Hbond.Weighted>
0.0000

> <Gold.Chemscore.DEClash.Weighted>
1.1535

> <Gold.Chemscore.DEInternal.Weighted>
0.9935

> <Gold.Chemscore.Rot.Weighted>
4.6938

> <Gold.Chemscore.Internal.Correction.Weighted>
   9.000000E+99

> <Gold.Protein.RotatedTorsions>
[ 6907 6896 6895 6894 ] final   91.62 input  -60.11 | X-H torsion
[ 7974 7965 7964 7962 ] final  -72.48 input  175.53 | X-H torsion
[ 8008 7997 7996 7995 ] final  160.66 input   59.86 | X-H torsion
[ 10167 10162 10161 10158 ] final  112.05 input  -65.29 | X-H torsion
[ 10718 10713 10712 10709 ] final  178.73 input   66.30 | X-H torsion
[ 10763 10752 10751 10750 ] final   33.97 input  -60.55 | X-H torsion
[ 11005 11000 10999 10996 ] final   95.47 input  -57.11 | X-H torsion

> <Gold.Protein.ActiveResidues>
 VAL166  LYS551  ARG553  GLY616  TRP617  ASP618  TYR619  PRO620  LYS621  CYS622 
 ASP623  PHE694  ASN695  SER759  ASP760  ASP761  ALA762  ILE779  LEU786  VAL792 
 PHE793  MET794  SER795  GLU796  ALA797  LYS798  CYS799  TRP800  GLU811  SER814 

> <Gold.Protein.RotatedAtoms>
  152.5450  134.1629  159.8564 H   0  0  0  0  0  0  0  0  0  0  0  0  # atno 6907 bound_to 6896
  151.1645  133.4816  159.2601 H   0  0  0  0  0  0  0  0  0  0  0  0  # atno 6908 bound_to 6896
  151.1338  135.0155  159.8650 H   0  0  0  0  0  0  0  0  0  0  0  0  # atno 6909 bound_to 6896
  145.6645  140.9241  143.0916 H   0  0  0  0  0  0  0  0  0  0  0  0  # atno 7974 bound_to 7965
  156.2157  140.1798  156.7594 H   0  0  0  0  0  0  0  0  0  0  0  0  # atno 8008 bound_to 7997
  154.5788  140.0670  156.9103 H   0  0  0  0  0  0  0  0  0  0  0  0  # atno 8009 bound_to 7997
  155.2539  140.3331  155.4282 H   0  0  0  0  0  0  0  0  0  0  0  0  # atno 8010 bound_to 7997
  139.6565  144.7129  151.1947 H   0  0  0  0  0  0  0  0  0  0  0  0  # atno 10167 bound_to 10162
  156.8862  130.9832  151.3055 H   0  0  0  0  0  0  0  0  0  0  0  0  # atno 10718 bound_to 10713
  153.0186  135.6373  154.1595 H   0  0  0  0  0  0  0  0  0  0  0  0  # atno 10763 bound_to 10752
  154.1332  135.2839  155.3181 H   0  0  0  0  0  0  0  0  0  0  0  0  # atno 10764 bound_to 10752
  154.6179  135.5534  153.7605 H   0  0  0  0  0  0  0  0  0  0  0  0  # atno 10765 bound_to 10752
  139.8789  134.8900  156.4016 H   0  0  0  0  0  0  0  0  0  0  0  0  # atno 11005 bound_to 11000
  144.7077  139.8493  143.7424 LP  0  0  0  0  0  0  0  0  0  0  0  0  # atno 17320 bound_to 7965
  146.1097  139.4100  143.0295 LP  0  0  0  0  0  0  0  0  0  0  0  0  # atno 17321 bound_to 7965
  140.7561  143.6064  150.8648 LP  0  0  0  0  0  0  0  0  0  0  0  0  # atno 17342 bound_to 10162
  139.9717  143.6049  152.2971 LP  0  0  0  0  0  0  0  0  0  0  0  0  # atno 17343 bound_to 10162
  157.6111  130.8584  149.8953 LP  0  0  0  0  0  0  0  0  0  0  0  0  # atno 17370 bound_to 10713
  156.0652  130.3693  150.0894 LP  0  0  0  0  0  0  0  0  0  0  0  0  # atno 17371 bound_to 10713
  140.9263  133.7610  155.9968 LP  0  0  0  0  0  0  0  0  0  0  0  0  # atno 17394 bound_to 11000
  140.8382  134.3098  157.5323 LP  0  0  0  0  0  0  0  0  0  0  0  0  # atno 17395 bound_to 11000

$$$$
