AV-unprocessed.smi:933|AV-procd|sdf|4202|dock3
  -GOLD-   22720 2103D 1   1.00000     0.00000
 Structure written by MMmdl.
 42 43  0  0  0  0  0  0  0  0  1 V2000
  146.2116  141.9756  157.7551 C   0  0  0  0  0  0  0  0  0  0  0  0
  145.4174  142.3178  156.4901 C   0  0  0  0  0  0  0  0  0  0  0  0
  146.0194  141.7261  155.2599 C   0  0  0  0  0  0  0  0  0  0  0  0
  146.1575  140.4117  155.0665 N   0  0  0  0  0  0  0  0  0  0  0  0
  146.7896  140.1088  153.8566 C   0  0  0  0  0  0  0  0  0  0  0  0
  147.0334  138.6767  153.4785 C   0  0  0  0  0  0  0  0  0  0  0  0
  146.2139  138.2227  152.2588 C   0  0  0  0  0  0  0  0  0  0  0  0
  146.3221  136.7800  152.0444 N   0  0  0  0  0  0  0  0  0  0  0  0
  145.3193  135.9127  151.8272 C   0  0  0  0  0  0  0  0  0  0  0  0
  144.1443  136.2732  151.7971 O   0  0  0  0  0  0  0  0  0  0  0  0
  145.7130  134.6380  151.6625 N   0  0  0  0  0  0  0  0  0  0  0  0
  144.8356  133.4944  151.4106 C   0  0  1  0  0  0  0  0  0  0  0  0
  144.2238  133.6010  149.9980 C   0  0  0  0  0  0  0  0  0  0  0  0
  144.6559  132.3450  149.2334 C   0  0  0  0  0  0  0  0  0  0  0  0
  145.8883  131.8335  149.9738 C   0  0  0  0  0  0  0  0  0  0  0  0
  145.5883  132.1428  151.4410 C   0  0  1  0  0  0  0  0  0  0  0  0
  146.8208  132.0495  152.3574 C   0  0  0  0  0  0  0  0  0  0  0  0
  147.1322  141.2229  153.1311 C   0  0  0  0  0  0  0  0  0  0  0  0
  146.6852  142.6939  153.9496 S   0  0  0  0  0  0  0  0  0  0  0  0
  145.7496  142.4214  158.6359 H   0  0  0  0  0  0  0  0  0  0  0  0
  147.2344  142.3480  157.6898 H   0  0  0  0  0  0  0  0  0  0  0  0
  146.2568  140.8973  157.9110 H   0  0  0  0  0  0  0  0  0  0  0  0
  144.3911  141.9625  156.5872 H   0  0  0  0  0  0  0  0  0  0  0  0
  145.3635  143.3998  156.3662 H   0  0  0  0  0  0  0  0  0  0  0  0
  148.0933  138.5222  153.2738 H   0  0  0  0  0  0  0  0  0  0  0  0
  146.8006  138.0278  154.3237 H   0  0  0  0  0  0  0  0  0  0  0  0
  145.1656  138.4858  152.4105 H   0  0  0  0  0  0  0  0  0  0  0  0
  146.5527  138.7529  151.3677 H   0  0  0  0  0  0  0  0  0  0  0  0
  147.2542  136.3942  152.0917 H   0  0  0  0  0  0  0  0  0  0  0  0
  146.7023  134.4436  151.7118 H   0  0  0  0  0  0  0  0  0  0  0  0
  144.0324  133.4756  152.1495 H   0  0  0  0  0  0  0  0  0  0  0  0
  143.1368  133.6793  150.0373 H   0  0  0  0  0  0  0  0  0  0  0  0
  144.5852  134.4898  149.4777 H   0  0  0  0  0  0  0  0  0  0  0  0
  143.8648  131.5957  149.2853 H   0  0  0  0  0  0  0  0  0  0  0  0
  144.8535  132.5434  148.1798 H   0  0  0  0  0  0  0  0  0  0  0  0
  146.0697  130.7727  149.7971 H   0  0  0  0  0  0  0  0  0  0  0  0
  146.7714  132.3838  149.6457 H   0  0  0  0  0  0  0  0  0  0  0  0
  144.8741  131.3916  151.7827 H   0  0  0  0  0  0  0  0  0  0  0  0
  147.6139  132.7279  152.0415 H   0  0  0  0  0  0  0  0  0  0  0  0
  147.2323  131.0400  152.3495 H   0  0  0  0  0  0  0  0  0  0  0  0
  146.5608  132.2907  153.3883 H   0  0  0  0  0  0  0  0  0  0  0  0
  147.6273  141.2674  152.1723 H   0  0  0  0  0  0  0  0  0  0  0  0
  1  2  1  0  0  0  0
  1 20  1  0  0  0  0
  1 21  1  0  0  0  0
  1 22  1  0  0  0  0
  2  3  1  0  0  0  0
  2 23  1  0  0  0  0
  2 24  1  0  0  0  0
  3 19  1  0  0  0  0
  3  4  2  0  0  0  0
  4  5  1  0  0  0  0
  5  6  1  0  0  0  0
  5 18  2  0  0  0  0
  6  7  1  0  0  0  0
  6 25  1  0  0  0  0
  6 26  1  0  0  0  0
  7  8  1  0  0  0  0
  7 27  1  0  0  0  0
  7 28  1  0  0  0  0
  8  9  1  0  0  0  0
  8 29  1  0  0  0  0
  9 10  2  0  0  0  0
  9 11  1  0  0  0  0
 11 12  1  0  0  0  0
 11 30  1  0  0  0  0
 12 16  1  0  0  0  0
 12 13  1  0  0  0  0
 12 31  1  0  0  0  0
 13 14  1  0  0  0  0
 13 32  1  0  0  0  0
 13 33  1  0  0  0  0
 14 15  1  0  0  0  0
 14 34  1  0  0  0  0
 14 35  1  0  0  0  0
 15 16  1  0  0  0  0
 15 36  1  0  0  0  0
 15 37  1  0  0  0  0
 16 17  1  0  0  0  0
 16 38  1  0  0  0  0
 17 39  1  0  0  0  0
 17 40  1  0  0  0  0
 17 41  1  0  0  0  0
 18 19  1  0  0  0  0
 18 42  1  0  0  0  0
M  END
> <s_m_source_file>
AV-unprocessed.smi

> <i_m_source_file_index>
933

> <i_lp_mmshare_version>
43012

> <i_f3d_flags>
0

> <s_epik_input>
W0NIM11bQ0gyXWMxbmMoW2NIXXMxKVtDSDJdW0NIMl1bTkhdQyg9TylbTkhdW0NAQEhdMltDSDJdW0NIMl1bQ0gyXVtDQEhdMltDSDNd

> <s_epik_cmdline>
J2VwaWtfcHl0aG9uJywgJy1waCcsICc3LjAnLCAnLXRuJywgJzgnLCAnLW1hJywgJzIwMCcsICctbWV0YWxfYmluZGluZycsICctaW1hZScsICc8aW5maWxlLm1hZT4nLCAnLW9tYWUnLCAnPG91dGZpbGUubWFlPic=

> <r_epik_Ionization_Penalty>
0.00203408

> <r_epik_Ionization_Penalty_Charging>
0

> <r_epik_Ionization_Penalty_Neutral>
0.00203408

> <r_epik_State_Penalty>
0.0013452

> <r_epik_Charging_Adjusted_Penalty>
0.0013452

> <i_epik_Tot_Q>
0

> <i_epik_Tot_abs_Q>
0

> <r_epik_Metal_State_Penalty>
-0

> <b_epik_Metal_Only>
0

> <s_lp_Force_Field>
OPLS_2005

> <r_lp_Energy>
20.9711

> <b_lp_Chiralities_Consistent>
1

> <s_lp_Variant>
AV-unprocessed.smi:933-2

> <Gold.Version>
5.8.1

> <Gold.Id.Protein>
6NUR|6NUR_protein|mol2

> <Gold.PLP.Fitness>
38.9947

> <Gold.PLP.PLP>
-33.3421

> <Gold.PLP.part.hbond>
-1.0000

> <Gold.PLP.part.metal>
0.0000

> <Gold.PLP.part.buried>
-5.9696

> <Gold.PLP.part.nonpolar>
-27.8620

> <Gold.PLP.part.repulsive>
0.7914

> <Gold.PLP.ligand.clash>
0.0000

> <Gold.PLP.ligand.torsion>
0.2076

> <Gold.PLP.Chemscore.Hbond>
1.0000

> <Gold.PLP.Chemscore.CHOScore>
1.0000

> <Gold.PLP.Chemscore.Metal>
0.0000

> <Gold.Chemscore.Hbonds>
donor molecule, donor type, donor heavy atom, donor atom, acceptor molecule, acceptor atom, score
      L1  H     8    29       P1  7948  1.00
      L1  C    18    42       P1  7957  1.00

> <Gold.PLP.Chemscore.Internal.Correction>
0.0678

> <Gold.Rescore>
     Score         DG    S(hbond)    S(metal)    S(lipo)     H(rot)  DE(clash)    DE(int)     intcor
     15.20     -15.78       1.00        0.00      93.44       1.55       0.28       0.30       ----

> <Gold.Chemscore.Fitness>
15.2035

> <Gold.Chemscore.DG>
-15.7788

> <Gold.Chemscore.ZeroCoef>
-5.4800

> <Gold.Chemscore.Hbond>
0.9968

> <Gold.Chemscore.Metal>
0.0000

> <Gold.Chemscore.Lipo>
93.4441

> <Gold.Chemscore.Internal_Hbond>
0.0000

> <Gold.Chemscore.DEClash>
0.2801

> <Gold.Chemscore.DEInternal>
0.2952

> <Gold.Chemscore.Rot>
1.5482

> <Gold.Chemscore.Internal.Correction>
   9.000000E+99

> <Gold.Chemscore.Hbonds>
donor molecule, donor type, donor heavy atom, donor atom, acceptor molecule, acceptor atom, score
      L1  H     8    29       P1  7948  1.00

> <Gold.Chemscore.Hbond.Weighted>
-3.3293

> <Gold.Chemscore.Metal.Weighted>
-0.0000

> <Gold.Chemscore.Lipo.Weighted>
-10.9330

> <Gold.Chemscore.Internal_Hbond.Weighted>
0.0000

> <Gold.Chemscore.DEClash.Weighted>
0.2801

> <Gold.Chemscore.DEInternal.Weighted>
0.2952

> <Gold.Chemscore.Rot.Weighted>
3.9635

> <Gold.Chemscore.Internal.Correction.Weighted>
   9.000000E+99

> <Gold.Protein.RotatedTorsions>
[ 6907 6896 6895 6894 ] final  172.14 input  -60.11 | X-H torsion
[ 7974 7965 7964 7962 ] final   54.12 input  175.53 | X-H torsion
[ 8008 7997 7996 7995 ] final  159.96 input   59.86 | X-H torsion
[ 10167 10162 10161 10158 ] final   52.89 input  -65.29 | X-H torsion
[ 10718 10713 10712 10709 ] final -136.22 input   66.30 | X-H torsion
[ 10763 10752 10751 10750 ] final  -58.77 input  -60.55 | X-H torsion
[ 11005 11000 10999 10996 ] final   20.58 input  -57.11 | X-H torsion

> <Gold.Protein.ActiveResidues>
 VAL166  LYS551  ARG553  GLY616  TRP617  ASP618  TYR619  PRO620  LYS621  CYS622 
 ASP623  PHE694  ASN695  SER759  ASP760  ASP761  ALA762  ILE779  LEU786  VAL792 
 PHE793  MET794  SER795  GLU796  ALA797  LYS798  CYS799  TRP800  GLU811  SER814 

> <Gold.Protein.RotatedAtoms>
  151.7890  133.3357  159.3493 H   0  0  0  0  0  0  0  0  0  0  0  0  # atno 6907 bound_to 6896
  150.7398  134.5860  159.5972 H   0  0  0  0  0  0  0  0  0  0  0  0  # atno 6908 bound_to 6896
  152.3223  134.7366  160.0362 H   0  0  0  0  0  0  0  0  0  0  0  0  # atno 6909 bound_to 6896
  145.9642  139.4087  143.0230 H   0  0  0  0  0  0  0  0  0  0  0  0  # atno 7974 bound_to 7965
  156.2204  140.1817  156.7489 H   0  0  0  0  0  0  0  0  0  0  0  0  # atno 8008 bound_to 7997
  154.5857  140.0659  156.9196 H   0  0  0  0  0  0  0  0  0  0  0  0  # atno 8009 bound_to 7997
  155.2424  140.3323  155.4293 H   0  0  0  0  0  0  0  0  0  0  0  0  # atno 8010 bound_to 7997
  140.2466  144.3525  150.6362 H   0  0  0  0  0  0  0  0  0  0  0  0  # atno 10167 bound_to 10162
  156.2746  130.7285  151.1264 H   0  0  0  0  0  0  0  0  0  0  0  0  # atno 10718 bound_to 10713
  154.2433  135.6339  153.5214 H   0  0  0  0  0  0  0  0  0  0  0  0  # atno 10763 bound_to 10752
  152.9926  135.5547  154.5887 H   0  0  0  0  0  0  0  0  0  0  0  0  # atno 10764 bound_to 10752
  154.5397  135.2894  155.1081 H   0  0  0  0  0  0  0  0  0  0  0  0  # atno 10765 bound_to 10752
  140.4010  134.1718  155.7664 H   0  0  0  0  0  0  0  0  0  0  0  0  # atno 11005 bound_to 11000
  145.7998  140.9776  143.1005 LP  0  0  0  0  0  0  0  0  0  0  0  0  # atno 17320 bound_to 7965
  144.6822  139.9787  143.7483 LP  0  0  0  0  0  0  0  0  0  0  0  0  # atno 17321 bound_to 7965
  140.6073  143.2168  151.6956 LP  0  0  0  0  0  0  0  0  0  0  0  0  # atno 17342 bound_to 10162
  139.5060  144.3698  152.0481 LP  0  0  0  0  0  0  0  0  0  0  0  0  # atno 17343 bound_to 10162
  157.7295  131.0623  150.5770 LP  0  0  0  0  0  0  0  0  0  0  0  0  # atno 17370 bound_to 10713
  156.5870  130.4319  149.5953 LP  0  0  0  0  0  0  0  0  0  0  0  0  # atno 17371 bound_to 10713
  141.1857  133.8318  157.1096 LP  0  0  0  0  0  0  0  0  0  0  0  0  # atno 17394 bound_to 11000
  140.0336  134.9889  157.0828 LP  0  0  0  0  0  0  0  0  0  0  0  0  # atno 17395 bound_to 11000

$$$$
