AV-unprocessed.smi:2188|AV-procd|sdf|8881|dock6
  -GOLD-   2272012 83D 1   1.00000     0.00000
 Structure written by MMmdl.
 40 42  0  0  0  0  0  0  0  0  2 V2000
  151.4788  140.5652  155.6952 O   0  0  0  0  0  0  0  0  0  0  0  0
  150.9470  141.5366  156.2366 C   0  0  0  0  0  0  0  0  0  0  0  0
  149.8125  142.0674  155.7384 N   0  0  0  0  0  0  0  0  0  0  0  0
  149.0833  141.5918  154.5638 C   0  0  0  0  0  0  0  0  0  0  0  0
  147.6952  141.0207  154.9178 C   0  0  0  0  0  0  0  0  0  0  0  0
  146.5884  142.0615  154.9206 C   0  0  0  0  0  0  0  0  0  0  0  0
  146.3073  142.8208  153.7627 C   0  0  0  0  0  0  0  0  0  0  0  0
  145.3013  143.8079  153.8100 C   0  0  0  0  0  0  0  0  0  0  0  0
  144.5971  144.0132  155.0141 C   0  0  0  0  0  0  0  0  0  0  0  0
  144.8896  143.2644  156.1000 N   0  3  0  0  0  0  0  0  0  0  0  0
  145.8438  142.3080  156.0946 C   0  0  0  0  0  0  0  0  0  0  0  0
  151.4451  142.2086  157.4553 C   0  0  0  0  0  0  0  0  0  0  0  0
  151.0287  143.4731  157.7373 C   0  0  0  0  0  0  0  0  0  0  0  0
  151.4929  144.1881  158.8998 C   0  0  0  0  0  0  0  0  0  0  0  0
  152.3254  143.5584  159.7347 C   0  0  0  0  0  0  0  0  0  0  0  0
  152.7593  142.2498  159.5351 N   0  0  0  0  0  0  0  0  0  0  0  0
  153.5679  141.6549  160.5943 C   0  0  0  0  0  0  0  0  0  0  0  0
  154.6913  140.8248  160.0014 C   0  0  0  0  0  0  0  0  0  0  0  0
  153.8775  139.4680  159.0862 S   0  0  0  0  0  0  0  0  0  0  0  0
  154.8995  138.7783  158.2846 O   0  0  0  0  0  0  0  0  0  0  0  0
  153.0642  138.6963  160.0390 O   0  0  0  0  0  0  0  0  0  0  0  0
  152.8629  140.3447  158.0829 N   0  0  0  0  0  0  0  0  0  0  0  0
  152.3891  141.5251  158.3667 C   0  0  0  0  0  0  0  0  0  0  0  0
  149.4232  142.8673  156.2160 H   0  0  0  0  0  0  0  0  0  0  0  0
  148.9636  142.4343  153.8822 H   0  0  0  0  0  0  0  0  0  0  0  0
  149.6718  140.8493  154.0226 H   0  0  0  0  0  0  0  0  0  0  0  0
  147.4376  140.2243  154.2183 H   0  0  0  0  0  0  0  0  0  0  0  0
  147.7340  140.5555  155.9034 H   0  0  0  0  0  0  0  0  0  0  0  0
  146.8647  142.6602  152.8513 H   0  0  0  0  0  0  0  0  0  0  0  0
  145.0775  144.4029  152.9371 H   0  0  0  0  0  0  0  0  0  0  0  0
  143.8164  144.7491  155.1410 H   0  0  0  0  0  0  0  0  0  0  0  0
  145.9949  141.7863  157.0286 H   0  0  0  0  0  0  0  0  0  0  0  0
  150.3258  143.9939  157.1035 H   0  0  0  0  0  0  0  0  0  0  0  0
  151.1805  145.2046  159.0885 H   0  0  0  0  0  0  0  0  0  0  0  0
  152.7091  144.0427  160.6211 H   0  0  0  0  0  0  0  0  0  0  0  0
  154.0007  142.4281  161.2300 H   0  0  0  0  0  0  0  0  0  0  0  0
  152.9303  141.0454  161.2354 H   0  0  0  0  0  0  0  0  0  0  0  0
  155.3144  141.4024  159.3178 H   0  0  0  0  0  0  0  0  0  0  0  0
  155.3280  140.3937  160.7737 H   0  0  0  0  0  0  0  0  0  0  0  0
  144.3716  143.4321  156.9628 H   0  0  0  0  0  0  0  0  0  0  0  0
  1  2  2  0  0  0  0
  2  3  1  0  0  0  0
  2 12  1  0  0  0  0
  3  4  1  0  0  0  0
  3 24  1  0  0  0  0
  4  5  1  0  0  0  0
  4 25  1  0  0  0  0
  4 26  1  0  0  0  0
  5  6  1  0  0  0  0
  5 27  1  0  0  0  0
  5 28  1  0  0  0  0
  6 11  1  0  0  0  0
  6  7  2  0  0  0  0
  7  8  1  0  0  0  0
  7 29  1  0  0  0  0
  8  9  2  0  0  0  0
  8 30  1  0  0  0  0
  9 10  1  0  0  0  0
  9 31  1  0  0  0  0
 10 11  2  0  0  0  0
 10 40  1  0  0  0  0
 11 32  1  0  0  0  0
 12 23  1  0  0  0  0
 12 13  2  0  0  0  0
 13 14  1  0  0  0  0
 13 33  1  0  0  0  0
 14 15  2  0  0  0  0
 14 34  1  0  0  0  0
 15 16  1  0  0  0  0
 15 35  1  0  0  0  0
 16 23  1  0  0  0  0
 16 17  1  0  0  0  0
 17 18  1  0  0  0  0
 17 36  1  0  0  0  0
 17 37  1  0  0  0  0
 18 19  1  0  0  0  0
 18 38  1  0  0  0  0
 18 39  1  0  0  0  0
 19 20  2  0  0  0  0
 19 21  2  0  0  0  0
 19 22  1  0  0  0  0
 22 23  2  0  0  0  0
M  CHG  1  10   1
M  END
> <s_m_source_file>
AV-unprocessed.smi

> <i_m_source_file_index>
2188

> <i_lp_mmshare_version>
43012

> <i_f3d_flags>
0

> <s_epik_input>
W0NIMl0xW0NIMl1TKD1PKSg9TylOPUMoTjEyKUMoPVtDSF1bQ0hdPVtDSF0yKUMoPU8pW05IXVtDSDJdW0NIMl1jM1tjSF1bY0hdW2NIXW5bY0hdMw==

> <s_epik_cmdline>
J2VwaWtfcHl0aG9uJywgJy1waCcsICc3LjAnLCAnLXRuJywgJzgnLCAnLW1hJywgJzIwMCcsICctbWV0YWxfYmluZGluZycsICctaW1hZScsICc8aW5maWxlLm1hZT4nLCAnLW9tYWUnLCAnPG91dGZpbGUubWFlPic=

> <r_epik_Ionization_Penalty>
2.45954

> <r_epik_Ionization_Penalty_Charging>
2.45946

> <r_epik_Ionization_Penalty_Neutral>
8.13788e-05

> <r_epik_State_Penalty>
2.62155

> <r_epik_Charging_Adjusted_Penalty>
5.08101

> <i_epik_Tot_Q>
1

> <i_epik_Tot_abs_Q>
1

> <r_epik_Metal_State_Penalty>
2.74793

> <b_epik_Metal_Only>
0

> <s_lp_Force_Field>
OPLS_2005

> <r_lp_Energy>
33.7727

> <b_lp_Chiralities_Consistent>
1

> <s_lp_Variant>
AV-unprocessed.smi:2188-2

> <Gold.Version>
5.8.1

> <Gold.Id.Protein>
6NUR|6NUR_protein|mol2

> <Gold.PLP.Fitness>
53.4533

> <Gold.PLP.PLP>
-48.4598

> <Gold.PLP.part.hbond>
-3.9402

> <Gold.PLP.part.metal>
0.0000

> <Gold.PLP.part.buried>
-4.9095

> <Gold.PLP.part.nonpolar>
-39.3428

> <Gold.PLP.part.repulsive>
0.1473

> <Gold.PLP.ligand.clash>
0.7366

> <Gold.PLP.ligand.torsion>
0.3664

> <Gold.PLP.Chemscore.Hbond>
2.1164

> <Gold.PLP.Chemscore.CHOScore>
0.0000

> <Gold.PLP.Chemscore.Metal>
0.0000

> <Gold.Chemscore.Hbonds>
donor molecule, donor type, donor heavy atom, donor atom, acceptor molecule, acceptor atom, score
      L1  H     3    24       P1  8028  0.69
      P1  H  7989  7998       L1     1  0.43
      P1  H  7997  8010       L1    20  0.98

> <Gold.PLP.Chemscore.Internal.Correction>
0.1137

> <Gold.Rescore>
     Score         DG    S(hbond)    S(metal)    S(lipo)     H(rot)  DE(clash)    DE(int)     intcor
     17.14     -19.46       1.66        0.00     105.68       1.54       0.52       1.80       ----

> <Gold.Chemscore.Fitness>
17.1353

> <Gold.Chemscore.DG>
-19.4558

> <Gold.Chemscore.ZeroCoef>
-5.4800

> <Gold.Chemscore.Hbond>
1.6595

> <Gold.Chemscore.Metal>
0.0000

> <Gold.Chemscore.Lipo>
105.6754

> <Gold.Chemscore.Internal_Hbond>
0.0000

> <Gold.Chemscore.DEClash>
0.5197

> <Gold.Chemscore.DEInternal>
1.8008

> <Gold.Chemscore.Rot>
1.5355

> <Gold.Chemscore.Internal.Correction>
   9.000000E+99

> <Gold.Chemscore.Hbonds>
donor molecule, donor type, donor heavy atom, donor atom, acceptor molecule, acceptor atom, score
      L1  H     3    24       P1  8028  0.67
      P1  H  7989  7998       L1     1  0.33
      P1  H  7997  8010       L1    20  0.24

> <Gold.Chemscore.Hbond.Weighted>
-5.5427

> <Gold.Chemscore.Metal.Weighted>
-0.0000

> <Gold.Chemscore.Lipo.Weighted>
-12.3640

> <Gold.Chemscore.Internal_Hbond.Weighted>
0.0000

> <Gold.Chemscore.DEClash.Weighted>
0.5197

> <Gold.Chemscore.DEInternal.Weighted>
1.8008

> <Gold.Chemscore.Rot.Weighted>
3.9309

> <Gold.Chemscore.Internal.Correction.Weighted>
   9.000000E+99

> <Gold.Protein.RotatedTorsions>
[ 6907 6896 6895 6894 ] final   57.51 input  -60.11 | X-H torsion
[ 7974 7965 7964 7962 ] final   37.95 input  175.53 | X-H torsion
[ 8008 7997 7996 7995 ] final  -15.93 input   59.86 | X-H torsion
[ 10167 10162 10161 10158 ] final -164.48 input  -65.29 | X-H torsion
[ 10718 10713 10712 10709 ] final  121.50 input   66.30 | X-H torsion
[ 10763 10752 10751 10750 ] final  -77.96 input  -60.55 | X-H torsion
[ 11005 11000 10999 10996 ] final  167.26 input  -57.11 | X-H torsion

> <Gold.Protein.ActiveResidues>
 VAL166  LYS551  ARG553  GLY616  TRP617  ASP618  TYR619  PRO620  LYS621  CYS622 
 ASP623  PHE694  ASN695  SER759  ASP760  ASP761  ALA762  ILE779  LEU786  VAL792 
 PHE793  MET794  SER795  GLU796  ALA797  LYS798  CYS799  TRP800  GLU811  SER814 

> <Gold.Protein.RotatedAtoms>
  152.3738  134.6694  160.0166 H   0  0  0  0  0  0  0  0  0  0  0  0  # atno 6907 bound_to 6896
  151.6979  133.3305  159.3267 H   0  0  0  0  0  0  0  0  0  0  0  0  # atno 6908 bound_to 6896
  150.7694  134.6577  159.6367 H   0  0  0  0  0  0  0  0  0  0  0  0  # atno 6909 bound_to 6896
  146.1099  139.5832  142.9359 H   0  0  0  0  0  0  0  0  0  0  0  0  # atno 7974 bound_to 7965
  154.5092  140.2183  155.9190 H   0  0  0  0  0  0  0  0  0  0  0  0  # atno 8008 bound_to 7997
  156.1531  140.3157  155.8648 H   0  0  0  0  0  0  0  0  0  0  0  0  # atno 8009 bound_to 7997
  155.3899  140.0477  157.3031 H   0  0  0  0  0  0  0  0  0  0  0  0  # atno 8010 bound_to 7997
  139.6248  144.0554  152.1965 H   0  0  0  0  0  0  0  0  0  0  0  0  # atno 10167 bound_to 10162
  157.5813  131.1074  150.8182 H   0  0  0  0  0  0  0  0  0  0  0  0  # atno 10718 bound_to 10713
  154.5198  135.5746  153.6671 H   0  0  0  0  0  0  0  0  0  0  0  0  # atno 10763 bound_to 10752
  152.9914  135.6179  154.2770 H   0  0  0  0  0  0  0  0  0  0  0  0  # atno 10764 bound_to 10752
  154.2690  135.2854  155.2726 H   0  0  0  0  0  0  0  0  0  0  0  0  # atno 10765 bound_to 10752
  140.2750  134.7796  157.3708 H   0  0  0  0  0  0  0  0  0  0  0  0  # atno 11005 bound_to 11000
  145.5685  141.0397  143.2187 LP  0  0  0  0  0  0  0  0  0  0  0  0  # atno 17320 bound_to 7965
  144.7502  139.7213  143.7276 LP  0  0  0  0  0  0  0  0  0  0  0  0  # atno 17321 bound_to 7965
  140.0204  144.6157  150.7571 LP  0  0  0  0  0  0  0  0  0  0  0  0  # atno 17342 bound_to 10162
  140.7404  143.2804  151.3615 LP  0  0  0  0  0  0  0  0  0  0  0  0  # atno 17343 bound_to 10162
  156.8628  130.5119  149.5302 LP  0  0  0  0  0  0  0  0  0  0  0  0  # atno 17370 bound_to 10713
  156.0859  130.5857  150.9646 LP  0  0  0  0  0  0  0  0  0  0  0  0  # atno 17371 bound_to 10713
  140.1337  134.5061  155.8085 LP  0  0  0  0  0  0  0  0  0  0  0  0  # atno 17394 bound_to 11000
  141.2172  133.6799  156.7086 LP  0  0  0  0  0  0  0  0  0  0  0  0  # atno 17395 bound_to 11000

$$$$
