AV-unprocessed.smi:2734|AV-procd|sdf|10538|dock8
  -GOLD-   2272014583D 1   1.00000     0.00000
 Structure written by MMmdl.
 40 42  0  0  0  0  0  0  0  0  1 V2000
  151.3620  143.9429  158.3116 C   0  0  0  0  0  0  0  0  0  0  0  0
  151.4492  142.5279  157.7673 C   0  0  0  0  0  0  0  0  0  0  0  0
  150.8643  142.2364  156.5144 C   0  0  0  0  0  0  0  0  0  0  0  0
  150.9192  140.9323  155.9755 C   0  0  0  0  0  0  0  0  0  0  0  0
  150.4158  140.4285  154.7884 N   0  0  0  0  0  0  0  0  0  0  0  0
  150.7827  139.1524  154.8617 C   0  0  0  0  0  0  0  0  0  0  0  0
  151.4648  138.7687  155.9578 N   0  0  0  0  0  0  0  0  0  0  0  0
  151.9574  137.4360  156.2555 C   0  0  0  0  0  0  0  0  0  0  0  0
  151.0500  136.3259  155.6892 C   0  0  1  0  0  0  0  0  0  0  0  0
  151.2804  136.2470  154.2973 O   0  0  0  0  0  0  0  0  0  0  0  0
  151.2954  134.9440  156.3234 C   0  0  0  0  0  0  0  0  0  0  0  0
  150.7667  133.5816  155.2415 S   0  0  0  0  0  0  0  0  0  0  0  0
  151.1295  132.2108  156.2953 C   0  0  0  0  0  0  0  0  0  0  0  0
  151.4272  132.2619  157.5890 N   0  0  0  0  0  0  0  0  0  0  0  0
  151.6226  130.9397  157.9399 N   0  0  0  0  0  0  0  0  0  0  0  0
  151.4519  130.1508  156.9191 N   0  0  0  0  0  0  0  0  0  0  0  0
  151.1384  130.9431  155.8652 N   0  0  0  0  0  0  0  0  0  0  0  0
  150.8803  130.3796  154.5551 C   0  0  0  0  0  0  0  0  0  0  0  0
  151.5836  139.9207  156.7287 C   0  0  0  0  0  0  0  0  0  0  0  0
  152.1714  140.1990  157.9753 C   0  0  0  0  0  0  0  0  0  0  0  0
  152.1040  141.5061  158.5010 C   0  0  0  0  0  0  0  0  0  0  0  0
  152.7344  141.7939  159.8520 C   0  0  0  0  0  0  0  0  0  0  0  0
  150.8362  144.6035  157.6214 H   0  0  0  0  0  0  0  0  0  0  0  0
  152.3591  144.3533  158.4726 H   0  0  0  0  0  0  0  0  0  0  0  0
  150.8247  143.9539  159.2601 H   0  0  0  0  0  0  0  0  0  0  0  0
  150.3635  143.0136  155.9562 H   0  0  0  0  0  0  0  0  0  0  0  0
  150.5389  138.4538  154.0746 H   0  0  0  0  0  0  0  0  0  0  0  0
  152.9642  137.3458  155.8449 H   0  0  0  0  0  0  0  0  0  0  0  0
  152.0539  137.3356  157.3376 H   0  0  0  0  0  0  0  0  0  0  0  0
  150.0073  136.6087  155.8394 H   0  0  0  0  0  0  0  0  0  0  0  0
  150.4548  136.3621  153.8513 H   0  0  0  0  0  0  0  0  0  0  0  0
  152.3521  134.8244  156.5663 H   0  0  0  0  0  0  0  0  0  0  0  0
  150.7375  134.8552  157.2554 H   0  0  0  0  0  0  0  0  0  0  0  0
  149.8689  130.6365  154.2393 H   0  0  0  0  0  0  0  0  0  0  0  0
  150.9785  129.2936  154.5784 H   0  0  0  0  0  0  0  0  0  0  0  0
  151.5927  130.7842  153.8359 H   0  0  0  0  0  0  0  0  0  0  0  0
  152.6635  139.4109  158.5256 H   0  0  0  0  0  0  0  0  0  0  0  0
  153.1993  140.9017  160.2724 H   0  0  0  0  0  0  0  0  0  0  0  0
  151.9806  142.1424  160.5581 H   0  0  0  0  0  0  0  0  0  0  0  0
  153.5046  142.5600  159.7594 H   0  0  0  0  0  0  0  0  0  0  0  0
  1  2  1  0  0  0  0
  1 23  1  0  0  0  0
  1 24  1  0  0  0  0
  1 25  1  0  0  0  0
  2 21  1  0  0  0  0
  2  3  2  0  0  0  0
  3  4  1  0  0  0  0
  3 26  1  0  0  0  0
  4 19  2  0  0  0  0
  4  5  1  0  0  0  0
  5  6  2  0  0  0  0
  6  7  1  0  0  0  0
  6 27  1  0  0  0  0
  7  8  1  0  0  0  0
  7 19  1  0  0  0  0
  8  9  1  0  0  0  0
  8 28  1  0  0  0  0
  8 29  1  0  0  0  0
  9 10  1  0  0  0  0
  9 11  1  0  0  0  0
  9 30  1  0  0  0  0
 10 31  1  0  0  0  0
 11 12  1  0  0  0  0
 11 32  1  0  0  0  0
 11 33  1  0  0  0  0
 12 13  1  0  0  0  0
 13 17  1  0  0  0  0
 13 14  2  0  0  0  0
 14 15  1  0  0  0  0
 15 16  2  0  0  0  0
 16 17  1  0  0  0  0
 17 18  1  0  0  0  0
 18 34  1  0  0  0  0
 18 35  1  0  0  0  0
 18 36  1  0  0  0  0
 19 20  1  0  0  0  0
 20 21  2  0  0  0  0
 20 37  1  0  0  0  0
 21 22  1  0  0  0  0
 22 38  1  0  0  0  0
 22 39  1  0  0  0  0
 22 40  1  0  0  0  0
M  END
> <s_m_source_file>
AV-unprocessed.smi

> <i_m_source_file_index>
2734

> <i_lp_mmshare_version>
43012

> <i_f3d_flags>
0

> <s_epik_input>
W0NIM11jKFtjSF0xKWMoW0NIM10pW2NIXWMoYzEyKW4oW2NIXW4yKVtDSDJdW0NASF0oW09IXSlbQ0gyXVNjM25ubm4zW0NIM10=

> <s_epik_cmdline>
J2VwaWtfcHl0aG9uJywgJy1waCcsICc3LjAnLCAnLXRuJywgJzgnLCAnLW1hJywgJzIwMCcsICctbWV0YWxfYmluZGluZycsICctaW1hZScsICc8aW5maWxlLm1hZT4nLCAnLW9tYWUnLCAnPG91dGZpbGUubWFlPic=

> <r_lp_tautomer_probability>
1

> <r_epik_Ionization_Penalty>
0.105517

> <r_epik_Ionization_Penalty_Charging>
0

> <r_epik_Ionization_Penalty_Neutral>
0.105517

> <r_epik_State_Penalty>
0.0953887

> <r_epik_Charging_Adjusted_Penalty>
0.0953887

> <i_epik_Tot_Q>
0

> <i_epik_Tot_abs_Q>
0

> <r_epik_Metal_State_Penalty>
0.0808533

> <b_epik_Metal_Only>
0

> <s_lp_Force_Field>
OPLS_2005

> <r_lp_Energy>
9.84292

> <b_lp_Chiralities_Consistent>
1

> <s_lp_Variant>
AV-unprocessed.smi:2734-2

> <Gold.Version>
5.8.1

> <Gold.Id.Protein>
6NUR|6NUR_protein|mol2

> <Gold.PLP.Fitness>
48.0168

> <Gold.PLP.PLP>
-40.5516

> <Gold.PLP.part.hbond>
-4.3932

> <Gold.PLP.part.metal>
0.0000

> <Gold.PLP.part.buried>
-5.4860

> <Gold.PLP.part.nonpolar>
-30.9747

> <Gold.PLP.part.repulsive>
0.0932

> <Gold.PLP.ligand.clash>
0.0000

> <Gold.PLP.ligand.torsion>
0.8876

> <Gold.PLP.Chemscore.Hbond>
3.0653

> <Gold.PLP.Chemscore.CHOScore>
0.0000

> <Gold.PLP.Chemscore.Metal>
0.0000

> <Gold.Chemscore.Hbonds>
donor molecule, donor type, donor heavy atom, donor atom, acceptor molecule, acceptor atom, score
      P1  H  6896  6907       L1    14  1.00
      P1  H  7989  7998       L1     5  0.80
      P1  H 10752 10765       L1    10  0.80

> <Gold.PLP.Chemscore.Internal.Correction>
0.0448

> <Gold.Rescore>
     Score         DG    S(hbond)    S(metal)    S(lipo)     H(rot)  DE(clash)    DE(int)     intcor
     16.36     -17.33       2.86        0.00      82.07       2.85       0.08       0.89       ----

> <Gold.Chemscore.Fitness>
16.3617

> <Gold.Chemscore.DG>
-17.3348

> <Gold.Chemscore.ZeroCoef>
-5.4800

> <Gold.Chemscore.Hbond>
2.8552

> <Gold.Chemscore.Metal>
0.0000

> <Gold.Chemscore.Lipo>
82.0707

> <Gold.Chemscore.Internal_Hbond>
0.0000

> <Gold.Chemscore.DEClash>
0.0836

> <Gold.Chemscore.DEInternal>
0.8896

> <Gold.Chemscore.Rot>
2.8452

> <Gold.Chemscore.Internal.Correction>
   9.000000E+99

> <Gold.Chemscore.Hbonds>
donor molecule, donor type, donor heavy atom, donor atom, acceptor molecule, acceptor atom, score
      P1  H  6896  6907       L1    14  0.69
      P1  H  7989  7998       L1     5  0.06
      P1  H 10752 10765       L1    10  0.12

> <Gold.Chemscore.Hbond.Weighted>
-9.5363

> <Gold.Chemscore.Metal.Weighted>
-0.0000

> <Gold.Chemscore.Lipo.Weighted>
-9.6023

> <Gold.Chemscore.Internal_Hbond.Weighted>
0.0000

> <Gold.Chemscore.DEClash.Weighted>
0.0836

> <Gold.Chemscore.DEInternal.Weighted>
0.8896

> <Gold.Chemscore.Rot.Weighted>
7.2837

> <Gold.Chemscore.Internal.Correction.Weighted>
   9.000000E+99

> <Gold.Protein.RotatedTorsions>
[ 6907 6896 6895 6894 ] final -162.64 input  -60.11 | X-H torsion
[ 7974 7965 7964 7962 ] final  130.87 input  175.53 | X-H torsion
[ 8008 7997 7996 7995 ] final  175.16 input   59.86 | X-H torsion
[ 10167 10162 10161 10158 ] final  -57.16 input  -65.29 | X-H torsion
[ 10718 10713 10712 10709 ] final  149.16 input   66.30 | X-H torsion
[ 10763 10752 10751 10750 ] final  169.99 input  -60.55 | X-H torsion
[ 11005 11000 10999 10996 ] final   22.46 input  -57.11 | X-H torsion

> <Gold.Protein.ActiveResidues>
 VAL166  LYS551  ARG553  GLY616  TRP617  ASP618  TYR619  PRO620  LYS621  CYS622 
 ASP623  PHE694  ASN695  SER759  ASP760  ASP761  ALA762  ILE779  LEU786  VAL792 
 PHE793  MET794  SER795  GLU796  ALA797  LYS798  CYS799  TRP800  GLU811  SER814 

> <Gold.Protein.RotatedAtoms>
  151.3835  133.3813  159.2712 H   0  0  0  0  0  0  0  0  0  0  0  0  # atno 6907 bound_to 6896
  150.9559  134.8954  159.7711 H   0  0  0  0  0  0  0  0  0  0  0  0  # atno 6908 bound_to 6896
  152.5130  134.3792  159.9397 H   0  0  0  0  0  0  0  0  0  0  0  0  # atno 6909 bound_to 6896
  145.0133  139.4200  143.5234 H   0  0  0  0  0  0  0  0  0  0  0  0  # atno 7974 bound_to 7965
  156.0899  140.1416  156.9605 H   0  0  0  0  0  0  0  0  0  0  0  0  # atno 8008 bound_to 7997
  154.4636  140.0934  156.7006 H   0  0  0  0  0  0  0  0  0  0  0  0  # atno 8009 bound_to 7997
  155.4936  140.3449  155.4361 H   0  0  0  0  0  0  0  0  0  0  0  0  # atno 8010 bound_to 7997
  140.6274  143.2444  151.5327 H   0  0  0  0  0  0  0  0  0  0  0  0  # atno 10167 bound_to 10162
  157.2995  131.0868  151.1401 H   0  0  0  0  0  0  0  0  0  0  0  0  # atno 10718 bound_to 10713
  154.3911  135.2754  155.2154 H   0  0  0  0  0  0  0  0  0  0  0  0  # atno 10763 bound_to 10752
  154.4219  135.5998  153.6019 H   0  0  0  0  0  0  0  0  0  0  0  0  # atno 10764 bound_to 10752
  152.9832  135.5974  154.4167 H   0  0  0  0  0  0  0  0  0  0  0  0  # atno 10765 bound_to 10752
  140.3803  134.1928  155.7664 H   0  0  0  0  0  0  0  0  0  0  0  0  # atno 11005 bound_to 11000
  146.3473  139.9589  142.8719 LP  0  0  0  0  0  0  0  0  0  0  0  0  # atno 17320 bound_to 7965
  145.1994  140.9847  143.4165 LP  0  0  0  0  0  0  0  0  0  0  0  0  # atno 17321 bound_to 7965
  139.5493  144.2438  152.1500 LP  0  0  0  0  0  0  0  0  0  0  0  0  # atno 17342 bound_to 10162
  140.1673  144.4969  150.6599 LP  0  0  0  0  0  0  0  0  0  0  0  0  # atno 17343 bound_to 10162
  157.2765  130.6729  149.6045 LP  0  0  0  0  0  0  0  0  0  0  0  0  # atno 17370 bound_to 10713
  155.9671  130.4463  150.5535 LP  0  0  0  0  0  0  0  0  0  0  0  0  # atno 17371 bound_to 10713
  141.1926  133.8170  157.0834 LP  0  0  0  0  0  0  0  0  0  0  0  0  # atno 17394 bound_to 11000
  140.0484  134.9818  157.1091 LP  0  0  0  0  0  0  0  0  0  0  0  0  # atno 17395 bound_to 11000

$$$$
