AV-unprocessed.smi:767|AV-procd|sdf|3664|dock7
  -GOLD-   22720 1 73D 1   1.00000     0.00000
 Structure written by MMmdl.
 47 49  0  0  0  0  0  0  0  0  1 V2000
  152.0492  139.8814  156.7514 C   0  0  0  0  0  0  0  0  0  0  0  0
  150.9056  139.9705  155.7630 C   0  0  0  0  0  0  0  0  0  0  0  0
  150.2182  141.1861  155.5656 C   0  0  0  0  0  0  0  0  0  0  0  0
  149.1750  141.2207  154.6208 C   0  0  0  0  0  0  0  0  0  0  0  0
  148.8552  140.0419  153.9159 C   0  0  0  0  0  0  0  0  0  0  0  0
  147.7604  140.0342  152.8618 C   0  0  0  0  0  0  0  0  0  0  0  0
  146.5582  139.1357  153.2144 C   0  0  0  0  0  0  0  0  0  0  0  0
  146.8069  137.7281  152.9081 N   0  0  0  0  0  0  0  0  0  0  0  0
  145.9165  136.7359  153.0553 C   0  0  0  0  0  0  0  0  0  0  0  0
  144.7556  136.8987  153.4321 O   0  0  0  0  0  0  0  0  0  0  0  0
  146.4450  135.5396  152.7675 N   0  0  0  0  0  0  0  0  0  0  0  0
  145.7270  134.2807  152.9264 C   0  0  1  0  0  0  0  0  0  0  0  0
  145.3620  133.6274  151.5944 C   0  0  2  0  0  0  0  0  0  0  0  0
  144.0855  133.3375  150.8887 C   0  0  0  0  0  0  0  0  0  0  0  0
  144.3853  131.8649  150.5000 C   0  0  0  0  0  0  0  0  0  0  0  0
  145.5818  131.4966  151.2286 O   0  0  0  0  0  0  0  0  0  0  0  0
  145.5527  132.3339  152.3661 C   0  0  1  0  0  0  0  0  0  0  0  0
  146.6781  133.0437  153.1451 C   0  0  0  0  0  0  0  0  0  0  0  0
  148.0891  133.0429  152.5227 C   0  0  0  0  0  0  0  0  0  0  0  0
  146.8547  132.6136  154.6018 C   0  0  0  0  0  0  0  0  0  0  0  0
  149.5938  138.8736  154.2018 C   0  0  0  0  0  0  0  0  0  0  0  0
  150.5997  138.8327  155.1018 N   0  0  0  0  0  0  0  0  0  0  0  0
  152.4952  140.8621  156.9198 H   0  0  0  0  0  0  0  0  0  0  0  0
  152.8307  139.2156  156.3833 H   0  0  0  0  0  0  0  0  0  0  0  0
  151.6909  139.4983  157.7071 H   0  0  0  0  0  0  0  0  0  0  0  0
  150.4904  142.0754  156.1147 H   0  0  0  0  0  0  0  0  0  0  0  0
  148.6397  142.1403  154.4355 H   0  0  0  0  0  0  0  0  0  0  0  0
  147.4190  141.0582  152.7075 H   0  0  0  0  0  0  0  0  0  0  0  0
  148.1858  139.7112  151.9109 H   0  0  0  0  0  0  0  0  0  0  0  0
  146.3000  139.2583  154.2676 H   0  0  0  0  0  0  0  0  0  0  0  0
  145.6825  139.4604  152.6522 H   0  0  0  0  0  0  0  0  0  0  0  0
  147.7351  137.4897  152.5908 H   0  0  0  0  0  0  0  0  0  0  0  0
  147.4064  135.4916  152.4637 H   0  0  0  0  0  0  0  0  0  0  0  0
  144.8845  134.3292  153.6228 H   0  0  0  0  0  0  0  0  0  0  0  0
  146.1454  133.8088  150.8552 H   0  0  0  0  0  0  0  0  0  0  0  0
  143.2239  133.4187  151.5530 H   0  0  0  0  0  0  0  0  0  0  0  0
  143.9275  133.9761  150.0195 H   0  0  0  0  0  0  0  0  0  0  0  0
  143.5549  131.2143  150.7771 H   0  0  0  0  0  0  0  0  0  0  0  0
  144.5611  131.7530  149.4298 H   0  0  0  0  0  0  0  0  0  0  0  0
  144.7073  132.0747  153.0141 H   0  0  0  0  0  0  0  0  0  0  0  0
  148.5697  132.0711  152.6379 H   0  0  0  0  0  0  0  0  0  0  0  0
  148.7310  133.7788  153.0048 H   0  0  0  0  0  0  0  0  0  0  0  0
  148.1010  133.2661  151.4575 H   0  0  0  0  0  0  0  0  0  0  0  0
  147.2737  131.6097  154.6770 H   0  0  0  0  0  0  0  0  0  0  0  0
  145.9042  132.6074  155.1356 H   0  0  0  0  0  0  0  0  0  0  0  0
  147.5195  133.2900  155.1402 H   0  0  0  0  0  0  0  0  0  0  0  0
  149.3838  137.9508  153.6816 H   0  0  0  0  0  0  0  0  0  0  0  0
  1  2  1  0  0  0  0
  1 23  1  0  0  0  0
  1 24  1  0  0  0  0
  1 25  1  0  0  0  0
  2 22  1  0  0  0  0
  2  3  2  0  0  0  0
  3  4  1  0  0  0  0
  3 26  1  0  0  0  0
  4  5  2  0  0  0  0
  4 27  1  0  0  0  0
  5  6  1  0  0  0  0
  5 21  1  0  0  0  0
  6  7  1  0  0  0  0
  6 28  1  0  0  0  0
  6 29  1  0  0  0  0
  7  8  1  0  0  0  0
  7 30  1  0  0  0  0
  7 31  1  0  0  0  0
  8  9  1  0  0  0  0
  8 32  1  0  0  0  0
  9 10  2  0  0  0  0
  9 11  1  0  0  0  0
 11 12  1  0  0  0  0
 11 33  1  0  0  0  0
 12 18  1  0  0  0  0
 12 13  1  0  0  0  0
 12 34  1  0  0  0  0
 13 17  1  0  0  0  0
 13 14  1  0  0  0  0
 13 35  1  0  0  0  0
 14 15  1  0  0  0  0
 14 36  1  0  0  0  0
 14 37  1  0  0  0  0
 15 16  1  0  0  0  0
 15 38  1  0  0  0  0
 15 39  1  0  0  0  0
 16 17  1  0  0  0  0
 17 18  1  0  0  0  0
 17 40  1  0  0  0  0
 18 19  1  0  0  0  0
 18 20  1  0  0  0  0
 19 41  1  0  0  0  0
 19 42  1  0  0  0  0
 19 43  1  0  0  0  0
 20 44  1  0  0  0  0
 20 45  1  0  0  0  0
 20 46  1  0  0  0  0
 21 22  2  0  0  0  0
 21 47  1  0  0  0  0
M  END
> <s_m_source_file>
AV-unprocessed.smi

> <i_m_source_file_index>
767

> <i_lp_mmshare_version>
43012

> <i_f3d_flags>
0

> <s_epik_input>
W0NIM11jMVtjSF1bY0hdYyhbY0hdbjEpW0NIMl1bQ0gyXVtOSF1DKD1PKVtOSF1bQ0BIXTJDKFtDSDNdKShbQ0gzXSlbQ0BIXShbQ0BASF0yMylPW0NIMl1bQ0gyXTM=

> <s_epik_cmdline>
J2VwaWtfcHl0aG9uJywgJy1waCcsICc3LjAnLCAnLXRuJywgJzgnLCAnLW1hJywgJzIwMCcsICctbWV0YWxfYmluZGluZycsICctaW1hZScsICc8aW5maWxlLm1hZT4nLCAnLW9tYWUnLCAnPG91dGZpbGUubWFlPic=

> <r_epik_Ionization_Penalty>
0.0567523

> <r_epik_Ionization_Penalty_Charging>
0

> <r_epik_Ionization_Penalty_Neutral>
0.0567523

> <r_epik_State_Penalty>
0.0489186

> <r_epik_Charging_Adjusted_Penalty>
0.0489186

> <i_epik_Tot_Q>
0

> <i_epik_Tot_abs_Q>
0

> <r_epik_Metal_State_Penalty>
0.044622

> <b_epik_Metal_Only>
0

> <s_lp_Force_Field>
OPLS_2005

> <r_lp_Energy>
55.1366

> <b_lp_Chiralities_Consistent>
1

> <s_lp_Variant>
AV-unprocessed.smi:767-8

> <Gold.Version>
5.8.1

> <Gold.Id.Protein>
6NUR|6NUR_protein|mol2

> <Gold.PLP.Fitness>
41.7685

> <Gold.PLP.PLP>
-33.2344

> <Gold.PLP.part.hbond>
-2.0000

> <Gold.PLP.part.metal>
0.0000

> <Gold.PLP.part.buried>
3.6680

> <Gold.PLP.part.nonpolar>
-35.3735

> <Gold.PLP.part.repulsive>
0.3793

> <Gold.PLP.ligand.clash>
0.0000

> <Gold.PLP.ligand.torsion>
0.3603

> <Gold.PLP.Chemscore.Hbond>
1.9920

> <Gold.PLP.Chemscore.CHOScore>
1.0000

> <Gold.PLP.Chemscore.Metal>
0.0000

> <Gold.Chemscore.Hbonds>
donor molecule, donor type, donor heavy atom, donor atom, acceptor molecule, acceptor atom, score
      L1  H     8    32       P1  7948  1.00
      L1  H    11    33       P1  7948  1.00
      L1  C    21    47       P1  7948  1.00

> <Gold.PLP.Chemscore.Internal.Correction>
0.2788

> <Gold.Rescore>
     Score         DG    S(hbond)    S(metal)    S(lipo)     H(rot)  DE(clash)    DE(int)     intcor
     17.60     -19.41       1.92        0.00      95.84       1.45       1.46       0.35       ----

> <Gold.Chemscore.Fitness>
17.5957

> <Gold.Chemscore.DG>
-19.4056

> <Gold.Chemscore.ZeroCoef>
-5.4800

> <Gold.Chemscore.Hbond>
1.9231

> <Gold.Chemscore.Metal>
0.0000

> <Gold.Chemscore.Lipo>
95.8432

> <Gold.Chemscore.Internal_Hbond>
0.0000

> <Gold.Chemscore.DEClash>
1.4607

> <Gold.Chemscore.DEInternal>
0.3493

> <Gold.Chemscore.Rot>
1.4497

> <Gold.Chemscore.Internal.Correction>
   9.000000E+99

> <Gold.Chemscore.Hbonds>
donor molecule, donor type, donor heavy atom, donor atom, acceptor molecule, acceptor atom, score
      L1  H     8    32       P1  7948  0.95
      L1  H    11    33       P1  7948  0.98

> <Gold.Chemscore.Hbond.Weighted>
-6.4231

> <Gold.Chemscore.Metal.Weighted>
-0.0000

> <Gold.Chemscore.Lipo.Weighted>
-11.2137

> <Gold.Chemscore.Internal_Hbond.Weighted>
0.0000

> <Gold.Chemscore.DEClash.Weighted>
1.4607

> <Gold.Chemscore.DEInternal.Weighted>
0.3493

> <Gold.Chemscore.Rot.Weighted>
3.7112

> <Gold.Chemscore.Internal.Correction.Weighted>
   9.000000E+99

> <Gold.Protein.RotatedTorsions>
[ 6907 6896 6895 6894 ] final  133.42 input  -60.11 | X-H torsion
[ 7974 7965 7964 7962 ] final  113.34 input  175.53 | X-H torsion
[ 8008 7997 7996 7995 ] final -158.12 input   59.86 | X-H torsion
[ 10167 10162 10161 10158 ] final -135.11 input  -65.29 | X-H torsion
[ 10718 10713 10712 10709 ] final  -64.97 input   66.30 | X-H torsion
[ 10763 10752 10751 10750 ] final  -85.76 input  -60.55 | X-H torsion
[ 11005 11000 10999 10996 ] final  107.68 input  -57.11 | X-H torsion

> <Gold.Protein.ActiveResidues>
 VAL166  LYS551  ARG553  GLY616  TRP617  ASP618  TYR619  PRO620  LYS621  CYS622 
 ASP623  PHE694  ASN695  SER759  ASP760  ASP761  ALA762  ILE779  LEU786  VAL792 
 PHE793  MET794  SER795  GLU796  ALA797  LYS798  CYS799  TRP800  GLU811  SER814 

> <Gold.Protein.RotatedAtoms>
  152.3221  133.5865  159.5751 H   0  0  0  0  0  0  0  0  0  0  0  0  # atno 6907 bound_to 6896
  150.7377  133.9995  159.3642 H   0  0  0  0  0  0  0  0  0  0  0  0  # atno 6908 bound_to 6896
  151.7878  135.0744  160.0434 H   0  0  0  0  0  0  0  0  0  0  0  0  # atno 6909 bound_to 6896
  145.2182  139.2874  143.4232 H   0  0  0  0  0  0  0  0  0  0  0  0  # atno 7974 bound_to 7965
  155.7427  140.0816  157.2238 H   0  0  0  0  0  0  0  0  0  0  0  0  # atno 8008 bound_to 7997
  154.4020  140.1575  156.2690 H   0  0  0  0  0  0  0  0  0  0  0  0  # atno 8009 bound_to 7997
  155.9005  140.3410  155.6026 H   0  0  0  0  0  0  0  0  0  0  0  0  # atno 8010 bound_to 7997
  139.8812  143.6836  152.2627 H   0  0  0  0  0  0  0  0  0  0  0  0  # atno 10167 bound_to 10162
  156.0697  130.4240  150.1496 H   0  0  0  0  0  0  0  0  0  0  0  0  # atno 10718 bound_to 10713
  154.6147  135.5473  153.7511 H   0  0  0  0  0  0  0  0  0  0  0  0  # atno 10763 bound_to 10752
  153.0211  135.6398  154.1527 H   0  0  0  0  0  0  0  0  0  0  0  0  # atno 10764 bound_to 10752
  154.1464  135.2905  155.3127 H   0  0  0  0  0  0  0  0  0  0  0  0  # atno 10765 bound_to 10752
  139.8832  134.9408  156.5856 H   0  0  0  0  0  0  0  0  0  0  0  0  # atno 11005 bound_to 11000
  146.3382  140.2479  142.8597 LP  0  0  0  0  0  0  0  0  0  0  0  0  # atno 17320 bound_to 7965
  144.9791  140.8442  143.5408 LP  0  0  0  0  0  0  0  0  0  0  0  0  # atno 17321 bound_to 7965
  139.7194  144.7605  151.0980 LP  0  0  0  0  0  0  0  0  0  0  0  0  # atno 17342 bound_to 10162
  140.7744  143.5227  150.9517 LP  0  0  0  0  0  0  0  0  0  0  0  0  # atno 17343 bound_to 10162
  156.9549  130.9786  151.3491 LP  0  0  0  0  0  0  0  0  0  0  0  0  # atno 17370 bound_to 10713
  157.5761  130.8344  149.8458 LP  0  0  0  0  0  0  0  0  0  0  0  0  # atno 17371 bound_to 10713
  140.7994  133.8517  155.8714 LP  0  0  0  0  0  0  0  0  0  0  0  0  # atno 17394 bound_to 11000
  140.9606  134.1660  157.4657 LP  0  0  0  0  0  0  0  0  0  0  0  0  # atno 17395 bound_to 11000

$$$$
