AV-unprocessed.smi:1856|AV-procd|sdf|7533|dock5
  -GOLD-   22720 9243D 1   1.00000     0.00000
 Structure written by MMmdl.
 44 45  0  0  0  0  0  0  0  0  1 V2000
  147.0674  135.0877  161.0458 C   0  0  0  0  0  0  0  0  0  0  0  0
  148.2470  135.3461  160.0947 C   0  0  0  0  0  0  0  0  0  0  0  0
  148.5901  136.8379  159.9140 C   0  0  0  0  0  0  0  0  0  0  0  0
  149.7643  137.0684  158.9595 C   0  0  0  0  0  0  0  0  0  0  0  0
  150.2156  136.1334  158.2981 O   0  0  0  0  0  0  0  0  0  0  0  0
  150.2313  138.3243  158.8798 N   0  0  0  0  0  0  0  0  0  0  0  0
  151.2452  138.7862  157.9358 C   0  0  2  0  0  0  0  0  0  0  0  0
  152.5127  137.9274  158.0526 C   0  0  0  0  0  0  0  0  0  0  0  0
  151.5088  140.2450  158.2219 C   0  0  0  0  0  0  0  0  0  0  0  0
  151.9745  140.6454  159.4089 N   0  0  0  0  0  0  0  0  0  0  0  0
  152.0415  142.0160  159.2700 C   0  0  0  0  0  0  0  0  0  0  0  0
  152.4629  143.0114  160.1803 C   0  0  0  0  0  0  0  0  0  0  0  0
  152.4409  144.3720  159.8101 C   0  0  0  0  0  0  0  0  0  0  0  0
  151.9982  144.7551  158.5277 C   0  0  0  0  0  0  0  0  0  0  0  0
  151.5736  143.7783  157.6065 C   0  0  0  0  0  0  0  0  0  0  0  0
  151.5971  142.4213  157.9811 C   0  0  0  0  0  0  0  0  0  0  0  0
  151.2488  141.2408  157.3315 N   0  0  0  0  0  0  0  0  0  0  0  0
  150.7131  141.1573  155.9778 C   0  0  0  0  0  0  0  0  0  0  0  0
  149.1800  141.2974  155.9357 C   0  0  2  0  0  0  0  0  0  0  0  0
  148.6556  141.4556  154.5033 C   0  0  0  0  0  0  0  0  0  0  0  0
  148.7639  142.4168  156.6912 O   0  0  0  0  0  0  0  0  0  0  0  0
  146.9086  134.0180  161.1824 H   0  0  0  0  0  0  0  0  0  0  0  0
  146.1381  135.5094  160.6607 H   0  0  0  0  0  0  0  0  0  0  0  0
  147.2509  135.5242  162.0278 H   0  0  0  0  0  0  0  0  0  0  0  0
  149.1269  134.8303  160.4800 H   0  0  0  0  0  0  0  0  0  0  0  0
  148.0372  134.8916  159.1254 H   0  0  0  0  0  0  0  0  0  0  0  0
  147.7095  137.3781  159.5628 H   0  0  0  0  0  0  0  0  0  0  0  0
  148.8510  137.2711  160.8800 H   0  0  0  0  0  0  0  0  0  0  0  0
  149.7991  139.0281  159.4604 H   0  0  0  0  0  0  0  0  0  0  0  0
  150.8696  138.6519  156.9233 H   0  0  0  0  0  0  0  0  0  0  0  0
  153.2796  138.2662  157.3557 H   0  0  0  0  0  0  0  0  0  0  0  0
  152.2990  136.8826  157.8255 H   0  0  0  0  0  0  0  0  0  0  0  0
  152.9354  137.9689  159.0570 H   0  0  0  0  0  0  0  0  0  0  0  0
  152.8030  142.7274  161.1651 H   0  0  0  0  0  0  0  0  0  0  0  0
  152.7645  145.1252  160.5136 H   0  0  0  0  0  0  0  0  0  0  0  0
  151.9834  145.7994  158.2519 H   0  0  0  0  0  0  0  0  0  0  0  0
  151.2332  144.0692  156.6239 H   0  0  0  0  0  0  0  0  0  0  0  0
  151.1958  141.8916  155.3352 H   0  0  0  0  0  0  0  0  0  0  0  0
  150.9988  140.1890  155.5655 H   0  0  0  0  0  0  0  0  0  0  0  0
  148.7270  140.4104  156.3805 H   0  0  0  0  0  0  0  0  0  0  0  0
  148.9260  140.5946  153.8918 H   0  0  0  0  0  0  0  0  0  0  0  0
  149.0680  142.3453  154.0257 H   0  0  0  0  0  0  0  0  0  0  0  0
  147.5686  141.5416  154.4881 H   0  0  0  0  0  0  0  0  0  0  0  0
  148.5003  143.1001  156.0941 H   0  0  0  0  0  0  0  0  0  0  0  0
  1  2  1  0  0  0  0
  1 22  1  0  0  0  0
  1 23  1  0  0  0  0
  1 24  1  0  0  0  0
  2  3  1  0  0  0  0
  2 25  1  0  0  0  0
  2 26  1  0  0  0  0
  3  4  1  0  0  0  0
  3 27  1  0  0  0  0
  3 28  1  0  0  0  0
  4  5  2  0  0  0  0
  4  6  1  0  0  0  0
  6  7  1  0  0  0  0
  6 29  1  0  0  0  0
  7  8  1  0  0  0  0
  7  9  1  0  0  0  0
  7 30  1  0  0  0  0
  8 31  1  0  0  0  0
  8 32  1  0  0  0  0
  8 33  1  0  0  0  0
  9 17  1  0  0  0  0
  9 10  2  0  0  0  0
 10 11  1  0  0  0  0
 11 16  2  0  0  0  0
 11 12  1  0  0  0  0
 12 13  2  0  0  0  0
 12 34  1  0  0  0  0
 13 14  1  0  0  0  0
 13 35  1  0  0  0  0
 14 15  2  0  0  0  0
 14 36  1  0  0  0  0
 15 16  1  0  0  0  0
 15 37  1  0  0  0  0
 16 17  1  0  0  0  0
 17 18  1  0  0  0  0
 18 19  1  0  0  0  0
 18 38  1  0  0  0  0
 18 39  1  0  0  0  0
 19 20  1  0  0  0  0
 19 21  1  0  0  0  0
 19 40  1  0  0  0  0
 20 41  1  0  0  0  0
 20 42  1  0  0  0  0
 20 43  1  0  0  0  0
 21 44  1  0  0  0  0
M  END
> <s_m_source_file>
AV-unprocessed.smi

> <i_m_source_file_index>
1856

> <i_lp_mmshare_version>
43012

> <i_f3d_flags>
0

> <s_epik_input>
W0NIM11bQ0gyXVtDSDJdQyg9TylbTkhdW0NASF0oW0NIM10pYyhuMSluKFtDSDJdW0NASF0oW0NIM10pW09IXSljKGMxMilbY0hdW2NIXVtjSF1bY0hdMg==

> <s_epik_cmdline>
J2VwaWtfcHl0aG9uJywgJy1waCcsICc3LjAnLCAnLXRuJywgJzgnLCAnLW1hJywgJzIwMCcsICctbWV0YWxfYmluZGluZycsICctaW1hZScsICc8aW5maWxlLm1hZT4nLCAnLW9tYWUnLCAnPG91dGZpbGUubWFlPic=

> <r_epik_Ionization_Penalty>
0.134222

> <r_epik_Ionization_Penalty_Charging>
0

> <r_epik_Ionization_Penalty_Neutral>
0.134222

> <r_epik_State_Penalty>
0.123585

> <r_epik_Charging_Adjusted_Penalty>
0.123585

> <i_epik_Tot_Q>
0

> <i_epik_Tot_abs_Q>
0

> <r_epik_Metal_State_Penalty>
0.100548

> <b_epik_Metal_Only>
0

> <s_lp_Force_Field>
OPLS_2005

> <r_lp_Energy>
0.748352

> <b_lp_Chiralities_Consistent>
1

> <s_lp_Variant>
AV-unprocessed.smi:1856-1

> <Gold.Version>
5.8.1

> <Gold.Id.Protein>
6NUR|6NUR_protein|mol2

> <Gold.PLP.Fitness>
47.6832

> <Gold.PLP.PLP>
-43.2769

> <Gold.PLP.part.hbond>
-1.8619

> <Gold.PLP.part.metal>
0.0000

> <Gold.PLP.part.buried>
-5.6144

> <Gold.PLP.part.nonpolar>
-36.3812

> <Gold.PLP.part.repulsive>
0.2059

> <Gold.PLP.ligand.clash>
0.0000

> <Gold.PLP.ligand.torsion>
0.5239

> <Gold.PLP.Chemscore.Hbond>
1.7760

> <Gold.PLP.Chemscore.CHOScore>
0.0000

> <Gold.PLP.Chemscore.Metal>
0.0000

> <Gold.Chemscore.Hbonds>
donor molecule, donor type, donor heavy atom, donor atom, acceptor molecule, acceptor atom, score
      L1  H    21    44       P1  8028  0.83
      P1  H  6896  6907       L1     5  0.91

> <Gold.PLP.Chemscore.Internal.Correction>
0.1260

> <Gold.Rescore>
     Score         DG    S(hbond)    S(metal)    S(lipo)     H(rot)  DE(clash)    DE(int)     intcor
     17.04     -18.99       1.87        0.00     115.72       2.45       0.21       1.74       ----

> <Gold.Chemscore.Fitness>
17.0378

> <Gold.Chemscore.DG>
-18.9900

> <Gold.Chemscore.ZeroCoef>
-5.4800

> <Gold.Chemscore.Hbond>
1.8661

> <Gold.Chemscore.Metal>
0.0000

> <Gold.Chemscore.Lipo>
115.7160

> <Gold.Chemscore.Internal_Hbond>
0.0000

> <Gold.Chemscore.DEClash>
0.2114

> <Gold.Chemscore.DEInternal>
1.7408

> <Gold.Chemscore.Rot>
2.4459

> <Gold.Chemscore.Internal.Correction>
   9.000000E+99

> <Gold.Chemscore.Hbonds>
donor molecule, donor type, donor heavy atom, donor atom, acceptor molecule, acceptor atom, score
      L1  H    21    44       P1  8028  0.78
      P1  H  6896  6907       L1     5  0.51

> <Gold.Chemscore.Hbond.Weighted>
-6.2327

> <Gold.Chemscore.Metal.Weighted>
-0.0000

> <Gold.Chemscore.Lipo.Weighted>
-13.5388

> <Gold.Chemscore.Internal_Hbond.Weighted>
0.0000

> <Gold.Chemscore.DEClash.Weighted>
0.2114

> <Gold.Chemscore.DEInternal.Weighted>
1.7408

> <Gold.Chemscore.Rot.Weighted>
6.2614

> <Gold.Chemscore.Internal.Correction.Weighted>
   9.000000E+99

> <Gold.Protein.RotatedTorsions>
[ 6907 6896 6895 6894 ] final  -60.96 input  -60.11 | X-H torsion
[ 7974 7965 7964 7962 ] final  -13.42 input  175.53 | X-H torsion
[ 8008 7997 7996 7995 ] final  -44.53 input   59.86 | X-H torsion
[ 10167 10162 10161 10158 ] final  -12.19 input  -65.29 | X-H torsion
[ 10718 10713 10712 10709 ] final -138.24 input   66.30 | X-H torsion
[ 10763 10752 10751 10750 ] final  163.32 input  -60.55 | X-H torsion
[ 11005 11000 10999 10996 ] final  -15.86 input  -57.11 | X-H torsion

> <Gold.Protein.ActiveResidues>
 VAL166  LYS551  ARG553  GLY616  TRP617  ASP618  TYR619  PRO620  LYS621  CYS622 
 ASP623  PHE694  ASN695  SER759  ASP760  ASP761  ALA762  ILE779  LEU786  VAL792 
 PHE793  MET794  SER795  GLU796  ALA797  LYS798  CYS799  TRP800  GLU811  SER814 

> <Gold.Protein.RotatedAtoms>
  150.7818  134.6767  159.6421 H   0  0  0  0  0  0  0  0  0  0  0  0  # atno 6907 bound_to 6896
  152.3905  134.6446  160.0118 H   0  0  0  0  0  0  0  0  0  0  0  0  # atno 6908 bound_to 6896
  151.6748  133.3276  159.3241 H   0  0  0  0  0  0  0  0  0  0  0  0  # atno 6909 bound_to 6896
  146.2115  140.3201  142.8389 H   0  0  0  0  0  0  0  0  0  0  0  0  # atno 7974 bound_to 7965
  154.3998  140.1419  156.3699 H   0  0  0  0  0  0  0  0  0  0  0  0  # atno 8008 bound_to 7997
  155.8102  140.3473  155.5432 H   0  0  0  0  0  0  0  0  0  0  0  0  # atno 8009 bound_to 7997
  155.8394  140.0924  157.1734 H   0  0  0  0  0  0  0  0  0  0  0  0  # atno 8010 bound_to 7997
  140.7155  143.5559  150.9249 H   0  0  0  0  0  0  0  0  0  0  0  0  # atno 10167 bound_to 10162
  156.2971  130.7408  151.1450 H   0  0  0  0  0  0  0  0  0  0  0  0  # atno 10718 bound_to 10713
  154.2919  135.2761  155.2650 H   0  0  0  0  0  0  0  0  0  0  0  0  # atno 10763 bound_to 10752
  154.5126  135.5778  153.6620 H   0  0  0  0  0  0  0  0  0  0  0  0  # atno 10764 bound_to 10752
  152.9913  135.6184  154.3085 H   0  0  0  0  0  0  0  0  0  0  0  0  # atno 10765 bound_to 10752
  140.8010  133.8214  155.9470 H   0  0  0  0  0  0  0  0  0  0  0  0  # atno 11005 bound_to 11000
  144.8926  140.7543  143.5917 LP  0  0  0  0  0  0  0  0  0  0  0  0  # atno 17320 bound_to 7965
  145.3124  139.1814  143.4632 LP  0  0  0  0  0  0  0  0  0  0  0  0  # atno 17321 bound_to 7965
  139.9284  143.6522  152.3082 LP  0  0  0  0  0  0  0  0  0  0  0  0  # atno 17342 bound_to 10162
  139.6964  144.7641  151.1349 LP  0  0  0  0  0  0  0  0  0  0  0  0  # atno 17343 bound_to 10162
  157.7358  131.0568  150.5448 LP  0  0  0  0  0  0  0  0  0  0  0  0  # atno 17370 bound_to 10713
  156.5571  130.4246  149.6080 LP  0  0  0  0  0  0  0  0  0  0  0  0  # atno 17371 bound_to 10713
  140.9295  134.2040  157.4873 LP  0  0  0  0  0  0  0  0  0  0  0  0  # atno 17394 bound_to 11000
  139.8722  134.9827  156.5166 LP  0  0  0  0  0  0  0  0  0  0  0  0  # atno 17395 bound_to 11000

$$$$
