AV-unprocessed.smi:826|AV-procd|sdf|3852|dock10
  -GOLD-   22720 1303D 1   1.00000     0.00000
 Structure written by MMmdl.
 39 40  0  0  0  0  0  0  0  0  1 V2000
  150.7816  141.5394  156.2449 C   0  0  0  0  0  0  0  0  0  0  0  0
  150.2839  140.1542  156.0113 C   0  0  0  0  0  0  0  0  0  0  0  0
  149.7620  139.4022  156.9877 N   0  0  0  0  0  0  0  0  0  0  0  0
  149.3708  138.1497  156.5350 N   0  0  0  0  0  0  0  0  0  0  0  0
  149.6094  137.9943  155.2256 C   0  0  0  0  0  0  0  0  0  0  0  0
  149.3139  136.8076  154.5044 N   0  0  0  0  0  0  0  0  0  0  0  0
  148.9101  135.6187  154.9850 C   0  0  0  0  0  0  0  0  0  0  0  0
  148.6968  135.3637  156.1708 O   0  0  0  0  0  0  0  0  0  0  0  0
  148.7605  134.7222  153.9982 N   0  0  0  0  0  0  0  0  0  0  0  0
  148.3134  133.3417  154.1758 C   0  0  2  0  0  0  0  0  0  0  0  0
  149.5038  132.4135  153.8826 C   0  0  0  0  0  0  0  0  0  0  0  0
  147.1907  133.0121  153.1799 C   0  0  0  0  0  0  0  0  0  0  0  0
  146.5659  131.9536  153.2676 O   0  0  0  0  0  0  0  0  0  0  0  0
  146.9414  133.9372  152.2409 N   0  0  0  0  0  0  0  0  0  0  0  0
  145.9300  133.8173  151.1949 C   0  0  0  0  0  0  0  0  0  0  0  0
  144.5447  133.4649  151.7772 C   0  0  0  0  0  0  0  0  0  0  0  0
  144.0351  132.2709  150.9679 C   0  0  0  0  0  0  0  0  0  0  0  0
  145.3031  131.5463  150.5281 C   0  0  0  0  0  0  0  0  0  0  0  0
  146.2874  132.6760  150.2254 C   0  0  0  0  0  0  0  0  0  0  0  0
  150.3345  139.3814  154.4313 S   0  0  0  0  0  0  0  0  0  0  0  0
  151.4338  141.5627  157.1182 H   0  0  0  0  0  0  0  0  0  0  0  0
  149.9422  142.2141  156.4140 H   0  0  0  0  0  0  0  0  0  0  0  0
  151.3454  141.8916  155.3808 H   0  0  0  0  0  0  0  0  0  0  0  0
  149.4365  136.8675  153.5045 H   0  0  0  0  0  0  0  0  0  0  0  0
  148.9486  135.0187  153.0519 H   0  0  0  0  0  0  0  0  0  0  0  0
  147.9717  133.1867  155.2013 H   0  0  0  0  0  0  0  0  0  0  0  0
  149.2262  131.3648  153.9971 H   0  0  0  0  0  0  0  0  0  0  0  0
  150.3260  132.6069  154.5724 H   0  0  0  0  0  0  0  0  0  0  0  0
  149.8860  132.5482  152.8692 H   0  0  0  0  0  0  0  0  0  0  0  0
  147.5033  134.7763  152.2398 H   0  0  0  0  0  0  0  0  0  0  0  0
  145.8790  134.7528  150.6347 H   0  0  0  0  0  0  0  0  0  0  0  0
  144.6298  133.1717  152.8251 H   0  0  0  0  0  0  0  0  0  0  0  0
  143.8554  134.3087  151.7360 H   0  0  0  0  0  0  0  0  0  0  0  0
  143.3619  131.6322  151.5401 H   0  0  0  0  0  0  0  0  0  0  0  0
  143.4928  132.6261  150.0904 H   0  0  0  0  0  0  0  0  0  0  0  0
  145.6823  130.9367  151.3495 H   0  0  0  0  0  0  0  0  0  0  0  0
  145.1390  130.8908  149.6723 H   0  0  0  0  0  0  0  0  0  0  0  0
  146.1339  133.0160  149.2003 H   0  0  0  0  0  0  0  0  0  0  0  0
  147.3255  132.3496  150.3004 H   0  0  0  0  0  0  0  0  0  0  0  0
  1  2  1  0  0  0  0
  1 21  1  0  0  0  0
  1 22  1  0  0  0  0
  1 23  1  0  0  0  0
  2 20  1  0  0  0  0
  2  3  2  0  0  0  0
  3  4  1  0  0  0  0
  4  5  2  0  0  0  0
  5  6  1  0  0  0  0
  5 20  1  0  0  0  0
  6  7  1  0  0  0  0
  6 24  1  0  0  0  0
  7  8  2  0  0  0  0
  7  9  1  0  0  0  0
  9 10  1  0  0  0  0
  9 25  1  0  0  0  0
 10 11  1  0  0  0  0
 10 12  1  0  0  0  0
 10 26  1  0  0  0  0
 11 27  1  0  0  0  0
 11 28  1  0  0  0  0
 11 29  1  0  0  0  0
 12 13  2  0  0  0  0
 12 14  1  0  0  0  0
 14 15  1  0  0  0  0
 14 30  1  0  0  0  0
 15 19  1  0  0  0  0
 15 16  1  0  0  0  0
 15 31  1  0  0  0  0
 16 17  1  0  0  0  0
 16 32  1  0  0  0  0
 16 33  1  0  0  0  0
 17 18  1  0  0  0  0
 17 34  1  0  0  0  0
 17 35  1  0  0  0  0
 18 19  1  0  0  0  0
 18 36  1  0  0  0  0
 18 37  1  0  0  0  0
 19 38  1  0  0  0  0
 19 39  1  0  0  0  0
M  END
> <s_m_source_file>
AV-unprocessed.smi

> <i_m_source_file_index>
826

> <i_lp_mmshare_version>
43012

> <i_f3d_flags>
0

> <s_epik_input>
W0NIM11jMW5uYyhzMSlbTkhdQyg9TylbTkhdW0NASF0oW0NIM10pQyg9TylbTkhdW0NIXTJbQ0gyXVtDSDJdW0NIMl1bQ0gyXTI=

> <s_epik_cmdline>
J2VwaWtfcHl0aG9uJywgJy1waCcsICc3LjAnLCAnLXRuJywgJzgnLCAnLW1hJywgJzIwMCcsICctbWV0YWxfYmluZGluZycsICctaW1hZScsICc8aW5maWxlLm1hZT4nLCAnLW9tYWUnLCAnPG91dGZpbGUubWFlPic=

> <r_lp_tautomer_probability>
1

> <r_epik_Ionization_Penalty>
0.00368568

> <r_epik_Ionization_Penalty_Charging>
0

> <r_epik_Ionization_Penalty_Neutral>
0.00368568

> <r_epik_State_Penalty>
-0

> <r_epik_Charging_Adjusted_Penalty>
0

> <i_epik_Tot_Q>
0

> <i_epik_Tot_abs_Q>
0

> <r_epik_Metal_State_Penalty>
0.369753

> <b_epik_Metal_Only>
0

> <s_lp_Force_Field>
OPLS_2005

> <r_lp_Energy>
15.7146

> <b_lp_Chiralities_Consistent>
1

> <s_lp_Variant>
AV-unprocessed.smi:826-1

> <Gold.Version>
5.8.1

> <Gold.Id.Protein>
6NUR|6NUR_protein|mol2

> <Gold.PLP.Fitness>
39.2966

> <Gold.PLP.PLP>
-31.3652

> <Gold.PLP.part.hbond>
-3.0000

> <Gold.PLP.part.metal>
0.0000

> <Gold.PLP.part.buried>
-3.0789

> <Gold.PLP.part.nonpolar>
-24.8177

> <Gold.PLP.part.repulsive>
0.1896

> <Gold.PLP.ligand.clash>
0.0000

> <Gold.PLP.ligand.torsion>
0.3226

> <Gold.PLP.Chemscore.Hbond>
2.8513

> <Gold.PLP.Chemscore.CHOScore>
0.0000

> <Gold.PLP.Chemscore.Metal>
0.0000

> <Gold.Chemscore.Hbonds>
donor molecule, donor type, donor heavy atom, donor atom, acceptor molecule, acceptor atom, score
      L1  H     6    24       P1  7948  0.96
      L1  H     9    25       P1  7948  0.90
      L1  H    14    30       P1  7948  0.96

> <Gold.PLP.Chemscore.Internal.Correction>
0.0229

> <Gold.Rescore>
     Score         DG    S(hbond)    S(metal)    S(lipo)     H(rot)  DE(clash)    DE(int)     intcor
     12.56     -15.85       1.97        0.00      68.42       1.65       0.08       3.21       ----

> <Gold.Chemscore.Fitness>
12.5567

> <Gold.Chemscore.DG>
-15.8533

> <Gold.Chemscore.ZeroCoef>
-5.4800

> <Gold.Chemscore.Hbond>
1.9706

> <Gold.Chemscore.Metal>
0.0000

> <Gold.Chemscore.Lipo>
68.4173

> <Gold.Chemscore.Internal_Hbond>
0.0000

> <Gold.Chemscore.DEClash>
0.0844

> <Gold.Chemscore.DEInternal>
3.2123

> <Gold.Chemscore.Rot>
1.6458

> <Gold.Chemscore.Internal.Correction>
   9.000000E+99

> <Gold.Chemscore.Hbonds>
donor molecule, donor type, donor heavy atom, donor atom, acceptor molecule, acceptor atom, score
      L1  H     6    24       P1  7948  0.84
      L1  H     9    25       P1  7948  0.17
      L1  H    14    30       P1  7948  0.79

> <Gold.Chemscore.Hbond.Weighted>
-6.5818

> <Gold.Chemscore.Metal.Weighted>
-0.0000

> <Gold.Chemscore.Lipo.Weighted>
-8.0048

> <Gold.Chemscore.Internal_Hbond.Weighted>
0.0000

> <Gold.Chemscore.DEClash.Weighted>
0.0844

> <Gold.Chemscore.DEInternal.Weighted>
3.2123

> <Gold.Chemscore.Rot.Weighted>
4.2133

> <Gold.Chemscore.Internal.Correction.Weighted>
   9.000000E+99

> <Gold.Protein.RotatedTorsions>
[ 6907 6896 6895 6894 ] final -132.55 input  -60.11 | X-H torsion
[ 7974 7965 7964 7962 ] final  118.80 input  175.53 | X-H torsion
[ 8008 7997 7996 7995 ] final   98.21 input   59.86 | X-H torsion
[ 10167 10162 10161 10158 ] final -149.78 input  -65.29 | X-H torsion
[ 10718 10713 10712 10709 ] final -127.10 input   66.30 | X-H torsion
[ 10763 10752 10751 10750 ] final  -40.99 input  -60.55 | X-H torsion
[ 11005 11000 10999 10996 ] final   62.12 input  -57.11 | X-H torsion

> <Gold.Protein.ActiveResidues>
 VAL166  LYS551  ARG553  GLY616  TRP617  ASP618  TYR619  PRO620  LYS621  CYS622 
 ASP623  PHE694  ASN695  SER759  ASP760  ASP761  ALA762  ILE779  LEU786  VAL792 
 PHE793  MET794  SER795  GLU796  ALA797  LYS798  CYS799  TRP800  GLU811  SER814 

> <Gold.Protein.RotatedAtoms>
  150.9637  133.6418  159.2749 H   0  0  0  0  0  0  0  0  0  0  0  0  # atno 6907 bound_to 6896
  151.3731  135.0925  159.9481 H   0  0  0  0  0  0  0  0  0  0  0  0  # atno 6908 bound_to 6896
  152.5157  133.9187  159.7578 H   0  0  0  0  0  0  0  0  0  0  0  0  # atno 6909 bound_to 6896
  145.1509  139.3211  143.4567 H   0  0  0  0  0  0  0  0  0  0  0  0  # atno 7974 bound_to 7965
  156.0981  140.3247  155.7905 H   0  0  0  0  0  0  0  0  0  0  0  0  # atno 8008 bound_to 7997
  155.4883  140.0559  157.2974 H   0  0  0  0  0  0  0  0  0  0  0  0  # atno 8009 bound_to 7997
  154.4679  140.1998  156.0085 H   0  0  0  0  0  0  0  0  0  0  0  0  # atno 8010 bound_to 7997
  139.7412  143.8659  152.2563 H   0  0  0  0  0  0  0  0  0  0  0  0  # atno 10167 bound_to 10162
  156.1826  130.6742  151.0324 H   0  0  0  0  0  0  0  0  0  0  0  0  # atno 10718 bound_to 10713
  153.9551  135.6746  153.4744 H   0  0  0  0  0  0  0  0  0  0  0  0  # atno 10763 bound_to 10752
  153.0865  135.4896  154.8604 H   0  0  0  0  0  0  0  0  0  0  0  0  # atno 10764 bound_to 10752
  154.7303  135.3137  154.8861 H   0  0  0  0  0  0  0  0  0  0  0  0  # atno 10765 bound_to 10752
  140.0114  134.6291  155.9775 H   0  0  0  0  0  0  0  0  0  0  0  0  # atno 11005 bound_to 11000
  146.3494  140.1582  142.8591 LP  0  0  0  0  0  0  0  0  0  0  0  0  # atno 17320 bound_to 7965
  145.0432  140.8961  143.5040 LP  0  0  0  0  0  0  0  0  0  0  0  0  # atno 17321 bound_to 7965
  139.8610  144.7117  150.9100 LP  0  0  0  0  0  0  0  0  0  0  0  0  # atno 17342 bound_to 10162
  140.7786  143.3818  151.1464 LP  0  0  0  0  0  0  0  0  0  0  0  0  # atno 17343 bound_to 10162
  157.6878  131.0819  150.7194 LP  0  0  0  0  0  0  0  0  0  0  0  0  # atno 17370 bound_to 10713
  156.7251  130.4692  149.5513 LP  0  0  0  0  0  0  0  0  0  0  0  0  # atno 17371 bound_to 10713
  141.1713  133.6537  156.4663 LP  0  0  0  0  0  0  0  0  0  0  0  0  # atno 17394 bound_to 11000
  140.4548  134.6895  157.5057 LP  0  0  0  0  0  0  0  0  0  0  0  0  # atno 17395 bound_to 11000

$$$$
