AV-unprocessed.smi:3261|AV-procd|sdf|12481|dock10
  -GOLD-   2272018383D 1   1.00000     0.00000
 Structure written by MMmdl.
 31 32  0  0  0  0  0  0  0  0  2 V2000
  146.6668  132.2930  153.8241 O   0  0  0  0  0  0  0  0  0  0  0  0
  147.4354  131.9471  152.9299 C   0  0  0  0  0  0  0  0  0  0  0  0
  147.1379  131.9552  151.6151 N   0  0  0  0  0  0  0  0  0  0  0  0
  145.9494  132.3915  150.9679 C   0  0  0  0  0  0  0  0  0  0  0  0
  145.0412  133.1608  151.7288 C   0  0  0  0  0  0  0  0  0  0  0  0
  143.8395  133.6045  151.1399 C   0  0  0  0  0  0  0  0  0  0  0  0
  143.5613  133.2845  149.8582 N   0  3  0  0  0  0  0  0  0  0  0  0
  144.3906  132.5412  149.0948 C   0  0  0  0  0  0  0  0  0  0  0  0
  145.6071  132.0696  149.6292 C   0  0  0  0  0  0  0  0  0  0  0  0
  148.6685  131.4902  153.2149 N   0  0  0  0  0  0  0  0  0  0  0  0
  149.3049  131.3498  154.5258 C   0  0  1  0  0  0  0  0  0  0  0  0
  150.7352  130.7956  154.3889 C   0  0  0  0  0  0  0  0  0  0  0  0
  151.4728  131.0018  155.7181 C   0  0  0  0  0  0  0  0  0  0  0  0
  150.7563  132.5124  156.4705 S   0  0  0  0  0  0  0  0  0  0  0  0
  150.1958  132.1695  157.7862 O   0  0  0  0  0  0  0  0  0  0  0  0
  151.6920  133.6361  156.3147 O   0  0  0  0  0  0  0  0  0  0  0  0
  149.3930  132.6965  155.2613 C   0  0  0  0  0  0  0  0  0  0  0  0
  147.8407  131.5624  151.0059 H   0  0  0  0  0  0  0  0  0  0  0  0
  145.2620  133.4148  152.7557 H   0  0  0  0  0  0  0  0  0  0  0  0
  143.0975  134.1994  151.6523 H   0  0  0  0  0  0  0  0  0  0  0  0
  144.0565  132.3417  148.0870 H   0  0  0  0  0  0  0  0  0  0  0  0
  146.2422  131.4617  149.0039 H   0  0  0  0  0  0  0  0  0  0  0  0
  149.2236  131.1867  152.4274 H   0  0  0  0  0  0  0  0  0  0  0  0
  148.7439  130.6463  155.1434 H   0  0  0  0  0  0  0  0  0  0  0  0
  150.7374  129.7466  154.0910 H   0  0  0  0  0  0  0  0  0  0  0  0
  151.2623  131.3477  153.6093 H   0  0  0  0  0  0  0  0  0  0  0  0
  151.2884  130.1687  156.3969 H   0  0  0  0  0  0  0  0  0  0  0  0
  152.5496  131.1163  155.5933 H   0  0  0  0  0  0  0  0  0  0  0  0
  149.6641  133.5021  154.5776 H   0  0  0  0  0  0  0  0  0  0  0  0
  148.4719  132.9713  155.7752 H   0  0  0  0  0  0  0  0  0  0  0  0
  142.6856  133.6135  149.4509 H   0  0  0  0  0  0  0  0  0  0  0  0
  1  2  2  0  0  0  0
  2  3  1  0  0  0  0
  2 10  1  0  0  0  0
  3  4  1  0  0  0  0
  3 18  1  0  0  0  0
  4  9  1  0  0  0  0
  4  5  2  0  0  0  0
  5  6  1  0  0  0  0
  5 19  1  0  0  0  0
  6  7  2  0  0  0  0
  6 20  1  0  0  0  0
  7  8  1  0  0  0  0
  7 31  1  0  0  0  0
  8  9  2  0  0  0  0
  8 21  1  0  0  0  0
  9 22  1  0  0  0  0
 10 11  1  0  0  0  0
 10 23  1  0  0  0  0
 11 17  1  0  0  0  0
 11 12  1  0  0  0  0
 11 24  1  0  0  0  0
 12 13  1  0  0  0  0
 12 25  1  0  0  0  0
 12 26  1  0  0  0  0
 13 14  1  0  0  0  0
 13 27  1  0  0  0  0
 13 28  1  0  0  0  0
 14 15  2  0  0  0  0
 14 16  2  0  0  0  0
 14 17  1  0  0  0  0
 17 29  1  0  0  0  0
 17 30  1  0  0  0  0
M  CHG  1   7   1
M  END
> <s_m_source_file>
AV-unprocessed.smi

> <i_m_source_file_index>
3261

> <i_lp_mmshare_version>
43012

> <i_f3d_flags>
0

> <s_epik_input>
Tz1TMSg9TylbQ0gyXVtDSDJdW0NASF0oW0NIMl0xKVtOSF1DKD1PKVtOSF1jMltjSF1bY0hdbltjSF1bY0hdMg==

> <s_epik_cmdline>
J2VwaWtfcHl0aG9uJywgJy1waCcsICc3LjAnLCAnLXRuJywgJzgnLCAnLW1hJywgJzIwMCcsICctbWV0YWxfYmluZGluZycsICctaW1hZScsICc8aW5maWxlLm1hZT4nLCAnLW9tYWUnLCAnPG91dGZpbGUubWFlPic=

> <r_epik_Ionization_Penalty>
1.10375

> <r_epik_Ionization_Penalty_Charging>
1.10372

> <r_epik_Ionization_Penalty_Neutral>
2.06752e-05

> <r_epik_State_Penalty>
1.16109

> <r_epik_Charging_Adjusted_Penalty>
2.26482

> <i_epik_Tot_Q>
1

> <i_epik_Tot_abs_Q>
1

> <r_epik_Metal_State_Penalty>
1.24883

> <b_epik_Metal_Only>
0

> <s_lp_Force_Field>
OPLS_2005

> <r_lp_Energy>
25.5271

> <b_lp_Chiralities_Consistent>
1

> <s_lp_Variant>
AV-unprocessed.smi:3261-4

> <Gold.Version>
5.8.1

> <Gold.Id.Protein>
6NUR|6NUR_protein|mol2

> <Gold.PLP.Fitness>
41.3007

> <Gold.PLP.PLP>
-28.3249

> <Gold.PLP.part.hbond>
-3.7168

> <Gold.PLP.part.metal>
0.0000

> <Gold.PLP.part.buried>
-3.8749

> <Gold.PLP.part.nonpolar>
-20.2768

> <Gold.PLP.part.repulsive>
0.1906

> <Gold.PLP.ligand.clash>
0.0000

> <Gold.PLP.ligand.torsion>
0.0494

> <Gold.PLP.Chemscore.Hbond>
4.3580

> <Gold.PLP.Chemscore.CHOScore>
0.0000

> <Gold.PLP.Chemscore.Metal>
0.0000

> <Gold.Chemscore.Hbonds>
donor molecule, donor type, donor heavy atom, donor atom, acceptor molecule, acceptor atom, score
      L1  H     3    18       P1 10747  0.99
      L1  H     7    31       P1 10186  2.00
      L1  H    10    23       P1 10747  0.55
      P1  H  6896  6909       L1    15  0.75

> <Gold.PLP.Chemscore.Internal.Correction>
0.0005

> <Gold.Rescore>
     Score         DG    S(hbond)    S(metal)    S(lipo)     H(rot)  DE(clash)    DE(int)     intcor
     19.17     -23.45       3.77        0.00      67.74       1.00       2.82       1.46       ----

> <Gold.Chemscore.Fitness>
19.1672

> <Gold.Chemscore.DG>
-23.4495

> <Gold.Chemscore.ZeroCoef>
-5.4800

> <Gold.Chemscore.Hbond>
3.7737

> <Gold.Chemscore.Metal>
0.0000

> <Gold.Chemscore.Lipo>
67.7393

> <Gold.Chemscore.Internal_Hbond>
0.0000

> <Gold.Chemscore.DEClash>
2.8186

> <Gold.Chemscore.DEInternal>
1.4636

> <Gold.Chemscore.Rot>
1.0000

> <Gold.Chemscore.Internal.Correction>
   9.000000E+99

> <Gold.Chemscore.Hbonds>
donor molecule, donor type, donor heavy atom, donor atom, acceptor molecule, acceptor atom, score
      L1  H     3    18       P1 10747  0.92
      L1  H     7    31       P1 10186  0.97
      L1  H    10    23       P1 10747  0.16
      P1  H  6896  6909       L1    15  0.49

> <Gold.Chemscore.Hbond.Weighted>
-12.6040

> <Gold.Chemscore.Metal.Weighted>
-0.0000

> <Gold.Chemscore.Lipo.Weighted>
-7.9255

> <Gold.Chemscore.Internal_Hbond.Weighted>
0.0000

> <Gold.Chemscore.DEClash.Weighted>
2.8186

> <Gold.Chemscore.DEInternal.Weighted>
1.4636

> <Gold.Chemscore.Rot.Weighted>
2.5600

> <Gold.Chemscore.Internal.Correction.Weighted>
   9.000000E+99

> <Gold.Protein.RotatedTorsions>
[ 6907 6896 6895 6894 ] final  -22.11 input  -60.11 | X-H torsion
[ 7974 7965 7964 7962 ] final -172.00 input  175.53 | X-H torsion
[ 8008 7997 7996 7995 ] final  172.76 input   59.86 | X-H torsion
[ 10167 10162 10161 10158 ] final  141.84 input  -65.29 | X-H torsion
[ 10718 10713 10712 10709 ] final  -25.88 input   66.30 | X-H torsion
[ 10763 10752 10751 10750 ] final -142.99 input  -60.55 | X-H torsion
[ 11005 11000 10999 10996 ] final -121.58 input  -57.11 | X-H torsion

> <Gold.Protein.ActiveResidues>
 VAL166  LYS551  ARG553  GLY616  TRP617  ASP618  TYR619  PRO620  LYS621  CYS622 
 ASP623  PHE694  ASN695  SER759  ASP760  ASP761  ALA762  ILE779  LEU786  VAL792 
 PHE793  MET794  SER795  GLU796  ALA797  LYS798  CYS799  TRP800  GLU811  SER814 

> <Gold.Protein.RotatedAtoms>
  151.2235  135.0527  159.8958 H   0  0  0  0  0  0  0  0  0  0  0  0  # atno 6907 bound_to 6896
  152.5413  134.0615  159.8164 H   0  0  0  0  0  0  0  0  0  0  0  0  # atno 6908 bound_to 6896
  151.0784  133.5361  159.2654 H   0  0  0  0  0  0  0  0  0  0  0  0  # atno 6909 bound_to 6896
  144.7151  140.1838  143.6355 H   0  0  0  0  0  0  0  0  0  0  0  0  # atno 7974 bound_to 7965
  156.1143  140.1477  156.9295 H   0  0  0  0  0  0  0  0  0  0  0  0  # atno 8008 bound_to 7997
  154.4789  140.0885  156.7372 H   0  0  0  0  0  0  0  0  0  0  0  0  # atno 8009 bound_to 7997
  155.4541  140.3436  155.4306 H   0  0  0  0  0  0  0  0  0  0  0  0  # atno 8010 bound_to 7997
  139.5010  144.6145  151.6195 H   0  0  0  0  0  0  0  0  0  0  0  0  # atno 10167 bound_to 10162
  156.4586  130.4499  149.6943 H   0  0  0  0  0  0  0  0  0  0  0  0  # atno 10718 bound_to 10713
  154.8487  135.3480  154.6116 H   0  0  0  0  0  0  0  0  0  0  0  0  # atno 10763 bound_to 10752
  153.6725  135.6984  153.5147 H   0  0  0  0  0  0  0  0  0  0  0  0  # atno 10764 bound_to 10752
  153.2731  135.4286  155.0964 H   0  0  0  0  0  0  0  0  0  0  0  0  # atno 10765 bound_to 10752
  141.0059  134.0335  157.3477 H   0  0  0  0  0  0  0  0  0  0  0  0  # atno 11005 bound_to 11000
  145.8832  139.2334  143.1593 LP  0  0  0  0  0  0  0  0  0  0  0  0  # atno 17320 bound_to 7965
  145.9975  140.8549  143.0035 LP  0  0  0  0  0  0  0  0  0  0  0  0  # atno 17321 bound_to 7965
  140.5829  143.9914  150.6279 LP  0  0  0  0  0  0  0  0  0  0  0  0  # atno 17342 bound_to 10162
  140.3069  143.3223  152.0917 LP  0  0  0  0  0  0  0  0  0  0  0  0  # atno 17343 bound_to 10162
  156.3740  130.7545  151.2531 LP  0  0  0  0  0  0  0  0  0  0  0  0  # atno 17370 bound_to 10713
  157.7499  131.0315  150.4183 LP  0  0  0  0  0  0  0  0  0  0  0  0  # atno 17371 bound_to 10713
  139.9063  135.0180  156.7501 LP  0  0  0  0  0  0  0  0  0  0  0  0  # atno 17394 bound_to 11000
  140.6813  133.9472  155.7912 LP  0  0  0  0  0  0  0  0  0  0  0  0  # atno 17395 bound_to 11000

$$$$
