AV-unprocessed.smi:2224|AV-procd|sdf|8997|dock6
  -GOLD-   2272012203D 1   1.00000     0.00000
 Structure written by MMmdl.
 44 46  0  0  0  0  0  0  0  0  1 V2000
  144.8376  132.0867  149.6064 C   0  0  0  0  0  0  0  0  0  0  0  0
  144.5894  133.0532  150.7453 C   0  0  0  0  0  0  0  0  0  0  0  0
  143.2889  133.2680  151.2402 C   0  0  0  0  0  0  0  0  0  0  0  0
  143.1236  134.1798  152.3011 C   0  0  0  0  0  0  0  0  0  0  0  0
  141.7536  134.4564  152.8838 C   0  0  0  0  0  0  0  0  0  0  0  0
  144.1519  134.8516  152.8619 N   0  0  0  0  0  0  0  0  0  0  0  0
  145.4090  134.6532  152.3933 C   0  0  0  0  0  0  0  0  0  0  0  0
  146.5568  135.3081  152.9145 N   0  0  0  0  0  0  0  0  0  0  0  0
  146.7770  135.7188  154.1760 C   0  0  0  0  0  0  0  0  0  0  0  0
  145.9848  135.6067  155.1119 O   0  0  0  0  0  0  0  0  0  0  0  0
  147.9912  136.2719  154.3022 N   0  0  0  0  0  0  0  0  0  0  0  0
  148.5314  136.8085  155.5562 C   0  0  2  0  0  0  0  0  0  0  0  0
  148.9702  138.2704  155.4339 C   0  0  2  0  0  0  0  0  0  0  0  0
  148.7110  139.3851  154.4860 C   0  0  0  0  0  0  0  0  0  0  0  0
  150.1646  139.9287  154.4250 C   0  0  0  0  0  0  0  0  0  0  0  0
  150.9900  138.9406  155.0941 O   0  0  0  0  0  0  0  0  0  0  0  0
  150.2845  137.7289  154.9116 C   0  0  1  0  0  0  0  0  0  0  0  0
  150.0592  136.5046  155.8267 C   0  0  0  0  0  0  0  0  0  0  0  0
  150.5529  136.6140  157.2808 C   0  0  0  0  0  0  0  0  0  0  0  0
  150.6171  135.1791  155.2962 C   0  0  0  0  0  0  0  0  0  0  0  0
  145.6616  133.7568  151.3304 C   0  0  0  0  0  0  0  0  0  0  0  0
  143.9225  131.5673  149.3206 H   0  0  0  0  0  0  0  0  0  0  0  0
  145.5759  131.3397  149.8987 H   0  0  0  0  0  0  0  0  0  0  0  0
  145.2144  132.6207  148.7338 H   0  0  0  0  0  0  0  0  0  0  0  0
  142.4410  132.7479  150.8185 H   0  0  0  0  0  0  0  0  0  0  0  0
  140.9664  134.0298  152.2613 H   0  0  0  0  0  0  0  0  0  0  0  0
  141.5798  135.5301  152.9606 H   0  0  0  0  0  0  0  0  0  0  0  0
  141.6735  134.0228  153.8809 H   0  0  0  0  0  0  0  0  0  0  0  0
  147.3001  135.4726  152.2523 H   0  0  0  0  0  0  0  0  0  0  0  0
  148.5829  136.3276  153.4863 H   0  0  0  0  0  0  0  0  0  0  0  0
  147.8942  136.6305  156.4240 H   0  0  0  0  0  0  0  0  0  0  0  0
  149.0556  138.6864  156.4408 H   0  0  0  0  0  0  0  0  0  0  0  0
  148.3648  139.0308  153.5143 H   0  0  0  0  0  0  0  0  0  0  0  0
  148.0040  140.1183  154.8747 H   0  0  0  0  0  0  0  0  0  0  0  0
  150.4879  140.0580  153.3913 H   0  0  0  0  0  0  0  0  0  0  0  0
  150.2626  140.8887  154.9324 H   0  0  0  0  0  0  0  0  0  0  0  0
  150.2657  137.4567  153.8513 H   0  0  0  0  0  0  0  0  0  0  0  0
  151.6368  136.7248  157.3212 H   0  0  0  0  0  0  0  0  0  0  0  0
  150.2964  135.7226  157.8540 H   0  0  0  0  0  0  0  0  0  0  0  0
  150.1301  137.4587  157.8220 H   0  0  0  0  0  0  0  0  0  0  0  0
  151.6954  135.1106  155.4429 H   0  0  0  0  0  0  0  0  0  0  0  0
  150.4384  135.0578  154.2277 H   0  0  0  0  0  0  0  0  0  0  0  0
  150.1609  134.3254  155.7987 H   0  0  0  0  0  0  0  0  0  0  0  0
  146.6677  133.6071  150.9656 H   0  0  0  0  0  0  0  0  0  0  0  0
  1  2  1  0  0  0  0
  1 22  1  0  0  0  0
  1 23  1  0  0  0  0
  1 24  1  0  0  0  0
  2 21  1  0  0  0  0
  2  3  2  0  0  0  0
  3  4  1  0  0  0  0
  3 25  1  0  0  0  0
  4  5  1  0  0  0  0
  4  6  2  0  0  0  0
  5 26  1  0  0  0  0
  5 27  1  0  0  0  0
  5 28  1  0  0  0  0
  6  7  1  0  0  0  0
  7  8  1  0  0  0  0
  7 21  2  0  0  0  0
  8  9  1  0  0  0  0
  8 29  1  0  0  0  0
  9 10  2  0  0  0  0
  9 11  1  0  0  0  0
 11 12  1  0  0  0  0
 11 30  1  0  0  0  0
 12 18  1  0  0  0  0
 12 13  1  0  0  0  0
 12 31  1  0  0  0  0
 13 17  1  0  0  0  0
 13 14  1  0  0  0  0
 13 32  1  0  0  0  0
 14 15  1  0  0  0  0
 14 33  1  0  0  0  0
 14 34  1  0  0  0  0
 15 16  1  0  0  0  0
 15 35  1  0  0  0  0
 15 36  1  0  0  0  0
 16 17  1  0  0  0  0
 17 18  1  0  0  0  0
 17 37  1  0  0  0  0
 18 19  1  0  0  0  0
 18 20  1  0  0  0  0
 19 38  1  0  0  0  0
 19 39  1  0  0  0  0
 19 40  1  0  0  0  0
 20 41  1  0  0  0  0
 20 42  1  0  0  0  0
 20 43  1  0  0  0  0
 21 44  1  0  0  0  0
M  END
> <s_m_source_file>
AV-unprocessed.smi

> <i_m_source_file_index>
2224

> <i_lp_mmshare_version>
43012

> <i_f3d_flags>
0

> <s_epik_input>
W0NIM11jMVtjSF1jKFtDSDNdKW5jKFtjSF0xKVtOSF1DKD1PKVtOSF1bQ0BIXTJDKFtDSDNdKShbQ0gzXSlbQ0BIXShbQ0BASF0yMylPW0NIMl1bQ0gyXTM=

> <s_epik_cmdline>
J2VwaWtfcHl0aG9uJywgJy1waCcsICc3LjAnLCAnLXRuJywgJzgnLCAnLW1hJywgJzIwMCcsICctbWV0YWxfYmluZGluZycsICctaW1hZScsICc8aW5maWxlLm1hZT4nLCAnLW9tYWUnLCAnPG91dGZpbGUubWFlPic=

> <r_lp_tautomer_probability>
1

> <r_epik_Ionization_Penalty>
0.000276544

> <r_epik_Ionization_Penalty_Charging>
0

> <r_epik_Ionization_Penalty_Neutral>
0.000276544

> <r_epik_State_Penalty>
-0

> <r_epik_Charging_Adjusted_Penalty>
0

> <i_epik_Tot_Q>
0

> <i_epik_Tot_abs_Q>
0

> <r_epik_Metal_State_Penalty>
-0

> <b_epik_Metal_Only>
0

> <s_lp_Force_Field>
OPLS_2005

> <r_lp_Energy>
64.3879

> <b_lp_Chiralities_Consistent>
1

> <s_lp_Variant>
AV-unprocessed.smi:2224-7

> <Gold.Version>
5.8.1

> <Gold.Id.Protein>
6NUR|6NUR_protein|mol2

> <Gold.PLP.Fitness>
34.3802

> <Gold.PLP.PLP>
-28.8462

> <Gold.PLP.part.hbond>
-2.0000

> <Gold.PLP.part.metal>
0.0000

> <Gold.PLP.part.buried>
-1.5908

> <Gold.PLP.part.nonpolar>
-24.5350

> <Gold.PLP.part.repulsive>
0.1775

> <Gold.PLP.ligand.clash>
0.0000

> <Gold.PLP.ligand.torsion>
0.3504

> <Gold.PLP.Chemscore.Hbond>
1.9920

> <Gold.PLP.Chemscore.CHOScore>
0.0000

> <Gold.PLP.Chemscore.Metal>
0.0000

> <Gold.Chemscore.Hbonds>
donor molecule, donor type, donor heavy atom, donor atom, acceptor molecule, acceptor atom, score
      L1  H     8    29       P1  7948  1.00
      L1  H    11    30       P1  7948  1.00

> <Gold.PLP.Chemscore.Internal.Correction>
0.2589

> <Gold.Rescore>
     Score         DG    S(hbond)    S(metal)    S(lipo)     H(rot)  DE(clash)    DE(int)     intcor
     17.15     -18.58       1.95        0.00      78.31       1.00       0.01       1.42       ----

> <Gold.Chemscore.Fitness>
17.1516

> <Gold.Chemscore.DG>
-18.5816

> <Gold.Chemscore.ZeroCoef>
-5.4800

> <Gold.Chemscore.Hbond>
1.9460

> <Gold.Chemscore.Metal>
0.0000

> <Gold.Chemscore.Lipo>
78.3087

> <Gold.Chemscore.Internal_Hbond>
0.0000

> <Gold.Chemscore.DEClash>
0.0096

> <Gold.Chemscore.DEInternal>
1.4204

> <Gold.Chemscore.Rot>
1.0000

> <Gold.Chemscore.Internal.Correction>
   9.000000E+99

> <Gold.Chemscore.Hbonds>
donor molecule, donor type, donor heavy atom, donor atom, acceptor molecule, acceptor atom, score
      L1  H     8    29       P1  7948  0.95
      L1  H    11    30       P1  7948  0.99

> <Gold.Chemscore.Hbond.Weighted>
-6.4995

> <Gold.Chemscore.Metal.Weighted>
-0.0000

> <Gold.Chemscore.Lipo.Weighted>
-9.1621

> <Gold.Chemscore.Internal_Hbond.Weighted>
0.0000

> <Gold.Chemscore.DEClash.Weighted>
0.0096

> <Gold.Chemscore.DEInternal.Weighted>
1.4204

> <Gold.Chemscore.Rot.Weighted>
2.5600

> <Gold.Chemscore.Internal.Correction.Weighted>
   9.000000E+99

> <Gold.Protein.RotatedTorsions>
[ 6907 6896 6895 6894 ] final -130.60 input  -60.11 | X-H torsion
[ 7974 7965 7964 7962 ] final  127.36 input  175.53 | X-H torsion
[ 8008 7997 7996 7995 ] final   -2.10 input   59.86 | X-H torsion
[ 10167 10162 10161 10158 ] final  -94.85 input  -65.29 | X-H torsion
[ 10718 10713 10712 10709 ] final   53.13 input   66.30 | X-H torsion
[ 10763 10752 10751 10750 ] final   84.40 input  -60.55 | X-H torsion
[ 11005 11000 10999 10996 ] final   36.56 input  -57.11 | X-H torsion

> <Gold.Protein.ActiveResidues>
 VAL166  LYS551  ARG553  GLY616  TRP617  ASP618  TYR619  PRO620  LYS621  CYS622 
 ASP623  PHE694  ASN695  SER759  ASP760  ASP761  ALA762  ILE779  LEU786  VAL792 
 PHE793  MET794  SER795  GLU796  ALA797  LYS798  CYS799  TRP800  GLU811  SER814 

> <Gold.Protein.RotatedAtoms>
  150.9415  133.6651  159.2789 H   0  0  0  0  0  0  0  0  0  0  0  0  # atno 6907 bound_to 6896
  151.4038  135.0974  159.9574 H   0  0  0  0  0  0  0  0  0  0  0  0  # atno 6908 bound_to 6896
  152.5071  133.8903  159.7445 H   0  0  0  0  0  0  0  0  0  0  0  0  # atno 6909 bound_to 6896
  145.0515  139.3879  143.5051 H   0  0  0  0  0  0  0  0  0  0  0  0  # atno 7974 bound_to 7965
  154.6395  140.2543  155.7339 H   0  0  0  0  0  0  0  0  0  0  0  0  # atno 8008 bound_to 7997
  156.2521  140.2890  156.0702 H   0  0  0  0  0  0  0  0  0  0  0  0  # atno 8009 bound_to 7997
  155.1619  140.0384  157.2834 H   0  0  0  0  0  0  0  0  0  0  0  0  # atno 8010 bound_to 7997
  140.3102  143.3110  152.0157 H   0  0  0  0  0  0  0  0  0  0  0  0  # atno 10167 bound_to 10162
  157.5138  130.8519  149.8469 H   0  0  0  0  0  0  0  0  0  0  0  0  # atno 10718 bound_to 10713
  153.1378  135.4655  154.9450 H   0  0  0  0  0  0  0  0  0  0  0  0  # atno 10763 bound_to 10752
  154.7721  135.3162  154.8170 H   0  0  0  0  0  0  0  0  0  0  0  0  # atno 10764 bound_to 10752
  153.8699  135.6904  153.4829 H   0  0  0  0  0  0  0  0  0  0  0  0  # atno 10765 bound_to 10752
  140.2313  134.3523  155.7962 H   0  0  0  0  0  0  0  0  0  0  0  0  # atno 11005 bound_to 11000
  146.3518  140.0167  142.8662 LP  0  0  0  0  0  0  0  0  0  0  0  0  # atno 17320 bound_to 7965
  145.1521  140.9629  143.4426 LP  0  0  0  0  0  0  0  0  0  0  0  0  # atno 17321 bound_to 7965
  139.4895  144.6390  151.6915 LP  0  0  0  0  0  0  0  0  0  0  0  0  # atno 17342 bound_to 10162
  140.5575  144.0324  150.6154 LP  0  0  0  0  0  0  0  0  0  0  0  0  # atno 17343 bound_to 10162
  156.0307  130.3765  150.1697 LP  0  0  0  0  0  0  0  0  0  0  0  0  # atno 17370 bound_to 10713
  156.9886  130.9886  151.3420 LP  0  0  0  0  0  0  0  0  0  0  0  0  # atno 17371 bound_to 10713
  141.2217  133.7247  156.8737 LP  0  0  0  0  0  0  0  0  0  0  0  0  # atno 17394 bound_to 11000
  140.1747  134.9075  157.2876 LP  0  0  0  0  0  0  0  0  0  0  0  0  # atno 17395 bound_to 11000

$$$$
