AV-unprocessed.smi:17|AV-procd|sdf|99|dock4
  -GOLD-   2262015243D 1   1.00000     0.00000
 Structure written by MMmdl.
 57 59  0  0  0  0  0  0  0  0  1 V2000
  147.5013  135.7599  162.9552 C   0  0  0  0  0  0  0  0  0  0  0  0
  147.3387  136.5510  161.6495 C   0  0  0  0  0  0  0  0  0  0  0  0
  146.9103  135.7031  160.5335 N   0  0  0  0  0  0  0  0  0  0  0  0
  147.6369  135.7202  159.3828 C   0  0  0  0  0  0  0  0  0  0  0  0
  147.2072  134.9581  158.3425 N   0  0  0  0  0  0  0  0  0  0  0  0
  147.8715  134.9507  157.1841 C   0  0  0  0  0  0  0  0  0  0  0  0
  148.9792  135.6150  156.8550 N   0  0  0  0  0  0  0  0  0  0  0  0
  149.4313  136.3677  157.8977 C   0  0  0  0  0  0  0  0  0  0  0  0
  148.8318  136.4753  159.1859 C   0  0  0  0  0  0  0  0  0  0  0  0
  149.5989  137.3165  159.9860 N   0  0  0  0  0  0  0  0  0  0  0  0
  150.5761  137.7001  159.2118 C   0  0  0  0  0  0  0  0  0  0  0  0
  150.5481  137.1837  157.9378 N   0  0  0  0  0  0  0  0  0  0  0  0
  151.5053  137.4449  156.8772 C   0  0  0  0  0  0  0  0  0  0  0  0
  150.9129  138.2776  155.7130 C   0  0  2  0  0  0  0  0  0  0  0  0
  151.4401  137.8311  154.3269 C   0  0  0  0  0  0  0  0  0  0  0  0
  151.2691  136.4425  154.1311 O   0  0  0  0  0  0  0  0  0  0  0  0
  151.0978  139.7980  155.9475 C   0  0  2  0  0  0  0  0  0  0  0  0
  150.8349  140.2616  157.3695 C   0  0  0  0  0  0  0  0  0  0  0  0
  150.6377  141.7608  157.1821 C   0  0  0  0  0  0  0  0  0  0  0  0
  150.0020  141.9020  155.9173 O   0  0  0  0  0  0  0  0  0  0  0  0
  150.1205  140.6914  155.1749 C   0  0  0  0  0  0  0  0  0  0  0  0
  145.6925  134.8892  160.6209 C   0  0  2  0  0  0  0  0  0  0  0  0
  146.0193  133.3890  160.5375 C   0  0  0  0  0  0  0  0  0  0  0  0
  144.6253  135.2971  159.5824 C   0  0  0  0  0  0  0  0  0  0  0  0
  143.1075  134.2373  159.6375 S   0  0  0  0  0  0  0  0  0  0  0  0
  143.6624  132.6928  158.8043 C   0  0  0  0  0  0  0  0  0  0  0  0
  142.8385  133.9066  161.0450 O   0  0  0  0  0  0  0  0  0  0  0  0
  142.0522  134.8506  158.8160 O   0  0  0  0  0  0  0  0  0  0  0  0
  147.8498  136.4094  163.7581 H   0  0  0  0  0  0  0  0  0  0  0  0
  148.2264  134.9537  162.8422 H   0  0  0  0  0  0  0  0  0  0  0  0
  146.5568  135.3187  163.2750 H   0  0  0  0  0  0  0  0  0  0  0  0
  146.6363  137.3719  161.7945 H   0  0  0  0  0  0  0  0  0  0  0  0
  148.2914  137.0196  161.4056 H   0  0  0  0  0  0  0  0  0  0  0  0
  147.4551  134.3238  156.4095 H   0  0  0  0  0  0  0  0  0  0  0  0
  151.3477  138.3770  159.5489 H   0  0  0  0  0  0  0  0  0  0  0  0
  152.3558  137.9598  157.3242 H   0  0  0  0  0  0  0  0  0  0  0  0
  151.8850  136.4928  156.5052 H   0  0  0  0  0  0  0  0  0  0  0  0
  149.8392  138.0840  155.7056 H   0  0  0  0  0  0  0  0  0  0  0  0
  150.9315  138.3631  153.5228 H   0  0  0  0  0  0  0  0  0  0  0  0
  152.4980  138.0696  154.2195 H   0  0  0  0  0  0  0  0  0  0  0  0
  150.9327  136.3009  153.2592 H   0  0  0  0  0  0  0  0  0  0  0  0
  152.1159  140.0870  155.6806 H   0  0  0  0  0  0  0  0  0  0  0  0
  149.9217  139.8089  157.7587 H   0  0  0  0  0  0  0  0  0  0  0  0
  151.6507  140.0335  158.0560 H   0  0  0  0  0  0  0  0  0  0  0  0
  150.0470  142.2090  157.9812 H   0  0  0  0  0  0  0  0  0  0  0  0
  151.6021  142.2691  157.1461 H   0  0  0  0  0  0  0  0  0  0  0  0
  150.4567  140.8891  154.1567 H   0  0  0  0  0  0  0  0  0  0  0  0
  149.1332  140.2310  155.1191 H   0  0  0  0  0  0  0  0  0  0  0  0
  145.2225  135.0460  161.5893 H   0  0  0  0  0  0  0  0  0  0  0  0
  145.1268  132.7852  160.7016 H   0  0  0  0  0  0  0  0  0  0  0  0
  146.7508  133.1034  161.2940 H   0  0  0  0  0  0  0  0  0  0  0  0
  146.4250  133.1188  159.5624 H   0  0  0  0  0  0  0  0  0  0  0  0
  144.3320  136.3429  159.6637 H   0  0  0  0  0  0  0  0  0  0  0  0
  145.0436  135.1713  158.5834 H   0  0  0  0  0  0  0  0  0  0  0  0
  142.8707  131.9469  158.8686 H   0  0  0  0  0  0  0  0  0  0  0  0
  144.5563  132.3104  159.2963 H   0  0  0  0  0  0  0  0  0  0  0  0
  143.8785  132.8881  157.7566 H   0  0  0  0  0  0  0  0  0  0  0  0
  1  2  1  0  0  0  0
  1 29  1  0  0  0  0
  1 30  1  0  0  0  0
  1 31  1  0  0  0  0
  2  3  1  0  0  0  0
  2 32  1  0  0  0  0
  2 33  1  0  0  0  0
  3  4  1  0  0  0  0
  3 22  1  0  0  0  0
  4  9  1  0  0  0  0
  4  5  2  0  0  0  0
  5  6  1  0  0  0  0
  6  7  2  0  0  0  0
  6 34  1  0  0  0  0
  7  8  1  0  0  0  0
  8 12  1  0  0  0  0
  8  9  2  0  0  0  0
  9 10  1  0  0  0  0
 10 11  2  0  0  0  0
 11 12  1  0  0  0  0
 11 35  1  0  0  0  0
 12 13  1  0  0  0  0
 13 14  1  0  0  0  0
 13 36  1  0  0  0  0
 13 37  1  0  0  0  0
 14 15  1  0  0  0  0
 14 17  1  0  0  0  0
 14 38  1  0  0  0  0
 15 16  1  0  0  0  0
 15 39  1  0  0  0  0
 15 40  1  0  0  0  0
 16 41  1  0  0  0  0
 17 21  1  0  0  0  0
 17 18  1  0  0  0  0
 17 42  1  0  0  0  0
 18 19  1  0  0  0  0
 18 43  1  0  0  0  0
 18 44  1  0  0  0  0
 19 20  1  0  0  0  0
 19 45  1  0  0  0  0
 19 46  1  0  0  0  0
 20 21  1  0  0  0  0
 21 47  1  0  0  0  0
 21 48  1  0  0  0  0
 22 23  1  0  0  0  0
 22 24  1  0  0  0  0
 22 49  1  0  0  0  0
 23 50  1  0  0  0  0
 23 51  1  0  0  0  0
 23 52  1  0  0  0  0
 24 25  1  0  0  0  0
 24 53  1  0  0  0  0
 24 54  1  0  0  0  0
 25 26  1  0  0  0  0
 25 27  2  0  0  0  0
 25 28  2  0  0  0  0
 26 55  1  0  0  0  0
 26 56  1  0  0  0  0
 26 57  1  0  0  0  0
M  END
> <s_m_source_file>
AV-unprocessed.smi

> <i_m_source_file_index>
17

> <i_lp_mmshare_version>
43012

> <i_f3d_flags>
0

> <s_epik_input>
W0NIM11TKD1PKSg9TylbQ0gyXVtDQEBIXShbQ0gzXSlOKFtDSDJdW0NIM10pYyhuW2NIXW4xKWMoYzEyKW5bY0hdbjJbQ0gyXVtDQEhdKFtDSDJdW09IXSlbQ0BASF0zW0NIMl1bQ0gyXU9bQ0gyXTM=

> <s_epik_cmdline>
J2VwaWtfcHl0aG9uJywgJy1waCcsICc3LjAnLCAnLXRuJywgJzgnLCAnLW1hJywgJzIwMCcsICctbWV0YWxfYmluZGluZycsICctaW1hZScsICc8aW5maWxlLm1hZT4nLCAnLW9tYWUnLCAnPG91dGZpbGUubWFlPic=

> <r_lp_tautomer_probability>
1

> <r_epik_Ionization_Penalty>
0.00119955

> <r_epik_Ionization_Penalty_Charging>
0

> <r_epik_Ionization_Penalty_Neutral>
0.00119955

> <r_epik_State_Penalty>
0.000665399

> <r_epik_Charging_Adjusted_Penalty>
0.000665399

> <i_epik_Tot_Q>
0

> <i_epik_Tot_abs_Q>
0

> <r_epik_Metal_State_Penalty>
-0

> <b_epik_Metal_Only>
0

> <s_lp_Force_Field>
OPLS_2005

> <r_lp_Energy>
33.2615

> <b_lp_Chiralities_Consistent>
1

> <s_lp_Variant>
AV-unprocessed.smi:17-1

> <Gold.Version>
5.8.1

> <Gold.Id.Protein>
6NUR|6NUR_protein|mol2

> <Gold.PLP.Fitness>
43.1725

> <Gold.PLP.PLP>
-35.5651

> <Gold.PLP.part.hbond>
-4.2969

> <Gold.PLP.part.metal>
0.0000

> <Gold.PLP.part.buried>
-5.9390

> <Gold.PLP.part.nonpolar>
-26.1333

> <Gold.PLP.part.repulsive>
0.1249

> <Gold.PLP.ligand.clash>
0.0000

> <Gold.PLP.ligand.torsion>
1.2080

> <Gold.PLP.Chemscore.Hbond>
3.1456

> <Gold.PLP.Chemscore.CHOScore>
0.0000

> <Gold.PLP.Chemscore.Metal>
0.0000

> <Gold.Chemscore.Hbonds>
donor molecule, donor type, donor heavy atom, donor atom, acceptor molecule, acceptor atom, score
      L1  H    16    41       P1  7949  0.85
      P1  H  6931  6943       L1    10  0.18
      P1  H 10752 10764       L1    16  1.00
      P1  H 11000 11005       L1    28  1.00

> <Gold.PLP.Chemscore.Internal.Correction>
0.5867

> <Gold.Rescore>
     Score         DG    S(hbond)    S(metal)    S(lipo)     H(rot)  DE(clash)    DE(int)     intcor
      8.46     -13.46       2.55        0.00      72.18       3.51       0.02       4.99       ----

> <Gold.Chemscore.Fitness>
8.4606

> <Gold.Chemscore.DG>
-13.4648

> <Gold.Chemscore.ZeroCoef>
-5.4800

> <Gold.Chemscore.Hbond>
2.5495

> <Gold.Chemscore.Metal>
0.0000

> <Gold.Chemscore.Lipo>
72.1757

> <Gold.Chemscore.Internal_Hbond>
0.0000

> <Gold.Chemscore.DEClash>
0.0186

> <Gold.Chemscore.DEInternal>
4.9856

> <Gold.Chemscore.Rot>
3.5059

> <Gold.Chemscore.Internal.Correction>
   9.000000E+99

> <Gold.Chemscore.Hbonds>
donor molecule, donor type, donor heavy atom, donor atom, acceptor molecule, acceptor atom, score
      L1  H    16    41       P1  7949  0.14
      P1  H  6931  6943       L1    10  0.18
      P1  H 10752 10764       L1    16  0.30
      P1  H 11000 11005       L1    28  1.00

> <Gold.Chemscore.Hbond.Weighted>
-8.5153

> <Gold.Chemscore.Metal.Weighted>
-0.0000

> <Gold.Chemscore.Lipo.Weighted>
-8.4446

> <Gold.Chemscore.Internal_Hbond.Weighted>
0.0000

> <Gold.Chemscore.DEClash.Weighted>
0.0186

> <Gold.Chemscore.DEInternal.Weighted>
4.9856

> <Gold.Chemscore.Rot.Weighted>
8.9750

> <Gold.Chemscore.Internal.Correction.Weighted>
   9.000000E+99

> <Gold.Protein.RotatedTorsions>
[ 6907 6896 6895 6894 ] final   42.99 input  -60.11 | X-H torsion
[ 7974 7965 7964 7962 ] final  -52.61 input  175.53 | X-H torsion
[ 8008 7997 7996 7995 ] final   80.92 input   59.86 | X-H torsion
[ 10167 10162 10161 10158 ] final  -55.39 input  -65.29 | X-H torsion
[ 10718 10713 10712 10709 ] final   83.43 input   66.30 | X-H torsion
[ 10763 10752 10751 10750 ] final  -87.28 input  -60.55 | X-H torsion
[ 11005 11000 10999 10996 ] final -138.49 input  -57.11 | X-H torsion

> <Gold.Protein.ActiveResidues>
 VAL166  LYS551  ARG553  GLY616  TRP617  ASP618  TYR619  PRO620  LYS621  CYS622 
 ASP623  PHE694  ASN695  SER759  ASP760  ASP761  ALA762  ILE779  LEU786  VAL792 
 PHE793  MET794  SER795  GLU796  ALA797  LYS798  CYS799  TRP800  GLU811  SER814 

> <Gold.Protein.RotatedAtoms>
  152.2148  134.8468  160.0492 H   0  0  0  0  0  0  0  0  0  0  0  0  # atno 6907 bound_to 6896
  151.9273  133.3596  159.3926 H   0  0  0  0  0  0  0  0  0  0  0  0  # atno 6908 bound_to 6896
  150.6985  134.4498  159.5375 H   0  0  0  0  0  0  0  0  0  0  0  0  # atno 6909 bound_to 6896
  145.9060  140.7955  142.9719 H   0  0  0  0  0  0  0  0  0  0  0  0  # atno 7974 bound_to 7965
  155.8901  140.3439  155.5950 H   0  0  0  0  0  0  0  0  0  0  0  0  # atno 8008 bound_to 7997
  155.7620  140.0834  157.2169 H   0  0  0  0  0  0  0  0  0  0  0  0  # atno 8009 bound_to 7997
  154.4032  140.1534  156.2831 H   0  0  0  0  0  0  0  0  0  0  0  0  # atno 8010 bound_to 7997
  140.6377  143.2491  151.5074 H   0  0  0  0  0  0  0  0  0  0  0  0  # atno 10167 bound_to 10162
  157.6878  131.0090  150.2521 H   0  0  0  0  0  0  0  0  0  0  0  0  # atno 10718 bound_to 10713
  154.6318  135.5419  153.7689 H   0  0  0  0  0  0  0  0  0  0  0  0  # atno 10763 bound_to 10752
  153.0288  135.6438  154.1289 H   0  0  0  0  0  0  0  0  0  0  0  0  # atno 10764 bound_to 10752
  154.1219  135.2920  155.3186 H   0  0  0  0  0  0  0  0  0  0  0  0  # atno 10765 bound_to 10752
  140.8610  134.2168  157.4707 H   0  0  0  0  0  0  0  0  0  0  0  0  # atno 11005 bound_to 11000
  144.6739  140.1751  143.7411 LP  0  0  0  0  0  0  0  0  0  0  0  0  # atno 17320 bound_to 7965
  145.8732  139.2283  143.1649 LP  0  0  0  0  0  0  0  0  0  0  0  0  # atno 17321 bound_to 7965
  139.5587  144.2211  152.1655 LP  0  0  0  0  0  0  0  0  0  0  0  0  # atno 17342 bound_to 10162
  140.1472  144.5148  150.6708 LP  0  0  0  0  0  0  0  0  0  0  0  0  # atno 17343 bound_to 10162
  156.3116  130.3773  149.7656 LP  0  0  0  0  0  0  0  0  0  0  0  0  # atno 17370 bound_to 10713
  156.5255  130.8234  151.3218 LP  0  0  0  0  0  0  0  0  0  0  0  0  # atno 17371 bound_to 10713
  139.8707  134.9730  156.4792 LP  0  0  0  0  0  0  0  0  0  0  0  0  # atno 17394 bound_to 11000
  140.8682  133.8008  155.9336 LP  0  0  0  0  0  0  0  0  0  0  0  0  # atno 17395 bound_to 11000

$$$$
