AV-unprocessed.smi:2021|AV-procd|sdf|8180|dock5
  -GOLD-   2272010433D 1   1.00000     0.00000
 Structure written by MMmdl.
 41 42  0  0  0  0  0  0  0  0  1 V2000
  152.5861  144.7317  158.1804 C   0  0  0  0  0  0  0  0  0  0  0  0
  151.6445  144.1273  159.2339 C   0  0  0  0  0  0  0  0  0  0  0  0
  151.7959  144.8828  160.5654 C   0  0  0  0  0  0  0  0  0  0  0  0
  151.8989  142.6108  159.4021 C   0  0  0  0  0  0  0  0  0  0  0  0
  151.5175  141.7756  158.2621 N   0  0  0  0  0  0  0  0  0  0  0  0
  150.2279  142.1512  157.6886 C   0  0  0  0  0  0  0  0  0  0  0  0
  149.8322  141.2373  156.5167 C   0  0  0  0  0  0  0  0  0  0  0  0
  149.8298  139.8811  156.9483 O   0  0  0  0  0  0  0  0  0  0  0  0
  151.0937  139.4580  157.4548 C   0  0  2  0  0  0  0  0  0  0  0  0
  150.9842  137.9814  157.8724 C   0  0  0  0  0  0  0  0  0  0  0  0
  150.0969  137.8096  159.0178 N   0  0  0  0  0  0  0  0  0  0  0  0
  149.3951  136.7000  159.2879 C   0  0  0  0  0  0  0  0  0  0  0  0
  149.4493  135.6798  158.6012 O   0  0  0  0  0  0  0  0  0  0  0  0
  148.6396  136.8585  160.3864 N   0  0  0  0  0  0  0  0  0  0  0  0
  147.7416  135.9291  160.9684 C   0  0  0  0  0  0  0  0  0  0  0  0
  147.2446  134.9624  160.1875 N   0  0  0  0  0  0  0  0  0  0  0  0
  146.3851  134.1213  160.8838 N   0  0  0  0  0  0  0  0  0  0  0  0
  146.2671  134.4875  162.1636 C   0  0  0  0  0  0  0  0  0  0  0  0
  147.1937  135.8968  162.6473 S   0  0  0  0  0  0  0  0  0  0  0  0
  151.4769  140.3664  158.6393 C   0  0  0  0  0  0  0  0  0  0  0  0
  153.6314  144.6165  158.4685 H   0  0  0  0  0  0  0  0  0  0  0  0
  152.3933  145.7963  158.0439 H   0  0  0  0  0  0  0  0  0  0  0  0
  152.4522  144.2498  157.2114 H   0  0  0  0  0  0  0  0  0  0  0  0
  150.6276  144.2767  158.8680 H   0  0  0  0  0  0  0  0  0  0  0  0
  152.8121  144.8009  160.9521 H   0  0  0  0  0  0  0  0  0  0  0  0
  151.1221  144.4974  161.3293 H   0  0  0  0  0  0  0  0  0  0  0  0
  151.5741  145.9431  160.4417 H   0  0  0  0  0  0  0  0  0  0  0  0
  152.9666  142.4674  159.5737 H   0  0  0  0  0  0  0  0  0  0  0  0
  151.4158  142.2474  160.3105 H   0  0  0  0  0  0  0  0  0  0  0  0
  149.4544  142.1106  158.4569 H   0  0  0  0  0  0  0  0  0  0  0  0
  150.2617  143.1786  157.3277 H   0  0  0  0  0  0  0  0  0  0  0  0
  148.8388  141.4972  156.1513 H   0  0  0  0  0  0  0  0  0  0  0  0
  150.5233  141.3592  155.6811 H   0  0  0  0  0  0  0  0  0  0  0  0
  151.8458  139.5586  156.6701 H   0  0  0  0  0  0  0  0  0  0  0  0
  150.6289  137.3753  157.0372 H   0  0  0  0  0  0  0  0  0  0  0  0
  151.9678  137.5938  158.1386 H   0  0  0  0  0  0  0  0  0  0  0  0
  149.9913  138.6032  159.6326 H   0  0  0  0  0  0  0  0  0  0  0  0
  148.7022  137.7513  160.8529 H   0  0  0  0  0  0  0  0  0  0  0  0
  145.6301  133.9226  162.8281 H   0  0  0  0  0  0  0  0  0  0  0  0
  152.4509  140.0611  159.0237 H   0  0  0  0  0  0  0  0  0  0  0  0
  150.7630  140.2231  159.4523 H   0  0  0  0  0  0  0  0  0  0  0  0
  1  2  1  0  0  0  0
  1 21  1  0  0  0  0
  1 22  1  0  0  0  0
  1 23  1  0  0  0  0
  2  3  1  0  0  0  0
  2  4  1  0  0  0  0
  2 24  1  0  0  0  0
  3 25  1  0  0  0  0
  3 26  1  0  0  0  0
  3 27  1  0  0  0  0
  4  5  1  0  0  0  0
  4 28  1  0  0  0  0
  4 29  1  0  0  0  0
  5 20  1  0  0  0  0
  5  6  1  0  0  0  0
  6  7  1  0  0  0  0
  6 30  1  0  0  0  0
  6 31  1  0  0  0  0
  7  8  1  0  0  0  0
  7 32  1  0  0  0  0
  7 33  1  0  0  0  0
  8  9  1  0  0  0  0
  9 10  1  0  0  0  0
  9 20  1  0  0  0  0
  9 34  1  0  0  0  0
 10 11  1  0  0  0  0
 10 35  1  0  0  0  0
 10 36  1  0  0  0  0
 11 12  1  0  0  0  0
 11 37  1  0  0  0  0
 12 13  2  0  0  0  0
 12 14  1  0  0  0  0
 14 15  1  0  0  0  0
 14 38  1  0  0  0  0
 15 19  1  0  0  0  0
 15 16  2  0  0  0  0
 16 17  1  0  0  0  0
 17 18  2  0  0  0  0
 18 19  1  0  0  0  0
 18 39  1  0  0  0  0
 20 40  1  0  0  0  0
 20 41  1  0  0  0  0
M  END
> <s_m_source_file>
AV-unprocessed.smi

> <i_m_source_file_index>
2021

> <i_lp_mmshare_version>
43012

> <i_f3d_flags>
0

> <s_epik_input>
W0NIM11bQ0hdKFtDSDNdKVtDSDJdTjFbQ0gyXVtDSDJdT1tDQEhdKFtDSDJdMSlbQ0gyXVtOSF1DKD1PKVtOSF1jMm5uW2NIXXMy

> <s_epik_cmdline>
J2VwaWtfcHl0aG9uJywgJy1waCcsICc3LjAnLCAnLXRuJywgJzgnLCAnLW1hJywgJzIwMCcsICctbWV0YWxfYmluZGluZycsICctaW1hZScsICc8aW5maWxlLm1hZT4nLCAnLW9tYWUnLCAnPG91dGZpbGUubWFlPic=

> <r_lp_tautomer_probability>
1

> <r_epik_Ionization_Penalty>
1.11451

> <r_epik_Ionization_Penalty_Charging>
0

> <r_epik_Ionization_Penalty_Neutral>
1.11451

> <r_epik_State_Penalty>
1.17021

> <r_epik_Charging_Adjusted_Penalty>
1.17021

> <i_epik_Tot_Q>
0

> <i_epik_Tot_abs_Q>
0

> <r_epik_Metal_State_Penalty>
1.53642

> <b_epik_Metal_Only>
0

> <s_lp_Force_Field>
OPLS_2005

> <r_lp_Energy>
23.4775

> <b_lp_Chiralities_Consistent>
1

> <s_lp_Variant>
AV-unprocessed.smi:2021-6

> <Gold.Version>
5.8.1

> <Gold.Id.Protein>
6NUR|6NUR_protein|mol2

> <Gold.PLP.Fitness>
39.1829

> <Gold.PLP.PLP>
-37.1150

> <Gold.PLP.part.hbond>
-1.0000

> <Gold.PLP.part.metal>
0.0000

> <Gold.PLP.part.buried>
-6.4234

> <Gold.PLP.part.nonpolar>
-32.3499

> <Gold.PLP.part.repulsive>
2.2590

> <Gold.PLP.ligand.clash>
0.0000

> <Gold.PLP.ligand.torsion>
0.4987

> <Gold.PLP.Chemscore.Hbond>
1.0000

> <Gold.PLP.Chemscore.CHOScore>
0.0000

> <Gold.PLP.Chemscore.Metal>
0.0000

> <Gold.Chemscore.Hbonds>
donor molecule, donor type, donor heavy atom, donor atom, acceptor molecule, acceptor atom, score
      P1  H  6896  6909       L1    13  1.00

> <Gold.PLP.Chemscore.Internal.Correction>
0.0654

> <Gold.Rescore>
     Score         DG    S(hbond)    S(metal)    S(lipo)     H(rot)  DE(clash)    DE(int)     intcor
     12.41     -14.51       0.94        0.00      90.68       1.84       0.05       2.05       ----

> <Gold.Chemscore.Fitness>
12.4095

> <Gold.Chemscore.DG>
-14.5122

> <Gold.Chemscore.ZeroCoef>
-5.4800

> <Gold.Chemscore.Hbond>
0.9392

> <Gold.Chemscore.Metal>
0.0000

> <Gold.Chemscore.Lipo>
90.6752

> <Gold.Chemscore.Internal_Hbond>
0.0000

> <Gold.Chemscore.DEClash>
0.0545

> <Gold.Chemscore.DEInternal>
2.0483

> <Gold.Chemscore.Rot>
1.8413

> <Gold.Chemscore.Internal.Correction>
   9.000000E+99

> <Gold.Chemscore.Hbonds>
donor molecule, donor type, donor heavy atom, donor atom, acceptor molecule, acceptor atom, score
      P1  H  6896  6909       L1    13  0.63

> <Gold.Chemscore.Hbond.Weighted>
-3.1371

> <Gold.Chemscore.Metal.Weighted>
-0.0000

> <Gold.Chemscore.Lipo.Weighted>
-10.6090

> <Gold.Chemscore.Internal_Hbond.Weighted>
0.0000

> <Gold.Chemscore.DEClash.Weighted>
0.0545

> <Gold.Chemscore.DEInternal.Weighted>
2.0483

> <Gold.Chemscore.Rot.Weighted>
4.7138

> <Gold.Chemscore.Internal.Correction.Weighted>
   9.000000E+99

> <Gold.Protein.RotatedTorsions>
[ 6907 6896 6895 6894 ] final   37.68 input  -60.11 | X-H torsion
[ 7974 7965 7964 7962 ] final -146.33 input  175.53 | X-H torsion
[ 8008 7997 7996 7995 ] final  153.03 input   59.86 | X-H torsion
[ 10167 10162 10161 10158 ] final -155.54 input  -65.29 | X-H torsion
[ 10718 10713 10712 10709 ] final    0.96 input   66.30 | X-H torsion
[ 10763 10752 10751 10750 ] final   83.60 input  -60.55 | X-H torsion
[ 11005 11000 10999 10996 ] final  -31.23 input  -57.11 | X-H torsion

> <Gold.Protein.ActiveResidues>
 VAL166  LYS551  ARG553  GLY616  TRP617  ASP618  TYR619  PRO620  LYS621  CYS622 
 ASP623  PHE694  ASN695  SER759  ASP760  ASP761  ALA762  ILE779  LEU786  VAL792 
 PHE793  MET794  SER795  GLU796  ALA797  LYS798  CYS799  TRP800  GLU811  SER814 

> <Gold.Protein.RotatedAtoms>
  152.1464  134.9023  160.0550 H   0  0  0  0  0  0  0  0  0  0  0  0  # atno 6907 bound_to 6896
  152.0071  133.3842  159.4213 H   0  0  0  0  0  0  0  0  0  0  0  0  # atno 6908 bound_to 6896
  150.6870  134.3692  159.5028 H   0  0  0  0  0  0  0  0  0  0  0  0  # atno 6909 bound_to 6896
  144.8167  140.5470  143.5606 H   0  0  0  0  0  0  0  0  0  0  0  0  # atno 7974 bound_to 7965
  156.2601  140.2004  156.6426 H   0  0  0  0  0  0  0  0  0  0  0  0  # atno 8008 bound_to 7997
  154.6597  140.0562  157.0073 H   0  0  0  0  0  0  0  0  0  0  0  0  # atno 8009 bound_to 7997
  155.1294  140.3232  155.4480 H   0  0  0  0  0  0  0  0  0  0  0  0  # atno 8010 bound_to 7997
  139.6923  143.9400  152.2391 H   0  0  0  0  0  0  0  0  0  0  0  0  # atno 10167 bound_to 10162
  156.8411  130.5521  149.5677 H   0  0  0  0  0  0  0  0  0  0  0  0  # atno 10718 bound_to 10713
  153.1306  135.4685  154.9343 H   0  0  0  0  0  0  0  0  0  0  0  0  # atno 10763 bound_to 10752
  154.7660  135.3145  154.8286 H   0  0  0  0  0  0  0  0  0  0  0  0  # atno 10764 bound_to 10752
  153.8830  135.6892  153.4819 H   0  0  0  0  0  0  0  0  0  0  0  0  # atno 10765 bound_to 10752
  140.9451  133.7255  156.1134 H   0  0  0  0  0  0  0  0  0  0  0  0  # atno 11005 bound_to 11000
  145.5198  139.1477  143.3558 LP  0  0  0  0  0  0  0  0  0  0  0  0  # atno 17320 bound_to 7965
  146.2470  140.5339  142.8909 LP  0  0  0  0  0  0  0  0  0  0  0  0  # atno 17321 bound_to 7965
  139.9220  144.6794  150.8452 LP  0  0  0  0  0  0  0  0  0  0  0  0  # atno 17342 bound_to 10162
  140.7686  143.3368  151.2291 LP  0  0  0  0  0  0  0  0  0  0  0  0  # atno 17343 bound_to 10162
  156.0880  130.5873  150.9683 LP  0  0  0  0  0  0  0  0  0  0  0  0  # atno 17370 bound_to 10713
  157.6355  131.0916  150.8357 LP  0  0  0  0  0  0  0  0  0  0  0  0  # atno 17371 bound_to 10713
  140.7681  134.3864  157.5513 LP  0  0  0  0  0  0  0  0  0  0  0  0  # atno 17394 bound_to 11000
  139.8831  134.9004  156.2788 LP  0  0  0  0  0  0  0  0  0  0  0  0  # atno 17395 bound_to 11000

$$$$
