AV-unprocessed.smi:2546|AV-procd|sdf|9997|dock7
  -GOLD-   2272014 43D 1   1.00000     0.00000
 Structure written by MMmdl.
 17 17  0  0  0  0  0  0  0  0  2 V2000
  143.4808  133.8433  147.9683 N   0  3  0  0  0  0  0  0  0  0  0  0
  143.7846  132.5015  148.4933 C   0  0  0  0  0  0  0  0  0  0  0  0
  143.9920  132.5272  150.0140 C   0  0  0  0  0  0  0  0  0  0  0  0
  144.7399  133.7417  150.4546 C   0  0  0  0  0  0  0  0  0  0  0  0
  145.9182  133.6404  151.0716 N   0  0  0  0  0  0  0  0  0  0  0  0
  146.2139  134.9331  151.3288 N   0  0  0  0  0  0  0  0  0  0  0  0
  145.2204  135.6980  150.8791 C   0  0  0  0  0  0  0  0  0  0  0  0
  144.2379  135.0068  150.3161 N   0  0  0  0  0  0  0  0  0  0  0  0
  142.8178  134.3004  148.5780 H   0  0  0  0  0  0  0  0  0  0  0  0
  143.0851  133.7632  147.0425 H   0  0  0  0  0  0  0  0  0  0  0  0
  142.9645  131.8308  148.2340 H   0  0  0  0  0  0  0  0  0  0  0  0
  144.6789  132.1253  147.9954 H   0  0  0  0  0  0  0  0  0  0  0  0
  143.0292  132.4959  150.5264 H   0  0  0  0  0  0  0  0  0  0  0  0
  144.5413  131.6402  150.3332 H   0  0  0  0  0  0  0  0  0  0  0  0
  145.2135  136.7745  150.9682 H   0  0  0  0  0  0  0  0  0  0  0  0
  144.3294  134.3897  147.9262 H   0  0  0  0  0  0  0  0  0  0  0  0
  147.0606  135.2280  151.7947 H   0  0  0  0  0  0  0  0  0  0  0  0
  1  2  1  0  0  0  0
  1  9  1  0  0  0  0
  1 10  1  0  0  0  0
  1 16  1  0  0  0  0
  2  3  1  0  0  0  0
  2 11  1  0  0  0  0
  2 12  1  0  0  0  0
  3 13  1  0  0  0  0
  3 14  1  0  0  0  0
  3  4  1  0  0  0  0
  4  8  1  0  0  0  0
  4  5  2  0  0  0  0
  5  6  1  0  0  0  0
  6  7  1  0  0  0  0
  6 17  1  0  0  0  0
  7  8  2  0  0  0  0
  7 15  1  0  0  0  0
M  CHG  1   1   1
M  END
> <s_m_source_file>
AV-unprocessed.smi

> <i_m_source_file_index>
2546

> <i_lp_mmshare_version>
43012

> <i_f3d_flags>
0

> <s_epik_input>
W05IMl1bQ0gyXVtDSDJdYzFubltjSF1bbkhdMQ==

> <s_epik_cmdline>
J2VwaWtfcHl0aG9uJywgJy1waCcsICc3LjAnLCAnLXRuJywgJzgnLCAnLW1hJywgJzIwMCcsICctbWV0YWxfYmluZGluZycsICctaW1hZScsICc8aW5maWxlLm1hZT4nLCAnLW9tYWUnLCAnPG91dGZpbGUubWFlPic=

> <r_lp_tautomer_probability>
0.948284

> <r_epik_Ionization_Penalty>
0.0140863

> <r_epik_Ionization_Penalty_Charging>
0.00364136

> <r_epik_Ionization_Penalty_Neutral>
0.0104449

> <r_epik_State_Penalty>
0.423825

> <r_epik_Charging_Adjusted_Penalty>
0.427466

> <i_epik_Tot_Q>
1

> <i_epik_Tot_abs_Q>
1

> <r_epik_Metal_State_Penalty>
0.652581

> <b_epik_Metal_Only>
0

> <s_lp_Force_Field>
OPLS_2005

> <r_lp_Energy>
-0.0945918

> <b_lp_Chiralities_Consistent>
1

> <s_lp_Variant>
AV-unprocessed.smi:2546-1

> <Gold.Version>
5.8.1

> <Gold.Id.Protein>
6NUR|6NUR_protein|mol2

> <Gold.PLP.Fitness>
35.7240

> <Gold.PLP.PLP>
-17.9687

> <Gold.PLP.part.hbond>
-4.0000

> <Gold.PLP.part.metal>
0.0000

> <Gold.PLP.part.buried>
-3.1900

> <Gold.PLP.part.nonpolar>
-12.1867

> <Gold.PLP.part.repulsive>
0.7114

> <Gold.PLP.ligand.clash>
0.0000

> <Gold.PLP.ligand.torsion>
0.1123

> <Gold.PLP.Chemscore.Hbond>
4.9913

> <Gold.PLP.Chemscore.CHOScore>
1.0000

> <Gold.PLP.Chemscore.Metal>
0.0000

> <Gold.Chemscore.Hbonds>
donor molecule, donor type, donor heavy atom, donor atom, acceptor molecule, acceptor atom, score
      L1  H     1     9       P1 10186  1.95
      L1  H     1    10       P1 10195  0.94
      L1  H     1    16       P1  7921  1.00
      L1  H     6    17       P1  7948  0.81
      L1  C     7    15       P1 10171  1.00

> <Gold.PLP.Chemscore.Internal.Correction>
0.0060

> <Gold.Rescore>
     Score         DG    S(hbond)    S(metal)    S(lipo)     H(rot)  DE(clash)    DE(int)     intcor
     15.14     -16.82       3.82        0.00      24.39       1.67       0.11       1.57       ----

> <Gold.Chemscore.Fitness>
15.1413

> <Gold.Chemscore.DG>
-16.8234

> <Gold.Chemscore.ZeroCoef>
-5.4800

> <Gold.Chemscore.Hbond>
3.8202

> <Gold.Chemscore.Metal>
0.0000

> <Gold.Chemscore.Lipo>
24.3904

> <Gold.Chemscore.Internal_Hbond>
0.0000

> <Gold.Chemscore.DEClash>
0.1103

> <Gold.Chemscore.DEInternal>
1.5719

> <Gold.Chemscore.Rot>
1.6679

> <Gold.Chemscore.Internal.Correction>
   9.000000E+99

> <Gold.Chemscore.Hbonds>
donor molecule, donor type, donor heavy atom, donor atom, acceptor molecule, acceptor atom, score
      L1  H     1     9       P1 10186  0.90
      L1  H     1    10       P1 10195  0.89
      L1  H     1    16       P1  7921  0.99
      L1  H     6    17       P1  7948  0.76

> <Gold.Chemscore.Hbond.Weighted>
-12.7594

> <Gold.Chemscore.Metal.Weighted>
-0.0000

> <Gold.Chemscore.Lipo.Weighted>
-2.8537

> <Gold.Chemscore.Internal_Hbond.Weighted>
0.0000

> <Gold.Chemscore.DEClash.Weighted>
0.1103

> <Gold.Chemscore.DEInternal.Weighted>
1.5719

> <Gold.Chemscore.Rot.Weighted>
4.2697

> <Gold.Chemscore.Internal.Correction.Weighted>
   9.000000E+99

> <Gold.Protein.RotatedTorsions>
[ 6907 6896 6895 6894 ] final  113.60 input  -60.11 | X-H torsion
[ 7974 7965 7964 7962 ] final   -8.57 input  175.53 | X-H torsion
[ 8008 7997 7996 7995 ] final -163.50 input   59.86 | X-H torsion
[ 10167 10162 10161 10158 ] final -146.65 input  -65.29 | X-H torsion
[ 10718 10713 10712 10709 ] final  150.07 input   66.30 | X-H torsion
[ 10763 10752 10751 10750 ] final  138.64 input  -60.55 | X-H torsion
[ 11005 11000 10999 10996 ] final  -49.29 input  -57.11 | X-H torsion

> <Gold.Protein.ActiveResidues>
 VAL166  LYS551  ARG553  GLY616  TRP617  ASP618  TYR619  PRO620  LYS621  CYS622 
 ASP623  PHE694  ASN695  SER759  ASP760  ASP761  ALA762  ILE779  LEU786  VAL792 
 PHE793  MET794  SER795  GLU796  ALA797  LYS798  CYS799  TRP800  GLU811  SER814 

> <Gold.Protein.RotatedAtoms>
  152.4851  133.8353  159.7124 H   0  0  0  0  0  0  0  0  0  0  0  0  # atno 6907 bound_to 6896
  150.8932  133.7206  159.2905 H   0  0  0  0  0  0  0  0  0  0  0  0  # atno 6908 bound_to 6896
  151.4672  135.1047  159.9793 H   0  0  0  0  0  0  0  0  0  0  0  0  # atno 6909 bound_to 6896
  146.2277  140.2487  142.8346 H   0  0  0  0  0  0  0  0  0  0  0  0  # atno 7974 bound_to 7965
  155.8222  140.0921  157.1842 H   0  0  0  0  0  0  0  0  0  0  0  0  # atno 8008 bound_to 7997
  154.3979  140.1434  156.3574 H   0  0  0  0  0  0  0  0  0  0  0  0  # atno 8009 bound_to 7997
  155.8254  140.3444  155.5542 H   0  0  0  0  0  0  0  0  0  0  0  0  # atno 8010 bound_to 7997
  139.7694  143.8260  152.2622 H   0  0  0  0  0  0  0  0  0  0  0  0  # atno 10167 bound_to 10162
  157.2881  131.0848  151.1482 H   0  0  0  0  0  0  0  0  0  0  0  0  # atno 10718 bound_to 10713
  153.8929  135.3031  155.3447 H   0  0  0  0  0  0  0  0  0  0  0  0  # atno 10763 bound_to 10752
  154.7708  135.4887  153.9647 H   0  0  0  0  0  0  0  0  0  0  0  0  # atno 10764 bound_to 10752
  153.1288  135.6799  153.9312 H   0  0  0  0  0  0  0  0  0  0  0  0  # atno 10765 bound_to 10752
  141.0750  133.6668  156.3564 H   0  0  0  0  0  0  0  0  0  0  0  0  # atno 11005 bound_to 11000
  144.9428  140.8096  143.5620 LP  0  0  0  0  0  0  0  0  0  0  0  0  # atno 17320 bound_to 7965
  145.2440  139.2060  143.4977 LP  0  0  0  0  0  0  0  0  0  0  0  0  # atno 17321 bound_to 7965
  139.8290  144.7262  150.9475 LP  0  0  0  0  0  0  0  0  0  0  0  0  # atno 17342 bound_to 10162
  140.7813  143.4087  151.1028 LP  0  0  0  0  0  0  0  0  0  0  0  0  # atno 17343 bound_to 10162
  157.2889  130.6787  149.6104 LP  0  0  0  0  0  0  0  0  0  0  0  0  # atno 17370 bound_to 10713
  155.9666  130.4427  150.5390 LP  0  0  0  0  0  0  0  0  0  0  0  0  # atno 17371 bound_to 10713
  140.5592  134.5951  157.5429 LP  0  0  0  0  0  0  0  0  0  0  0  0  # atno 17394 bound_to 11000
  139.9563  134.7530  156.0335 LP  0  0  0  0  0  0  0  0  0  0  0  0  # atno 17395 bound_to 11000

$$$$
