AV-unprocessed.smi:594|AV-procd|sdf|3017|dock7
  -GOLD-   2262023523D 1   1.00000     0.00000
 Structure written by MMmdl.
 40 41  0  0  0  0  0  0  0  0  3 V2000
  151.2883  144.1823  160.6960 C   0  0  0  0  0  0  0  0  0  0  0  0
  152.5360  143.2910  160.8368 C   0  0  1  0  0  0  0  0  0  0  0  0
  152.8878  143.0881  162.3248 C   0  0  0  0  0  0  0  0  0  0  0  0
  154.1376  142.2135  162.5055 C   0  0  0  0  0  0  0  0  0  0  0  0
  153.9639  140.8573  161.8092 C   0  0  0  0  0  0  0  0  0  0  0  0
  153.6327  141.0433  160.3215 C   0  0  0  0  0  0  0  0  0  0  0  0
  152.3829  141.9232  160.1212 C   0  0  2  0  0  0  0  0  0  0  0  0
  152.1625  142.1078  158.6876 N   0  0  0  0  0  0  0  0  0  0  0  0
  150.9726  142.2630  158.0864 C   0  0  0  0  0  0  0  0  0  0  0  0
  149.8979  142.2348  158.6877 O   0  0  0  0  0  0  0  0  0  0  0  0
  151.0102  142.4752  156.5671 C   0  0  0  0  0  0  0  0  0  0  0  0
  150.5029  141.3147  155.8158 N   0  0  0  0  0  0  0  0  0  0  0  0
  149.2517  141.4553  155.1831 C   0  0  0  0  0  0  0  0  0  0  0  0
  148.6966  140.4592  154.4652 C   0  0  0  0  0  0  0  0  0  0  0  0
  147.4128  140.6221  153.8192 N   0  3  0  0  0  0  0  0  0  0  0  0
  146.9942  139.7162  153.1055 O   0  0  0  0  0  0  0  0  0  0  0  0
  146.7802  141.6577  154.0038 O   0  5  0  0  0  0  0  0  0  0  0  0
  149.4326  139.2143  154.3577 C   0  0  0  0  0  0  0  0  0  0  0  0
  150.6310  139.0744  154.9579 C   0  0  0  0  0  0  0  0  0  0  0  0
  151.2342  140.1606  155.7372 C   0  0  0  0  0  0  0  0  0  0  0  0
  152.3300  140.0400  156.2858 O   0  0  0  0  0  0  0  0  0  0  0  0
  150.4011  143.6847  161.0885 H   0  0  0  0  0  0  0  0  0  0  0  0
  151.0920  144.4408  159.6554 H   0  0  0  0  0  0  0  0  0  0  0  0
  151.4121  145.1188  161.2403 H   0  0  0  0  0  0  0  0  0  0  0  0
  153.3687  143.8230  160.3736 H   0  0  0  0  0  0  0  0  0  0  0  0
  153.0502  144.0541  162.8044 H   0  0  0  0  0  0  0  0  0  0  0  0
  152.0449  142.6267  162.8415 H   0  0  0  0  0  0  0  0  0  0  0  0
  155.0081  142.7278  162.0961 H   0  0  0  0  0  0  0  0  0  0  0  0
  154.3369  142.0638  163.5669 H   0  0  0  0  0  0  0  0  0  0  0  0
  154.8723  140.2641  161.9177 H   0  0  0  0  0  0  0  0  0  0  0  0
  153.1659  140.2945  162.2951 H   0  0  0  0  0  0  0  0  0  0  0  0
  154.4882  141.4946  159.8167 H   0  0  0  0  0  0  0  0  0  0  0  0
  153.4802  140.0680  159.8575 H   0  0  0  0  0  0  0  0  0  0  0  0
  151.5356  141.3969  160.5653 H   0  0  0  0  0  0  0  0  0  0  0  0
  152.9879  142.1412  158.1070 H   0  0  0  0  0  0  0  0  0  0  0  0
  150.4371  143.3667  156.3047 H   0  0  0  0  0  0  0  0  0  0  0  0
  152.0382  142.7029  156.2821 H   0  0  0  0  0  0  0  0  0  0  0  0
  148.7878  142.4219  155.3164 H   0  0  0  0  0  0  0  0  0  0  0  0
  149.0287  138.3856  153.7950 H   0  0  0  0  0  0  0  0  0  0  0  0
  151.1627  138.1388  154.8640 H   0  0  0  0  0  0  0  0  0  0  0  0
  1  2  1  0  0  0  0
  1 22  1  0  0  0  0
  1 23  1  0  0  0  0
  1 24  1  0  0  0  0
  2  7  1  0  0  0  0
  2  3  1  0  0  0  0
  2 25  1  0  0  0  0
  3  4  1  0  0  0  0
  3 26  1  0  0  0  0
  3 27  1  0  0  0  0
  4  5  1  0  0  0  0
  4 28  1  0  0  0  0
  4 29  1  0  0  0  0
  5  6  1  0  0  0  0
  5 30  1  0  0  0  0
  5 31  1  0  0  0  0
  6  7  1  0  0  0  0
  6 32  1  0  0  0  0
  6 33  1  0  0  0  0
  7  8  1  0  0  0  0
  7 34  1  0  0  0  0
  8  9  1  0  0  0  0
  8 35  1  0  0  0  0
  9 10  2  0  0  0  0
  9 11  1  0  0  0  0
 11 12  1  0  0  0  0
 11 36  1  0  0  0  0
 11 37  1  0  0  0  0
 12 20  1  0  0  0  0
 12 13  1  0  0  0  0
 13 14  2  0  0  0  0
 13 38  1  0  0  0  0
 14 15  1  0  0  0  0
 14 18  1  0  0  0  0
 15 16  2  0  0  0  0
 15 17  1  0  0  0  0
 18 19  2  0  0  0  0
 18 39  1  0  0  0  0
 19 20  1  0  0  0  0
 19 40  1  0  0  0  0
 20 21  2  0  0  0  0
M  CHG  1  15   1
M  CHG  1  17  -1
M  END
> <s_m_source_file>
AV-unprocessed.smi

> <i_m_source_file_index>
594

> <i_lp_mmshare_version>
43012

> <i_f3d_flags>
0

> <s_epik_input>
W0NIM11bQ0BASF0xW0NIMl1bQ0gyXVtDSDJdW0NIMl1bQ0BIXTFbTkhdQyg9TylbQ0gyXW4yW2NIXWMoW04rXSg9TylbTy1dKVtjSF1bY0hdYzI9Tw==

> <s_epik_cmdline>
J2VwaWtfcHl0aG9uJywgJy1waCcsICc3LjAnLCAnLXRuJywgJzgnLCAnLW1hJywgJzIwMCcsICctbWV0YWxfYmluZGluZycsICctaW1hZScsICc8aW5maWxlLm1hZT4nLCAnLW9tYWUnLCAnPG91dGZpbGUubWFlPic=

> <r_lp_tautomer_probability>
1

> <r_epik_Ionization_Penalty>
1.91305e-08

> <r_epik_Ionization_Penalty_Charging>
8.35811e-11

> <r_epik_Ionization_Penalty_Neutral>
1.90469e-08

> <r_epik_State_Penalty>
-0

> <r_epik_Charging_Adjusted_Penalty>
8.35811e-11

> <i_epik_Tot_Q>
0

> <i_epik_Tot_abs_Q>
2

> <r_epik_Metal_State_Penalty>
-0

> <b_epik_Metal_Only>
0

> <s_lp_Force_Field>
OPLS_2005

> <r_lp_Energy>
21.4369

> <b_lp_Chiralities_Consistent>
1

> <s_lp_Variant>
AV-unprocessed.smi:594-4

> <Gold.Version>
5.8.1

> <Gold.Id.Protein>
6NUR|6NUR_protein|mol2

> <Gold.PLP.Fitness>
49.8628

> <Gold.PLP.PLP>
-45.0832

> <Gold.PLP.part.hbond>
-1.1875

> <Gold.PLP.part.metal>
0.0000

> <Gold.PLP.part.buried>
-2.7686

> <Gold.PLP.part.nonpolar>
-41.1753

> <Gold.PLP.part.repulsive>
1.1708

> <Gold.PLP.ligand.clash>
0.0000

> <Gold.PLP.ligand.torsion>
0.6145

> <Gold.PLP.Chemscore.Hbond>
1.0000

> <Gold.PLP.Chemscore.CHOScore>
1.0000

> <Gold.PLP.Chemscore.Metal>
0.0000

> <Gold.Chemscore.Hbonds>
donor molecule, donor type, donor heavy atom, donor atom, acceptor molecule, acceptor atom, score
      P1  H  7997  8009       L1    21  0.94
      L1  C    13    38       P1  8028  1.00

> <Gold.PLP.Chemscore.Internal.Correction>
0.0085

> <Gold.Rescore>
     Score         DG    S(hbond)    S(metal)    S(lipo)     H(rot)  DE(clash)    DE(int)     intcor
     16.92     -17.82       0.98        0.00     111.44       1.55       0.20       0.70       ----

> <Gold.Chemscore.Fitness>
16.9181

> <Gold.Chemscore.DG>
-17.8233

> <Gold.Chemscore.ZeroCoef>
-5.4800

> <Gold.Chemscore.Hbond>
0.9801

> <Gold.Chemscore.Metal>
0.0000

> <Gold.Chemscore.Lipo>
111.4428

> <Gold.Chemscore.Internal_Hbond>
0.0000

> <Gold.Chemscore.DEClash>
0.2024

> <Gold.Chemscore.DEInternal>
0.7029

> <Gold.Chemscore.Rot>
1.5505

> <Gold.Chemscore.Internal.Correction>
   9.000000E+99

> <Gold.Chemscore.Hbonds>
donor molecule, donor type, donor heavy atom, donor atom, acceptor molecule, acceptor atom, score
      P1  H  7997  8009       L1    21  0.86

> <Gold.Chemscore.Hbond.Weighted>
-3.2737

> <Gold.Chemscore.Metal.Weighted>
-0.0000

> <Gold.Chemscore.Lipo.Weighted>
-13.0388

> <Gold.Chemscore.Internal_Hbond.Weighted>
0.0000

> <Gold.Chemscore.DEClash.Weighted>
0.2024

> <Gold.Chemscore.DEInternal.Weighted>
0.7029

> <Gold.Chemscore.Rot.Weighted>
3.9692

> <Gold.Chemscore.Internal.Correction.Weighted>
   9.000000E+99

> <Gold.Protein.RotatedTorsions>
[ 6907 6896 6895 6894 ] final   46.51 input  -60.11 | X-H torsion
[ 7974 7965 7964 7962 ] final  166.14 input  175.53 | X-H torsion
[ 8008 7997 7996 7995 ] final -146.99 input   59.86 | X-H torsion
[ 10167 10162 10161 10158 ] final -103.59 input  -65.29 | X-H torsion
[ 10718 10713 10712 10709 ] final   29.19 input   66.30 | X-H torsion
[ 10763 10752 10751 10750 ] final  142.92 input  -60.55 | X-H torsion
[ 11005 11000 10999 10996 ] final -168.04 input  -57.11 | X-H torsion

> <Gold.Protein.ActiveResidues>
 VAL166  LYS551  ARG553  GLY616  TRP617  ASP618  TYR619  PRO620  LYS621  CYS622 
 ASP623  PHE694  ASN695  SER759  ASP760  ASP761  ALA762  ILE779  LEU786  VAL792 
 PHE793  MET794  SER795  GLU796  ALA797  LYS798  CYS799  TRP800  GLU811  SER814 

> <Gold.Protein.RotatedAtoms>
  152.2572  134.8072  160.0436 H   0  0  0  0  0  0  0  0  0  0  0  0  # atno 6907 bound_to 6896
  151.8731  133.3474  159.3749 H   0  0  0  0  0  0  0  0  0  0  0  0  # atno 6908 bound_to 6896
  150.7104  134.5020  159.5610 H   0  0  0  0  0  0  0  0  0  0  0  0  # atno 6909 bound_to 6896
  144.7474  139.8573  143.6377 H   0  0  0  0  0  0  0  0  0  0  0  0  # atno 7974 bound_to 7965
  155.5683  140.0632  157.2812 H   0  0  0  0  0  0  0  0  0  0  0  0  # atno 8008 bound_to 7997
  154.4369  140.1873  156.0899 H   0  0  0  0  0  0  0  0  0  0  0  0  # atno 8009 bound_to 7997
  156.0395  140.3297  155.7232 H   0  0  0  0  0  0  0  0  0  0  0  0  # atno 8010 bound_to 7997
  140.2184  143.3694  152.0991 H   0  0  0  0  0  0  0  0  0  0  0  0  # atno 10167 bound_to 10162
  157.2433  130.7079  149.6369 H   0  0  0  0  0  0  0  0  0  0  0  0  # atno 10718 bound_to 10713
  153.9638  135.2957  155.3432 H   0  0  0  0  0  0  0  0  0  0  0  0  # atno 10763 bound_to 10752
  154.7360  135.5046  153.9045 H   0  0  0  0  0  0  0  0  0  0  0  0  # atno 10764 bound_to 10752
  153.0933  135.6714  153.9922 H   0  0  0  0  0  0  0  0  0  0  0  0  # atno 10765 bound_to 10752
  140.5465  134.5471  157.5112 H   0  0  0  0  0  0  0  0  0  0  0  0  # atno 11005 bound_to 11000
  146.1374  139.4422  143.0131 LP  0  0  0  0  0  0  0  0  0  0  0  0  # atno 17320 bound_to 7965
  145.7071  141.0118  143.1473 LP  0  0  0  0  0  0  0  0  0  0  0  0  # atno 17321 bound_to 7965
  139.5153  144.6961  151.5625 LP  0  0  0  0  0  0  0  0  0  0  0  0  # atno 17342 bound_to 10162
  140.6273  143.9144  150.6575 LP  0  0  0  0  0  0  0  0  0  0  0  0  # atno 17343 bound_to 10162
  155.9669  130.4451  150.5488 LP  0  0  0  0  0  0  0  0  0  0  0  0  # atno 17370 bound_to 10713
  157.3356  131.0707  151.1828 LP  0  0  0  0  0  0  0  0  0  0  0  0  # atno 17371 bound_to 10713
  139.9477  134.7673  156.0523 LP  0  0  0  0  0  0  0  0  0  0  0  0  # atno 17394 bound_to 11000
  141.1197  133.6617  156.3182 LP  0  0  0  0  0  0  0  0  0  0  0  0  # atno 17395 bound_to 11000

$$$$
