AV-unprocessed.smi:3345|AV-procd|sdf|12901|dock8
  -GOLD-   2272019313D 1   1.00000     0.00000
 Structure written by MMmdl.
 40 41  0  0  0  0  0  0  0  0  1 V2000
  145.1381  137.8663  153.8116 C   0  0  0  0  0  0  0  0  0  0  0  0
  146.6469  137.6486  154.0046 C   0  0  2  0  0  0  0  0  0  0  0  0
  147.4571  138.8985  153.5960 C   0  0  0  0  0  0  0  0  0  0  0  0
  148.6224  139.1863  154.4327 N   0  0  0  0  0  0  0  0  0  0  0  0
  149.8126  138.4464  154.0186 C   0  0  0  0  0  0  0  0  0  0  0  0
  151.0323  138.7830  154.8941 C   0  0  0  0  0  0  0  0  0  0  0  0
  151.2700  140.1865  154.8657 O   0  0  0  0  0  0  0  0  0  0  0  0
  150.1481  140.9416  155.3109 C   0  0  0  0  0  0  0  0  0  0  0  0
  148.9272  140.6134  154.4342 C   0  0  0  0  0  0  0  0  0  0  0  0
  147.0597  136.5030  153.1971 N   0  0  0  0  0  0  0  0  0  0  0  0
  146.5504  135.2637  153.2812 C   0  0  0  0  0  0  0  0  0  0  0  0
  145.6657  134.9488  154.0777 O   0  0  0  0  0  0  0  0  0  0  0  0
  147.1232  134.2254  152.3063 C   0  0  1  0  0  0  0  0  0  0  0  0
  147.8342  133.0735  153.0453 C   0  0  0  0  0  0  0  0  0  0  0  0
  146.0746  133.7567  151.4072 N   0  0  0  0  0  0  0  0  0  0  0  0
  146.1496  132.9200  150.3696 C   0  0  0  0  0  0  0  0  0  0  0  0
  145.0017  132.7509  149.7282 N   0  0  0  0  0  0  0  0  0  0  0  0
  144.2056  133.5821  150.4637 C   0  0  0  0  0  0  0  0  0  0  0  0
  144.8004  134.2184  151.4724 N   0  0  0  0  0  0  0  0  0  0  0  0
  144.7808  138.6983  154.4190 H   0  0  0  0  0  0  0  0  0  0  0  0
  144.5718  136.9818  154.1053 H   0  0  0  0  0  0  0  0  0  0  0  0
  144.8973  138.0859  152.7708 H   0  0  0  0  0  0  0  0  0  0  0  0
  146.8165  137.4528  155.0654 H   0  0  0  0  0  0  0  0  0  0  0  0
  147.7479  138.8406  152.5455 H   0  0  0  0  0  0  0  0  0  0  0  0
  146.7881  139.7577  153.6596 H   0  0  0  0  0  0  0  0  0  0  0  0
  149.6296  137.3741  154.0781 H   0  0  0  0  0  0  0  0  0  0  0  0
  150.0430  138.6694  152.9757 H   0  0  0  0  0  0  0  0  0  0  0  0
  150.8709  138.4557  155.9225 H   0  0  0  0  0  0  0  0  0  0  0  0
  151.9176  138.2630  154.5279 H   0  0  0  0  0  0  0  0  0  0  0  0
  149.9429  140.7198  156.3593 H   0  0  0  0  0  0  0  0  0  0  0  0
  150.3854  142.0036  155.2479 H   0  0  0  0  0  0  0  0  0  0  0  0
  149.1157  140.9526  153.4145 H   0  0  0  0  0  0  0  0  0  0  0  0
  148.0657  141.1758  154.7958 H   0  0  0  0  0  0  0  0  0  0  0  0
  147.7859  136.6689  152.5156 H   0  0  0  0  0  0  0  0  0  0  0  0
  147.8727  134.7197  151.6855 H   0  0  0  0  0  0  0  0  0  0  0  0
  148.6520  133.4505  153.6607 H   0  0  0  0  0  0  0  0  0  0  0  0
  148.2601  132.3619  152.3374 H   0  0  0  0  0  0  0  0  0  0  0  0
  147.1575  132.5232  153.7004 H   0  0  0  0  0  0  0  0  0  0  0  0
  147.0646  132.4280  150.0745 H   0  0  0  0  0  0  0  0  0  0  0  0
  143.1579  133.7279  150.2454 H   0  0  0  0  0  0  0  0  0  0  0  0
  1  2  1  0  0  0  0
  1 20  1  0  0  0  0
  1 21  1  0  0  0  0
  1 22  1  0  0  0  0
  2  3  1  0  0  0  0
  2 10  1  0  0  0  0
  2 23  1  0  0  0  0
  3  4  1  0  0  0  0
  3 24  1  0  0  0  0
  3 25  1  0  0  0  0
  4  9  1  0  0  0  0
  4  5  1  0  0  0  0
  5  6  1  0  0  0  0
  5 26  1  0  0  0  0
  5 27  1  0  0  0  0
  6  7  1  0  0  0  0
  6 28  1  0  0  0  0
  6 29  1  0  0  0  0
  7  8  1  0  0  0  0
  8  9  1  0  0  0  0
  8 30  1  0  0  0  0
  8 31  1  0  0  0  0
  9 32  1  0  0  0  0
  9 33  1  0  0  0  0
 10 11  1  0  0  0  0
 10 34  1  0  0  0  0
 11 12  2  0  0  0  0
 11 13  1  0  0  0  0
 13 14  1  0  0  0  0
 13 15  1  0  0  0  0
 13 35  1  0  0  0  0
 14 36  1  0  0  0  0
 14 37  1  0  0  0  0
 14 38  1  0  0  0  0
 15 19  1  0  0  0  0
 15 16  1  0  0  0  0
 16 17  2  0  0  0  0
 16 39  1  0  0  0  0
 17 18  1  0  0  0  0
 18 19  2  0  0  0  0
 18 40  1  0  0  0  0
M  END
> <s_m_source_file>
AV-unprocessed.smi

> <i_m_source_file_index>
3345

> <i_lp_mmshare_version>
43012

> <i_f3d_flags>
0

> <s_epik_input>
W0NIMl0xW0NIMl1PW0NIMl1bQ0gyXU4xW0NIMl1bQ0BASF0oW0NIM10pW05IXUMoPU8pW0NASF0oW0NIM10pbjJbY0hdbltjSF1uMg==

> <s_epik_cmdline>
J2VwaWtfcHl0aG9uJywgJy1waCcsICc3LjAnLCAnLXRuJywgJzgnLCAnLW1hJywgJzIwMCcsICctbWV0YWxfYmluZGluZycsICctaW1hZScsICc8aW5maWxlLm1hZT4nLCAnLW9tYWUnLCAnPG91dGZpbGUubWFlPic=

> <r_lp_tautomer_probability>
1

> <r_epik_Ionization_Penalty>
0.211373

> <r_epik_Ionization_Penalty_Charging>
0

> <r_epik_Ionization_Penalty_Neutral>
0.211373

> <r_epik_State_Penalty>
0.201459

> <r_epik_Charging_Adjusted_Penalty>
0.201459

> <i_epik_Tot_Q>
0

> <i_epik_Tot_abs_Q>
0

> <r_epik_Metal_State_Penalty>
0.201458

> <b_epik_Metal_Only>
0

> <s_lp_Force_Field>
OPLS_2005

> <r_lp_Energy>
31.9389

> <b_lp_Chiralities_Consistent>
1

> <s_lp_Variant>
AV-unprocessed.smi:3345-3

> <Gold.Version>
5.8.1

> <Gold.Id.Protein>
6NUR|6NUR_protein|mol2

> <Gold.PLP.Fitness>
35.7931

> <Gold.PLP.PLP>
-25.3797

> <Gold.PLP.part.hbond>
-1.8958

> <Gold.PLP.part.metal>
0.0000

> <Gold.PLP.part.buried>
-1.1483

> <Gold.PLP.part.nonpolar>
-22.1564

> <Gold.PLP.part.repulsive>
0.5081

> <Gold.PLP.ligand.clash>
0.0000

> <Gold.PLP.ligand.torsion>
0.8651

> <Gold.PLP.Chemscore.Hbond>
2.0000

> <Gold.PLP.Chemscore.CHOScore>
2.0000

> <Gold.PLP.Chemscore.Metal>
0.0000

> <Gold.Chemscore.Hbonds>
donor molecule, donor type, donor heavy atom, donor atom, acceptor molecule, acceptor atom, score
      L1  H    10    34       P1  7948  0.68
      P1  H  7989  7998       L1     7  1.00
      L1  C    16    39       P1 10747  1.00
      L1  C    18    40       P1 10186  1.00

> <Gold.PLP.Chemscore.Internal.Correction>
0.1436

> <Gold.Rescore>
     Score         DG    S(hbond)    S(metal)    S(lipo)     H(rot)  DE(clash)    DE(int)     intcor
      7.32     -10.63       1.93        0.00      44.25       2.54       0.01       3.29       ----

> <Gold.Chemscore.Fitness>
7.3196

> <Gold.Chemscore.DG>
-10.6268

> <Gold.Chemscore.ZeroCoef>
-5.4800

> <Gold.Chemscore.Hbond>
1.9340

> <Gold.Chemscore.Metal>
0.0000

> <Gold.Chemscore.Lipo>
44.2528

> <Gold.Chemscore.Internal_Hbond>
0.0000

> <Gold.Chemscore.DEClash>
0.0133

> <Gold.Chemscore.DEInternal>
3.2938

> <Gold.Chemscore.Rot>
2.5353

> <Gold.Chemscore.Internal.Correction>
   9.000000E+99

> <Gold.Chemscore.Hbonds>
donor molecule, donor type, donor heavy atom, donor atom, acceptor molecule, acceptor atom, score
      L1  H    10    34       P1  7948  0.65
      P1  H  7989  7998       L1     7  0.37

> <Gold.Chemscore.Hbond.Weighted>
-6.4597

> <Gold.Chemscore.Metal.Weighted>
-0.0000

> <Gold.Chemscore.Lipo.Weighted>
-5.1776

> <Gold.Chemscore.Internal_Hbond.Weighted>
0.0000

> <Gold.Chemscore.DEClash.Weighted>
0.0133

> <Gold.Chemscore.DEInternal.Weighted>
3.2938

> <Gold.Chemscore.Rot.Weighted>
6.4905

> <Gold.Chemscore.Internal.Correction.Weighted>
   9.000000E+99

> <Gold.Protein.RotatedTorsions>
[ 6907 6896 6895 6894 ] final  -78.60 input  -60.11 | X-H torsion
[ 7974 7965 7964 7962 ] final   82.15 input  175.53 | X-H torsion
[ 8008 7997 7996 7995 ] final  157.33 input   59.86 | X-H torsion
[ 10167 10162 10161 10158 ] final -124.72 input  -65.29 | X-H torsion
[ 10718 10713 10712 10709 ] final  150.21 input   66.30 | X-H torsion
[ 10763 10752 10751 10750 ] final   54.87 input  -60.55 | X-H torsion
[ 11005 11000 10999 10996 ] final  -65.87 input  -57.11 | X-H torsion

> <Gold.Protein.ActiveResidues>
 VAL166  LYS551  ARG553  GLY616  TRP617  ASP618  TYR619  PRO620  LYS621  CYS622 
 ASP623  PHE694  ASN695  SER759  ASP760  ASP761  ALA762  ILE779  LEU786  VAL792 
 PHE793  MET794  SER795  GLU796  ALA797  LYS798  CYS799  TRP800  GLU811  SER814 

> <Gold.Protein.RotatedAtoms>
  150.6969  134.4247  159.5220 H   0  0  0  0  0  0  0  0  0  0  0  0  # atno 6907 bound_to 6896
  152.1984  134.8607  160.0519 H   0  0  0  0  0  0  0  0  0  0  0  0  # atno 6908 bound_to 6896
  151.9537  133.3639  159.4046 H   0  0  0  0  0  0  0  0  0  0  0  0  # atno 6909 bound_to 6896
  145.6289  139.2401  143.2096 H   0  0  0  0  0  0  0  0  0  0  0  0  # atno 7974 bound_to 7965
  156.2370  140.1888  156.7091 H   0  0  0  0  0  0  0  0  0  0  0  0  # atno 8008 bound_to 7997
  154.6125  140.0620  156.9540 H   0  0  0  0  0  0  0  0  0  0  0  0  # atno 8009 bound_to 7997
  155.1992  140.3291  155.4348 H   0  0  0  0  0  0  0  0  0  0  0  0  # atno 8010 bound_to 7997
  139.9898  143.5653  152.2346 H   0  0  0  0  0  0  0  0  0  0  0  0  # atno 10167 bound_to 10162
  157.2864  131.0845  151.1494 H   0  0  0  0  0  0  0  0  0  0  0  0  # atno 10718 bound_to 10713
  152.9809  135.5730  154.4974 H   0  0  0  0  0  0  0  0  0  0  0  0  # atno 10763 bound_to 10752
  154.4498  135.2778  155.1791 H   0  0  0  0  0  0  0  0  0  0  0  0  # atno 10764 bound_to 10752
  154.3423  135.6227  153.5656 H   0  0  0  0  0  0  0  0  0  0  0  0  # atno 10765 bound_to 10752
  141.1467  133.6689  156.6053 H   0  0  0  0  0  0  0  0  0  0  0  0  # atno 11005 bound_to 11000
  146.1372  140.7106  142.9384 LP  0  0  0  0  0  0  0  0  0  0  0  0  # atno 17320 bound_to 7965
  144.7201  140.4345  143.7014 LP  0  0  0  0  0  0  0  0  0  0  0  0  # atno 17321 bound_to 7965
  139.6348  144.7649  151.2460 LP  0  0  0  0  0  0  0  0  0  0  0  0  # atno 17342 bound_to 10162
  140.7459  143.6416  150.8329 LP  0  0  0  0  0  0  0  0  0  0  0  0  # atno 17343 bound_to 10162
  157.2908  130.6795  149.6113 LP  0  0  0  0  0  0  0  0  0  0  0  0  # atno 17370 bound_to 10713
  155.9665  130.4421  150.5368 LP  0  0  0  0  0  0  0  0  0  0  0  0  # atno 17371 bound_to 10713
  140.3656  134.7649  157.4564 LP  0  0  0  0  0  0  0  0  0  0  0  0  # atno 17394 bound_to 11000
  140.0750  134.5809  155.8601 LP  0  0  0  0  0  0  0  0  0  0  0  0  # atno 17395 bound_to 11000

$$$$
