AV-unprocessed.smi:16|AV-procd|sdf|90|dock7
  -GOLD-   2262015233D 1   1.00000     0.00000
 Structure written by MMmdl.
 60 64  0  0  0  0  0  0  0  0  2 V2000
  152.4808  144.7454  158.3305 C   0  0  0  0  0  0  0  0  0  0  0  0
  151.7331  143.5069  157.8169 C   0  0  0  0  0  0  0  0  0  0  0  0
  151.2920  142.6113  158.9198 N   0  3  2  0  0  0  0  0  0  0  0  0
  152.2357  142.5282  160.0688 C   0  0  0  0  0  0  0  0  0  0  0  0
  153.4648  141.6541  159.7535 C   0  0  0  0  0  0  0  0  0  0  0  0
  153.0311  140.2626  159.2756 C   0  0  2  0  0  0  0  0  0  0  0  0
  154.1781  139.5012  158.9159 O   0  0  0  0  0  0  0  0  0  0  0  0
  153.8305  138.1742  158.5339 C   0  0  0  0  0  0  0  0  0  0  0  0
  152.8983  138.2207  157.3123 C   0  0  0  0  0  0  0  0  0  0  0  0
  151.7262  139.0458  157.5953 N   0  0  0  0  0  0  0  0  0  0  0  0
  150.8158  139.0198  156.5956 C   0  0  0  0  0  0  0  0  0  0  0  0
  151.1017  139.5893  155.3950 N   0  0  0  0  0  0  0  0  0  0  0  0
  150.1891  139.5767  154.4181 C   0  0  0  0  0  0  0  0  0  0  0  0
  148.9527  139.0733  154.4374 N   0  0  0  0  0  0  0  0  0  0  0  0
  148.6617  138.5137  155.6472 C   0  0  0  0  0  0  0  0  0  0  0  0
  149.5329  138.4395  156.7688 C   0  0  0  0  0  0  0  0  0  0  0  0
  148.9028  137.7941  157.8243 N   0  0  0  0  0  0  0  0  0  0  0  0
  147.7246  137.4930  157.3492 C   0  0  0  0  0  0  0  0  0  0  0  0
  147.4835  137.9170  156.0609 N   0  0  0  0  0  0  0  0  0  0  0  0
  146.2939  137.6923  155.2938 C   0  0  0  0  0  0  0  0  0  0  0  0
  145.9105  136.2890  154.8181 C   0  0  0  0  0  0  0  0  0  0  0  0
  145.2798  136.8999  153.5463 C   0  0  0  0  0  0  0  0  0  0  0  0
  145.5552  136.1378  152.2398 C   0  0  0  0  0  0  0  0  0  0  0  0
  145.2229  136.9206  151.1113 O   0  0  0  0  0  0  0  0  0  0  0  0
  143.7727  137.2119  153.6430 C   0  0  0  0  0  0  0  0  0  0  0  0
  143.3268  137.9607  152.5304 O   0  0  0  0  0  0  0  0  0  0  0  0
  146.2163  138.0975  153.8197 C   0  0  0  0  0  0  0  0  0  0  0  0
  152.0894  140.3874  158.0584 C   0  0  1  0  0  0  0  0  0  0  0  0
  150.8725  141.2638  158.4507 C   0  0  0  0  0  0  0  0  0  0  0  0
  152.5144  139.7589  160.0954 H   0  0  0  0  0  0  0  0  0  0  0  0
  152.6300  140.8784  157.2473 H   0  0  0  0  0  0  0  0  0  0  0  0
  152.6955  145.4294  157.5092 H   0  0  0  0  0  0  0  0  0  0  0  0
  153.4338  144.4877  158.7915 H   0  0  0  0  0  0  0  0  0  0  0  0
  151.8853  145.2892  159.0645 H   0  0  0  0  0  0  0  0  0  0  0  0
  150.8563  143.8565  157.2705 H   0  0  0  0  0  0  0  0  0  0  0  0
  152.3443  142.9658  157.0948 H   0  0  0  0  0  0  0  0  0  0  0  0
  152.5471  143.5207  160.3914 H   0  0  0  0  0  0  0  0  0  0  0  0
  151.6983  142.0959  160.9140 H   0  0  0  0  0  0  0  0  0  0  0  0
  154.0861  142.1320  158.9956 H   0  0  0  0  0  0  0  0  0  0  0  0
  154.0885  141.5612  160.6431 H   0  0  0  0  0  0  0  0  0  0  0  0
  154.7398  137.6239  158.2922 H   0  0  0  0  0  0  0  0  0  0  0  0
  153.3551  137.6543  159.3673 H   0  0  0  0  0  0  0  0  0  0  0  0
  153.4422  138.6262  156.4576 H   0  0  0  0  0  0  0  0  0  0  0  0
  152.5853  137.2104  157.0452 H   0  0  0  0  0  0  0  0  0  0  0  0
  150.4904  140.0389  153.4896 H   0  0  0  0  0  0  0  0  0  0  0  0
  146.9905  136.9576  157.9341 H   0  0  0  0  0  0  0  0  0  0  0  0
  145.4787  138.1423  155.8630 H   0  0  0  0  0  0  0  0  0  0  0  0
  146.7840  135.6692  154.6073 H   0  0  0  0  0  0  0  0  0  0  0  0
  145.2150  135.7667  155.4758 H   0  0  0  0  0  0  0  0  0  0  0  0
  146.6104  135.8740  152.1613 H   0  0  0  0  0  0  0  0  0  0  0  0
  145.0030  135.1987  152.1969 H   0  0  0  0  0  0  0  0  0  0  0  0
  144.6058  136.4377  150.5831 H   0  0  0  0  0  0  0  0  0  0  0  0
  143.1829  136.2960  153.6843 H   0  0  0  0  0  0  0  0  0  0  0  0
  143.5371  137.7628  154.5538 H   0  0  0  0  0  0  0  0  0  0  0  0
  143.6696  138.8385  152.6029 H   0  0  0  0  0  0  0  0  0  0  0  0
  145.7721  139.0776  153.6428 H   0  0  0  0  0  0  0  0  0  0  0  0
  147.1778  138.0076  153.3103 H   0  0  0  0  0  0  0  0  0  0  0  0
  150.3117  140.7768  159.2501 H   0  0  0  0  0  0  0  0  0  0  0  0
  150.1744  141.3798  157.6209 H   0  0  0  0  0  0  0  0  0  0  0  0
  150.4515  143.0409  159.2794 H   0  0  0  0  0  0  0  0  0  0  0  0
  1  2  1  0  0  0  0
  1 32  1  0  0  0  0
  1 33  1  0  0  0  0
  1 34  1  0  0  0  0
  2  3  1  0  0  0  0
  2 35  1  0  0  0  0
  2 36  1  0  0  0  0
  3 29  1  0  0  0  0
  3  4  1  0  0  0  0
  3 60  1  0  0  0  0
  4  5  1  0  0  0  0
  4 37  1  0  0  0  0
  4 38  1  0  0  0  0
  5  6  1  0  0  0  0
  5 39  1  0  0  0  0
  5 40  1  0  0  0  0
  6 30  1  0  0  0  0
  6 28  1  0  0  0  0
  6  7  1  0  0  0  0
  7  8  1  0  0  0  0
  8  9  1  0  0  0  0
  8 41  1  0  0  0  0
  8 42  1  0  0  0  0
  9 10  1  0  0  0  0
  9 43  1  0  0  0  0
  9 44  1  0  0  0  0
 10 11  1  0  0  0  0
 10 28  1  0  0  0  0
 11 16  1  0  0  0  0
 11 12  2  0  0  0  0
 12 13  1  0  0  0  0
 13 14  2  0  0  0  0
 13 45  1  0  0  0  0
 14 15  1  0  0  0  0
 15 19  1  0  0  0  0
 15 16  2  0  0  0  0
 16 17  1  0  0  0  0
 17 18  2  0  0  0  0
 18 19  1  0  0  0  0
 18 46  1  0  0  0  0
 19 20  1  0  0  0  0
 20 27  1  0  0  0  0
 20 21  1  0  0  0  0
 20 47  1  0  0  0  0
 21 22  1  0  0  0  0
 21 48  1  0  0  0  0
 21 49  1  0  0  0  0
 22 23  1  0  0  0  0
 22 25  1  0  0  0  0
 22 27  1  0  0  0  0
 23 24  1  0  0  0  0
 23 50  1  0  0  0  0
 23 51  1  0  0  0  0
 24 52  1  0  0  0  0
 25 26  1  0  0  0  0
 25 53  1  0  0  0  0
 25 54  1  0  0  0  0
 26 55  1  0  0  0  0
 27 56  1  0  0  0  0
 27 57  1  0  0  0  0
 28 31  1  0  0  0  0
 28 29  1  0  0  0  0
 29 58  1  0  0  0  0
 29 59  1  0  0  0  0
M  CHG  1   3   1
M  END
> <s_m_source_file>
AV-unprocessed.smi

> <i_m_source_file_index>
16

> <i_lp_mmshare_version>
43012

> <i_f3d_flags>
0

> <s_epik_input>
W0NIM11bQ0gyXU4oW0NIMl1bQ0gyXTEpW0NIMl1bQ0BASF0oW0NAQEhdMTIpTihbQ0gyXVtDSDJdTzIpYyhuW2NIXW4zKWMoYzM0KW5bY0hdbjRbQ0hdKFtDSDJdNSlbQ0gyXUM1KFtDSDJdW09IXSlbQ0gyXVtPSF0=

> <s_epik_cmdline>
J2VwaWtfcHl0aG9uJywgJy1waCcsICc3LjAnLCAnLXRuJywgJzgnLCAnLW1hJywgJzIwMCcsICctbWV0YWxfYmluZGluZycsICctaW1hZScsICc8aW5maWxlLm1hZT4nLCAnLW9tYWUnLCAnPG91dGZpbGUubWFlPic=

> <r_lp_tautomer_probability>
1

> <r_epik_Ionization_Penalty>
0.0135603

> <r_epik_Ionization_Penalty_Charging>
0.0131385

> <r_epik_Ionization_Penalty_Neutral>
0.000421734

> <r_epik_State_Penalty>
0.0102091

> <r_epik_Charging_Adjusted_Penalty>
0.0233476

> <i_epik_Tot_Q>
1

> <i_epik_Tot_abs_Q>
1

> <r_epik_Metal_State_Penalty>
0.0103746

> <b_epik_Metal_Only>
0

> <s_lp_Force_Field>
OPLS_2005

> <r_lp_Energy>
56.2472

> <b_lp_Chiralities_Consistent>
1

> <s_lp_Variant>
AV-unprocessed.smi:16-4

> <Gold.Version>
5.8.1

> <Gold.Id.Protein>
6NUR|6NUR_protein|mol2

> <Gold.PLP.Fitness>
45.2436

> <Gold.PLP.PLP>
-36.6168

> <Gold.PLP.part.hbond>
-3.9024

> <Gold.PLP.part.metal>
0.0000

> <Gold.PLP.part.buried>
-7.0245

> <Gold.PLP.part.nonpolar>
-26.8207

> <Gold.PLP.part.repulsive>
0.2482

> <Gold.PLP.ligand.clash>
0.0000

> <Gold.PLP.ligand.torsion>
0.5116

> <Gold.PLP.Chemscore.Hbond>
2.0000

> <Gold.PLP.Chemscore.CHOScore>
1.0000

> <Gold.PLP.Chemscore.Metal>
0.0000

> <Gold.Chemscore.Hbonds>
donor molecule, donor type, donor heavy atom, donor atom, acceptor molecule, acceptor atom, score
      L1  H    26    55       P1 10175  1.00
      P1  H  7997  8010       L1     7  0.95
      L1  C    13    45       P1  7957  1.00

> <Gold.PLP.Chemscore.Internal.Correction>
0.6500

> <Gold.Rescore>
     Score         DG    S(hbond)    S(metal)    S(lipo)     H(rot)  DE(clash)    DE(int)     intcor
     11.20     -12.83       1.68        0.00      87.51       3.33       0.08       1.55       ----

> <Gold.Chemscore.Fitness>
11.1977

> <Gold.Chemscore.DG>
-12.8264

> <Gold.Chemscore.ZeroCoef>
-5.4800

> <Gold.Chemscore.Hbond>
1.6825

> <Gold.Chemscore.Metal>
0.0000

> <Gold.Chemscore.Lipo>
87.5136

> <Gold.Chemscore.Internal_Hbond>
0.0000

> <Gold.Chemscore.DEClash>
0.0765

> <Gold.Chemscore.DEInternal>
1.5522

> <Gold.Chemscore.Rot>
3.3251

> <Gold.Chemscore.Internal.Correction>
   9.000000E+99

> <Gold.Chemscore.Hbonds>
donor molecule, donor type, donor heavy atom, donor atom, acceptor molecule, acceptor atom, score
      L1  H    26    55       P1 10175  0.97
      P1  H  7997  8010       L1     7  0.20

> <Gold.Chemscore.Hbond.Weighted>
-5.6195

> <Gold.Chemscore.Metal.Weighted>
-0.0000

> <Gold.Chemscore.Lipo.Weighted>
-10.2391

> <Gold.Chemscore.Internal_Hbond.Weighted>
0.0000

> <Gold.Chemscore.DEClash.Weighted>
0.0765

> <Gold.Chemscore.DEInternal.Weighted>
1.5522

> <Gold.Chemscore.Rot.Weighted>
8.5122

> <Gold.Chemscore.Internal.Correction.Weighted>
   9.000000E+99

> <Gold.Protein.RotatedTorsions>
[ 6907 6896 6895 6894 ] final -163.82 input  -60.11 | X-H torsion
[ 7974 7965 7964 7962 ] final  -81.06 input  175.53 | X-H torsion
[ 8008 7997 7996 7995 ] final   -7.45 input   59.86 | X-H torsion
[ 10167 10162 10161 10158 ] final -148.16 input  -65.29 | X-H torsion
[ 10718 10713 10712 10709 ] final    2.23 input   66.30 | X-H torsion
[ 10763 10752 10751 10750 ] final -140.42 input  -60.55 | X-H torsion
[ 11005 11000 10999 10996 ] final   24.11 input  -57.11 | X-H torsion

> <Gold.Protein.ActiveResidues>
 VAL166  LYS551  ARG553  GLY616  TRP617  ASP618  TYR619  PRO620  LYS621  CYS622 
 ASP623  PHE694  ASN695  SER759  ASP760  ASP761  ALA762  ILE779  LEU786  VAL792 
 PHE793  MET794  SER795  GLU796  ALA797  LYS798  CYS799  TRP800  GLU811  SER814 

> <Gold.Protein.RotatedAtoms>
  151.4021  133.3754  159.2733 H   0  0  0  0  0  0  0  0  0  0  0  0  # atno 6907 bound_to 6896
  150.9426  134.8835  159.7632 H   0  0  0  0  0  0  0  0  0  0  0  0  # atno 6908 bound_to 6896
  152.5078  134.3972  159.9456 H   0  0  0  0  0  0  0  0  0  0  0  0  # atno 6909 bound_to 6896
  145.5517  140.9495  143.1496 H   0  0  0  0  0  0  0  0  0  0  0  0  # atno 7974 bound_to 7965
  154.5837  140.2407  155.8017 H   0  0  0  0  0  0  0  0  0  0  0  0  # atno 8008 bound_to 7997
  156.2198  140.3001  155.9880 H   0  0  0  0  0  0  0  0  0  0  0  0  # atno 8009 bound_to 7997
  155.2495  140.0410  157.2975 H   0  0  0  0  0  0  0  0  0  0  0  0  # atno 8010 bound_to 7997
  139.7556  143.8453  152.2596 H   0  0  0  0  0  0  0  0  0  0  0  0  # atno 10167 bound_to 10162
  156.8599  130.5583  149.5663 H   0  0  0  0  0  0  0  0  0  0  0  0  # atno 10718 bound_to 10713
  154.8579  135.3554  154.5704 H   0  0  0  0  0  0  0  0  0  0  0  0  # atno 10763 bound_to 10752
  153.6317  135.7002  153.5278 H   0  0  0  0  0  0  0  0  0  0  0  0  # atno 10764 bound_to 10752
  153.3044  135.4197  155.1240 H   0  0  0  0  0  0  0  0  0  0  0  0  # atno 10765 bound_to 10752
  140.3623  134.2112  155.7671 H   0  0  0  0  0  0  0  0  0  0  0  0  # atno 11005 bound_to 11000
  144.7526  139.7155  143.7267 LP  0  0  0  0  0  0  0  0  0  0  0  0  # atno 17320 bound_to 7965
  146.1912  139.5154  142.9804 LP  0  0  0  0  0  0  0  0  0  0  0  0  # atno 17321 bound_to 7965
  139.8444  144.7195  150.9291 LP  0  0  0  0  0  0  0  0  0  0  0  0  # atno 17342 bound_to 10162
  140.7802  143.3955  151.1237 LP  0  0  0  0  0  0  0  0  0  0  0  0  # atno 17343 bound_to 10162
  156.0782  130.5799  150.9514 LP  0  0  0  0  0  0  0  0  0  0  0  0  # atno 17370 bound_to 10713
  157.6256  131.0926  150.8540 LP  0  0  0  0  0  0  0  0  0  0  0  0  # atno 17371 bound_to 10713
  141.1980  133.8045  157.0601 LP  0  0  0  0  0  0  0  0  0  0  0  0  # atno 17394 bound_to 11000
  140.0617  134.9751  157.1316 LP  0  0  0  0  0  0  0  0  0  0  0  0  # atno 17395 bound_to 11000

$$$$
