AV-unprocessed.smi:162|AV-procd|sdf|1377|dock5
  -GOLD-   2262019103D 1   1.00000     0.00000
 Structure written by MMmdl.
 54 57  0  0  0  0  0  0  0  0  1 V2000
  147.8405  136.5129  160.6662 C   0  0  0  0  0  0  0  0  0  0  0  0
  148.3501  135.8767  159.5077 O   0  0  0  0  0  0  0  0  0  0  0  0
  148.5334  136.7794  158.4301 C   0  0  0  0  0  0  0  0  0  0  0  0
  148.9903  135.9945  157.1901 C   0  0  1  0  0  0  0  0  0  0  0  0
  148.3672  134.6057  157.0652 C   0  0  0  0  0  0  0  0  0  0  0  0
  148.6084  134.2877  155.5897 C   0  0  1  0  0  0  0  0  0  0  0  0
  147.6907  133.3441  155.0565 O   0  0  0  0  0  0  0  0  0  0  0  0
  147.8170  133.1610  153.6560 C   0  0  0  0  0  0  0  0  0  0  0  0
  148.4400  135.6519  154.9095 C   0  0  0  0  0  0  0  0  0  0  0  0
  148.6445  136.6659  155.9409 N   0  0  0  0  0  0  0  0  0  0  0  0
  149.4694  137.6789  155.5980 C   0  0  0  0  0  0  0  0  0  0  0  0
  150.3255  137.4569  154.5711 N   0  0  0  0  0  0  0  0  0  0  0  0
  151.1544  138.4266  154.1721 C   0  0  0  0  0  0  0  0  0  0  0  0
  151.2824  139.6661  154.6513 N   0  0  0  0  0  0  0  0  0  0  0  0
  150.4196  139.8908  155.6837 C   0  0  0  0  0  0  0  0  0  0  0  0
  149.4875  138.9594  156.2199 C   0  0  0  0  0  0  0  0  0  0  0  0
  148.7787  139.5431  157.2633 N   0  0  0  0  0  0  0  0  0  0  0  0
  149.2630  140.7529  157.3373 C   0  0  0  0  0  0  0  0  0  0  0  0
  150.2457  141.0496  156.4198 N   0  0  0  0  0  0  0  0  0  0  0  0
  150.9452  142.3164  156.2697 C   0  0  0  0  0  0  0  0  0  0  0  0
  151.2626  143.0177  157.6137 C   0  0  0  0  0  0  0  0  0  0  0  0
  150.0472  143.5407  158.1219 O   0  0  0  0  0  0  0  0  0  0  0  0
  151.8197  142.0035  158.6328 C   0  0  0  0  0  0  0  0  0  0  0  0
  152.3042  142.6851  159.9248 C   0  0  0  0  0  0  0  0  0  0  0  0
  153.2645  143.6880  159.6156 O   0  0  0  0  0  0  0  0  0  0  0  0
  152.7285  144.7353  158.8162 C   0  0  0  0  0  0  0  0  0  0  0  0
  152.2669  144.1809  157.4567 C   0  0  0  0  0  0  0  0  0  0  0  0
  150.0741  135.8773  157.2387 H   0  0  0  0  0  0  0  0  0  0  0  0
  149.6371  133.9511  155.4468 H   0  0  0  0  0  0  0  0  0  0  0  0
  147.7177  135.7796  161.4632 H   0  0  0  0  0  0  0  0  0  0  0  0
  146.8671  136.9650  160.4717 H   0  0  0  0  0  0  0  0  0  0  0  0
  148.5213  137.2870  161.0227 H   0  0  0  0  0  0  0  0  0  0  0  0
  147.6066  137.3164  158.2204 H   0  0  0  0  0  0  0  0  0  0  0  0
  149.2860  137.5202  158.7050 H   0  0  0  0  0  0  0  0  0  0  0  0
  148.8180  133.8777  157.7401 H   0  0  0  0  0  0  0  0  0  0  0  0
  147.2965  134.6484  157.2715 H   0  0  0  0  0  0  0  0  0  0  0  0
  147.0641  132.4514  153.3133 H   0  0  0  0  0  0  0  0  0  0  0  0
  148.7962  132.7615  153.3900 H   0  0  0  0  0  0  0  0  0  0  0  0
  147.6630  134.0980  153.1194 H   0  0  0  0  0  0  0  0  0  0  0  0
  149.1058  135.7561  154.0517 H   0  0  0  0  0  0  0  0  0  0  0  0
  147.4200  135.7644  154.5412 H   0  0  0  0  0  0  0  0  0  0  0  0
  151.8064  138.1740  153.3491 H   0  0  0  0  0  0  0  0  0  0  0  0
  148.9083  141.4711  158.0624 H   0  0  0  0  0  0  0  0  0  0  0  0
  151.8629  142.1363  155.7079 H   0  0  0  0  0  0  0  0  0  0  0  0
  150.3321  142.9678  155.6456 H   0  0  0  0  0  0  0  0  0  0  0  0
  149.5345  143.8650  157.3973 H   0  0  0  0  0  0  0  0  0  0  0  0
  151.0720  141.2447  158.8673 H   0  0  0  0  0  0  0  0  0  0  0  0
  152.6629  141.4727  158.1885 H   0  0  0  0  0  0  0  0  0  0  0  0
  151.4706  143.1208  160.4775 H   0  0  0  0  0  0  0  0  0  0  0  0
  152.7668  141.9487  160.5821 H   0  0  0  0  0  0  0  0  0  0  0  0
  151.9066  145.2248  159.3410 H   0  0  0  0  0  0  0  0  0  0  0  0
  153.4997  145.4910  158.6663 H   0  0  0  0  0  0  0  0  0  0  0  0
  153.1432  143.8269  156.9122 H   0  0  0  0  0  0  0  0  0  0  0  0
  151.8400  144.9876  156.8593 H   0  0  0  0  0  0  0  0  0  0  0  0
  1  2  1  0  0  0  0
  1 30  1  0  0  0  0
  1 31  1  0  0  0  0
  1 32  1  0  0  0  0
  2  3  1  0  0  0  0
  3  4  1  0  0  0  0
  3 33  1  0  0  0  0
  3 34  1  0  0  0  0
  4 28  1  0  0  0  0
  4 10  1  0  0  0  0
  4  5  1  0  0  0  0
  5  6  1  0  0  0  0
  5 35  1  0  0  0  0
  5 36  1  0  0  0  0
  6 29  1  0  0  0  0
  6  7  1  0  0  0  0
  6  9  1  0  0  0  0
  7  8  1  0  0  0  0
  8 37  1  0  0  0  0
  8 38  1  0  0  0  0
  8 39  1  0  0  0  0
  9 10  1  0  0  0  0
  9 40  1  0  0  0  0
  9 41  1  0  0  0  0
 10 11  1  0  0  0  0
 11 16  1  0  0  0  0
 11 12  2  0  0  0  0
 12 13  1  0  0  0  0
 13 14  2  0  0  0  0
 13 42  1  0  0  0  0
 14 15  1  0  0  0  0
 15 19  1  0  0  0  0
 15 16  2  0  0  0  0
 16 17  1  0  0  0  0
 17 18  2  0  0  0  0
 18 19  1  0  0  0  0
 18 43  1  0  0  0  0
 19 20  1  0  0  0  0
 20 21  1  0  0  0  0
 20 44  1  0  0  0  0
 20 45  1  0  0  0  0
 21 27  1  0  0  0  0
 21 22  1  0  0  0  0
 21 23  1  0  0  0  0
 22 46  1  0  0  0  0
 23 24  1  0  0  0  0
 23 47  1  0  0  0  0
 23 48  1  0  0  0  0
 24 25  1  0  0  0  0
 24 49  1  0  0  0  0
 24 50  1  0  0  0  0
 25 26  1  0  0  0  0
 26 27  1  0  0  0  0
 26 51  1  0  0  0  0
 26 52  1  0  0  0  0
 27 53  1  0  0  0  0
 27 54  1  0  0  0  0
M  END
> <s_m_source_file>
AV-unprocessed.smi

> <i_m_source_file_index>
162

> <i_lp_mmshare_version>
43012

> <i_f3d_flags>
0

> <s_epik_input>
W0NIM11PW0NIMl1bQ0BASF0xW0NIMl1bQ0BASF0oT1tDSDNdKVtDSDJdTjFjKG5bY0hdbjIpYyhjMjMpbltjSF1uM1tDSDJdQzQoW09IXSlbQ0gyXVtDSDJdT1tDSDJdW0NIMl00

> <s_epik_cmdline>
J2VwaWtfcHl0aG9uJywgJy1waCcsICc3LjAnLCAnLXRuJywgJzgnLCAnLW1hJywgJzIwMCcsICctbWV0YWxfYmluZGluZycsICctaW1hZScsICc8aW5maWxlLm1hZT4nLCAnLW9tYWUnLCAnPG91dGZpbGUubWFlPic=

> <r_lp_tautomer_probability>
1

> <r_epik_Ionization_Penalty>
0.00660334

> <r_epik_Ionization_Penalty_Charging>
0

> <r_epik_Ionization_Penalty_Neutral>
0.00660334

> <r_epik_State_Penalty>
0.00469459

> <r_epik_Charging_Adjusted_Penalty>
0.00469459

> <i_epik_Tot_Q>
0

> <i_epik_Tot_abs_Q>
0

> <r_epik_Metal_State_Penalty>
-0

> <b_epik_Metal_Only>
0

> <s_lp_Force_Field>
OPLS_2005

> <r_lp_Energy>
41.7702

> <b_lp_Chiralities_Consistent>
1

> <s_lp_Variant>
AV-unprocessed.smi:162-2

> <Gold.Version>
5.8.1

> <Gold.Id.Protein>
6NUR|6NUR_protein|mol2

> <Gold.PLP.Fitness>
51.4291

> <Gold.PLP.PLP>
-44.6812

> <Gold.PLP.part.hbond>
-3.5070

> <Gold.PLP.part.metal>
0.0000

> <Gold.PLP.part.buried>
-7.4425

> <Gold.PLP.part.nonpolar>
-33.7254

> <Gold.PLP.part.repulsive>
0.2766

> <Gold.PLP.ligand.clash>
0.0000

> <Gold.PLP.ligand.torsion>
1.2075

> <Gold.PLP.Chemscore.Hbond>
3.0000

> <Gold.PLP.Chemscore.CHOScore>
0.0000

> <Gold.PLP.Chemscore.Metal>
0.0000

> <Gold.Chemscore.Hbonds>
donor molecule, donor type, donor heavy atom, donor atom, acceptor molecule, acceptor atom, score
      L1  H    22    46       P1  8028  1.00
      P1  H  7989  7998       L1    14  1.00

> <Gold.PLP.Chemscore.Internal.Correction>
0.1630

> <Gold.Rescore>
     Score         DG    S(hbond)    S(metal)    S(lipo)     H(rot)  DE(clash)    DE(int)     intcor
     15.55     -16.81       2.19        0.00      97.05       2.86       0.23       1.03       ----

> <Gold.Chemscore.Fitness>
15.5469

> <Gold.Chemscore.DG>
-16.8051

> <Gold.Chemscore.ZeroCoef>
-5.4800

> <Gold.Chemscore.Hbond>
2.1864

> <Gold.Chemscore.Metal>
0.0000

> <Gold.Chemscore.Lipo>
97.0491

> <Gold.Chemscore.Internal_Hbond>
0.0000

> <Gold.Chemscore.DEClash>
0.2259

> <Gold.Chemscore.DEInternal>
1.0322

> <Gold.Chemscore.Rot>
2.8642

> <Gold.Chemscore.Internal.Correction>
   9.000000E+99

> <Gold.Chemscore.Hbonds>
donor molecule, donor type, donor heavy atom, donor atom, acceptor molecule, acceptor atom, score
      L1  H    22    46       P1  8028  0.47
      P1  H  7989  7998       L1    14  0.90

> <Gold.Chemscore.Hbond.Weighted>
-7.3027

> <Gold.Chemscore.Metal.Weighted>
-0.0000

> <Gold.Chemscore.Lipo.Weighted>
-11.3547

> <Gold.Chemscore.Internal_Hbond.Weighted>
0.0000

> <Gold.Chemscore.DEClash.Weighted>
0.2259

> <Gold.Chemscore.DEInternal.Weighted>
1.0322

> <Gold.Chemscore.Rot.Weighted>
7.3324

> <Gold.Chemscore.Internal.Correction.Weighted>
   9.000000E+99

> <Gold.Protein.RotatedTorsions>
[ 6907 6896 6895 6894 ] final -177.20 input  -60.11 | X-H torsion
[ 7974 7965 7964 7962 ] final  116.49 input  175.53 | X-H torsion
[ 8008 7997 7996 7995 ] final -178.26 input   59.86 | X-H torsion
[ 10167 10162 10161 10158 ] final  173.64 input  -65.29 | X-H torsion
[ 10718 10713 10712 10709 ] final  -48.07 input   66.30 | X-H torsion
[ 10763 10752 10751 10750 ] final   92.94 input  -60.55 | X-H torsion
[ 11005 11000 10999 10996 ] final  162.51 input  -57.11 | X-H torsion

> <Gold.Protein.ActiveResidues>
 VAL166  LYS551  ARG553  GLY616  TRP617  ASP618  TYR619  PRO620  LYS621  CYS622 
 ASP623  PHE694  ASN695  SER759  ASP760  ASP761  ALA762  ILE779  LEU786  VAL792 
 PHE793  MET794  SER795  GLU796  ALA797  LYS798  CYS799  TRP800  GLU811  SER814 

> <Gold.Protein.RotatedAtoms>
  151.6171  133.3342  159.3079 H   0  0  0  0  0  0  0  0  0  0  0  0  # atno 6907 bound_to 6896
  150.8125  134.7292  159.6712 H   0  0  0  0  0  0  0  0  0  0  0  0  # atno 6908 bound_to 6896
  152.4222  134.5940  160.0033 H   0  0  0  0  0  0  0  0  0  0  0  0  # atno 6909 bound_to 6896
  145.1790  139.3060  143.4428 H   0  0  0  0  0  0  0  0  0  0  0  0  # atno 7974 bound_to 7965
  156.0167  140.1252  157.0399 H   0  0  0  0  0  0  0  0  0  0  0  0  # atno 8008 bound_to 7997
  154.4296  140.1077  156.5975 H   0  0  0  0  0  0  0  0  0  0  0  0  # atno 8009 bound_to 7997
  155.6003  140.3470  155.4594 H   0  0  0  0  0  0  0  0  0  0  0  0  # atno 8010 bound_to 7997
  139.5115  144.3238  152.0177 H   0  0  0  0  0  0  0  0  0  0  0  0  # atno 10167 bound_to 10162
  156.2023  130.4157  149.9224 H   0  0  0  0  0  0  0  0  0  0  0  0  # atno 10718 bound_to 10713
  153.2247  135.4343  155.0529 H   0  0  0  0  0  0  0  0  0  0  0  0  # atno 10763 bound_to 10752
  154.8267  135.3365  154.6875 H   0  0  0  0  0  0  0  0  0  0  0  0  # atno 10764 bound_to 10752
  153.7305  135.7011  153.5046 H   0  0  0  0  0  0  0  0  0  0  0  0  # atno 10765 bound_to 10752
  140.2265  134.8156  157.3274 H   0  0  0  0  0  0  0  0  0  0  0  0  # atno 11005 bound_to 11000
  146.3456  140.1963  142.8589 LP  0  0  0  0  0  0  0  0  0  0  0  0  # atno 17320 bound_to 7965
  145.0155  140.8750  143.5198 LP  0  0  0  0  0  0  0  0  0  0  0  0  # atno 17321 bound_to 7965
  140.2679  144.3996  150.6162 LP  0  0  0  0  0  0  0  0  0  0  0  0  # atno 17342 bound_to 10162
  140.6110  143.2169  151.6886 LP  0  0  0  0  0  0  0  0  0  0  0  0  # atno 17343 bound_to 10162
  156.6930  130.8903  151.3590 LP  0  0  0  0  0  0  0  0  0  0  0  0  # atno 17370 bound_to 10713
  157.6992  130.9315  150.0736 LP  0  0  0  0  0  0  0  0  0  0  0  0  # atno 17371 bound_to 10713
  140.1795  134.4508  155.7781 LP  0  0  0  0  0  0  0  0  0  0  0  0  # atno 17394 bound_to 11000
  141.2220  133.6977  156.7844 LP  0  0  0  0  0  0  0  0  0  0  0  0  # atno 17395 bound_to 11000

$$$$
