AV-unprocessed.smi:4|AV-procd|sdf|36|dock7
  -GOLD-   2262015153D 1   1.00000     0.00000
 Structure written by MMmdl.
 42 43  0  0  0  0  0  0  0  0  2 V2000
  152.1285  138.0732  156.0809 C   0  0  0  0  0  0  0  0  0  0  0  0
  150.6432  137.6891  155.8406 C   0  0  0  0  0  0  0  0  0  0  0  0
  149.8240  138.5735  156.8135 C   0  0  0  0  0  0  0  0  0  0  0  0
  150.3511  138.0846  154.3702 C   0  0  0  0  0  0  0  0  0  0  0  0
  150.3341  136.2291  156.0701 N   0  0  0  0  0  0  0  0  0  0  0  0
  149.8218  135.4376  155.0090 C   0  0  0  0  0  0  0  0  0  0  0  0
  149.5115  134.1264  155.1278 C   0  0  0  0  0  0  0  0  0  0  0  0
  148.9651  133.2610  153.9919 C   0  0  0  0  0  0  0  0  0  0  0  0
  148.0182  133.9619  153.1248 N   0  0  0  0  0  0  0  0  0  0  0  0
  147.5469  133.1534  152.0043 C   0  0  0  0  0  0  0  0  0  0  0  0
  146.2338  133.7017  151.4373 C   0  0  0  0  0  0  0  0  0  0  0  0
  146.4489  135.0895  151.2684 O   0  0  0  0  0  0  0  0  0  0  0  0
  145.6698  133.0099  150.1826 C   0  0  0  0  0  0  0  0  0  0  0  0
  144.2640  133.1251  150.7735 C   0  0  0  0  0  0  0  0  0  0  0  0
  144.9153  133.3275  152.1420 C   0  0  0  0  0  0  0  0  0  0  0  0
  149.7222  133.5107  156.4358 C   0  0  0  0  0  0  0  0  0  0  0  0
  149.4440  132.3240  156.6070 O   0  0  0  0  0  0  0  0  0  0  0  0
  150.2255  134.2882  157.4314 N   0  5  0  0  0  0  0  0  0  0  0  0
  150.5368  135.6105  157.2844 C   0  0  0  0  0  0  0  0  0  0  0  0
  150.9959  136.2465  158.2319 O   0  0  0  0  0  0  0  0  0  0  0  0
  152.2985  139.1333  155.8891 H   0  0  0  0  0  0  0  0  0  0  0  0
  152.8042  137.5298  155.4188 H   0  0  0  0  0  0  0  0  0  0  0  0
  152.4356  137.8987  157.1131 H   0  0  0  0  0  0  0  0  0  0  0  0
  149.9885  138.2732  157.8489 H   0  0  0  0  0  0  0  0  0  0  0  0
  148.7517  138.5392  156.6291 H   0  0  0  0  0  0  0  0  0  0  0  0
  150.1113  139.6222  156.7303 H   0  0  0  0  0  0  0  0  0  0  0  0
  150.6863  139.1007  154.1598 H   0  0  0  0  0  0  0  0  0  0  0  0
  149.2923  138.0626  154.1182 H   0  0  0  0  0  0  0  0  0  0  0  0
  150.8687  137.4222  153.6754 H   0  0  0  0  0  0  0  0  0  0  0  0
  149.6791  135.9311  154.0670 H   0  0  0  0  0  0  0  0  0  0  0  0
  149.8020  132.8962  153.3945 H   0  0  0  0  0  0  0  0  0  0  0  0
  148.4895  132.3851  154.4351 H   0  0  0  0  0  0  0  0  0  0  0  0
  148.4580  134.8005  152.7589 H   0  0  0  0  0  0  0  0  0  0  0  0
  148.3102  133.1051  151.2260 H   0  0  0  0  0  0  0  0  0  0  0  0
  147.4038  132.1273  152.3450 H   0  0  0  0  0  0  0  0  0  0  0  0
  147.3413  135.2636  151.5258 H   0  0  0  0  0  0  0  0  0  0  0  0
  145.8099  133.5599  149.2513 H   0  0  0  0  0  0  0  0  0  0  0  0
  145.9967  131.9736  150.0825 H   0  0  0  0  0  0  0  0  0  0  0  0
  143.7311  134.0107  150.4245 H   0  0  0  0  0  0  0  0  0  0  0  0
  143.6571  132.2236  150.6864 H   0  0  0  0  0  0  0  0  0  0  0  0
  144.9873  132.4003  152.7133 H   0  0  0  0  0  0  0  0  0  0  0  0
  144.4715  134.1263  152.7370 H   0  0  0  0  0  0  0  0  0  0  0  0
  1  2  1  0  0  0  0
  1 21  1  0  0  0  0
  1 22  1  0  0  0  0
  1 23  1  0  0  0  0
  2  3  1  0  0  0  0
  2  4  1  0  0  0  0
  2  5  1  0  0  0  0
  3 24  1  0  0  0  0
  3 25  1  0  0  0  0
  3 26  1  0  0  0  0
  4 27  1  0  0  0  0
  4 28  1  0  0  0  0
  4 29  1  0  0  0  0
  5 19  1  0  0  0  0
  5  6  1  0  0  0  0
  6  7  2  0  0  0  0
  6 30  1  0  0  0  0
  7  8  1  0  0  0  0
  7 16  1  0  0  0  0
  8  9  1  0  0  0  0
  8 31  1  0  0  0  0
  8 32  1  0  0  0  0
  9 10  1  0  0  0  0
  9 33  1  0  0  0  0
 10 11  1  0  0  0  0
 10 34  1  0  0  0  0
 10 35  1  0  0  0  0
 11 15  1  0  0  0  0
 11 12  1  0  0  0  0
 11 13  1  0  0  0  0
 12 36  1  0  0  0  0
 13 14  1  0  0  0  0
 13 37  1  0  0  0  0
 13 38  1  0  0  0  0
 14 15  1  0  0  0  0
 14 39  1  0  0  0  0
 14 40  1  0  0  0  0
 15 41  1  0  0  0  0
 15 42  1  0  0  0  0
 16 17  2  0  0  0  0
 16 18  1  0  0  0  0
 18 19  1  0  0  0  0
 19 20  2  0  0  0  0
M  CHG  1  18  -1
M  END
> <s_m_source_file>
AV-unprocessed.smi

> <i_m_source_file_index>
4

> <i_lp_mmshare_version>
43012

> <i_f3d_flags>
0

> <s_epik_input>
W0NIM11DKFtDSDNdKShbQ0gzXSluMVtjSF1jKGMoPU8pW25IXWMxPU8pW0NIMl1bTkhdW0NIMl1DMihbT0hdKVtDSDJdW0NIMl1bQ0gyXTI=

> <s_epik_cmdline>
J2VwaWtfcHl0aG9uJywgJy1waCcsICc3LjAnLCAnLXRuJywgJzgnLCAnLW1hJywgJzIwMCcsICctbWV0YWxfYmluZGluZycsICctaW1hZScsICc8aW5maWxlLm1hZT4nLCAnLW9tYWUnLCAnPG91dGZpbGUubWFlPic=

> <r_lp_tautomer_probability>
0.999537

> <r_epik_Ionization_Penalty>
6.25758

> <r_epik_Ionization_Penalty_Charging>
1.60838e-06

> <r_epik_Ionization_Penalty_Neutral>
6.25758

> <r_epik_State_Penalty>
6.1746

> <r_epik_Charging_Adjusted_Penalty>
6.1746

> <i_epik_Tot_Q>
-1

> <i_epik_Tot_abs_Q>
1

> <r_epik_Metal_State_Penalty>
2.58365

> <b_epik_Metal_Only>
1

> <s_lp_Force_Field>
OPLS_2005

> <r_lp_Energy>
44.4869

> <b_lp_Chiralities_Consistent>
1

> <s_lp_Variant>
AV-unprocessed.smi:4-4

> <Gold.Version>
5.8.1

> <Gold.Id.Protein>
6NUR|6NUR_protein|mol2

> <Gold.PLP.Fitness>
42.6643

> <Gold.PLP.PLP>
-30.3849

> <Gold.PLP.part.hbond>
-4.0000

> <Gold.PLP.part.metal>
0.0000

> <Gold.PLP.part.buried>
-3.8213

> <Gold.PLP.part.nonpolar>
-24.0134

> <Gold.PLP.part.repulsive>
0.0000

> <Gold.PLP.ligand.clash>
0.0000

> <Gold.PLP.ligand.torsion>
0.5642

> <Gold.PLP.Chemscore.Hbond>
3.4310

> <Gold.PLP.Chemscore.CHOScore>
1.0000

> <Gold.PLP.Chemscore.Metal>
0.0000

> <Gold.Chemscore.Hbonds>
donor molecule, donor type, donor heavy atom, donor atom, acceptor molecule, acceptor atom, score
      L1  H     9    33       P1  7948  1.00
      L1  H    12    36       P1  7948  1.00
      P1  H  6896  6908       L1    18  1.50
      P1  H  6896  6909       L1    20  0.31
      L1  C     6    30       P1  7948  1.00

> <Gold.PLP.Chemscore.Internal.Correction>
0.1147

> <Gold.Rescore>
     Score         DG    S(hbond)    S(metal)    S(lipo)     H(rot)  DE(clash)    DE(int)     intcor
     13.58     -15.61       2.51        0.00      67.56       2.40       0.02       2.01       ----

> <Gold.Chemscore.Fitness>
13.5780

> <Gold.Chemscore.DG>
-15.6130

> <Gold.Chemscore.ZeroCoef>
-5.4800

> <Gold.Chemscore.Hbond>
2.5054

> <Gold.Chemscore.Metal>
0.0000

> <Gold.Chemscore.Lipo>
67.5590

> <Gold.Chemscore.Internal_Hbond>
0.0000

> <Gold.Chemscore.DEClash>
0.0234

> <Gold.Chemscore.DEInternal>
2.0116

> <Gold.Chemscore.Rot>
2.3983

> <Gold.Chemscore.Internal.Correction>
   9.000000E+99

> <Gold.Chemscore.Hbonds>
donor molecule, donor type, donor heavy atom, donor atom, acceptor molecule, acceptor atom, score
      L1  H     9    33       P1  7948  0.40
      L1  H    12    36       P1  7948  0.88
      P1  H  6896  6908       L1    18  0.37
      P1  H  6896  6909       L1    20  0.28

> <Gold.Chemscore.Hbond.Weighted>
-8.3681

> <Gold.Chemscore.Metal.Weighted>
-0.0000

> <Gold.Chemscore.Lipo.Weighted>
-7.9044

> <Gold.Chemscore.Internal_Hbond.Weighted>
0.0000

> <Gold.Chemscore.DEClash.Weighted>
0.0234

> <Gold.Chemscore.DEInternal.Weighted>
2.0116

> <Gold.Chemscore.Rot.Weighted>
6.1395

> <Gold.Chemscore.Internal.Correction.Weighted>
   9.000000E+99

> <Gold.Protein.RotatedTorsions>
[ 6907 6896 6895 6894 ] final  119.74 input  -60.11 | X-H torsion
[ 7974 7965 7964 7962 ] final   51.48 input  175.53 | X-H torsion
[ 8008 7997 7996 7995 ] final  133.33 input   59.86 | X-H torsion
[ 10167 10162 10161 10158 ] final   26.37 input  -65.29 | X-H torsion
[ 10718 10713 10712 10709 ] final  -60.07 input   66.30 | X-H torsion
[ 10763 10752 10751 10750 ] final  -14.33 input  -60.55 | X-H torsion
[ 11005 11000 10999 10996 ] final -123.80 input  -57.11 | X-H torsion

> <Gold.Protein.ActiveResidues>
 VAL166  LYS551  ARG553  GLY616  TRP617  ASP618  TYR619  PRO620  LYS621  CYS622 
 ASP623  PHE694  ASN695  SER759  ASP760  ASP761  ALA762  ILE779  LEU786  VAL792 
 PHE793  MET794  SER795  GLU796  ALA797  LYS798  CYS799  TRP800  GLU811  SER814 

> <Gold.Protein.RotatedAtoms>
  152.4450  133.7518  159.6698 H   0  0  0  0  0  0  0  0  0  0  0  0  # atno 6907 bound_to 6896
  150.8348  133.8022  159.3090 H   0  0  0  0  0  0  0  0  0  0  0  0  # atno 6908 bound_to 6896
  151.5665  135.1066  160.0037 H   0  0  0  0  0  0  0  0  0  0  0  0  # atno 6909 bound_to 6896
  145.9909  139.4338  143.0074 H   0  0  0  0  0  0  0  0  0  0  0  0  # atno 7974 bound_to 7965
  156.2991  140.2524  156.3235 H   0  0  0  0  0  0  0  0  0  0  0  0  # atno 8008 bound_to 7997
  154.9212  140.0400  157.2018 H   0  0  0  0  0  0  0  0  0  0  0  0  # atno 8009 bound_to 7997
  154.8309  140.2875  155.5727 H   0  0  0  0  0  0  0  0  0  0  0  0  # atno 8010 bound_to 7997
  140.5028  144.0287  150.6340 H   0  0  0  0  0  0  0  0  0  0  0  0  # atno 10167 bound_to 10162
  156.1016  130.4185  150.0803 H   0  0  0  0  0  0  0  0  0  0  0  0  # atno 10718 bound_to 10713
  153.5266  135.7015  153.5704 H   0  0  0  0  0  0  0  0  0  0  0  0  # atno 10763 bound_to 10752
  153.3730  135.3940  155.1802 H   0  0  0  0  0  0  0  0  0  0  0  0  # atno 10764 bound_to 10752
  154.8689  135.3816  154.4759 H   0  0  0  0  0  0  0  0  0  0  0  0  # atno 10765 bound_to 10752
  140.9890  134.0565  157.3676 H   0  0  0  0  0  0  0  0  0  0  0  0  # atno 11005 bound_to 11000
  145.7631  140.9927  143.1189 LP  0  0  0  0  0  0  0  0  0  0  0  0  # atno 17320 bound_to 7965
  144.6889  139.9355  143.7473 LP  0  0  0  0  0  0  0  0  0  0  0  0  # atno 17321 bound_to 7965
  140.3588  143.2920  152.0407 LP  0  0  0  0  0  0  0  0  0  0  0  0  # atno 17342 bound_to 10162
  139.4876  144.6319  151.7053 LP  0  0  0  0  0  0  0  0  0  0  0  0  # atno 17343 bound_to 10162
  156.8789  130.9549  151.3601 LP  0  0  0  0  0  0  0  0  0  0  0  0  # atno 17370 bound_to 10713
  157.6187  130.8638  149.9072 LP  0  0  0  0  0  0  0  0  0  0  0  0  # atno 17371 bound_to 10713
  139.8984  135.0154  156.7145 LP  0  0  0  0  0  0  0  0  0  0  0  0  # atno 17394 bound_to 11000
  140.7069  133.9257  155.8059 LP  0  0  0  0  0  0  0  0  0  0  0  0  # atno 17395 bound_to 11000

$$$$
