AV-unprocessed.smi:2521|AV-procd|sdf|9915|dock10
  -GOLD-   2272013553D 1   1.00000     0.00000
 Structure written by MMmdl.
 36 37  0  0  0  0  0  0  0  0  1 V2000
  144.3880  131.2678  150.8851 C   0  0  0  0  0  0  0  0  0  0  0  0
  143.7609  132.5431  150.3035 C   0  0  0  0  0  0  0  0  0  0  0  0
  143.8665  132.6231  148.7738 C   0  0  0  0  0  0  0  0  0  0  0  0
  144.2769  133.7799  150.9709 C   0  0  0  0  0  0  0  0  0  0  0  0
  143.4935  134.6127  151.6698 N   0  0  0  0  0  0  0  0  0  0  0  0
  144.1976  135.6896  152.1890 N   0  0  0  0  0  0  0  0  0  0  0  0
  145.4968  135.6400  151.8650 C   0  0  0  0  0  0  0  0  0  0  0  0
  146.4460  136.6208  152.2568 N   0  0  0  0  0  0  0  0  0  0  0  0
  146.2476  137.7210  153.0040 C   0  0  0  0  0  0  0  0  0  0  0  0
  145.1773  138.0504  153.5156 O   0  0  0  0  0  0  0  0  0  0  0  0
  147.3777  138.4324  153.1281 N   0  0  0  0  0  0  0  0  0  0  0  0
  147.5143  139.6844  153.8665 C   0  0  0  0  0  0  0  0  0  0  0  0
  148.7795  139.6992  154.7454 C   0  0  2  0  0  0  0  0  0  0  0  0
  149.1877  141.0832  155.2068 C   0  0  0  0  0  0  0  0  0  0  0  0
  150.6408  140.8675  155.6206 C   0  0  0  0  0  0  0  0  0  0  0  0
  151.1316  139.8150  154.7952 O   0  0  0  0  0  0  0  0  0  0  0  0
  150.0628  139.2398  154.0504 C   0  0  0  0  0  0  0  0  0  0  0  0
  145.9694  134.2585  150.8915 S   0  0  0  0  0  0  0  0  0  0  0  0
  144.2200  131.2037  151.9606 H   0  0  0  0  0  0  0  0  0  0  0  0
  145.4645  131.2409  150.7135 H   0  0  0  0  0  0  0  0  0  0  0  0
  143.9571  130.3756  150.4300 H   0  0  0  0  0  0  0  0  0  0  0  0
  142.6960  132.4921  150.5335 H   0  0  0  0  0  0  0  0  0  0  0  0
  143.3388  133.4963  148.3891 H   0  0  0  0  0  0  0  0  0  0  0  0
  143.4318  131.7408  148.3035 H   0  0  0  0  0  0  0  0  0  0  0  0
  144.9058  132.6928  148.4509 H   0  0  0  0  0  0  0  0  0  0  0  0
  147.3851  136.4729  151.9181 H   0  0  0  0  0  0  0  0  0  0  0  0
  148.2088  138.0837  152.6736 H   0  0  0  0  0  0  0  0  0  0  0  0
  147.5046  140.5394  153.1882 H   0  0  0  0  0  0  0  0  0  0  0  0
  146.6327  139.7899  154.4992 H   0  0  0  0  0  0  0  0  0  0  0  0
  148.6163  139.0770  155.6272 H   0  0  0  0  0  0  0  0  0  0  0  0
  149.1374  141.7913  154.3782 H   0  0  0  0  0  0  0  0  0  0  0  0
  148.5687  141.4649  156.0194 H   0  0  0  0  0  0  0  0  0  0  0  0
  151.2409  141.7712  155.5133 H   0  0  0  0  0  0  0  0  0  0  0  0
  150.6969  140.5451  156.6609 H   0  0  0  0  0  0  0  0  0  0  0  0
  150.1500  138.1539  154.0055 H   0  0  0  0  0  0  0  0  0  0  0  0
  150.1087  139.6253  153.0310 H   0  0  0  0  0  0  0  0  0  0  0  0
  1  2  1  0  0  0  0
  1 19  1  0  0  0  0
  1 20  1  0  0  0  0
  1 21  1  0  0  0  0
  2  3  1  0  0  0  0
  2  4  1  0  0  0  0
  2 22  1  0  0  0  0
  3 23  1  0  0  0  0
  3 24  1  0  0  0  0
  3 25  1  0  0  0  0
  4 18  1  0  0  0  0
  4  5  2  0  0  0  0
  5  6  1  0  0  0  0
  6  7  2  0  0  0  0
  7  8  1  0  0  0  0
  7 18  1  0  0  0  0
  8  9  1  0  0  0  0
  8 26  1  0  0  0  0
  9 10  2  0  0  0  0
  9 11  1  0  0  0  0
 11 12  1  0  0  0  0
 11 27  1  0  0  0  0
 12 13  1  0  0  0  0
 12 28  1  0  0  0  0
 12 29  1  0  0  0  0
 13 17  1  0  0  0  0
 13 14  1  0  0  0  0
 13 30  1  0  0  0  0
 14 15  1  0  0  0  0
 14 31  1  0  0  0  0
 14 32  1  0  0  0  0
 15 16  1  0  0  0  0
 15 33  1  0  0  0  0
 15 34  1  0  0  0  0
 16 17  1  0  0  0  0
 17 35  1  0  0  0  0
 17 36  1  0  0  0  0
M  END
> <s_m_source_file>
AV-unprocessed.smi

> <i_m_source_file_index>
2521

> <i_lp_mmshare_version>
43012

> <i_f3d_flags>
0

> <s_epik_input>
W0NIM11bQ0hdKFtDSDNdKWMxbm5jKHMxKVtOSF1DKD1PKVtOSF1bQ0gyXVtDQEBIXTJbQ0gyXVtDSDJdT1tDSDJdMg==

> <s_epik_cmdline>
J2VwaWtfcHl0aG9uJywgJy1waCcsICc3LjAnLCAnLXRuJywgJzgnLCAnLW1hJywgJzIwMCcsICctbWV0YWxfYmluZGluZycsICctaW1hZScsICc8aW5maWxlLm1hZT4nLCAnLW9tYWUnLCAnPG91dGZpbGUubWFlPic=

> <r_lp_tautomer_probability>
1

> <r_epik_Ionization_Penalty>
0.000452582

> <r_epik_Ionization_Penalty_Charging>
0

> <r_epik_Ionization_Penalty_Neutral>
0.000452582

> <r_epik_State_Penalty>
-0

> <r_epik_Charging_Adjusted_Penalty>
0

> <i_epik_Tot_Q>
0

> <i_epik_Tot_abs_Q>
0

> <r_epik_Metal_State_Penalty>
0.207746

> <b_epik_Metal_Only>
0

> <s_lp_Force_Field>
OPLS_2005

> <r_lp_Energy>
11.692

> <b_lp_Chiralities_Consistent>
1

> <s_lp_Variant>
AV-unprocessed.smi:2521-1

> <Gold.Version>
5.8.1

> <Gold.Id.Protein>
6NUR|6NUR_protein|mol2

> <Gold.PLP.Fitness>
38.1444

> <Gold.PLP.PLP>
-32.0599

> <Gold.PLP.part.hbond>
-3.0000

> <Gold.PLP.part.metal>
0.0000

> <Gold.PLP.part.buried>
-3.3520

> <Gold.PLP.part.nonpolar>
-26.1206

> <Gold.PLP.part.repulsive>
0.7686

> <Gold.PLP.ligand.clash>
0.0000

> <Gold.PLP.ligand.torsion>
0.2406

> <Gold.PLP.Chemscore.Hbond>
2.1613

> <Gold.PLP.Chemscore.CHOScore>
0.0000

> <Gold.PLP.Chemscore.Metal>
0.0000

> <Gold.Chemscore.Hbonds>
donor molecule, donor type, donor heavy atom, donor atom, acceptor molecule, acceptor atom, score
      L1  H     8    26       P1  7948  1.00
      L1  H    11    27       P1  7948  0.60
      P1  H  7989  7998       L1    16  0.53

> <Gold.PLP.Chemscore.Internal.Correction>
0.0818

> <Gold.Rescore>
     Score         DG    S(hbond)    S(metal)    S(lipo)     H(rot)  DE(clash)    DE(int)     intcor
     15.36     -17.17       1.84        0.00      78.99       1.45       0.31       1.51       ----

> <Gold.Chemscore.Fitness>
15.3555

> <Gold.Chemscore.DG>
-17.1747

> <Gold.Chemscore.ZeroCoef>
-5.4800

> <Gold.Chemscore.Hbond>
1.8427

> <Gold.Chemscore.Metal>
0.0000

> <Gold.Chemscore.Lipo>
78.9913

> <Gold.Chemscore.Internal_Hbond>
0.0000

> <Gold.Chemscore.DEClash>
0.3101

> <Gold.Chemscore.DEInternal>
1.5091

> <Gold.Chemscore.Rot>
1.4461

> <Gold.Chemscore.Internal.Correction>
   9.000000E+99

> <Gold.Chemscore.Hbonds>
donor molecule, donor type, donor heavy atom, donor atom, acceptor molecule, acceptor atom, score
      L1  H     8    26       P1  7948  0.97
      L1  H    11    27       P1  7948  0.58
      P1  H  7989  7998       L1    16  0.01

> <Gold.Chemscore.Hbond.Weighted>
-6.1546

> <Gold.Chemscore.Metal.Weighted>
-0.0000

> <Gold.Chemscore.Lipo.Weighted>
-9.2420

> <Gold.Chemscore.Internal_Hbond.Weighted>
0.0000

> <Gold.Chemscore.DEClash.Weighted>
0.3101

> <Gold.Chemscore.DEInternal.Weighted>
1.5091

> <Gold.Chemscore.Rot.Weighted>
3.7019

> <Gold.Chemscore.Internal.Correction.Weighted>
   9.000000E+99

> <Gold.Protein.RotatedTorsions>
[ 6907 6896 6895 6894 ] final   77.47 input  -60.11 | X-H torsion
[ 7974 7965 7964 7962 ] final -114.06 input  175.53 | X-H torsion
[ 8008 7997 7996 7995 ] final   68.71 input   59.86 | X-H torsion
[ 10167 10162 10161 10158 ] final  -80.47 input  -65.29 | X-H torsion
[ 10718 10713 10712 10709 ] final  121.57 input   66.30 | X-H torsion
[ 10763 10752 10751 10750 ] final  -19.28 input  -60.55 | X-H torsion
[ 11005 11000 10999 10996 ] final   30.74 input  -57.11 | X-H torsion

> <Gold.Protein.ActiveResidues>
 VAL166  LYS551  ARG553  GLY616  TRP617  ASP618  TYR619  PRO620  LYS621  CYS622 
 ASP623  PHE694  ASN695  SER759  ASP760  ASP761  ALA762  ILE779  LEU786  VAL792 
 PHE793  MET794  SER795  GLU796  ALA797  LYS798  CYS799  TRP800  GLU811  SER814 

> <Gold.Protein.RotatedAtoms>
  152.5119  134.3812  159.9351 H   0  0  0  0  0  0  0  0  0  0  0  0  # atno 6907 bound_to 6896
  151.3769  133.3829  159.2713 H   0  0  0  0  0  0  0  0  0  0  0  0  # atno 6908 bound_to 6896
  150.9535  134.8952  159.7745 H   0  0  0  0  0  0  0  0  0  0  0  0  # atno 6909 bound_to 6896
  145.1246  140.8689  143.3794 H   0  0  0  0  0  0  0  0  0  0  0  0  # atno 7974 bound_to 7965
  155.7125  140.3494  155.4980 H   0  0  0  0  0  0  0  0  0  0  0  0  # atno 8008 bound_to 7997
  155.9343  140.1090  157.1129 H   0  0  0  0  0  0  0  0  0  0  0  0  # atno 8009 bound_to 7997
  154.4091  140.1225  156.4830 H   0  0  0  0  0  0  0  0  0  0  0  0  # atno 8010 bound_to 7997
  140.4500  143.2486  151.8502 H   0  0  0  0  0  0  0  0  0  0  0  0  # atno 10167 bound_to 10162
  157.5808  131.1075  150.8191 H   0  0  0  0  0  0  0  0  0  0  0  0  # atno 10718 bound_to 10713
  153.6023  135.6999  153.5379 H   0  0  0  0  0  0  0  0  0  0  0  0  # atno 10763 bound_to 10752
  153.3086  135.4107  155.1316 H   0  0  0  0  0  0  0  0  0  0  0  0  # atno 10764 bound_to 10752
  154.8580  135.3666  154.5559 H   0  0  0  0  0  0  0  0  0  0  0  0  # atno 10765 bound_to 10752
  140.2912  134.2862  155.7775 H   0  0  0  0  0  0  0  0  0  0  0  0  # atno 11005 bound_to 11000
  145.0702  139.3037  143.5836 LP  0  0  0  0  0  0  0  0  0  0  0  0  # atno 17320 bound_to 7965
  146.3518  140.0174  142.8661 LP  0  0  0  0  0  0  0  0  0  0  0  0  # atno 17321 bound_to 7965
  139.4796  144.5130  151.8906 LP  0  0  0  0  0  0  0  0  0  0  0  0  # atno 17342 bound_to 10162
  140.4218  144.2233  150.5887 LP  0  0  0  0  0  0  0  0  0  0  0  0  # atno 17343 bound_to 10162
  156.8638  130.5122  149.5301 LP  0  0  0  0  0  0  0  0  0  0  0  0  # atno 17370 bound_to 10713
  156.0854  130.5853  150.9638 LP  0  0  0  0  0  0  0  0  0  0  0  0  # atno 17371 bound_to 10713
  141.2146  133.7586  156.9627 LP  0  0  0  0  0  0  0  0  0  0  0  0  # atno 17394 bound_to 11000
  140.1194  134.9427  157.2181 LP  0  0  0  0  0  0  0  0  0  0  0  0  # atno 17395 bound_to 11000

$$$$
