AV-unprocessed.smi:3150|AV-procd|sdf|12007|dock8
  -GOLD-   2272017413D 1   1.00000     0.00000
 Structure written by MMmdl.
 33 34  0  0  0  0  0  0  0  0  1 V2000
  151.0536  138.1209  154.4828 C   0  0  0  0  0  0  0  0  0  0  0  0
  150.3516  138.7855  155.6765 C   0  0  2  0  0  0  0  0  0  0  0  0
  149.1917  139.4476  155.1789 O   0  0  0  0  0  0  0  0  0  0  0  0
  149.4418  140.5627  154.3321 C   0  0  0  0  0  0  0  0  0  0  0  0
  148.1334  141.2748  154.0663 C   0  0  0  0  0  0  0  0  0  0  0  0
  146.8195  140.6456  154.4703 C   0  0  0  0  0  0  0  0  0  0  0  0
  147.1819  140.7578  153.0112 C   0  0  0  0  0  0  0  0  0  0  0  0
  151.2766  139.7876  156.3865 C   0  0  0  0  0  0  0  0  0  0  0  0
  152.4853  139.7763  156.1503 O   0  0  0  0  0  0  0  0  0  0  0  0
  150.6695  140.6421  157.2309 N   0  0  0  0  0  0  0  0  0  0  0  0
  151.2486  141.6790  158.0134 C   0  0  0  0  0  0  0  0  0  0  0  0
  151.7784  141.4697  159.2449 N   0  0  0  0  0  0  0  0  0  0  0  0
  152.3096  142.5081  159.9230 C   0  0  0  0  0  0  0  0  0  0  0  0
  152.3451  143.8196  159.4169 C   0  0  0  0  0  0  0  0  0  0  0  0
  151.8000  144.0523  158.1424 C   0  0  0  0  0  0  0  0  0  0  0  0
  151.2441  142.9715  157.4289 C   0  0  0  0  0  0  0  0  0  0  0  0
  150.7127  143.1908  156.1879 O   0  0  0  0  0  0  0  0  0  0  0  0
  151.9638  137.6068  154.7939 H   0  0  0  0  0  0  0  0  0  0  0  0
  151.3244  138.8503  153.7181 H   0  0  0  0  0  0  0  0  0  0  0  0
  150.4023  137.3822  154.0153 H   0  0  0  0  0  0  0  0  0  0  0  0
  150.0490  138.0013  156.3734 H   0  0  0  0  0  0  0  0  0  0  0  0
  150.1295  141.2580  154.8150 H   0  0  0  0  0  0  0  0  0  0  0  0
  149.8861  140.2560  153.3844 H   0  0  0  0  0  0  0  0  0  0  0  0
  148.1956  142.3575  154.1580 H   0  0  0  0  0  0  0  0  0  0  0  0
  146.8495  139.6555  154.9215 H   0  0  0  0  0  0  0  0  0  0  0  0
  146.0428  141.3067  154.8489 H   0  0  0  0  0  0  0  0  0  0  0  0
  146.6454  141.4931  152.4150 H   0  0  0  0  0  0  0  0  0  0  0  0
  147.4497  139.8409  152.4897 H   0  0  0  0  0  0  0  0  0  0  0  0
  149.6687  140.5443  157.3226 H   0  0  0  0  0  0  0  0  0  0  0  0
  152.7180  142.2862  160.8979 H   0  0  0  0  0  0  0  0  0  0  0  0
  152.7793  144.6244  159.9914 H   0  0  0  0  0  0  0  0  0  0  0  0
  151.8088  145.0462  157.7193 H   0  0  0  0  0  0  0  0  0  0  0  0
  149.9995  143.8107  156.1946 H   0  0  0  0  0  0  0  0  0  0  0  0
  1  2  1  0  0  0  0
  1 18  1  0  0  0  0
  1 19  1  0  0  0  0
  1 20  1  0  0  0  0
  2  3  1  0  0  0  0
  2  8  1  0  0  0  0
  2 21  1  0  0  0  0
  3  4  1  0  0  0  0
  4  5  1  0  0  0  0
  4 22  1  0  0  0  0
  4 23  1  0  0  0  0
  5  7  1  0  0  0  0
  5  6  1  0  0  0  0
  5 24  1  0  0  0  0
  6  7  1  0  0  0  0
  6 25  1  0  0  0  0
  6 26  1  0  0  0  0
  7 27  1  0  0  0  0
  7 28  1  0  0  0  0
  8  9  2  0  0  0  0
  8 10  1  0  0  0  0
 10 11  1  0  0  0  0
 10 29  1  0  0  0  0
 11 16  1  0  0  0  0
 11 12  2  0  0  0  0
 12 13  1  0  0  0  0
 13 14  2  0  0  0  0
 13 30  1  0  0  0  0
 14 15  1  0  0  0  0
 14 31  1  0  0  0  0
 15 16  2  0  0  0  0
 15 32  1  0  0  0  0
 16 17  1  0  0  0  0
 17 33  1  0  0  0  0
M  END
> <s_m_source_file>
AV-unprocessed.smi

> <i_m_source_file_index>
3150

> <i_lp_mmshare_version>
43012

> <i_f3d_flags>
0

> <s_epik_input>
W0NIMl0xW0NIMl1bQ0hdMVtDSDJdT1tDQEBIXShbQ0gzXSlDKD1PKVtOSF1jMm5bY0hdW2NIXVtjSF1jMltPSF0=

> <s_epik_cmdline>
J2VwaWtfcHl0aG9uJywgJy1waCcsICc3LjAnLCAnLXRuJywgJzgnLCAnLW1hJywgJzIwMCcsICctbWV0YWxfYmluZGluZycsICctaW1hZScsICc8aW5maWxlLm1hZT4nLCAnLW9tYWUnLCAnPG91dGZpbGUubWFlPic=

> <r_lp_tautomer_probability>
0.43658

> <r_epik_Ionization_Penalty>
0.0204299

> <r_epik_Ionization_Penalty_Charging>
0

> <r_epik_Ionization_Penalty_Neutral>
0.0204299

> <r_epik_State_Penalty>
0.419322

> <r_epik_Charging_Adjusted_Penalty>
0.419322

> <i_epik_Tot_Q>
0

> <i_epik_Tot_abs_Q>
0

> <r_epik_Metal_State_Penalty>
0.377394

> <b_epik_Metal_Only>
0

> <s_lp_Force_Field>
OPLS_2005

> <r_lp_Energy>
16.2266

> <b_lp_Chiralities_Consistent>
1

> <s_lp_Variant>
AV-unprocessed.smi:3150-1

> <Gold.Version>
5.8.1

> <Gold.Id.Protein>
6NUR|6NUR_protein|mol2

> <Gold.PLP.Fitness>
39.7157

> <Gold.PLP.PLP>
-36.3407

> <Gold.PLP.part.hbond>
-1.6210

> <Gold.PLP.part.metal>
0.0000

> <Gold.PLP.part.buried>
-4.1078

> <Gold.PLP.part.nonpolar>
-30.4684

> <Gold.PLP.part.repulsive>
0.0981

> <Gold.PLP.ligand.clash>
0.0000

> <Gold.PLP.ligand.torsion>
1.5911

> <Gold.PLP.Chemscore.Hbond>
2.0000

> <Gold.PLP.Chemscore.CHOScore>
0.0000

> <Gold.PLP.Chemscore.Metal>
0.0000

> <Gold.Chemscore.Hbonds>
donor molecule, donor type, donor heavy atom, donor atom, acceptor molecule, acceptor atom, score
      L1  H    17    33       P1  8028  0.99
      P1  H  7997  8009       L1     9  1.00

> <Gold.PLP.Chemscore.Internal.Correction>
0.5573

> <Gold.Rescore>
     Score         DG    S(hbond)    S(metal)    S(lipo)     H(rot)  DE(clash)    DE(int)     intcor
     15.24     -16.66       1.98        0.00      87.63       2.22       0.04       1.39       ----

> <Gold.Chemscore.Fitness>
15.2359

> <Gold.Chemscore.DG>
-16.6633

> <Gold.Chemscore.ZeroCoef>
-5.4800

> <Gold.Chemscore.Hbond>
1.9797

> <Gold.Chemscore.Metal>
0.0000

> <Gold.Chemscore.Lipo>
87.6277

> <Gold.Chemscore.Internal_Hbond>
0.0000

> <Gold.Chemscore.DEClash>
0.0398

> <Gold.Chemscore.DEInternal>
1.3876

> <Gold.Chemscore.Rot>
2.2192

> <Gold.Chemscore.Internal.Correction>
   9.000000E+99

> <Gold.Chemscore.Hbonds>
donor molecule, donor type, donor heavy atom, donor atom, acceptor molecule, acceptor atom, score
      L1  H    17    33       P1  8028  0.92
      P1  H  7997  8009       L1     9  1.00

> <Gold.Chemscore.Hbond.Weighted>
-6.6120

> <Gold.Chemscore.Metal.Weighted>
-0.0000

> <Gold.Chemscore.Lipo.Weighted>
-10.2524

> <Gold.Chemscore.Internal_Hbond.Weighted>
0.0000

> <Gold.Chemscore.DEClash.Weighted>
0.0398

> <Gold.Chemscore.DEInternal.Weighted>
1.3876

> <Gold.Chemscore.Rot.Weighted>
5.6812

> <Gold.Chemscore.Internal.Correction.Weighted>
   9.000000E+99

> <Gold.Protein.RotatedTorsions>
[ 6907 6896 6895 6894 ] final  124.53 input  -60.11 | X-H torsion
[ 7974 7965 7964 7962 ] final  -53.36 input  175.53 | X-H torsion
[ 8008 7997 7996 7995 ] final -152.10 input   59.86 | X-H torsion
[ 10167 10162 10161 10158 ] final   34.84 input  -65.29 | X-H torsion
[ 10718 10713 10712 10709 ] final -171.61 input   66.30 | X-H torsion
[ 10763 10752 10751 10750 ] final -117.59 input  -60.55 | X-H torsion
[ 11005 11000 10999 10996 ] final   56.29 input  -57.11 | X-H torsion

> <Gold.Protein.ActiveResidues>
 VAL166  LYS551  ARG553  GLY616  TRP617  ASP618  TYR619  PRO620  LYS621  CYS622 
 ASP623  PHE694  ASN695  SER759  ASP760  ASP761  ALA762  ILE779  LEU786  VAL792 
 PHE793  MET794  SER795  GLU796  ALA797  LYS798  CYS799  TRP800  GLU811  SER814 

> <Gold.Protein.RotatedAtoms>
  152.4070  133.6904  159.6364 H   0  0  0  0  0  0  0  0  0  0  0  0  # atno 6907 bound_to 6896
  150.7954  133.8692  159.3262 H   0  0  0  0  0  0  0  0  0  0  0  0  # atno 6908 bound_to 6896
  151.6444  135.1011  160.0199 H   0  0  0  0  0  0  0  0  0  0  0  0  # atno 6909 bound_to 6896
  145.8977  140.8020  142.9759 H   0  0  0  0  0  0  0  0  0  0  0  0  # atno 7974 bound_to 7965
  155.6498  140.0711  157.2590 H   0  0  0  0  0  0  0  0  0  0  0  0  # atno 8008 bound_to 7997
  154.4165  140.1735  156.1712 H   0  0  0  0  0  0  0  0  0  0  0  0  # atno 8009 bound_to 7997
  155.9786  140.3356  155.6645 H   0  0  0  0  0  0  0  0  0  0  0  0  # atno 8010 bound_to 7997
  140.4277  144.1369  150.6155 H   0  0  0  0  0  0  0  0  0  0  0  0  # atno 10167 bound_to 10162
  156.7435  130.9351  151.3111 H   0  0  0  0  0  0  0  0  0  0  0  0  # atno 10718 bound_to 10713
  154.8560  135.4304  154.2004 H   0  0  0  0  0  0  0  0  0  0  0  0  # atno 10763 bound_to 10752
  153.3052  135.6972  153.7172 H   0  0  0  0  0  0  0  0  0  0  0  0  # atno 10764 bound_to 10752
  153.6286  135.3489  155.3008 H   0  0  0  0  0  0  0  0  0  0  0  0  # atno 10765 bound_to 10752
  140.0541  134.5695  155.9229 H   0  0  0  0  0  0  0  0  0  0  0  0  # atno 11005 bound_to 11000
  144.6734  140.1628  143.7421 LP  0  0  0  0  0  0  0  0  0  0  0  0  # atno 17320 bound_to 7965
  145.8830  139.2333  143.1594 LP  0  0  0  0  0  0  0  0  0  0  0  0  # atno 17321 bound_to 7965
  140.4462  143.2505  151.9408 LP  0  0  0  0  0  0  0  0  0  0  0  0  # atno 17342 bound_to 10162
  139.4784  144.5607  151.8244 LP  0  0  0  0  0  0  0  0  0  0  0  0  # atno 17343 bound_to 10162
  157.6808  130.9138  150.0263 LP  0  0  0  0  0  0  0  0  0  0  0  0  # atno 17370 bound_to 10713
  156.1449  130.3642  149.9526 LP  0  0  0  0  0  0  0  0  0  0  0  0  # atno 17371 bound_to 10713
  141.1944  133.6582  156.5592 LP  0  0  0  0  0  0  0  0  0  0  0  0  # atno 17394 bound_to 11000
  140.3872  134.7472  157.4699 LP  0  0  0  0  0  0  0  0  0  0  0  0  # atno 17395 bound_to 11000

$$$$
