AV-unprocessed.smi:1218|AV-procd|sdf|5109|dock6
  -GOLD-   22720 4163D 1   1.00000     0.00000
 Structure written by MMmdl.
 45 46  0  0  0  0  0  0  0  0  2 V2000
  146.6845  130.8696  152.6559 C   0  0  0  0  0  0  0  0  0  0  0  0
  145.8747  132.0954  152.2007 C   0  0  0  0  0  0  0  0  0  0  0  0
  144.8771  131.7008  151.1015 C   0  0  0  0  0  0  0  0  0  0  0  0
  146.7884  133.2423  151.7164 C   0  0  0  0  0  0  0  0  0  0  0  0
  147.5447  133.8933  152.8169 N   0  3  2  0  0  0  0  0  0  0  0  0
  148.7065  133.1014  153.2916 C   0  0  0  0  0  0  0  0  0  0  0  0
  149.4526  133.8564  154.4036 C   0  0  0  0  0  0  0  0  0  0  0  0
  148.5520  134.1527  155.4624 O   0  0  0  0  0  0  0  0  0  0  0  0
  147.4863  134.9989  155.0423 C   0  0  2  0  0  0  0  0  0  0  0  0
  146.6301  135.3450  156.2732 C   0  0  0  0  0  0  0  0  0  0  0  0
  147.3643  135.1176  157.5123 N   0  0  0  0  0  0  0  0  0  0  0  0
  147.5485  136.0325  158.4762 C   0  0  0  0  0  0  0  0  0  0  0  0
  147.0666  137.1647  158.4378 O   0  0  0  0  0  0  0  0  0  0  0  0
  148.4329  135.6162  159.6512 C   0  0  0  0  0  0  0  0  0  0  0  0
  147.7178  135.7567  160.9065 N   0  0  0  0  0  0  0  0  0  0  0  0
  147.2958  134.7648  161.7675 C   0  0  0  0  0  0  0  0  0  0  0  0
  146.6588  135.3757  162.8095 C   0  0  0  0  0  0  0  0  0  0  0  0
  146.7414  136.7603  162.4919 C   0  0  0  0  0  0  0  0  0  0  0  0
  147.3732  136.9856  161.3512 N   0  0  0  0  0  0  0  0  0  0  0  0
  146.6742  134.2654  153.9578 C   0  0  0  0  0  0  0  0  0  0  0  0
  147.2948  130.4729  151.8438 H   0  0  0  0  0  0  0  0  0  0  0  0
  146.0259  130.0697  152.9960 H   0  0  0  0  0  0  0  0  0  0  0  0
  147.3501  131.1143  153.4838 H   0  0  0  0  0  0  0  0  0  0  0  0
  145.2834  132.4403  153.0483 H   0  0  0  0  0  0  0  0  0  0  0  0
  145.3903  131.3342  150.2117 H   0  0  0  0  0  0  0  0  0  0  0  0
  144.2626  132.5514  150.8048 H   0  0  0  0  0  0  0  0  0  0  0  0
  144.2031  130.9151  151.4446 H   0  0  0  0  0  0  0  0  0  0  0  0
  147.4903  132.8342  150.9871 H   0  0  0  0  0  0  0  0  0  0  0  0
  146.2079  133.9994  151.1868 H   0  0  0  0  0  0  0  0  0  0  0  0
  148.3632  132.1354  153.6652 H   0  0  0  0  0  0  0  0  0  0  0  0
  149.3961  132.9004  152.4727 H   0  0  0  0  0  0  0  0  0  0  0  0
  150.2659  133.2440  154.7930 H   0  0  0  0  0  0  0  0  0  0  0  0
  149.9006  134.7753  154.0214 H   0  0  0  0  0  0  0  0  0  0  0  0
  147.8977  135.9178  154.6200 H   0  0  0  0  0  0  0  0  0  0  0  0
  146.2982  136.3835  156.2279 H   0  0  0  0  0  0  0  0  0  0  0  0
  145.7283  134.7324  156.2888 H   0  0  0  0  0  0  0  0  0  0  0  0
  147.8015  134.2141  157.6262 H   0  0  0  0  0  0  0  0  0  0  0  0
  148.7386  134.5759  159.5328 H   0  0  0  0  0  0  0  0  0  0  0  0
  149.3435  136.2173  159.6823 H   0  0  0  0  0  0  0  0  0  0  0  0
  147.4812  133.7195  161.5682 H   0  0  0  0  0  0  0  0  0  0  0  0
  146.2034  134.9050  163.6681 H   0  0  0  0  0  0  0  0  0  0  0  0
  146.3625  137.6023  163.0522 H   0  0  0  0  0  0  0  0  0  0  0  0
  145.8673  134.9107  153.6074 H   0  0  0  0  0  0  0  0  0  0  0  0
  146.2117  133.3681  154.3722 H   0  0  0  0  0  0  0  0  0  0  0  0
  147.9071  134.7595  152.4443 H   0  0  0  0  0  0  0  0  0  0  0  0
  1  2  1  0  0  0  0
  1 21  1  0  0  0  0
  1 22  1  0  0  0  0
  1 23  1  0  0  0  0
  2  3  1  0  0  0  0
  2  4  1  0  0  0  0
  2 24  1  0  0  0  0
  3 25  1  0  0  0  0
  3 26  1  0  0  0  0
  3 27  1  0  0  0  0
  4  5  1  0  0  0  0
  4 28  1  0  0  0  0
  4 29  1  0  0  0  0
  5 20  1  0  0  0  0
  5  6  1  0  0  0  0
  5 45  1  0  0  0  0
  6  7  1  0  0  0  0
  6 30  1  0  0  0  0
  6 31  1  0  0  0  0
  7  8  1  0  0  0  0
  7 32  1  0  0  0  0
  7 33  1  0  0  0  0
  8  9  1  0  0  0  0
  9 10  1  0  0  0  0
  9 20  1  0  0  0  0
  9 34  1  0  0  0  0
 10 11  1  0  0  0  0
 10 35  1  0  0  0  0
 10 36  1  0  0  0  0
 11 12  1  0  0  0  0
 11 37  1  0  0  0  0
 12 13  2  0  0  0  0
 12 14  1  0  0  0  0
 14 15  1  0  0  0  0
 14 38  1  0  0  0  0
 14 39  1  0  0  0  0
 15 19  1  0  0  0  0
 15 16  1  0  0  0  0
 16 17  2  0  0  0  0
 16 40  1  0  0  0  0
 17 18  1  0  0  0  0
 17 41  1  0  0  0  0
 18 19  2  0  0  0  0
 18 42  1  0  0  0  0
 20 43  1  0  0  0  0
 20 44  1  0  0  0  0
M  CHG  1   5   1
M  END
> <s_m_source_file>
AV-unprocessed.smi

> <i_m_source_file_index>
1218

> <i_lp_mmshare_version>
43012

> <i_f3d_flags>
0

> <s_epik_input>
W0NIM11bQ0hdKFtDSDNdKVtDSDJdTjFbQ0gyXVtDSDJdT1tDQEhdKFtDSDJdMSlbQ0gyXVtOSF1DKD1PKVtDSDJdbjJbY0hdW2NIXVtjSF1uMg==

> <s_epik_cmdline>
J2VwaWtfcHl0aG9uJywgJy1waCcsICc3LjAnLCAnLXRuJywgJzgnLCAnLW1hJywgJzIwMCcsICctbWV0YWxfYmluZGluZycsICctaW1hZScsICc8aW5maWxlLm1hZT4nLCAnLW9tYWUnLCAnPG91dGZpbGUubWFlPic=

> <r_lp_tautomer_probability>
1

> <r_epik_Ionization_Penalty>
0.0995066

> <r_epik_Ionization_Penalty_Charging>
0.0994921

> <r_epik_Ionization_Penalty_Neutral>
1.44634e-05

> <r_epik_State_Penalty>
0.0895432

> <r_epik_Charging_Adjusted_Penalty>
0.189035

> <i_epik_Tot_Q>
1

> <i_epik_Tot_abs_Q>
1

> <r_epik_Metal_State_Penalty>
0.0895432

> <b_epik_Metal_Only>
0

> <s_lp_Force_Field>
OPLS_2005

> <r_lp_Energy>
17.6202

> <b_lp_Chiralities_Consistent>
1

> <s_lp_Variant>
AV-unprocessed.smi:1218-4

> <Gold.Version>
5.8.1

> <Gold.Id.Protein>
6NUR|6NUR_protein|mol2

> <Gold.PLP.Fitness>
44.7211

> <Gold.PLP.PLP>
-34.5485

> <Gold.PLP.part.hbond>
-3.0000

> <Gold.PLP.part.metal>
0.0000

> <Gold.PLP.part.buried>
-4.8465

> <Gold.PLP.part.nonpolar>
-27.1860

> <Gold.PLP.part.repulsive>
0.0543

> <Gold.PLP.ligand.clash>
0.0000

> <Gold.PLP.ligand.torsion>
0.8246

> <Gold.PLP.Chemscore.Hbond>
3.9040

> <Gold.PLP.Chemscore.CHOScore>
0.0000

> <Gold.PLP.Chemscore.Metal>
0.0000

> <Gold.Chemscore.Hbonds>
donor molecule, donor type, donor heavy atom, donor atom, acceptor molecule, acceptor atom, score
      L1  H     5    45       P1  7948  2.00
      P1  H  6931  6943       L1    19  0.67
      P1  H  6934  6947       L1    19  0.85

> <Gold.PLP.Chemscore.Internal.Correction>
0.1098

> <Gold.Rescore>
     Score         DG    S(hbond)    S(metal)    S(lipo)     H(rot)  DE(clash)    DE(int)     intcor
     15.90     -17.01       2.48        0.00      70.75       1.96       0.03       1.09       ----

> <Gold.Chemscore.Fitness>
15.9003

> <Gold.Chemscore.DG>
-17.0142

> <Gold.Chemscore.ZeroCoef>
-5.4800

> <Gold.Chemscore.Hbond>
2.4792

> <Gold.Chemscore.Metal>
0.0000

> <Gold.Chemscore.Lipo>
70.7463

> <Gold.Chemscore.Internal_Hbond>
0.0000

> <Gold.Chemscore.DEClash>
0.0276

> <Gold.Chemscore.DEInternal>
1.0864

> <Gold.Chemscore.Rot>
1.9624

> <Gold.Chemscore.Internal.Correction>
   9.000000E+99

> <Gold.Chemscore.Hbonds>
donor molecule, donor type, donor heavy atom, donor atom, acceptor molecule, acceptor atom, score
      L1  H     5    45       P1  7948  0.70
      P1  H  6931  6943       L1    19  0.26
      P1  H  6934  6947       L1    19  0.47

> <Gold.Chemscore.Hbond.Weighted>
-8.2806

> <Gold.Chemscore.Metal.Weighted>
-0.0000

> <Gold.Chemscore.Lipo.Weighted>
-8.2773

> <Gold.Chemscore.Internal_Hbond.Weighted>
0.0000

> <Gold.Chemscore.DEClash.Weighted>
0.0276

> <Gold.Chemscore.DEInternal.Weighted>
1.0864

> <Gold.Chemscore.Rot.Weighted>
5.0237

> <Gold.Chemscore.Internal.Correction.Weighted>
   9.000000E+99

> <Gold.Protein.RotatedTorsions>
[ 6907 6896 6895 6894 ] final  133.69 input  -60.11 | X-H torsion
[ 7974 7965 7964 7962 ] final  104.64 input  175.53 | X-H torsion
[ 8008 7997 7996 7995 ] final  -79.29 input   59.86 | X-H torsion
[ 10167 10162 10161 10158 ] final  -52.80 input  -65.29 | X-H torsion
[ 10718 10713 10712 10709 ] final  115.37 input   66.30 | X-H torsion
[ 10763 10752 10751 10750 ] final   78.46 input  -60.55 | X-H torsion
[ 11005 11000 10999 10996 ] final -127.29 input  -57.11 | X-H torsion

> <Gold.Protein.ActiveResidues>
 VAL166  LYS551  ARG553  GLY616  TRP617  ASP618  TYR619  PRO620  LYS621  CYS622 
 ASP623  PHE694  ASN695  SER759  ASP760  ASP761  ALA762  ILE779  LEU786  VAL792 
 PHE793  MET794  SER795  GLU796  ALA797  LYS798  CYS799  TRP800  GLU811  SER814 

> <Gold.Protein.RotatedAtoms>
  152.3193  133.5836  159.5733 H   0  0  0  0  0  0  0  0  0  0  0  0  # atno 6907 bound_to 6896
  150.7363  134.0035  159.3655 H   0  0  0  0  0  0  0  0  0  0  0  0  # atno 6908 bound_to 6896
  151.7921  135.0733  160.0439 H   0  0  0  0  0  0  0  0  0  0  0  0  # atno 6909 bound_to 6896
  145.3301  139.2489  143.3665 H   0  0  0  0  0  0  0  0  0  0  0  0  # atno 7974 bound_to 7965
  154.5771  140.0680  156.9050 H   0  0  0  0  0  0  0  0  0  0  0  0  # atno 8008 bound_to 7997
  155.2529  140.3353  155.4262 H   0  0  0  0  0  0  0  0  0  0  0  0  # atno 8009 bound_to 7997
  156.2162  140.1779  156.7568 H   0  0  0  0  0  0  0  0  0  0  0  0  # atno 8010 bound_to 7997
  140.6518  143.2571  151.4700 H   0  0  0  0  0  0  0  0  0  0  0  0  # atno 10167 bound_to 10162
  157.6226  131.1011  150.7319 H   0  0  0  0  0  0  0  0  0  0  0  0  # atno 10718 bound_to 10713
  153.0876  135.4876  154.8628 H   0  0  0  0  0  0  0  0  0  0  0  0  # atno 10763 bound_to 10752
  154.7230  135.3043  154.9019 H   0  0  0  0  0  0  0  0  0  0  0  0  # atno 10764 bound_to 10752
  153.9677  135.6805  153.4799 H   0  0  0  0  0  0  0  0  0  0  0  0  # atno 10765 bound_to 10752
  140.9612  134.0934  157.3967 H   0  0  0  0  0  0  0  0  0  0  0  0  # atno 11005 bound_to 11000
  146.3049  140.3877  142.8691 LP  0  0  0  0  0  0  0  0  0  0  0  0  # atno 17320 bound_to 7965
  144.8871  140.7476  143.5950 LP  0  0  0  0  0  0  0  0  0  0  0  0  # atno 17321 bound_to 7965
  139.5734  144.1874  152.1870 LP  0  0  0  0  0  0  0  0  0  0  0  0  # atno 17342 bound_to 10162
  140.1177  144.5401  150.6883 LP  0  0  0  0  0  0  0  0  0  0  0  0  # atno 17343 bound_to 10162
  156.7674  130.4818  149.5425 LP  0  0  0  0  0  0  0  0  0  0  0  0  # atno 17370 bound_to 10713
  156.1380  130.6224  151.0427 LP  0  0  0  0  0  0  0  0  0  0  0  0  # atno 17371 bound_to 10713
  139.8878  135.0093  156.6586 LP  0  0  0  0  0  0  0  0  0  0  0  0  # atno 17394 bound_to 11000
  140.7465  133.8933  155.8316 LP  0  0  0  0  0  0  0  0  0  0  0  0  # atno 17395 bound_to 11000

$$$$
