AV-unprocessed.smi:2213|AV-procd|sdf|8957|dock4
  -GOLD-   2272012173D 1   1.00000     0.00000
 Structure written by MMmdl.
 38 39  0  0  0  0  0  0  0  0  1 V2000
  152.0476  144.6005  160.4312 C   0  0  0  0  0  0  0  0  0  0  0  0
  151.9818  143.4727  159.4168 C   0  0  0  0  0  0  0  0  0  0  0  0
  151.1573  143.7017  158.3113 N   0  0  0  0  0  0  0  0  0  0  0  0
  151.0394  142.7960  157.3961 C   0  0  0  0  0  0  0  0  0  0  0  0
  151.7261  141.5735  157.4754 N   0  0  0  0  0  0  0  0  0  0  0  0
  151.5056  140.6288  156.3681 C   0  0  0  0  0  0  0  0  0  0  0  0
  150.0512  140.6709  155.8473 C   0  0  1  0  0  0  0  0  0  0  0  0
  150.0031  140.2859  154.4883 O   0  0  0  0  0  0  0  0  0  0  0  0
  149.1040  139.7447  156.6281 C   0  0  0  0  0  0  0  0  0  0  0  0
  149.3872  138.3885  156.3062 O   0  0  0  0  0  0  0  0  0  0  0  0
  148.9819  137.4038  157.1822 C   0  0  0  0  0  0  0  0  0  0  0  0
  148.4534  137.6617  158.4730 C   0  0  0  0  0  0  0  0  0  0  0  0
  148.0613  136.5991  159.3104 C   0  0  0  0  0  0  0  0  0  0  0  0
  147.4202  136.9288  160.8778 Cl  0  0  0  0  0  0  0  0  0  0  0  0
  148.1910  135.2688  158.8706 C   0  0  0  0  0  0  0  0  0  0  0  0
  148.7136  135.0023  157.5921 C   0  0  0  0  0  0  0  0  0  0  0  0
  149.1068  136.0634  156.7532 C   0  0  0  0  0  0  0  0  0  0  0  0
  149.7475  135.7093  155.1885 Cl  0  0  0  0  0  0  0  0  0  0  0  0
  152.5404  141.2639  158.5255 C   0  0  0  0  0  0  0  0  0  0  0  0
  153.1215  140.1790  158.5950 O   0  0  0  0  0  0  0  0  0  0  0  0
  152.6686  142.3060  159.5569 C   0  0  0  0  0  0  0  0  0  0  0  0
  153.5794  142.0000  160.7394 C   0  0  0  0  0  0  0  0  0  0  0  0
  153.0699  144.9654  160.5325 H   0  0  0  0  0  0  0  0  0  0  0  0
  151.7011  144.2567  161.4062 H   0  0  0  0  0  0  0  0  0  0  0  0
  151.4205  145.4415  160.1320 H   0  0  0  0  0  0  0  0  0  0  0  0
  150.4039  142.9220  156.5178 H   0  0  0  0  0  0  0  0  0  0  0  0
  152.2107  140.7841  155.5485 H   0  0  0  0  0  0  0  0  0  0  0  0
  151.7309  139.6222  156.7257 H   0  0  0  0  0  0  0  0  0  0  0  0
  149.6540  141.6847  155.9129 H   0  0  0  0  0  0  0  0  0  0  0  0
  149.1106  140.0623  154.2726 H   0  0  0  0  0  0  0  0  0  0  0  0
  149.2686  139.8987  157.6957 H   0  0  0  0  0  0  0  0  0  0  0  0
  148.0627  139.9925  156.4135 H   0  0  0  0  0  0  0  0  0  0  0  0
  148.3384  138.6686  158.8440 H   0  0  0  0  0  0  0  0  0  0  0  0
  147.8904  134.4531  159.5116 H   0  0  0  0  0  0  0  0  0  0  0  0
  148.8132  133.9811  157.2548 H   0  0  0  0  0  0  0  0  0  0  0  0
  153.2155  141.1240  161.2772 H   0  0  0  0  0  0  0  0  0  0  0  0
  153.6468  142.8193  161.4532 H   0  0  0  0  0  0  0  0  0  0  0  0
  154.5905  141.7870  160.3905 H   0  0  0  0  0  0  0  0  0  0  0  0
  1  2  1  0  0  0  0
  1 23  1  0  0  0  0
  1 24  1  0  0  0  0
  1 25  1  0  0  0  0
  2 21  2  0  0  0  0
  2  3  1  0  0  0  0
  3  4  2  0  0  0  0
  4  5  1  0  0  0  0
  4 26  1  0  0  0  0
  5  6  1  0  0  0  0
  5 19  1  0  0  0  0
  6  7  1  0  0  0  0
  6 27  1  0  0  0  0
  6 28  1  0  0  0  0
  7  8  1  0  0  0  0
  7  9  1  0  0  0  0
  7 29  1  0  0  0  0
  8 30  1  0  0  0  0
  9 10  1  0  0  0  0
  9 31  1  0  0  0  0
  9 32  1  0  0  0  0
 10 11  1  0  0  0  0
 11 17  1  0  0  0  0
 11 12  2  0  0  0  0
 12 13  1  0  0  0  0
 12 33  1  0  0  0  0
 13 14  1  0  0  0  0
 13 15  2  0  0  0  0
 15 16  1  0  0  0  0
 15 34  1  0  0  0  0
 16 17  2  0  0  0  0
 16 35  1  0  0  0  0
 17 18  1  0  0  0  0
 19 20  2  0  0  0  0
 19 21  1  0  0  0  0
 21 22  1  0  0  0  0
 22 36  1  0  0  0  0
 22 37  1  0  0  0  0
 22 38  1  0  0  0  0
M  END
> <s_m_source_file>
AV-unprocessed.smi

> <i_m_source_file_index>
2213

> <i_lp_mmshare_version>
43012

> <i_f3d_flags>
0

> <s_epik_input>
W0NIM11jMW5bY0hdbihjKD1PKWMxW0NIM10pW0NIMl1bQ0BIXShbT0hdKVtDSDJdT2MyW2NIXWMoQ2wpW2NIXVtjSF1jMkNs

> <s_epik_cmdline>
J2VwaWtfcHl0aG9uJywgJy1waCcsICc3LjAnLCAnLXRuJywgJzgnLCAnLW1hJywgJzIwMCcsICctbWV0YWxfYmluZGluZycsICctaW1hZScsICc8aW5maWxlLm1hZT4nLCAnLW9tYWUnLCAnPG91dGZpbGUubWFlPic=

> <r_lp_tautomer_probability>
1

> <r_epik_Ionization_Penalty>
3.50205e-05

> <r_epik_Ionization_Penalty_Charging>
7.87908e-08

> <r_epik_Ionization_Penalty_Neutral>
3.49418e-05

> <r_epik_State_Penalty>
-0

> <r_epik_Charging_Adjusted_Penalty>
7.87908e-08

> <i_epik_Tot_Q>
0

> <i_epik_Tot_abs_Q>
0

> <r_epik_Metal_State_Penalty>
-0

> <b_epik_Metal_Only>
0

> <s_lp_Force_Field>
OPLS_2005

> <r_lp_Energy>
23.8454

> <b_lp_Chiralities_Consistent>
1

> <s_lp_Variant>
AV-unprocessed.smi:2213-2

> <Gold.Version>
5.8.1

> <Gold.Id.Protein>
6NUR|6NUR_protein|mol2

> <Gold.PLP.Fitness>
42.6284

> <Gold.PLP.PLP>
-35.5403

> <Gold.PLP.part.hbond>
-2.0000

> <Gold.PLP.part.metal>
0.0000

> <Gold.PLP.part.buried>
-5.2536

> <Gold.PLP.part.nonpolar>
-28.0185

> <Gold.PLP.part.repulsive>
0.1187

> <Gold.PLP.ligand.clash>
0.0000

> <Gold.PLP.ligand.torsion>
0.8781

> <Gold.PLP.Chemscore.Hbond>
1.9360

> <Gold.PLP.Chemscore.CHOScore>
1.0000

> <Gold.PLP.Chemscore.Metal>
0.0000

> <Gold.Chemscore.Hbonds>
donor molecule, donor type, donor heavy atom, donor atom, acceptor molecule, acceptor atom, score
      P1  H  7989  7998       L1     8  0.96
      P1  H  7997  8009       L1    20  0.70
      L1  C     4    26       P1  8028  1.00

> <Gold.PLP.Chemscore.Internal.Correction>
0.0364

> <Gold.Rescore>
     Score         DG    S(hbond)    S(metal)    S(lipo)     H(rot)  DE(clash)    DE(int)     intcor
     14.28     -15.11       1.64        0.00      87.76       2.38       0.09       0.75       ----

> <Gold.Chemscore.Fitness>
14.2814

> <Gold.Chemscore.DG>
-15.1142

> <Gold.Chemscore.ZeroCoef>
-5.4800

> <Gold.Chemscore.Hbond>
1.6365

> <Gold.Chemscore.Metal>
0.0000

> <Gold.Chemscore.Lipo>
87.7592

> <Gold.Chemscore.Internal_Hbond>
0.0000

> <Gold.Chemscore.DEClash>
0.0876

> <Gold.Chemscore.DEInternal>
0.7452

> <Gold.Chemscore.Rot>
2.3826

> <Gold.Chemscore.Internal.Correction>
   9.000000E+99

> <Gold.Chemscore.Hbonds>
donor molecule, donor type, donor heavy atom, donor atom, acceptor molecule, acceptor atom, score
      P1  H  7989  7998       L1     8  0.74
      P1  H  7997  8009       L1    20  0.49

> <Gold.Chemscore.Hbond.Weighted>
-5.4659

> <Gold.Chemscore.Metal.Weighted>
-0.0000

> <Gold.Chemscore.Lipo.Weighted>
-10.2678

> <Gold.Chemscore.Internal_Hbond.Weighted>
0.0000

> <Gold.Chemscore.DEClash.Weighted>
0.0876

> <Gold.Chemscore.DEInternal.Weighted>
0.7452

> <Gold.Chemscore.Rot.Weighted>
6.0996

> <Gold.Chemscore.Internal.Correction.Weighted>
   9.000000E+99

> <Gold.Protein.RotatedTorsions>
[ 6907 6896 6895 6894 ] final   53.72 input  -60.11 | X-H torsion
[ 7974 7965 7964 7962 ] final -128.61 input  175.53 | X-H torsion
[ 8008 7997 7996 7995 ] final  149.60 input   59.86 | X-H torsion
[ 10167 10162 10161 10158 ] final   23.70 input  -65.29 | X-H torsion
[ 10718 10713 10712 10709 ] final  144.62 input   66.30 | X-H torsion
[ 10763 10752 10751 10750 ] final   72.67 input  -60.55 | X-H torsion
[ 11005 11000 10999 10996 ] final  104.68 input  -57.11 | X-H torsion

> <Gold.Protein.ActiveResidues>
 VAL166  LYS551  ARG553  GLY616  TRP617  ASP618  TYR619  PRO620  LYS621  CYS622 
 ASP623  PHE694  ASN695  SER759  ASP760  ASP761  ALA762  ILE779  LEU786  VAL792 
 PHE793  MET794  SER795  GLU796  ALA797  LYS798  CYS799  TRP800  GLU811  SER814 

> <Gold.Protein.RotatedAtoms>
  152.3366  134.7190  160.0275 H   0  0  0  0  0  0  0  0  0  0  0  0  # atno 6907 bound_to 6896
  151.7589  133.3327  159.3420 H   0  0  0  0  0  0  0  0  0  0  0  0  # atno 6908 bound_to 6896
  150.7454  134.6056  159.6104 H   0  0  0  0  0  0  0  0  0  0  0  0  # atno 6909 bound_to 6896
  144.9653  140.7490  143.4704 H   0  0  0  0  0  0  0  0  0  0  0  0  # atno 7974 bound_to 7965
  156.2749  140.2097  156.5883 H   0  0  0  0  0  0  0  0  0  0  0  0  # atno 8008 bound_to 7997
  154.7003  140.0521  157.0474 H   0  0  0  0  0  0  0  0  0  0  0  0  # atno 8009 bound_to 7997
  155.0744  140.3180  155.4623 H   0  0  0  0  0  0  0  0  0  0  0  0  # atno 8010 bound_to 7997
  140.5247  143.9943  150.6434 H   0  0  0  0  0  0  0  0  0  0  0  0  # atno 10167 bound_to 10162
  157.3550  131.0956  151.0966 H   0  0  0  0  0  0  0  0  0  0  0  0  # atno 10718 bound_to 10713
  153.0473  135.5091  154.7779 H   0  0  0  0  0  0  0  0  0  0  0  0  # atno 10763 bound_to 10752
  154.6668  135.2947  154.9796 H   0  0  0  0  0  0  0  0  0  0  0  0  # atno 10764 bound_to 10752
  154.0628  135.6688  153.4866 H   0  0  0  0  0  0  0  0  0  0  0  0  # atno 10765 bound_to 10752
  139.8794  134.9309  156.5399 H   0  0  0  0  0  0  0  0  0  0  0  0  # atno 11005 bound_to 11000
  145.2638  139.1981  143.4877 LP  0  0  0  0  0  0  0  0  0  0  0  0  # atno 17320 bound_to 7965
  146.3366  140.2573  142.8600 LP  0  0  0  0  0  0  0  0  0  0  0  0  # atno 17321 bound_to 7965
  140.3301  143.3083  152.0696 LP  0  0  0  0  0  0  0  0  0  0  0  0  # atno 17342 bound_to 10162
  139.4934  144.6515  151.6666 LP  0  0  0  0  0  0  0  0  0  0  0  0  # atno 17343 bound_to 10162
  157.2127  130.6445  149.5780 LP  0  0  0  0  0  0  0  0  0  0  0  0  # atno 17370 bound_to 10713
  155.9728  130.4654  150.6254 LP  0  0  0  0  0  0  0  0  0  0  0  0  # atno 17371 bound_to 10713
  140.8318  133.8273  155.8991 LP  0  0  0  0  0  0  0  0  0  0  0  0  # atno 17394 bound_to 11000
  140.9321  134.2008  157.4856 LP  0  0  0  0  0  0  0  0  0  0  0  0  # atno 17395 bound_to 11000

$$$$
