AV-unprocessed.smi:3248|AV-procd|sdf|12413|dock3
  -GOLD-   2272018293D 1   1.00000     0.00000
 Structure written by MMmdl.
 38 39  0  0  0  0  0  0  0  0  1 V2000
  150.8496  139.8859  156.5979 C   0  0  0  0  0  0  0  0  0  0  0  0
  150.2259  141.2755  156.8084 C   0  0  2  0  0  0  0  0  0  0  0  0
  149.9434  142.0209  155.4840 C   0  0  0  0  0  0  0  0  0  0  0  0
  148.8111  141.4796  154.7540 N   0  0  0  0  0  0  0  0  0  0  0  0
  147.6758  142.1346  154.3244 C   0  0  0  0  0  0  0  0  0  0  0  0
  146.8879  141.2130  153.6967 C   0  0  0  0  0  0  0  0  0  0  0  0
  147.6338  140.0052  153.7988 C   0  0  0  0  0  0  0  0  0  0  0  0
  148.7817  140.1670  154.4366 N   0  0  0  0  0  0  0  0  0  0  0  0
  151.1087  142.0712  157.6566 N   0  0  0  0  0  0  0  0  0  0  0  0
  151.7138  141.6422  158.7779 C   0  0  0  0  0  0  0  0  0  0  0  0
  151.6111  140.4834  159.1800 O   0  0  0  0  0  0  0  0  0  0  0  0
  152.5287  142.5710  159.3371 N   0  0  0  0  0  0  0  0  0  0  0  0
  152.1958  144.0029  159.2870 C   0  0  0  0  0  0  0  0  0  0  0  0
  151.4680  144.3779  160.5929 C   0  0  0  0  0  0  0  0  0  0  0  0
  152.2946  144.0730  161.7140 O   0  0  0  0  0  0  0  0  0  0  0  0
  152.6877  142.7031  161.7724 C   0  0  0  0  0  0  0  0  0  0  0  0
  153.4370  142.3326  160.4767 C   0  0  1  0  0  0  0  0  0  0  0  0
  154.0762  140.9295  160.5399 C   0  0  0  0  0  0  0  0  0  0  0  0
  150.1816  139.2275  156.0422 H   0  0  0  0  0  0  0  0  0  0  0  0
  151.0577  139.4018  157.5526 H   0  0  0  0  0  0  0  0  0  0  0  0
  151.7878  139.9517  156.0461 H   0  0  0  0  0  0  0  0  0  0  0  0
  149.2817  141.1311  157.3371 H   0  0  0  0  0  0  0  0  0  0  0  0
  149.7488  143.0776  155.6724 H   0  0  0  0  0  0  0  0  0  0  0  0
  150.8200  141.9779  154.8360 H   0  0  0  0  0  0  0  0  0  0  0  0
  147.5251  143.1900  154.4984 H   0  0  0  0  0  0  0  0  0  0  0  0
  145.9248  141.3758  153.2361 H   0  0  0  0  0  0  0  0  0  0  0  0
  147.3758  139.0222  153.4333 H   0  0  0  0  0  0  0  0  0  0  0  0
  151.2799  143.0227  157.3661 H   0  0  0  0  0  0  0  0  0  0  0  0
  153.1083  144.5914  159.1808 H   0  0  0  0  0  0  0  0  0  0  0  0
  151.5713  144.2726  158.4348 H   0  0  0  0  0  0  0  0  0  0  0  0
  151.2380  145.4433  160.6045 H   0  0  0  0  0  0  0  0  0  0  0  0
  150.5190  143.8454  160.6762 H   0  0  0  0  0  0  0  0  0  0  0  0
  153.3338  142.5655  162.6395 H   0  0  0  0  0  0  0  0  0  0  0  0
  151.8135  142.0666  161.9196 H   0  0  0  0  0  0  0  0  0  0  0  0
  154.2737  143.0248  160.3672 H   0  0  0  0  0  0  0  0  0  0  0  0
  154.8791  140.9111  161.2773 H   0  0  0  0  0  0  0  0  0  0  0  0
  154.5100  140.6473  159.5801 H   0  0  0  0  0  0  0  0  0  0  0  0
  153.3644  140.1590  160.8346 H   0  0  0  0  0  0  0  0  0  0  0  0
  1  2  1  0  0  0  0
  1 19  1  0  0  0  0
  1 20  1  0  0  0  0
  1 21  1  0  0  0  0
  2  3  1  0  0  0  0
  2  9  1  0  0  0  0
  2 22  1  0  0  0  0
  3  4  1  0  0  0  0
  3 23  1  0  0  0  0
  3 24  1  0  0  0  0
  4  8  1  0  0  0  0
  4  5  1  0  0  0  0
  5  6  2  0  0  0  0
  5 25  1  0  0  0  0
  6  7  1  0  0  0  0
  6 26  1  0  0  0  0
  7  8  2  0  0  0  0
  7 27  1  0  0  0  0
  9 10  1  0  0  0  0
  9 28  1  0  0  0  0
 10 11  2  0  0  0  0
 10 12  1  0  0  0  0
 12 17  1  0  0  0  0
 12 13  1  0  0  0  0
 13 14  1  0  0  0  0
 13 29  1  0  0  0  0
 13 30  1  0  0  0  0
 14 15  1  0  0  0  0
 14 31  1  0  0  0  0
 14 32  1  0  0  0  0
 15 16  1  0  0  0  0
 16 17  1  0  0  0  0
 16 33  1  0  0  0  0
 16 34  1  0  0  0  0
 17 18  1  0  0  0  0
 17 35  1  0  0  0  0
 18 36  1  0  0  0  0
 18 37  1  0  0  0  0
 18 38  1  0  0  0  0
M  END
> <s_m_source_file>
AV-unprocessed.smi

> <i_m_source_file_index>
3248

> <i_lp_mmshare_version>
43012

> <i_f3d_flags>
0

> <s_epik_input>
bjFbY0hdW2NIXVtjSF1uMVtDSDJdW0NAQEhdKFtDSDNdKVtOSF1DKD1PKU4yW0NIMl1bQ0gyXU9bQ0gyXVtDQEhdMltDSDNd

> <s_epik_cmdline>
J2VwaWtfcHl0aG9uJywgJy1waCcsICc3LjAnLCAnLXRuJywgJzgnLCAnLW1hJywgJzIwMCcsICctbWV0YWxfYmluZGluZycsICctaW1hZScsICc8aW5maWxlLm1hZT4nLCAnLW9tYWUnLCAnPG91dGZpbGUubWFlPic=

> <r_lp_tautomer_probability>
1

> <r_epik_Ionization_Penalty>
4.45233e-05

> <r_epik_Ionization_Penalty_Charging>
0

> <r_epik_Ionization_Penalty_Neutral>
4.45233e-05

> <r_epik_State_Penalty>
-0

> <r_epik_Charging_Adjusted_Penalty>
0

> <i_epik_Tot_Q>
0

> <i_epik_Tot_abs_Q>
0

> <r_epik_Metal_State_Penalty>
-0

> <b_epik_Metal_Only>
0

> <s_lp_Force_Field>
OPLS_2005

> <r_lp_Energy>
31.5175

> <b_lp_Chiralities_Consistent>
1

> <s_lp_Variant>
AV-unprocessed.smi:3248-1

> <Gold.Version>
5.8.1

> <Gold.Id.Protein>
6NUR|6NUR_protein|mol2

> <Gold.PLP.Fitness>
43.7262

> <Gold.PLP.PLP>
-41.2638

> <Gold.PLP.part.hbond>
0.0000

> <Gold.PLP.part.metal>
0.0000

> <Gold.PLP.part.buried>
-3.5981

> <Gold.PLP.part.nonpolar>
-37.5164

> <Gold.PLP.part.repulsive>
0.3349

> <Gold.PLP.ligand.clash>
0.0000

> <Gold.PLP.ligand.torsion>
0.4919

> <Gold.PLP.Chemscore.Hbond>
0.0000

> <Gold.PLP.Chemscore.CHOScore>
1.0000

> <Gold.PLP.Chemscore.Metal>
0.0000

> <Gold.Chemscore.Hbonds>
donor molecule, donor type, donor heavy atom, donor atom, acceptor molecule, acceptor atom, score
      L1  C     5    25       P1  8028  1.00

> <Gold.PLP.Chemscore.Internal.Correction>
0.4461

> <Gold.Rescore>
     Score         DG    S(hbond)    S(metal)    S(lipo)     H(rot)  DE(clash)    DE(int)     intcor
      9.77     -13.02       0.00        0.00      95.48       1.42       0.09       3.16       ----

> <Gold.Chemscore.Fitness>
9.7705

> <Gold.Chemscore.DG>
-13.0183

> <Gold.Chemscore.ZeroCoef>
-5.4800

> <Gold.Chemscore.Hbond>
0.0000

> <Gold.Chemscore.Metal>
0.0000

> <Gold.Chemscore.Lipo>
95.4814

> <Gold.Chemscore.Internal_Hbond>
0.0000

> <Gold.Chemscore.DEClash>
0.0920

> <Gold.Chemscore.DEInternal>
3.1558

> <Gold.Chemscore.Rot>
1.4191

> <Gold.Chemscore.Internal.Correction>
   9.000000E+99

> <Gold.Chemscore.Hbond.Weighted>
-0.0000

> <Gold.Chemscore.Metal.Weighted>
-0.0000

> <Gold.Chemscore.Lipo.Weighted>
-11.1713

> <Gold.Chemscore.Internal_Hbond.Weighted>
0.0000

> <Gold.Chemscore.DEClash.Weighted>
0.0920

> <Gold.Chemscore.DEInternal.Weighted>
3.1558

> <Gold.Chemscore.Rot.Weighted>
3.6330

> <Gold.Chemscore.Internal.Correction.Weighted>
   9.000000E+99

> <Gold.Protein.RotatedTorsions>
[ 6907 6896 6895 6894 ] final  167.84 input  -60.11 | X-H torsion
[ 7974 7965 7964 7962 ] final   70.16 input  175.53 | X-H torsion
[ 8008 7997 7996 7995 ] final  -96.94 input   59.86 | X-H torsion
[ 10167 10162 10161 10158 ] final  -34.84 input  -65.29 | X-H torsion
[ 10718 10713 10712 10709 ] final   -6.12 input   66.30 | X-H torsion
[ 10763 10752 10751 10750 ] final  159.34 input  -60.55 | X-H torsion
[ 11005 11000 10999 10996 ] final -140.42 input  -57.11 | X-H torsion

> <Gold.Protein.ActiveResidues>
 VAL166  LYS551  ARG553  GLY616  TRP617  ASP618  TYR619  PRO620  LYS621  CYS622 
 ASP623  PHE694  ASN695  SER759  ASP760  ASP761  ALA762  ILE779  LEU786  VAL792 
 PHE793  MET794  SER795  GLU796  ALA797  LYS798  CYS799  TRP800  GLU811  SER814 

> <Gold.Protein.RotatedAtoms>
  151.8571  133.3450  159.3691 H   0  0  0  0  0  0  0  0  0  0  0  0  # atno 6907 bound_to 6896
  150.7190  134.5243  159.5678 H   0  0  0  0  0  0  0  0  0  0  0  0  # atno 6908 bound_to 6896
  152.2748  134.7894  160.0458 H   0  0  0  0  0  0  0  0  0  0  0  0  # atno 6909 bound_to 6896
  145.7816  139.2890  143.1262 H   0  0  0  0  0  0  0  0  0  0  0  0  # atno 7974 bound_to 7965
  154.7811  140.0467  157.1128 H   0  0  0  0  0  0  0  0  0  0  0  0  # atno 8008 bound_to 7997
  154.9704  140.3089  155.4971 H   0  0  0  0  0  0  0  0  0  0  0  0  # atno 8009 bound_to 7997
  156.2936  140.2254  156.4796 H   0  0  0  0  0  0  0  0  0  0  0  0  # atno 8010 bound_to 7997
  140.7177  143.3519  151.2138 H   0  0  0  0  0  0  0  0  0  0  0  0  # atno 10167 bound_to 10162
  156.7365  130.5196  149.5833 H   0  0  0  0  0  0  0  0  0  0  0  0  # atno 10718 bound_to 10713
  154.2302  135.2778  155.2892 H   0  0  0  0  0  0  0  0  0  0  0  0  # atno 10763 bound_to 10752
  154.5630  135.5641  153.7028 H   0  0  0  0  0  0  0  0  0  0  0  0  # atno 10764 bound_to 10752
  153.0022  135.6302  154.2444 H   0  0  0  0  0  0  0  0  0  0  0  0  # atno 10765 bound_to 10752
  140.8424  134.2386  157.4803 H   0  0  0  0  0  0  0  0  0  0  0  0  # atno 11005 bound_to 11000
  146.0068  140.8471  142.9991 LP  0  0  0  0  0  0  0  0  0  0  0  0  # atno 17320 bound_to 7965
  144.6795  140.2432  143.7341 LP  0  0  0  0  0  0  0  0  0  0  0  0  # atno 17321 bound_to 7965
  139.7052  143.9468  152.2923 LP  0  0  0  0  0  0  0  0  0  0  0  0  # atno 17342 bound_to 10162
  139.9174  144.6820  150.8498 LP  0  0  0  0  0  0  0  0  0  0  0  0  # atno 17343 bound_to 10162
  156.1493  130.6299  151.0574 LP  0  0  0  0  0  0  0  0  0  0  0  0  # atno 17370 bound_to 10713
  157.6837  131.0831  150.7302 LP  0  0  0  0  0  0  0  0  0  0  0  0  # atno 17371 bound_to 10713
  139.8703  134.9642  156.4487 LP  0  0  0  0  0  0  0  0  0  0  0  0  # atno 17394 bound_to 11000
  140.8881  133.7868  155.9541 LP  0  0  0  0  0  0  0  0  0  0  0  0  # atno 17395 bound_to 11000

$$$$
