AV-unprocessed.smi:2661|AV-procd|sdf|10316|dock2
  -GOLD-   2272014333D 1   1.00000     0.00000
 Structure written by MMmdl.
 44 46  0  0  0  0  0  0  0  0  1 V2000
  144.7489  135.0279  150.4284 C   0  0  0  0  0  0  0  0  0  0  0  0
  144.9572  136.0006  151.4924 N   0  0  0  0  0  0  0  0  0  0  0  0
  144.2535  135.8949  152.7549 C   0  0  0  0  0  0  0  0  0  0  0  0
  144.9859  136.8765  153.6773 C   0  0  0  0  0  0  0  0  0  0  0  0
  145.7469  137.8447  152.7535 C   0  0  1  0  0  0  0  0  0  0  0  0
  147.0853  138.1003  153.2826 N   0  0  0  0  0  0  0  0  0  0  0  0
  147.4047  139.0903  154.1286 C   0  0  0  0  0  0  0  0  0  0  0  0
  146.5838  139.8891  154.5787 O   0  0  0  0  0  0  0  0  0  0  0  0
  148.7164  139.0729  154.4213 N   0  0  0  0  0  0  0  0  0  0  0  0
  149.4452  139.9461  155.2736 C   0  0  0  0  0  0  0  0  0  0  0  0
  150.8466  139.8140  155.3127 C   0  0  0  0  0  0  0  0  0  0  0  0
  151.5973  140.6720  156.1380 C   0  0  0  0  0  0  0  0  0  0  0  0
  150.9265  141.6539  156.9044 C   0  0  0  0  0  0  0  0  0  0  0  0
  151.6572  142.5214  157.7456 N   0  0  0  0  0  0  0  0  0  0  0  0
  151.5713  142.2378  159.1764 C   0  0  0  0  0  0  0  0  0  0  0  0
  152.6341  143.0397  159.9474 C   0  0  0  0  0  0  0  0  0  0  0  0
  152.5037  144.4258  159.6495 O   0  0  0  0  0  0  0  0  0  0  0  0
  152.7057  144.6900  158.2652 C   0  0  0  0  0  0  0  0  0  0  0  0
  151.6419  143.9503  157.4365 C   0  0  0  0  0  0  0  0  0  0  0  0
  149.5796  141.7963  156.8477 N   0  0  0  0  0  0  0  0  0  0  0  0
  148.8623  140.9697  156.0574 C   0  0  0  0  0  0  0  0  0  0  0  0
  145.8071  137.0319  151.4593 C   0  0  0  0  0  0  0  0  0  0  0  0
  146.5402  137.3247  150.5147 O   0  0  0  0  0  0  0  0  0  0  0  0
  145.6345  134.4035  150.3068 H   0  0  0  0  0  0  0  0  0  0  0  0
  144.5482  135.5290  149.4807 H   0  0  0  0  0  0  0  0  0  0  0  0
  143.9020  134.3781  150.6514 H   0  0  0  0  0  0  0  0  0  0  0  0
  143.2134  136.1915  152.6115 H   0  0  0  0  0  0  0  0  0  0  0  0
  144.2721  134.8768  153.1459 H   0  0  0  0  0  0  0  0  0  0  0  0
  144.2977  137.4013  154.3409 H   0  0  0  0  0  0  0  0  0  0  0  0
  145.6792  136.3190  154.3100 H   0  0  0  0  0  0  0  0  0  0  0  0
  145.1772  138.7607  152.5879 H   0  0  0  0  0  0  0  0  0  0  0  0
  147.8231  137.4890  152.9656 H   0  0  0  0  0  0  0  0  0  0  0  0
  149.2476  138.3088  154.0304 H   0  0  0  0  0  0  0  0  0  0  0  0
  151.3455  139.0619  154.7191 H   0  0  0  0  0  0  0  0  0  0  0  0
  152.6726  140.5764  156.1617 H   0  0  0  0  0  0  0  0  0  0  0  0
  150.5744  142.5063  159.5286 H   0  0  0  0  0  0  0  0  0  0  0  0
  151.7069  141.1782  159.3881 H   0  0  0  0  0  0  0  0  0  0  0  0
  152.5077  142.8947  161.0203 H   0  0  0  0  0  0  0  0  0  0  0  0
  153.6386  142.6950  159.6961 H   0  0  0  0  0  0  0  0  0  0  0  0
  152.6347  145.7642  158.0938 H   0  0  0  0  0  0  0  0  0  0  0  0
  153.7111  144.3860  157.9685 H   0  0  0  0  0  0  0  0  0  0  0  0
  151.8365  144.1100  156.3752 H   0  0  0  0  0  0  0  0  0  0  0  0
  150.6524  144.3564  157.6519 H   0  0  0  0  0  0  0  0  0  0  0  0
  147.8012  141.1626  156.0522 H   0  0  0  0  0  0  0  0  0  0  0  0
  1  2  1  0  0  0  0
  1 24  1  0  0  0  0
  1 25  1  0  0  0  0
  1 26  1  0  0  0  0
  2 22  1  0  0  0  0
  2  3  1  0  0  0  0
  3  4  1  0  0  0  0
  3 27  1  0  0  0  0
  3 28  1  0  0  0  0
  4  5  1  0  0  0  0
  4 29  1  0  0  0  0
  4 30  1  0  0  0  0
  5  6  1  0  0  0  0
  5 22  1  0  0  0  0
  5 31  1  0  0  0  0
  6  7  1  0  0  0  0
  6 32  1  0  0  0  0
  7  8  2  0  0  0  0
  7  9  1  0  0  0  0
  9 10  1  0  0  0  0
  9 33  1  0  0  0  0
 10 21  1  0  0  0  0
 10 11  2  0  0  0  0
 11 12  1  0  0  0  0
 11 34  1  0  0  0  0
 12 13  2  0  0  0  0
 12 35  1  0  0  0  0
 13 14  1  0  0  0  0
 13 20  1  0  0  0  0
 14 19  1  0  0  0  0
 14 15  1  0  0  0  0
 15 16  1  0  0  0  0
 15 36  1  0  0  0  0
 15 37  1  0  0  0  0
 16 17  1  0  0  0  0
 16 38  1  0  0  0  0
 16 39  1  0  0  0  0
 17 18  1  0  0  0  0
 18 19  1  0  0  0  0
 18 40  1  0  0  0  0
 18 41  1  0  0  0  0
 19 42  1  0  0  0  0
 19 43  1  0  0  0  0
 20 21  2  0  0  0  0
 21 44  1  0  0  0  0
 22 23  2  0  0  0  0
M  END
> <s_m_source_file>
AV-unprocessed.smi

> <i_m_source_file_index>
2661

> <i_lp_mmshare_version>
43012

> <i_f3d_flags>
0

> <s_epik_input>
W0NIM11OMVtDSDJdW0NIMl1bQ0BIXShDMT1PKVtOSF1DKD1PKVtOSF1jMltjSF1bY0hdYyhuW2NIXTIpTjNbQ0gyXVtDSDJdT1tDSDJdW0NIMl0z

> <s_epik_cmdline>
J2VwaWtfcHl0aG9uJywgJy1waCcsICc3LjAnLCAnLXRuJywgJzgnLCAnLW1hJywgJzIwMCcsICctbWV0YWxfYmluZGluZycsICctaW1hZScsICc8aW5maWxlLm1hZT4nLCAnLW9tYWUnLCAnPG91dGZpbGUubWFlPic=

> <r_lp_tautomer_probability>
1

> <r_epik_Ionization_Penalty>
0.00172037

> <r_epik_Ionization_Penalty_Charging>
0

> <r_epik_Ionization_Penalty_Neutral>
0.00172037

> <r_epik_State_Penalty>
0.00114015

> <r_epik_Charging_Adjusted_Penalty>
0.00114015

> <i_epik_Tot_Q>
0

> <i_epik_Tot_abs_Q>
0

> <r_epik_Metal_State_Penalty>
-0

> <b_epik_Metal_Only>
0

> <s_lp_Force_Field>
OPLS_2005

> <r_lp_Energy>
30.3032

> <b_lp_Chiralities_Consistent>
1

> <s_lp_Variant>
AV-unprocessed.smi:2661-1

> <Gold.Version>
5.8.1

> <Gold.Id.Protein>
6NUR|6NUR_protein|mol2

> <Gold.PLP.Fitness>
41.1607

> <Gold.PLP.PLP>
-36.0519

> <Gold.PLP.part.hbond>
-2.0000

> <Gold.PLP.part.metal>
0.0000

> <Gold.PLP.part.buried>
-1.9527

> <Gold.PLP.part.nonpolar>
-34.0202

> <Gold.PLP.part.repulsive>
2.6906

> <Gold.PLP.ligand.clash>
0.0000

> <Gold.PLP.ligand.torsion>
0.5511

> <Gold.PLP.Chemscore.Hbond>
1.9440

> <Gold.PLP.Chemscore.CHOScore>
0.0000

> <Gold.PLP.Chemscore.Metal>
0.0000

> <Gold.Chemscore.Hbonds>
donor molecule, donor type, donor heavy atom, donor atom, acceptor molecule, acceptor atom, score
      L1  H     6    32       P1  7948  1.00
      P1  H  7954  7966       L1    23  0.93

> <Gold.PLP.Chemscore.Internal.Correction>
0.3791

> <Gold.Rescore>
     Score         DG    S(hbond)    S(metal)    S(lipo)     H(rot)  DE(clash)    DE(int)     intcor
     15.33     -19.04       1.89        0.00      89.42       1.26       1.95       1.76       ----

> <Gold.Chemscore.Fitness>
15.3260

> <Gold.Chemscore.DG>
-19.0365

> <Gold.Chemscore.ZeroCoef>
-5.4800

> <Gold.Chemscore.Hbond>
1.8949

> <Gold.Chemscore.Metal>
0.0000

> <Gold.Chemscore.Lipo>
89.4210

> <Gold.Chemscore.Internal_Hbond>
0.0000

> <Gold.Chemscore.DEClash>
1.9479

> <Gold.Chemscore.DEInternal>
1.7627

> <Gold.Chemscore.Rot>
1.2636

> <Gold.Chemscore.Internal.Correction>
   9.000000E+99

> <Gold.Chemscore.Hbonds>
donor molecule, donor type, donor heavy atom, donor atom, acceptor molecule, acceptor atom, score
      L1  H     6    32       P1  7948  0.95
      P1  H  7954  7966       L1    23  0.91

> <Gold.Chemscore.Hbond.Weighted>
-6.3291

> <Gold.Chemscore.Metal.Weighted>
-0.0000

> <Gold.Chemscore.Lipo.Weighted>
-10.4623

> <Gold.Chemscore.Internal_Hbond.Weighted>
0.0000

> <Gold.Chemscore.DEClash.Weighted>
1.9479

> <Gold.Chemscore.DEInternal.Weighted>
1.7627

> <Gold.Chemscore.Rot.Weighted>
3.2348

> <Gold.Chemscore.Internal.Correction.Weighted>
   9.000000E+99

> <Gold.Protein.RotatedTorsions>
[ 6907 6896 6895 6894 ] final  162.98 input  -60.11 | X-H torsion
[ 7974 7965 7964 7962 ] final -151.32 input  175.53 | X-H torsion
[ 8008 7997 7996 7995 ] final  -81.64 input   59.86 | X-H torsion
[ 10167 10162 10161 10158 ] final   71.57 input  -65.29 | X-H torsion
[ 10718 10713 10712 10709 ] final -153.03 input   66.30 | X-H torsion
[ 10763 10752 10751 10750 ] final  145.26 input  -60.55 | X-H torsion
[ 11005 11000 10999 10996 ] final  117.39 input  -57.11 | X-H torsion

> <Gold.Protein.ActiveResidues>
 VAL166  LYS551  ARG553  GLY616  TRP617  ASP618  TYR619  PRO620  LYS621  CYS622 
 ASP623  PHE694  ASN695  SER759  ASP760  ASP761  ALA762  ILE779  LEU786  VAL792 
 PHE793  MET794  SER795  GLU796  ALA797  LYS798  CYS799  TRP800  GLU811  SER814 

> <Gold.Protein.RotatedAtoms>
  151.9322  133.3614  159.3934 H   0  0  0  0  0  0  0  0  0  0  0  0  # atno 6907 bound_to 6896
  150.7015  134.4526  159.5352 H   0  0  0  0  0  0  0  0  0  0  0  0  # atno 6908 bound_to 6896
  152.2168  134.8450  160.0541 H   0  0  0  0  0  0  0  0  0  0  0  0  # atno 6909 bound_to 6896
  144.7856  140.4813  143.5808 H   0  0  0  0  0  0  0  0  0  0  0  0  # atno 7974 bound_to 7965
  154.6004  140.0645  156.9360 H   0  0  0  0  0  0  0  0  0  0  0  0  # atno 8008 bound_to 7997
  155.2142  140.3325  155.4306 H   0  0  0  0  0  0  0  0  0  0  0  0  # atno 8009 bound_to 7997
  156.2314  140.1843  156.7216 H   0  0  0  0  0  0  0  0  0  0  0  0  # atno 8010 bound_to 7997
  140.0446  144.5361  150.7408 H   0  0  0  0  0  0  0  0  0  0  0  0  # atno 10167 bound_to 10162
  156.4804  130.8300  151.2527 H   0  0  0  0  0  0  0  0  0  0  0  0  # atno 10718 bound_to 10713
  154.0024  135.2922  155.3401 H   0  0  0  0  0  0  0  0  0  0  0  0  # atno 10763 bound_to 10752
  154.7151  135.5133  153.8729 H   0  0  0  0  0  0  0  0  0  0  0  0  # atno 10764 bound_to 10752
  153.0760  135.6663  154.0264 H   0  0  0  0  0  0  0  0  0  0  0  0  # atno 10765 bound_to 10752
  139.9073  134.9609  156.7343 H   0  0  0  0  0  0  0  0  0  0  0  0  # atno 11005 bound_to 11000
  145.5930  139.1497  143.3171 LP  0  0  0  0  0  0  0  0  0  0  0  0  # atno 17320 bound_to 7965
  146.2086  140.6055  142.9069 LP  0  0  0  0  0  0  0  0  0  0  0  0  # atno 17321 bound_to 7965
  140.7244  143.2621  151.4169 LP  0  0  0  0  0  0  0  0  0  0  0  0  # atno 17342 bound_to 10162
  139.5991  144.1333  152.2178 LP  0  0  0  0  0  0  0  0  0  0  0  0  # atno 17343 bound_to 10162
  157.7484  131.0047  150.3085 LP  0  0  0  0  0  0  0  0  0  0  0  0  # atno 17370 bound_to 10713
  156.3527  130.3833  149.7315 LP  0  0  0  0  0  0  0  0  0  0  0  0  # atno 17371 bound_to 10713
  140.6900  133.9398  155.7960 LP  0  0  0  0  0  0  0  0  0  0  0  0  # atno 17394 bound_to 11000
  141.0448  134.0569  157.3857 LP  0  0  0  0  0  0  0  0  0  0  0  0  # atno 17395 bound_to 11000

$$$$
