AV-unprocessed.smi:119|AV-procd|sdf|1134|dock5
  -GOLD-   2262018263D 1   1.00000     0.00000
 Structure written by MMmdl.
 51 54  0  0  0  0  0  0  0  0  1 V2000
  153.6440  141.9676  160.4916 C   0  0  0  0  0  0  0  0  0  0  0  0
  152.9643  141.1780  159.3655 C   0  0  1  0  0  0  0  0  0  0  0  0
  153.1785  139.6614  159.5461 C   0  0  0  0  0  0  0  0  0  0  0  0
  152.7498  138.8040  158.3406 C   0  0  0  0  0  0  0  0  0  0  0  0
  151.2931  138.7662  158.1765 N   0  0  0  0  0  0  0  0  0  0  0  0
  150.5337  137.8981  158.8917 C   0  0  0  0  0  0  0  0  0  0  0  0
  151.0326  137.0572  159.6433 O   0  0  0  0  0  0  0  0  0  0  0  0
  148.9944  137.9739  158.7683 C   0  0  0  0  0  0  0  0  0  0  0  0
  148.3216  136.6855  159.0435 N   0  0  0  0  0  0  0  0  0  0  0  0
  148.1904  135.7421  157.9945 C   0  0  0  0  0  0  0  0  0  0  0  0
  148.6092  135.9834  156.8615 O   0  0  0  0  0  0  0  0  0  0  0  0
  147.5456  134.4846  158.3562 C   0  0  0  0  0  0  0  0  0  0  0  0
  147.3840  133.5279  157.4265 F   0  0  0  0  0  0  0  0  0  0  0  0
  147.1128  134.2621  159.6144 C   0  0  0  0  0  0  0  0  0  0  0  0
  147.2453  135.1940  160.6276 N   0  0  0  0  0  0  0  0  0  0  0  0
  146.7656  134.9059  162.0334 C   0  0  2  0  0  0  0  0  0  0  0  0
  146.1961  133.4853  162.1181 C   0  0  0  0  0  0  0  0  0  0  0  0
  144.7213  133.7273  161.8805 C   0  0  0  0  0  0  0  0  0  0  0  0
  144.5179  135.0755  162.5627 C   0  0  0  0  0  0  0  0  0  0  0  0
  145.7327  135.7928  162.3565 O   0  0  0  0  0  0  0  0  0  0  0  0
  147.8706  136.4308  160.3610 C   0  0  0  0  0  0  0  0  0  0  0  0
  148.0308  137.2621  161.2580 O   0  0  0  0  0  0  0  0  0  0  0  0
  150.7241  139.7333  157.3087 C   0  0  0  0  0  0  0  0  0  0  0  0
  150.2521  139.3375  156.0377 C   0  0  0  0  0  0  0  0  0  0  0  0
  149.6827  140.2871  155.1678 C   0  0  0  0  0  0  0  0  0  0  0  0
  149.5829  141.6344  155.5637 C   0  0  0  0  0  0  0  0  0  0  0  0
  150.0564  142.0344  156.8281 C   0  0  0  0  0  0  0  0  0  0  0  0
  150.6342  141.0903  157.6998 C   0  0  0  0  0  0  0  0  0  0  0  0
  151.2051  141.6299  159.2834 S   0  0  0  0  0  0  0  0  0  0  0  0
  154.7150  141.7663  160.5234 H   0  0  0  0  0  0  0  0  0  0  0  0
  153.2261  141.7079  161.4647 H   0  0  0  0  0  0  0  0  0  0  0  0
  153.5160  143.0412  160.3497 H   0  0  0  0  0  0  0  0  0  0  0  0
  153.4192  141.4872  158.4237 H   0  0  0  0  0  0  0  0  0  0  0  0
  154.2411  139.4826  159.7132 H   0  0  0  0  0  0  0  0  0  0  0  0
  152.6772  139.3181  160.4522 H   0  0  0  0  0  0  0  0  0  0  0  0
  153.2106  139.1927  157.4312 H   0  0  0  0  0  0  0  0  0  0  0  0
  153.1453  137.7924  158.4482 H   0  0  0  0  0  0  0  0  0  0  0  0
  148.6031  138.7334  159.4470 H   0  0  0  0  0  0  0  0  0  0  0  0
  148.7459  138.3488  157.7748 H   0  0  0  0  0  0  0  0  0  0  0  0
  146.6513  133.3090  159.8255 H   0  0  0  0  0  0  0  0  0  0  0  0
  147.6203  135.0820  162.6888 H   0  0  0  0  0  0  0  0  0  0  0  0
  146.6576  132.8061  161.3999 H   0  0  0  0  0  0  0  0  0  0  0  0
  146.3638  133.1024  163.1256 H   0  0  0  0  0  0  0  0  0  0  0  0
  144.5201  133.8084  160.8117 H   0  0  0  0  0  0  0  0  0  0  0  0
  144.0860  132.9413  162.2894 H   0  0  0  0  0  0  0  0  0  0  0  0
  143.6598  135.6204  162.1687 H   0  0  0  0  0  0  0  0  0  0  0  0
  144.3713  134.9397  163.6351 H   0  0  0  0  0  0  0  0  0  0  0  0
  150.3243  138.3047  155.7288 H   0  0  0  0  0  0  0  0  0  0  0  0
  149.3210  139.9815  154.1970 H   0  0  0  0  0  0  0  0  0  0  0  0
  149.1437  142.3623  154.8976 H   0  0  0  0  0  0  0  0  0  0  0  0
  149.9767  143.0695  157.1263 H   0  0  0  0  0  0  0  0  0  0  0  0
  1  2  1  0  0  0  0
  1 30  1  0  0  0  0
  1 31  1  0  0  0  0
  1 32  1  0  0  0  0
  2 29  1  0  0  0  0
  2  3  1  0  0  0  0
  2 33  1  0  0  0  0
  3  4  1  0  0  0  0
  3 34  1  0  0  0  0
  3 35  1  0  0  0  0
  4  5  1  0  0  0  0
  4 36  1  0  0  0  0
  4 37  1  0  0  0  0
  5  6  1  0  0  0  0
  5 23  1  0  0  0  0
  6  7  2  0  0  0  0
  6  8  1  0  0  0  0
  8  9  1  0  0  0  0
  8 38  1  0  0  0  0
  8 39  1  0  0  0  0
  9 21  1  0  0  0  0
  9 10  1  0  0  0  0
 10 11  2  0  0  0  0
 10 12  1  0  0  0  0
 12 13  1  0  0  0  0
 12 14  2  0  0  0  0
 14 15  1  0  0  0  0
 14 40  1  0  0  0  0
 15 16  1  0  0  0  0
 15 21  1  0  0  0  0
 16 20  1  0  0  0  0
 16 17  1  0  0  0  0
 16 41  1  0  0  0  0
 17 18  1  0  0  0  0
 17 42  1  0  0  0  0
 17 43  1  0  0  0  0
 18 19  1  0  0  0  0
 18 44  1  0  0  0  0
 18 45  1  0  0  0  0
 19 20  1  0  0  0  0
 19 46  1  0  0  0  0
 19 47  1  0  0  0  0
 21 22  2  0  0  0  0
 23 28  2  0  0  0  0
 23 24  1  0  0  0  0
 24 25  2  0  0  0  0
 24 48  1  0  0  0  0
 25 26  1  0  0  0  0
 25 49  1  0  0  0  0
 26 27  2  0  0  0  0
 26 50  1  0  0  0  0
 27 28  1  0  0  0  0
 27 51  1  0  0  0  0
 28 29  1  0  0  0  0
M  END
> <s_m_source_file>
AV-unprocessed.smi

> <i_m_source_file_index>
119

> <i_lp_mmshare_version>
43012

> <i_f3d_flags>
0

> <s_epik_input>
W2NIXTFbY0hdW2NIXVtjSF1jKGMxMilTW0NASF0oW0NIM10pW0NIMl1bQ0gyXU4yQyg9TylbQ0gyXW4zYyg9TyljKEYpW2NIXW4oYzM9TylbQ0BASF00W0NIMl1bQ0gyXVtDSDJdTzQ=

> <s_epik_cmdline>
J2VwaWtfcHl0aG9uJywgJy1waCcsICc3LjAnLCAnLXRuJywgJzgnLCAnLW1hJywgJzIwMCcsICctbWV0YWxfYmluZGluZycsICctaW1hZScsICc8aW5maWxlLm1hZT4nLCAnLW9tYWUnLCAnPG91dGZpbGUubWFlPic=

> <r_lp_tautomer_probability>
1

> <r_epik_Ionization_Penalty>
1.68882e-06

> <r_epik_Ionization_Penalty_Charging>
3.67303e-09

> <r_epik_Ionization_Penalty_Neutral>
1.68515e-06

> <r_epik_State_Penalty>
-0

> <r_epik_Charging_Adjusted_Penalty>
3.67303e-09

> <i_epik_Tot_Q>
0

> <i_epik_Tot_abs_Q>
0

> <r_epik_Metal_State_Penalty>
-0

> <b_epik_Metal_Only>
0

> <s_epik_Chemistry_Notes>
This compound contains an acetal/aminal-like group ( X-CH(R)-Y where X, Y are N, S, or O) that may be acid/base labile, releasing an aldehyde.

> <s_lp_Force_Field>
OPLS_2005

> <r_lp_Energy>
49.252

> <b_lp_Chiralities_Consistent>
1

> <s_lp_Variant>
AV-unprocessed.smi:119-2

> <Gold.Version>
5.8.1

> <Gold.Id.Protein>
6NUR|6NUR_protein|mol2

> <Gold.PLP.Fitness>
55.4519

> <Gold.PLP.PLP>
-49.1422

> <Gold.PLP.part.hbond>
-2.7251

> <Gold.PLP.part.metal>
0.0000

> <Gold.PLP.part.buried>
-5.1190

> <Gold.PLP.part.nonpolar>
-41.3594

> <Gold.PLP.part.repulsive>
0.0000

> <Gold.PLP.ligand.clash>
0.0000

> <Gold.PLP.ligand.torsion>
0.7546

> <Gold.PLP.Chemscore.Hbond>
2.5986

> <Gold.PLP.Chemscore.CHOScore>
0.0000

> <Gold.PLP.Chemscore.Metal>
0.0000

> <Gold.Chemscore.Hbonds>
donor molecule, donor type, donor heavy atom, donor atom, acceptor molecule, acceptor atom, score
      P1  H  6896  6909       L1     7  1.00
      P1  H  6931  6943       L1    22  1.00
      P1  H  6934  6947       L1    22  0.66

> <Gold.PLP.Chemscore.Internal.Correction>
0.0231

> <Gold.Rescore>
     Score         DG    S(hbond)    S(metal)    S(lipo)     H(rot)  DE(clash)    DE(int)     intcor
     21.28     -22.17       2.69        0.00      99.25       1.53       0.00       0.89       ----

> <Gold.Chemscore.Fitness>
21.2831

> <Gold.Chemscore.DG>
-22.1726

> <Gold.Chemscore.ZeroCoef>
-5.4800

> <Gold.Chemscore.Hbond>
2.6910

> <Gold.Chemscore.Metal>
0.0000

> <Gold.Chemscore.Lipo>
99.2542

> <Gold.Chemscore.Internal_Hbond>
0.0000

> <Gold.Chemscore.DEClash>
0.0000

> <Gold.Chemscore.DEInternal>
0.8895

> <Gold.Chemscore.Rot>
1.5266

> <Gold.Chemscore.Internal.Correction>
   9.000000E+99

> <Gold.Chemscore.Hbonds>
donor molecule, donor type, donor heavy atom, donor atom, acceptor molecule, acceptor atom, score
      P1  H  6896  6909       L1     7  0.97
      P1  H  6931  6943       L1    22  0.91
      P1  H  6934  6947       L1    22  0.60

> <Gold.Chemscore.Hbond.Weighted>
-8.9880

> <Gold.Chemscore.Metal.Weighted>
-0.0000

> <Gold.Chemscore.Lipo.Weighted>
-11.6127

> <Gold.Chemscore.Internal_Hbond.Weighted>
0.0000

> <Gold.Chemscore.DEClash.Weighted>
0.0000

> <Gold.Chemscore.DEInternal.Weighted>
0.8895

> <Gold.Chemscore.Rot.Weighted>
3.9081

> <Gold.Chemscore.Internal.Correction.Weighted>
   9.000000E+99

> <Gold.Protein.RotatedTorsions>
[ 6907 6896 6895 6894 ] final  119.70 input  -60.11 | X-H torsion
[ 7974 7965 7964 7962 ] final   -4.06 input  175.53 | X-H torsion
[ 8008 7997 7996 7995 ] final  176.87 input   59.86 | X-H torsion
[ 10167 10162 10161 10158 ] final -109.72 input  -65.29 | X-H torsion
[ 10718 10713 10712 10709 ] final  -19.86 input   66.30 | X-H torsion
[ 10763 10752 10751 10750 ] final   98.90 input  -60.55 | X-H torsion
[ 11005 11000 10999 10996 ] final  -46.58 input  -57.11 | X-H torsion

> <Gold.Protein.ActiveResidues>
 VAL166  LYS551  ARG553  GLY616  TRP617  ASP618  TYR619  PRO620  LYS621  CYS622 
 ASP623  PHE694  ASN695  SER759  ASP760  ASP761  ALA762  ILE779  LEU786  VAL792 
 PHE793  MET794  SER795  GLU796  ALA797  LYS798  CYS799  TRP800  GLU811  SER814 

> <Gold.Protein.RotatedAtoms>
  152.4453  133.7524  159.6701 H   0  0  0  0  0  0  0  0  0  0  0  0  # atno 6907 bound_to 6896
  150.8351  133.8016  159.3089 H   0  0  0  0  0  0  0  0  0  0  0  0  # atno 6908 bound_to 6896
  151.5658  135.1066  160.0035 H   0  0  0  0  0  0  0  0  0  0  0  0  # atno 6909 bound_to 6896
  146.2379  140.1814  142.8332 H   0  0  0  0  0  0  0  0  0  0  0  0  # atno 7974 bound_to 7965
  156.0718  140.1372  156.9819 H   0  0  0  0  0  0  0  0  0  0  0  0  # atno 8008 bound_to 7997
  154.4536  140.0970  156.6742 H   0  0  0  0  0  0  0  0  0  0  0  0  # atno 8009 bound_to 7997
  155.5216  140.3456  155.4410 H   0  0  0  0  0  0  0  0  0  0  0  0  # atno 8010 bound_to 7997
  140.1522  143.4189  152.1486 H   0  0  0  0  0  0  0  0  0  0  0  0  # atno 10167 bound_to 10162
  156.5398  130.4675  149.6504 H   0  0  0  0  0  0  0  0  0  0  0  0  # atno 10718 bound_to 10713
  153.2948  135.4132  155.1199 H   0  0  0  0  0  0  0  0  0  0  0  0  # atno 10763 bound_to 10752
  154.8531  135.3527  154.5932 H   0  0  0  0  0  0  0  0  0  0  0  0  # atno 10764 bound_to 10752
  153.6356  135.7059  153.5318 H   0  0  0  0  0  0  0  0  0  0  0  0  # atno 10765 bound_to 10752
  141.0588  133.6716  156.3175 H   0  0  0  0  0  0  0  0  0  0  0  0  # atno 11005 bound_to 11000
  144.9931  140.8565  143.5327 LP  0  0  0  0  0  0  0  0  0  0  0  0  # atno 17320 bound_to 7965
  145.1823  139.2345  143.5286 LP  0  0  0  0  0  0  0  0  0  0  0  0  # atno 17321 bound_to 7965
  139.5420  144.7265  151.4702 LP  0  0  0  0  0  0  0  0  0  0  0  0  # atno 17342 bound_to 10162
  140.6695  143.8324  150.6982 LP  0  0  0  0  0  0  0  0  0  0  0  0  # atno 17343 bound_to 10162
  156.2982  130.7162  151.2027 LP  0  0  0  0  0  0  0  0  0  0  0  0  # atno 17370 bound_to 10713
  157.7407  131.0513  150.5147 LP  0  0  0  0  0  0  0  0  0  0  0  0  # atno 17371 bound_to 10713
  140.5911  134.5650  157.5499 LP  0  0  0  0  0  0  0  0  0  0  0  0  # atno 17394 bound_to 11000
  139.9414  134.7781  156.0670 LP  0  0  0  0  0  0  0  0  0  0  0  0  # atno 17395 bound_to 11000

$$$$
