AV-unprocessed.smi:747|AV-procd|sdf|3581|dock4
  -GOLD-   22720 0573D 1   1.00000     0.00000
 Structure written by MMmdl.
 48 49  0  0  0  0  0  0  0  0  1 V2000
  148.4297  132.2521  160.6727 C   0  0  0  0  0  0  0  0  0  0  0  0
  148.0400  133.6464  160.6985 N   0  0  0  0  0  0  0  0  0  0  0  0
  147.2796  134.1333  161.7894 C   0  0  0  0  0  0  0  0  0  0  0  0
  146.9252  133.4168  162.7261 O   0  0  0  0  0  0  0  0  0  0  0  0
  146.9527  135.5523  161.7103 C   0  0  0  0  0  0  0  0  0  0  0  0
  147.3635  136.3031  160.6649 C   0  0  0  0  0  0  0  0  0  0  0  0
  148.1067  135.8013  159.6120 N   0  0  0  0  0  0  0  0  0  0  0  0
  148.5302  136.6931  158.5259 C   0  0  0  0  0  0  0  0  0  0  0  0
  149.9602  137.2050  158.7305 C   0  0  0  0  0  0  0  0  0  0  0  0
  150.7365  136.5959  159.4670 O   0  0  0  0  0  0  0  0  0  0  0  0
  150.2850  138.3296  158.0734 N   0  0  0  0  0  0  0  0  0  0  0  0
  151.6064  138.9662  158.0485 C   0  0  1  0  0  0  0  0  0  0  0  0
  152.0476  139.1686  156.5733 C   0  0  0  0  0  0  0  0  0  0  0  0
  151.9632  137.9034  155.7069 C   0  0  0  0  0  0  0  0  0  0  0  0
  151.2034  137.9651  154.6107 N   0  0  0  0  0  0  0  0  0  0  0  0
  152.5766  136.8854  156.0206 O   0  0  0  0  0  0  0  0  0  0  0  0
  151.5721  140.2867  158.8710 C   0  0  0  0  0  0  0  0  0  0  0  0
  150.7843  141.4119  158.1555 C   0  0  0  0  0  0  0  0  0  0  0  0
  150.7669  142.7205  158.9620 C   0  0  0  0  0  0  0  0  0  0  0  0
  152.1877  143.1992  159.2837 C   0  0  0  0  0  0  0  0  0  0  0  0
  152.9722  142.1064  160.0197 C   0  0  0  0  0  0  0  0  0  0  0  0
  152.9954  140.7981  159.2137 C   0  0  0  0  0  0  0  0  0  0  0  0
  148.4655  134.4360  159.6083 C   0  0  0  0  0  0  0  0  0  0  0  0
  149.1280  133.9600  158.6823 O   0  0  0  0  0  0  0  0  0  0  0  0
  148.0450  131.7149  161.5387 H   0  0  0  0  0  0  0  0  0  0  0  0
  149.5209  132.2230  160.6725 H   0  0  0  0  0  0  0  0  0  0  0  0
  148.0195  131.8182  159.7590 H   0  0  0  0  0  0  0  0  0  0  0  0
  146.3758  136.0086  162.5014 H   0  0  0  0  0  0  0  0  0  0  0  0
  147.0997  137.3507  160.6563 H   0  0  0  0  0  0  0  0  0  0  0  0
  148.4412  136.1812  157.5656 H   0  0  0  0  0  0  0  0  0  0  0  0
  147.8649  137.5553  158.4642 H   0  0  0  0  0  0  0  0  0  0  0  0
  149.5695  138.7595  157.5053 H   0  0  0  0  0  0  0  0  0  0  0  0
  152.3384  138.3108  158.5244 H   0  0  0  0  0  0  0  0  0  0  0  0
  151.4539  139.9632  156.1185 H   0  0  0  0  0  0  0  0  0  0  0  0
  153.0854  139.4947  156.5262 H   0  0  0  0  0  0  0  0  0  0  0  0
  151.1227  137.1622  154.0043 H   0  0  0  0  0  0  0  0  0  0  0  0
  150.7175  138.8220  154.3881 H   0  0  0  0  0  0  0  0  0  0  0  0
  151.0640  140.0770  159.8137 H   0  0  0  0  0  0  0  0  0  0  0  0
  151.2187  141.5965  157.1720 H   0  0  0  0  0  0  0  0  0  0  0  0
  149.7508  141.1137  157.9862 H   0  0  0  0  0  0  0  0  0  0  0  0
  150.2337  143.4918  158.4056 H   0  0  0  0  0  0  0  0  0  0  0  0
  150.2126  142.5701  159.8893 H   0  0  0  0  0  0  0  0  0  0  0  0
  152.7043  143.4653  158.3606 H   0  0  0  0  0  0  0  0  0  0  0  0
  152.1482  144.1040  159.8907 H   0  0  0  0  0  0  0  0  0  0  0  0
  153.9917  142.4444  160.2070 H   0  0  0  0  0  0  0  0  0  0  0  0
  152.5214  141.9262  160.9966 H   0  0  0  0  0  0  0  0  0  0  0  0
  153.5465  140.0557  159.7908 H   0  0  0  0  0  0  0  0  0  0  0  0
  153.5603  140.9496  158.2928 H   0  0  0  0  0  0  0  0  0  0  0  0
  1  2  1  0  0  0  0
  1 25  1  0  0  0  0
  1 26  1  0  0  0  0
  1 27  1  0  0  0  0
  2 23  1  0  0  0  0
  2  3  1  0  0  0  0
  3  4  2  0  0  0  0
  3  5  1  0  0  0  0
  5  6  2  0  0  0  0
  5 28  1  0  0  0  0
  6  7  1  0  0  0  0
  6 29  1  0  0  0  0
  7  8  1  0  0  0  0
  7 23  1  0  0  0  0
  8  9  1  0  0  0  0
  8 30  1  0  0  0  0
  8 31  1  0  0  0  0
  9 10  2  0  0  0  0
  9 11  1  0  0  0  0
 11 12  1  0  0  0  0
 11 32  1  0  0  0  0
 12 13  1  0  0  0  0
 12 17  1  0  0  0  0
 12 33  1  0  0  0  0
 13 14  1  0  0  0  0
 13 34  1  0  0  0  0
 13 35  1  0  0  0  0
 14 15  1  0  0  0  0
 14 16  2  0  0  0  0
 15 36  1  0  0  0  0
 15 37  1  0  0  0  0
 17 22  1  0  0  0  0
 17 18  1  0  0  0  0
 17 38  1  0  0  0  0
 18 19  1  0  0  0  0
 18 39  1  0  0  0  0
 18 40  1  0  0  0  0
 19 20  1  0  0  0  0
 19 41  1  0  0  0  0
 19 42  1  0  0  0  0
 20 21  1  0  0  0  0
 20 43  1  0  0  0  0
 20 44  1  0  0  0  0
 21 22  1  0  0  0  0
 21 45  1  0  0  0  0
 21 46  1  0  0  0  0
 22 47  1  0  0  0  0
 22 48  1  0  0  0  0
 23 24  2  0  0  0  0
M  END
> <s_m_source_file>
AV-unprocessed.smi

> <i_m_source_file_index>
747

> <i_lp_mmshare_version>
43012

> <i_f3d_flags>
0

> <s_epik_input>
W0NIM11uMWMoPU8pW2NIXVtjSF1uKGMxPU8pW0NIMl1DKD1PKVtOSF1bQ0BIXShbQ0gyXUMoPU8pW05IMl0pW0NIXTJbQ0gyXVtDSDJdW0NIMl1bQ0gyXVtDSDJdMg==

> <s_epik_cmdline>
J2VwaWtfcHl0aG9uJywgJy1waCcsICc3LjAnLCAnLXRuJywgJzgnLCAnLW1hJywgJzIwMCcsICctbWV0YWxfYmluZGluZycsICctaW1hZScsICc8aW5maWxlLm1hZT4nLCAnLW9tYWUnLCAnPG91dGZpbGUubWFlPic=

> <r_lp_tautomer_probability>
1

> <r_epik_Ionization_Penalty>
6.11221e-08

> <r_epik_Ionization_Penalty_Charging>
1.14855e-08

> <r_epik_Ionization_Penalty_Neutral>
4.96365e-08

> <r_epik_State_Penalty>
-0

> <r_epik_Charging_Adjusted_Penalty>
1.14855e-08

> <i_epik_Tot_Q>
0

> <i_epik_Tot_abs_Q>
0

> <r_epik_Metal_State_Penalty>
-0

> <b_epik_Metal_Only>
0

> <s_lp_Force_Field>
OPLS_2005

> <r_lp_Energy>
16.3445

> <b_lp_Chiralities_Consistent>
1

> <s_lp_Variant>
AV-unprocessed.smi:747-2

> <Gold.Version>
5.8.1

> <Gold.Id.Protein>
6NUR|6NUR_protein|mol2

> <Gold.PLP.Fitness>
47.8315

> <Gold.PLP.PLP>
-41.6980

> <Gold.PLP.part.hbond>
-4.0000

> <Gold.PLP.part.metal>
0.0000

> <Gold.PLP.part.buried>
-5.9951

> <Gold.PLP.part.nonpolar>
-32.2751

> <Gold.PLP.part.repulsive>
0.2112

> <Gold.PLP.ligand.clash>
0.0000

> <Gold.PLP.ligand.torsion>
0.8957

> <Gold.PLP.Chemscore.Hbond>
2.5976

> <Gold.PLP.Chemscore.CHOScore>
0.0000

> <Gold.PLP.Chemscore.Metal>
0.0000

> <Gold.Chemscore.Hbonds>
donor molecule, donor type, donor heavy atom, donor atom, acceptor molecule, acceptor atom, score
      P1  H  6896  6907       L1    24  1.00
      P1  H  6896  6908       L1    10  0.82
      P1  H 10752 10765       L1    16  0.88

> <Gold.PLP.Chemscore.Internal.Correction>
0.1322

> <Gold.Rescore>
     Score         DG    S(hbond)    S(metal)    S(lipo)     H(rot)  DE(clash)    DE(int)     intcor
     13.95     -15.15       1.95        0.00      90.68       2.91       0.02       1.19       ----

> <Gold.Chemscore.Fitness>
13.9470

> <Gold.Chemscore.DG>
-15.1497

> <Gold.Chemscore.ZeroCoef>
-5.4800

> <Gold.Chemscore.Hbond>
1.9507

> <Gold.Chemscore.Metal>
0.0000

> <Gold.Chemscore.Lipo>
90.6810

> <Gold.Chemscore.Internal_Hbond>
0.0000

> <Gold.Chemscore.DEClash>
0.0154

> <Gold.Chemscore.DEInternal>
1.1872

> <Gold.Chemscore.Rot>
2.9122

> <Gold.Chemscore.Internal.Correction>
   9.000000E+99

> <Gold.Chemscore.Hbonds>
donor molecule, donor type, donor heavy atom, donor atom, acceptor molecule, acceptor atom, score
      P1  H  6896  6907       L1    24  0.48
      P1  H  6896  6908       L1    10  0.80
      P1  H 10752 10765       L1    16  0.87

> <Gold.Chemscore.Hbond.Weighted>
-6.5153

> <Gold.Chemscore.Metal.Weighted>
-0.0000

> <Gold.Chemscore.Lipo.Weighted>
-10.6097

> <Gold.Chemscore.Internal_Hbond.Weighted>
0.0000

> <Gold.Chemscore.DEClash.Weighted>
0.0154

> <Gold.Chemscore.DEInternal.Weighted>
1.1872

> <Gold.Chemscore.Rot.Weighted>
7.4553

> <Gold.Chemscore.Internal.Correction.Weighted>
   9.000000E+99

> <Gold.Protein.RotatedTorsions>
[ 6907 6896 6895 6894 ] final -117.44 input  -60.11 | X-H torsion
[ 7974 7965 7964 7962 ] final -119.92 input  175.53 | X-H torsion
[ 8008 7997 7996 7995 ] final    8.25 input   59.86 | X-H torsion
[ 10167 10162 10161 10158 ] final -107.75 input  -65.29 | X-H torsion
[ 10718 10713 10712 10709 ] final   70.18 input   66.30 | X-H torsion
[ 10763 10752 10751 10750 ] final -151.73 input  -60.55 | X-H torsion
[ 11005 11000 10999 10996 ] final  168.69 input  -57.11 | X-H torsion

> <Gold.Protein.ActiveResidues>
 VAL166  LYS551  ARG553  GLY616  TRP617  ASP618  TYR619  PRO620  LYS621  CYS622 
 ASP623  PHE694  ASN695  SER759  ASP760  ASP761  ALA762  ILE779  LEU786  VAL792 
 PHE793  MET794  SER795  GLU796  ALA797  LYS798  CYS799  TRP800  GLU811  SER814 

> <Gold.Protein.RotatedAtoms>
  150.8137  133.8376  159.3170 H   0  0  0  0  0  0  0  0  0  0  0  0  # atno 6907 bound_to 6896
  151.6154  135.1035  160.0100 H   0  0  0  0  0  0  0  0  0  0  0  0  # atno 6908 bound_to 6896
  152.4228  133.7105  159.6533 H   0  0  0  0  0  0  0  0  0  0  0  0  # atno 6909 bound_to 6896
  145.0572  140.8263  143.4174 H   0  0  0  0  0  0  0  0  0  0  0  0  # atno 7974 bound_to 7965
  154.7644  140.2790  155.6188 H   0  0  0  0  0  0  0  0  0  0  0  0  # atno 8008 bound_to 7997
  156.2922  140.2654  156.2357 H   0  0  0  0  0  0  0  0  0  0  0  0  # atno 8009 bound_to 7997
  154.9978  140.0373  157.2337 H   0  0  0  0  0  0  0  0  0  0  0  0  # atno 8010 bound_to 7997
  140.1735  143.4023  152.1336 H   0  0  0  0  0  0  0  0  0  0  0  0  # atno 10167 bound_to 10162
  157.6386  130.9464  150.0615 H   0  0  0  0  0  0  0  0  0  0  0  0  # atno 10718 bound_to 10713
  154.8039  135.3253  154.7480 H   0  0  0  0  0  0  0  0  0  0  0  0  # atno 10763 bound_to 10752
  153.8142  135.6893  153.4841 H   0  0  0  0  0  0  0  0  0  0  0  0  # atno 10764 bound_to 10752
  153.1773  135.4600  154.9926 H   0  0  0  0  0  0  0  0  0  0  0  0  # atno 10765 bound_to 10752
  140.2899  134.7682  157.3829 H   0  0  0  0  0  0  0  0  0  0  0  0  # atno 11005 bound_to 11000
  145.1454  139.2546  143.5468 LP  0  0  0  0  0  0  0  0  0  0  0  0  # atno 17320 bound_to 7965
  146.3522  140.1142  142.8602 LP  0  0  0  0  0  0  0  0  0  0  0  0  # atno 17321 bound_to 7965
  139.5327  144.7177  151.4999 LP  0  0  0  0  0  0  0  0  0  0  0  0  # atno 17342 bound_to 10162
  140.6566  143.8586  150.6842 LP  0  0  0  0  0  0  0  0  0  0  0  0  # atno 17343 bound_to 10162
  156.1647  130.3645  149.9250 LP  0  0  0  0  0  0  0  0  0  0  0  0  # atno 17370 bound_to 10713
  156.7240  130.9017  151.3620 LP  0  0  0  0  0  0  0  0  0  0  0  0  # atno 17371 bound_to 10713
  140.1205  134.5226  155.8188 LP  0  0  0  0  0  0  0  0  0  0  0  0  # atno 17394 bound_to 11000
  141.2148  133.6754  156.6857 LP  0  0  0  0  0  0  0  0  0  0  0  0  # atno 17395 bound_to 11000

$$$$
