AV-unprocessed.smi:1715|AV-procd|sdf|6915|dock2
  -GOLD-   22720 8113D 1   1.00000     0.00000
 Structure written by MMmdl.
 41 42  0  0  0  0  0  0  0  0  2 V2000
  146.2347  131.9337  151.3673 C   0  0  0  0  0  0  0  0  0  0  0  0
  145.2375  132.3861  152.4392 C   0  0  1  0  0  0  0  0  0  0  0  0
  144.5980  133.7433  152.0953 C   0  0  0  0  0  0  0  0  0  0  0  0
  143.5761  134.1064  153.1041 N   0  3  1  0  0  0  0  0  0  0  0  0
  143.0070  135.4565  152.8687 C   0  0  0  0  0  0  0  0  0  0  0  0
  144.0952  136.5347  152.6979 C   0  0  0  0  0  0  0  0  0  0  0  0
  143.6798  137.5729  151.7621 N   0  0  0  0  0  0  0  0  0  0  0  0
  143.2848  137.3558  150.4996 C   0  0  0  0  0  0  0  0  0  0  0  0
  143.2358  136.2374  149.9869 O   0  0  0  0  0  0  0  0  0  0  0  0
  142.9591  138.5044  149.8849 N   0  0  0  0  0  0  0  0  0  0  0  0
  142.5150  138.6698  148.5486 C   0  0  0  0  0  0  0  0  0  0  0  0
  142.6079  139.8802  147.8092 C   0  0  0  0  0  0  0  0  0  0  0  0
  142.1152  139.7392  146.5870 N   0  0  0  0  0  0  0  0  0  0  0  0
  141.7096  138.4501  146.5391 N   0  0  0  0  0  0  0  0  0  0  0  0
  141.9332  137.7606  147.7104 C   0  0  0  0  0  0  0  0  0  0  0  0
  142.5509  133.0379  153.2026 C   0  0  0  0  0  0  0  0  0  0  0  0
  143.1996  131.6705  153.4947 C   0  0  2  0  0  0  0  0  0  0  0  0
  143.7038  131.5267  154.9418 C   0  0  0  0  0  0  0  0  0  0  0  0
  144.2200  131.3931  152.5358 O   0  0  0  0  0  0  0  0  0  0  0  0
  141.2863  138.0594  145.7093 H   0  0  0  0  0  0  0  0  0  0  0  0
  147.0475  132.6519  151.2578 H   0  0  0  0  0  0  0  0  0  0  0  0
  145.7497  131.8260  150.3966 H   0  0  0  0  0  0  0  0  0  0  0  0
  146.6752  130.9709  151.6273 H   0  0  0  0  0  0  0  0  0  0  0  0
  145.7711  132.4612  153.3869 H   0  0  0  0  0  0  0  0  0  0  0  0
  145.3719  134.5112  152.0595 H   0  0  0  0  0  0  0  0  0  0  0  0
  144.1363  133.7075  151.1069 H   0  0  0  0  0  0  0  0  0  0  0  0
  142.4064  135.4358  151.9580 H   0  0  0  0  0  0  0  0  0  0  0  0
  142.3247  135.7098  153.6814 H   0  0  0  0  0  0  0  0  0  0  0  0
  144.3517  136.9999  153.6499 H   0  0  0  0  0  0  0  0  0  0  0  0
  145.0105  136.0819  152.3162 H   0  0  0  0  0  0  0  0  0  0  0  0
  143.6870  138.5240  152.1014 H   0  0  0  0  0  0  0  0  0  0  0  0
  143.0390  139.3515  150.4282 H   0  0  0  0  0  0  0  0  0  0  0  0
  143.0086  140.8365  148.1122 H   0  0  0  0  0  0  0  0  0  0  0  0
  141.6649  136.7215  147.8299 H   0  0  0  0  0  0  0  0  0  0  0  0
  141.8221  133.2660  153.9793 H   0  0  0  0  0  0  0  0  0  0  0  0
  142.0000  132.9866  152.2620 H   0  0  0  0  0  0  0  0  0  0  0  0
  142.4366  130.9048  153.3511 H   0  0  0  0  0  0  0  0  0  0  0  0
  142.8772  131.6080  155.6479 H   0  0  0  0  0  0  0  0  0  0  0  0
  144.4308  132.2939  155.2068 H   0  0  0  0  0  0  0  0  0  0  0  0
  144.1720  130.5543  155.0954 H   0  0  0  0  0  0  0  0  0  0  0  0
  144.0548  134.1440  153.9929 H   0  0  0  0  0  0  0  0  0  0  0  0
  1  2  1  0  0  0  0
  1 21  1  0  0  0  0
  1 22  1  0  0  0  0
  1 23  1  0  0  0  0
  2 19  1  0  0  0  0
  2  3  1  0  0  0  0
  2 24  1  0  0  0  0
  3  4  1  0  0  0  0
  3 25  1  0  0  0  0
  3 26  1  0  0  0  0
  4  5  1  0  0  0  0
  4 16  1  0  0  0  0
  4 41  1  0  0  0  0
  5  6  1  0  0  0  0
  5 27  1  0  0  0  0
  5 28  1  0  0  0  0
  6  7  1  0  0  0  0
  6 29  1  0  0  0  0
  6 30  1  0  0  0  0
  7  8  1  0  0  0  0
  7 31  1  0  0  0  0
  8  9  2  0  0  0  0
  8 10  1  0  0  0  0
 10 11  1  0  0  0  0
 10 32  1  0  0  0  0
 11 15  2  0  0  0  0
 11 12  1  0  0  0  0
 12 13  2  0  0  0  0
 12 33  1  0  0  0  0
 13 14  1  0  0  0  0
 14 20  1  0  0  0  0
 14 15  1  0  0  0  0
 15 34  1  0  0  0  0
 16 17  1  0  0  0  0
 16 35  1  0  0  0  0
 16 36  1  0  0  0  0
 17 18  1  0  0  0  0
 17 19  1  0  0  0  0
 17 37  1  0  0  0  0
 18 38  1  0  0  0  0
 18 39  1  0  0  0  0
 18 40  1  0  0  0  0
M  CHG  1   4   1
M  END
> <s_m_source_file>
AV-unprocessed.smi

> <i_m_source_file_index>
1715

> <i_lp_mmshare_version>
43012

> <i_f3d_flags>
0

> <s_epik_input>
W0NIM11bQ0BASF0xW0NIMl1OKFtDSDJdW0NASF0oTzEpW0NIM10pW0NIMl1bQ0gyXVtOSF1DKD1PKVtOSF1jMltjSF1uW25IXVtjSF0y

> <s_epik_cmdline>
J2VwaWtfcHl0aG9uJywgJy1waCcsICc3LjAnLCAnLXRuJywgJzgnLCAnLW1hJywgJzIwMCcsICctbWV0YWxfYmluZGluZycsICctaW1hZScsICc8aW5maWxlLm1hZT4nLCAnLW9tYWUnLCAnPG91dGZpbGUubWFlPic=

> <r_lp_tautomer_probability>
0.5

> <r_epik_Ionization_Penalty>
0.646007

> <r_epik_Ionization_Penalty_Charging>
0.645968

> <r_epik_Ionization_Penalty_Neutral>
3.91671e-05

> <r_epik_State_Penalty>
0.664063

> <r_epik_Charging_Adjusted_Penalty>
1.31003

> <i_epik_Tot_Q>
1

> <i_epik_Tot_abs_Q>
1

> <r_epik_Metal_State_Penalty>
0.664064

> <b_epik_Metal_Only>
0

> <s_lp_Force_Field>
OPLS_2005

> <r_lp_Energy>
20.0624

> <b_lp_Chiralities_Consistent>
1

> <s_lp_Variant>
AV-unprocessed.smi:1715-7

> <Gold.Version>
5.8.1

> <Gold.Id.Protein>
6NUR|6NUR_protein|mol2

> <Gold.PLP.Fitness>
45.2711

> <Gold.PLP.PLP>
-28.3292

> <Gold.PLP.part.hbond>
-4.0000

> <Gold.PLP.part.metal>
0.0000

> <Gold.PLP.part.buried>
-5.1102

> <Gold.PLP.part.nonpolar>
-20.7748

> <Gold.PLP.part.repulsive>
0.4085

> <Gold.PLP.ligand.clash>
0.0000

> <Gold.PLP.ligand.torsion>
0.3556

> <Gold.PLP.Chemscore.Hbond>
3.9920

> <Gold.PLP.Chemscore.CHOScore>
1.8830

> <Gold.PLP.Chemscore.Metal>
0.0000

> <Gold.Chemscore.Hbonds>
donor molecule, donor type, donor heavy atom, donor atom, acceptor molecule, acceptor atom, score
      L1  H     7    31       P1 10175  1.00

> <Gold.PLP.Chemscore.Internal.Correction>
0.0279

> <Gold.Rescore>
     Score         DG    S(hbond)    S(metal)    S(lipo)     H(rot)  DE(clash)    DE(int)     intcor
     16.57     -17.71       2.95        0.00      56.67       1.67       0.04       1.10       ----

> <Gold.Chemscore.Fitness>
16.5664

> <Gold.Chemscore.DG>
-17.7070

> <Gold.Chemscore.ZeroCoef>
-5.4800

> <Gold.Chemscore.Hbond>
2.9534

> <Gold.Chemscore.Metal>
0.0000

> <Gold.Chemscore.Lipo>
56.6701

> <Gold.Chemscore.Internal_Hbond>
0.0000

> <Gold.Chemscore.DEClash>
0.0445

> <Gold.Chemscore.DEInternal>
1.0961

> <Gold.Chemscore.Rot>
1.6671

> <Gold.Chemscore.Internal.Correction>
   9.000000E+99

> <Gold.Chemscore.Hbonds>
donor molecule, donor type, donor heavy atom, donor atom, acceptor molecule, acceptor atom, score
      L1  H     7    31       P1 10175  0.99

> <Gold.Chemscore.Hbond.Weighted>
-9.8643

> <Gold.Chemscore.Metal.Weighted>
-0.0000

> <Gold.Chemscore.Lipo.Weighted>
-6.6304

> <Gold.Chemscore.Internal_Hbond.Weighted>
0.0000

> <Gold.Chemscore.DEClash.Weighted>
0.0445

> <Gold.Chemscore.DEInternal.Weighted>
1.0961

> <Gold.Chemscore.Rot.Weighted>
4.2677

> <Gold.Chemscore.Internal.Correction.Weighted>
   9.000000E+99

> <Gold.Protein.RotatedTorsions>
[ 6907 6896 6895 6894 ] final    5.69 input  -60.11 | X-H torsion
[ 7974 7965 7964 7962 ] final  -16.46 input  175.53 | X-H torsion
[ 8008 7997 7996 7995 ] final  156.64 input   59.86 | X-H torsion
[ 10167 10162 10161 10158 ] final   20.72 input  -65.29 | X-H torsion
[ 10718 10713 10712 10709 ] final  122.85 input   66.30 | X-H torsion
[ 10763 10752 10751 10750 ] final  176.40 input  -60.55 | X-H torsion
[ 11005 11000 10999 10996 ] final -168.15 input  -57.11 | X-H torsion

> <Gold.Protein.ActiveResidues>
 VAL166  LYS551  ARG553  GLY616  TRP617  ASP618  TYR619  PRO620  LYS621  CYS622 
 ASP623  PHE694  ASN695  SER759  ASP760  ASP761  ALA762  ILE779  LEU786  VAL792 
 PHE793  MET794  SER795  GLU796  ALA797  LYS798  CYS799  TRP800  GLU811  SER814 

> <Gold.Protein.RotatedAtoms>
  151.6617  135.0988  160.0180 H   0  0  0  0  0  0  0  0  0  0  0  0  # atno 6907 bound_to 6896
  152.3943  133.6720  159.6272 H   0  0  0  0  0  0  0  0  0  0  0  0  # atno 6908 bound_to 6896
  150.7853  133.8818  159.3329 H   0  0  0  0  0  0  0  0  0  0  0  0  # atno 6909 bound_to 6896
  146.1986  140.3640  142.8431 H   0  0  0  0  0  0  0  0  0  0  0  0  # atno 7974 bound_to 7965
  156.2410  140.1907  156.6987 H   0  0  0  0  0  0  0  0  0  0  0  0  # atno 8008 bound_to 7997
  154.6198  140.0610  156.9627 H   0  0  0  0  0  0  0  0  0  0  0  0  # atno 8009 bound_to 7997
  155.1880  140.3282  155.4366 H   0  0  0  0  0  0  0  0  0  0  0  0  # atno 8010 bound_to 7997
  140.5481  143.9557  150.6561 H   0  0  0  0  0  0  0  0  0  0  0  0  # atno 10167 bound_to 10162
  157.5711  131.1083  150.8366 H   0  0  0  0  0  0  0  0  0  0  0  0  # atno 10718 bound_to 10713
  154.4806  135.2774  155.1574 H   0  0  0  0  0  0  0  0  0  0  0  0  # atno 10763 bound_to 10752
  154.3285  135.6195  153.5544 H   0  0  0  0  0  0  0  0  0  0  0  0  # atno 10764 bound_to 10752
  152.9875  135.5760  154.5206 H   0  0  0  0  0  0  0  0  0  0  0  0  # atno 10765 bound_to 10752
  140.5452  134.5483  157.5109 H   0  0  0  0  0  0  0  0  0  0  0  0  # atno 11005 bound_to 11000
  144.8634  140.7172  143.6093 LP  0  0  0  0  0  0  0  0  0  0  0  0  # atno 17320 bound_to 7965
  145.3560  139.1694  143.4409 LP  0  0  0  0  0  0  0  0  0  0  0  0  # atno 17321 bound_to 7965
  140.2976  143.3282  152.1003 LP  0  0  0  0  0  0  0  0  0  0  0  0  # atno 17342 bound_to 10162
  139.5016  144.6717  151.6227 LP  0  0  0  0  0  0  0  0  0  0  0  0  # atno 17343 bound_to 10162
  156.8837  130.5188  149.5289 LP  0  0  0  0  0  0  0  0  0  0  0  0  # atno 17370 bound_to 10713
  156.0756  130.5779  150.9467 LP  0  0  0  0  0  0  0  0  0  0  0  0  # atno 17371 bound_to 10713
  139.9483  134.7662  156.0509 LP  0  0  0  0  0  0  0  0  0  0  0  0  # atno 17394 bound_to 11000
  141.1204  133.6615  156.3199 LP  0  0  0  0  0  0  0  0  0  0  0  0  # atno 17395 bound_to 11000

$$$$
