AV-unprocessed.smi:3224|AV-procd|sdf|12309|dock2
  -GOLD-   2272018153D 1   1.00000     0.00000
 Structure written by MMmdl.
 31 32  0  0  0  0  0  0  0  0  1 V2000
  144.5917  132.3792  150.0727 C   0  0  0  0  0  0  0  0  0  0  0  0
  145.0800  132.5218  151.5306 C   0  0  0  0  0  0  0  0  0  0  0  0
  143.9971  133.0525  152.3731 N   0  0  0  0  0  0  0  0  0  0  0  0
  143.3661  134.2353  152.2790 C   0  0  0  0  0  0  0  0  0  0  0  0
  143.6199  135.0862  151.4264 O   0  0  0  0  0  0  0  0  0  0  0  0
  142.4283  134.3552  153.2351 N   0  0  0  0  0  0  0  0  0  0  0  0
  141.5711  135.4573  153.4916 C   0  0  0  0  0  0  0  0  0  0  0  0
  140.3183  135.3489  153.9496 N   0  0  0  0  0  0  0  0  0  0  0  0
  139.7065  136.5955  154.1037 C   0  0  0  0  0  0  0  0  0  0  0  0
  140.5140  137.6500  153.7562 C   0  0  0  0  0  0  0  0  0  0  0  0
  142.0845  137.1160  153.2193 S   0  0  0  0  0  0  0  0  0  0  0  0
  145.6130  131.1698  152.0644 C   0  0  0  0  0  0  0  0  0  0  0  0
  146.3123  131.3233  153.4268 C   0  0  0  0  0  0  0  0  0  0  0  0
  147.3743  132.2642  153.3218 O   0  0  0  0  0  0  0  0  0  0  0  0
  146.9278  133.5657  152.9609 C   0  0  0  0  0  0  0  0  0  0  0  0
  146.2506  133.5277  151.5776 C   0  0  0  0  0  0  0  0  0  0  0  0
  145.4043  132.0729  149.4134 H   0  0  0  0  0  0  0  0  0  0  0  0
  144.1998  133.3225  149.6911 H   0  0  0  0  0  0  0  0  0  0  0  0
  143.8059  131.6303  149.9750 H   0  0  0  0  0  0  0  0  0  0  0  0
  143.6939  132.4405  153.1164 H   0  0  0  0  0  0  0  0  0  0  0  0
  142.3228  133.5703  153.8607 H   0  0  0  0  0  0  0  0  0  0  0  0
  138.6904  136.6405  154.4668 H   0  0  0  0  0  0  0  0  0  0  0  0
  140.2804  138.7038  153.7831 H   0  0  0  0  0  0  0  0  0  0  0  0
  144.8185  130.4274  152.1357 H   0  0  0  0  0  0  0  0  0  0  0  0
  146.3329  130.7615  151.3537 H   0  0  0  0  0  0  0  0  0  0  0  0
  145.6082  131.6343  154.1998 H   0  0  0  0  0  0  0  0  0  0  0  0
  146.7253  130.3656  153.7436 H   0  0  0  0  0  0  0  0  0  0  0  0
  146.2505  133.9536  153.7231 H   0  0  0  0  0  0  0  0  0  0  0  0
  147.7880  134.2347  152.9361 H   0  0  0  0  0  0  0  0  0  0  0  0
  147.0010  133.2514  150.8353 H   0  0  0  0  0  0  0  0  0  0  0  0
  145.9082  134.5268  151.3035 H   0  0  0  0  0  0  0  0  0  0  0  0
  1  2  1  0  0  0  0
  1 17  1  0  0  0  0
  1 18  1  0  0  0  0
  1 19  1  0  0  0  0
  2 16  1  0  0  0  0
  2  3  1  0  0  0  0
  2 12  1  0  0  0  0
  3  4  1  0  0  0  0
  3 20  1  0  0  0  0
  4  5  2  0  0  0  0
  4  6  1  0  0  0  0
  6  7  1  0  0  0  0
  6 21  1  0  0  0  0
  7 11  1  0  0  0  0
  7  8  2  0  0  0  0
  8  9  1  0  0  0  0
  9 10  2  0  0  0  0
  9 22  1  0  0  0  0
 10 11  1  0  0  0  0
 10 23  1  0  0  0  0
 12 13  1  0  0  0  0
 12 24  1  0  0  0  0
 12 25  1  0  0  0  0
 13 14  1  0  0  0  0
 13 26  1  0  0  0  0
 13 27  1  0  0  0  0
 14 15  1  0  0  0  0
 15 16  1  0  0  0  0
 15 28  1  0  0  0  0
 15 29  1  0  0  0  0
 16 30  1  0  0  0  0
 16 31  1  0  0  0  0
M  END
> <s_m_source_file>
AV-unprocessed.smi

> <i_m_source_file_index>
3224

> <i_lp_mmshare_version>
43012

> <i_f3d_flags>
0

> <s_epik_input>
W0NIMl0xW0NIMl1PW0NIMl1bQ0gyXUMxKFtDSDNdKVtOSF1DKD1PKVtOSF1jMm5bY0hdW2NIXXMy

> <s_epik_cmdline>
J2VwaWtfcHl0aG9uJywgJy1waCcsICc3LjAnLCAnLXRuJywgJzgnLCAnLW1hJywgJzIwMCcsICctbWV0YWxfYmluZGluZycsICctaW1hZScsICc8aW5maWxlLm1hZT4nLCAnLW9tYWUnLCAnPG91dGZpbGUubWFlPic=

> <r_lp_tautomer_probability>
1

> <r_epik_Ionization_Penalty>
0.000150899

> <r_epik_Ionization_Penalty_Charging>
0

> <r_epik_Ionization_Penalty_Neutral>
0.000150899

> <r_epik_State_Penalty>
-0

> <r_epik_Charging_Adjusted_Penalty>
0

> <i_epik_Tot_Q>
0

> <i_epik_Tot_abs_Q>
0

> <r_epik_Metal_State_Penalty>
0.0306338

> <b_epik_Metal_Only>
0

> <s_lp_Force_Field>
OPLS_2005

> <r_lp_Energy>
7.54186

> <b_lp_Chiralities_Consistent>
1

> <s_lp_Variant>
AV-unprocessed.smi:3224-1

> <Gold.Version>
5.8.1

> <Gold.Id.Protein>
6NUR|6NUR_protein|mol2

> <Gold.PLP.Fitness>
37.5521

> <Gold.PLP.PLP>
-29.8684

> <Gold.PLP.part.hbond>
-3.8396

> <Gold.PLP.part.metal>
0.0000

> <Gold.PLP.part.buried>
-7.5366

> <Gold.PLP.part.nonpolar>
-19.7445

> <Gold.PLP.part.repulsive>
0.5142

> <Gold.PLP.ligand.clash>
0.0000

> <Gold.PLP.ligand.torsion>
0.2508

> <Gold.PLP.Chemscore.Hbond>
2.7263

> <Gold.PLP.Chemscore.CHOScore>
0.0000

> <Gold.PLP.Chemscore.Metal>
0.0000

> <Gold.Chemscore.Hbonds>
donor molecule, donor type, donor heavy atom, donor atom, acceptor molecule, acceptor atom, score
      L1  H     3    20       P1 10957  0.71
      L1  H     6    21       P1 10957  0.96
      P1  H 11000 11005       L1     8  1.00

> <Gold.PLP.Chemscore.Internal.Correction>
0.0067

> <Gold.Rescore>
     Score         DG    S(hbond)    S(metal)    S(lipo)     H(rot)  DE(clash)    DE(int)     intcor
     15.93     -16.22       2.18        0.00      51.53       1.00       0.04       0.25       ----

> <Gold.Chemscore.Fitness>
15.9277

> <Gold.Chemscore.DG>
-16.2212

> <Gold.Chemscore.ZeroCoef>
-5.4800

> <Gold.Chemscore.Hbond>
2.1774

> <Gold.Chemscore.Metal>
0.0000

> <Gold.Chemscore.Lipo>
51.5285

> <Gold.Chemscore.Internal_Hbond>
0.0000

> <Gold.Chemscore.DEClash>
0.0442

> <Gold.Chemscore.DEInternal>
0.2493

> <Gold.Chemscore.Rot>
1.0000

> <Gold.Chemscore.Internal.Correction>
   9.000000E+99

> <Gold.Chemscore.Hbonds>
donor molecule, donor type, donor heavy atom, donor atom, acceptor molecule, acceptor atom, score
      L1  H     3    20       P1 10957  0.08
      L1  H     6    21       P1 10957  0.91
      P1  H 11000 11005       L1     8  0.46

> <Gold.Chemscore.Hbond.Weighted>
-7.2724

> <Gold.Chemscore.Metal.Weighted>
-0.0000

> <Gold.Chemscore.Lipo.Weighted>
-6.0288

> <Gold.Chemscore.Internal_Hbond.Weighted>
0.0000

> <Gold.Chemscore.DEClash.Weighted>
0.0442

> <Gold.Chemscore.DEInternal.Weighted>
0.2493

> <Gold.Chemscore.Rot.Weighted>
2.5600

> <Gold.Chemscore.Internal.Correction.Weighted>
   9.000000E+99

> <Gold.Protein.RotatedTorsions>
[ 6907 6896 6895 6894 ] final   82.35 input  -60.11 | X-H torsion
[ 7974 7965 7964 7962 ] final  -16.60 input  175.53 | X-H torsion
[ 8008 7997 7996 7995 ] final -109.47 input   59.86 | X-H torsion
[ 10167 10162 10161 10158 ] final   88.01 input  -65.29 | X-H torsion
[ 10718 10713 10712 10709 ] final   81.73 input   66.30 | X-H torsion
[ 10763 10752 10751 10750 ] final -109.59 input  -60.55 | X-H torsion
[ 11005 11000 10999 10996 ] final   42.23 input  -57.11 | X-H torsion

> <Gold.Protein.ActiveResidues>
 VAL166  LYS551  ARG553  GLY616  TRP617  ASP618  TYR619  PRO620  LYS621  CYS622 
 ASP623  PHE694  ASN695  SER759  ASP760  ASP761  ALA762  ILE779  LEU786  VAL792 
 PHE793  MET794  SER795  GLU796  ALA797  LYS798  CYS799  TRP800  GLU811  SER814 

> <Gold.Protein.RotatedAtoms>
  152.5296  134.3064  159.9097 H   0  0  0  0  0  0  0  0  0  0  0  0  # atno 6907 bound_to 6896
  151.3014  133.4114  159.2647 H   0  0  0  0  0  0  0  0  0  0  0  0  # atno 6908 bound_to 6896
  151.0116  134.9417  159.8067 H   0  0  0  0  0  0  0  0  0  0  0  0  # atno 6909 bound_to 6896
  146.1980  140.3659  142.8433 H   0  0  0  0  0  0  0  0  0  0  0  0  # atno 7974 bound_to 7965
  154.9598  140.0399  157.2184 H   0  0  0  0  0  0  0  0  0  0  0  0  # atno 8008 bound_to 7997
  154.7900  140.2834  155.5977 H   0  0  0  0  0  0  0  0  0  0  0  0  # atno 8009 bound_to 7997
  156.2948  140.2575  156.2745 H   0  0  0  0  0  0  0  0  0  0  0  0  # atno 8010 bound_to 7997
  139.8715  144.6490  150.8944 H   0  0  0  0  0  0  0  0  0  0  0  0  # atno 10167 bound_to 10162
  157.6840  131.0017  150.2270 H   0  0  0  0  0  0  0  0  0  0  0  0  # atno 10718 bound_to 10713
  154.8201  135.4595  154.0756 H   0  0  0  0  0  0  0  0  0  0  0  0  # atno 10763 bound_to 10752
  153.2116  135.6882  153.8113 H   0  0  0  0  0  0  0  0  0  0  0  0  # atno 10764 bound_to 10752
  153.7563  135.3290  155.3306 H   0  0  0  0  0  0  0  0  0  0  0  0  # atno 10765 bound_to 10752
  140.1759  134.4164  155.8229 H   0  0  0  0  0  0  0  0  0  0  0  0  # atno 11005 bound_to 11000
  144.8622  140.7155  143.6100 LP  0  0  0  0  0  0  0  0  0  0  0  0  # atno 17320 bound_to 7965
  145.3579  139.1689  143.4399 LP  0  0  0  0  0  0  0  0  0  0  0  0  # atno 17321 bound_to 7965
  140.7760  143.3659  151.1739 LP  0  0  0  0  0  0  0  0  0  0  0  0  # atno 17342 bound_to 10162
  139.7279  143.9119  152.3009 LP  0  0  0  0  0  0  0  0  0  0  0  0  # atno 17343 bound_to 10162
  156.2910  130.3745  149.7841 LP  0  0  0  0  0  0  0  0  0  0  0  0  # atno 17370 bound_to 10713
  156.5501  130.8338  151.3297 LP  0  0  0  0  0  0  0  0  0  0  0  0  # atno 17371 bound_to 10713
  141.2220  133.6977  156.7845 LP  0  0  0  0  0  0  0  0  0  0  0  0  # atno 17394 bound_to 11000
  140.2324  134.8676  157.3490 LP  0  0  0  0  0  0  0  0  0  0  0  0  # atno 17395 bound_to 11000

$$$$
