AV-unprocessed.smi:2267|AV-procd|sdf|9148|dock4
  -GOLD-   2272012353D 1   1.00000     0.00000
 Structure written by MMmdl.
 41 42  0  0  0  0  0  0  0  0  1 V2000
  151.5635  145.2761  158.6992 C   0  0  0  0  0  0  0  0  0  0  0  0
  151.7372  143.7745  158.6021 C   0  0  0  0  0  0  0  0  0  0  0  0
  152.4676  143.0780  159.5857 C   0  0  0  0  0  0  0  0  0  0  0  0
  152.6226  141.6831  159.4886 C   0  0  0  0  0  0  0  0  0  0  0  0
  152.0488  140.9839  158.4099 C   0  0  0  0  0  0  0  0  0  0  0  0
  151.3148  141.6646  157.4171 C   0  0  0  0  0  0  0  0  0  0  0  0
  150.7886  140.9018  156.3964 O   0  0  0  0  0  0  0  0  0  0  0  0
  149.8294  141.4984  155.5334 C   0  0  0  0  0  0  0  0  0  0  0  0
  149.1575  140.3952  154.6979 C   0  0  2  0  0  0  0  0  0  0  0  0
  150.1557  139.8348  153.8674 O   0  0  0  0  0  0  0  0  0  0  0  0
  148.0441  140.9596  153.7862 C   0  0  0  0  0  0  0  0  0  0  0  0
  146.9927  139.9651  153.5119 N   0  0  0  0  0  0  0  0  0  0  0  0
  146.9344  139.4666  152.2000 C   0  0  0  0  0  0  0  0  0  0  0  0
  146.0520  138.5913  151.8443 N   0  0  0  0  0  0  0  0  0  0  0  0
  145.1272  138.1144  152.7777 C   0  0  0  0  0  0  0  0  0  0  0  0
  144.1368  137.0891  152.2548 C   0  0  0  0  0  0  0  0  0  0  0  0
  145.1344  138.5515  154.0667 C   0  0  0  0  0  0  0  0  0  0  0  0
  144.1542  138.0656  155.1272 C   0  0  0  0  0  0  0  0  0  0  0  0
  146.1343  139.5467  154.4866 C   0  0  0  0  0  0  0  0  0  0  0  0
  146.2033  139.9804  155.6384 O   0  0  0  0  0  0  0  0  0  0  0  0
  151.1625  143.0706  157.5236 C   0  0  0  0  0  0  0  0  0  0  0  0
  152.2306  145.7053  159.4474 H   0  0  0  0  0  0  0  0  0  0  0  0
  150.5374  145.5189  158.9754 H   0  0  0  0  0  0  0  0  0  0  0  0
  151.7826  145.7476  157.7407 H   0  0  0  0  0  0  0  0  0  0  0  0
  152.9101  143.6089  160.4159 H   0  0  0  0  0  0  0  0  0  0  0  0
  153.1821  141.1483  160.2418 H   0  0  0  0  0  0  0  0  0  0  0  0
  152.1734  139.9129  158.3434 H   0  0  0  0  0  0  0  0  0  0  0  0
  149.0801  141.9934  156.1534 H   0  0  0  0  0  0  0  0  0  0  0  0
  150.2800  142.2542  154.8875 H   0  0  0  0  0  0  0  0  0  0  0  0
  148.7547  139.6306  155.3635 H   0  0  0  0  0  0  0  0  0  0  0  0
  149.8164  139.7738  152.9876 H   0  0  0  0  0  0  0  0  0  0  0  0
  147.5770  141.8198  154.2693 H   0  0  0  0  0  0  0  0  0  0  0  0
  148.4710  141.3717  152.8692 H   0  0  0  0  0  0  0  0  0  0  0  0
  147.6820  139.8653  151.5121 H   0  0  0  0  0  0  0  0  0  0  0  0
  143.1143  137.4497  152.3712 H   0  0  0  0  0  0  0  0  0  0  0  0
  144.2398  136.1483  152.7965 H   0  0  0  0  0  0  0  0  0  0  0  0
  144.2997  136.8839  151.1959 H   0  0  0  0  0  0  0  0  0  0  0  0
  144.6940  137.5959  155.9499 H   0  0  0  0  0  0  0  0  0  0  0  0
  143.4368  137.3393  154.7491 H   0  0  0  0  0  0  0  0  0  0  0  0
  143.5881  138.9064  155.5293 H   0  0  0  0  0  0  0  0  0  0  0  0
  150.6069  143.6324  156.7883 H   0  0  0  0  0  0  0  0  0  0  0  0
  1  2  1  0  0  0  0
  1 22  1  0  0  0  0
  1 23  1  0  0  0  0
  1 24  1  0  0  0  0
  2 21  1  0  0  0  0
  2  3  2  0  0  0  0
  3  4  1  0  0  0  0
  3 25  1  0  0  0  0
  4  5  2  0  0  0  0
  4 26  1  0  0  0  0
  5  6  1  0  0  0  0
  5 27  1  0  0  0  0
  6  7  1  0  0  0  0
  6 21  2  0  0  0  0
  7  8  1  0  0  0  0
  8  9  1  0  0  0  0
  8 28  1  0  0  0  0
  8 29  1  0  0  0  0
  9 10  1  0  0  0  0
  9 11  1  0  0  0  0
  9 30  1  0  0  0  0
 10 31  1  0  0  0  0
 11 12  1  0  0  0  0
 11 32  1  0  0  0  0
 11 33  1  0  0  0  0
 12 19  1  0  0  0  0
 12 13  1  0  0  0  0
 13 14  2  0  0  0  0
 13 34  1  0  0  0  0
 14 15  1  0  0  0  0
 15 16  1  0  0  0  0
 15 17  2  0  0  0  0
 16 35  1  0  0  0  0
 16 36  1  0  0  0  0
 16 37  1  0  0  0  0
 17 18  1  0  0  0  0
 17 19  1  0  0  0  0
 18 38  1  0  0  0  0
 18 39  1  0  0  0  0
 18 40  1  0  0  0  0
 19 20  2  0  0  0  0
 21 41  1  0  0  0  0
M  END
> <s_m_source_file>
AV-unprocessed.smi

> <i_m_source_file_index>
2267

> <i_lp_mmshare_version>
43012

> <i_f3d_flags>
0

> <s_epik_input>
W0NIM11jMVtjSF1bY0hdW2NIXWMoW2NIXTEpT1tDSDJdW0NASF0oW09IXSlbQ0gyXW4yW2NIXW5jKFtDSDNdKWMoW0NIM10pYzI9Tw==

> <s_epik_cmdline>
J2VwaWtfcHl0aG9uJywgJy1waCcsICc3LjAnLCAnLXRuJywgJzgnLCAnLW1hJywgJzIwMCcsICctbWV0YWxfYmluZGluZycsICctaW1hZScsICc8aW5maWxlLm1hZT4nLCAnLW9tYWUnLCAnPG91dGZpbGUubWFlPic=

> <r_lp_tautomer_probability>
1

> <r_epik_Ionization_Penalty>
3.72236e-05

> <r_epik_Ionization_Penalty_Charging>
8.38864e-08

> <r_epik_Ionization_Penalty_Neutral>
3.71397e-05

> <r_epik_State_Penalty>
-0

> <r_epik_Charging_Adjusted_Penalty>
8.38864e-08

> <i_epik_Tot_Q>
0

> <i_epik_Tot_abs_Q>
0

> <r_epik_Metal_State_Penalty>
-0

> <b_epik_Metal_Only>
0

> <s_lp_Force_Field>
OPLS_2005

> <r_lp_Energy>
23.9214

> <b_lp_Chiralities_Consistent>
1

> <s_lp_Variant>
AV-unprocessed.smi:2267-1

> <Gold.Version>
5.8.1

> <Gold.Id.Protein>
6NUR|6NUR_protein|mol2

> <Gold.PLP.Fitness>
46.1327

> <Gold.PLP.PLP>
-38.5846

> <Gold.PLP.part.hbond>
-2.0000

> <Gold.PLP.part.metal>
0.0000

> <Gold.PLP.part.buried>
-3.9379

> <Gold.PLP.part.nonpolar>
-34.4304

> <Gold.PLP.part.repulsive>
0.3869

> <Gold.PLP.ligand.clash>
0.0000

> <Gold.PLP.ligand.torsion>
0.6376

> <Gold.PLP.Chemscore.Hbond>
1.9280

> <Gold.PLP.Chemscore.CHOScore>
0.9991

> <Gold.PLP.Chemscore.Metal>
0.0000

> <Gold.Chemscore.Hbonds>
donor molecule, donor type, donor heavy atom, donor atom, acceptor molecule, acceptor atom, score
      L1  H    10    31       P1  7957  1.00
      P1  H  7989  7998       L1    10  0.79
      L1  C    13    34       P1  7957  0.73

> <Gold.PLP.Chemscore.Internal.Correction>
0.0419

> <Gold.Rescore>
     Score         DG    S(hbond)    S(metal)    S(lipo)     H(rot)  DE(clash)    DE(int)     intcor
     15.94     -16.74       1.55        0.00     103.44       2.35       0.09       0.71       ----

> <Gold.Chemscore.Fitness>
15.9442

> <Gold.Chemscore.DG>
-16.7403

> <Gold.Chemscore.ZeroCoef>
-5.4800

> <Gold.Chemscore.Hbond>
1.5482

> <Gold.Chemscore.Metal>
0.0000

> <Gold.Chemscore.Lipo>
103.4422

> <Gold.Chemscore.Internal_Hbond>
0.0000

> <Gold.Chemscore.DEClash>
0.0907

> <Gold.Chemscore.DEInternal>
0.7054

> <Gold.Chemscore.Rot>
2.3490

> <Gold.Chemscore.Internal.Correction>
   9.000000E+99

> <Gold.Chemscore.Hbonds>
donor molecule, donor type, donor heavy atom, donor atom, acceptor molecule, acceptor atom, score
      L1  H    10    31       P1  7957  1.00
      P1  H  7989  7998       L1    10  0.13

> <Gold.Chemscore.Hbond.Weighted>
-5.1711

> <Gold.Chemscore.Metal.Weighted>
-0.0000

> <Gold.Chemscore.Lipo.Weighted>
-12.1027

> <Gold.Chemscore.Internal_Hbond.Weighted>
0.0000

> <Gold.Chemscore.DEClash.Weighted>
0.0907

> <Gold.Chemscore.DEInternal.Weighted>
0.7054

> <Gold.Chemscore.Rot.Weighted>
6.0136

> <Gold.Chemscore.Internal.Correction.Weighted>
   9.000000E+99

> <Gold.Protein.RotatedTorsions>
[ 6907 6896 6895 6894 ] final   24.05 input  -60.11 | X-H torsion
[ 7974 7965 7964 7962 ] final  -96.33 input  175.53 | X-H torsion
[ 8008 7997 7996 7995 ] final  -11.39 input   59.86 | X-H torsion
[ 10167 10162 10161 10158 ] final -165.86 input  -65.29 | X-H torsion
[ 10718 10713 10712 10709 ] final   83.78 input   66.30 | X-H torsion
[ 10763 10752 10751 10750 ] final  -96.64 input  -60.55 | X-H torsion
[ 11005 11000 10999 10996 ] final   22.74 input  -57.11 | X-H torsion

> <Gold.Protein.ActiveResidues>
 VAL166  LYS551  ARG553  GLY616  TRP617  ASP618  TYR619  PRO620  LYS621  CYS622 
 ASP623  PHE694  ASN695  SER759  ASP760  ASP761  ALA762  ILE779  LEU786  VAL792 
 PHE793  MET794  SER795  GLU796  ALA797  LYS798  CYS799  TRP800  GLU811  SER814 

> <Gold.Protein.RotatedAtoms>
  151.9516  135.0166  160.0542 H   0  0  0  0  0  0  0  0  0  0  0  0  # atno 6907 bound_to 6896
  152.1948  133.4794  159.5035 H   0  0  0  0  0  0  0  0  0  0  0  0  # atno 6908 bound_to 6896
  150.6942  134.1583  159.4209 H   0  0  0  0  0  0  0  0  0  0  0  0  # atno 6909 bound_to 6896
  145.3483  140.9472  143.2569 H   0  0  0  0  0  0  0  0  0  0  0  0  # atno 7974 bound_to 7965
  154.5469  140.2304  155.8548 H   0  0  0  0  0  0  0  0  0  0  0  0  # atno 8008 bound_to 7997
  156.1911  140.3077  155.9296 H   0  0  0  0  0  0  0  0  0  0  0  0  # atno 8009 bound_to 7997
  155.3147  140.0437  157.3027 H   0  0  0  0  0  0  0  0  0  0  0  0  # atno 8010 bound_to 7997
  139.6154  144.0731  152.1882 H   0  0  0  0  0  0  0  0  0  0  0  0  # atno 10167 bound_to 10162
  157.6885  131.0105  150.2574 H   0  0  0  0  0  0  0  0  0  0  0  0  # atno 10718 bound_to 10713
  154.7257  135.5076  153.8883 H   0  0  0  0  0  0  0  0  0  0  0  0  # atno 10763 bound_to 10752
  153.0903  135.6657  153.9876 H   0  0  0  0  0  0  0  0  0  0  0  0  # atno 10764 bound_to 10752
  153.9689  135.3040  155.3408 H   0  0  0  0  0  0  0  0  0  0  0  0  # atno 10765 bound_to 10752
  140.3773  134.1958  155.7664 H   0  0  0  0  0  0  0  0  0  0  0  0  # atno 11005 bound_to 11000
  144.8737  139.5001  143.6755 LP  0  0  0  0  0  0  0  0  0  0  0  0  # atno 17320 bound_to 7965
  146.2979  139.7333  142.9113 LP  0  0  0  0  0  0  0  0  0  0  0  0  # atno 17321 bound_to 7965
  140.0360  144.6044  150.7449 LP  0  0  0  0  0  0  0  0  0  0  0  0  # atno 17342 bound_to 10162
  140.7347  143.2732  151.3823 LP  0  0  0  0  0  0  0  0  0  0  0  0  # atno 17343 bound_to 10162
  156.3159  130.3778  149.7619 LP  0  0  0  0  0  0  0  0  0  0  0  0  # atno 17370 bound_to 10713
  156.5204  130.8212  151.3201 LP  0  0  0  0  0  0  0  0  0  0  0  0  # atno 17371 bound_to 10713
  141.1935  133.8149  157.0796 LP  0  0  0  0  0  0  0  0  0  0  0  0  # atno 17394 bound_to 11000
  140.0505  134.9808  157.1128 LP  0  0  0  0  0  0  0  0  0  0  0  0  # atno 17395 bound_to 11000

$$$$
