AV-unprocessed.smi:3327|AV-procd|sdf|12787|dock8
  -GOLD-   2272019133D 1   1.00000     0.00000
 Structure written by MMmdl.
 41 42  0  0  0  0  0  0  0  0  2 V2000
  151.2932  144.7351  160.1808 C   0  0  0  0  0  0  0  0  0  0  0  0
  151.8229  143.3282  160.4906 C   0  0  2  0  0  0  0  0  0  0  0  0
  152.7917  143.3394  161.6935 C   0  0  0  0  0  0  0  0  0  0  0  0
  153.4275  141.9573  161.9365 C   0  0  0  0  0  0  0  0  0  0  0  0
  154.0302  141.3957  160.6371 C   0  0  0  0  0  0  0  0  0  0  0  0
  152.9764  141.3478  159.6149 N   0  0  0  0  0  0  0  0  0  0  0  0
  152.4013  140.2207  159.1295 C   0  0  0  0  0  0  0  0  0  0  0  0
  152.7605  139.0949  159.4798 O   0  0  0  0  0  0  0  0  0  0  0  0
  151.2635  140.3466  158.1044 C   0  0  0  0  0  0  0  0  0  0  0  0
  151.7134  140.9523  156.8342 N   0  3  0  0  0  0  0  0  0  0  0  0
  150.8508  140.6428  155.6767 C   0  0  0  0  0  0  0  0  0  0  0  0
  149.3706  140.5527  156.0862 C   0  0  0  0  0  0  0  0  0  0  0  0
  148.4613  140.8273  154.9861 N   0  0  0  0  0  0  0  0  0  0  0  0
  148.4523  141.9120  154.1339 C   0  0  0  0  0  0  0  0  0  0  0  0
  147.4305  141.7247  153.2477 C   0  0  0  0  0  0  0  0  0  0  0  0
  146.8719  140.4746  153.6341 C   0  0  0  0  0  0  0  0  0  0  0  0
  147.4942  139.9380  154.6714 N   0  0  0  0  0  0  0  0  0  0  0  0
  152.5070  142.6940  159.2606 C   0  0  0  0  0  0  0  0  0  0  0  0
  152.1025  145.4120  159.9056 H   0  0  0  0  0  0  0  0  0  0  0  0
  150.7820  145.1607  161.0448 H   0  0  0  0  0  0  0  0  0  0  0  0
  150.5818  144.7137  159.3546 H   0  0  0  0  0  0  0  0  0  0  0  0
  150.9663  142.7061  160.7551 H   0  0  0  0  0  0  0  0  0  0  0  0
  153.5858  144.0647  161.5099 H   0  0  0  0  0  0  0  0  0  0  0  0
  152.2738  143.6733  162.5932 H   0  0  0  0  0  0  0  0  0  0  0  0
  154.1958  142.0313  162.7065 H   0  0  0  0  0  0  0  0  0  0  0  0
  152.6724  141.2681  162.3167 H   0  0  0  0  0  0  0  0  0  0  0  0
  154.8355  142.0453  160.2906 H   0  0  0  0  0  0  0  0  0  0  0  0
  154.5007  140.4332  160.8313 H   0  0  0  0  0  0  0  0  0  0  0  0
  150.8535  139.3568  157.8995 H   0  0  0  0  0  0  0  0  0  0  0  0
  150.4671  140.9648  158.5212 H   0  0  0  0  0  0  0  0  0  0  0  0
  151.7393  141.9551  156.9552 H   0  0  0  0  0  0  0  0  0  0  0  0
  150.9746  141.4229  154.9248 H   0  0  0  0  0  0  0  0  0  0  0  0
  151.1763  139.7083  155.2175 H   0  0  0  0  0  0  0  0  0  0  0  0
  149.1495  139.5614  156.4843 H   0  0  0  0  0  0  0  0  0  0  0  0
  149.1608  141.2649  156.8853 H   0  0  0  0  0  0  0  0  0  0  0  0
  149.1642  142.7192  154.2274 H   0  0  0  0  0  0  0  0  0  0  0  0
  147.1309  142.3784  152.4418 H   0  0  0  0  0  0  0  0  0  0  0  0
  146.0409  139.9437  153.1933 H   0  0  0  0  0  0  0  0  0  0  0  0
  151.8202  142.6887  158.4130 H   0  0  0  0  0  0  0  0  0  0  0  0
  153.3574  143.3006  158.9453 H   0  0  0  0  0  0  0  0  0  0  0  0
  152.6502  140.6289  156.6396 H   0  0  0  0  0  0  0  0  0  0  0  0
  1  2  1  0  0  0  0
  1 19  1  0  0  0  0
  1 20  1  0  0  0  0
  1 21  1  0  0  0  0
  2 18  1  0  0  0  0
  2  3  1  0  0  0  0
  2 22  1  0  0  0  0
  3  4  1  0  0  0  0
  3 23  1  0  0  0  0
  3 24  1  0  0  0  0
  4  5  1  0  0  0  0
  4 25  1  0  0  0  0
  4 26  1  0  0  0  0
  5  6  1  0  0  0  0
  5 27  1  0  0  0  0
  5 28  1  0  0  0  0
  6  7  1  0  0  0  0
  6 18  1  0  0  0  0
  7  8  2  0  0  0  0
  7  9  1  0  0  0  0
  9 10  1  0  0  0  0
  9 29  1  0  0  0  0
  9 30  1  0  0  0  0
 10 11  1  0  0  0  0
 10 31  1  0  0  0  0
 10 41  1  0  0  0  0
 11 12  1  0  0  0  0
 11 32  1  0  0  0  0
 11 33  1  0  0  0  0
 12 13  1  0  0  0  0
 12 34  1  0  0  0  0
 12 35  1  0  0  0  0
 13 17  1  0  0  0  0
 13 14  1  0  0  0  0
 14 15  2  0  0  0  0
 14 36  1  0  0  0  0
 15 16  1  0  0  0  0
 15 37  1  0  0  0  0
 16 17  2  0  0  0  0
 16 38  1  0  0  0  0
 18 39  1  0  0  0  0
 18 40  1  0  0  0  0
M  CHG  1  10   1
M  END
> <s_m_source_file>
AV-unprocessed.smi

> <i_m_source_file_index>
3327

> <i_lp_mmshare_version>
43012

> <i_f3d_flags>
0

> <s_epik_input>
W0NIM11bQ0BASF0xW0NIMl1bQ0gyXVtDSDJdTihbQ0gyXTEpQyg9TylbQ0gyXVtOSF1bQ0gyXVtDSDJdbjJbY0hdW2NIXVtjSF1uMg==

> <s_epik_cmdline>
J2VwaWtfcHl0aG9uJywgJy1waCcsICc3LjAnLCAnLXRuJywgJzgnLCAnLW1hJywgJzIwMCcsICctbWV0YWxfYmluZGluZycsICctaW1hZScsICc8aW5maWxlLm1hZT4nLCAnLW9tYWUnLCAnPG91dGZpbGUubWFlPic=

> <r_lp_tautomer_probability>
1

> <r_epik_Ionization_Penalty>
0.195801

> <r_epik_Ionization_Penalty_Charging>
0.195799

> <r_epik_Ionization_Penalty_Neutral>
2.33113e-06

> <r_epik_State_Penalty>
0.185548

> <r_epik_Charging_Adjusted_Penalty>
0.381347

> <i_epik_Tot_Q>
1

> <i_epik_Tot_abs_Q>
1

> <r_epik_Metal_State_Penalty>
0.186014

> <b_epik_Metal_Only>
0

> <s_lp_Force_Field>
OPLS_2005

> <r_lp_Energy>
21.5547

> <b_lp_Chiralities_Consistent>
1

> <s_lp_Variant>
AV-unprocessed.smi:3327-1

> <Gold.Version>
5.8.1

> <Gold.Id.Protein>
6NUR|6NUR_protein|mol2

> <Gold.PLP.Fitness>
43.7532

> <Gold.PLP.PLP>
-38.7128

> <Gold.PLP.part.hbond>
0.0000

> <Gold.PLP.part.metal>
0.0000

> <Gold.PLP.part.buried>
-5.0561

> <Gold.PLP.part.nonpolar>
-34.1914

> <Gold.PLP.part.repulsive>
0.1825

> <Gold.PLP.ligand.clash>
0.0000

> <Gold.PLP.ligand.torsion>
0.4658

> <Gold.PLP.Chemscore.Hbond>
0.0000

> <Gold.PLP.Chemscore.CHOScore>
1.9779

> <Gold.PLP.Chemscore.Metal>
0.0000

> <Gold.Chemscore.Hbonds>
donor molecule, donor type, donor heavy atom, donor atom, acceptor molecule, acceptor atom, score
      L1  C    14    36       P1  8028  0.91
      L1  C    16    38       P1 10175  1.00

> <Gold.PLP.Chemscore.Internal.Correction>
0.0384

> <Gold.Rescore>
     Score         DG    S(hbond)    S(metal)    S(lipo)     H(rot)  DE(clash)    DE(int)     intcor
     12.57     -13.08       0.00        0.00     104.25       1.80       0.18       0.33       ----

> <Gold.Chemscore.Fitness>
12.5727

> <Gold.Chemscore.DG>
-13.0788

> <Gold.Chemscore.ZeroCoef>
-5.4800

> <Gold.Chemscore.Hbond>
0.0000

> <Gold.Chemscore.Metal>
0.0000

> <Gold.Chemscore.Lipo>
104.2502

> <Gold.Chemscore.Internal_Hbond>
0.0000

> <Gold.Chemscore.DEClash>
0.1788

> <Gold.Chemscore.DEInternal>
0.3273

> <Gold.Chemscore.Rot>
1.7963

> <Gold.Chemscore.Internal.Correction>
   9.000000E+99

> <Gold.Chemscore.Hbond.Weighted>
-0.0000

> <Gold.Chemscore.Metal.Weighted>
-0.0000

> <Gold.Chemscore.Lipo.Weighted>
-12.1973

> <Gold.Chemscore.Internal_Hbond.Weighted>
0.0000

> <Gold.Chemscore.DEClash.Weighted>
0.1788

> <Gold.Chemscore.DEInternal.Weighted>
0.3273

> <Gold.Chemscore.Rot.Weighted>
4.5985

> <Gold.Chemscore.Internal.Correction.Weighted>
   9.000000E+99

> <Gold.Protein.RotatedTorsions>
[ 6907 6896 6895 6894 ] final   57.21 input  -60.11 | X-H torsion
[ 7974 7965 7964 7962 ] final   42.30 input  175.53 | X-H torsion
[ 8008 7997 7996 7995 ] final   91.34 input   59.86 | X-H torsion
[ 10167 10162 10161 10158 ] final   -5.31 input  -65.29 | X-H torsion
[ 10718 10713 10712 10709 ] final  -86.76 input   66.30 | X-H torsion
[ 10763 10752 10751 10750 ] final   17.33 input  -60.55 | X-H torsion
[ 11005 11000 10999 10996 ] final    8.41 input  -57.11 | X-H torsion

> <Gold.Protein.ActiveResidues>
 VAL166  LYS551  ARG553  GLY616  TRP617  ASP618  TYR619  PRO620  LYS621  CYS622 
 ASP623  PHE694  ASN695  SER759  ASP760  ASP761  ALA762  ILE779  LEU786  VAL792 
 PHE793  MET794  SER795  GLU796  ALA797  LYS798  CYS799  TRP800  GLU811  SER814 

> <Gold.Protein.RotatedAtoms>
  152.3710  134.6734  160.0175 H   0  0  0  0  0  0  0  0  0  0  0  0  # atno 6907 bound_to 6896
  151.7027  133.3306  159.3278 H   0  0  0  0  0  0  0  0  0  0  0  0  # atno 6908 bound_to 6896
  150.7674  134.6537  159.6346 H   0  0  0  0  0  0  0  0  0  0  0  0  # atno 6909 bound_to 6896
  146.0752  139.5316  142.9572 H   0  0  0  0  0  0  0  0  0  0  0  0  # atno 7974 bound_to 7965
  156.0226  140.3339  155.7055 H   0  0  0  0  0  0  0  0  0  0  0  0  # atno 8008 bound_to 7997
  155.6000  140.0655  157.2753 H   0  0  0  0  0  0  0  0  0  0  0  0  # atno 8009 bound_to 7997
  154.4322  140.1812  156.1151 H   0  0  0  0  0  0  0  0  0  0  0  0  # atno 8010 bound_to 7997
  140.6959  143.6322  150.8512 H   0  0  0  0  0  0  0  0  0  0  0  0  # atno 10167 bound_to 10162
  155.9988  130.4776  150.4763 H   0  0  0  0  0  0  0  0  0  0  0  0  # atno 10718 bound_to 10713
  153.1348  135.6748  153.9120 H   0  0  0  0  0  0  0  0  0  0  0  0  # atno 10763 bound_to 10752
  153.8595  135.3083  155.3438 H   0  0  0  0  0  0  0  0  0  0  0  0  # atno 10764 bound_to 10752
  154.7738  135.4925  153.9786 H   0  0  0  0  0  0  0  0  0  0  0  0  # atno 10765 bound_to 10752
  140.5373  134.0408  155.7892 H   0  0  0  0  0  0  0  0  0  0  0  0  # atno 11005 bound_to 11000
  145.6319  141.0302  143.1858 LP  0  0  0  0  0  0  0  0  0  0  0  0  # atno 17320 bound_to 7965
  144.7257  139.7884  143.7366 LP  0  0  0  0  0  0  0  0  0  0  0  0  # atno 17321 bound_to 7965
  140.0040  143.5713  152.2864 LP  0  0  0  0  0  0  0  0  0  0  0  0  # atno 17342 bound_to 10162
  139.6413  144.7655  151.2333 LP  0  0  0  0  0  0  0  0  0  0  0  0  # atno 17343 bound_to 10162
  157.2773  131.0599  151.2221 LP  0  0  0  0  0  0  0  0  0  0  0  0  # atno 17370 bound_to 10713
  157.3279  130.6970  149.6307 LP  0  0  0  0  0  0  0  0  0  0  0  0  # atno 17371 bound_to 10713
  141.1247  133.9403  157.2659 LP  0  0  0  0  0  0  0  0  0  0  0  0  # atno 17394 bound_to 11000
  139.9522  135.0173  156.9027 LP  0  0  0  0  0  0  0  0  0  0  0  0  # atno 17395 bound_to 11000

$$$$
