AV-unprocessed.smi:2359|AV-procd|sdf|9408|dock7
  -GOLD-   2272013 43D 1   1.00000     0.00000
 Structure written by MMmdl.
 40 41  0  0  0  0  0  0  0  0  1 V2000
  143.5997  131.7188  150.5261 C   0  0  0  0  0  0  0  0  0  0  0  0
  144.4198  132.8795  151.0486 C   0  0  0  0  0  0  0  0  0  0  0  0
  145.8144  132.7659  151.1976 C   0  0  0  0  0  0  0  0  0  0  0  0
  146.5374  133.8711  151.6859 C   0  0  0  0  0  0  0  0  0  0  0  0
  145.8510  135.0624  152.0123 C   0  0  0  0  0  0  0  0  0  0  0  0
  146.6715  136.1150  152.4986 N   0  0  0  0  0  0  0  0  0  0  0  0
  146.3061  137.1884  153.2216 C   0  0  0  0  0  0  0  0  0  0  0  0
  145.1577  137.4497  153.5815 O   0  0  0  0  0  0  0  0  0  0  0  0
  147.3622  137.9609  153.5101 N   0  0  0  0  0  0  0  0  0  0  0  0
  147.2915  139.1967  154.2777 C   0  0  0  0  0  0  0  0  0  0  0  0
  148.5660  140.0301  154.0795 C   0  0  0  0  0  0  0  0  0  0  0  0
  149.7747  139.4633  154.8411 C   0  0  1  0  0  0  0  0  0  0  0  0
  150.4080  138.2640  154.1089 C   0  0  0  0  0  0  0  0  0  0  0  0
  151.6519  137.7718  154.8573 C   0  0  0  0  0  0  0  0  0  0  0  0
  152.6121  138.9429  155.0903 C   0  0  0  0  0  0  0  0  0  0  0  0
  151.8752  140.1129  155.7613 C   0  0  0  0  0  0  0  0  0  0  0  0
  150.7517  140.4943  154.9734 O   0  0  0  0  0  0  0  0  0  0  0  0
  144.5066  135.1626  151.8640 N   0  0  0  0  0  0  0  0  0  0  0  0
  143.8143  134.1030  151.3959 C   0  0  0  0  0  0  0  0  0  0  0  0
  143.8437  130.8056  151.0695 H   0  0  0  0  0  0  0  0  0  0  0  0
  143.8080  131.5566  149.4686 H   0  0  0  0  0  0  0  0  0  0  0  0
  142.5318  131.9068  150.6403 H   0  0  0  0  0  0  0  0  0  0  0  0
  146.3241  131.8483  150.9429 H   0  0  0  0  0  0  0  0  0  0  0  0
  147.6086  133.8003  151.8064 H   0  0  0  0  0  0  0  0  0  0  0  0
  147.6521  136.0401  152.2723 H   0  0  0  0  0  0  0  0  0  0  0  0
  148.2724  137.6779  153.1774 H   0  0  0  0  0  0  0  0  0  0  0  0
  146.4150  139.7639  153.9616 H   0  0  0  0  0  0  0  0  0  0  0  0
  147.1600  138.9612  155.3350 H   0  0  0  0  0  0  0  0  0  0  0  0
  148.8008  140.0683  153.0149 H   0  0  0  0  0  0  0  0  0  0  0  0
  148.3871  141.0598  154.3921 H   0  0  0  0  0  0  0  0  0  0  0  0
  149.4477  139.1483  155.8337 H   0  0  0  0  0  0  0  0  0  0  0  0
  149.6860  137.4523  154.0146 H   0  0  0  0  0  0  0  0  0  0  0  0
  150.6850  138.5555  153.0949 H   0  0  0  0  0  0  0  0  0  0  0  0
  151.3579  137.3412  155.8155 H   0  0  0  0  0  0  0  0  0  0  0  0
  152.1465  136.9793  154.2952 H   0  0  0  0  0  0  0  0  0  0  0  0
  153.4548  138.6243  155.7046 H   0  0  0  0  0  0  0  0  0  0  0  0
  153.0259  139.2727  154.1367 H   0  0  0  0  0  0  0  0  0  0  0  0
  151.5525  139.8446  156.7684 H   0  0  0  0  0  0  0  0  0  0  0  0
  152.5426  140.9691  155.8591 H   0  0  0  0  0  0  0  0  0  0  0  0
  142.7474  134.2391  151.2971 H   0  0  0  0  0  0  0  0  0  0  0  0
  1  2  1  0  0  0  0
  1 20  1  0  0  0  0
  1 21  1  0  0  0  0
  1 22  1  0  0  0  0
  2 19  1  0  0  0  0
  2  3  2  0  0  0  0
  3  4  1  0  0  0  0
  3 23  1  0  0  0  0
  4  5  2  0  0  0  0
  4 24  1  0  0  0  0
  5  6  1  0  0  0  0
  5 18  1  0  0  0  0
  6  7  1  0  0  0  0
  6 25  1  0  0  0  0
  7  8  2  0  0  0  0
  7  9  1  0  0  0  0
  9 10  1  0  0  0  0
  9 26  1  0  0  0  0
 10 11  1  0  0  0  0
 10 27  1  0  0  0  0
 10 28  1  0  0  0  0
 11 12  1  0  0  0  0
 11 29  1  0  0  0  0
 11 30  1  0  0  0  0
 12 17  1  0  0  0  0
 12 13  1  0  0  0  0
 12 31  1  0  0  0  0
 13 14  1  0  0  0  0
 13 32  1  0  0  0  0
 13 33  1  0  0  0  0
 14 15  1  0  0  0  0
 14 34  1  0  0  0  0
 14 35  1  0  0  0  0
 15 16  1  0  0  0  0
 15 36  1  0  0  0  0
 15 37  1  0  0  0  0
 16 17  1  0  0  0  0
 16 38  1  0  0  0  0
 16 39  1  0  0  0  0
 18 19  2  0  0  0  0
 19 40  1  0  0  0  0
M  END
> <s_m_source_file>
AV-unprocessed.smi

> <i_m_source_file_index>
2359

> <i_lp_mmshare_version>
43012

> <i_f3d_flags>
0

> <s_epik_input>
W0NIM11jMVtjSF1bY0hdYyhuW2NIXTEpW05IXUMoPU8pW05IXVtDSDJdW0NIMl1bQ0BASF0yW0NIMl1bQ0gyXVtDSDJdW0NIMl1PMg==

> <s_epik_cmdline>
J2VwaWtfcHl0aG9uJywgJy1waCcsICc3LjAnLCAnLXRuJywgJzgnLCAnLW1hJywgJzIwMCcsICctbWV0YWxfYmluZGluZycsICctaW1hZScsICc8aW5maWxlLm1hZT4nLCAnLW9tYWUnLCAnPG91dGZpbGUubWFlPic=

> <r_lp_tautomer_probability>
1

> <r_epik_Ionization_Penalty>
5.73679e-05

> <r_epik_Ionization_Penalty_Charging>
0

> <r_epik_Ionization_Penalty_Neutral>
5.73679e-05

> <r_epik_State_Penalty>
-0

> <r_epik_Charging_Adjusted_Penalty>
0

> <i_epik_Tot_Q>
0

> <i_epik_Tot_abs_Q>
0

> <r_epik_Metal_State_Penalty>
-0

> <b_epik_Metal_Only>
0

> <s_lp_Force_Field>
OPLS_2005

> <r_lp_Energy>
11.4199

> <b_lp_Chiralities_Consistent>
1

> <s_lp_Variant>
AV-unprocessed.smi:2359-2

> <Gold.Version>
5.8.1

> <Gold.Id.Protein>
6NUR|6NUR_protein|mol2

> <Gold.PLP.Fitness>
40.9895

> <Gold.PLP.PLP>
-32.4736

> <Gold.PLP.part.hbond>
-2.3884

> <Gold.PLP.part.metal>
0.0000

> <Gold.PLP.part.buried>
-2.4693

> <Gold.PLP.part.nonpolar>
-29.2743

> <Gold.PLP.part.repulsive>
0.4146

> <Gold.PLP.ligand.clash>
0.0000

> <Gold.PLP.ligand.torsion>
0.4246

> <Gold.PLP.Chemscore.Hbond>
2.2275

> <Gold.PLP.Chemscore.CHOScore>
0.8920

> <Gold.PLP.Chemscore.Metal>
0.0000

> <Gold.Chemscore.Hbonds>
donor molecule, donor type, donor heavy atom, donor atom, acceptor molecule, acceptor atom, score
      L1  H     6    25       P1  7948  0.59
      L1  H     9    26       P1  7948  0.65
      P1  H  7989  7998       L1    17  0.85
      L1  C    19    40       P1 10186  0.89

> <Gold.PLP.Chemscore.Internal.Correction>
0.0068

> <Gold.Rescore>
     Score         DG    S(hbond)    S(metal)    S(lipo)     H(rot)  DE(clash)    DE(int)     intcor
     17.36     -19.89       2.59        0.00      80.39       1.42       0.87       1.66       ----

> <Gold.Chemscore.Fitness>
17.3623

> <Gold.Chemscore.DG>
-19.8881

> <Gold.Chemscore.ZeroCoef>
-5.4800

> <Gold.Chemscore.Hbond>
2.5900

> <Gold.Chemscore.Metal>
0.0000

> <Gold.Chemscore.Lipo>
80.3851

> <Gold.Chemscore.Internal_Hbond>
0.0000

> <Gold.Chemscore.DEClash>
0.8702

> <Gold.Chemscore.DEInternal>
1.6556

> <Gold.Chemscore.Rot>
1.4248

> <Gold.Chemscore.Internal.Correction>
   9.000000E+99

> <Gold.Chemscore.Hbonds>
donor molecule, donor type, donor heavy atom, donor atom, acceptor molecule, acceptor atom, score
      L1  H     6    25       P1  7948  0.58
      L1  H     9    26       P1  7948  0.62
      P1  H  7989  7998       L1    17  0.13

> <Gold.Chemscore.Hbond.Weighted>
-8.6506

> <Gold.Chemscore.Metal.Weighted>
-0.0000

> <Gold.Chemscore.Lipo.Weighted>
-9.4051

> <Gold.Chemscore.Internal_Hbond.Weighted>
0.0000

> <Gold.Chemscore.DEClash.Weighted>
0.8702

> <Gold.Chemscore.DEInternal.Weighted>
1.6556

> <Gold.Chemscore.Rot.Weighted>
3.6476

> <Gold.Chemscore.Internal.Correction.Weighted>
   9.000000E+99

> <Gold.Protein.RotatedTorsions>
[ 6907 6896 6895 6894 ] final   42.17 input  -60.11 | X-H torsion
[ 7974 7965 7964 7962 ] final -114.77 input  175.53 | X-H torsion
[ 8008 7997 7996 7995 ] final   83.00 input   59.86 | X-H torsion
[ 10167 10162 10161 10158 ] final -167.70 input  -65.29 | X-H torsion
[ 10718 10713 10712 10709 ] final   85.10 input   66.30 | X-H torsion
[ 10763 10752 10751 10750 ] final  -79.53 input  -60.55 | X-H torsion
[ 11005 11000 10999 10996 ] final   84.78 input  -57.11 | X-H torsion

> <Gold.Protein.ActiveResidues>
 VAL166  LYS551  ARG553  GLY616  TRP617  ASP618  TYR619  PRO620  LYS621  CYS622 
 ASP623  PHE694  ASN695  SER759  ASP760  ASP761  ALA762  ILE779  LEU786  VAL792 
 PHE793  MET794  SER795  GLU796  ALA797  LYS798  CYS799  TRP800  GLU811  SER814 

> <Gold.Protein.RotatedAtoms>
  152.2045  134.8557  160.0504 H   0  0  0  0  0  0  0  0  0  0  0  0  # atno 6907 bound_to 6896
  151.9399  133.3630  159.3969 H   0  0  0  0  0  0  0  0  0  0  0  0  # atno 6908 bound_to 6896
  150.6962  134.4375  159.5321 H   0  0  0  0  0  0  0  0  0  0  0  0  # atno 6909 bound_to 6896
  145.1163  140.8642  143.3840 H   0  0  0  0  0  0  0  0  0  0  0  0  # atno 7974 bound_to 7965
  155.9181  140.3423  155.6151 H   0  0  0  0  0  0  0  0  0  0  0  0  # atno 8008 bound_to 7997
  155.7307  140.0795  157.2309 H   0  0  0  0  0  0  0  0  0  0  0  0  # atno 8009 bound_to 7997
  154.4065  140.1588  156.2493 H   0  0  0  0  0  0  0  0  0  0  0  0  # atno 8010 bound_to 7997
  139.6032  144.0966  152.1765 H   0  0  0  0  0  0  0  0  0  0  0  0  # atno 10167 bound_to 10162
  157.6909  131.0161  150.2772 H   0  0  0  0  0  0  0  0  0  0  0  0  # atno 10718 bound_to 10713
  154.5398  135.5692  153.6830 H   0  0  0  0  0  0  0  0  0  0  0  0  # atno 10763 bound_to 10752
  152.9960  135.6225  154.2517 H   0  0  0  0  0  0  0  0  0  0  0  0  # atno 10764 bound_to 10752
  154.2447  135.2861  155.2820 H   0  0  0  0  0  0  0  0  0  0  0  0  # atno 10765 bound_to 10752
  139.8990  134.8240  156.2491 H   0  0  0  0  0  0  0  0  0  0  0  0  # atno 11005 bound_to 11000
  145.0791  139.2973  143.5793 LP  0  0  0  0  0  0  0  0  0  0  0  0  # atno 17320 bound_to 7965
  146.3523  140.0291  142.8652 LP  0  0  0  0  0  0  0  0  0  0  0  0  # atno 17321 bound_to 7965
  140.0568  144.5889  150.7294 LP  0  0  0  0  0  0  0  0  0  0  0  0  # atno 17342 bound_to 10162
  140.7266  143.2642  151.4100 LP  0  0  0  0  0  0  0  0  0  0  0  0  # atno 17343 bound_to 10162
  156.3325  130.3802  149.7478 LP  0  0  0  0  0  0  0  0  0  0  0  0  # atno 17370 bound_to 10713
  156.5013  130.8130  151.3134 LP  0  0  0  0  0  0  0  0  0  0  0  0  # atno 17371 bound_to 10713
  141.0235  133.7028  156.1308 LP  0  0  0  0  0  0  0  0  0  0  0  0  # atno 17394 bound_to 11000
  140.7199  134.4369  157.5575 LP  0  0  0  0  0  0  0  0  0  0  0  0  # atno 17395 bound_to 11000

$$$$
