AV-unprocessed.smi:2442|AV-procd|sdf|9626|dock4
  -GOLD-   2272013253D 1   1.00000     0.00000
 Structure written by MMmdl.
 46 47  0  0  0  0  0  0  0  0  1 V2000
  148.7463  132.7938  153.3217 C   0  0  0  0  0  0  0  0  0  0  0  0
  147.4124  132.3242  153.2096 O   0  0  0  0  0  0  0  0  0  0  0  0
  146.7354  132.7500  152.0323 C   0  0  1  0  0  0  0  0  0  0  0  0
  145.8169  131.6195  151.5205 C   0  0  0  0  0  0  0  0  0  0  0  0
  144.9489  132.0811  150.3406 C   0  0  0  0  0  0  0  0  0  0  0  0
  144.1222  133.3180  150.7171 C   0  0  0  0  0  0  0  0  0  0  0  0
  145.0305  134.4559  151.2042 C   0  0  0  0  0  0  0  0  0  0  0  0
  145.9166  134.0134  152.3849 C   0  0  2  0  0  0  0  0  0  0  0  0
  146.8115  135.1142  152.7349 N   0  0  0  0  0  0  0  0  0  0  0  0
  146.7374  135.8521  153.8509 C   0  0  0  0  0  0  0  0  0  0  0  0
  145.9044  135.6804  154.7413 O   0  0  0  0  0  0  0  0  0  0  0  0
  147.6707  136.8147  153.8696 N   0  0  0  0  0  0  0  0  0  0  0  0
  147.8175  137.8276  154.9120 C   0  0  0  0  0  0  0  0  0  0  0  0
  148.4950  139.1149  154.3969 C   0  0  0  0  0  0  0  0  0  0  0  0
  149.9673  139.2453  154.7710 C   0  0  0  0  0  0  0  0  0  0  0  0
  150.8907  138.2923  154.2896 C   0  0  0  0  0  0  0  0  0  0  0  0
  152.2515  138.4369  154.6204 C   0  0  0  0  0  0  0  0  0  0  0  0
  152.7250  139.4427  155.3838 N   0  0  0  0  0  0  0  0  0  0  0  0
  151.8405  140.3505  155.8474 C   0  0  0  0  0  0  0  0  0  0  0  0
  150.4552  140.3032  155.5783 C   0  0  0  0  0  0  0  0  0  0  0  0
  149.5440  141.3770  156.1448 C   0  0  0  0  0  0  0  0  0  0  0  0
  149.1727  132.4474  154.2631 H   0  0  0  0  0  0  0  0  0  0  0  0
  148.7817  133.8839  153.3215 H   0  0  0  0  0  0  0  0  0  0  0  0
  149.3781  132.4215  152.5155 H   0  0  0  0  0  0  0  0  0  0  0  0
  147.4574  133.0113  151.2560 H   0  0  0  0  0  0  0  0  0  0  0  0
  146.4058  130.7560  151.2129 H   0  0  0  0  0  0  0  0  0  0  0  0
  145.1722  131.2795  152.3321 H   0  0  0  0  0  0  0  0  0  0  0  0
  145.5851  132.3114  149.4851 H   0  0  0  0  0  0  0  0  0  0  0  0
  144.2875  131.2731  150.0273 H   0  0  0  0  0  0  0  0  0  0  0  0
  143.5366  133.6508  149.8595 H   0  0  0  0  0  0  0  0  0  0  0  0
  143.4074  133.0585  151.4992 H   0  0  0  0  0  0  0  0  0  0  0  0
  145.6570  134.7923  150.3766 H   0  0  0  0  0  0  0  0  0  0  0  0
  144.4202  135.3114  151.4970 H   0  0  0  0  0  0  0  0  0  0  0  0
  145.2587  133.7827  153.2254 H   0  0  0  0  0  0  0  0  0  0  0  0
  147.5347  135.3376  152.0675 H   0  0  0  0  0  0  0  0  0  0  0  0
  148.3107  136.8687  153.0910 H   0  0  0  0  0  0  0  0  0  0  0  0
  146.8480  138.0583  155.3543 H   0  0  0  0  0  0  0  0  0  0  0  0
  148.4162  137.4014  155.7170 H   0  0  0  0  0  0  0  0  0  0  0  0
  148.3842  139.1832  153.3148 H   0  0  0  0  0  0  0  0  0  0  0  0
  147.9614  139.9790  154.7948 H   0  0  0  0  0  0  0  0  0  0  0  0
  150.5676  137.4710  153.6672 H   0  0  0  0  0  0  0  0  0  0  0  0
  152.9799  137.7260  154.2595 H   0  0  0  0  0  0  0  0  0  0  0  0
  152.2558  141.1418  156.4539 H   0  0  0  0  0  0  0  0  0  0  0  0
  150.0912  142.0423  156.8132 H   0  0  0  0  0  0  0  0  0  0  0  0
  148.7286  140.9335  156.7156 H   0  0  0  0  0  0  0  0  0  0  0  0
  149.1232  141.9848  155.3446 H   0  0  0  0  0  0  0  0  0  0  0  0
  1  2  1  0  0  0  0
  1 22  1  0  0  0  0
  1 23  1  0  0  0  0
  1 24  1  0  0  0  0
  2  3  1  0  0  0  0
  3  8  1  0  0  0  0
  3  4  1  0  0  0  0
  3 25  1  0  0  0  0
  4  5  1  0  0  0  0
  4 26  1  0  0  0  0
  4 27  1  0  0  0  0
  5  6  1  0  0  0  0
  5 28  1  0  0  0  0
  5 29  1  0  0  0  0
  6  7  1  0  0  0  0
  6 30  1  0  0  0  0
  6 31  1  0  0  0  0
  7  8  1  0  0  0  0
  7 32  1  0  0  0  0
  7 33  1  0  0  0  0
  8  9  1  0  0  0  0
  8 34  1  0  0  0  0
  9 10  1  0  0  0  0
  9 35  1  0  0  0  0
 10 11  2  0  0  0  0
 10 12  1  0  0  0  0
 12 13  1  0  0  0  0
 12 36  1  0  0  0  0
 13 14  1  0  0  0  0
 13 37  1  0  0  0  0
 13 38  1  0  0  0  0
 14 15  1  0  0  0  0
 14 39  1  0  0  0  0
 14 40  1  0  0  0  0
 15 20  1  0  0  0  0
 15 16  2  0  0  0  0
 16 17  1  0  0  0  0
 16 41  1  0  0  0  0
 17 18  2  0  0  0  0
 17 42  1  0  0  0  0
 18 19  1  0  0  0  0
 19 20  2  0  0  0  0
 19 43  1  0  0  0  0
 20 21  1  0  0  0  0
 21 44  1  0  0  0  0
 21 45  1  0  0  0  0
 21 46  1  0  0  0  0
M  END
> <s_m_source_file>
AV-unprocessed.smi

> <i_m_source_file_index>
2442

> <i_lp_mmshare_version>
43012

> <i_f3d_flags>
0

> <s_epik_input>
W0NIM11PW0NAQEhdMVtDSDJdW0NIMl1bQ0gyXVtDSDJdW0NASF0xW05IXUMoPU8pW05IXVtDSDJdW0NIMl1jMltjSF1bY0hdbltjSF1jMltDSDNd

> <s_epik_cmdline>
J2VwaWtfcHl0aG9uJywgJy1waCcsICc3LjAnLCAnLXRuJywgJzgnLCAnLW1hJywgJzIwMCcsICctbWV0YWxfYmluZGluZycsICctaW1hZScsICc8aW5maWxlLm1hZT4nLCAnLW9tYWUnLCAnPG91dGZpbGUubWFlPic=

> <r_epik_Ionization_Penalty>
0.106136

> <r_epik_Ionization_Penalty_Charging>
0

> <r_epik_Ionization_Penalty_Neutral>
0.106136

> <r_epik_State_Penalty>
0.0959393

> <r_epik_Charging_Adjusted_Penalty>
0.0959393

> <i_epik_Tot_Q>
0

> <i_epik_Tot_abs_Q>
0

> <r_epik_Metal_State_Penalty>
0.0812517

> <b_epik_Metal_Only>
0

> <s_lp_Force_Field>
OPLS_2005

> <r_lp_Energy>
10.54

> <b_lp_Chiralities_Consistent>
1

> <s_lp_Variant>
AV-unprocessed.smi:2442-4

> <Gold.Version>
5.8.1

> <Gold.Id.Protein>
6NUR|6NUR_protein|mol2

> <Gold.PLP.Fitness>
44.7903

> <Gold.PLP.PLP>
-38.0907

> <Gold.PLP.part.hbond>
-2.7711

> <Gold.PLP.part.metal>
0.0000

> <Gold.PLP.part.buried>
-5.5543

> <Gold.PLP.part.nonpolar>
-30.5263

> <Gold.PLP.part.repulsive>
0.1456

> <Gold.PLP.ligand.clash>
0.0000

> <Gold.PLP.ligand.torsion>
1.0466

> <Gold.PLP.Chemscore.Hbond>
2.9120

> <Gold.PLP.Chemscore.CHOScore>
0.0000

> <Gold.PLP.Chemscore.Metal>
0.0000

> <Gold.Chemscore.Hbonds>
donor molecule, donor type, donor heavy atom, donor atom, acceptor molecule, acceptor atom, score
      L1  H     9    35       P1  7948  0.90
      L1  H    12    36       P1  7948  0.99
      P1  H  7997  8008       L1    18  1.00

> <Gold.PLP.Chemscore.Internal.Correction>
0.0569

> <Gold.Rescore>
     Score         DG    S(hbond)    S(metal)    S(lipo)     H(rot)  DE(clash)    DE(int)     intcor
     20.29     -21.44       2.81        0.00      91.99       1.64       0.03       1.13       ----

> <Gold.Chemscore.Fitness>
20.2879

> <Gold.Chemscore.DG>
-21.4425

> <Gold.Chemscore.ZeroCoef>
-5.4800

> <Gold.Chemscore.Hbond>
2.8125

> <Gold.Chemscore.Metal>
0.0000

> <Gold.Chemscore.Lipo>
91.9851

> <Gold.Chemscore.Internal_Hbond>
0.0000

> <Gold.Chemscore.DEClash>
0.0285

> <Gold.Chemscore.DEInternal>
1.1260

> <Gold.Chemscore.Rot>
1.6380

> <Gold.Chemscore.Internal.Correction>
   9.000000E+99

> <Gold.Chemscore.Hbonds>
donor molecule, donor type, donor heavy atom, donor atom, acceptor molecule, acceptor atom, score
      L1  H     9    35       P1  7948  0.87
      L1  H    12    36       P1  7948  0.88
      P1  H  7997  8008       L1    18  0.39

> <Gold.Chemscore.Hbond.Weighted>
-9.3937

> <Gold.Chemscore.Metal.Weighted>
-0.0000

> <Gold.Chemscore.Lipo.Weighted>
-10.7623

> <Gold.Chemscore.Internal_Hbond.Weighted>
0.0000

> <Gold.Chemscore.DEClash.Weighted>
0.0285

> <Gold.Chemscore.DEInternal.Weighted>
1.1260

> <Gold.Chemscore.Rot.Weighted>
4.1934

> <Gold.Chemscore.Internal.Correction.Weighted>
   9.000000E+99

> <Gold.Protein.RotatedTorsions>
[ 6907 6896 6895 6894 ] final -132.70 input  -60.11 | X-H torsion
[ 7974 7965 7964 7962 ] final   69.41 input  175.53 | X-H torsion
[ 8008 7997 7996 7995 ] final  -18.75 input   59.86 | X-H torsion
[ 10167 10162 10161 10158 ] final  108.05 input  -65.29 | X-H torsion
[ 10718 10713 10712 10709 ] final  -63.87 input   66.30 | X-H torsion
[ 10763 10752 10751 10750 ] final   32.55 input  -60.55 | X-H torsion
[ 11005 11000 10999 10996 ] final  -47.27 input  -57.11 | X-H torsion

> <Gold.Protein.ActiveResidues>
 VAL166  LYS551  ARG553  GLY616  TRP617  ASP618  TYR619  PRO620  LYS621  CYS622 
 ASP623  PHE694  ASN695  SER759  ASP760  ASP761  ALA762  ILE779  LEU786  VAL792 
 PHE793  MET794  SER795  GLU796  ALA797  LYS798  CYS799  TRP800  GLU811  SER814 

> <Gold.Protein.RotatedAtoms>
  150.9654  133.6400  159.2746 H   0  0  0  0  0  0  0  0  0  0  0  0  # atno 6907 bound_to 6896
  151.3708  135.0921  159.9474 H   0  0  0  0  0  0  0  0  0  0  0  0  # atno 6908 bound_to 6896
  152.5163  133.9209  159.7588 H   0  0  0  0  0  0  0  0  0  0  0  0  # atno 6909 bound_to 6896
  145.7907  139.2932  143.1212 H   0  0  0  0  0  0  0  0  0  0  0  0  # atno 7974 bound_to 7965
  154.4884  140.2107  155.9603 H   0  0  0  0  0  0  0  0  0  0  0  0  # atno 8008 bound_to 7997
  156.1270  140.3203  155.8260 H   0  0  0  0  0  0  0  0  0  0  0  0  # atno 8009 bound_to 7997
  155.4366  140.0507  157.3005 H   0  0  0  0  0  0  0  0  0  0  0  0  # atno 8010 bound_to 7997
  139.6877  144.7111  151.1403 H   0  0  0  0  0  0  0  0  0  0  0  0  # atno 10167 bound_to 10162
  156.0764  130.4226  150.1339 H   0  0  0  0  0  0  0  0  0  0  0  0  # atno 10718 bound_to 10713
  153.0257  135.6410  154.1372 H   0  0  0  0  0  0  0  0  0  0  0  0  # atno 10763 bound_to 10752
  154.1101  135.2853  155.3234 H   0  0  0  0  0  0  0  0  0  0  0  0  # atno 10764 bound_to 10752
  154.6337  135.5483  153.7773 H   0  0  0  0  0  0  0  0  0  0  0  0  # atno 10765 bound_to 10752
  141.0630  133.6703  156.3274 H   0  0  0  0  0  0  0  0  0  0  0  0  # atno 11005 bound_to 11000
  145.9980  140.8545  143.0033 LP  0  0  0  0  0  0  0  0  0  0  0  0  # atno 17320 bound_to 7965
  144.6782  140.2310  143.7355 LP  0  0  0  0  0  0  0  0  0  0  0  0  # atno 17321 bound_to 7965
  140.7673  143.5605  150.9105 LP  0  0  0  0  0  0  0  0  0  0  0  0  # atno 17342 bound_to 10162
  139.9280  143.6526  152.3082 LP  0  0  0  0  0  0  0  0  0  0  0  0  # atno 17343 bound_to 10162
  156.9379  130.9735  151.3521 LP  0  0  0  0  0  0  0  0  0  0  0  0  # atno 17370 bound_to 10713
  157.5861  130.8411  149.8592 LP  0  0  0  0  0  0  0  0  0  0  0  0  # atno 17371 bound_to 10713
  140.5830  134.5727  157.5483 LP  0  0  0  0  0  0  0  0  0  0  0  0  # atno 17394 bound_to 11000
  139.9450  134.7718  156.0584 LP  0  0  0  0  0  0  0  0  0  0  0  0  # atno 17395 bound_to 11000

$$$$
