AV-unprocessed.smi:196|AV-procd|sdf|1541|dock4
  -GOLD-   2262019403D 1   1.00000     0.00000
 Structure written by MMmdl.
 47 50  0  0  0  0  0  0  0  0  1 V2000
  146.2605  142.5040  153.8377 C   0  0  0  0  0  0  0  0  0  0  0  0
  147.0404  142.0574  155.0853 C   0  0  1  0  0  0  0  0  0  0  0  0
  146.2438  142.2003  156.2524 O   0  0  0  0  0  0  0  0  0  0  0  0
  146.8566  141.4271  157.2682 C   0  0  0  0  0  0  0  0  0  0  0  0
  147.2059  140.1341  156.5413 C   0  0  0  0  0  0  0  0  0  0  0  0
  147.5426  140.5891  155.1178 C   0  0  1  0  0  0  0  0  0  0  0  0
  146.8251  139.7667  154.2119 O   0  0  0  0  0  0  0  0  0  0  0  0
  149.0533  140.4519  154.8047 C   0  0  0  0  0  0  0  0  0  0  0  0
  149.9144  140.9086  155.8853 N   0  0  0  0  0  0  0  0  0  0  0  0
  149.8220  142.1014  156.5654 C   0  0  0  0  0  0  0  0  0  0  0  0
  150.7139  142.2789  157.5007 N   0  0  0  0  0  0  0  0  0  0  0  0
  151.4862  141.1233  157.4628 C   0  0  0  0  0  0  0  0  0  0  0  0
  152.6173  140.6570  158.1942 C   0  0  0  0  0  0  0  0  0  0  0  0
  153.1992  141.3613  159.2024 N   0  0  0  0  0  0  0  0  0  0  0  0
  153.1049  142.8172  159.2003 C   0  0  0  0  0  0  0  0  0  0  0  0
  153.0279  143.2289  160.6705 C   0  0  1  0  0  0  0  0  0  0  0  0
  151.7494  143.2981  161.0459 F   0  0  0  0  0  0  0  0  0  0  0  0
  153.7078  142.0718  161.3957 C   0  0  0  0  0  0  0  0  0  0  0  0
  153.3122  140.8382  160.5682 C   0  0  2  0  0  0  0  0  0  0  0  0
  154.3614  139.7220  160.6964 C   0  0  0  0  0  0  0  0  0  0  0  0
  154.5224  139.1852  161.9080 N   0  0  0  0  0  0  0  0  0  0  0  0
  155.0241  139.3579  159.7262 O   0  0  0  0  0  0  0  0  0  0  0  0
  153.1275  139.4465  157.8427 N   0  0  0  0  0  0  0  0  0  0  0  0
  152.5722  138.7353  156.8579 C   0  0  0  0  0  0  0  0  0  0  0  0
  151.5178  139.0412  156.1012 N   0  0  0  0  0  0  0  0  0  0  0  0
  151.0020  140.2568  156.4411 C   0  0  0  0  0  0  0  0  0  0  0  0
  153.4838  144.1986  160.8725 H   0  0  0  0  0  0  0  0  0  0  0  0
  152.3350  140.4814  160.8996 H   0  0  0  0  0  0  0  0  0  0  0  0
  146.8595  142.3832  152.9349 H   0  0  0  0  0  0  0  0  0  0  0  0
  145.9847  143.5558  153.9122 H   0  0  0  0  0  0  0  0  0  0  0  0
  145.3407  141.9322  153.7130 H   0  0  0  0  0  0  0  0  0  0  0  0
  147.8872  142.7313  155.2205 H   0  0  0  0  0  0  0  0  0  0  0  0
  147.7556  141.9318  157.6259 H   0  0  0  0  0  0  0  0  0  0  0  0
  146.1881  141.2683  158.1146 H   0  0  0  0  0  0  0  0  0  0  0  0
  148.0177  139.5937  157.0298 H   0  0  0  0  0  0  0  0  0  0  0  0
  146.3311  139.4813  156.5486 H   0  0  0  0  0  0  0  0  0  0  0  0
  147.3451  138.9999  154.0264 H   0  0  0  0  0  0  0  0  0  0  0  0
  149.2964  139.4103  154.5912 H   0  0  0  0  0  0  0  0  0  0  0  0
  149.3088  141.0123  153.9043 H   0  0  0  0  0  0  0  0  0  0  0  0
  149.0638  142.8397  156.3488 H   0  0  0  0  0  0  0  0  0  0  0  0
  154.0081  143.2197  158.7402 H   0  0  0  0  0  0  0  0  0  0  0  0
  152.2452  143.1891  158.6403 H   0  0  0  0  0  0  0  0  0  0  0  0
  154.7886  142.2241  161.3770 H   0  0  0  0  0  0  0  0  0  0  0  0
  153.4023  141.9942  162.4396 H   0  0  0  0  0  0  0  0  0  0  0  0
  155.2031  138.4530  162.0493 H   0  0  0  0  0  0  0  0  0  0  0  0
  153.9656  139.5198  162.6810 H   0  0  0  0  0  0  0  0  0  0  0  0
  153.0394  137.7847  156.6471 H   0  0  0  0  0  0  0  0  0  0  0  0
  1  2  1  0  0  0  0
  1 29  1  0  0  0  0
  1 30  1  0  0  0  0
  1 31  1  0  0  0  0
  2  6  1  0  0  0  0
  2  3  1  0  0  0  0
  2 32  1  0  0  0  0
  3  4  1  0  0  0  0
  4  5  1  0  0  0  0
  4 33  1  0  0  0  0
  4 34  1  0  0  0  0
  5  6  1  0  0  0  0
  5 35  1  0  0  0  0
  5 36  1  0  0  0  0
  6  7  1  0  0  0  0
  6  8  1  0  0  0  0
  7 37  1  0  0  0  0
  8  9  1  0  0  0  0
  8 38  1  0  0  0  0
  8 39  1  0  0  0  0
  9 26  1  0  0  0  0
  9 10  1  0  0  0  0
 10 11  2  0  0  0  0
 10 40  1  0  0  0  0
 11 12  1  0  0  0  0
 12 26  2  0  0  0  0
 12 13  1  0  0  0  0
 13 14  1  0  0  0  0
 13 23  2  0  0  0  0
 14 19  1  0  0  0  0
 14 15  1  0  0  0  0
 15 16  1  0  0  0  0
 15 41  1  0  0  0  0
 15 42  1  0  0  0  0
 16 27  1  0  0  0  0
 16 17  1  0  0  0  0
 16 18  1  0  0  0  0
 18 19  1  0  0  0  0
 18 43  1  0  0  0  0
 18 44  1  0  0  0  0
 19 28  1  0  0  0  0
 19 20  1  0  0  0  0
 20 21  1  0  0  0  0
 20 22  2  0  0  0  0
 21 45  1  0  0  0  0
 21 46  1  0  0  0  0
 23 24  1  0  0  0  0
 24 25  2  0  0  0  0
 24 47  1  0  0  0  0
 25 26  1  0  0  0  0
M  END
> <s_m_source_file>
AV-unprocessed.smi

> <i_m_source_file_index>
196

> <i_lp_mmshare_version>
43012

> <i_f3d_flags>
0

> <s_epik_input>
W0NIMl0xW0NIMl1PW0NAQEhdKFtDSDNdKVtDQEBdMShbT0hdKVtDSDJdbihbY0hdbjIpYyhjMjMpbltjSF1uYzNONFtDSDJdW0NASF0oRilbQ0gyXVtDQEhdNEMoPU8pW05IMl0=

> <s_epik_cmdline>
J2VwaWtfcHl0aG9uJywgJy1waCcsICc3LjAnLCAnLXRuJywgJzgnLCAnLW1hJywgJzIwMCcsICctbWV0YWxfYmluZGluZycsICctaW1hZScsICc8aW5maWxlLm1hZT4nLCAnLW9tYWUnLCAnPG91dGZpbGUubWFlPic=

> <r_lp_tautomer_probability>
1

> <r_epik_Ionization_Penalty>
0.000857933

> <r_epik_Ionization_Penalty_Charging>
0

> <r_epik_Ionization_Penalty_Neutral>
0.000857933

> <r_epik_State_Penalty>
0.000462053

> <r_epik_Charging_Adjusted_Penalty>
0.000462053

> <i_epik_Tot_Q>
0

> <i_epik_Tot_abs_Q>
0

> <r_epik_Metal_State_Penalty>
-0

> <b_epik_Metal_Only>
0

> <s_lp_Force_Field>
OPLS_2005

> <r_lp_Energy>
42.8122

> <b_lp_Chiralities_Consistent>
1

> <s_lp_Variant>
AV-unprocessed.smi:196-14

> <Gold.Version>
5.8.1

> <Gold.Id.Protein>
6NUR|6NUR_protein|mol2

> <Gold.PLP.Fitness>
41.8064

> <Gold.PLP.PLP>
-38.2537

> <Gold.PLP.part.hbond>
-1.0000

> <Gold.PLP.part.metal>
0.0000

> <Gold.PLP.part.buried>
-2.5793

> <Gold.PLP.part.nonpolar>
-35.2414

> <Gold.PLP.part.repulsive>
0.2139

> <Gold.PLP.ligand.clash>
0.0000

> <Gold.PLP.ligand.torsion>
1.0415

> <Gold.PLP.Chemscore.Hbond>
0.9000

> <Gold.PLP.Chemscore.CHOScore>
0.8841

> <Gold.PLP.Chemscore.Metal>
0.0000

> <Gold.Chemscore.Hbonds>
donor molecule, donor type, donor heavy atom, donor atom, acceptor molecule, acceptor atom, score
      P1  H  7997  8009       L1    23  0.90
      L1  C    10    40       P1  8028  0.95

> <Gold.PLP.Chemscore.Internal.Correction>
0.2835

> <Gold.Rescore>
     Score         DG    S(hbond)    S(metal)    S(lipo)     H(rot)  DE(clash)    DE(int)     intcor
      3.32      -6.82       0.02        0.00      67.72       2.60       0.04       3.46       ----

> <Gold.Chemscore.Fitness>
3.3183

> <Gold.Chemscore.DG>
-6.8211

> <Gold.Chemscore.ZeroCoef>
-5.4800

> <Gold.Chemscore.Hbond>
0.0195

> <Gold.Chemscore.Metal>
0.0000

> <Gold.Chemscore.Lipo>
67.7234

> <Gold.Chemscore.Internal_Hbond>
0.0000

> <Gold.Chemscore.DEClash>
0.0429

> <Gold.Chemscore.DEInternal>
3.4599

> <Gold.Chemscore.Rot>
2.5968

> <Gold.Chemscore.Internal.Correction>
   9.000000E+99

> <Gold.Chemscore.Hbonds>
donor molecule, donor type, donor heavy atom, donor atom, acceptor molecule, acceptor atom, score
      P1  H  7997  8009       L1    23  0.05

> <Gold.Chemscore.Hbond.Weighted>
-0.0652

> <Gold.Chemscore.Metal.Weighted>
-0.0000

> <Gold.Chemscore.Lipo.Weighted>
-7.9236

> <Gold.Chemscore.Internal_Hbond.Weighted>
0.0000

> <Gold.Chemscore.DEClash.Weighted>
0.0429

> <Gold.Chemscore.DEInternal.Weighted>
3.4599

> <Gold.Chemscore.Rot.Weighted>
6.6477

> <Gold.Chemscore.Internal.Correction.Weighted>
   9.000000E+99

> <Gold.Protein.RotatedTorsions>
[ 6907 6896 6895 6894 ] final  118.25 input  -60.11 | X-H torsion
[ 7974 7965 7964 7962 ] final  119.58 input  175.53 | X-H torsion
[ 8008 7997 7996 7995 ] final  154.03 input   59.86 | X-H torsion
[ 10167 10162 10161 10158 ] final  -20.66 input  -65.29 | X-H torsion
[ 10718 10713 10712 10709 ] final   25.80 input   66.30 | X-H torsion
[ 10763 10752 10751 10750 ] final    1.83 input  -60.55 | X-H torsion
[ 11005 11000 10999 10996 ] final  -34.61 input  -57.11 | X-H torsion

> <Gold.Protein.ActiveResidues>
 VAL166  LYS551  ARG553  GLY616  TRP617  ASP618  TYR619  PRO620  LYS621  CYS622 
 ASP623  PHE694  ASN695  SER759  ASP760  ASP761  ALA762  ILE779  LEU786  VAL792 
 PHE793  MET794  SER795  GLU796  ALA797  LYS798  CYS799  TRP800  GLU811  SER814 

> <Gold.Protein.RotatedAtoms>
  152.4556  133.7716  159.6801 H   0  0  0  0  0  0  0  0  0  0  0  0  # atno 6907 bound_to 6896
  150.8481  133.7819  159.3042 H   0  0  0  0  0  0  0  0  0  0  0  0  # atno 6908 bound_to 6896
  151.5423  135.1071  159.9981 H   0  0  0  0  0  0  0  0  0  0  0  0  # atno 6909 bound_to 6896
  145.1415  139.3265  143.4613 H   0  0  0  0  0  0  0  0  0  0  0  0  # atno 7974 bound_to 7965
  156.2552  140.1977  156.6583 H   0  0  0  0  0  0  0  0  0  0  0  0  # atno 8008 bound_to 7997
  154.6484  140.0575  156.9952 H   0  0  0  0  0  0  0  0  0  0  0  0  # atno 8009 bound_to 7997
  155.1455  140.3246  155.4445 H   0  0  0  0  0  0  0  0  0  0  0  0  # atno 8010 bound_to 7997
  140.7277  143.4701  151.0259 H   0  0  0  0  0  0  0  0  0  0  0  0  # atno 10167 bound_to 10162
  157.1983  130.6878  149.6178 H   0  0  0  0  0  0  0  0  0  0  0  0  # atno 10718 bound_to 10713
  153.3031  135.6957  153.7185 H   0  0  0  0  0  0  0  0  0  0  0  0  # atno 10763 bound_to 10752
  153.6091  135.3448  155.2973 H   0  0  0  0  0  0  0  0  0  0  0  0  # atno 10764 bound_to 10752
  154.8556  135.4359  154.2148 H   0  0  0  0  0  0  0  0  0  0  0  0  # atno 10765 bound_to 10752
  140.9730  133.7099  156.1555 H   0  0  0  0  0  0  0  0  0  0  0  0  # atno 11005 bound_to 11000
  146.3504  140.1454  142.8593 LP  0  0  0  0  0  0  0  0  0  0  0  0  # atno 17320 bound_to 7965
  145.0527  140.9030  143.4985 LP  0  0  0  0  0  0  0  0  0  0  0  0  # atno 17321 bound_to 7965
  139.8392  143.7586  152.3180 LP  0  0  0  0  0  0  0  0  0  0  0  0  # atno 17342 bound_to 10162
  139.7729  144.7470  151.0198 LP  0  0  0  0  0  0  0  0  0  0  0  0  # atno 17343 bound_to 10162
  155.9703  130.4591  150.6025 LP  0  0  0  0  0  0  0  0  0  0  0  0  # atno 17370 bound_to 10713
  157.3793  131.0778  151.1491 LP  0  0  0  0  0  0  0  0  0  0  0  0  # atno 17371 bound_to 10713
  140.7301  134.4264  157.5567 LP  0  0  0  0  0  0  0  0  0  0  0  0  # atno 17394 bound_to 11000
  139.8919  134.8767  156.2295 LP  0  0  0  0  0  0  0  0  0  0  0  0  # atno 17395 bound_to 11000

$$$$
