AV-unprocessed.smi:1560|AV-procd|sdf|6275|dock1
  -GOLD-   22720 6463D 1   1.00000     0.00000
 Structure written by MMmdl.
 47 48  0  0  0  0  0  0  0  0  1 V2000
  151.3019  137.5364  154.6218 C   0  0  0  0  0  0  0  0  0  0  0  0
  150.6124  138.7802  154.0357 C   0  0  0  0  0  0  0  0  0  0  0  0
  149.3513  139.2764  154.8181 C   0  0  1  0  0  0  0  0  0  0  0  0
  148.5126  140.1149  153.8173 C   0  0  0  0  0  0  0  0  0  0  0  0
  148.4939  138.0340  155.2254 C   0  0  0  0  0  0  0  0  0  0  0  0
  147.7704  137.4449  154.1055 N   0  0  0  0  0  0  0  0  0  0  0  0
  146.5210  137.7477  153.7228 C   0  0  0  0  0  0  0  0  0  0  0  0
  145.8273  138.5799  154.3060 O   0  0  0  0  0  0  0  0  0  0  0  0
  145.9488  137.0075  152.5007 C   0  0  0  0  0  0  0  0  0  0  0  0
  144.6828  136.2983  152.7565 N   0  0  0  0  0  0  0  0  0  0  0  0
  143.4707  136.9238  152.5009 C   0  0  0  0  0  0  0  0  0  0  0  0
  142.2688  136.3494  152.7439 C   0  0  0  0  0  0  0  0  0  0  0  0
  142.1928  135.0043  153.3036 C   0  0  0  0  0  0  0  0  0  0  0  0
  141.1538  134.4009  153.5614 O   0  0  0  0  0  0  0  0  0  0  0  0
  143.4328  134.4075  153.5461 N   0  0  0  0  0  0  0  0  0  0  0  0
  144.6746  134.9937  153.2981 C   0  0  0  0  0  0  0  0  0  0  0  0
  145.7097  134.3838  153.5625 O   0  0  0  0  0  0  0  0  0  0  0  0
  149.7392  140.0616  156.0284 N   0  0  0  0  0  0  0  0  0  0  0  0
  150.4669  139.3073  157.0585 C   0  0  0  0  0  0  0  0  0  0  0  0
  150.7223  140.1434  158.3238 C   0  0  0  0  0  0  0  0  0  0  0  0
  151.4352  141.3244  157.9810 O   0  0  0  0  0  0  0  0  0  0  0  0
  150.7331  142.1211  157.0360 C   0  0  0  0  0  0  0  0  0  0  0  0
  150.4731  141.3057  155.7577 C   0  0  0  0  0  0  0  0  0  0  0  0
  143.4299  133.4759  153.9353 H   0  0  0  0  0  0  0  0  0  0  0  0
  152.1853  137.2790  154.0374 H   0  0  0  0  0  0  0  0  0  0  0  0
  150.6440  136.6677  154.6129 H   0  0  0  0  0  0  0  0  0  0  0  0
  151.6261  137.7030  155.6491 H   0  0  0  0  0  0  0  0  0  0  0  0
  151.3476  139.5792  153.9477 H   0  0  0  0  0  0  0  0  0  0  0  0
  150.3594  138.5669  152.9966 H   0  0  0  0  0  0  0  0  0  0  0  0
  148.2542  139.5376  152.9287 H   0  0  0  0  0  0  0  0  0  0  0  0
  149.0506  140.9940  153.4636 H   0  0  0  0  0  0  0  0  0  0  0  0
  147.5728  140.4546  154.2518 H   0  0  0  0  0  0  0  0  0  0  0  0
  149.1208  137.2632  155.6757 H   0  0  0  0  0  0  0  0  0  0  0  0
  147.7538  138.3108  155.9768 H   0  0  0  0  0  0  0  0  0  0  0  0
  148.2656  136.7476  153.5687 H   0  0  0  0  0  0  0  0  0  0  0  0
  145.8106  137.7343  151.6988 H   0  0  0  0  0  0  0  0  0  0  0  0
  146.7056  136.3151  152.1277 H   0  0  0  0  0  0  0  0  0  0  0  0
  143.4790  137.9242  152.0920 H   0  0  0  0  0  0  0  0  0  0  0  0
  141.3585  136.8890  152.5256 H   0  0  0  0  0  0  0  0  0  0  0  0
  149.9115  138.4235  157.3644 H   0  0  0  0  0  0  0  0  0  0  0  0
  151.4249  138.9632  156.6690 H   0  0  0  0  0  0  0  0  0  0  0  0
  149.7816  140.4039  158.8117 H   0  0  0  0  0  0  0  0  0  0  0  0
  151.3079  139.5709  159.0433 H   0  0  0  0  0  0  0  0  0  0  0  0
  149.7940  142.4697  157.4687 H   0  0  0  0  0  0  0  0  0  0  0  0
  151.3267  143.0060  156.8063 H   0  0  0  0  0  0  0  0  0  0  0  0
  151.4283  141.0845  155.2813 H   0  0  0  0  0  0  0  0  0  0  0  0
  149.9190  141.9481  155.0766 H   0  0  0  0  0  0  0  0  0  0  0  0
  1  2  1  0  0  0  0
  1 25  1  0  0  0  0
  1 26  1  0  0  0  0
  1 27  1  0  0  0  0
  2  3  1  0  0  0  0
  2 28  1  0  0  0  0
  2 29  1  0  0  0  0
  3  4  1  0  0  0  0
  3  5  1  0  0  0  0
  3 18  1  0  0  0  0
  4 30  1  0  0  0  0
  4 31  1  0  0  0  0
  4 32  1  0  0  0  0
  5  6  1  0  0  0  0
  5 33  1  0  0  0  0
  5 34  1  0  0  0  0
  6  7  1  0  0  0  0
  6 35  1  0  0  0  0
  7  8  2  0  0  0  0
  7  9  1  0  0  0  0
  9 10  1  0  0  0  0
  9 36  1  0  0  0  0
  9 37  1  0  0  0  0
 10 16  1  0  0  0  0
 10 11  1  0  0  0  0
 11 12  2  0  0  0  0
 11 38  1  0  0  0  0
 12 13  1  0  0  0  0
 12 39  1  0  0  0  0
 13 14  2  0  0  0  0
 13 15  1  0  0  0  0
 15 24  1  0  0  0  0
 15 16  1  0  0  0  0
 16 17  2  0  0  0  0
 18 23  1  0  0  0  0
 18 19  1  0  0  0  0
 19 20  1  0  0  0  0
 19 40  1  0  0  0  0
 19 41  1  0  0  0  0
 20 21  1  0  0  0  0
 20 42  1  0  0  0  0
 20 43  1  0  0  0  0
 21 22  1  0  0  0  0
 22 23  1  0  0  0  0
 22 44  1  0  0  0  0
 22 45  1  0  0  0  0
 23 46  1  0  0  0  0
 23 47  1  0  0  0  0
M  END
> <s_m_source_file>
AV-unprocessed.smi

> <i_m_source_file_index>
1560

> <i_lp_mmshare_version>
43012

> <i_f3d_flags>
0

> <s_epik_input>
W0NIMl0xW0NIMl1PW0NIMl1bQ0gyXU4xW0NAQF0oW0NIM10pKFtDSDJdW0NIM10pW0NIMl1bTkhdQyg9TylbQ0gyXW4yW2NIXVtjSF1jKD1PKVtuSF1jMj1P

> <s_epik_cmdline>
J2VwaWtfcHl0aG9uJywgJy1waCcsICc3LjAnLCAnLXRuJywgJzgnLCAnLW1hJywgJzIwMCcsICctbWV0YWxfYmluZGluZycsICctaW1hZScsICc8aW5maWxlLm1hZT4nLCAnLW9tYWUnLCAnPG91dGZpbGUubWFlPic=

> <r_lp_tautomer_probability>
0.999537

> <r_epik_Ionization_Penalty>
0.321965

> <r_epik_Ionization_Penalty_Charging>
0.00329831

> <r_epik_Ionization_Penalty_Neutral>
0.318667

> <r_epik_State_Penalty>
0.288097

> <r_epik_Charging_Adjusted_Penalty>
0.291396

> <i_epik_Tot_Q>
0

> <i_epik_Tot_abs_Q>
0

> <r_epik_Metal_State_Penalty>
0.654595

> <b_epik_Metal_Only>
0

> <s_lp_Force_Field>
OPLS_2005

> <r_lp_Energy>
42.3402

> <b_lp_Chiralities_Consistent>
1

> <s_lp_Variant>
AV-unprocessed.smi:1560-1

> <Gold.Version>
5.8.1

> <Gold.Id.Protein>
6NUR|6NUR_protein|mol2

> <Gold.PLP.Fitness>
43.5575

> <Gold.PLP.PLP>
-30.7839

> <Gold.PLP.part.hbond>
-3.8802

> <Gold.PLP.part.metal>
0.0000

> <Gold.PLP.part.buried>
-4.3541

> <Gold.PLP.part.nonpolar>
-22.9237

> <Gold.PLP.part.repulsive>
0.4144

> <Gold.PLP.ligand.clash>
0.0000

> <Gold.PLP.ligand.torsion>
1.0553

> <Gold.PLP.Chemscore.Hbond>
2.8949

> <Gold.PLP.Chemscore.CHOScore>
1.9505

> <Gold.PLP.Chemscore.Metal>
0.0000

> <Gold.Chemscore.Hbonds>
donor molecule, donor type, donor heavy atom, donor atom, acceptor molecule, acceptor atom, score
      L1  H     6    35       P1  7948  0.94
      L1  H    15    24       P1 10957  0.93
      P1  H 11000 11005       L1    14  0.26
      L1  C    11    38       P1 10171  0.97
      L1  C    11    38       P1 10175  0.99

> <Gold.PLP.Chemscore.Internal.Correction>
0.3481

> <Gold.Rescore>
     Score         DG    S(hbond)    S(metal)    S(lipo)     H(rot)  DE(clash)    DE(int)     intcor
     15.29     -16.59       2.91        0.00      66.39       2.49       0.22       1.08       ----

> <Gold.Chemscore.Fitness>
15.2857

> <Gold.Chemscore.DG>
-16.5917

> <Gold.Chemscore.ZeroCoef>
-5.4800

> <Gold.Chemscore.Hbond>
2.9068

> <Gold.Chemscore.Metal>
0.0000

> <Gold.Chemscore.Lipo>
66.3898

> <Gold.Chemscore.Internal_Hbond>
0.0000

> <Gold.Chemscore.DEClash>
0.2243

> <Gold.Chemscore.DEInternal>
1.0817

> <Gold.Chemscore.Rot>
2.4862

> <Gold.Chemscore.Internal.Correction>
   9.000000E+99

> <Gold.Chemscore.Hbonds>
donor molecule, donor type, donor heavy atom, donor atom, acceptor molecule, acceptor atom, score
      L1  H     6    35       P1  7948  0.91
      L1  H    15    24       P1 10957  0.88
      P1  H 11000 11005       L1    14  0.26

> <Gold.Chemscore.Hbond.Weighted>
-9.7087

> <Gold.Chemscore.Metal.Weighted>
-0.0000

> <Gold.Chemscore.Lipo.Weighted>
-7.7676

> <Gold.Chemscore.Internal_Hbond.Weighted>
0.0000

> <Gold.Chemscore.DEClash.Weighted>
0.2243

> <Gold.Chemscore.DEInternal.Weighted>
1.0817

> <Gold.Chemscore.Rot.Weighted>
6.3646

> <Gold.Chemscore.Internal.Correction.Weighted>
   9.000000E+99

> <Gold.Protein.RotatedTorsions>
[ 6907 6896 6895 6894 ] final  -70.05 input  -60.11 | X-H torsion
[ 7974 7965 7964 7962 ] final  131.80 input  175.53 | X-H torsion
[ 8008 7997 7996 7995 ] final -155.20 input   59.86 | X-H torsion
[ 10167 10162 10161 10158 ] final   67.00 input  -65.29 | X-H torsion
[ 10718 10713 10712 10709 ] final  123.89 input   66.30 | X-H torsion
[ 10763 10752 10751 10750 ] final   -8.54 input  -60.55 | X-H torsion
[ 11005 11000 10999 10996 ] final   33.04 input  -57.11 | X-H torsion

> <Gold.Protein.ActiveResidues>
 VAL166  LYS551  ARG553  GLY616  TRP617  ASP618  TYR619  PRO620  LYS621  CYS622 
 ASP623  PHE694  ASN695  SER759  ASP760  ASP761  ALA762  ILE779  LEU786  VAL792 
 PHE793  MET794  SER795  GLU796  ALA797  LYS798  CYS799  TRP800  GLU811  SER814 

> <Gold.Protein.RotatedAtoms>
  150.7276  134.5508  159.5793 H   0  0  0  0  0  0  0  0  0  0  0  0  # atno 6907 bound_to 6896
  152.2996  134.7624  160.0370 H   0  0  0  0  0  0  0  0  0  0  0  0  # atno 6908 bound_to 6896
  151.8209  133.3359  159.3620 H   0  0  0  0  0  0  0  0  0  0  0  0  # atno 6909 bound_to 6896
  145.0035  139.4289  143.5280 H   0  0  0  0  0  0  0  0  0  0  0  0  # atno 7974 bound_to 7965
  155.6982  140.0763  157.2421 H   0  0  0  0  0  0  0  0  0  0  0  0  # atno 8008 bound_to 7997
  154.4077  140.1652  156.2214 H   0  0  0  0  0  0  0  0  0  0  0  0  # atno 8009 bound_to 7997
  155.9392  140.3385  155.6316 H   0  0  0  0  0  0  0  0  0  0  0  0  # atno 8010 bound_to 7997
  140.0943  144.4960  150.7078 H   0  0  0  0  0  0  0  0  0  0  0  0  # atno 10167 bound_to 10162
  157.5629  131.1088  150.8506 H   0  0  0  0  0  0  0  0  0  0  0  0  # atno 10718 bound_to 10713
  153.4420  135.7014  153.6163 H   0  0  0  0  0  0  0  0  0  0  0  0  # atno 10763 bound_to 10752
  153.4534  135.3753  155.2297 H   0  0  0  0  0  0  0  0  0  0  0  0  # atno 10764 bound_to 10752
  154.8727  135.4002  154.3820 H   0  0  0  0  0  0  0  0  0  0  0  0  # atno 10765 bound_to 10752
  140.2672  134.3124  155.7839 H   0  0  0  0  0  0  0  0  0  0  0  0  # atno 11005 bound_to 11000
  146.3456  139.9437  142.8737 LP  0  0  0  0  0  0  0  0  0  0  0  0  # atno 17320 bound_to 7965
  145.2120  140.9900  143.4095 LP  0  0  0  0  0  0  0  0  0  0  0  0  # atno 17321 bound_to 7965
  140.7012  143.2436  151.4860 LP  0  0  0  0  0  0  0  0  0  0  0  0  # atno 17342 bound_to 10162
  139.5707  144.1936  152.1831 LP  0  0  0  0  0  0  0  0  0  0  0  0  # atno 17343 bound_to 10162
  156.8999  130.5243  149.5283 LP  0  0  0  0  0  0  0  0  0  0  0  0  # atno 17370 bound_to 10713
  156.0680  130.5719  150.9327 LP  0  0  0  0  0  0  0  0  0  0  0  0  # atno 17371 bound_to 10713
  141.2182  133.7445  156.9278 LP  0  0  0  0  0  0  0  0  0  0  0  0  # atno 17394 bound_to 11000
  140.1408  134.9295  157.2464 LP  0  0  0  0  0  0  0  0  0  0  0  0  # atno 17395 bound_to 11000

$$$$
