AV-unprocessed.smi:1830|AV-procd|sdf|7455|dock1
  -GOLD-   22720 9143D 1   1.00000     0.00000
 Structure written by MMmdl.
 53 56  0  0  0  0  0  0  0  0  2 V2000
  150.9683  135.1802  155.8023 O   0  0  0  0  0  0  0  0  0  0  0  0
  150.2751  135.6124  154.8819 C   0  0  0  0  0  0  0  0  0  0  0  0
  150.4443  136.8197  154.3254 N   0  0  0  0  0  0  0  0  0  0  0  0
  151.4699  137.7906  154.6985 C   0  0  0  0  0  0  0  0  0  0  0  0
  150.8852  138.9888  155.4680 C   0  0  1  0  0  0  0  0  0  0  0  0
  151.7426  139.4417  156.6756 C   0  0  0  0  0  0  0  0  0  0  0  0
  151.1558  140.6228  157.2776 N   0  0  0  0  0  0  0  0  0  0  0  0
  151.8800  141.2262  158.3722 C   0  0  0  0  0  0  0  0  0  0  0  0
  151.2638  142.6300  158.5064 C   0  0  0  0  0  0  0  0  0  0  0  0
  150.5923  142.8886  157.1394 C   0  0  0  0  0  0  0  0  0  0  0  0
  151.0346  141.6811  156.3111 C   0  0  2  0  0  0  0  0  0  0  0  0
  150.1351  141.2512  155.1428 C   0  0  0  0  0  0  0  0  0  0  0  0
  150.7011  140.0774  154.5536 O   0  0  0  0  0  0  0  0  0  0  0  0
  149.2532  134.9538  154.3104 N   0  0  0  0  0  0  0  0  0  0  0  0
  148.7311  133.6761  154.6596 C   0  0  0  0  0  0  0  0  0  0  0  0
  149.3889  132.8476  155.6052 C   0  0  0  0  0  0  0  0  0  0  0  0
  148.8888  131.5613  155.8812 C   0  0  0  0  0  0  0  0  0  0  0  0
  147.7473  131.1137  155.1948 C   0  0  0  0  0  0  0  0  0  0  0  0
  147.1525  131.9192  154.2908 N   0  3  0  0  0  0  0  0  0  0  0  0
  147.5767  133.1728  153.9922 C   0  0  0  0  0  0  0  0  0  0  0  0
  146.8452  133.9051  153.0293 N   0  0  0  0  0  0  0  0  0  0  0  0
  146.8020  133.4619  151.6405 C   0  0  0  0  0  0  0  0  0  0  0  0
  145.6671  134.2606  151.0056 C   0  0  0  0  0  0  0  0  0  0  0  0
  144.6656  134.3742  152.1511 C   0  0  0  0  0  0  0  0  0  0  0  0
  145.5490  134.4649  153.4002 C   0  0  0  0  0  0  0  0  0  0  0  0
  149.8284  137.0881  153.5719 H   0  0  0  0  0  0  0  0  0  0  0  0
  152.2020  137.2798  155.3244 H   0  0  0  0  0  0  0  0  0  0  0  0
  152.0169  138.1420  153.8222 H   0  0  0  0  0  0  0  0  0  0  0  0
  149.8992  138.6981  155.8354 H   0  0  0  0  0  0  0  0  0  0  0  0
  151.8091  138.6408  157.4127 H   0  0  0  0  0  0  0  0  0  0  0  0
  152.7612  139.6639  156.3559 H   0  0  0  0  0  0  0  0  0  0  0  0
  151.7913  140.6387  159.2864 H   0  0  0  0  0  0  0  0  0  0  0  0
  152.9393  141.3086  158.1232 H   0  0  0  0  0  0  0  0  0  0  0  0
  150.5214  142.6561  159.3047 H   0  0  0  0  0  0  0  0  0  0  0  0
  152.0278  143.3736  158.7346 H   0  0  0  0  0  0  0  0  0  0  0  0
  149.5071  142.9047  157.2504 H   0  0  0  0  0  0  0  0  0  0  0  0
  150.9022  143.8324  156.6899 H   0  0  0  0  0  0  0  0  0  0  0  0
  152.0247  141.9036  155.9071 H   0  0  0  0  0  0  0  0  0  0  0  0
  149.1191  141.0441  155.4824 H   0  0  0  0  0  0  0  0  0  0  0  0
  150.0744  142.0391  154.3919 H   0  0  0  0  0  0  0  0  0  0  0  0
  148.7221  135.4691  153.6237 H   0  0  0  0  0  0  0  0  0  0  0  0
  150.2871  133.1705  156.1095 H   0  0  0  0  0  0  0  0  0  0  0  0
  149.3827  130.9236  156.5998 H   0  0  0  0  0  0  0  0  0  0  0  0
  147.2973  130.1416  155.3355 H   0  0  0  0  0  0  0  0  0  0  0  0
  147.7525  133.6385  151.1361 H   0  0  0  0  0  0  0  0  0  0  0  0
  146.5746  132.3964  151.5860 H   0  0  0  0  0  0  0  0  0  0  0  0
  146.0211  135.2525  150.7209 H   0  0  0  0  0  0  0  0  0  0  0  0
  145.2518  133.7798  150.1195 H   0  0  0  0  0  0  0  0  0  0  0  0
  143.9921  135.2251  152.0458 H   0  0  0  0  0  0  0  0  0  0  0  0
  144.0582  133.4691  152.1957 H   0  0  0  0  0  0  0  0  0  0  0  0
  145.0990  133.9389  154.2433 H   0  0  0  0  0  0  0  0  0  0  0  0
  145.6855  135.5087  153.6840 H   0  0  0  0  0  0  0  0  0  0  0  0
  146.3269  131.5648  153.8075 H   0  0  0  0  0  0  0  0  0  0  0  0
  1  2  2  0  0  0  0
  2  3  1  0  0  0  0
  2 14  1  0  0  0  0
  3  4  1  0  0  0  0
  3 26  1  0  0  0  0
  4  5  1  0  0  0  0
  4 27  1  0  0  0  0
  4 28  1  0  0  0  0
  5 13  1  0  0  0  0
  5  6  1  0  0  0  0
  5 29  1  0  0  0  0
  6  7  1  0  0  0  0
  6 30  1  0  0  0  0
  6 31  1  0  0  0  0
  7 11  1  0  0  0  0
  7  8  1  0  0  0  0
  8  9  1  0  0  0  0
  8 32  1  0  0  0  0
  8 33  1  0  0  0  0
  9 10  1  0  0  0  0
  9 34  1  0  0  0  0
  9 35  1  0  0  0  0
 10 11  1  0  0  0  0
 10 36  1  0  0  0  0
 10 37  1  0  0  0  0
 11 12  1  0  0  0  0
 11 38  1  0  0  0  0
 12 13  1  0  0  0  0
 12 39  1  0  0  0  0
 12 40  1  0  0  0  0
 14 15  1  0  0  0  0
 14 41  1  0  0  0  0
 15 20  1  0  0  0  0
 15 16  2  0  0  0  0
 16 17  1  0  0  0  0
 16 42  1  0  0  0  0
 17 18  2  0  0  0  0
 17 43  1  0  0  0  0
 18 19  1  0  0  0  0
 18 44  1  0  0  0  0
 19 20  2  0  0  0  0
 19 53  1  0  0  0  0
 20 21  1  0  0  0  0
 21 25  1  0  0  0  0
 21 22  1  0  0  0  0
 22 23  1  0  0  0  0
 22 45  1  0  0  0  0
 22 46  1  0  0  0  0
 23 24  1  0  0  0  0
 23 47  1  0  0  0  0
 23 48  1  0  0  0  0
 24 25  1  0  0  0  0
 24 49  1  0  0  0  0
 24 50  1  0  0  0  0
 25 51  1  0  0  0  0
 25 52  1  0  0  0  0
M  CHG  1  19   1
M  END
> <s_m_source_file>
AV-unprocessed.smi

> <i_m_source_file_index>
1830

> <i_lp_mmshare_version>
43012

> <i_f3d_flags>
0

> <s_epik_input>
W0NIMl0xW0NIMl1bQ0gyXVtDQEhdKE4xMilbQ0gyXU9bQ0BASF0oW0NIMl0yKVtDSDJdW05IXUMoPU8pW05IXWMzW2NIXVtjSF1bY0hdbmMzTjRbQ0gyXVtDSDJdW0NIMl1bQ0gyXTQ=

> <s_epik_cmdline>
J2VwaWtfcHl0aG9uJywgJy1waCcsICc3LjAnLCAnLXRuJywgJzgnLCAnLW1hJywgJzIwMCcsICctbWV0YWxfYmluZGluZycsICctaW1hZScsICc8aW5maWxlLm1hZT4nLCAnLW9tYWUnLCAnPG91dGZpbGUubWFlPic=

> <r_epik_Ionization_Penalty>
2.19264

> <r_epik_Ionization_Penalty_Charging>
1.12452

> <r_epik_Ionization_Penalty_Neutral>
1.06812

> <r_epik_State_Penalty>
2.334

> <r_epik_Charging_Adjusted_Penalty>
3.45852

> <i_epik_Tot_Q>
1

> <i_epik_Tot_abs_Q>
1

> <r_epik_Metal_State_Penalty>
2.41144

> <b_epik_Metal_Only>
0

> <s_lp_Force_Field>
OPLS_2005

> <r_lp_Energy>
84.0052

> <b_lp_Chiralities_Consistent>
1

> <s_lp_Variant>
AV-unprocessed.smi:1830-24

> <Gold.Version>
5.8.1

> <Gold.Id.Protein>
6NUR|6NUR_protein|mol2

> <Gold.PLP.Fitness>
48.3501

> <Gold.PLP.PLP>
-39.0511

> <Gold.PLP.part.hbond>
-5.2383

> <Gold.PLP.part.metal>
0.0000

> <Gold.PLP.part.buried>
-1.9242

> <Gold.PLP.part.nonpolar>
-31.8757

> <Gold.PLP.part.repulsive>
0.4033

> <Gold.PLP.ligand.clash>
0.0000

> <Gold.PLP.ligand.torsion>
0.8540

> <Gold.PLP.Chemscore.Hbond>
3.5309

> <Gold.PLP.Chemscore.CHOScore>
0.0000

> <Gold.PLP.Chemscore.Metal>
0.0000

> <Gold.Chemscore.Hbonds>
donor molecule, donor type, donor heavy atom, donor atom, acceptor molecule, acceptor atom, score
      L1  H     3    26       P1  7948  0.70
      L1  H    14    41       P1  7948  0.75
      P1  H  7989  7998       L1    13  0.75
      P1  H 10752 10763       L1     1  0.39

> <Gold.PLP.Chemscore.Internal.Correction>
0.4142

> <Gold.Rescore>
     Score         DG    S(hbond)    S(metal)    S(lipo)     H(rot)  DE(clash)    DE(int)     intcor
     18.34     -21.08       2.50        0.00      92.48       1.40       0.54       2.20       ----

> <Gold.Chemscore.Fitness>
18.3418

> <Gold.Chemscore.DG>
-21.0751

> <Gold.Chemscore.ZeroCoef>
-5.4800

> <Gold.Chemscore.Hbond>
2.4997

> <Gold.Chemscore.Metal>
0.0000

> <Gold.Chemscore.Lipo>
92.4772

> <Gold.Chemscore.Internal_Hbond>
0.0000

> <Gold.Chemscore.DEClash>
0.5378

> <Gold.Chemscore.DEInternal>
2.1955

> <Gold.Chemscore.Rot>
1.3959

> <Gold.Chemscore.Internal.Correction>
   9.000000E+99

> <Gold.Chemscore.Hbonds>
donor molecule, donor type, donor heavy atom, donor atom, acceptor molecule, acceptor atom, score
      L1  H     3    26       P1  7948  0.36
      L1  H    14    41       P1  7948  0.70
      P1  H  7989  7998       L1    13  0.09
      P1  H 10752 10763       L1     1  0.10

> <Gold.Chemscore.Hbond.Weighted>
-8.3488

> <Gold.Chemscore.Metal.Weighted>
-0.0000

> <Gold.Chemscore.Lipo.Weighted>
-10.8198

> <Gold.Chemscore.Internal_Hbond.Weighted>
0.0000

> <Gold.Chemscore.DEClash.Weighted>
0.5378

> <Gold.Chemscore.DEInternal.Weighted>
2.1955

> <Gold.Chemscore.Rot.Weighted>
3.5736

> <Gold.Chemscore.Internal.Correction.Weighted>
   9.000000E+99

> <Gold.Protein.RotatedTorsions>
[ 6907 6896 6895 6894 ] final  -25.41 input  -60.11 | X-H torsion
[ 7974 7965 7964 7962 ] final   -7.60 input  175.53 | X-H torsion
[ 8008 7997 7996 7995 ] final  -57.53 input   59.86 | X-H torsion
[ 10167 10162 10161 10158 ] final   89.71 input  -65.29 | X-H torsion
[ 10718 10713 10712 10709 ] final  139.48 input   66.30 | X-H torsion
[ 10763 10752 10751 10750 ] final   80.52 input  -60.55 | X-H torsion
[ 11005 11000 10999 10996 ] final -136.10 input  -57.11 | X-H torsion

> <Gold.Protein.ActiveResidues>
 VAL166  LYS551  ARG553  GLY616  TRP617  ASP618  TYR619  PRO620  LYS621  CYS622 
 ASP623  PHE694  ASN695  SER759  ASP760  ASP761  ALA762  ILE779  LEU786  VAL792 
 PHE793  MET794  SER795  GLU796  ALA797  LYS798  CYS799  TRP800  GLU811  SER814 

> <Gold.Protein.RotatedAtoms>
  151.1755  135.0337  159.8769 H   0  0  0  0  0  0  0  0  0  0  0  0  # atno 6907 bound_to 6896
  152.5447  134.1122  159.8373 H   0  0  0  0  0  0  0  0  0  0  0  0  # atno 6908 bound_to 6896
  151.1233  133.5042  159.2634 H   0  0  0  0  0  0  0  0  0  0  0  0  # atno 6909 bound_to 6896
  146.2303  140.2343  142.8341 H   0  0  0  0  0  0  0  0  0  0  0  0  # atno 7974 bound_to 7965
  154.4271  140.1105  156.5811 H   0  0  0  0  0  0  0  0  0  0  0  0  # atno 8008 bound_to 7997
  155.6111  140.3494  155.4603 H   0  0  0  0  0  0  0  0  0  0  0  0  # atno 8009 bound_to 7997
  156.0099  140.1217  157.0454 H   0  0  0  0  0  0  0  0  0  0  0  0  # atno 8010 bound_to 7997
  139.8545  144.6576  150.9130 H   0  0  0  0  0  0  0  0  0  0  0  0  # atno 10167 bound_to 10162
  157.4139  131.1031  151.0425 H   0  0  0  0  0  0  0  0  0  0  0  0  # atno 10718 bound_to 10713
  153.1041  135.4799  154.8919 H   0  0  0  0  0  0  0  0  0  0  0  0  # atno 10763 bound_to 10752
  154.7411  135.3082  154.8730 H   0  0  0  0  0  0  0  0  0  0  0  0  # atno 10764 bound_to 10752
  153.9337  135.6842  153.4798 H   0  0  0  0  0  0  0  0  0  0  0  0  # atno 10765 bound_to 10752
  140.8837  134.1900  157.4574 H   0  0  0  0  0  0  0  0  0  0  0  0  # atno 11005 bound_to 11000
  144.9533  140.8201  143.5558 LP  0  0  0  0  0  0  0  0  0  0  0  0  # atno 17320 bound_to 7965
  145.2306  139.2117  143.5045 LP  0  0  0  0  0  0  0  0  0  0  0  0  # atno 17321 bound_to 7965
  140.7783  143.3797  151.1498 LP  0  0  0  0  0  0  0  0  0  0  0  0  # atno 17342 bound_to 10162
  139.7433  143.8891  152.3056 LP  0  0  0  0  0  0  0  0  0  0  0  0  # atno 17343 bound_to 10162
  157.1379  130.6130  149.5547 LP  0  0  0  0  0  0  0  0  0  0  0  0  # atno 17370 bound_to 10713
  155.9859  130.4891  150.7054 LP  0  0  0  0  0  0  0  0  0  0  0  0  # atno 17371 bound_to 10713
  139.8722  134.9828  156.5172 LP  0  0  0  0  0  0  0  0  0  0  0  0  # atno 17394 bound_to 11000
  140.8431  133.8190  155.9094 LP  0  0  0  0  0  0  0  0  0  0  0  0  # atno 17395 bound_to 11000

$$$$
