AV-unprocessed.smi:203|AV-procd|sdf|1587|dock2
  -GOLD-   2262019483D 1   1.00000     0.00000
 Structure written by MMmdl.
 57 61  0  0  0  0  0  0  0  0  1 V2000
  146.4971  133.6100  156.6785 O   0  0  0  0  0  0  0  0  0  0  0  0
  146.9512  134.6580  156.2255 C   0  0  0  0  0  0  0  0  0  0  0  0
  146.1992  135.9780  156.2500 C   0  0  0  0  0  0  0  0  0  0  0  0
  147.0593  136.9041  155.3673 C   0  0  2  0  0  0  0  0  0  0  0  0
  146.3819  137.3060  154.0185 C   0  0  2  0  0  0  0  0  0  0  0  0
  146.0154  136.0790  153.1417 C   0  0  0  0  0  0  0  0  0  0  0  0
  145.3511  136.4975  151.8235 C   0  0  0  0  0  0  0  0  0  0  0  0
  146.2552  137.4791  151.0709 C   0  0  0  0  0  0  0  0  0  0  0  0
  146.5920  138.6829  151.9603 C   0  0  0  0  0  0  0  0  0  0  0  0
  147.1836  138.2586  153.2290 N   0  0  0  0  0  0  0  0  0  0  0  0
  147.6817  139.3233  153.8964 C   0  0  0  0  0  0  0  0  0  0  0  0
  146.8584  140.3865  154.0677 N   0  0  0  0  0  0  0  0  0  0  0  0
  147.2959  141.4705  154.7160 C   0  0  0  0  0  0  0  0  0  0  0  0
  148.4928  141.6897  155.2650 N   0  0  0  0  0  0  0  0  0  0  0  0
  149.3195  140.6173  155.0980 C   0  0  0  0  0  0  0  0  0  0  0  0
  148.9988  139.4027  154.4299 C   0  0  0  0  0  0  0  0  0  0  0  0
  150.0903  138.5429  154.4566 N   0  0  0  0  0  0  0  0  0  0  0  0
  151.0046  139.2113  155.1056 C   0  0  0  0  0  0  0  0  0  0  0  0
  150.6254  140.4648  155.5286 N   0  0  0  0  0  0  0  0  0  0  0  0
  151.4372  141.4121  156.2715 C   0  0  0  0  0  0  0  0  0  0  0  0
  151.8500  140.8735  157.6578 C   0  0  1  0  0  0  0  0  0  0  0  0
  152.7589  139.7988  157.5244 O   0  0  0  0  0  0  0  0  0  0  0  0
  152.4712  141.9333  158.5913 C   0  0  2  0  0  0  0  0  0  0  0  0
  152.8446  141.4101  159.9842 C   0  0  0  0  0  0  0  0  0  0  0  0
  152.6011  142.5935  160.9121 C   0  0  0  0  0  0  0  0  0  0  0  0
  152.0764  143.6922  159.9894 C   0  0  0  0  0  0  0  0  0  0  0  0
  151.5586  142.9842  158.8755 O   0  0  0  0  0  0  0  0  0  0  0  0
  148.4021  136.1577  155.1978 C   0  0  0  0  0  0  0  0  0  0  0  0
  148.1461  134.8072  155.6583 N   0  0  0  0  0  0  0  0  0  0  0  0
  145.1745  135.8665  155.8959 H   0  0  0  0  0  0  0  0  0  0  0  0
  146.1602  136.3417  157.2773 H   0  0  0  0  0  0  0  0  0  0  0  0
  147.2415  137.8063  155.9521 H   0  0  0  0  0  0  0  0  0  0  0  0
  145.4466  137.8096  154.2651 H   0  0  0  0  0  0  0  0  0  0  0  0
  146.9078  135.4957  152.9143 H   0  0  0  0  0  0  0  0  0  0  0  0
  145.3415  135.4081  153.6730 H   0  0  0  0  0  0  0  0  0  0  0  0
  145.1523  135.6206  151.2067 H   0  0  0  0  0  0  0  0  0  0  0  0
  144.3864  136.9639  152.0276 H   0  0  0  0  0  0  0  0  0  0  0  0
  147.1749  136.9766  150.7683 H   0  0  0  0  0  0  0  0  0  0  0  0
  145.7665  137.8150  150.1562 H   0  0  0  0  0  0  0  0  0  0  0  0
  147.2798  139.3438  151.4303 H   0  0  0  0  0  0  0  0  0  0  0  0
  145.6862  139.2586  152.1563 H   0  0  0  0  0  0  0  0  0  0  0  0
  146.5846  142.2780  154.8091 H   0  0  0  0  0  0  0  0  0  0  0  0
  151.9877  138.8059  155.2956 H   0  0  0  0  0  0  0  0  0  0  0  0
  152.3172  141.6556  155.6749 H   0  0  0  0  0  0  0  0  0  0  0  0
  150.8674  142.3358  156.3726 H   0  0  0  0  0  0  0  0  0  0  0  0
  150.9700  140.4601  158.1524 H   0  0  0  0  0  0  0  0  0  0  0  0
  152.2910  138.9924  157.6806 H   0  0  0  0  0  0  0  0  0  0  0  0
  153.3661  142.3613  158.1346 H   0  0  0  0  0  0  0  0  0  0  0  0
  152.2093  140.5757  160.2825 H   0  0  0  0  0  0  0  0  0  0  0  0
  153.8779  141.0634  160.0174 H   0  0  0  0  0  0  0  0  0  0  0  0
  151.8513  142.3322  161.6598 H   0  0  0  0  0  0  0  0  0  0  0  0
  153.5037  142.9063  161.4375 H   0  0  0  0  0  0  0  0  0  0  0  0
  151.3142  144.3120  160.4620 H   0  0  0  0  0  0  0  0  0  0  0  0
  152.8893  144.3407  159.6588 H   0  0  0  0  0  0  0  0  0  0  0  0
  148.7678  136.1556  154.1709 H   0  0  0  0  0  0  0  0  0  0  0  0
  149.1760  136.6054  155.8225 H   0  0  0  0  0  0  0  0  0  0  0  0
  148.8146  134.0590  155.5435 H   0  0  0  0  0  0  0  0  0  0  0  0
  1  2  2  0  0  0  0
  2 29  1  0  0  0  0
  2  3  1  0  0  0  0
  3  4  1  0  0  0  0
  3 30  1  0  0  0  0
  3 31  1  0  0  0  0
  4  5  1  0  0  0  0
  4 28  1  0  0  0  0
  4 32  1  0  0  0  0
  5 10  1  0  0  0  0
  5  6  1  0  0  0  0
  5 33  1  0  0  0  0
  6  7  1  0  0  0  0
  6 34  1  0  0  0  0
  6 35  1  0  0  0  0
  7  8  1  0  0  0  0
  7 36  1  0  0  0  0
  7 37  1  0  0  0  0
  8  9  1  0  0  0  0
  8 38  1  0  0  0  0
  8 39  1  0  0  0  0
  9 10  1  0  0  0  0
  9 40  1  0  0  0  0
  9 41  1  0  0  0  0
 10 11  1  0  0  0  0
 11 16  1  0  0  0  0
 11 12  2  0  0  0  0
 12 13  1  0  0  0  0
 13 14  2  0  0  0  0
 13 42  1  0  0  0  0
 14 15  1  0  0  0  0
 15 19  1  0  0  0  0
 15 16  2  0  0  0  0
 16 17  1  0  0  0  0
 17 18  2  0  0  0  0
 18 19  1  0  0  0  0
 18 43  1  0  0  0  0
 19 20  1  0  0  0  0
 20 21  1  0  0  0  0
 20 44  1  0  0  0  0
 20 45  1  0  0  0  0
 21 22  1  0  0  0  0
 21 23  1  0  0  0  0
 21 46  1  0  0  0  0
 22 47  1  0  0  0  0
 23 27  1  0  0  0  0
 23 24  1  0  0  0  0
 23 48  1  0  0  0  0
 24 25  1  0  0  0  0
 24 49  1  0  0  0  0
 24 50  1  0  0  0  0
 25 26  1  0  0  0  0
 25 51  1  0  0  0  0
 25 52  1  0  0  0  0
 26 27  1  0  0  0  0
 26 53  1  0  0  0  0
 26 54  1  0  0  0  0
 28 29  1  0  0  0  0
 28 55  1  0  0  0  0
 28 56  1  0  0  0  0
 29 57  1  0  0  0  0
M  END
> <s_m_source_file>
AV-unprocessed.smi

> <i_m_source_file_index>
203

> <i_lp_mmshare_version>
43012

> <i_f3d_flags>
0

> <s_epik_input>
Tz1DMVtDSDJdW0NASF0oW0NIMl1bTkhdMSlbQ0BASF0yW0NIMl1bQ0gyXVtDSDJdW0NIMl1OMmMobltjSF1uMyljKGMzNCluW2NIXW40W0NIMl1bQ0BIXShbT0hdKVtDQEBIXTVbQ0gyXVtDSDJdW0NIMl1PNQ==

> <s_epik_cmdline>
J2VwaWtfcHl0aG9uJywgJy1waCcsICc3LjAnLCAnLXRuJywgJzgnLCAnLW1hJywgJzIwMCcsICctbWV0YWxfYmluZGluZycsICctaW1hZScsICc8aW5maWxlLm1hZT4nLCAnLW9tYWUnLCAnPG91dGZpbGUubWFlPic=

> <r_lp_tautomer_probability>
1

> <r_epik_Ionization_Penalty>
0.00175146

> <r_epik_Ionization_Penalty_Charging>
0

> <r_epik_Ionization_Penalty_Neutral>
0.00175146

> <r_epik_State_Penalty>
0.00109045

> <r_epik_Charging_Adjusted_Penalty>
0.00109045

> <i_epik_Tot_Q>
0

> <i_epik_Tot_abs_Q>
0

> <r_epik_Metal_State_Penalty>
-0

> <b_epik_Metal_Only>
0

> <s_lp_Force_Field>
OPLS_2005

> <r_lp_Energy>
57.3727

> <b_lp_Chiralities_Consistent>
1

> <s_lp_Variant>
AV-unprocessed.smi:203-6

> <Gold.Version>
5.8.1

> <Gold.Id.Protein>
6NUR|6NUR_protein|mol2

> <Gold.PLP.Fitness>
41.0728

> <Gold.PLP.PLP>
-38.7546

> <Gold.PLP.part.hbond>
-1.0000

> <Gold.PLP.part.metal>
0.0000

> <Gold.PLP.part.buried>
-2.6249

> <Gold.PLP.part.nonpolar>
-37.0754

> <Gold.PLP.part.repulsive>
1.6823

> <Gold.PLP.ligand.clash>
0.0000

> <Gold.PLP.ligand.torsion>
0.4783

> <Gold.PLP.Chemscore.Hbond>
1.0000

> <Gold.PLP.Chemscore.CHOScore>
0.0000

> <Gold.PLP.Chemscore.Metal>
0.0000

> <Gold.Chemscore.Hbonds>
donor molecule, donor type, donor heavy atom, donor atom, acceptor molecule, acceptor atom, score
      P1  H  7997  8009       L1    22  1.00

> <Gold.PLP.Chemscore.Internal.Correction>
0.2749

> <Gold.Rescore>
     Score         DG    S(hbond)    S(metal)    S(lipo)     H(rot)  DE(clash)    DE(int)     intcor
     10.80     -11.85       0.98        0.00      85.79       2.72       0.63       0.42       ----

> <Gold.Chemscore.Fitness>
10.7951

> <Gold.Chemscore.DG>
-11.8485

> <Gold.Chemscore.ZeroCoef>
-5.4800

> <Gold.Chemscore.Hbond>
0.9839

> <Gold.Chemscore.Metal>
0.0000

> <Gold.Chemscore.Lipo>
85.7935

> <Gold.Chemscore.Internal_Hbond>
0.0000

> <Gold.Chemscore.DEClash>
0.6318

> <Gold.Chemscore.DEInternal>
0.4216

> <Gold.Chemscore.Rot>
2.7171

> <Gold.Chemscore.Internal.Correction>
   9.000000E+99

> <Gold.Chemscore.Hbonds>
donor molecule, donor type, donor heavy atom, donor atom, acceptor molecule, acceptor atom, score
      P1  H  7997  8009       L1    22  0.96

> <Gold.Chemscore.Hbond.Weighted>
-3.2863

> <Gold.Chemscore.Metal.Weighted>
-0.0000

> <Gold.Chemscore.Lipo.Weighted>
-10.0378

> <Gold.Chemscore.Internal_Hbond.Weighted>
0.0000

> <Gold.Chemscore.DEClash.Weighted>
0.6318

> <Gold.Chemscore.DEInternal.Weighted>
0.4216

> <Gold.Chemscore.Rot.Weighted>
6.9557

> <Gold.Chemscore.Internal.Correction.Weighted>
   9.000000E+99

> <Gold.Protein.RotatedTorsions>
[ 6907 6896 6895 6894 ] final  134.99 input  -60.11 | X-H torsion
[ 7974 7965 7964 7962 ] final  -11.80 input  175.53 | X-H torsion
[ 8008 7997 7996 7995 ] final -178.75 input   59.86 | X-H torsion
[ 10167 10162 10161 10158 ] final   13.67 input  -65.29 | X-H torsion
[ 10718 10713 10712 10709 ] final   89.74 input   66.30 | X-H torsion
[ 10763 10752 10751 10750 ] final  142.23 input  -60.55 | X-H torsion
[ 11005 11000 10999 10996 ] final -131.27 input  -57.11 | X-H torsion

> <Gold.Protein.ActiveResidues>
 VAL166  LYS551  ARG553  GLY616  TRP617  ASP618  TYR619  PRO620  LYS621  CYS622 
 ASP623  PHE694  ASN695  SER759  ASP760  ASP761  ALA762  ILE779  LEU786  VAL792 
 PHE793  MET794  SER795  GLU796  ALA797  LYS798  CYS799  TRP800  GLU811  SER814 

> <Gold.Protein.RotatedAtoms>
  152.3053  133.5697  159.5645 H   0  0  0  0  0  0  0  0  0  0  0  0  # atno 6907 bound_to 6896
  150.7297  134.0231  159.3717 H   0  0  0  0  0  0  0  0  0  0  0  0  # atno 6908 bound_to 6896
  151.8128  135.0676  160.0466 H   0  0  0  0  0  0  0  0  0  0  0  0  # atno 6909 bound_to 6896
  146.2175  140.2964  142.8372 H   0  0  0  0  0  0  0  0  0  0  0  0  # atno 7974 bound_to 7965
  156.0225  140.1264  157.0342 H   0  0  0  0  0  0  0  0  0  0  0  0  # atno 8008 bound_to 7997
  154.4317  140.1066  156.6054 H   0  0  0  0  0  0  0  0  0  0  0  0  # atno 8009 bound_to 7997
  155.5924  140.3469  155.4572 H   0  0  0  0  0  0  0  0  0  0  0  0  # atno 8010 bound_to 7997
  140.5987  143.8648  150.6944 H   0  0  0  0  0  0  0  0  0  0  0  0  # atno 10167 bound_to 10162
  157.6956  131.0344  150.3471 H   0  0  0  0  0  0  0  0  0  0  0  0  # atno 10718 bound_to 10713
  153.9524  135.2968  155.3438 H   0  0  0  0  0  0  0  0  0  0  0  0  # atno 10763 bound_to 10752
  154.7419  135.5021  153.9140 H   0  0  0  0  0  0  0  0  0  0  0  0  # atno 10764 bound_to 10752
  153.0987  135.6728  153.9822 H   0  0  0  0  0  0  0  0  0  0  0  0  # atno 10765 bound_to 10752
  140.9273  134.1366  157.4264 H   0  0  0  0  0  0  0  0  0  0  0  0  # atno 11005 bound_to 11000
  144.9089  140.7733  143.5820 LP  0  0  0  0  0  0  0  0  0  0  0  0  # atno 17320 bound_to 7965
  145.2894  139.1889  143.4748 LP  0  0  0  0  0  0  0  0  0  0  0  0  # atno 17321 bound_to 7965
  140.2189  143.3824  152.1659 LP  0  0  0  0  0  0  0  0  0  0  0  0  # atno 17342 bound_to 10162
  139.5276  144.7121  151.5173 LP  0  0  0  0  0  0  0  0  0  0  0  0  # atno 17343 bound_to 10162
  156.3925  130.3900  149.7019 LP  0  0  0  0  0  0  0  0  0  0  0  0  # atno 17370 bound_to 10713
  156.4365  130.7840  151.2861 LP  0  0  0  0  0  0  0  0  0  0  0  0  # atno 17371 bound_to 10713
  139.8788  134.9993  156.5945 LP  0  0  0  0  0  0  0  0  0  0  0  0  # atno 17394 bound_to 11000
  140.7909  133.8583  155.8645 LP  0  0  0  0  0  0  0  0  0  0  0  0  # atno 17395 bound_to 11000

$$$$
