AV-unprocessed.smi:2880|AV-procd|sdf|11052|dock3
  -GOLD-   2272015523D 1   1.00000     0.00000
 Structure written by MMmdl.
 47 48  0  0  0  0  0  0  0  0  1 V2000
  153.4682  142.7295  159.7502 C   0  0  0  0  0  0  0  0  0  0  0  0
  152.2962  143.6667  159.3963 C   0  0  0  0  0  0  0  0  0  0  0  0
  151.8564  144.3997  160.6864 C   0  0  0  0  0  0  0  0  0  0  0  0
  152.7625  144.7123  158.3661 C   0  0  0  0  0  0  0  0  0  0  0  0
  151.2047  142.8773  158.8090 N   0  0  0  0  0  0  0  0  0  0  0  0
  151.1857  141.5193  158.5359 C   0  0  0  0  0  0  0  0  0  0  0  0
  149.9840  141.2180  157.9606 C   0  0  0  0  0  0  0  0  0  0  0  0
  149.3271  142.4756  157.9049 C   0  0  0  0  0  0  0  0  0  0  0  0
  148.0244  142.5906  157.3561 N   0  0  0  0  0  0  0  0  0  0  0  0
  146.8782  142.8422  158.0115 C   0  0  0  0  0  0  0  0  0  0  0  0
  146.7781  143.0042  159.2282 O   0  0  0  0  0  0  0  0  0  0  0  0
  145.8374  142.8881  157.1664 N   0  0  0  0  0  0  0  0  0  0  0  0
  144.4424  143.1552  157.5263 C   0  0  1  0  0  0  0  0  0  0  0  0
  144.3397  144.5268  158.2236 C   0  0  0  0  0  0  0  0  0  0  0  0
  144.5869  145.6938  157.2521 C   0  0  0  0  0  0  0  0  0  0  0  0
  143.6493  145.6144  156.0387 C   0  0  0  0  0  0  0  0  0  0  0  0
  143.7655  144.2566  155.3278 C   0  0  0  0  0  0  0  0  0  0  0  0
  143.4987  143.0823  156.2967 C   0  0  1  0  0  0  0  0  0  0  0  0
  143.5540  141.7144  155.5850 C   0  0  0  0  0  0  0  0  0  0  0  0
  144.8075  141.5226  154.9629 O   0  0  0  0  0  0  0  0  0  0  0  0
  150.0555  143.4657  158.3978 N   0  0  0  0  0  0  0  0  0  0  0  0
  154.2908  143.2804  160.2076 H   0  0  0  0  0  0  0  0  0  0  0  0
  153.8691  142.2275  158.8693 H   0  0  0  0  0  0  0  0  0  0  0  0
  153.1575  141.9585  160.4564 H   0  0  0  0  0  0  0  0  0  0  0  0
  151.5039  143.6995  161.4450 H   0  0  0  0  0  0  0  0  0  0  0  0
  151.0550  145.1144  160.4935 H   0  0  0  0  0  0  0  0  0  0  0  0
  152.6839  144.9596  161.1234 H   0  0  0  0  0  0  0  0  0  0  0  0
  153.5704  145.3274  158.7633 H   0  0  0  0  0  0  0  0  0  0  0  0
  151.9479  145.3806  158.0850 H   0  0  0  0  0  0  0  0  0  0  0  0
  153.1304  144.2407  157.4541 H   0  0  0  0  0  0  0  0  0  0  0  0
  152.0242  140.8805  158.7706 H   0  0  0  0  0  0  0  0  0  0  0  0
  149.6354  140.2514  157.6283 H   0  0  0  0  0  0  0  0  0  0  0  0
  147.9586  142.4695  156.3564 H   0  0  0  0  0  0  0  0  0  0  0  0
  146.0230  142.7378  156.1857 H   0  0  0  0  0  0  0  0  0  0  0  0
  144.1123  142.4069  158.2491 H   0  0  0  0  0  0  0  0  0  0  0  0
  143.3453  144.6319  158.6598 H   0  0  0  0  0  0  0  0  0  0  0  0
  145.0411  144.5801  159.0572 H   0  0  0  0  0  0  0  0  0  0  0  0
  144.4444  146.6431  157.7691 H   0  0  0  0  0  0  0  0  0  0  0  0
  145.6238  145.6824  156.9142 H   0  0  0  0  0  0  0  0  0  0  0  0
  142.6194  145.7682  156.3631 H   0  0  0  0  0  0  0  0  0  0  0  0
  143.8766  146.4205  155.3406 H   0  0  0  0  0  0  0  0  0  0  0  0
  143.0588  144.2286  154.4979 H   0  0  0  0  0  0  0  0  0  0  0  0
  144.7579  144.1587  154.8860 H   0  0  0  0  0  0  0  0  0  0  0  0
  142.4831  143.1999  156.6790 H   0  0  0  0  0  0  0  0  0  0  0  0
  143.3739  140.8977  156.2846 H   0  0  0  0  0  0  0  0  0  0  0  0
  142.7829  141.6560  154.8161 H   0  0  0  0  0  0  0  0  0  0  0  0
  144.6720  141.0565  154.1521 H   0  0  0  0  0  0  0  0  0  0  0  0
  1  2  1  0  0  0  0
  1 22  1  0  0  0  0
  1 23  1  0  0  0  0
  1 24  1  0  0  0  0
  2  3  1  0  0  0  0
  2  4  1  0  0  0  0
  2  5  1  0  0  0  0
  3 25  1  0  0  0  0
  3 26  1  0  0  0  0
  3 27  1  0  0  0  0
  4 28  1  0  0  0  0
  4 29  1  0  0  0  0
  4 30  1  0  0  0  0
  5 21  1  0  0  0  0
  5  6  1  0  0  0  0
  6  7  2  0  0  0  0
  6 31  1  0  0  0  0
  7  8  1  0  0  0  0
  7 32  1  0  0  0  0
  8  9  1  0  0  0  0
  8 21  2  0  0  0  0
  9 10  1  0  0  0  0
  9 33  1  0  0  0  0
 10 11  2  0  0  0  0
 10 12  1  0  0  0  0
 12 13  1  0  0  0  0
 12 34  1  0  0  0  0
 13 18  1  0  0  0  0
 13 14  1  0  0  0  0
 13 35  1  0  0  0  0
 14 15  1  0  0  0  0
 14 36  1  0  0  0  0
 14 37  1  0  0  0  0
 15 16  1  0  0  0  0
 15 38  1  0  0  0  0
 15 39  1  0  0  0  0
 16 17  1  0  0  0  0
 16 40  1  0  0  0  0
 16 41  1  0  0  0  0
 17 18  1  0  0  0  0
 17 42  1  0  0  0  0
 17 43  1  0  0  0  0
 18 19  1  0  0  0  0
 18 44  1  0  0  0  0
 19 20  1  0  0  0  0
 19 45  1  0  0  0  0
 19 46  1  0  0  0  0
 20 47  1  0  0  0  0
M  END
> <s_m_source_file>
AV-unprocessed.smi

> <i_m_source_file_index>
2880

> <i_lp_mmshare_version>
43012

> <i_f3d_flags>
0

> <s_epik_input>
W0NIM11DKFtDSDNdKShbQ0gzXSluMVtjSF1bY0hdYyhuMSlbTkhdQyg9TylbTkhdW0NAQEhdMltDSDJdW0NIMl1bQ0gyXVtDSDJdW0NASF0yW0NIMl1bT0hd

> <s_epik_cmdline>
J2VwaWtfcHl0aG9uJywgJy1waCcsICc3LjAnLCAnLXRuJywgJzgnLCAnLW1hJywgJzIwMCcsICctbWV0YWxfYmluZGluZycsICctaW1hZScsICc8aW5maWxlLm1hZT4nLCAnLW9tYWUnLCAnPG91dGZpbGUubWFlPic=

> <r_lp_tautomer_probability>
1

> <r_epik_Ionization_Penalty>
3.89283e-05

> <r_epik_Ionization_Penalty_Charging>
0

> <r_epik_Ionization_Penalty_Neutral>
3.89283e-05

> <r_epik_State_Penalty>
-0

> <r_epik_Charging_Adjusted_Penalty>
0

> <i_epik_Tot_Q>
0

> <i_epik_Tot_abs_Q>
0

> <r_epik_Metal_State_Penalty>
-0

> <b_epik_Metal_Only>
0

> <s_lp_Force_Field>
OPLS_2005

> <r_lp_Energy>
20.5246

> <b_lp_Chiralities_Consistent>
1

> <s_lp_Variant>
AV-unprocessed.smi:2880-2

> <Gold.Version>
5.8.1

> <Gold.Id.Protein>
6NUR|6NUR_protein|mol2

> <Gold.PLP.Fitness>
35.1311

> <Gold.PLP.PLP>
-33.4917

> <Gold.PLP.part.hbond>
-2.0095

> <Gold.PLP.part.metal>
0.0000

> <Gold.PLP.part.buried>
-3.4813

> <Gold.PLP.part.nonpolar>
-27.7953

> <Gold.PLP.part.repulsive>
0.3274

> <Gold.PLP.ligand.clash>
0.0000

> <Gold.PLP.ligand.torsion>
0.7001

> <Gold.PLP.Chemscore.Hbond>
1.0000

> <Gold.PLP.Chemscore.CHOScore>
0.0000

> <Gold.PLP.Chemscore.Metal>
0.0000

> <Gold.Chemscore.Hbonds>
donor molecule, donor type, donor heavy atom, donor atom, acceptor molecule, acceptor atom, score
      L1  H    20    47       P1 10175  1.00

> <Gold.PLP.Chemscore.Internal.Correction>
0.0397

> <Gold.Rescore>
     Score         DG    S(hbond)    S(metal)    S(lipo)     H(rot)  DE(clash)    DE(int)     intcor
     10.84     -12.97       0.92        0.00      80.90       1.97       0.03       2.10       ----

> <Gold.Chemscore.Fitness>
10.8376

> <Gold.Chemscore.DG>
-12.9699

> <Gold.Chemscore.ZeroCoef>
-5.4800

> <Gold.Chemscore.Hbond>
0.9162

> <Gold.Chemscore.Metal>
0.0000

> <Gold.Chemscore.Lipo>
80.9032

> <Gold.Chemscore.Internal_Hbond>
0.0000

> <Gold.Chemscore.DEClash>
0.0309

> <Gold.Chemscore.DEInternal>
2.1013

> <Gold.Chemscore.Rot>
1.9672

> <Gold.Chemscore.Internal.Correction>
   9.000000E+99

> <Gold.Chemscore.Hbonds>
donor molecule, donor type, donor heavy atom, donor atom, acceptor molecule, acceptor atom, score
      L1  H    20    47       P1 10175  0.80

> <Gold.Chemscore.Hbond.Weighted>
-3.0602

> <Gold.Chemscore.Metal.Weighted>
-0.0000

> <Gold.Chemscore.Lipo.Weighted>
-9.4657

> <Gold.Chemscore.Internal_Hbond.Weighted>
0.0000

> <Gold.Chemscore.DEClash.Weighted>
0.0309

> <Gold.Chemscore.DEInternal.Weighted>
2.1013

> <Gold.Chemscore.Rot.Weighted>
5.0360

> <Gold.Chemscore.Internal.Correction.Weighted>
   9.000000E+99

> <Gold.Protein.RotatedTorsions>
[ 6907 6896 6895 6894 ] final -169.66 input  -60.11 | X-H torsion
[ 7974 7965 7964 7962 ] final -144.93 input  175.53 | X-H torsion
[ 8008 7997 7996 7995 ] final  128.65 input   59.86 | X-H torsion
[ 10167 10162 10161 10158 ] final -168.41 input  -65.29 | X-H torsion
[ 10718 10713 10712 10709 ] final -154.16 input   66.30 | X-H torsion
[ 10763 10752 10751 10750 ] final   43.71 input  -60.55 | X-H torsion
[ 11005 11000 10999 10996 ] final  176.79 input  -57.11 | X-H torsion

> <Gold.Protein.ActiveResidues>
 VAL166  LYS551  ARG553  GLY616  TRP617  ASP618  TYR619  PRO620  LYS621  CYS622 
 ASP623  PHE694  ASN695  SER759  ASP760  ASP761  ALA762  ILE779  LEU786  VAL792 
 PHE793  MET794  SER795  GLU796  ALA797  LYS798  CYS799  TRP800  GLU811  SER814 

> <Gold.Protein.RotatedAtoms>
  151.4952  133.3516  159.2859 H   0  0  0  0  0  0  0  0  0  0  0  0  # atno 6907 bound_to 6896
  150.8808  134.8201  159.7235 H   0  0  0  0  0  0  0  0  0  0  0  0  # atno 6908 bound_to 6896
  152.4761  134.4849  159.9729 H   0  0  0  0  0  0  0  0  0  0  0  0  # atno 6909 bound_to 6896
  144.8262  140.5647  143.5545 H   0  0  0  0  0  0  0  0  0  0  0  0  # atno 7974 bound_to 7965
  156.2919  140.2639  156.2471 H   0  0  0  0  0  0  0  0  0  0  0  0  # atno 8008 bound_to 7997
  154.9920  140.0388  157.2342 H   0  0  0  0  0  0  0  0  0  0  0  0  # atno 8009 bound_to 7997
  154.7678  140.2772  155.6167 H   0  0  0  0  0  0  0  0  0  0  0  0  # atno 8010 bound_to 7997
  139.5987  144.1057  152.1718 H   0  0  0  0  0  0  0  0  0  0  0  0  # atno 10167 bound_to 10162
  156.4956  130.8367  151.2588 H   0  0  0  0  0  0  0  0  0  0  0  0  # atno 10718 bound_to 10713
  152.9855  135.6093  154.3155 H   0  0  0  0  0  0  0  0  0  0  0  0  # atno 10763 bound_to 10752
  154.2868  135.2775  155.2674 H   0  0  0  0  0  0  0  0  0  0  0  0  # atno 10764 bound_to 10752
  154.4988  135.5872  153.6571 H   0  0  0  0  0  0  0  0  0  0  0  0  # atno 10765 bound_to 10752
  140.3770  134.6980  157.4428 H   0  0  0  0  0  0  0  0  0  0  0  0  # atno 11005 bound_to 11000
  145.4994  139.1484  143.3665 LP  0  0  0  0  0  0  0  0  0  0  0  0  # atno 17320 bound_to 7965
  146.2567  140.5134  142.8870 LP  0  0  0  0  0  0  0  0  0  0  0  0  # atno 17321 bound_to 7965
  140.0648  144.5827  150.7235 LP  0  0  0  0  0  0  0  0  0  0  0  0  # atno 17342 bound_to 10162
  140.7232  143.2610  151.4208 LP  0  0  0  0  0  0  0  0  0  0  0  0  # atno 17343 bound_to 10162
  157.7469  130.9999  150.2906 LP  0  0  0  0  0  0  0  0  0  0  0  0  # atno 17370 bound_to 10713
  156.3383  130.3811  149.7431 LP  0  0  0  0  0  0  0  0  0  0  0  0  # atno 17371 bound_to 10713
  140.0507  134.6134  155.8865 LP  0  0  0  0  0  0  0  0  0  0  0  0  # atno 17394 bound_to 11000
  141.1936  133.6579  156.5555 LP  0  0  0  0  0  0  0  0  0  0  0  0  # atno 17395 bound_to 11000

$$$$
