AV-unprocessed.smi:2574|AV-procd|sdf|10114|dock4
  -GOLD-   2272014133D 1   1.00000     0.00000
 Structure written by MMmdl.
 38 40  0  0  0  0  0  0  0  0  1 V2000
  152.4832  138.8750  158.5032 O   0  0  0  0  0  0  0  0  0  0  0  0
  152.4702  140.0518  158.8656 C   0  0  0  0  0  0  0  0  0  0  0  0
  153.4296  140.6131  159.8291 C   0  0  0  0  0  0  0  0  0  0  0  0
  154.4920  139.6817  160.4069 C   0  0  0  0  0  0  0  0  0  0  0  0
  155.1555  140.2536  161.4128 F   0  0  0  0  0  0  0  0  0  0  0  0
  153.9348  138.5626  160.8713 F   0  0  0  0  0  0  0  0  0  0  0  0
  155.3796  139.3478  159.4696 F   0  0  0  0  0  0  0  0  0  0  0  0
  153.3509  141.9187  160.1848 C   0  0  0  0  0  0  0  0  0  0  0  0
  152.3235  142.7703  159.6200 C   0  0  0  0  0  0  0  0  0  0  0  0
  152.1720  144.2216  159.9761 C   0  0  0  0  0  0  0  0  0  0  0  0
  150.9077  144.9965  159.6820 C   0  0  0  0  0  0  0  0  0  0  0  0
  152.1763  145.3016  158.9195 C   0  0  0  0  0  0  0  0  0  0  0  0
  151.4871  142.2772  158.7703 N   0  0  0  0  0  0  0  0  0  0  0  0
  151.5523  140.9483  158.3981 N   0  0  0  0  0  0  0  0  0  0  0  0
  150.5112  140.5473  157.4431 C   0  0  0  0  0  0  0  0  0  0  0  0
  150.6456  141.2882  156.0949 C   0  0  2  0  0  0  0  0  0  0  0  0
  150.6752  142.6820  156.3340 O   0  0  0  0  0  0  0  0  0  0  0  0
  149.5098  140.9136  155.1543 C   0  0  0  0  0  0  0  0  0  0  0  0
  148.6064  141.9047  154.7134 C   0  0  0  0  0  0  0  0  0  0  0  0
  147.5588  141.5701  153.8334 C   0  0  0  0  0  0  0  0  0  0  0  0
  147.4091  140.2429  153.3877 C   0  0  0  0  0  0  0  0  0  0  0  0
  148.3092  139.2505  153.8208 C   0  0  0  0  0  0  0  0  0  0  0  0
  149.3575  139.5846  154.7001 C   0  0  0  0  0  0  0  0  0  0  0  0
  154.0460  142.3486  160.8902 H   0  0  0  0  0  0  0  0  0  0  0  0
  152.6784  144.4431  160.9137 H   0  0  0  0  0  0  0  0  0  0  0  0
  150.1088  144.4972  159.1367 H   0  0  0  0  0  0  0  0  0  0  0  0
  150.5813  145.7220  160.4242 H   0  0  0  0  0  0  0  0  0  0  0  0
  152.6921  146.2307  159.1530 H   0  0  0  0  0  0  0  0  0  0  0  0
  152.2184  144.9949  157.8758 H   0  0  0  0  0  0  0  0  0  0  0  0
  150.6312  139.4759  157.2702 H   0  0  0  0  0  0  0  0  0  0  0  0
  149.5035  140.6499  157.8499 H   0  0  0  0  0  0  0  0  0  0  0  0
  151.5874  141.0171  155.6157 H   0  0  0  0  0  0  0  0  0  0  0  0
  149.9024  143.0682  155.9512 H   0  0  0  0  0  0  0  0  0  0  0  0
  148.7145  142.9267  155.0462 H   0  0  0  0  0  0  0  0  0  0  0  0
  146.8709  142.3326  153.4990 H   0  0  0  0  0  0  0  0  0  0  0  0
  146.6065  139.9869  152.7120 H   0  0  0  0  0  0  0  0  0  0  0  0
  148.1966  138.2330  153.4769 H   0  0  0  0  0  0  0  0  0  0  0  0
  150.0465  138.8173  155.0228 H   0  0  0  0  0  0  0  0  0  0  0  0
  1  2  2  0  0  0  0
  2 14  1  0  0  0  0
  2  3  1  0  0  0  0
  3  4  1  0  0  0  0
  3  8  2  0  0  0  0
  4  5  1  0  0  0  0
  4  6  1  0  0  0  0
  4  7  1  0  0  0  0
  8  9  1  0  0  0  0
  8 24  1  0  0  0  0
  9 10  1  0  0  0  0
  9 13  2  0  0  0  0
 10 12  1  0  0  0  0
 10 11  1  0  0  0  0
 10 25  1  0  0  0  0
 11 12  1  0  0  0  0
 11 26  1  0  0  0  0
 11 27  1  0  0  0  0
 12 28  1  0  0  0  0
 12 29  1  0  0  0  0
 13 14  1  0  0  0  0
 14 15  1  0  0  0  0
 15 16  1  0  0  0  0
 15 30  1  0  0  0  0
 15 31  1  0  0  0  0
 16 17  1  0  0  0  0
 16 18  1  0  0  0  0
 16 32  1  0  0  0  0
 17 33  1  0  0  0  0
 18 23  1  0  0  0  0
 18 19  2  0  0  0  0
 19 20  1  0  0  0  0
 19 34  1  0  0  0  0
 20 21  2  0  0  0  0
 20 35  1  0  0  0  0
 21 22  1  0  0  0  0
 21 36  1  0  0  0  0
 22 23  2  0  0  0  0
 22 37  1  0  0  0  0
 23 38  1  0  0  0  0
M  END
> <s_m_source_file>
AV-unprocessed.smi

> <i_m_source_file_index>
2574

> <i_lp_mmshare_version>
43012

> <i_f3d_flags>
0

> <s_epik_input>
Tz1jMWMoQyhGKShGKUYpW2NIXWMoW0NIXTJbQ0gyXVtDSDJdMilubjFbQ0gyXVtDQEhdKFtPSF0pYzNbY0hdW2NIXVtjSF1bY0hdW2NIXTM=

> <s_epik_cmdline>
J2VwaWtfcHl0aG9uJywgJy1waCcsICc3LjAnLCAnLXRuJywgJzgnLCAnLW1hJywgJzIwMCcsICctbWV0YWxfYmluZGluZycsICctaW1hZScsICc8aW5maWxlLm1hZT4nLCAnLW9tYWUnLCAnPG91dGZpbGUubWFlPic=

> <r_lp_tautomer_probability>
1

> <r_epik_Ionization_Penalty>
7.26807e-08

> <r_epik_Ionization_Penalty_Charging>
9.677e-10

> <r_epik_Ionization_Penalty_Neutral>
7.1713e-08

> <r_epik_State_Penalty>
-0

> <r_epik_Charging_Adjusted_Penalty>
9.677e-10

> <i_epik_Tot_Q>
0

> <i_epik_Tot_abs_Q>
0

> <r_epik_Metal_State_Penalty>
-0

> <b_epik_Metal_Only>
0

> <s_lp_Force_Field>
OPLS_2005

> <r_lp_Energy>
33.7887

> <b_lp_Chiralities_Consistent>
1

> <s_lp_Variant>
AV-unprocessed.smi:2574-1

> <Gold.Version>
5.8.1

> <Gold.Id.Protein>
6NUR|6NUR_protein|mol2

> <Gold.PLP.Fitness>
53.3761

> <Gold.PLP.PLP>
-51.6175

> <Gold.PLP.part.hbond>
-1.0000

> <Gold.PLP.part.metal>
0.0000

> <Gold.PLP.part.buried>
-2.4532

> <Gold.PLP.part.nonpolar>
-47.7577

> <Gold.PLP.part.repulsive>
0.0116

> <Gold.PLP.ligand.clash>
0.5121

> <Gold.PLP.ligand.torsion>
0.5511

> <Gold.PLP.Chemscore.Hbond>
0.9120

> <Gold.PLP.Chemscore.CHOScore>
0.0000

> <Gold.PLP.Chemscore.Metal>
0.0000

> <Gold.Chemscore.Hbonds>
donor molecule, donor type, donor heavy atom, donor atom, acceptor molecule, acceptor atom, score
      L1  H    17    33       P1  8028  0.91

> <Gold.PLP.Chemscore.Internal.Correction>
0.6368

> <Gold.Rescore>
     Score         DG    S(hbond)    S(metal)    S(lipo)     H(rot)  DE(clash)    DE(int)     intcor
     14.96     -17.80       0.87        0.00     126.16       2.09       0.26       2.58       ----

> <Gold.Chemscore.Fitness>
14.9641

> <Gold.Chemscore.DG>
-17.7998

> <Gold.Chemscore.ZeroCoef>
-5.4800

> <Gold.Chemscore.Hbond>
0.8716

> <Gold.Chemscore.Metal>
0.0000

> <Gold.Chemscore.Lipo>
126.1584

> <Gold.Chemscore.Internal_Hbond>
0.0000

> <Gold.Chemscore.DEClash>
0.2574

> <Gold.Chemscore.DEInternal>
2.5783

> <Gold.Chemscore.Rot>
2.0906

> <Gold.Chemscore.Internal.Correction>
   9.000000E+99

> <Gold.Chemscore.Hbonds>
donor molecule, donor type, donor heavy atom, donor atom, acceptor molecule, acceptor atom, score
      L1  H    17    33       P1  8028  0.88

> <Gold.Chemscore.Hbond.Weighted>
-2.9113

> <Gold.Chemscore.Metal.Weighted>
-0.0000

> <Gold.Chemscore.Lipo.Weighted>
-14.7605

> <Gold.Chemscore.Internal_Hbond.Weighted>
0.0000

> <Gold.Chemscore.DEClash.Weighted>
0.2574

> <Gold.Chemscore.DEInternal.Weighted>
2.5783

> <Gold.Chemscore.Rot.Weighted>
5.3520

> <Gold.Chemscore.Internal.Correction.Weighted>
   9.000000E+99

> <Gold.Protein.RotatedTorsions>
[ 6907 6896 6895 6894 ] final    4.40 input  -60.11 | X-H torsion
[ 7974 7965 7964 7962 ] final -124.34 input  175.53 | X-H torsion
[ 8008 7997 7996 7995 ] final  -21.07 input   59.86 | X-H torsion
[ 10167 10162 10161 10158 ] final -122.80 input  -65.29 | X-H torsion
[ 10718 10713 10712 10709 ] final  145.37 input   66.30 | X-H torsion
[ 10763 10752 10751 10750 ] final -165.85 input  -60.55 | X-H torsion
[ 11005 11000 10999 10996 ] final   -7.00 input  -57.11 | X-H torsion

> <Gold.Protein.ActiveResidues>
 VAL166  LYS551  ARG553  GLY616  TRP617  ASP618  TYR619  PRO620  LYS621  CYS622 
 ASP623  PHE694  ASN695  SER759  ASP760  ASP761  ALA762  ILE779  LEU786  VAL792 
 PHE793  MET794  SER795  GLU796  ALA797  LYS798  CYS799  TRP800  GLU811  SER814 

> <Gold.Protein.RotatedAtoms>
  151.6406  135.1013  160.0140 H   0  0  0  0  0  0  0  0  0  0  0  0  # atno 6907 bound_to 6896
  152.4056  133.6879  159.6362 H   0  0  0  0  0  0  0  0  0  0  0  0  # atno 6908 bound_to 6896
  150.7951  133.8632  159.3278 H   0  0  0  0  0  0  0  0  0  0  0  0  # atno 6909 bound_to 6896
  145.0091  140.7889  143.4450 H   0  0  0  0  0  0  0  0  0  0  0  0  # atno 7974 bound_to 7965
  154.4729  140.2044  155.9950 H   0  0  0  0  0  0  0  0  0  0  0  0  # atno 8008 bound_to 7997
  156.1040  140.3239  155.7952 H   0  0  0  0  0  0  0  0  0  0  0  0  # atno 8009 bound_to 7997
  155.4748  140.0534  157.2965 H   0  0  0  0  0  0  0  0  0  0  0  0  # atno 8010 bound_to 7997
  140.0104  143.5448  152.2265 H   0  0  0  0  0  0  0  0  0  0  0  0  # atno 10167 bound_to 10162
  157.3461  131.0943  151.1041 H   0  0  0  0  0  0  0  0  0  0  0  0  # atno 10718 bound_to 10713
  154.6891  135.2967  154.9505 H   0  0  0  0  0  0  0  0  0  0  0  0  # atno 10763 bound_to 10752
  154.0474  135.6649  153.4800 H   0  0  0  0  0  0  0  0  0  0  0  0  # atno 10764 bound_to 10752
  153.0600  135.5121  154.7974 H   0  0  0  0  0  0  0  0  0  0  0  0  # atno 10765 bound_to 10752
  140.7081  133.8932  155.8731 H   0  0  0  0  0  0  0  0  0  0  0  0  # atno 11005 bound_to 11000
  145.2048  139.2234  143.5174 LP  0  0  0  0  0  0  0  0  0  0  0  0  # atno 17320 bound_to 7965
  146.3466  140.1873  142.8589 LP  0  0  0  0  0  0  0  0  0  0  0  0  # atno 17321 bound_to 7965
  139.6209  144.7629  151.2742 LP  0  0  0  0  0  0  0  0  0  0  0  0  # atno 17342 bound_to 10162
  140.7384  143.6650  150.8131 LP  0  0  0  0  0  0  0  0  0  0  0  0  # atno 17343 bound_to 10162
  157.2234  130.6492  149.5820 LP  0  0  0  0  0  0  0  0  0  0  0  0  # atno 17370 bound_to 10713
  155.9714  130.4622  150.6136 LP  0  0  0  0  0  0  0  0  0  0  0  0  # atno 17371 bound_to 10713
  141.0108  134.1023  157.4223 LP  0  0  0  0  0  0  0  0  0  0  0  0  # atno 17394 bound_to 11000
  139.8879  135.0093  156.6587 LP  0  0  0  0  0  0  0  0  0  0  0  0  # atno 17395 bound_to 11000

$$$$
