AV-unprocessed.smi:1485|AV-procd|sdf|6002|dock3
  -GOLD-   22720 6 93D 1   1.00000     0.00000
 Structure written by MMmdl.
 44 45  0  0  0  0  0  0  0  0  1 V2000
  144.8752  142.5344  156.7935 C   0  0  0  0  0  0  0  0  0  0  0  0
  145.5380  141.9942  155.6643 O   0  0  0  0  0  0  0  0  0  0  0  0
  146.2107  142.9844  154.9036 C   0  0  0  0  0  0  0  0  0  0  0  0
  146.8837  142.3262  153.6879 C   0  0  0  0  0  0  0  0  0  0  0  0
  147.8468  141.2938  154.0875 N   0  0  0  0  0  0  0  0  0  0  0  0
  148.8414  141.7500  154.9358 N   0  0  0  0  0  0  0  0  0  0  0  0
  149.7583  140.9410  155.3587 C   0  0  0  0  0  0  0  0  0  0  0  0
  150.8438  141.3938  156.2720 C   0  0  0  0  0  0  0  0  0  0  0  0
  151.8113  140.6786  156.5383 O   0  0  0  0  0  0  0  0  0  0  0  0
  150.6866  142.6294  156.7800 N   0  0  0  0  0  0  0  0  0  0  0  0
  151.6063  143.2948  157.6968 C   0  0  1  0  0  0  0  0  0  0  0  0
  151.0201  144.6560  158.1123 C   0  0  0  0  0  0  0  0  0  0  0  0
  151.9235  145.3648  159.1325 C   0  0  0  0  0  0  0  0  0  0  0  0
  152.1781  144.4784  160.3616 C   0  0  0  0  0  0  0  0  0  0  0  0
  152.7758  143.1161  159.9603 C   0  0  1  0  0  0  0  0  0  0  0  0
  153.0286  142.2309  161.1889 C   0  0  0  0  0  0  0  0  0  0  0  0
  151.8697  142.4098  158.9326 C   0  0  0  0  0  0  0  0  0  0  0  0
  149.7624  139.5451  154.9549 C   0  0  0  0  0  0  0  0  0  0  0  0
  148.7871  139.1147  154.1248 C   0  0  0  0  0  0  0  0  0  0  0  0
  147.7390  140.0096  153.6311 C   0  0  0  0  0  0  0  0  0  0  0  0
  146.8427  139.6423  152.8720 O   0  0  0  0  0  0  0  0  0  0  0  0
  144.3747  141.7359  157.3408 H   0  0  0  0  0  0  0  0  0  0  0  0
  144.1211  143.2643  156.4972 H   0  0  0  0  0  0  0  0  0  0  0  0
  145.5813  143.0157  157.4713 H   0  0  0  0  0  0  0  0  0  0  0  0
  145.4911  143.7301  154.5621 H   0  0  0  0  0  0  0  0  0  0  0  0
  146.9472  143.5047  155.5178 H   0  0  0  0  0  0  0  0  0  0  0  0
  146.1201  141.9010  153.0339 H   0  0  0  0  0  0  0  0  0  0  0  0
  147.3848  143.0872  153.0872 H   0  0  0  0  0  0  0  0  0  0  0  0
  149.8633  143.1472  156.5079 H   0  0  0  0  0  0  0  0  0  0  0  0
  152.5536  143.4775  157.1858 H   0  0  0  0  0  0  0  0  0  0  0  0
  150.8894  145.2903  157.2346 H   0  0  0  0  0  0  0  0  0  0  0  0
  150.0280  144.5167  158.5441 H   0  0  0  0  0  0  0  0  0  0  0  0
  152.8738  145.6212  158.6628 H   0  0  0  0  0  0  0  0  0  0  0  0
  151.4675  146.3058  159.4410 H   0  0  0  0  0  0  0  0  0  0  0  0
  152.8502  144.9929  161.0492 H   0  0  0  0  0  0  0  0  0  0  0  0
  151.2420  144.3271  160.9008 H   0  0  0  0  0  0  0  0  0  0  0  0
  153.7403  143.2998  159.4847 H   0  0  0  0  0  0  0  0  0  0  0  0
  152.0994  142.0044  161.7128 H   0  0  0  0  0  0  0  0  0  0  0  0
  153.6978  142.7224  161.8954 H   0  0  0  0  0  0  0  0  0  0  0  0
  153.4889  141.2848  160.9030 H   0  0  0  0  0  0  0  0  0  0  0  0
  150.9216  142.1456  159.4034 H   0  0  0  0  0  0  0  0  0  0  0  0
  152.3305  141.4710  158.6224 H   0  0  0  0  0  0  0  0  0  0  0  0
  150.5244  138.8628  155.3032 H   0  0  0  0  0  0  0  0  0  0  0  0
  148.7786  138.0799  153.8151 H   0  0  0  0  0  0  0  0  0  0  0  0
  1  2  1  0  0  0  0
  1 22  1  0  0  0  0
  1 23  1  0  0  0  0
  1 24  1  0  0  0  0
  2  3  1  0  0  0  0
  3  4  1  0  0  0  0
  3 25  1  0  0  0  0
  3 26  1  0  0  0  0
  4  5  1  0  0  0  0
  4 27  1  0  0  0  0
  4 28  1  0  0  0  0
  5 20  1  0  0  0  0
  5  6  1  0  0  0  0
  6  7  2  0  0  0  0
  7  8  1  0  0  0  0
  7 18  1  0  0  0  0
  8  9  2  0  0  0  0
  8 10  1  0  0  0  0
 10 11  1  0  0  0  0
 10 29  1  0  0  0  0
 11 17  1  0  0  0  0
 11 12  1  0  0  0  0
 11 30  1  0  0  0  0
 12 13  1  0  0  0  0
 12 31  1  0  0  0  0
 12 32  1  0  0  0  0
 13 14  1  0  0  0  0
 13 33  1  0  0  0  0
 13 34  1  0  0  0  0
 14 15  1  0  0  0  0
 14 35  1  0  0  0  0
 14 36  1  0  0  0  0
 15 16  1  0  0  0  0
 15 17  1  0  0  0  0
 15 37  1  0  0  0  0
 16 38  1  0  0  0  0
 16 39  1  0  0  0  0
 16 40  1  0  0  0  0
 17 41  1  0  0  0  0
 17 42  1  0  0  0  0
 18 19  2  0  0  0  0
 18 43  1  0  0  0  0
 19 20  1  0  0  0  0
 19 44  1  0  0  0  0
 20 21  2  0  0  0  0
M  END
> <s_m_source_file>
AV-unprocessed.smi

> <i_m_source_file_index>
1485

> <i_lp_mmshare_version>
43012

> <i_f3d_flags>
0

> <s_epik_input>
W0NIM11PW0NIMl1bQ0gyXW4xbmMoW2NIXVtjSF1jMT1PKUMoPU8pW05IXVtDQEBIXTJbQ0gyXVtDSDJdW0NIMl1bQ0BASF0oW0NIM10pW0NIMl0y

> <s_epik_cmdline>
J2VwaWtfcHl0aG9uJywgJy1waCcsICc3LjAnLCAnLXRuJywgJzgnLCAnLW1hJywgJzIwMCcsICctbWV0YWxfYmluZGluZycsICctaW1hZScsICc8aW5maWxlLm1hZT4nLCAnLW9tYWUnLCAnPG91dGZpbGUubWFlPic=

> <r_lp_tautomer_probability>
1

> <r_epik_Ionization_Penalty>
6.4688e-07

> <r_epik_Ionization_Penalty_Charging>
6.63567e-09

> <r_epik_Ionization_Penalty_Neutral>
6.40245e-07

> <r_epik_State_Penalty>
-0

> <r_epik_Charging_Adjusted_Penalty>
6.63567e-09

> <i_epik_Tot_Q>
0

> <i_epik_Tot_abs_Q>
0

> <r_epik_Metal_State_Penalty>
-0

> <b_epik_Metal_Only>
0

> <s_lp_Force_Field>
OPLS_2005

> <r_lp_Energy>
29.7645

> <b_lp_Chiralities_Consistent>
1

> <s_lp_Variant>
AV-unprocessed.smi:1485-2

> <Gold.Version>
5.8.1

> <Gold.Id.Protein>
6NUR|6NUR_protein|mol2

> <Gold.PLP.Fitness>
48.4036

> <Gold.PLP.PLP>
-45.6825

> <Gold.PLP.part.hbond>
-1.0000

> <Gold.PLP.part.metal>
0.0000

> <Gold.PLP.part.buried>
-4.6632

> <Gold.PLP.part.nonpolar>
-40.5495

> <Gold.PLP.part.repulsive>
1.0552

> <Gold.PLP.ligand.clash>
0.0000

> <Gold.PLP.ligand.torsion>
0.0782

> <Gold.PLP.Chemscore.Hbond>
0.9425

> <Gold.PLP.Chemscore.CHOScore>
0.0000

> <Gold.PLP.Chemscore.Metal>
0.0000

> <Gold.Chemscore.Hbonds>
donor molecule, donor type, donor heavy atom, donor atom, acceptor molecule, acceptor atom, score
      L1  H    10    29       P1  8028  0.99

> <Gold.PLP.Chemscore.Internal.Correction>
0.0500

> <Gold.Rescore>
     Score         DG    S(hbond)    S(metal)    S(lipo)     H(rot)  DE(clash)    DE(int)     intcor
     17.14     -17.49       0.78        0.00     114.30       1.55       0.24       0.10       ----

> <Gold.Chemscore.Fitness>
17.1409

> <Gold.Chemscore.DG>
-17.4856

> <Gold.Chemscore.ZeroCoef>
-5.4800

> <Gold.Chemscore.Hbond>
0.7769

> <Gold.Chemscore.Metal>
0.0000

> <Gold.Chemscore.Lipo>
114.2982

> <Gold.Chemscore.Internal_Hbond>
0.0000

> <Gold.Chemscore.DEClash>
0.2437

> <Gold.Chemscore.DEInternal>
0.1011

> <Gold.Chemscore.Rot>
1.5478

> <Gold.Chemscore.Internal.Correction>
   9.000000E+99

> <Gold.Chemscore.Hbonds>
donor molecule, donor type, donor heavy atom, donor atom, acceptor molecule, acceptor atom, score
      L1  H    10    29       P1  8028  0.90

> <Gold.Chemscore.Hbond.Weighted>
-2.5950

> <Gold.Chemscore.Metal.Weighted>
-0.0000

> <Gold.Chemscore.Lipo.Weighted>
-13.3729

> <Gold.Chemscore.Internal_Hbond.Weighted>
0.0000

> <Gold.Chemscore.DEClash.Weighted>
0.2437

> <Gold.Chemscore.DEInternal.Weighted>
0.1011

> <Gold.Chemscore.Rot.Weighted>
3.9623

> <Gold.Chemscore.Internal.Correction.Weighted>
   9.000000E+99

> <Gold.Protein.RotatedTorsions>
[ 6907 6896 6895 6894 ] final -102.26 input  -60.11 | X-H torsion
[ 7974 7965 7964 7962 ] final   29.52 input  175.53 | X-H torsion
[ 8008 7997 7996 7995 ] final -179.83 input   59.86 | X-H torsion
[ 10167 10162 10161 10158 ] final  105.17 input  -65.29 | X-H torsion
[ 10718 10713 10712 10709 ] final  137.88 input   66.30 | X-H torsion
[ 10763 10752 10751 10750 ] final  116.87 input  -60.55 | X-H torsion
[ 11005 11000 10999 10996 ] final   67.50 input  -57.11 | X-H torsion

> <Gold.Protein.ActiveResidues>
 VAL166  LYS551  ARG553  GLY616  TRP617  ASP618  TYR619  PRO620  LYS621  CYS622 
 ASP623  PHE694  ASN695  SER759  ASP760  ASP761  ALA762  ILE779  LEU786  VAL792 
 PHE793  MET794  SER795  GLU796  ALA797  LYS798  CYS799  TRP800  GLU811  SER814 

> <Gold.Protein.RotatedAtoms>
  150.7188  134.0609  159.3830 H   0  0  0  0  0  0  0  0  0  0  0  0  # atno 6907 bound_to 6896
  151.8588  135.0529  160.0476 H   0  0  0  0  0  0  0  0  0  0  0  0  # atno 6908 bound_to 6896
  152.2733  133.5366  159.5489 H   0  0  0  0  0  0  0  0  0  0  0  0  # atno 6909 bound_to 6896
  146.1666  139.6910  142.8996 H   0  0  0  0  0  0  0  0  0  0  0  0  # atno 7974 bound_to 7965
  156.0350  140.1290  157.0217 H   0  0  0  0  0  0  0  0  0  0  0  0  # atno 8008 bound_to 7997
  154.4366  140.1042  156.6225 H   0  0  0  0  0  0  0  0  0  0  0  0  # atno 8009 bound_to 7997
  155.5751  140.3467  155.4527 H   0  0  0  0  0  0  0  0  0  0  0  0  # atno 8010 bound_to 7997
  139.7115  144.7076  151.1019 H   0  0  0  0  0  0  0  0  0  0  0  0  # atno 10167 bound_to 10162
  157.4313  131.1049  151.0246 H   0  0  0  0  0  0  0  0  0  0  0  0  # atno 10718 bound_to 10713
  153.5437  135.3553  155.2729 H   0  0  0  0  0  0  0  0  0  0  0  0  # atno 10763 bound_to 10752
  154.8714  135.4097  154.3014 H   0  0  0  0  0  0  0  0  0  0  0  0  # atno 10764 bound_to 10752
  153.3727  135.7065  153.6694 H   0  0  0  0  0  0  0  0  0  0  0  0  # atno 10765 bound_to 10752
  139.9767  134.6811  156.0341 H   0  0  0  0  0  0  0  0  0  0  0  0  # atno 11005 bound_to 11000
  145.4450  141.0425  143.2836 LP  0  0  0  0  0  0  0  0  0  0  0  0  # atno 17320 bound_to 7965
  144.8102  139.5977  143.7033 LP  0  0  0  0  0  0  0  0  0  0  0  0  # atno 17321 bound_to 7965
  140.7734  143.5286  150.9450 LP  0  0  0  0  0  0  0  0  0  0  0  0  # atno 17342 bound_to 10162
  139.8971  143.6881  152.3137 LP  0  0  0  0  0  0  0  0  0  0  0  0  # atno 17343 bound_to 10162
  157.1142  130.6034  149.5489 LP  0  0  0  0  0  0  0  0  0  0  0  0  # atno 17370 bound_to 10713
  155.9914  130.4969  150.7299 LP  0  0  0  0  0  0  0  0  0  0  0  0  # atno 17371 bound_to 10713
  141.1443  133.6559  156.3821 LP  0  0  0  0  0  0  0  0  0  0  0  0  # atno 17394 bound_to 11000
  140.5181  134.6331  157.5308 LP  0  0  0  0  0  0  0  0  0  0  0  0  # atno 17395 bound_to 11000

$$$$
