AV-unprocessed.smi:1135|AV-procd|sdf|4859|dock3
  -GOLD-   22720 3433D 1   1.00000     0.00000
 Structure written by MMmdl.
 45 46  0  0  0  0  0  0  0  0  1 V2000
  143.6211  143.6910  154.8686 C   0  0  0  0  0  0  0  0  0  0  0  0
  144.9410  142.9195  155.0075 C   0  0  2  0  0  0  0  0  0  0  0  0
  145.6453  142.7584  153.6476 C   0  0  0  0  0  0  0  0  0  0  0  0
  146.9549  141.9564  153.7750 C   0  0  0  0  0  0  0  0  0  0  0  0
  146.7489  140.5643  154.4194 C   0  0  2  0  0  0  0  0  0  0  0  0
  148.1252  139.8942  154.6177 C   0  0  0  0  0  0  0  0  0  0  0  0
  145.9332  139.7626  153.4948 N   0  0  0  0  0  0  0  0  0  0  0  0
  145.8610  138.4259  153.3868 C   0  0  0  0  0  0  0  0  0  0  0  0
  146.5110  137.6311  154.0658 O   0  0  0  0  0  0  0  0  0  0  0  0
  144.9808  138.0568  152.4461 N   0  0  0  0  0  0  0  0  0  0  0  0
  144.6607  136.6765  152.1012 C   0  0  0  0  0  0  0  0  0  0  0  0
  145.7175  136.0692  151.1635 C   0  0  0  0  0  0  0  0  0  0  0  0
  145.5293  134.5753  150.9785 C   0  0  0  0  0  0  0  0  0  0  0  0
  144.2736  133.9746  151.2110 C   0  0  0  0  0  0  0  0  0  0  0  0
  144.1529  132.5825  151.0362 C   0  0  0  0  0  0  0  0  0  0  0  0
  145.2868  131.8481  150.6389 C   0  0  0  0  0  0  0  0  0  0  0  0
  146.4958  132.5419  150.4317 C   0  0  0  0  0  0  0  0  0  0  0  0
  146.6223  133.8765  150.5963 N   0  0  0  0  0  0  0  0  0  0  0  0
  146.0421  140.7612  155.7869 C   0  0  0  0  0  0  0  0  0  0  0  0
  144.7232  141.5461  155.6685 C   0  0  0  0  0  0  0  0  0  0  0  0
  142.9150  143.1581  154.2310 H   0  0  0  0  0  0  0  0  0  0  0  0
  143.7866  144.6762  154.4318 H   0  0  0  0  0  0  0  0  0  0  0  0
  143.1480  143.8368  155.8401 H   0  0  0  0  0  0  0  0  0  0  0  0
  145.5960  143.5030  155.6562 H   0  0  0  0  0  0  0  0  0  0  0  0
  144.9764  142.2667  152.9401 H   0  0  0  0  0  0  0  0  0  0  0  0
  145.8627  143.7403  153.2258 H   0  0  0  0  0  0  0  0  0  0  0  0
  147.4145  141.8522  152.7911 H   0  0  0  0  0  0  0  0  0  0  0  0
  147.6602  142.5349  154.3737 H   0  0  0  0  0  0  0  0  0  0  0  0
  148.7795  140.5113  155.2344 H   0  0  0  0  0  0  0  0  0  0  0  0
  148.6301  139.7342  153.6644 H   0  0  0  0  0  0  0  0  0  0  0  0
  148.0415  138.9264  155.1123 H   0  0  0  0  0  0  0  0  0  0  0  0
  145.3428  140.2954  152.8731 H   0  0  0  0  0  0  0  0  0  0  0  0
  144.4928  138.7795  151.9375 H   0  0  0  0  0  0  0  0  0  0  0  0
  144.6061  136.1002  153.0251 H   0  0  0  0  0  0  0  0  0  0  0  0
  143.6705  136.6256  151.6449 H   0  0  0  0  0  0  0  0  0  0  0  0
  145.6783  136.5540  150.1872 H   0  0  0  0  0  0  0  0  0  0  0  0
  146.7184  136.2545  151.5565 H   0  0  0  0  0  0  0  0  0  0  0  0
  143.4230  134.5648  151.5191 H   0  0  0  0  0  0  0  0  0  0  0  0
  143.2082  132.0875  151.2058 H   0  0  0  0  0  0  0  0  0  0  0  0
  145.2318  130.7790  150.4968 H   0  0  0  0  0  0  0  0  0  0  0  0
  147.3852  132.0103  150.1270 H   0  0  0  0  0  0  0  0  0  0  0  0
  145.8566  139.8050  156.2753 H   0  0  0  0  0  0  0  0  0  0  0  0
  146.7086  141.3031  156.4594 H   0  0  0  0  0  0  0  0  0  0  0  0
  144.2910  141.6777  156.6608 H   0  0  0  0  0  0  0  0  0  0  0  0
  143.9978  140.9668  155.0959 H   0  0  0  0  0  0  0  0  0  0  0  0
  1  2  1  0  0  0  0
  1 21  1  0  0  0  0
  1 22  1  0  0  0  0
  1 23  1  0  0  0  0
  2 20  1  0  0  0  0
  2  3  1  0  0  0  0
  2 24  1  0  0  0  0
  3  4  1  0  0  0  0
  3 25  1  0  0  0  0
  3 26  1  0  0  0  0
  4  5  1  0  0  0  0
  4 27  1  0  0  0  0
  4 28  1  0  0  0  0
  5  6  1  0  0  0  0
  5  7  1  0  0  0  0
  5 19  1  0  0  0  0
  6 29  1  0  0  0  0
  6 30  1  0  0  0  0
  6 31  1  0  0  0  0
  7  8  1  0  0  0  0
  7 32  1  0  0  0  0
  8  9  2  0  0  0  0
  8 10  1  0  0  0  0
 10 11  1  0  0  0  0
 10 33  1  0  0  0  0
 11 12  1  0  0  0  0
 11 34  1  0  0  0  0
 11 35  1  0  0  0  0
 12 13  1  0  0  0  0
 12 36  1  0  0  0  0
 12 37  1  0  0  0  0
 13 18  1  0  0  0  0
 13 14  2  0  0  0  0
 14 15  1  0  0  0  0
 14 38  1  0  0  0  0
 15 16  2  0  0  0  0
 15 39  1  0  0  0  0
 16 17  1  0  0  0  0
 16 40  1  0  0  0  0
 17 18  2  0  0  0  0
 17 41  1  0  0  0  0
 19 20  1  0  0  0  0
 19 42  1  0  0  0  0
 19 43  1  0  0  0  0
 20 44  1  0  0  0  0
 20 45  1  0  0  0  0
M  END
> <s_m_source_file>
AV-unprocessed.smi

> <i_m_source_file_index>
1135

> <i_lp_mmshare_version>
43012

> <i_f3d_flags>
0

> <s_epik_input>
W0NIMl0xW0NIMl1bQ0BIXShbQ0gzXSlbQ0gyXVtDSDJdW0NAQF0xKFtDSDNdKVtOSF1DKD1PKVtOSF1bQ0gyXVtDSDJdYzJbY0hdW2NIXVtjSF1bY0hdbjI=

> <s_epik_cmdline>
J2VwaWtfcHl0aG9uJywgJy1waCcsICc3LjAnLCAnLXRuJywgJzgnLCAnLW1hJywgJzIwMCcsICctbWV0YWxfYmluZGluZycsICctaW1hZScsICc8aW5maWxlLm1hZT4nLCAnLW9tYWUnLCAnPG91dGZpbGUubWFlPic=

> <r_epik_Ionization_Penalty>
0.0448679

> <r_epik_Ionization_Penalty_Charging>
0

> <r_epik_Ionization_Penalty_Neutral>
0.0448679

> <r_epik_State_Penalty>
0.0379931

> <r_epik_Charging_Adjusted_Penalty>
0.0379931

> <i_epik_Tot_Q>
0

> <i_epik_Tot_abs_Q>
0

> <r_epik_Metal_State_Penalty>
0.0353093

> <b_epik_Metal_Only>
0

> <s_lp_Force_Field>
OPLS_2005

> <r_lp_Energy>
6.34065

> <b_lp_Chiralities_Consistent>
1

> <s_lp_Variant>
AV-unprocessed.smi:1135-2

> <Gold.Version>
5.8.1

> <Gold.Id.Protein>
6NUR|6NUR_protein|mol2

> <Gold.PLP.Fitness>
43.3651

> <Gold.PLP.PLP>
-37.0297

> <Gold.PLP.part.hbond>
-2.8241

> <Gold.PLP.part.metal>
0.0000

> <Gold.PLP.part.buried>
-7.7511

> <Gold.PLP.part.nonpolar>
-28.0084

> <Gold.PLP.part.repulsive>
0.3093

> <Gold.PLP.ligand.clash>
0.0000

> <Gold.PLP.ligand.torsion>
0.9980

> <Gold.PLP.Chemscore.Hbond>
1.7760

> <Gold.PLP.Chemscore.CHOScore>
0.9968

> <Gold.PLP.Chemscore.Metal>
0.0000

> <Gold.Chemscore.Hbonds>
donor molecule, donor type, donor heavy atom, donor atom, acceptor molecule, acceptor atom, score
      L1  H     7    32       P1 10175  0.82
      L1  H    10    33       P1 10175  0.69
      L1  C    17    41       P1 10747  0.82

> <Gold.PLP.Chemscore.Internal.Correction>
0.0131

> <Gold.Rescore>
     Score         DG    S(hbond)    S(metal)    S(lipo)     H(rot)  DE(clash)    DE(int)     intcor
     15.52     -17.87       1.93        0.00      81.83       1.42       0.14       2.21       ----

> <Gold.Chemscore.Fitness>
15.5237

> <Gold.Chemscore.DG>
-17.8720

> <Gold.Chemscore.ZeroCoef>
-5.4800

> <Gold.Chemscore.Hbond>
1.9329

> <Gold.Chemscore.Metal>
0.0000

> <Gold.Chemscore.Lipo>
81.8345

> <Gold.Chemscore.Internal_Hbond>
0.0000

> <Gold.Chemscore.DEClash>
0.1417

> <Gold.Chemscore.DEInternal>
2.2066

> <Gold.Chemscore.Rot>
1.4213

> <Gold.Chemscore.Internal.Correction>
   9.000000E+99

> <Gold.Chemscore.Hbonds>
donor molecule, donor type, donor heavy atom, donor atom, acceptor molecule, acceptor atom, score
      L1  H     7    32       P1 10175  0.77
      L1  H    10    33       P1 10175  0.70

> <Gold.Chemscore.Hbond.Weighted>
-6.4559

> <Gold.Chemscore.Metal.Weighted>
-0.0000

> <Gold.Chemscore.Lipo.Weighted>
-9.5746

> <Gold.Chemscore.Internal_Hbond.Weighted>
0.0000

> <Gold.Chemscore.DEClash.Weighted>
0.1417

> <Gold.Chemscore.DEInternal.Weighted>
2.2066

> <Gold.Chemscore.Rot.Weighted>
3.6385

> <Gold.Chemscore.Internal.Correction.Weighted>
   9.000000E+99

> <Gold.Protein.RotatedTorsions>
[ 6907 6896 6895 6894 ] final   -9.52 input  -60.11 | X-H torsion
[ 7974 7965 7964 7962 ] final   15.20 input  175.53 | X-H torsion
[ 8008 7997 7996 7995 ] final  120.00 input   59.86 | X-H torsion
[ 10167 10162 10161 10158 ] final  -14.25 input  -65.29 | X-H torsion
[ 10718 10713 10712 10709 ] final -170.58 input   66.30 | X-H torsion
[ 10763 10752 10751 10750 ] final   15.11 input  -60.55 | X-H torsion
[ 11005 11000 10999 10996 ] final  128.55 input  -57.11 | X-H torsion

> <Gold.Protein.ActiveResidues>
 VAL166  LYS551  ARG553  GLY616  TRP617  ASP618  TYR619  PRO620  LYS621  CYS622 
 ASP623  PHE694  ASN695  SER759  ASP760  ASP761  ALA762  ILE779  LEU786  VAL792 
 PHE793  MET794  SER795  GLU796  ALA797  LYS798  CYS799  TRP800  GLU811  SER814 

> <Gold.Protein.RotatedAtoms>
  151.4164  135.0992  159.9600 H   0  0  0  0  0  0  0  0  0  0  0  0  # atno 6907 bound_to 6896
  152.5003  133.8748  159.7327 H   0  0  0  0  0  0  0  0  0  0  0  0  # atno 6908 bound_to 6896
  150.9254  133.6772  159.2850 H   0  0  0  0  0  0  0  0  0  0  0  0  # atno 6909 bound_to 6896
  146.2285  139.8929  142.8552 H   0  0  0  0  0  0  0  0  0  0  0  0  # atno 7974 bound_to 7965
  156.2622  140.2840  156.1081 H   0  0  0  0  0  0  0  0  0  0  0  0  # atno 8008 bound_to 7997
  155.1287  140.0393  157.2786 H   0  0  0  0  0  0  0  0  0  0  0  0  # atno 8009 bound_to 7997
  154.6616  140.2567  155.7109 H   0  0  0  0  0  0  0  0  0  0  0  0  # atno 8010 bound_to 7997
  140.7197  143.5341  150.9485 H   0  0  0  0  0  0  0  0  0  0  0  0  # atno 10167 bound_to 10162
  156.7283  130.9296  151.3102 H   0  0  0  0  0  0  0  0  0  0  0  0  # atno 10718 bound_to 10713
  153.1557  135.6786  153.8816 H   0  0  0  0  0  0  0  0  0  0  0  0  # atno 10763 bound_to 10752
  153.8228  135.3128  155.3413 H   0  0  0  0  0  0  0  0  0  0  0  0  # atno 10764 bound_to 10752
  154.7895  135.4843  154.0109 H   0  0  0  0  0  0  0  0  0  0  0  0  # atno 10765 bound_to 10752
  139.9566  134.9611  156.9018 H   0  0  0  0  0  0  0  0  0  0  0  0  # atno 11005 bound_to 11000
  145.2400  141.0005  143.3941 LP  0  0  0  0  0  0  0  0  0  0  0  0  # atno 17320 bound_to 7965
  144.9460  139.4136  143.6426 LP  0  0  0  0  0  0  0  0  0  0  0  0  # atno 17321 bound_to 7965
  139.9062  143.6775  152.3123 LP  0  0  0  0  0  0  0  0  0  0  0  0  # atno 17342 bound_to 10162
  139.7142  144.7615  151.1061 LP  0  0  0  0  0  0  0  0  0  0  0  0  # atno 17343 bound_to 10162
  157.6869  130.9195  150.0411 LP  0  0  0  0  0  0  0  0  0  0  0  0  # atno 17370 bound_to 10713
  156.1547  130.3643  149.9387 LP  0  0  0  0  0  0  0  0  0  0  0  0  # atno 17371 bound_to 10713
  140.5594  134.0550  155.7394 LP  0  0  0  0  0  0  0  0  0  0  0  0  # atno 17394 bound_to 11000
  141.1239  133.9416  157.2675 LP  0  0  0  0  0  0  0  0  0  0  0  0  # atno 17395 bound_to 11000

$$$$
