AV-unprocessed.smi:3222|AV-procd|sdf|12306|dock3
  -GOLD-   2272018153D 1   1.00000     0.00000
 Structure written by MMmdl.
 41 42  0  0  0  0  0  0  0  0  2 V2000
  149.7997  144.2443  159.0883 C   0  0  0  0  0  0  0  0  0  0  0  0
  150.7797  143.2076  158.5154 C   0  0  1  0  0  0  0  0  0  0  0  0
  150.5422  143.0546  157.0615 N   0  3  0  0  0  0  0  0  0  0  0  0
  150.2112  141.6857  156.6218 C   0  0  0  0  0  0  0  0  0  0  0  0
  151.4872  140.8520  156.4288 C   0  0  0  0  0  0  0  0  0  0  0  0
  151.2270  139.6319  155.6699 N   0  0  0  0  0  0  0  0  0  0  0  0
  149.9962  139.4760  154.9130 C   0  0  0  0  0  0  0  0  0  0  0  0
  150.0162  138.0240  154.4139 C   0  0  0  0  0  0  0  0  0  0  0  0
  151.4487  137.5260  154.6347 C   0  0  0  0  0  0  0  0  0  0  0  0
  152.0584  138.5931  155.5278 C   0  0  0  0  0  0  0  0  0  0  0  0
  153.1734  138.4835  156.0356 O   0  0  0  0  0  0  0  0  0  0  0  0
  152.2619  143.5550  158.8124 C   0  0  1  0  0  0  0  0  0  0  0  0
  152.5955  145.0357  158.5483 C   0  0  0  0  0  0  0  0  0  0  0  0
  152.6950  143.1284  160.1400 N   0  0  0  0  0  0  0  0  0  0  0  0
  153.6458  142.1805  160.4604 C   0  0  0  0  0  0  0  0  0  0  0  0
  153.7019  142.0989  161.8221 C   0  0  0  0  0  0  0  0  0  0  0  0
  152.7329  143.0446  162.2576 C   0  0  0  0  0  0  0  0  0  0  0  0
  152.1286  143.6540  161.2507 N   0  0  0  0  0  0  0  0  0  0  0  0
  149.9574  144.3837  160.1581 H   0  0  0  0  0  0  0  0  0  0  0  0
  148.7669  143.9234  158.9491 H   0  0  0  0  0  0  0  0  0  0  0  0
  149.9098  145.2163  158.6062 H   0  0  0  0  0  0  0  0  0  0  0  0
  150.5639  142.2586  159.0099 H   0  0  0  0  0  0  0  0  0  0  0  0
  149.7903  143.6725  156.7921 H   0  0  0  0  0  0  0  0  0  0  0  0
  149.5644  141.2216  157.3675 H   0  0  0  0  0  0  0  0  0  0  0  0
  149.6491  141.7346  155.6882 H   0  0  0  0  0  0  0  0  0  0  0  0
  152.2438  141.4440  155.9115 H   0  0  0  0  0  0  0  0  0  0  0  0
  151.9141  140.5862  157.3974 H   0  0  0  0  0  0  0  0  0  0  0  0
  149.1205  139.6791  155.5308 H   0  0  0  0  0  0  0  0  0  0  0  0
  149.9958  140.1765  154.0768 H   0  0  0  0  0  0  0  0  0  0  0  0
  149.3195  137.4183  154.9948 H   0  0  0  0  0  0  0  0  0  0  0  0
  149.7170  137.9543  153.3674 H   0  0  0  0  0  0  0  0  0  0  0  0
  151.4756  136.5448  155.1096 H   0  0  0  0  0  0  0  0  0  0  0  0
  152.0025  137.4775  153.6966 H   0  0  0  0  0  0  0  0  0  0  0  0
  152.8623  142.9835  158.1028 H   0  0  0  0  0  0  0  0  0  0  0  0
  152.3466  145.3147  157.5241 H   0  0  0  0  0  0  0  0  0  0  0  0
  153.6598  145.2270  158.6899 H   0  0  0  0  0  0  0  0  0  0  0  0
  152.0489  145.7046  159.2137 H   0  0  0  0  0  0  0  0  0  0  0  0
  154.1974  141.6466  159.7005 H   0  0  0  0  0  0  0  0  0  0  0  0
  154.3376  141.4600  162.4170 H   0  0  0  0  0  0  0  0  0  0  0  0
  152.4500  143.3018  163.2677 H   0  0  0  0  0  0  0  0  0  0  0  0
  151.3807  143.3486  156.5796 H   0  0  0  0  0  0  0  0  0  0  0  0
  1  2  1  0  0  0  0
  1 19  1  0  0  0  0
  1 20  1  0  0  0  0
  1 21  1  0  0  0  0
  2  3  1  0  0  0  0
  2 12  1  0  0  0  0
  2 22  1  0  0  0  0
  3  4  1  0  0  0  0
  3 23  1  0  0  0  0
  3 41  1  0  0  0  0
  4  5  1  0  0  0  0
  4 24  1  0  0  0  0
  4 25  1  0  0  0  0
  5  6  1  0  0  0  0
  5 26  1  0  0  0  0
  5 27  1  0  0  0  0
  6 10  1  0  0  0  0
  6  7  1  0  0  0  0
  7  8  1  0  0  0  0
  7 28  1  0  0  0  0
  7 29  1  0  0  0  0
  8  9  1  0  0  0  0
  8 30  1  0  0  0  0
  8 31  1  0  0  0  0
  9 10  1  0  0  0  0
  9 32  1  0  0  0  0
  9 33  1  0  0  0  0
 10 11  2  0  0  0  0
 12 13  1  0  0  0  0
 12 14  1  0  0  0  0
 12 34  1  0  0  0  0
 13 35  1  0  0  0  0
 13 36  1  0  0  0  0
 13 37  1  0  0  0  0
 14 18  1  0  0  0  0
 14 15  1  0  0  0  0
 15 16  2  0  0  0  0
 15 38  1  0  0  0  0
 16 17  1  0  0  0  0
 16 39  1  0  0  0  0
 17 18  2  0  0  0  0
 17 40  1  0  0  0  0
M  CHG  1   3   1
M  END
> <s_m_source_file>
AV-unprocessed.smi

> <i_m_source_file_index>
3222

> <i_lp_mmshare_version>
43012

> <i_f3d_flags>
0

> <s_epik_input>
bjFbY0hdW2NIXVtjSF1uMVtDQEBIXShbQ0gzXSlbQ0BIXShbQ0gzXSlbTkhdW0NIMl1bQ0gyXU4yW0NIMl1bQ0gyXVtDSDJdQzI9Tw==

> <s_epik_cmdline>
J2VwaWtfcHl0aG9uJywgJy1waCcsICc3LjAnLCAnLXRuJywgJzgnLCAnLW1hJywgJzIwMCcsICctbWV0YWxfYmluZGluZycsICctaW1hZScsICc8aW5maWxlLm1hZT4nLCAnLW9tYWUnLCAnPG91dGZpbGUubWFlPic=

> <r_lp_tautomer_probability>
1

> <r_epik_Ionization_Penalty>
0.0064019

> <r_epik_Ionization_Penalty_Charging>
0.00639164

> <r_epik_Ionization_Penalty_Neutral>
1.02567e-05

> <r_epik_State_Penalty>
0.00472531

> <r_epik_Charging_Adjusted_Penalty>
0.011117

> <i_epik_Tot_Q>
1

> <i_epik_Tot_abs_Q>
1

> <r_epik_Metal_State_Penalty>
-0

> <b_epik_Metal_Only>
0

> <s_lp_Force_Field>
OPLS_2005

> <r_lp_Energy>
25.7217

> <b_lp_Chiralities_Consistent>
1

> <s_lp_Variant>
AV-unprocessed.smi:3222-4

> <Gold.Version>
5.8.1

> <Gold.Id.Protein>
6NUR|6NUR_protein|mol2

> <Gold.PLP.Fitness>
55.9073

> <Gold.PLP.PLP>
-49.8297

> <Gold.PLP.part.hbond>
-2.0000

> <Gold.PLP.part.metal>
0.0000

> <Gold.PLP.part.buried>
-4.1152

> <Gold.PLP.part.nonpolar>
-43.3852

> <Gold.PLP.part.repulsive>
0.1362

> <Gold.PLP.ligand.clash>
0.0000

> <Gold.PLP.ligand.torsion>
1.5193

> <Gold.PLP.Chemscore.Hbond>
2.9440

> <Gold.PLP.Chemscore.CHOScore>
0.0000

> <Gold.PLP.Chemscore.Metal>
0.0000

> <Gold.Chemscore.Hbonds>
donor molecule, donor type, donor heavy atom, donor atom, acceptor molecule, acceptor atom, score
      L1  H     3    23       P1  8028  2.00
      P1  H  7997  8009       L1    11  0.70

> <Gold.PLP.Chemscore.Internal.Correction>
0.2841

> <Gold.Rescore>
     Score         DG    S(hbond)    S(metal)    S(lipo)     H(rot)  DE(clash)    DE(int)     intcor
     17.55     -19.58       1.94        0.00     108.71       1.99       0.34       1.69       ----

> <Gold.Chemscore.Fitness>
17.5456

> <Gold.Chemscore.DG>
-19.5752

> <Gold.Chemscore.ZeroCoef>
-5.4800

> <Gold.Chemscore.Hbond>
1.9389

> <Gold.Chemscore.Metal>
0.0000

> <Gold.Chemscore.Lipo>
108.7141

> <Gold.Chemscore.Internal_Hbond>
0.0000

> <Gold.Chemscore.DEClash>
0.3391

> <Gold.Chemscore.DEInternal>
1.6905

> <Gold.Chemscore.Rot>
1.9922

> <Gold.Chemscore.Internal.Correction>
   9.000000E+99

> <Gold.Chemscore.Hbonds>
donor molecule, donor type, donor heavy atom, donor atom, acceptor molecule, acceptor atom, score
      L1  H     3    23       P1  8028  0.97
      P1  H  7997  8009       L1    11  0.65

> <Gold.Chemscore.Hbond.Weighted>
-6.4758

> <Gold.Chemscore.Metal.Weighted>
-0.0000

> <Gold.Chemscore.Lipo.Weighted>
-12.7195

> <Gold.Chemscore.Internal_Hbond.Weighted>
0.0000

> <Gold.Chemscore.DEClash.Weighted>
0.3391

> <Gold.Chemscore.DEInternal.Weighted>
1.6905

> <Gold.Chemscore.Rot.Weighted>
5.1002

> <Gold.Chemscore.Internal.Correction.Weighted>
   9.000000E+99

> <Gold.Protein.RotatedTorsions>
[ 6907 6896 6895 6894 ] final -117.46 input  -60.11 | X-H torsion
[ 7974 7965 7964 7962 ] final  136.62 input  175.53 | X-H torsion
[ 8008 7997 7996 7995 ] final -142.17 input   59.86 | X-H torsion
[ 10167 10162 10161 10158 ] final   55.04 input  -65.29 | X-H torsion
[ 10718 10713 10712 10709 ] final  -70.96 input   66.30 | X-H torsion
[ 10763 10752 10751 10750 ] final   67.24 input  -60.55 | X-H torsion
[ 11005 11000 10999 10996 ] final  -61.88 input  -57.11 | X-H torsion

> <Gold.Protein.ActiveResidues>
 VAL166  LYS551  ARG553  GLY616  TRP617  ASP618  TYR619  PRO620  LYS621  CYS622 
 ASP623  PHE694  ASN695  SER759  ASP760  ASP761  ALA762  ILE779  LEU786  VAL792 
 PHE793  MET794  SER795  GLU796  ALA797  LYS798  CYS799  TRP800  GLU811  SER814 

> <Gold.Protein.RotatedAtoms>
  150.8138  133.8374  159.3169 H   0  0  0  0  0  0  0  0  0  0  0  0  # atno 6907 bound_to 6896
  151.6151  135.1035  160.0099 H   0  0  0  0  0  0  0  0  0  0  0  0  # atno 6908 bound_to 6896
  152.4230  133.7107  159.6534 H   0  0  0  0  0  0  0  0  0  0  0  0  # atno 6909 bound_to 6896
  144.9547  139.4778  143.5508 H   0  0  0  0  0  0  0  0  0  0  0  0  # atno 7974 bound_to 7965
  155.4899  140.0567  157.2955 H   0  0  0  0  0  0  0  0  0  0  0  0  # atno 8008 bound_to 7997
  154.4627  140.2004  156.0152 H   0  0  0  0  0  0  0  0  0  0  0  0  # atno 8009 bound_to 7997
  156.0919  140.3232  155.7832 H   0  0  0  0  0  0  0  0  0  0  0  0  # atno 8010 bound_to 7997
  140.2236  144.3762  150.6441 H   0  0  0  0  0  0  0  0  0  0  0  0  # atno 10167 bound_to 10162
  156.0384  130.4342  150.2373 H   0  0  0  0  0  0  0  0  0  0  0  0  # atno 10718 bound_to 10713
  153.0177  135.5291  154.6949 H   0  0  0  0  0  0  0  0  0  0  0  0  # atno 10763 bound_to 10752
  154.6074  135.2874  155.0472 H   0  0  0  0  0  0  0  0  0  0  0  0  # atno 10764 bound_to 10752
  154.1506  135.6563  153.5015 H   0  0  0  0  0  0  0  0  0  0  0  0  # atno 10765 bound_to 10752
  141.1340  133.6634  156.5442 H   0  0  0  0  0  0  0  0  0  0  0  0  # atno 11005 bound_to 11000
  146.3333  139.8656  142.8848 LP  0  0  0  0  0  0  0  0  0  0  0  0  # atno 17320 bound_to 7965
  145.2790  141.0133  143.3728 LP  0  0  0  0  0  0  0  0  0  0  0  0  # atno 17321 bound_to 7965
  140.6237  143.2179  151.6642 LP  0  0  0  0  0  0  0  0  0  0  0  0  # atno 17342 bound_to 10162
  139.5135  144.3441  152.0713 LP  0  0  0  0  0  0  0  0  0  0  0  0  # atno 17343 bound_to 10162
  157.0470  131.0052  151.3265 LP  0  0  0  0  0  0  0  0  0  0  0  0  # atno 17370 bound_to 10713
  157.5168  130.7973  149.7765 LP  0  0  0  0  0  0  0  0  0  0  0  0  # atno 17371 bound_to 10713
  140.4115  134.7268  157.4838 LP  0  0  0  0  0  0  0  0  0  0  0  0  # atno 17394 bound_to 11000
  140.0424  134.6248  155.8964 LP  0  0  0  0  0  0  0  0  0  0  0  0  # atno 17395 bound_to 11000

$$$$
