AV-unprocessed.smi:1257|AV-procd|sdf|5284|dock3
  -GOLD-   22720 4403D 1   1.00000     0.00000
 Structure written by MMmdl.
 47 48  0  0  0  0  0  0  0  0  1 V2000
  146.1465  133.9499  152.3527 C   0  0  0  0  0  0  0  0  0  0  0  0
  145.9409  135.0916  153.3571 C   0  0  0  0  0  0  0  0  0  0  0  0
  146.4695  136.3525  152.8504 N   0  0  0  0  0  0  0  0  0  0  0  0
  145.7350  137.4380  152.5642 C   0  0  0  0  0  0  0  0  0  0  0  0
  144.5096  137.4754  152.6853 O   0  0  0  0  0  0  0  0  0  0  0  0
  146.5086  138.6549  152.0422 C   0  0  0  0  0  0  0  0  0  0  0  0
  147.3783  139.2518  153.0527 N   0  0  0  0  0  0  0  0  0  0  0  0
  146.9751  139.6964  154.2550 C   0  0  0  0  0  0  0  0  0  0  0  0
  145.8158  139.6038  154.6596 O   0  0  0  0  0  0  0  0  0  0  0  0
  148.0518  140.2694  155.1300 C   0  0  0  0  0  0  0  0  0  0  0  0
  147.7473  140.7625  156.4159 C   0  0  0  0  0  0  0  0  0  0  0  0
  148.7776  141.3130  157.2020 C   0  0  0  0  0  0  0  0  0  0  0  0
  150.0923  141.3645  156.6814 C   0  0  0  0  0  0  0  0  0  0  0  0
  151.1418  141.9055  157.4551 N   0  0  0  0  0  0  0  0  0  0  0  0
  151.6287  141.1235  158.5898 C   0  0  0  0  0  0  0  0  0  0  0  0
  152.9424  141.7178  159.1299 C   0  0  2  0  0  0  0  0  0  0  0  0
  153.4234  140.9961  160.3928 C   0  0  0  0  0  0  0  0  0  0  0  0
  152.7353  143.0905  159.4502 O   0  0  0  0  0  0  0  0  0  0  0  0
  152.3685  143.8658  158.3123 C   0  0  2  0  0  0  0  0  0  0  0  0
  152.2616  145.3318  158.7446 C   0  0  0  0  0  0  0  0  0  0  0  0
  151.0401  143.3339  157.7418 C   0  0  0  0  0  0  0  0  0  0  0  0
  150.3792  140.9082  155.4372 N   0  0  0  0  0  0  0  0  0  0  0  0
  149.3884  140.3817  154.6871 C   0  0  0  0  0  0  0  0  0  0  0  0
  145.7157  133.0221  152.7289 H   0  0  0  0  0  0  0  0  0  0  0  0
  147.2056  133.7703  152.1654 H   0  0  0  0  0  0  0  0  0  0  0  0
  145.6706  134.1743  151.3978 H   0  0  0  0  0  0  0  0  0  0  0  0
  144.8763  135.2225  153.5513 H   0  0  0  0  0  0  0  0  0  0  0  0
  146.4026  134.8438  154.3143 H   0  0  0  0  0  0  0  0  0  0  0  0
  147.4687  136.4067  152.7152 H   0  0  0  0  0  0  0  0  0  0  0  0
  147.0917  138.3811  151.1611 H   0  0  0  0  0  0  0  0  0  0  0  0
  145.7898  139.4087  151.7208 H   0  0  0  0  0  0  0  0  0  0  0  0
  148.3534  139.3516  152.8111 H   0  0  0  0  0  0  0  0  0  0  0  0
  146.7395  140.7219  156.8034 H   0  0  0  0  0  0  0  0  0  0  0  0
  148.5450  141.7003  158.1825 H   0  0  0  0  0  0  0  0  0  0  0  0
  150.8691  141.1158  159.3727 H   0  0  0  0  0  0  0  0  0  0  0  0
  151.7974  140.0889  158.2875 H   0  0  0  0  0  0  0  0  0  0  0  0
  153.7213  141.6407  158.3691 H   0  0  0  0  0  0  0  0  0  0  0  0
  153.6063  139.9395  160.1951 H   0  0  0  0  0  0  0  0  0  0  0  0
  152.6850  141.0645  161.1921 H   0  0  0  0  0  0  0  0  0  0  0  0
  154.3532  141.4312  160.7600 H   0  0  0  0  0  0  0  0  0  0  0  0
  153.1514  143.7840  157.5561 H   0  0  0  0  0  0  0  0  0  0  0  0
  151.9918  145.9705  157.9032 H   0  0  0  0  0  0  0  0  0  0  0  0
  153.2108  145.6905  159.1432 H   0  0  0  0  0  0  0  0  0  0  0  0
  151.5048  145.4604  159.5192 H   0  0  0  0  0  0  0  0  0  0  0  0
  150.7834  143.9048  156.8506 H   0  0  0  0  0  0  0  0  0  0  0  0
  150.2336  143.4889  158.4597 H   0  0  0  0  0  0  0  0  0  0  0  0
  149.6819  140.0449  153.7034 H   0  0  0  0  0  0  0  0  0  0  0  0
  1  2  1  0  0  0  0
  1 24  1  0  0  0  0
  1 25  1  0  0  0  0
  1 26  1  0  0  0  0
  2  3  1  0  0  0  0
  2 27  1  0  0  0  0
  2 28  1  0  0  0  0
  3  4  1  0  0  0  0
  3 29  1  0  0  0  0
  4  5  2  0  0  0  0
  4  6  1  0  0  0  0
  6  7  1  0  0  0  0
  6 30  1  0  0  0  0
  6 31  1  0  0  0  0
  7  8  1  0  0  0  0
  7 32  1  0  0  0  0
  8  9  2  0  0  0  0
  8 10  1  0  0  0  0
 10 23  1  0  0  0  0
 10 11  2  0  0  0  0
 11 12  1  0  0  0  0
 11 33  1  0  0  0  0
 12 13  2  0  0  0  0
 12 34  1  0  0  0  0
 13 14  1  0  0  0  0
 13 22  1  0  0  0  0
 14 21  1  0  0  0  0
 14 15  1  0  0  0  0
 15 16  1  0  0  0  0
 15 35  1  0  0  0  0
 15 36  1  0  0  0  0
 16 17  1  0  0  0  0
 16 18  1  0  0  0  0
 16 37  1  0  0  0  0
 17 38  1  0  0  0  0
 17 39  1  0  0  0  0
 17 40  1  0  0  0  0
 18 19  1  0  0  0  0
 19 20  1  0  0  0  0
 19 21  1  0  0  0  0
 19 41  1  0  0  0  0
 20 42  1  0  0  0  0
 20 43  1  0  0  0  0
 20 44  1  0  0  0  0
 21 45  1  0  0  0  0
 21 46  1  0  0  0  0
 22 23  2  0  0  0  0
 23 47  1  0  0  0  0
M  END
> <s_m_source_file>
AV-unprocessed.smi

> <i_m_source_file_index>
1257

> <i_lp_mmshare_version>
43012

> <i_f3d_flags>
0

> <s_epik_input>
W0NIM11bQ0gyXVtOSF1DKD1PKVtDSDJdW05IXUMoPU8pYzFbY0hdW2NIXWMobltjSF0xKU4yW0NIMl1bQ0BASF0oW0NIM10pT1tDQEBIXShbQ0gzXSlbQ0gyXTI=

> <s_epik_cmdline>
J2VwaWtfcHl0aG9uJywgJy1waCcsICc3LjAnLCAnLXRuJywgJzgnLCAnLW1hJywgJzIwMCcsICctbWV0YWxfYmluZGluZycsICctaW1hZScsICc8aW5maWxlLm1hZT4nLCAnLW9tYWUnLCAnPG91dGZpbGUubWFlPic=

> <r_lp_tautomer_probability>
1

> <r_epik_Ionization_Penalty>
1.15681e-05

> <r_epik_Ionization_Penalty_Charging>
0

> <r_epik_Ionization_Penalty_Neutral>
1.15681e-05

> <r_epik_State_Penalty>
-0

> <r_epik_Charging_Adjusted_Penalty>
0

> <i_epik_Tot_Q>
0

> <i_epik_Tot_abs_Q>
0

> <r_epik_Metal_State_Penalty>
-0

> <b_epik_Metal_Only>
0

> <s_lp_Force_Field>
OPLS_2005

> <r_lp_Energy>
13.029

> <b_lp_Chiralities_Consistent>
1

> <s_lp_Variant>
AV-unprocessed.smi:1257-1

> <Gold.Version>
5.8.1

> <Gold.Id.Protein>
6NUR|6NUR_protein|mol2

> <Gold.PLP.Fitness>
48.2300

> <Gold.PLP.PLP>
-39.6061

> <Gold.PLP.part.hbond>
-2.8036

> <Gold.PLP.part.metal>
0.0000

> <Gold.PLP.part.buried>
-8.0955

> <Gold.PLP.part.nonpolar>
-32.2791

> <Gold.PLP.part.repulsive>
1.6496

> <Gold.PLP.ligand.clash>
0.0000

> <Gold.PLP.ligand.torsion>
0.2407

> <Gold.PLP.Chemscore.Hbond>
1.9267

> <Gold.PLP.Chemscore.CHOScore>
1.0000

> <Gold.PLP.Chemscore.Metal>
0.0000

> <Gold.Chemscore.Hbonds>
donor molecule, donor type, donor heavy atom, donor atom, acceptor molecule, acceptor atom, score
      L1  H     3    29       P1  7948  1.00
      L1  H     7    32       P1  7957  0.50
      P1  H  7989  7998       L1    22  0.07
      L1  C    23    47       P1  7957  0.97

> <Gold.PLP.Chemscore.Internal.Correction>
0.3253

> <Gold.Rescore>
     Score         DG    S(hbond)    S(metal)    S(lipo)     H(rot)  DE(clash)    DE(int)     intcor
     17.01     -18.81       1.81        0.00      99.48       1.71       0.72       1.08       ----

> <Gold.Chemscore.Fitness>
17.0126

> <Gold.Chemscore.DG>
-18.8121

> <Gold.Chemscore.ZeroCoef>
-5.4800

> <Gold.Chemscore.Hbond>
1.8150

> <Gold.Chemscore.Metal>
0.0000

> <Gold.Chemscore.Lipo>
99.4799

> <Gold.Chemscore.Internal_Hbond>
0.0000

> <Gold.Chemscore.DEClash>
0.7154

> <Gold.Chemscore.DEInternal>
1.0842

> <Gold.Chemscore.Rot>
1.7066

> <Gold.Chemscore.Internal.Correction>
   9.000000E+99

> <Gold.Chemscore.Hbonds>
donor molecule, donor type, donor heavy atom, donor atom, acceptor molecule, acceptor atom, score
      L1  H     3    29       P1  7948  0.98
      L1  H     7    32       P1  7957  0.49

> <Gold.Chemscore.Hbond.Weighted>
-6.0620

> <Gold.Chemscore.Metal.Weighted>
-0.0000

> <Gold.Chemscore.Lipo.Weighted>
-11.6391

> <Gold.Chemscore.Internal_Hbond.Weighted>
0.0000

> <Gold.Chemscore.DEClash.Weighted>
0.7154

> <Gold.Chemscore.DEInternal.Weighted>
1.0842

> <Gold.Chemscore.Rot.Weighted>
4.3690

> <Gold.Chemscore.Internal.Correction.Weighted>
   9.000000E+99

> <Gold.Protein.RotatedTorsions>
[ 6907 6896 6895 6894 ] final -166.84 input  -60.11 | X-H torsion
[ 7974 7965 7964 7962 ] final  -55.64 input  175.53 | X-H torsion
[ 8008 7997 7996 7995 ] final  176.10 input   59.86 | X-H torsion
[ 10167 10162 10161 10158 ] final -142.34 input  -65.29 | X-H torsion
[ 10718 10713 10712 10709 ] final   84.33 input   66.30 | X-H torsion
[ 10763 10752 10751 10750 ] final -105.32 input  -60.55 | X-H torsion
[ 11005 11000 10999 10996 ] final  -44.01 input  -57.11 | X-H torsion

> <Gold.Protein.ActiveResidues>
 VAL166  LYS551  ARG553  GLY616  TRP617  ASP618  TYR619  PRO620  LYS621  CYS622 
 ASP623  PHE694  ASN695  SER759  ASP760  ASP761  ALA762  ILE779  LEU786  VAL792 
 PHE793  MET794  SER795  GLU796  ALA797  LYS798  CYS799  TRP800  GLU811  SER814 

> <Gold.Protein.RotatedAtoms>
  151.4500  133.3620  159.2793 H   0  0  0  0  0  0  0  0  0  0  0  0  # atno 6907 bound_to 6896
  150.9097  134.8515  159.7428 H   0  0  0  0  0  0  0  0  0  0  0  0  # atno 6908 bound_to 6896
  152.4925  134.4429  159.9601 H   0  0  0  0  0  0  0  0  0  0  0  0  # atno 6909 bound_to 6896
  145.8718  140.8210  142.9884 H   0  0  0  0  0  0  0  0  0  0  0  0  # atno 7974 bound_to 7965
  156.0800  140.1392  156.9724 H   0  0  0  0  0  0  0  0  0  0  0  0  # atno 8008 bound_to 7997
  154.4580  140.0954  156.6861 H   0  0  0  0  0  0  0  0  0  0  0  0  # atno 8009 bound_to 7997
  155.5090  140.3453  155.4387 H   0  0  0  0  0  0  0  0  0  0  0  0  # atno 8010 bound_to 7997
  139.8098  143.7718  152.2663 H   0  0  0  0  0  0  0  0  0  0  0  0  # atno 10167 bound_to 10162
  157.6896  131.0129  150.2657 H   0  0  0  0  0  0  0  0  0  0  0  0  # atno 10718 bound_to 10713
  154.7939  135.4753  154.0115 H   0  0  0  0  0  0  0  0  0  0  0  0  # atno 10763 bound_to 10752
  153.1672  135.6819  153.8665 H   0  0  0  0  0  0  0  0  0  0  0  0  # atno 10764 bound_to 10752
  153.8259  135.3198  155.3392 H   0  0  0  0  0  0  0  0  0  0  0  0  # atno 10765 bound_to 10752
  141.0422  133.6775  156.2812 H   0  0  0  0  0  0  0  0  0  0  0  0  # atno 11005 bound_to 11000
  144.6726  140.1251  143.7447 LP  0  0  0  0  0  0  0  0  0  0  0  0  # atno 17320 bound_to 7965
  145.9127  139.2497  143.1428 LP  0  0  0  0  0  0  0  0  0  0  0  0  # atno 17321 bound_to 7965
  139.7864  144.7426  151.0017 LP  0  0  0  0  0  0  0  0  0  0  0  0  # atno 17342 bound_to 10162
  140.7818  143.4488  151.0443 LP  0  0  0  0  0  0  0  0  0  0  0  0  # atno 17343 bound_to 10162
  156.3229  130.3788  149.7559 LP  0  0  0  0  0  0  0  0  0  0  0  0  # atno 17370 bound_to 10713
  156.5124  130.8178  151.3173 LP  0  0  0  0  0  0  0  0  0  0  0  0  # atno 17371 bound_to 10713
  140.6214  134.5358  157.5548 LP  0  0  0  0  0  0  0  0  0  0  0  0  # atno 17394 bound_to 11000
  139.9284  134.8011  156.1001 LP  0  0  0  0  0  0  0  0  0  0  0  0  # atno 17395 bound_to 11000

$$$$
