AV-unprocessed.smi:848|AV-procd|sdf|3941|dock5
  -GOLD-   22720 1413D 1   1.00000     0.00000
 Structure written by MMmdl.
 47 49  0  0  0  0  0  0  0  0  2 V2000
  147.0168  135.5317  154.9750 C   0  0  0  0  0  0  0  0  0  0  0  0
  148.4712  135.2107  155.2513 C   0  0  0  0  0  0  0  0  0  0  0  0
  148.8408  133.9351  155.7219 C   0  0  0  0  0  0  0  0  0  0  0  0
  150.1940  133.6424  155.9789 C   0  0  0  0  0  0  0  0  0  0  0  0
  150.5834  132.2685  156.4847 C   0  0  0  0  0  0  0  0  0  0  0  0
  151.1766  134.6306  155.7643 C   0  0  0  0  0  0  0  0  0  0  0  0
  150.8238  135.9122  155.2940 C   0  0  0  0  0  0  0  0  0  0  0  0
  151.8493  136.8163  155.1158 O   0  0  0  0  0  0  0  0  0  0  0  0
  151.5596  138.0433  154.4589 C   0  0  0  0  0  0  0  0  0  0  0  0
  152.1943  139.1968  155.2496 C   0  0  2  0  0  0  0  0  0  0  0  0
  153.5689  138.9162  155.4241 O   0  0  0  0  0  0  0  0  0  0  0  0
  151.5190  139.4185  156.6184 C   0  0  0  0  0  0  0  0  0  0  0  0
  151.1094  140.8159  156.8315 N   0  0  0  0  0  0  0  0  0  0  0  0
  150.1662  141.5589  156.1837 C   0  0  0  0  0  0  0  0  0  0  0  0
  149.2845  141.1109  155.0654 C   0  0  0  0  0  0  0  0  0  0  0  0
  149.0605  142.1324  154.1192 O   0  0  0  0  0  0  0  0  0  0  0  0
  150.1631  142.7960  156.7551 N   0  3  0  0  0  0  0  0  0  0  0  0
  151.1137  142.8475  157.7752 C   0  0  0  0  0  0  0  0  0  0  0  0
  151.4743  143.8834  158.6315 C   0  0  0  0  0  0  0  0  0  0  0  0
  152.4921  143.6058  159.5673 C   0  0  0  0  0  0  0  0  0  0  0  0
  153.1082  142.3390  159.6272 C   0  0  0  0  0  0  0  0  0  0  0  0
  152.7326  141.2958  158.7554 C   0  0  0  0  0  0  0  0  0  0  0  0
  151.7260  141.5782  157.8316 C   0  0  0  0  0  0  0  0  0  0  0  0
  149.4583  136.1945  155.0373 C   0  0  0  0  0  0  0  0  0  0  0  0
  146.3730  134.6770  155.1850 H   0  0  0  0  0  0  0  0  0  0  0  0
  146.8833  135.8097  153.9293 H   0  0  0  0  0  0  0  0  0  0  0  0
  146.6891  136.3653  155.5966 H   0  0  0  0  0  0  0  0  0  0  0  0
  148.0877  133.1783  155.8872 H   0  0  0  0  0  0  0  0  0  0  0  0
  151.6607  132.1879  156.6328 H   0  0  0  0  0  0  0  0  0  0  0  0
  150.2798  131.5032  155.7700 H   0  0  0  0  0  0  0  0  0  0  0  0
  150.0925  132.0633  157.4363 H   0  0  0  0  0  0  0  0  0  0  0  0
  152.2149  134.4077  155.9619 H   0  0  0  0  0  0  0  0  0  0  0  0
  151.9416  138.0330  153.4365 H   0  0  0  0  0  0  0  0  0  0  0  0
  150.4781  138.1849  154.4160 H   0  0  0  0  0  0  0  0  0  0  0  0
  152.1242  140.1096  154.6572 H   0  0  0  0  0  0  0  0  0  0  0  0
  153.6603  138.2863  156.1224 H   0  0  0  0  0  0  0  0  0  0  0  0
  150.6187  138.8076  156.6928 H   0  0  0  0  0  0  0  0  0  0  0  0
  152.1646  139.1001  157.4368 H   0  0  0  0  0  0  0  0  0  0  0  0
  149.7392  140.2557  154.5649 H   0  0  0  0  0  0  0  0  0  0  0  0
  148.3264  140.7763  155.4632 H   0  0  0  0  0  0  0  0  0  0  0  0
  149.0329  142.9616  154.5720 H   0  0  0  0  0  0  0  0  0  0  0  0
  151.0038  144.8548  158.5872 H   0  0  0  0  0  0  0  0  0  0  0  0
  152.8076  144.3802  160.2517 H   0  0  0  0  0  0  0  0  0  0  0  0
  153.8857  142.1635  160.3566 H   0  0  0  0  0  0  0  0  0  0  0  0
  153.2147  140.3314  158.8104 H   0  0  0  0  0  0  0  0  0  0  0  0
  149.1425  137.1618  154.6767 H   0  0  0  0  0  0  0  0  0  0  0  0
  149.5503  143.5478  156.4671 H   0  0  0  0  0  0  0  0  0  0  0  0
  1  2  1  0  0  0  0
  1 25  1  0  0  0  0
  1 26  1  0  0  0  0
  1 27  1  0  0  0  0
  2 24  1  0  0  0  0
  2  3  2  0  0  0  0
  3  4  1  0  0  0  0
  3 28  1  0  0  0  0
  4  5  1  0  0  0  0
  4  6  2  0  0  0  0
  5 29  1  0  0  0  0
  5 30  1  0  0  0  0
  5 31  1  0  0  0  0
  6  7  1  0  0  0  0
  6 32  1  0  0  0  0
  7  8  1  0  0  0  0
  7 24  2  0  0  0  0
  8  9  1  0  0  0  0
  9 10  1  0  0  0  0
  9 33  1  0  0  0  0
  9 34  1  0  0  0  0
 10 11  1  0  0  0  0
 10 12  1  0  0  0  0
 10 35  1  0  0  0  0
 11 36  1  0  0  0  0
 12 13  1  0  0  0  0
 12 37  1  0  0  0  0
 12 38  1  0  0  0  0
 13 23  1  0  0  0  0
 13 14  1  0  0  0  0
 14 15  1  0  0  0  0
 14 17  2  0  0  0  0
 15 16  1  0  0  0  0
 15 39  1  0  0  0  0
 15 40  1  0  0  0  0
 16 41  1  0  0  0  0
 17 18  1  0  0  0  0
 17 47  1  0  0  0  0
 18 23  2  0  0  0  0
 18 19  1  0  0  0  0
 19 20  2  0  0  0  0
 19 42  1  0  0  0  0
 20 21  1  0  0  0  0
 20 43  1  0  0  0  0
 21 22  2  0  0  0  0
 21 44  1  0  0  0  0
 22 23  1  0  0  0  0
 22 45  1  0  0  0  0
 24 46  1  0  0  0  0
M  CHG  1  17   1
M  END
> <s_m_source_file>
AV-unprocessed.smi

> <i_m_source_file_index>
848

> <i_lp_mmshare_version>
43012

> <i_f3d_flags>
0

> <s_epik_input>
W0NIM11jMVtjSF1jKFtDSDNdKVtjSF1jKFtjSF0xKU9bQ0gyXVtDQEhdKFtPSF0pW0NIMl1uKGMobjIpW0NIMl1bT0hdKWMoYzIzKVtjSF1bY0hdW2NIXVtjSF0z

> <s_epik_cmdline>
J2VwaWtfcHl0aG9uJywgJy1waCcsICc3LjAnLCAnLXRuJywgJzgnLCAnLW1hJywgJzIwMCcsICctbWV0YWxfYmluZGluZycsICctaW1hZScsICc8aW5maWxlLm1hZT4nLCAnLW9tYWUnLCAnPG91dGZpbGUubWFlPic=

> <r_lp_tautomer_probability>
1

> <r_epik_Ionization_Penalty>
1.43292

> <r_epik_Ionization_Penalty_Charging>
1.43206

> <r_epik_Ionization_Penalty_Neutral>
0.000858184

> <r_epik_State_Penalty>
1.51673

> <r_epik_Charging_Adjusted_Penalty>
2.94879

> <i_epik_Tot_Q>
1

> <i_epik_Tot_abs_Q>
1

> <r_epik_Metal_State_Penalty>
5.56186

> <b_epik_Metal_Only>
0

> <s_lp_Force_Field>
OPLS_2005

> <r_lp_Energy>
18.3298

> <b_lp_Chiralities_Consistent>
1

> <s_lp_Variant>
AV-unprocessed.smi:848-3

> <Gold.Version>
5.8.1

> <Gold.Id.Protein>
6NUR|6NUR_protein|mol2

> <Gold.PLP.Fitness>
58.6044

> <Gold.PLP.PLP>
-45.7637

> <Gold.PLP.part.hbond>
-5.0080

> <Gold.PLP.part.metal>
0.0000

> <Gold.PLP.part.buried>
-5.7674

> <Gold.PLP.part.nonpolar>
-36.2574

> <Gold.PLP.part.repulsive>
0.1368

> <Gold.PLP.ligand.clash>
0.0000

> <Gold.PLP.ligand.torsion>
1.5095

> <Gold.PLP.Chemscore.Hbond>
5.2640

> <Gold.PLP.Chemscore.CHOScore>
0.0000

> <Gold.PLP.Chemscore.Metal>
0.0000

> <Gold.Chemscore.Hbonds>
donor molecule, donor type, donor heavy atom, donor atom, acceptor molecule, acceptor atom, score
      L1  H    16    41       P1  8028  0.94
      L1  H    17    47       P1  8028  2.00
      P1  H  7997  8008       L1    11  0.84
      P1  H  8011  8017       L1    16  0.34
      P1  H 10752 10764       L1     8  0.70

> <Gold.PLP.Chemscore.Internal.Correction>
0.0677

> <Gold.Rescore>
     Score         DG    S(hbond)    S(metal)    S(lipo)     H(rot)  DE(clash)    DE(int)     intcor
     21.09     -22.61       3.58        0.00     110.98       3.05       0.08       1.44       ----

> <Gold.Chemscore.Fitness>
21.0886

> <Gold.Chemscore.DG>
-22.6106

> <Gold.Chemscore.ZeroCoef>
-5.4800

> <Gold.Chemscore.Hbond>
3.5771

> <Gold.Chemscore.Metal>
0.0000

> <Gold.Chemscore.Lipo>
110.9809

> <Gold.Chemscore.Internal_Hbond>
0.0000

> <Gold.Chemscore.DEClash>
0.0840

> <Gold.Chemscore.DEInternal>
1.4380

> <Gold.Chemscore.Rot>
3.0476

> <Gold.Chemscore.Internal.Correction>
   9.000000E+99

> <Gold.Chemscore.Hbonds>
donor molecule, donor type, donor heavy atom, donor atom, acceptor molecule, acceptor atom, score
      L1  H    16    41       P1  8028  0.90
      L1  H    17    47       P1  8028  0.97
      P1  H  7997  8008       L1    11  0.14
      P1  H  8011  8017       L1    16  0.22
      P1  H 10752 10764       L1     8  0.07

> <Gold.Chemscore.Hbond.Weighted>
-11.9476

> <Gold.Chemscore.Metal.Weighted>
-0.0000

> <Gold.Chemscore.Lipo.Weighted>
-12.9848

> <Gold.Chemscore.Internal_Hbond.Weighted>
0.0000

> <Gold.Chemscore.DEClash.Weighted>
0.0840

> <Gold.Chemscore.DEInternal.Weighted>
1.4380

> <Gold.Chemscore.Rot.Weighted>
7.8018

> <Gold.Chemscore.Internal.Correction.Weighted>
   9.000000E+99

> <Gold.Protein.RotatedTorsions>
[ 6907 6896 6895 6894 ] final  175.39 input  -60.11 | X-H torsion
[ 7974 7965 7964 7962 ] final  104.75 input  175.53 | X-H torsion
[ 8008 7997 7996 7995 ] final  -29.55 input   59.86 | X-H torsion
[ 10167 10162 10161 10158 ] final   65.30 input  -65.29 | X-H torsion
[ 10718 10713 10712 10709 ] final  160.62 input   66.30 | X-H torsion
[ 10763 10752 10751 10750 ] final  -66.70 input  -60.55 | X-H torsion
[ 11005 11000 10999 10996 ] final   34.82 input  -57.11 | X-H torsion

> <Gold.Protein.ActiveResidues>
 VAL166  LYS551  ARG553  GLY616  TRP617  ASP618  TYR619  PRO620  LYS621  CYS622 
 ASP623  PHE694  ASN695  SER759  ASP760  ASP761  ALA762  ILE779  LEU786  VAL792 
 PHE793  MET794  SER795  GLU796  ALA797  LYS798  CYS799  TRP800  GLU811  SER814 

> <Gold.Protein.RotatedAtoms>
  151.7369  133.3320  159.3355 H   0  0  0  0  0  0  0  0  0  0  0  0  # atno 6907 bound_to 6896
  150.7589  134.6313  159.6197 H   0  0  0  0  0  0  0  0  0  0  0  0  # atno 6908 bound_to 6896
  152.3555  134.6948  160.0275 H   0  0  0  0  0  0  0  0  0  0  0  0  # atno 6909 bound_to 6896
  145.3286  139.2493  143.3673 H   0  0  0  0  0  0  0  0  0  0  0  0  # atno 7974 bound_to 7965
  154.4285  140.1815  156.1266 H   0  0  0  0  0  0  0  0  0  0  0  0  # atno 8008 bound_to 7997
  156.0101  140.3351  155.6907 H   0  0  0  0  0  0  0  0  0  0  0  0  # atno 8009 bound_to 7997
  155.6123  140.0651  157.2693 H   0  0  0  0  0  0  0  0  0  0  0  0  # atno 8010 bound_to 7997
  140.1128  144.4802  150.6967 H   0  0  0  0  0  0  0  0  0  0  0  0  # atno 10167 bound_to 10162
  157.1478  131.0556  151.2295 H   0  0  0  0  0  0  0  0  0  0  0  0  # atno 10718 bound_to 10713
  154.3637  135.6110  153.5704 H   0  0  0  0  0  0  0  0  0  0  0  0  # atno 10763 bound_to 10752
  152.9792  135.5821  154.4603 H   0  0  0  0  0  0  0  0  0  0  0  0  # atno 10764 bound_to 10752
  154.4345  135.2848  155.1867 H   0  0  0  0  0  0  0  0  0  0  0  0  # atno 10765 bound_to 10752
  140.2490  134.3326  155.7897 H   0  0  0  0  0  0  0  0  0  0  0  0  # atno 11005 bound_to 11000
  146.3054  140.3859  142.8689 LP  0  0  0  0  0  0  0  0  0  0  0  0  # atno 17320 bound_to 7965
  144.8882  140.7489  143.5943 LP  0  0  0  0  0  0  0  0  0  0  0  0  # atno 17321 bound_to 7965
  140.6916  143.2379  151.5116 LP  0  0  0  0  0  0  0  0  0  0  0  0  # atno 17342 bound_to 10162
  139.5610  144.2157  152.1691 LP  0  0  0  0  0  0  0  0  0  0  0  0  # atno 17343 bound_to 10162
  157.4248  130.7458  149.6942 LP  0  0  0  0  0  0  0  0  0  0  0  0  # atno 17370 bound_to 10713
  155.9776  130.4061  150.3701 LP  0  0  0  0  0  0  0  0  0  0  0  0  # atno 17371 bound_to 10713
  141.2203  133.7342  156.9006 LP  0  0  0  0  0  0  0  0  0  0  0  0  # atno 17394 bound_to 11000
  140.1577  134.9187  157.2675 LP  0  0  0  0  0  0  0  0  0  0  0  0  # atno 17395 bound_to 11000

$$$$
