AV-unprocessed.smi:505|AV-procd|sdf|2749|dock10
  -GOLD-   2262023213D 1   1.00000     0.00000
 Structure written by MMmdl.
 36 37  0  0  0  0  0  0  0  0  2 V2000
  150.7300  140.7077  155.6125 C   0  0  0  0  0  0  0  0  0  0  0  0
  151.0649  139.3514  155.8477 O   0  0  0  0  0  0  0  0  0  0  0  0
  151.2770  138.6295  154.6463 C   0  0  0  0  0  0  0  0  0  0  0  0
  150.4835  137.3189  154.7071 C   0  0  0  0  0  0  0  0  0  0  0  0
  149.3358  137.4272  155.6015 N   0  0  0  0  0  0  0  0  0  0  0  0
  148.0674  137.7765  155.2741 C   0  0  0  0  0  0  0  0  0  0  0  0
  147.7341  138.0668  153.9564 N   0  0  0  0  0  0  0  0  0  0  0  0
  146.4839  138.4595  153.3328 C   0  0  0  0  0  0  0  0  0  0  0  0
  146.6582  138.7826  151.8421 C   0  0  0  0  0  0  0  0  0  0  0  0
  146.8478  137.5910  151.1087 O   0  0  0  0  0  0  0  0  0  0  0  0
  147.2075  137.8005  156.2938 N   0  0  0  0  0  0  0  0  0  0  0  0
  148.0007  137.4197  157.3679 C   0  0  0  0  0  0  0  0  0  0  0  0
  149.2812  137.1792  156.9752 C   0  0  0  0  0  0  0  0  0  0  0  0
  150.3545  136.7322  157.8880 C   0  0  0  0  0  0  0  0  0  0  0  0
  151.4902  136.5129  157.4714 O   0  0  0  0  0  0  0  0  0  0  0  0
  149.9124  136.6024  159.1792 N   0  5  0  0  0  0  0  0  0  0  0  0
  148.6290  136.8390  159.6237 C   0  0  0  0  0  0  0  0  0  0  0  0
  148.3133  136.6936  160.8054 O   0  0  0  0  0  0  0  0  0  0  0  0
  147.6652  137.2470  158.7386 N   0  0  0  0  0  0  0  0  0  0  0  0
  146.2932  137.5075  159.1834 C   0  0  0  0  0  0  0  0  0  0  0  0
  150.5731  141.2164  156.5635 H   0  0  0  0  0  0  0  0  0  0  0  0
  149.8119  140.7927  155.0298 H   0  0  0  0  0  0  0  0  0  0  0  0
  151.5307  141.2249  155.0823 H   0  0  0  0  0  0  0  0  0  0  0  0
  150.9506  139.2259  153.7926 H   0  0  0  0  0  0  0  0  0  0  0  0
  152.3400  138.4211  154.5154 H   0  0  0  0  0  0  0  0  0  0  0  0
  150.1426  137.0251  153.7152 H   0  0  0  0  0  0  0  0  0  0  0  0
  151.1284  136.5073  155.0445 H   0  0  0  0  0  0  0  0  0  0  0  0
  148.4908  137.9464  153.2989 H   0  0  0  0  0  0  0  0  0  0  0  0
  145.7905  137.6251  153.4419 H   0  0  0  0  0  0  0  0  0  0  0  0
  146.0471  139.3019  153.8700 H   0  0  0  0  0  0  0  0  0  0  0  0
  145.8136  139.3470  151.4451 H   0  0  0  0  0  0  0  0  0  0  0  0
  147.5471  139.3982  151.7033 H   0  0  0  0  0  0  0  0  0  0  0  0
  147.1217  136.9119  151.7059 H   0  0  0  0  0  0  0  0  0  0  0  0
  146.2823  138.2636  159.9699 H   0  0  0  0  0  0  0  0  0  0  0  0
  145.8417  136.5969  159.5787 H   0  0  0  0  0  0  0  0  0  0  0  0
  145.6520  137.8687  158.3795 H   0  0  0  0  0  0  0  0  0  0  0  0
  1  2  1  0  0  0  0
  1 21  1  0  0  0  0
  1 22  1  0  0  0  0
  1 23  1  0  0  0  0
  2  3  1  0  0  0  0
  3  4  1  0  0  0  0
  3 24  1  0  0  0  0
  3 25  1  0  0  0  0
  4  5  1  0  0  0  0
  4 26  1  0  0  0  0
  4 27  1  0  0  0  0
  5 13  1  0  0  0  0
  5  6  1  0  0  0  0
  6  7  1  0  0  0  0
  6 11  2  0  0  0  0
  7  8  1  0  0  0  0
  7 28  1  0  0  0  0
  8  9  1  0  0  0  0
  8 29  1  0  0  0  0
  8 30  1  0  0  0  0
  9 10  1  0  0  0  0
  9 31  1  0  0  0  0
  9 32  1  0  0  0  0
 10 33  1  0  0  0  0
 11 12  1  0  0  0  0
 12 19  1  0  0  0  0
 12 13  2  0  0  0  0
 13 14  1  0  0  0  0
 14 15  2  0  0  0  0
 14 16  1  0  0  0  0
 16 17  1  0  0  0  0
 17 18  2  0  0  0  0
 17 19  1  0  0  0  0
 19 20  1  0  0  0  0
 20 34  1  0  0  0  0
 20 35  1  0  0  0  0
 20 36  1  0  0  0  0
M  CHG  1  16  -1
M  END
> <s_m_source_file>
AV-unprocessed.smi

> <i_m_source_file_index>
505

> <i_lp_mmshare_version>
43012

> <i_f3d_flags>
0

> <s_epik_input>
W09IXVtDSDJdW0NIMl1bTkhdYyhuMSluKFtDSDJdW0NIMl1PW0NIM10pYyhjMTIpYyg9TylbbkhdYyg9TyluMltDSDNd

> <s_epik_cmdline>
J2VwaWtfcHl0aG9uJywgJy1waCcsICc3LjAnLCAnLXRuJywgJzgnLCAnLW1hJywgJzIwMCcsICctbWV0YWxfYmluZGluZycsICctaW1hZScsICc8aW5maWxlLm1hZT4nLCAnLW9tYWUnLCAnPG91dGZpbGUubWFlPic=

> <r_lp_tautomer_probability>
1

> <r_epik_Ionization_Penalty>
5.9232

> <r_epik_Ionization_Penalty_Charging>
1.43987e-08

> <r_epik_Ionization_Penalty_Neutral>
5.9232

> <r_epik_State_Penalty>
5.92302

> <r_epik_Charging_Adjusted_Penalty>
5.92302

> <i_epik_Tot_Q>
-1

> <i_epik_Tot_abs_Q>
1

> <r_epik_Metal_State_Penalty>
1.88194

> <b_epik_Metal_Only>
1

> <s_lp_Force_Field>
OPLS_2005

> <r_lp_Energy>
27.5321

> <b_lp_Chiralities_Consistent>
1

> <s_lp_Variant>
AV-unprocessed.smi:505-2

> <Gold.Version>
5.8.1

> <Gold.Id.Protein>
6NUR|6NUR_protein|mol2

> <Gold.PLP.Fitness>
37.6183

> <Gold.PLP.PLP>
-25.4135

> <Gold.PLP.part.hbond>
-4.9790

> <Gold.PLP.part.metal>
0.0000

> <Gold.PLP.part.buried>
-4.8069

> <Gold.PLP.part.nonpolar>
-16.9501

> <Gold.PLP.part.repulsive>
0.0001

> <Gold.PLP.ligand.clash>
0.0000

> <Gold.PLP.ligand.torsion>
1.0008

> <Gold.PLP.Chemscore.Hbond>
4.7313

> <Gold.PLP.Chemscore.CHOScore>
0.0000

> <Gold.PLP.Chemscore.Metal>
0.0000

> <Gold.Chemscore.Hbonds>
donor molecule, donor type, donor heavy atom, donor atom, acceptor molecule, acceptor atom, score
      L1  H     7    28       P1  7948  0.26
      L1  H    10    33       P1  7948  0.48
      P1  H  6896  6907       L1    16  2.00
      P1  H  6931  6943       L1    18  0.99
      P1  H  7954  7966       L1    10  1.00

> <Gold.PLP.Chemscore.Internal.Correction>
0.0126

> <Gold.Rescore>
     Score         DG    S(hbond)    S(metal)    S(lipo)     H(rot)  DE(clash)    DE(int)     intcor
      9.67     -10.96       2.53        0.00      40.70       3.02       0.30       0.99       ----

> <Gold.Chemscore.Fitness>
9.6743

> <Gold.Chemscore.DG>
-10.9565

> <Gold.Chemscore.ZeroCoef>
-5.4800

> <Gold.Chemscore.Hbond>
2.5271

> <Gold.Chemscore.Metal>
0.0000

> <Gold.Chemscore.Lipo>
40.7032

> <Gold.Chemscore.Internal_Hbond>
0.0000

> <Gold.Chemscore.DEClash>
0.2950

> <Gold.Chemscore.DEInternal>
0.9872

> <Gold.Chemscore.Rot>
3.0181

> <Gold.Chemscore.Internal.Correction>
   9.000000E+99

> <Gold.Chemscore.Hbonds>
donor molecule, donor type, donor heavy atom, donor atom, acceptor molecule, acceptor atom, score
      L1  H     7    28       P1  7948  0.26
      L1  H    10    33       P1  7948  0.48
      P1  H  6896  6907       L1    16  0.24
      P1  H  6931  6943       L1    18  0.63
      P1  H  7954  7966       L1    10  0.49

> <Gold.Chemscore.Hbond.Weighted>
-8.4406

> <Gold.Chemscore.Metal.Weighted>
-0.0000

> <Gold.Chemscore.Lipo.Weighted>
-4.7623

> <Gold.Chemscore.Internal_Hbond.Weighted>
0.0000

> <Gold.Chemscore.DEClash.Weighted>
0.2950

> <Gold.Chemscore.DEInternal.Weighted>
0.9872

> <Gold.Chemscore.Rot.Weighted>
7.7264

> <Gold.Chemscore.Internal.Correction.Weighted>
   9.000000E+99

> <Gold.Protein.RotatedTorsions>
[ 6907 6896 6895 6894 ] final  -45.84 input  -60.11 | X-H torsion
[ 7974 7965 7964 7962 ] final -172.81 input  175.53 | X-H torsion
[ 8008 7997 7996 7995 ] final -177.71 input   59.86 | X-H torsion
[ 10167 10162 10161 10158 ] final -114.84 input  -65.29 | X-H torsion
[ 10718 10713 10712 10709 ] final  151.28 input   66.30 | X-H torsion
[ 10763 10752 10751 10750 ] final -108.45 input  -60.55 | X-H torsion
[ 11005 11000 10999 10996 ] final -117.49 input  -57.11 | X-H torsion

> <Gold.Protein.ActiveResidues>
 VAL166  LYS551  ARG553  GLY616  TRP617  ASP618  TYR619  PRO620  LYS621  CYS622 
 ASP623  PHE694  ASN695  SER759  ASP760  ASP761  ALA762  ILE779  LEU786  VAL792 
 PHE793  MET794  SER795  GLU796  ALA797  LYS798  CYS799  TRP800  GLU811  SER814 

> <Gold.Protein.RotatedAtoms>
  150.9176  134.8593  159.7466 H   0  0  0  0  0  0  0  0  0  0  0  0  # atno 6907 bound_to 6896
  152.4976  134.4266  159.9508 H   0  0  0  0  0  0  0  0  0  0  0  0  # atno 6908 bound_to 6896
  151.4303  133.3633  159.2803 H   0  0  0  0  0  0  0  0  0  0  0  0  # atno 6909 bound_to 6896
  144.7143  140.1716  143.6367 H   0  0  0  0  0  0  0  0  0  0  0  0  # atno 7974 bound_to 7965
  156.0102  140.1239  157.0461 H   0  0  0  0  0  0  0  0  0  0  0  0  # atno 8008 bound_to 7997
  154.4273  140.1089  156.5888 H   0  0  0  0  0  0  0  0  0  0  0  0  # atno 8009 bound_to 7997
  155.6091  140.3471  155.4619 H   0  0  0  0  0  0  0  0  0  0  0  0  # atno 8010 bound_to 7997
  140.0966  143.4651  152.1838 H   0  0  0  0  0  0  0  0  0  0  0  0  # atno 10167 bound_to 10162
  157.2727  131.0820  151.1588 H   0  0  0  0  0  0  0  0  0  0  0  0  # atno 10718 bound_to 10713
  154.8136  135.4637  154.0582 H   0  0  0  0  0  0  0  0  0  0  0  0  # atno 10763 bound_to 10752
  153.1993  135.6866  153.8258 H   0  0  0  0  0  0  0  0  0  0  0  0  # atno 10764 bound_to 10752
  153.7748  135.3265  155.3334 H   0  0  0  0  0  0  0  0  0  0  0  0  # atno 10765 bound_to 10752
  141.0351  133.9922  157.3083 H   0  0  0  0  0  0  0  0  0  0  0  0  # atno 11005 bound_to 11000
  145.8938  139.2391  143.1534 LP  0  0  0  0  0  0  0  0  0  0  0  0  # atno 17320 bound_to 7965
  145.9877  140.8629  143.0082 LP  0  0  0  0  0  0  0  0  0  0  0  0  # atno 17321 bound_to 7965
  139.5695  144.7454  151.3930 LP  0  0  0  0  0  0  0  0  0  0  0  0  # atno 17342 bound_to 10162
  140.7000  143.7654  150.7388 LP  0  0  0  0  0  0  0  0  0  0  0  0  # atno 17343 bound_to 10162
  157.3054  130.6863  149.6186 LP  0  0  0  0  0  0  0  0  0  0  0  0  # atno 17370 bound_to 10713
  155.9663  130.4379  150.5197 LP  0  0  0  0  0  0  0  0  0  0  0  0  # atno 17371 bound_to 10713
  139.9235  135.0201  156.8150 LP  0  0  0  0  0  0  0  0  0  0  0  0  # atno 17394 bound_to 11000
  140.6337  133.9882  155.7674 LP  0  0  0  0  0  0  0  0  0  0  0  0  # atno 17395 bound_to 11000

$$$$
