AV-unprocessed.smi:3029|AV-procd|sdf|11527|dock2
  -GOLD-   2272016473D 1   1.00000     0.00000
 Structure written by MMmdl.
 42 43  0  0  0  0  0  0  0  0  4 V2000
  147.6989  137.1857  161.8533 O   0  0  0  0  0  0  0  0  0  0  0  0
  147.6857  136.0103  161.4880 C   0  0  0  0  0  0  0  0  0  0  0  0
  147.3611  134.9120  162.4038 C   0  0  0  0  0  0  0  0  0  0  0  0
  147.3320  133.6299  161.9898 C   0  0  0  0  0  0  0  0  0  0  0  0
  147.6221  133.2962  160.6087 C   0  0  0  0  0  0  0  0  0  0  0  0
  147.5793  131.9253  160.1494 N   0  3  0  0  0  0  0  0  0  0  0  0
  147.9143  131.6740  158.9956 O   0  0  0  0  0  0  0  0  0  0  0  0
  147.2085  131.0546  160.9297 O   0  5  0  0  0  0  0  0  0  0  0  0
  147.9270  134.3069  159.7709 C   0  0  0  0  0  0  0  0  0  0  0  0
  147.9693  135.6473  160.2007 N   0  0  0  0  0  0  0  0  0  0  0  0
  148.3144  136.6611  159.1949 C   0  0  0  0  0  0  0  0  0  0  0  0
  149.8366  136.8317  159.0674 C   0  0  0  0  0  0  0  0  0  0  0  0
  150.1668  138.1082  158.4009 N   0  3  0  0  0  0  0  0  0  0  0  0
  149.3857  138.4118  157.1773 C   0  0  2  0  0  0  0  0  0  0  0  0
  149.2038  137.1548  156.2970 C   0  0  0  0  0  0  0  0  0  0  0  0
  150.5297  136.6927  155.6683 C   0  0  0  0  0  0  0  0  0  0  0  0
  151.1906  137.8252  154.8690 C   0  0  0  0  0  0  0  0  0  0  0  0
  151.3766  139.0874  155.7266 C   0  0  0  0  0  0  0  0  0  0  0  0
  150.0422  139.5512  156.3523 C   0  0  2  0  0  0  0  0  0  0  0  0
  150.1778  140.8844  157.1235 C   0  0  0  0  0  0  0  0  0  0  0  0
  150.9924  140.7630  158.1720 F   0  0  0  0  0  0  0  0  0  0  0  0
  150.6660  141.8239  156.3142 F   0  0  0  0  0  0  0  0  0  0  0  0
  148.9814  141.2861  157.5517 F   0  0  0  0  0  0  0  0  0  0  0  0
  147.1407  135.1383  163.4367 H   0  0  0  0  0  0  0  0  0  0  0  0
  147.0889  132.8548  162.7017 H   0  0  0  0  0  0  0  0  0  0  0  0
  148.1528  134.1639  158.7239 H   0  0  0  0  0  0  0  0  0  0  0  0
  147.8830  136.3981  158.2269 H   0  0  0  0  0  0  0  0  0  0  0  0
  147.8587  137.6180  159.4552 H   0  0  0  0  0  0  0  0  0  0  0  0
  150.2925  136.7995  160.0567 H   0  0  0  0  0  0  0  0  0  0  0  0
  150.2600  136.0090  158.4898 H   0  0  0  0  0  0  0  0  0  0  0  0
  149.9856  138.8460  159.0671 H   0  0  0  0  0  0  0  0  0  0  0  0
  148.3991  138.7538  157.4930 H   0  0  0  0  0  0  0  0  0  0  0  0
  148.7532  136.3387  156.8611 H   0  0  0  0  0  0  0  0  0  0  0  0
  148.4971  137.3818  155.4975 H   0  0  0  0  0  0  0  0  0  0  0  0
  151.2096  136.3478  156.4480 H   0  0  0  0  0  0  0  0  0  0  0  0
  150.3521  135.8365  155.0169 H   0  0  0  0  0  0  0  0  0  0  0  0
  152.1544  137.4936  154.4814 H   0  0  0  0  0  0  0  0  0  0  0  0
  150.5756  138.0634  154.0002 H   0  0  0  0  0  0  0  0  0  0  0  0
  152.1107  138.8937  156.5093 H   0  0  0  0  0  0  0  0  0  0  0  0
  151.7951  139.8811  155.1070 H   0  0  0  0  0  0  0  0  0  0  0  0
  149.3646  139.7567  155.5217 H   0  0  0  0  0  0  0  0  0  0  0  0
  151.1503  138.1220  158.1708 H   0  0  0  0  0  0  0  0  0  0  0  0
  1  2  2  0  0  0  0
  2 10  1  0  0  0  0
  2  3  1  0  0  0  0
  3  4  2  0  0  0  0
  3 24  1  0  0  0  0
  4  5  1  0  0  0  0
  4 25  1  0  0  0  0
  5  6  1  0  0  0  0
  5  9  2  0  0  0  0
  6  7  2  0  0  0  0
  6  8  1  0  0  0  0
  9 10  1  0  0  0  0
  9 26  1  0  0  0  0
 10 11  1  0  0  0  0
 11 12  1  0  0  0  0
 11 27  1  0  0  0  0
 11 28  1  0  0  0  0
 12 13  1  0  0  0  0
 12 29  1  0  0  0  0
 12 30  1  0  0  0  0
 13 14  1  0  0  0  0
 13 31  1  0  0  0  0
 13 42  1  0  0  0  0
 14 19  1  0  0  0  0
 14 15  1  0  0  0  0
 14 32  1  0  0  0  0
 15 16  1  0  0  0  0
 15 33  1  0  0  0  0
 15 34  1  0  0  0  0
 16 17  1  0  0  0  0
 16 35  1  0  0  0  0
 16 36  1  0  0  0  0
 17 18  1  0  0  0  0
 17 37  1  0  0  0  0
 17 38  1  0  0  0  0
 18 19  1  0  0  0  0
 18 39  1  0  0  0  0
 18 40  1  0  0  0  0
 19 20  1  0  0  0  0
 19 41  1  0  0  0  0
 20 21  1  0  0  0  0
 20 22  1  0  0  0  0
 20 23  1  0  0  0  0
M  CHG  1   6   1
M  CHG  1   8  -1
M  CHG  1  13   1
M  END
> <s_m_source_file>
AV-unprocessed.smi

> <i_m_source_file_index>
3029

> <i_lp_mmshare_version>
43012

> <i_f3d_flags>
0

> <s_epik_input>
Tz1jMVtjSF1bY0hdYyhbTitdKD1PKVtPLV0pW2NIXW4xW0NIMl1bQ0gyXVtOSF1bQ0BASF0yW0NIMl1bQ0gyXVtDSDJdW0NIMl1bQ0BIXTJDKEYpKEYpRg==

> <s_epik_cmdline>
J2VwaWtfcHl0aG9uJywgJy1waCcsICc3LjAnLCAnLXRuJywgJzgnLCAnLW1hJywgJzIwMCcsICctbWV0YWxfYmluZGluZycsICctaW1hZScsICc8aW5maWxlLm1hZT4nLCAnLW9tYWUnLCAnPG91dGZpbGUubWFlPic=

> <r_lp_tautomer_probability>
1

> <r_epik_Ionization_Penalty>
0.037386

> <r_epik_Ionization_Penalty_Charging>
0.037386

> <r_epik_Ionization_Penalty_Neutral>
0

> <r_epik_State_Penalty>
0.0312892

> <r_epik_Charging_Adjusted_Penalty>
0.0686752

> <i_epik_Tot_Q>
1

> <i_epik_Tot_abs_Q>
3

> <r_epik_Metal_State_Penalty>
0.0312892

> <b_epik_Metal_Only>
0

> <s_lp_Force_Field>
OPLS_2005

> <r_lp_Energy>
34.7992

> <b_lp_Chiralities_Consistent>
1

> <s_lp_Variant>
AV-unprocessed.smi:3029-3

> <Gold.Version>
5.8.1

> <Gold.Id.Protein>
6NUR|6NUR_protein|mol2

> <Gold.PLP.Fitness>
40.8131

> <Gold.PLP.PLP>
-37.0146

> <Gold.PLP.part.hbond>
-2.0000

> <Gold.PLP.part.metal>
0.0000

> <Gold.PLP.part.buried>
-4.7819

> <Gold.PLP.part.nonpolar>
-30.7184

> <Gold.PLP.part.repulsive>
0.1395

> <Gold.PLP.ligand.clash>
0.0000

> <Gold.PLP.ligand.torsion>
0.6493

> <Gold.PLP.Chemscore.Hbond>
1.6000

> <Gold.PLP.Chemscore.CHOScore>
0.0000

> <Gold.PLP.Chemscore.Metal>
0.0000

> <Gold.Chemscore.Hbonds>
donor molecule, donor type, donor heavy atom, donor atom, acceptor molecule, acceptor atom, score
      P1  H  6931  6943       L1     1  1.00
      P1  H  6934  6947       L1     1  0.54

> <Gold.PLP.Chemscore.Internal.Correction>
0.2972

> <Gold.Rescore>
     Score         DG    S(hbond)    S(metal)    S(lipo)     H(rot)  DE(clash)    DE(int)     intcor
     12.14     -14.02       1.74        0.00      64.89       1.90       0.00       1.89       ----

> <Gold.Chemscore.Fitness>
12.1370

> <Gold.Chemscore.DG>
-14.0248

> <Gold.Chemscore.ZeroCoef>
-5.4800

> <Gold.Chemscore.Hbond>
1.7445

> <Gold.Chemscore.Metal>
0.0000

> <Gold.Chemscore.Lipo>
64.8865

> <Gold.Chemscore.Internal_Hbond>
0.0000

> <Gold.Chemscore.DEClash>
0.0014

> <Gold.Chemscore.DEInternal>
1.8863

> <Gold.Chemscore.Rot>
1.9037

> <Gold.Chemscore.Internal.Correction>
   9.000000E+99

> <Gold.Chemscore.Hbonds>
donor molecule, donor type, donor heavy atom, donor atom, acceptor molecule, acceptor atom, score
      P1  H  6931  6943       L1     1  0.95
      P1  H  6934  6947       L1     1  0.52

> <Gold.Chemscore.Hbond.Weighted>
-5.8266

> <Gold.Chemscore.Metal.Weighted>
-0.0000

> <Gold.Chemscore.Lipo.Weighted>
-7.5917

> <Gold.Chemscore.Internal_Hbond.Weighted>
0.0000

> <Gold.Chemscore.DEClash.Weighted>
0.0014

> <Gold.Chemscore.DEInternal.Weighted>
1.8863

> <Gold.Chemscore.Rot.Weighted>
4.8736

> <Gold.Chemscore.Internal.Correction.Weighted>
   9.000000E+99

> <Gold.Protein.RotatedTorsions>
[ 6907 6896 6895 6894 ] final -172.78 input  -60.11 | X-H torsion
[ 7974 7965 7964 7962 ] final -136.42 input  175.53 | X-H torsion
[ 8008 7997 7996 7995 ] final   32.25 input   59.86 | X-H torsion
[ 10167 10162 10161 10158 ] final -148.57 input  -65.29 | X-H torsion
[ 10718 10713 10712 10709 ] final  -15.86 input   66.30 | X-H torsion
[ 10763 10752 10751 10750 ] final  -84.75 input  -60.55 | X-H torsion
[ 11005 11000 10999 10996 ] final  128.13 input  -57.11 | X-H torsion

> <Gold.Protein.ActiveResidues>
 VAL166  LYS551  ARG553  GLY616  TRP617  ASP618  TYR619  PRO620  LYS621  CYS622 
 ASP623  PHE694  ASN695  SER759  ASP760  ASP761  ALA762  ILE779  LEU786  VAL792 
 PHE793  MET794  SER795  GLU796  ALA797  LYS798  CYS799  TRP800  GLU811  SER814 

> <Gold.Protein.RotatedAtoms>
  151.5454  133.3426  159.2942 H   0  0  0  0  0  0  0  0  0  0  0  0  # atno 6907 bound_to 6896
  150.8510  134.7837  159.7020 H   0  0  0  0  0  0  0  0  0  0  0  0  # atno 6908 bound_to 6896
  152.4556  134.5307  159.9861 H   0  0  0  0  0  0  0  0  0  0  0  0  # atno 6909 bound_to 6896
  144.8928  140.6666  143.5134 H   0  0  0  0  0  0  0  0  0  0  0  0  # atno 7974 bound_to 7965
  155.1195  140.3247  155.4501 H   0  0  0  0  0  0  0  0  0  0  0  0  # atno 8008 bound_to 7997
  156.2667  140.2030  156.6265 H   0  0  0  0  0  0  0  0  0  0  0  0  # atno 8009 bound_to 7997
  154.6695  140.0538  157.0136 H   0  0  0  0  0  0  0  0  0  0  0  0  # atno 8010 bound_to 7997
  139.7520  143.8504  152.2588 H   0  0  0  0  0  0  0  0  0  0  0  0  # atno 10167 bound_to 10162
  156.5958  130.4811  149.6260 H   0  0  0  0  0  0  0  0  0  0  0  0  # atno 10718 bound_to 10713
  154.6031  135.5509  153.7395 H   0  0  0  0  0  0  0  0  0  0  0  0  # atno 10763 bound_to 10752
  153.0163  135.6371  154.1686 H   0  0  0  0  0  0  0  0  0  0  0  0  # atno 10764 bound_to 10752
  154.1625  135.2896  155.3084 H   0  0  0  0  0  0  0  0  0  0  0  0  # atno 10765 bound_to 10752
  139.9544  134.9616  156.8957 H   0  0  0  0  0  0  0  0  0  0  0  0  # atno 11005 bound_to 11000
  145.3753  139.1649  143.4310 LP  0  0  0  0  0  0  0  0  0  0  0  0  # atno 17320 bound_to 7965
  146.3064  140.3828  142.8686 LP  0  0  0  0  0  0  0  0  0  0  0  0  # atno 17321 bound_to 7965
  139.8485  144.7176  150.9243 LP  0  0  0  0  0  0  0  0  0  0  0  0  # atno 17342 bound_to 10162
  140.7799  143.3920  151.1294 LP  0  0  0  0  0  0  0  0  0  0  0  0  # atno 17343 bound_to 10162
  156.2511  130.6908  151.1646 LP  0  0  0  0  0  0  0  0  0  0  0  0  # atno 17370 bound_to 10713
  157.7292  131.0626  150.5784 LP  0  0  0  0  0  0  0  0  0  0  0  0  # atno 17371 bound_to 10713
  140.5643  134.0505  155.7409 LP  0  0  0  0  0  0  0  0  0  0  0  0  # atno 17394 bound_to 11000
  141.1213  133.9456  157.2724 LP  0  0  0  0  0  0  0  0  0  0  0  0  # atno 17395 bound_to 11000

$$$$
