AV-unprocessed.smi:1830|AV-procd|sdf|7450|dock10
  -GOLD-   22720 9143D 1   1.00000     0.00000
 Structure written by MMmdl.
 54 57  0  0  0  0  0  0  0  0  3 V2000
  148.8719  133.6626  155.8384 O   0  0  0  0  0  0  0  0  0  0  0  0
  148.7645  134.3484  154.8222 C   0  0  0  0  0  0  0  0  0  0  0  0
  149.0538  135.6563  154.7794 N   0  0  0  0  0  0  0  0  0  0  0  0
  149.5254  136.4432  155.9143 C   0  0  0  0  0  0  0  0  0  0  0  0
  150.9135  137.0681  155.6481 C   0  0  2  0  0  0  0  0  0  0  0  0
  151.5055  137.7756  156.8914 C   0  0  0  0  0  0  0  0  0  0  0  0
  150.8132  139.0621  157.0914 N   0  3  1  0  0  0  0  0  0  0  0  0
  151.2233  139.9018  158.2301 C   0  0  0  0  0  0  0  0  0  0  0  0
  150.8117  141.3338  157.8339 C   0  0  0  0  0  0  0  0  0  0  0  0
  150.3319  141.2422  156.3743 C   0  0  0  0  0  0  0  0  0  0  0  0
  150.9099  139.9115  155.9025 C   0  0  2  0  0  0  0  0  0  0  0  0
  150.2265  139.2064  154.7253 C   0  0  0  0  0  0  0  0  0  0  0  0
  150.8861  137.9543  154.5177 O   0  0  0  0  0  0  0  0  0  0  0  0
  148.3322  133.9029  153.6307 N   0  0  0  0  0  0  0  0  0  0  0  0
  147.8909  132.5911  153.2960 C   0  0  0  0  0  0  0  0  0  0  0  0
  148.4173  131.4488  153.9527 C   0  0  0  0  0  0  0  0  0  0  0  0
  147.9455  130.1657  153.6186 C   0  0  0  0  0  0  0  0  0  0  0  0
  146.9563  130.0419  152.6282 C   0  0  0  0  0  0  0  0  0  0  0  0
  146.4908  131.1449  152.0065 N   0  3  0  0  0  0  0  0  0  0  0  0
  146.9159  132.4053  152.2728 C   0  0  0  0  0  0  0  0  0  0  0  0
  146.3467  133.4644  151.5297 N   0  0  0  0  0  0  0  0  0  0  0  0
  145.7919  134.6291  152.2096 C   0  0  0  0  0  0  0  0  0  0  0  0
  144.9839  135.3610  151.1421 C   0  0  0  0  0  0  0  0  0  0  0  0
  144.4250  134.2116  150.3083 C   0  0  0  0  0  0  0  0  0  0  0  0
  145.5294  133.1500  150.3620 C   0  0  0  0  0  0  0  0  0  0  0  0
  148.9365  136.1442  153.9034 H   0  0  0  0  0  0  0  0  0  0  0  0
  148.7831  137.2114  156.1291 H   0  0  0  0  0  0  0  0  0  0  0  0
  149.5643  135.8112  156.8032 H   0  0  0  0  0  0  0  0  0  0  0  0
  151.5945  136.2577  155.3864 H   0  0  0  0  0  0  0  0  0  0  0  0
  151.4063  137.1519  157.7805 H   0  0  0  0  0  0  0  0  0  0  0  0
  152.5716  137.9572  156.7456 H   0  0  0  0  0  0  0  0  0  0  0  0
  150.7482  139.5683  159.1529 H   0  0  0  0  0  0  0  0  0  0  0  0
  152.3048  139.8461  158.3645 H   0  0  0  0  0  0  0  0  0  0  0  0
  150.0223  141.7198  158.4795 H   0  0  0  0  0  0  0  0  0  0  0  0
  151.6652  142.0072  157.9207 H   0  0  0  0  0  0  0  0  0  0  0  0
  149.2416  141.2118  156.3443 H   0  0  0  0  0  0  0  0  0  0  0  0
  150.6617  142.0847  155.7656 H   0  0  0  0  0  0  0  0  0  0  0  0
  151.9653  140.0609  155.6640 H   0  0  0  0  0  0  0  0  0  0  0  0
  149.1616  139.0609  154.9080 H   0  0  0  0  0  0  0  0  0  0  0  0
  150.3151  139.8067  153.8198 H   0  0  0  0  0  0  0  0  0  0  0  0
  148.2011  134.6027  152.9153 H   0  0  0  0  0  0  0  0  0  0  0  0
  149.1833  131.5370  154.7082 H   0  0  0  0  0  0  0  0  0  0  0  0
  148.3363  129.2905  154.1170 H   0  0  0  0  0  0  0  0  0  0  0  0
  146.5322  129.1006  152.3095 H   0  0  0  0  0  0  0  0  0  0  0  0
  145.1308  134.3199  153.0203 H   0  0  0  0  0  0  0  0  0  0  0  0
  146.5777  135.2603  152.6259 H   0  0  0  0  0  0  0  0  0  0  0  0
  144.2091  136.0042  151.5609 H   0  0  0  0  0  0  0  0  0  0  0  0
  145.6444  135.9776  150.5308 H   0  0  0  0  0  0  0  0  0  0  0  0
  143.5205  133.8247  150.7796 H   0  0  0  0  0  0  0  0  0  0  0  0
  144.1716  134.5079  149.2900 H   0  0  0  0  0  0  0  0  0  0  0  0
  146.1515  133.2163  149.4690 H   0  0  0  0  0  0  0  0  0  0  0  0
  145.1098  132.1441  150.4126 H   0  0  0  0  0  0  0  0  0  0  0  0
  149.8320  138.8622  157.2231 H   0  0  0  0  0  0  0  0  0  0  0  0
  145.7805  131.0209  151.2849 H   0  0  0  0  0  0  0  0  0  0  0  0
  1  2  2  0  0  0  0
  2  3  1  0  0  0  0
  2 14  1  0  0  0  0
  3  4  1  0  0  0  0
  3 26  1  0  0  0  0
  4  5  1  0  0  0  0
  4 27  1  0  0  0  0
  4 28  1  0  0  0  0
  5 13  1  0  0  0  0
  5  6  1  0  0  0  0
  5 29  1  0  0  0  0
  6  7  1  0  0  0  0
  6 30  1  0  0  0  0
  6 31  1  0  0  0  0
  7 11  1  0  0  0  0
  7  8  1  0  0  0  0
  7 53  1  0  0  0  0
  8  9  1  0  0  0  0
  8 32  1  0  0  0  0
  8 33  1  0  0  0  0
  9 10  1  0  0  0  0
  9 34  1  0  0  0  0
  9 35  1  0  0  0  0
 10 11  1  0  0  0  0
 10 36  1  0  0  0  0
 10 37  1  0  0  0  0
 11 12  1  0  0  0  0
 11 38  1  0  0  0  0
 12 13  1  0  0  0  0
 12 39  1  0  0  0  0
 12 40  1  0  0  0  0
 14 15  1  0  0  0  0
 14 41  1  0  0  0  0
 15 20  1  0  0  0  0
 15 16  2  0  0  0  0
 16 17  1  0  0  0  0
 16 42  1  0  0  0  0
 17 18  2  0  0  0  0
 17 43  1  0  0  0  0
 18 19  1  0  0  0  0
 18 44  1  0  0  0  0
 19 20  2  0  0  0  0
 19 54  1  0  0  0  0
 20 21  1  0  0  0  0
 21 25  1  0  0  0  0
 21 22  1  0  0  0  0
 22 23  1  0  0  0  0
 22 45  1  0  0  0  0
 22 46  1  0  0  0  0
 23 24  1  0  0  0  0
 23 47  1  0  0  0  0
 23 48  1  0  0  0  0
 24 25  1  0  0  0  0
 24 49  1  0  0  0  0
 24 50  1  0  0  0  0
 25 51  1  0  0  0  0
 25 52  1  0  0  0  0
M  CHG  1   7   1
M  CHG  1  19   1
M  END
> <s_m_source_file>
AV-unprocessed.smi

> <i_m_source_file_index>
1830

> <i_lp_mmshare_version>
43012

> <i_f3d_flags>
0

> <s_epik_input>
W0NIMl0xW0NIMl1bQ0gyXVtDQEhdKE4xMilbQ0gyXU9bQ0BASF0oW0NIMl0yKVtDSDJdW05IXUMoPU8pW05IXWMzW2NIXVtjSF1bY0hdbmMzTjRbQ0gyXVtDSDJdW0NIMl1bQ0gyXTQ=

> <s_epik_cmdline>
J2VwaWtfcHl0aG9uJywgJy1waCcsICc3LjAnLCAnLXRuJywgJzgnLCAnLW1hJywgJzIwMCcsICctbWV0YWxfYmluZGluZycsICctaW1hZScsICc8aW5maWxlLm1hZT4nLCAnLW9tYWUnLCAnPG91dGZpbGUubWFlPic=

> <r_lp_tautomer_probability>
0.999994

> <r_epik_Ionization_Penalty>
1.29113

> <r_epik_Ionization_Penalty_Charging>
1.29111

> <r_epik_Ionization_Penalty_Neutral>
1.88144e-05

> <r_epik_State_Penalty>
1.32676

> <r_epik_Charging_Adjusted_Penalty>
2.61787

> <i_epik_Tot_Q>
2

> <i_epik_Tot_abs_Q>
2

> <r_epik_Metal_State_Penalty>
1.40425

> <b_epik_Metal_Only>
0

> <s_lp_Force_Field>
OPLS_2005

> <r_lp_Energy>
76.6475

> <b_lp_Chiralities_Consistent>
1

> <s_lp_Variant>
AV-unprocessed.smi:1830-19

> <Gold.Version>
5.8.1

> <Gold.Id.Protein>
6NUR|6NUR_protein|mol2

> <Gold.PLP.Fitness>
46.4513

> <Gold.PLP.PLP>
-40.9096

> <Gold.PLP.part.hbond>
-2.9724

> <Gold.PLP.part.metal>
0.0000

> <Gold.PLP.part.buried>
-3.8611

> <Gold.PLP.part.nonpolar>
-34.5932

> <Gold.PLP.part.repulsive>
0.4792

> <Gold.PLP.ligand.clash>
0.0000

> <Gold.PLP.ligand.torsion>
0.3895

> <Gold.PLP.Chemscore.Hbond>
1.9760

> <Gold.PLP.Chemscore.CHOScore>
0.0000

> <Gold.PLP.Chemscore.Metal>
0.0000

> <Gold.Chemscore.Hbonds>
donor molecule, donor type, donor heavy atom, donor atom, acceptor molecule, acceptor atom, score
      L1  H     3    26       P1  7948  1.00
      L1  H    14    41       P1  7948  0.95

> <Gold.PLP.Chemscore.Internal.Correction>
0.3926

> <Gold.Rescore>
     Score         DG    S(hbond)    S(metal)    S(lipo)     H(rot)  DE(clash)    DE(int)     intcor
     15.91     -17.60       1.45        0.00      93.45       1.43       0.02       1.66       ----

> <Gold.Chemscore.Fitness>
15.9143

> <Gold.Chemscore.DG>
-17.5952

> <Gold.Chemscore.ZeroCoef>
-5.4800

> <Gold.Chemscore.Hbond>
1.4481

> <Gold.Chemscore.Metal>
0.0000

> <Gold.Chemscore.Lipo>
93.4495

> <Gold.Chemscore.Internal_Hbond>
0.0000

> <Gold.Chemscore.DEClash>
0.0180

> <Gold.Chemscore.DEInternal>
1.6630

> <Gold.Chemscore.Rot>
1.4278

> <Gold.Chemscore.Internal.Correction>
   9.000000E+99

> <Gold.Chemscore.Hbonds>
donor molecule, donor type, donor heavy atom, donor atom, acceptor molecule, acceptor atom, score
      L1  H     3    26       P1  7948  0.89
      L1  H    14    41       P1  7948  0.51

> <Gold.Chemscore.Hbond.Weighted>
-4.8367

> <Gold.Chemscore.Metal.Weighted>
-0.0000

> <Gold.Chemscore.Lipo.Weighted>
-10.9336

> <Gold.Chemscore.Internal_Hbond.Weighted>
0.0000

> <Gold.Chemscore.DEClash.Weighted>
0.0180

> <Gold.Chemscore.DEInternal.Weighted>
1.6630

> <Gold.Chemscore.Rot.Weighted>
3.6551

> <Gold.Chemscore.Internal.Correction.Weighted>
   9.000000E+99

> <Gold.Protein.RotatedTorsions>
[ 6907 6896 6895 6894 ] final   63.86 input  -60.11 | X-H torsion
[ 7974 7965 7964 7962 ] final -114.74 input  175.53 | X-H torsion
[ 8008 7997 7996 7995 ] final -127.47 input   59.86 | X-H torsion
[ 10167 10162 10161 10158 ] final  -86.92 input  -65.29 | X-H torsion
[ 10718 10713 10712 10709 ] final  -48.72 input   66.30 | X-H torsion
[ 10763 10752 10751 10750 ] final   81.15 input  -60.55 | X-H torsion
[ 11005 11000 10999 10996 ] final  -93.80 input  -57.11 | X-H torsion

> <Gold.Protein.ActiveResidues>
 VAL166  LYS551  ARG553  GLY616  TRP617  ASP618  TYR619  PRO620  LYS621  CYS622 
 ASP623  PHE694  ASN695  SER759  ASP760  ASP761  ALA762  ILE779  LEU786  VAL792 
 PHE793  MET794  SER795  GLU796  ALA797  LYS798  CYS799  TRP800  GLU811  SER814 

> <Gold.Protein.RotatedAtoms>
  152.4286  134.5820  159.9950 H   0  0  0  0  0  0  0  0  0  0  0  0  # atno 6907 bound_to 6896
  151.5950  133.3357  159.3043 H   0  0  0  0  0  0  0  0  0  0  0  0  # atno 6908 bound_to 6896
  150.8177  134.7405  159.6810 H   0  0  0  0  0  0  0  0  0  0  0  0  # atno 6909 bound_to 6896
  145.1166  140.8644  143.3838 H   0  0  0  0  0  0  0  0  0  0  0  0  # atno 7974 bound_to 7965
  155.2468  140.0431  157.2982 H   0  0  0  0  0  0  0  0  0  0  0  0  # atno 8008 bound_to 7997
  154.5794  140.2396  155.8045 H   0  0  0  0  0  0  0  0  0  0  0  0  # atno 8009 bound_to 7997
  156.2182  140.2978  155.9897 H   0  0  0  0  0  0  0  0  0  0  0  0  # atno 8010 bound_to 7997
  140.3894  143.2711  151.9283 H   0  0  0  0  0  0  0  0  0  0  0  0  # atno 10167 bound_to 10162
  156.1961  130.4154  149.9304 H   0  0  0  0  0  0  0  0  0  0  0  0  # atno 10718 bound_to 10713
  153.1093  135.4776  154.9006 H   0  0  0  0  0  0  0  0  0  0  0  0  # atno 10763 bound_to 10752
  154.7463  135.3095  154.8641 H   0  0  0  0  0  0  0  0  0  0  0  0  # atno 10764 bound_to 10752
  153.9234  135.6852  153.4800 H   0  0  0  0  0  0  0  0  0  0  0  0  # atno 10765 bound_to 10752
  141.1487  133.7912  157.0210 H   0  0  0  0  0  0  0  0  0  0  0  0  # atno 11005 bound_to 11000
  145.0787  139.2976  143.5794 LP  0  0  0  0  0  0  0  0  0  0  0  0  # atno 17320 bound_to 7965
  146.3523  140.0286  142.8652 LP  0  0  0  0  0  0  0  0  0  0  0  0  # atno 17321 bound_to 7965
  139.4790  144.5742  151.8039 LP  0  0  0  0  0  0  0  0  0  0  0  0  # atno 17342 bound_to 10162
  140.4855  144.1387  150.5940 LP  0  0  0  0  0  0  0  0  0  0  0  0  # atno 17343 bound_to 10162
  156.7029  130.8940  151.3601 LP  0  0  0  0  0  0  0  0  0  0  0  0  # atno 17370 bound_to 10713
  157.6958  130.9281  150.0641 LP  0  0  0  0  0  0  0  0  0  0  0  0  # atno 17371 bound_to 10713
  140.0816  134.9645  157.1633 LP  0  0  0  0  0  0  0  0  0  0  0  0  # atno 17394 bound_to 11000
  140.3569  134.2537  155.7191 LP  0  0  0  0  0  0  0  0  0  0  0  0  # atno 17395 bound_to 11000

$$$$
