AV-unprocessed.smi:173|AV-procd|sdf|1423|dock8
  -GOLD-   2262019193D 1   1.00000     0.00000
 Structure written by MMmdl.
 60 64  0  0  0  0  0  0  0  0  1 V2000
  145.1270  135.5628  150.4260 O   0  0  0  0  0  0  0  0  0  0  0  0
  144.8910  134.8044  151.5998 C   0  0  0  0  0  0  0  0  0  0  0  0
  144.1299  135.7045  152.6058 C   0  0  0  0  0  0  0  0  0  0  0  0
  144.9827  136.6441  153.3166 N   0  0  0  0  0  0  0  0  0  0  0  0
  145.1810  136.7129  154.6779 C   0  0  0  0  0  0  0  0  0  0  0  0
  146.0143  137.6361  155.0744 N   0  0  0  0  0  0  0  0  0  0  0  0
  146.4095  138.2567  153.8965 C   0  0  0  0  0  0  0  0  0  0  0  0
  147.3037  139.3150  153.5925 C   0  0  0  0  0  0  0  0  0  0  0  0
  148.0091  139.9527  154.5537 N   0  0  0  0  0  0  0  0  0  0  0  0
  147.1994  140.6608  155.5499 C   0  0  0  0  0  0  0  0  0  0  0  0
  146.0967  141.5291  154.9139 C   0  0  2  0  0  0  0  0  0  0  0  0
  146.6152  142.4862  153.8446 C   0  0  0  0  0  0  0  0  0  0  0  0
  145.5408  143.5599  153.7872 C   0  0  0  0  0  0  0  0  0  0  0  0
  144.8022  143.4146  155.1212 C   0  0  0  0  0  0  0  0  0  0  0  0
  145.5316  142.4360  155.8485 O   0  0  0  0  0  0  0  0  0  0  0  0
  149.2078  139.2093  154.9519 C   0  0  0  0  0  0  0  0  0  0  0  0
  150.1335  139.9420  155.9299 C   0  0  0  0  0  0  0  0  0  0  0  0
  151.4778  139.2104  155.8138 C   0  0  0  0  0  0  0  0  0  0  0  0
  151.4367  138.4190  154.4947 C   0  0  0  0  0  0  0  0  0  0  0  0
  150.1314  138.8137  153.7974 C   0  0  0  0  0  0  0  0  0  0  0  0
  147.4475  139.6757  152.2901 N   0  0  0  0  0  0  0  0  0  0  0  0
  146.7640  139.0290  151.3412 C   0  0  0  0  0  0  0  0  0  0  0  0
  145.9054  138.0149  151.4744 N   0  0  0  0  0  0  0  0  0  0  0  0
  145.7609  137.6561  152.7828 C   0  0  0  0  0  0  0  0  0  0  0  0
  144.0365  133.5777  151.2229 C   0  0  0  0  0  0  0  0  0  0  0  0
  144.8178  132.5678  150.3634 C   0  0  0  0  0  0  0  0  0  0  0  0
  146.0100  132.1791  151.0344 O   0  0  0  0  0  0  0  0  0  0  0  0
  146.9037  133.2669  151.2368 C   0  0  0  0  0  0  0  0  0  0  0  0
  146.2538  134.3248  152.1463 C   0  0  0  0  0  0  0  0  0  0  0  0
  145.5001  134.9943  149.7696 H   0  0  0  0  0  0  0  0  0  0  0  0
  143.3487  136.2696  152.0952 H   0  0  0  0  0  0  0  0  0  0  0  0
  143.6207  135.0870  153.3473 H   0  0  0  0  0  0  0  0  0  0  0  0
  144.6946  136.0422  155.3713 H   0  0  0  0  0  0  0  0  0  0  0  0
  146.7630  139.9560  156.2588 H   0  0  0  0  0  0  0  0  0  0  0  0
  147.8479  141.3092  156.1358 H   0  0  0  0  0  0  0  0  0  0  0  0
  145.3096  140.9002  154.4923 H   0  0  0  0  0  0  0  0  0  0  0  0
  147.5584  142.9303  154.1660 H   0  0  0  0  0  0  0  0  0  0  0  0
  146.7820  141.9986  152.8839 H   0  0  0  0  0  0  0  0  0  0  0  0
  145.9773  144.5516  153.6645 H   0  0  0  0  0  0  0  0  0  0  0  0
  144.8574  143.3876  152.9549 H   0  0  0  0  0  0  0  0  0  0  0  0
  144.7537  144.3513  155.6768 H   0  0  0  0  0  0  0  0  0  0  0  0
  143.7830  143.0599  154.9613 H   0  0  0  0  0  0  0  0  0  0  0  0
  148.8917  138.2806  155.4322 H   0  0  0  0  0  0  0  0  0  0  0  0
  150.2686  140.9812  155.6283 H   0  0  0  0  0  0  0  0  0  0  0  0
  149.7465  139.9430  156.9493 H   0  0  0  0  0  0  0  0  0  0  0  0
  152.3073  139.9180  155.8311 H   0  0  0  0  0  0  0  0  0  0  0  0
  151.6158  138.5279  156.6530 H   0  0  0  0  0  0  0  0  0  0  0  0
  152.3060  138.6181  153.8673 H   0  0  0  0  0  0  0  0  0  0  0  0
  151.4297  137.3500  154.7110 H   0  0  0  0  0  0  0  0  0  0  0  0
  149.7198  138.0051  153.1924 H   0  0  0  0  0  0  0  0  0  0  0  0
  150.3268  139.6557  153.1347 H   0  0  0  0  0  0  0  0  0  0  0  0
  146.9324  139.3695  150.3304 H   0  0  0  0  0  0  0  0  0  0  0  0
  143.7089  133.0732  152.1328 H   0  0  0  0  0  0  0  0  0  0  0  0
  143.1290  133.8878  150.7030 H   0  0  0  0  0  0  0  0  0  0  0  0
  144.2101  131.6800  150.1880 H   0  0  0  0  0  0  0  0  0  0  0  0
  145.0564  132.9846  149.3839 H   0  0  0  0  0  0  0  0  0  0  0  0
  147.8153  132.8890  151.6997 H   0  0  0  0  0  0  0  0  0  0  0  0
  147.1941  133.6983  150.2774 H   0  0  0  0  0  0  0  0  0  0  0  0
  146.9395  135.1633  152.2744 H   0  0  0  0  0  0  0  0  0  0  0  0
  146.1108  133.8907  153.1365 H   0  0  0  0  0  0  0  0  0  0  0  0
  1  2  1  0  0  0  0
  1 30  1  0  0  0  0
  2 29  1  0  0  0  0
  2  3  1  0  0  0  0
  2 25  1  0  0  0  0
  3  4  1  0  0  0  0
  3 31  1  0  0  0  0
  3 32  1  0  0  0  0
  4 24  1  0  0  0  0
  4  5  1  0  0  0  0
  5  6  2  0  0  0  0
  5 33  1  0  0  0  0
  6  7  1  0  0  0  0
  7 24  2  0  0  0  0
  7  8  1  0  0  0  0
  8  9  1  0  0  0  0
  8 21  2  0  0  0  0
  9 10  1  0  0  0  0
  9 16  1  0  0  0  0
 10 11  1  0  0  0  0
 10 34  1  0  0  0  0
 10 35  1  0  0  0  0
 11 15  1  0  0  0  0
 11 12  1  0  0  0  0
 11 36  1  0  0  0  0
 12 13  1  0  0  0  0
 12 37  1  0  0  0  0
 12 38  1  0  0  0  0
 13 14  1  0  0  0  0
 13 39  1  0  0  0  0
 13 40  1  0  0  0  0
 14 15  1  0  0  0  0
 14 41  1  0  0  0  0
 14 42  1  0  0  0  0
 16 20  1  0  0  0  0
 16 17  1  0  0  0  0
 16 43  1  0  0  0  0
 17 18  1  0  0  0  0
 17 44  1  0  0  0  0
 17 45  1  0  0  0  0
 18 19  1  0  0  0  0
 18 46  1  0  0  0  0
 18 47  1  0  0  0  0
 19 20  1  0  0  0  0
 19 48  1  0  0  0  0
 19 49  1  0  0  0  0
 20 50  1  0  0  0  0
 20 51  1  0  0  0  0
 21 22  1  0  0  0  0
 22 23  2  0  0  0  0
 22 52  1  0  0  0  0
 23 24  1  0  0  0  0
 25 26  1  0  0  0  0
 25 53  1  0  0  0  0
 25 54  1  0  0  0  0
 26 27  1  0  0  0  0
 26 55  1  0  0  0  0
 26 56  1  0  0  0  0
 27 28  1  0  0  0  0
 28 29  1  0  0  0  0
 28 57  1  0  0  0  0
 28 58  1  0  0  0  0
 29 59  1  0  0  0  0
 29 60  1  0  0  0  0
M  END
> <s_m_source_file>
AV-unprocessed.smi

> <i_m_source_file_index>
173

> <i_lp_mmshare_version>
43012

> <i_f3d_flags>
0

> <s_epik_input>
W0NIMl0xW0NIMl1PW0NIMl1bQ0gyXUMxKFtPSF0pW0NIMl1uKFtjSF1uMiljKGMyMyluW2NIXW5jM04oW0NIMl1bQ0BASF00W0NIMl1bQ0gyXVtDSDJdTzQpW0NIXTVbQ0gyXVtDSDJdW0NIMl1bQ0gyXTU=

> <s_epik_cmdline>
J2VwaWtfcHl0aG9uJywgJy1waCcsICc3LjAnLCAnLXRuJywgJzgnLCAnLW1hJywgJzIwMCcsICctbWV0YWxfYmluZGluZycsICctaW1hZScsICc8aW5maWxlLm1hZT4nLCAnLW9tYWUnLCAnPG91dGZpbGUubWFlPic=

> <r_lp_tautomer_probability>
1

> <r_epik_Ionization_Penalty>
0.0053129

> <r_epik_Ionization_Penalty_Charging>
0

> <r_epik_Ionization_Penalty_Neutral>
0.0053129

> <r_epik_State_Penalty>
0.00367355

> <r_epik_Charging_Adjusted_Penalty>
0.00367355

> <i_epik_Tot_Q>
0

> <i_epik_Tot_abs_Q>
0

> <r_epik_Metal_State_Penalty>
-0

> <b_epik_Metal_Only>
0

> <s_lp_Force_Field>
OPLS_2005

> <r_lp_Energy>
56.2303

> <b_lp_Chiralities_Consistent>
1

> <s_lp_Variant>
AV-unprocessed.smi:173-1

> <Gold.Version>
5.8.1

> <Gold.Id.Protein>
6NUR|6NUR_protein|mol2

> <Gold.PLP.Fitness>
40.7465

> <Gold.PLP.PLP>
-37.8363

> <Gold.PLP.part.hbond>
-1.7106

> <Gold.PLP.part.metal>
0.0000

> <Gold.PLP.part.buried>
-8.0038

> <Gold.PLP.part.nonpolar>
-36.7317

> <Gold.PLP.part.repulsive>
7.9409

> <Gold.PLP.ligand.clash>
0.0000

> <Gold.PLP.ligand.torsion>
0.7957

> <Gold.PLP.Chemscore.Hbond>
1.0000

> <Gold.PLP.Chemscore.CHOScore>
0.1530

> <Gold.PLP.Chemscore.Metal>
0.0000

> <Gold.Chemscore.Hbonds>
donor molecule, donor type, donor heavy atom, donor atom, acceptor molecule, acceptor atom, score
      L1  H     1    30       P1  7921  0.46
      L1  C    22    52       P1  7957  0.05

> <Gold.PLP.Chemscore.Internal.Correction>
1.0425

> <Gold.Rescore>
     Score         DG    S(hbond)    S(metal)    S(lipo)     H(rot)  DE(clash)    DE(int)     intcor
      6.31     -10.98       0.81        0.00      80.66       2.59       3.04       1.63       ----

> <Gold.Chemscore.Fitness>
6.3118

> <Gold.Chemscore.DG>
-10.9839

> <Gold.Chemscore.ZeroCoef>
-5.4800

> <Gold.Chemscore.Hbond>
0.8086

> <Gold.Chemscore.Metal>
0.0000

> <Gold.Chemscore.Lipo>
80.6639

> <Gold.Chemscore.Internal_Hbond>
0.0000

> <Gold.Chemscore.DEClash>
3.0420

> <Gold.Chemscore.DEInternal>
1.6301

> <Gold.Chemscore.Rot>
2.5916

> <Gold.Chemscore.Internal.Correction>
   9.000000E+99

> <Gold.Chemscore.Hbonds>
donor molecule, donor type, donor heavy atom, donor atom, acceptor molecule, acceptor atom, score
      L1  H     1    30       P1  7921  0.43

> <Gold.Chemscore.Hbond.Weighted>
-2.7008

> <Gold.Chemscore.Metal.Weighted>
-0.0000

> <Gold.Chemscore.Lipo.Weighted>
-9.4377

> <Gold.Chemscore.Internal_Hbond.Weighted>
0.0000

> <Gold.Chemscore.DEClash.Weighted>
3.0420

> <Gold.Chemscore.DEInternal.Weighted>
1.6301

> <Gold.Chemscore.Rot.Weighted>
6.6346

> <Gold.Chemscore.Internal.Correction.Weighted>
   9.000000E+99

> <Gold.Protein.RotatedTorsions>
[ 6907 6896 6895 6894 ] final  -46.61 input  -60.11 | X-H torsion
[ 7974 7965 7964 7962 ] final  127.80 input  175.53 | X-H torsion
[ 8008 7997 7996 7995 ] final -129.85 input   59.86 | X-H torsion
[ 10167 10162 10161 10158 ] final -125.11 input  -65.29 | X-H torsion
[ 10718 10713 10712 10709 ] final    4.27 input   66.30 | X-H torsion
[ 10763 10752 10751 10750 ] final  -92.24 input  -60.55 | X-H torsion
[ 11005 11000 10999 10996 ] final  172.54 input  -57.11 | X-H torsion

> <Gold.Protein.ActiveResidues>
 VAL166  LYS551  ARG553  GLY616  TRP617  ASP618  TYR619  PRO620  LYS621  CYS622 
 ASP623  PHE694  ASN695  SER759  ASP760  ASP761  ALA762  ILE779  LEU786  VAL792 
 PHE793  MET794  SER795  GLU796  ALA797  LYS798  CYS799  TRP800  GLU811  SER814 

> <Gold.Protein.RotatedAtoms>
  150.9094  134.8510  159.7414 H   0  0  0  0  0  0  0  0  0  0  0  0  # atno 6907 bound_to 6896
  152.4936  134.4382  159.9544 H   0  0  0  0  0  0  0  0  0  0  0  0  # atno 6908 bound_to 6896
  151.4425  133.3600  159.2819 H   0  0  0  0  0  0  0  0  0  0  0  0  # atno 6909 bound_to 6896
  145.0465  139.3918  143.5075 H   0  0  0  0  0  0  0  0  0  0  0  0  # atno 7974 bound_to 7965
  155.2861  140.0446  157.3019 H   0  0  0  0  0  0  0  0  0  0  0  0  # atno 8008 bound_to 7997
  154.5568  140.2334  155.8365 H   0  0  0  0  0  0  0  0  0  0  0  0  # atno 8009 bound_to 7997
  156.2014  140.3024  155.9542 H   0  0  0  0  0  0  0  0  0  0  0  0  # atno 8010 bound_to 7997
  139.9856  143.5696  152.2362 H   0  0  0  0  0  0  0  0  0  0  0  0  # atno 10167 bound_to 10162
  156.8901  130.5684  149.5650 H   0  0  0  0  0  0  0  0  0  0  0  0  # atno 10718 bound_to 10713
  154.6841  135.5238  153.8303 H   0  0  0  0  0  0  0  0  0  0  0  0  # atno 10763 bound_to 10752
  153.0585  135.6559  154.0528 H   0  0  0  0  0  0  0  0  0  0  0  0  # atno 10764 bound_to 10752
  154.0411  135.2977  155.3334 H   0  0  0  0  0  0  0  0  0  0  0  0  # atno 10765 bound_to 10752
  140.3308  134.7359  157.4133 H   0  0  0  0  0  0  0  0  0  0  0  0  # atno 11005 bound_to 11000
  146.3514  140.0094  142.8668 LP  0  0  0  0  0  0  0  0  0  0  0  0  # atno 17320 bound_to 7965
  145.1581  140.9658  143.4393 LP  0  0  0  0  0  0  0  0  0  0  0  0  # atno 17321 bound_to 7965
  139.6378  144.7652  151.2402 LP  0  0  0  0  0  0  0  0  0  0  0  0  # atno 17342 bound_to 10162
  140.7473  143.6369  150.8371 LP  0  0  0  0  0  0  0  0  0  0  0  0  # atno 17343 bound_to 10162
  156.0633  130.5681  150.9237 LP  0  0  0  0  0  0  0  0  0  0  0  0  # atno 17370 bound_to 10713
  157.6089  131.0937  150.8831 LP  0  0  0  0  0  0  0  0  0  0  0  0  # atno 17371 bound_to 10713
  140.0862  134.5663  155.8490 LP  0  0  0  0  0  0  0  0  0  0  0  0  # atno 17394 bound_to 11000
  141.2064  133.6655  156.6238 LP  0  0  0  0  0  0  0  0  0  0  0  0  # atno 17395 bound_to 11000

$$$$
