AV-unprocessed.smi:72|AV-procd|sdf|751|dock3
  -GOLD-   2262017 83D 1   1.00000     0.00000
 Structure written by MMmdl.
 29 30  0  0  0  0  0  0  0  0  1 V2000
  154.1274  137.9179  155.6104 N   0  0  0  0  0  0  0  0  0  0  0  0
  152.8252  138.3464  155.4567 C   0  0  0  0  0  0  0  0  0  0  0  0
  151.9608  137.4811  154.7716 N   0  0  0  0  0  0  0  0  0  0  0  0
  150.7352  137.8770  154.6316 C   0  0  0  0  0  0  0  0  0  0  0  0
  150.2886  139.1500  155.1687 N   0  0  0  0  0  0  0  0  0  0  0  0
  148.8554  139.6119  155.0027 C   0  0  2  0  0  0  0  0  0  0  0  0
  148.1063  138.5660  154.4690 O   0  0  0  0  0  0  0  0  0  0  0  0
  147.0571  139.1134  153.6860 C   0  0  2  0  0  0  0  0  0  0  0  0
  146.5285  138.0564  152.7040 C   0  0  0  0  0  0  0  0  0  0  0  0
  147.4772  137.8209  151.6855 O   0  0  0  0  0  0  0  0  0  0  0  0
  147.7372  140.3024  152.9984 C   0  0  1  0  0  0  0  0  0  0  0  0
  146.7782  141.2838  152.6570 O   0  0  0  0  0  0  0  0  0  0  0  0
  148.6975  140.8287  154.0618 C   0  0  2  0  0  0  0  0  0  0  0  0
  149.9037  141.2757  153.4686 O   0  0  0  0  0  0  0  0  0  0  0  0
  151.2238  139.9885  155.8339 C   0  0  0  0  0  0  0  0  0  0  0  0
  150.8757  141.0885  156.2632 O   0  0  0  0  0  0  0  0  0  0  0  0
  152.5339  139.5110  155.9620 N   0  0  0  0  0  0  0  0  0  0  0  0
  148.4693  139.8070  156.0044 H   0  0  0  0  0  0  0  0  0  0  0  0
  146.2663  139.4697  154.3503 H   0  0  0  0  0  0  0  0  0  0  0  0
  148.2795  139.9670  152.1124 H   0  0  0  0  0  0  0  0  0  0  0  0
  148.2545  141.6402  154.6411 H   0  0  0  0  0  0  0  0  0  0  0  0
  154.8373  138.4570  156.0845 H   0  0  0  0  0  0  0  0  0  0  0  0
  154.4679  137.0346  155.2594 H   0  0  0  0  0  0  0  0  0  0  0  0
  149.9744  137.2967  154.1076 H   0  0  0  0  0  0  0  0  0  0  0  0
  146.3664  137.1109  153.2223 H   0  0  0  0  0  0  0  0  0  0  0  0
  145.5731  138.3575  152.2736 H   0  0  0  0  0  0  0  0  0  0  0  0
  148.2205  138.3860  151.8308 H   0  0  0  0  0  0  0  0  0  0  0  0
  145.9428  140.8584  152.5391 H   0  0  0  0  0  0  0  0  0  0  0  0
  150.2430  141.9924  153.9829 H   0  0  0  0  0  0  0  0  0  0  0  0
  1  2  1  0  0  0  0
  1 22  1  0  0  0  0
  1 23  1  0  0  0  0
  2 17  2  0  0  0  0
  2  3  1  0  0  0  0
  3  4  2  0  0  0  0
  4  5  1  0  0  0  0
  4 24  1  0  0  0  0
  5  6  1  0  0  0  0
  5 15  1  0  0  0  0
  6 18  1  0  0  0  0
  6 13  1  0  0  0  0
  6  7  1  0  0  0  0
  7  8  1  0  0  0  0
  8 19  1  0  0  0  0
  8  9  1  0  0  0  0
  8 11  1  0  0  0  0
  9 10  1  0  0  0  0
  9 25  1  0  0  0  0
  9 26  1  0  0  0  0
 10 27  1  0  0  0  0
 11 20  1  0  0  0  0
 11 12  1  0  0  0  0
 11 13  1  0  0  0  0
 12 28  1  0  0  0  0
 13 21  1  0  0  0  0
 13 14  1  0  0  0  0
 14 29  1  0  0  0  0
 15 16  2  0  0  0  0
 15 17  1  0  0  0  0
M  END
> <s_m_source_file>
AV-unprocessed.smi

> <i_m_source_file_index>
72

> <i_lp_mmshare_version>
43012

> <i_f3d_flags>
0

> <s_epik_input>
W05IMl1jMW5bY0hdbihjKD1PKW4xKVtDQEBIXTJPW0NASF0oW0NIMl1bT0hdKVtDQEBIXShbT0hdKVtDQEhdMltPSF0=

> <s_epik_cmdline>
J2VwaWtfcHl0aG9uJywgJy1waCcsICc3LjAnLCAnLXRuJywgJzgnLCAnLW1hJywgJzIwMCcsICctbWV0YWxfYmluZGluZycsICctaW1hZScsICc8aW5maWxlLm1hZT4nLCAnLW9tYWUnLCAnPG91dGZpbGUubWFlPic=

> <r_lp_tautomer_probability>
4.77166e-05

> <r_epik_Ionization_Penalty>
1.3546

> <r_epik_Ionization_Penalty_Charging>
1.46833e-10

> <r_epik_Ionization_Penalty_Neutral>
1.3546

> <r_epik_State_Penalty>
3.51908

> <r_epik_Charging_Adjusted_Penalty>
3.51908

> <i_epik_Tot_Q>
0

> <i_epik_Tot_abs_Q>
0

> <r_epik_Metal_State_Penalty>
3.44088

> <b_epik_Metal_Only>
1

> <s_epik_Chemistry_Notes>
This compound contains an acetal/aminal-like group ( X-CH(R)-Y where X, Y are N, S, or O) that may be acid/base labile, releasing an aldehyde.

> <s_lp_Force_Field>
OPLS_2005

> <r_lp_Energy>
32.6436

> <b_lp_Chiralities_Consistent>
1

> <s_lp_Variant>
AV-unprocessed.smi:72-89

> <Gold.Version>
5.8.1

> <Gold.Id.Protein>
6NUR|6NUR_protein|mol2

> <Gold.PLP.Fitness>
44.5093

> <Gold.PLP.PLP>
-27.4334

> <Gold.PLP.part.hbond>
-8.7486

> <Gold.PLP.part.metal>
0.0000

> <Gold.PLP.part.buried>
-0.2919

> <Gold.PLP.part.nonpolar>
-21.0027

> <Gold.PLP.part.repulsive>
2.3203

> <Gold.PLP.ligand.clash>
0.0321

> <Gold.PLP.ligand.torsion>
0.2200

> <Gold.PLP.Chemscore.Hbond>
4.6819

> <Gold.PLP.Chemscore.CHOScore>
1.0742

> <Gold.PLP.Chemscore.Metal>
0.0000

> <Gold.Chemscore.Hbonds>
donor molecule, donor type, donor heavy atom, donor atom, acceptor molecule, acceptor atom, score
      L1  H    10    27       P1  7957  0.52
      L1  H    12    28       P1 10175  0.35
      P1  H  7954  7966       L1    10  0.05
      P1  H  7997  8009       L1    17  0.95
      P1  H  8011  8017       L1    14  0.09
      P1  H 10752 10763       L1     3  0.34
      L1  C     4    24       P1  7948  0.70

> <Gold.PLP.Chemscore.Internal.Correction>
0.2798

> <Gold.Rescore>
     Score         DG    S(hbond)    S(metal)    S(lipo)     H(rot)  DE(clash)    DE(int)     intcor
      1.74      -5.55       2.22        0.00      26.22       4.06       1.61       2.20       ----

> <Gold.Chemscore.Fitness>
1.7446

> <Gold.Chemscore.DG>
-5.5542

> <Gold.Chemscore.ZeroCoef>
-5.4800

> <Gold.Chemscore.Hbond>
2.2155

> <Gold.Chemscore.Metal>
0.0000

> <Gold.Chemscore.Lipo>
26.2239

> <Gold.Chemscore.Internal_Hbond>
0.0000

> <Gold.Chemscore.DEClash>
1.6067

> <Gold.Chemscore.DEInternal>
2.2029

> <Gold.Chemscore.Rot>
4.0600

> <Gold.Chemscore.Internal.Correction>
   9.000000E+99

> <Gold.Chemscore.Hbonds>
donor molecule, donor type, donor heavy atom, donor atom, acceptor molecule, acceptor atom, score
      L1  H    10    27       P1  7957  0.27
      L1  H    12    28       P1 10175  0.07
      P1  H  7997  8009       L1    17  0.21
      P1  H 10752 10763       L1     3  0.26

> <Gold.Chemscore.Hbond.Weighted>
-7.3996

> <Gold.Chemscore.Metal.Weighted>
-0.0000

> <Gold.Chemscore.Lipo.Weighted>
-3.0682

> <Gold.Chemscore.Internal_Hbond.Weighted>
0.0000

> <Gold.Chemscore.DEClash.Weighted>
1.6067

> <Gold.Chemscore.DEInternal.Weighted>
2.2029

> <Gold.Chemscore.Rot.Weighted>
10.3936

> <Gold.Chemscore.Internal.Correction.Weighted>
   9.000000E+99

> <Gold.Protein.RotatedTorsions>
[ 6907 6896 6895 6894 ] final  118.23 input  -60.11 | X-H torsion
[ 7974 7965 7964 7962 ] final   60.42 input  175.53 | X-H torsion
[ 8008 7997 7996 7995 ] final -170.18 input   59.86 | X-H torsion
[ 10167 10162 10161 10158 ] final -126.74 input  -65.29 | X-H torsion
[ 10718 10713 10712 10709 ] final  160.75 input   66.30 | X-H torsion
[ 10763 10752 10751 10750 ] final   22.15 input  -60.55 | X-H torsion
[ 11005 11000 10999 10996 ] final    7.09 input  -57.11 | X-H torsion

> <Gold.Protein.ActiveResidues>
 VAL166  LYS551  ARG553  GLY616  TRP617  ASP618  TYR619  PRO620  LYS621  CYS622 
 ASP623  PHE694  ASN695  SER759  ASP760  ASP761  ALA762  ILE779  LEU786  VAL792 
 PHE793  MET794  SER795  GLU796  ALA797  LYS798  CYS799  TRP800  GLU811  SER814 

> <Gold.Protein.RotatedAtoms>
  152.4558  133.7719  159.6803 H   0  0  0  0  0  0  0  0  0  0  0  0  # atno 6907 bound_to 6896
  150.8483  133.7816  159.3041 H   0  0  0  0  0  0  0  0  0  0  0  0  # atno 6908 bound_to 6896
  151.5419  135.1071  159.9980 H   0  0  0  0  0  0  0  0  0  0  0  0  # atno 6909 bound_to 6896
  145.8962  139.3547  143.0620 H   0  0  0  0  0  0  0  0  0  0  0  0  # atno 7974 bound_to 7965
  155.9149  140.1064  157.1251 H   0  0  0  0  0  0  0  0  0  0  0  0  # atno 8008 bound_to 7997
  154.4045  140.1267  156.4669 H   0  0  0  0  0  0  0  0  0  0  0  0  # atno 8009 bound_to 7997
  155.7266  140.3469  155.5042 H   0  0  0  0  0  0  0  0  0  0  0  0  # atno 8010 bound_to 7997
  139.9682  143.5874  152.2422 H   0  0  0  0  0  0  0  0  0  0  0  0  # atno 10167 bound_to 10162
  157.1460  131.0552  151.2303 H   0  0  0  0  0  0  0  0  0  0  0  0  # atno 10718 bound_to 10713
  153.0938  135.6654  153.9802 H   0  0  0  0  0  0  0  0  0  0  0  0  # atno 10763 bound_to 10752
  153.9391  135.2996  155.3444 H   0  0  0  0  0  0  0  0  0  0  0  0  # atno 10764 bound_to 10752
  154.7355  135.5103  153.9109 H   0  0  0  0  0  0  0  0  0  0  0  0  # atno 10765 bound_to 10752
  140.5521  134.0273  155.7941 H   0  0  0  0  0  0  0  0  0  0  0  0  # atno 11005 bound_to 11000
  145.8847  140.9341  143.0583 LP  0  0  0  0  0  0  0  0  0  0  0  0  # atno 17320 bound_to 7965
  144.6733  140.0827  143.7468 LP  0  0  0  0  0  0  0  0  0  0  0  0  # atno 17321 bound_to 7965
  139.6501  144.7660  151.2165 LP  0  0  0  0  0  0  0  0  0  0  0  0  # atno 17342 bound_to 10162
  140.7531  143.6174  150.8546 LP  0  0  0  0  0  0  0  0  0  0  0  0  # atno 17343 bound_to 10162
  157.4263  130.7466  149.6954 LP  0  0  0  0  0  0  0  0  0  0  0  0  # atno 17370 bound_to 10713
  155.9779  130.4057  150.3681 LP  0  0  0  0  0  0  0  0  0  0  0  0  # atno 17371 bound_to 10713
  141.1165  133.9531  157.2812 LP  0  0  0  0  0  0  0  0  0  0  0  0  # atno 17394 bound_to 11000
  139.9450  135.0185  156.8824 LP  0  0  0  0  0  0  0  0  0  0  0  0  # atno 17395 bound_to 11000

$$$$
