AV-unprocessed.smi:2801|AV-procd|sdf|10802|dock3
  -GOLD-   2272015233D 1   1.00000     0.00000
 Structure written by MMmdl.
 31 31  0  0  0  0  0  0  0  0  2 V2000
  151.7537  145.5587  160.0281 C   0  0  0  0  0  0  0  0  0  0  0  0
  151.0414  144.5332  159.1437 C   0  0  0  0  0  0  0  0  0  0  0  0
  151.1017  143.2632  159.7820 O   0  0  0  0  0  0  0  0  0  0  0  0
  152.2859  142.5088  159.5318 C   0  0  1  0  0  0  0  0  0  0  0  0
  152.8163  141.9987  160.8852 C   0  0  0  0  0  0  0  0  0  0  0  0
  152.8807  143.0995  161.9514 C   0  0  0  0  0  0  0  0  0  0  0  0
  151.9784  141.3416  158.5788 C   0  0  0  0  0  0  0  0  0  0  0  0
  152.1195  140.1840  158.9731 O   0  0  0  0  0  0  0  0  0  0  0  0
  151.5362  141.6929  157.3575 N   0  0  0  0  0  0  0  0  0  0  0  0
  151.1666  140.8765  156.2510 C   0  0  0  0  0  0  0  0  0  0  0  0
  150.0616  141.1417  155.4058 C   0  0  0  0  0  0  0  0  0  0  0  0
  149.7851  140.2476  154.3529 C   0  0  0  0  0  0  0  0  0  0  0  0
  150.5130  139.1396  154.1041 N   0  0  0  0  0  0  0  0  0  0  0  0
  151.5586  138.8814  154.9170 C   0  0  0  0  0  0  0  0  0  0  0  0
  151.9253  139.7084  155.9991 C   0  0  0  0  0  0  0  0  0  0  0  0
  152.9985  139.3696  156.7769 O   0  5  0  0  0  0  0  0  0  0  0  0
  151.7286  146.5492  159.5735 H   0  0  0  0  0  0  0  0  0  0  0  0
  152.7981  145.2860  160.1805 H   0  0  0  0  0  0  0  0  0  0  0  0
  151.2786  145.6274  161.0069 H   0  0  0  0  0  0  0  0  0  0  0  0
  150.0092  144.8459  158.9827 H   0  0  0  0  0  0  0  0  0  0  0  0
  151.5277  144.4854  158.1683 H   0  0  0  0  0  0  0  0  0  0  0  0
  153.0435  143.1557  159.0842 H   0  0  0  0  0  0  0  0  0  0  0  0
  152.1902  141.1822  161.2483 H   0  0  0  0  0  0  0  0  0  0  0  0
  153.8166  141.5830  160.7552 H   0  0  0  0  0  0  0  0  0  0  0  0
  153.2707  142.7075  162.8907 H   0  0  0  0  0  0  0  0  0  0  0  0
  151.8929  143.5158  162.1506 H   0  0  0  0  0  0  0  0  0  0  0  0
  153.5314  143.9155  161.6358 H   0  0  0  0  0  0  0  0  0  0  0  0
  151.3993  142.6823  157.2069 H   0  0  0  0  0  0  0  0  0  0  0  0
  149.4168  141.9942  155.5446 H   0  0  0  0  0  0  0  0  0  0  0  0
  148.9483  140.4257  153.6940 H   0  0  0  0  0  0  0  0  0  0  0  0
  152.1185  137.9841  154.6971 H   0  0  0  0  0  0  0  0  0  0  0  0
  1  2  1  0  0  0  0
  1 17  1  0  0  0  0
  1 18  1  0  0  0  0
  1 19  1  0  0  0  0
  2  3  1  0  0  0  0
  2 20  1  0  0  0  0
  2 21  1  0  0  0  0
  3  4  1  0  0  0  0
  4  5  1  0  0  0  0
  4  7  1  0  0  0  0
  4 22  1  0  0  0  0
  5  6  1  0  0  0  0
  5 23  1  0  0  0  0
  5 24  1  0  0  0  0
  6 25  1  0  0  0  0
  6 26  1  0  0  0  0
  6 27  1  0  0  0  0
  7  8  2  0  0  0  0
  7  9  1  0  0  0  0
  9 28  1  0  0  0  0
  9 10  1  0  0  0  0
 10 11  2  0  0  0  0
 10 15  1  0  0  0  0
 11 12  1  0  0  0  0
 11 29  1  0  0  0  0
 12 13  2  0  0  0  0
 12 30  1  0  0  0  0
 13 14  1  0  0  0  0
 14 15  2  0  0  0  0
 14 31  1  0  0  0  0
 15 16  1  0  0  0  0
M  CHG  1  16  -1
M  END
> <s_m_source_file>
AV-unprocessed.smi

> <i_m_source_file_index>
2801

> <i_lp_mmshare_version>
43012

> <i_f3d_flags>
0

> <s_epik_input>
W0NIM11bQ0gyXU9bQ0BIXShbQ0gyXVtDSDNdKUMoPU8pW05IXWMxW2NIXVtjSF1uW2NIXWMxW09IXQ==

> <s_epik_cmdline>
J2VwaWtfcHl0aG9uJywgJy1waCcsICc3LjAnLCAnLXRuJywgJzgnLCAnLW1hJywgJzIwMCcsICctbWV0YWxfYmluZGluZycsICctaW1hZScsICc8aW5maWxlLm1hZT4nLCAnLW9tYWUnLCAnPG91dGZpbGUubWFlPic=

> <r_lp_tautomer_probability>
0.56342

> <r_epik_Ionization_Penalty>
4.38321

> <r_epik_Ionization_Penalty_Charging>
2.0641

> <r_epik_Ionization_Penalty_Neutral>
2.31912

> <r_epik_State_Penalty>
2.63873

> <r_epik_Charging_Adjusted_Penalty>
4.70283

> <i_epik_Tot_Q>
-1

> <i_epik_Tot_abs_Q>
1

> <r_epik_Metal_State_Penalty>
0.606608

> <b_epik_Metal_Only>
1

> <s_lp_Force_Field>
OPLS_2005

> <r_lp_Energy>
9.76409

> <b_lp_Chiralities_Consistent>
1

> <s_lp_Variant>
AV-unprocessed.smi:2801-6

> <Gold.Version>
5.8.1

> <Gold.Id.Protein>
6NUR|6NUR_protein|mol2

> <Gold.PLP.Fitness>
43.2877

> <Gold.PLP.PLP>
-38.2086

> <Gold.PLP.part.hbond>
-2.3438

> <Gold.PLP.part.metal>
0.0000

> <Gold.PLP.part.buried>
-2.3133

> <Gold.PLP.part.nonpolar>
-33.0899

> <Gold.PLP.part.repulsive>
0.2991

> <Gold.PLP.ligand.clash>
0.0000

> <Gold.PLP.ligand.torsion>
1.1882

> <Gold.PLP.Chemscore.Hbond>
2.0000

> <Gold.PLP.Chemscore.CHOScore>
0.4542

> <Gold.PLP.Chemscore.Metal>
0.0000

> <Gold.Chemscore.Hbonds>
donor molecule, donor type, donor heavy atom, donor atom, acceptor molecule, acceptor atom, score
      P1  H  7997  8008       L1    16  2.00
      L1  C    12    30       P1  7957  0.45

> <Gold.PLP.Chemscore.Internal.Correction>
0.0930

> <Gold.Rescore>
     Score         DG    S(hbond)    S(metal)    S(lipo)     H(rot)  DE(clash)    DE(int)     intcor
     10.56     -15.63       1.00        0.00      92.13       1.55       0.03       5.04       ----

> <Gold.Chemscore.Fitness>
10.5585

> <Gold.Chemscore.DG>
-15.6337

> <Gold.Chemscore.ZeroCoef>
-5.4800

> <Gold.Chemscore.Hbond>
0.9978

> <Gold.Chemscore.Metal>
0.0000

> <Gold.Chemscore.Lipo>
92.1321

> <Gold.Chemscore.Internal_Hbond>
0.0000

> <Gold.Chemscore.DEClash>
0.0313

> <Gold.Chemscore.DEInternal>
5.0439

> <Gold.Chemscore.Rot>
1.5462

> <Gold.Chemscore.Internal.Correction>
   9.000000E+99

> <Gold.Chemscore.Hbonds>
donor molecule, donor type, donor heavy atom, donor atom, acceptor molecule, acceptor atom, score
      P1  H  7997  8008       L1    16  0.96

> <Gold.Chemscore.Hbond.Weighted>
-3.3326

> <Gold.Chemscore.Metal.Weighted>
-0.0000

> <Gold.Chemscore.Lipo.Weighted>
-10.7795

> <Gold.Chemscore.Internal_Hbond.Weighted>
0.0000

> <Gold.Chemscore.DEClash.Weighted>
0.0313

> <Gold.Chemscore.DEInternal.Weighted>
5.0439

> <Gold.Chemscore.Rot.Weighted>
3.9583

> <Gold.Chemscore.Internal.Correction.Weighted>
   9.000000E+99

> <Gold.Protein.RotatedTorsions>
[ 6907 6896 6895 6894 ] final -166.94 input  -60.11 | X-H torsion
[ 7974 7965 7964 7962 ] final   86.89 input  175.53 | X-H torsion
[ 8008 7997 7996 7995 ] final  -74.17 input   59.86 | X-H torsion
[ 10167 10162 10161 10158 ] final -156.49 input  -65.29 | X-H torsion
[ 10718 10713 10712 10709 ] final  -55.26 input   66.30 | X-H torsion
[ 10763 10752 10751 10750 ] final   77.50 input  -60.55 | X-H torsion
[ 11005 11000 10999 10996 ] final  -44.30 input  -57.11 | X-H torsion

> <Gold.Protein.ActiveResidues>
 VAL166  LYS551  ARG553  GLY616  TRP617  ASP618  TYR619  PRO620  LYS621  CYS622 
 ASP623  PHE694  ASN695  SER759  ASP760  ASP761  ALA762  ILE779  LEU786  VAL792 
 PHE793  MET794  SER795  GLU796  ALA797  LYS798  CYS799  TRP800  GLU811  SER814 

> <Gold.Protein.RotatedAtoms>
  151.4516  133.3616  159.2795 H   0  0  0  0  0  0  0  0  0  0  0  0  # atno 6907 bound_to 6896
  150.9087  134.8504  159.7421 H   0  0  0  0  0  0  0  0  0  0  0  0  # atno 6908 bound_to 6896
  152.4920  134.4444  159.9606 H   0  0  0  0  0  0  0  0  0  0  0  0  # atno 6909 bound_to 6896
  145.5662  139.2309  143.2431 H   0  0  0  0  0  0  0  0  0  0  0  0  # atno 7974 bound_to 7965
  154.5308  140.0766  156.8341 H   0  0  0  0  0  0  0  0  0  0  0  0  # atno 8008 bound_to 7997
  155.3379  140.3405  155.4221 H   0  0  0  0  0  0  0  0  0  0  0  0  # atno 8009 bound_to 7997
  156.1779  140.1642  156.8315 H   0  0  0  0  0  0  0  0  0  0  0  0  # atno 8010 bound_to 7997
  139.6846  143.9523  152.2354 H   0  0  0  0  0  0  0  0  0  0  0  0  # atno 10167 bound_to 10162
  156.1383  130.4155  150.0147 H   0  0  0  0  0  0  0  0  0  0  0  0  # atno 10718 bound_to 10713
  153.0803  135.4912  154.8490 H   0  0  0  0  0  0  0  0  0  0  0  0  # atno 10763 bound_to 10752
  154.7142  135.3026  154.9151 H   0  0  0  0  0  0  0  0  0  0  0  0  # atno 10764 bound_to 10752
  153.9836  135.6787  153.4804 H   0  0  0  0  0  0  0  0  0  0  0  0  # atno 10765 bound_to 10752
  141.0441  133.6768  156.2853 H   0  0  0  0  0  0  0  0  0  0  0  0  # atno 11005 bound_to 11000
  146.1816  140.6488  142.9186 LP  0  0  0  0  0  0  0  0  0  0  0  0  # atno 17320 bound_to 7965
  144.7459  140.5066  143.6836 LP  0  0  0  0  0  0  0  0  0  0  0  0  # atno 17321 bound_to 7965
  139.9322  144.6734  150.8351 LP  0  0  0  0  0  0  0  0  0  0  0  0  # atno 17342 bound_to 10162
  140.7663  143.3301  151.2430 LP  0  0  0  0  0  0  0  0  0  0  0  0  # atno 17343 bound_to 10162
  156.8039  130.9300  151.3645 LP  0  0  0  0  0  0  0  0  0  0  0  0  # atno 17370 bound_to 10713
  157.6553  130.8919  149.9715 LP  0  0  0  0  0  0  0  0  0  0  0  0  # atno 17371 bound_to 10713
  140.6179  134.5391  157.5543 LP  0  0  0  0  0  0  0  0  0  0  0  0  # atno 17394 bound_to 11000
  139.9298  134.7985  156.0963 LP  0  0  0  0  0  0  0  0  0  0  0  0  # atno 17395 bound_to 11000

$$$$
