AV-unprocessed.smi:2505|AV-procd|sdf|9856|dock1
  -GOLD-   2272013483D 1   1.00000     0.00000
 Structure written by MMmdl.
 48 52  0  0  0  0  0  0  0  0  1 V2000
  146.8841  137.2171  153.9093 O   0  0  0  0  0  0  0  0  0  0  0  0
  146.1378  137.9601  153.2770 C   0  0  0  0  0  0  0  0  0  0  0  0
  145.2841  137.5625  152.3145 N   0  0  0  0  0  0  0  0  0  0  0  0
  145.0306  136.2579  151.8132 C   0  0  0  0  0  0  0  0  0  0  0  0
  145.8426  135.1973  152.2665 C   0  0  0  0  0  0  0  0  0  0  0  0
  145.6755  133.9298  151.8337 N   0  0  0  0  0  0  0  0  0  0  0  0
  144.6919  133.7185  150.9555 C   0  0  0  0  0  0  0  0  0  0  0  0
  144.5353  132.3188  150.4471 C   0  0  0  0  0  0  0  0  0  0  0  0
  145.3443  131.1824  151.0384 C   0  0  0  0  0  0  0  0  0  0  0  0
  145.6370  131.6592  149.6430 C   0  0  0  0  0  0  0  0  0  0  0  0
  143.8701  134.6388  150.4439 N   0  0  0  0  0  0  0  0  0  0  0  0
  144.0302  135.9104  150.8711 C   0  0  0  0  0  0  0  0  0  0  0  0
  146.1251  139.2860  153.4985 N   0  0  0  0  0  0  0  0  0  0  0  0
  146.9267  140.0349  154.4688 C   0  0  1  0  0  0  0  0  0  0  0  0
  148.3577  140.2846  153.9649 C   0  0  2  0  0  0  0  0  0  0  0  0
  149.5230  139.6509  154.6757 C   0  0  0  0  0  0  0  0  0  0  0  0
  149.9869  140.7595  155.6241 C   0  0  0  0  0  0  0  0  0  0  0  0
  148.8472  141.6027  155.7747 O   0  0  0  0  0  0  0  0  0  0  0  0
  148.2143  141.7006  154.5010 C   0  0  2  0  0  0  0  0  0  0  0  0
  146.6770  141.5633  154.4777 C   0  0  0  0  0  0  0  0  0  0  0  0
  145.9770  142.2234  153.2863 C   0  0  0  0  0  0  0  0  0  0  0  0
  145.6434  143.6549  153.7112 C   0  0  0  0  0  0  0  0  0  0  0  0
  145.5593  143.6186  155.2406 C   0  0  0  0  0  0  0  0  0  0  0  0
  145.9083  142.1820  155.6428 C   0  0  0  0  0  0  0  0  0  0  0  0
  144.7550  138.3008  151.8734 H   0  0  0  0  0  0  0  0  0  0  0  0
  146.6357  135.3659  152.9803 H   0  0  0  0  0  0  0  0  0  0  0  0
  143.5053  132.1148  150.1608 H   0  0  0  0  0  0  0  0  0  0  0  0
  146.0697  131.4245  151.8128 H   0  0  0  0  0  0  0  0  0  0  0  0
  144.8497  130.2196  151.1481 H   0  0  0  0  0  0  0  0  0  0  0  0
  145.3381  131.0166  148.8175 H   0  0  0  0  0  0  0  0  0  0  0  0
  146.5582  132.2179  149.4888 H   0  0  0  0  0  0  0  0  0  0  0  0
  143.3528  136.6277  150.4367 H   0  0  0  0  0  0  0  0  0  0  0  0
  145.4972  139.8340  152.9281 H   0  0  0  0  0  0  0  0  0  0  0  0
  146.9263  139.6105  155.4755 H   0  0  0  0  0  0  0  0  0  0  0  0
  148.4281  140.2773  152.8756 H   0  0  0  0  0  0  0  0  0  0  0  0
  149.2058  138.7700  155.2345 H   0  0  0  0  0  0  0  0  0  0  0  0
  150.3175  139.3468  153.9939 H   0  0  0  0  0  0  0  0  0  0  0  0
  150.3329  140.3760  156.5841 H   0  0  0  0  0  0  0  0  0  0  0  0
  150.7970  141.3349  155.1734 H   0  0  0  0  0  0  0  0  0  0  0  0
  148.6430  142.4693  153.8562 H   0  0  0  0  0  0  0  0  0  0  0  0
  146.5828  142.2053  152.3797 H   0  0  0  0  0  0  0  0  0  0  0  0
  145.0453  141.7059  153.0550 H   0  0  0  0  0  0  0  0  0  0  0  0
  146.4395  144.3329  153.4015 H   0  0  0  0  0  0  0  0  0  0  0  0
  144.7168  144.0050  153.2550 H   0  0  0  0  0  0  0  0  0  0  0  0
  146.2783  144.3187  155.6679 H   0  0  0  0  0  0  0  0  0  0  0  0
  144.5702  143.9023  155.6018 H   0  0  0  0  0  0  0  0  0  0  0  0
  144.9868  141.6257  155.8167 H   0  0  0  0  0  0  0  0  0  0  0  0
  146.4661  142.1564  156.5790 H   0  0  0  0  0  0  0  0  0  0  0  0
  1  2  2  0  0  0  0
  2  3  1  0  0  0  0
  2 13  1  0  0  0  0
  3  4  1  0  0  0  0
  3 25  1  0  0  0  0
  4 12  1  0  0  0  0
  4  5  2  0  0  0  0
  5  6  1  0  0  0  0
  5 26  1  0  0  0  0
  6  7  2  0  0  0  0
  7  8  1  0  0  0  0
  7 11  1  0  0  0  0
  8 10  1  0  0  0  0
  8  9  1  0  0  0  0
  8 27  1  0  0  0  0
  9 10  1  0  0  0  0
  9 28  1  0  0  0  0
  9 29  1  0  0  0  0
 10 30  1  0  0  0  0
 10 31  1  0  0  0  0
 11 12  2  0  0  0  0
 12 32  1  0  0  0  0
 13 14  1  0  0  0  0
 13 33  1  0  0  0  0
 14 20  1  0  0  0  0
 14 15  1  0  0  0  0
 14 34  1  0  0  0  0
 15 19  1  0  0  0  0
 15 16  1  0  0  0  0
 15 35  1  0  0  0  0
 16 17  1  0  0  0  0
 16 36  1  0  0  0  0
 16 37  1  0  0  0  0
 17 18  1  0  0  0  0
 17 38  1  0  0  0  0
 17 39  1  0  0  0  0
 18 19  1  0  0  0  0
 19 20  1  0  0  0  0
 19 40  1  0  0  0  0
 20 24  1  0  0  0  0
 20 21  1  0  0  0  0
 21 22  1  0  0  0  0
 21 41  1  0  0  0  0
 21 42  1  0  0  0  0
 22 23  1  0  0  0  0
 22 43  1  0  0  0  0
 22 44  1  0  0  0  0
 23 24  1  0  0  0  0
 23 45  1  0  0  0  0
 23 46  1  0  0  0  0
 24 47  1  0  0  0  0
 24 48  1  0  0  0  0
M  END
> <s_m_source_file>
AV-unprocessed.smi

> <i_m_source_file_index>
2505

> <i_lp_mmshare_version>
43012

> <i_f3d_flags>
0

> <s_epik_input>
W0NIMl0xW0NIMl1bQ0hdMWMobltjSF0yKW5bY0hdYzJbTkhdQyg9TylbTkhdW0NAQEhdM1tDQEBIXShbQ0gyXVtDSDJdTzQpW0NASF00QzM1W0NIMl1bQ0gyXVtDSDJdW0NIMl01

> <s_epik_cmdline>
J2VwaWtfcHl0aG9uJywgJy1waCcsICc3LjAnLCAnLXRuJywgJzgnLCAnLW1hJywgJzIwMCcsICctbWV0YWxfYmluZGluZycsICctaW1hZScsICc8aW5maWxlLm1hZT4nLCAnLW9tYWUnLCAnPG91dGZpbGUubWFlPic=

> <r_lp_tautomer_probability>
1

> <r_epik_Ionization_Penalty>
2.6075e-05

> <r_epik_Ionization_Penalty_Charging>
0

> <r_epik_Ionization_Penalty_Neutral>
2.6075e-05

> <r_epik_State_Penalty>
-0

> <r_epik_Charging_Adjusted_Penalty>
0

> <i_epik_Tot_Q>
0

> <i_epik_Tot_abs_Q>
0

> <r_epik_Metal_State_Penalty>
-0

> <b_epik_Metal_Only>
0

> <s_lp_Force_Field>
OPLS_2005

> <r_lp_Energy>
62.9039

> <b_lp_Chiralities_Consistent>
1

> <s_lp_Variant>
AV-unprocessed.smi:2505-4

> <Gold.Version>
5.8.1

> <Gold.Id.Protein>
6NUR|6NUR_protein|mol2

> <Gold.PLP.Fitness>
44.1796

> <Gold.PLP.PLP>
-35.2513

> <Gold.PLP.part.hbond>
-1.9876

> <Gold.PLP.part.metal>
0.0000

> <Gold.PLP.part.buried>
-1.7689

> <Gold.PLP.part.nonpolar>
-34.2062

> <Gold.PLP.part.repulsive>
1.9107

> <Gold.PLP.ligand.clash>
0.0000

> <Gold.PLP.ligand.torsion>
0.2072

> <Gold.PLP.Chemscore.Hbond>
1.3627

> <Gold.PLP.Chemscore.CHOScore>
1.6505

> <Gold.PLP.Chemscore.Metal>
0.0000

> <Gold.Chemscore.Hbonds>
donor molecule, donor type, donor heavy atom, donor atom, acceptor molecule, acceptor atom, score
      L1  H     3    25       P1 10171  0.31
      L1  H    13    33       P1 10175  1.00
      L1  C     5    26       P1  7948  0.38
      L1  C    12    32       P1 10171  0.94

> <Gold.PLP.Chemscore.Internal.Correction>
0.3032

> <Gold.Rescore>
     Score         DG    S(hbond)    S(metal)    S(lipo)     H(rot)  DE(clash)    DE(int)     intcor
     15.10     -18.30       1.19        0.00     101.17       1.17       1.49       1.71       ----

> <Gold.Chemscore.Fitness>
15.1013

> <Gold.Chemscore.DG>
-18.2999

> <Gold.Chemscore.ZeroCoef>
-5.4800

> <Gold.Chemscore.Hbond>
1.1945

> <Gold.Chemscore.Metal>
0.0000

> <Gold.Chemscore.Lipo>
101.1680

> <Gold.Chemscore.Internal_Hbond>
0.0000

> <Gold.Chemscore.DEClash>
1.4853

> <Gold.Chemscore.DEInternal>
1.7133

> <Gold.Chemscore.Rot>
1.1744

> <Gold.Chemscore.Internal.Correction>
   9.000000E+99

> <Gold.Chemscore.Hbonds>
donor molecule, donor type, donor heavy atom, donor atom, acceptor molecule, acceptor atom, score
      L1  H     3    25       P1 10171  0.30
      L1  H    13    33       P1 10175  0.94

> <Gold.Chemscore.Hbond.Weighted>
-3.9897

> <Gold.Chemscore.Metal.Weighted>
-0.0000

> <Gold.Chemscore.Lipo.Weighted>
-11.8367

> <Gold.Chemscore.Internal_Hbond.Weighted>
0.0000

> <Gold.Chemscore.DEClash.Weighted>
1.4853

> <Gold.Chemscore.DEInternal.Weighted>
1.7133

> <Gold.Chemscore.Rot.Weighted>
3.0064

> <Gold.Chemscore.Internal.Correction.Weighted>
   9.000000E+99

> <Gold.Protein.RotatedTorsions>
[ 6907 6896 6895 6894 ] final  -51.88 input  -60.11 | X-H torsion
[ 7974 7965 7964 7962 ] final -137.10 input  175.53 | X-H torsion
[ 8008 7997 7996 7995 ] final  -84.53 input   59.86 | X-H torsion
[ 10167 10162 10161 10158 ] final  145.56 input  -65.29 | X-H torsion
[ 10718 10713 10712 10709 ] final  -92.72 input   66.30 | X-H torsion
[ 10763 10752 10751 10750 ] final  156.80 input  -60.55 | X-H torsion
[ 11005 11000 10999 10996 ] final  165.20 input  -57.11 | X-H torsion

> <Gold.Protein.ActiveResidues>
 VAL166  LYS551  ARG553  GLY616  TRP617  ASP618  TYR619  PRO620  LYS621  CYS622 
 ASP623  PHE694  ASN695  SER759  ASP760  ASP761  ALA762  ILE779  LEU786  VAL792 
 PHE793  MET794  SER795  GLU796  ALA797  LYS798  CYS799  TRP800  GLU811  SER814 

> <Gold.Protein.RotatedAtoms>
  150.8570  134.7912  159.7053 H   0  0  0  0  0  0  0  0  0  0  0  0  # atno 6907 bound_to 6896
  152.4619  134.5162  159.9778 H   0  0  0  0  0  0  0  0  0  0  0  0  # atno 6908 bound_to 6896
  151.5273  133.3417  159.2947 H   0  0  0  0  0  0  0  0  0  0  0  0  # atno 6909 bound_to 6896
  144.8871  140.6590  143.5169 H   0  0  0  0  0  0  0  0  0  0  0  0  # atno 7974 bound_to 7965
  154.6309  140.0603  156.9730 H   0  0  0  0  0  0  0  0  0  0  0  0  # atno 8008 bound_to 7997
  155.1668  140.3287  155.4382 H   0  0  0  0  0  0  0  0  0  0  0  0  # atno 8009 bound_to 7997
  156.2482  140.1921  156.6772 H   0  0  0  0  0  0  0  0  0  0  0  0  # atno 8010 bound_to 7997
  139.4924  144.5892  151.6715 H   0  0  0  0  0  0  0  0  0  0  0  0  # atno 10167 bound_to 10162
  156.0005  130.4998  150.5669 H   0  0  0  0  0  0  0  0  0  0  0  0  # atno 10718 bound_to 10713
  154.1901  135.2795  155.3024 H   0  0  0  0  0  0  0  0  0  0  0  0  # atno 10763 bound_to 10752
  154.5935  135.5552  153.7305 H   0  0  0  0  0  0  0  0  0  0  0  0  # atno 10764 bound_to 10752
  153.0114  135.6374  154.2040 H   0  0  0  0  0  0  0  0  0  0  0  0  # atno 10765 bound_to 10752
  140.2537  134.7957  157.3526 H   0  0  0  0  0  0  0  0  0  0  0  0  # atno 11005 bound_to 11000
  145.3850  139.1629  143.4260 LP  0  0  0  0  0  0  0  0  0  0  0  0  # atno 17320 bound_to 7965
  146.3031  140.3934  142.8697 LP  0  0  0  0  0  0  0  0  0  0  0  0  # atno 17321 bound_to 7965
  140.5516  144.0417  150.6129 LP  0  0  0  0  0  0  0  0  0  0  0  0  # atno 17342 bound_to 10162
  140.3472  143.2984  152.0525 LP  0  0  0  0  0  0  0  0  0  0  0  0  # atno 17343 bound_to 10162
  157.3570  131.0743  151.1668 LP  0  0  0  0  0  0  0  0  0  0  0  0  # atno 17370 bound_to 10713
  157.2465  130.6594  149.5912 LP  0  0  0  0  0  0  0  0  0  0  0  0  # atno 17371 bound_to 10713
  140.1532  134.4822  155.7946 LP  0  0  0  0  0  0  0  0  0  0  0  0  # atno 17394 bound_to 11000
  141.2198  133.6871  156.7416 LP  0  0  0  0  0  0  0  0  0  0  0  0  # atno 17395 bound_to 11000

$$$$
