AV-unprocessed.smi:3314|AV-procd|sdf|12732|dock2
  -GOLD-   2272019 73D 1   1.00000     0.00000
 Structure written by MMmdl.
 38 39  0  0  0  0  0  0  0  0  2 V2000
  152.0552  143.4500  160.6983 C   0  0  0  0  0  0  0  0  0  0  0  0
  152.5854  142.2343  159.9672 C   0  0  0  0  0  0  0  0  0  0  0  0
  153.7931  141.6247  160.3572 C   0  0  0  0  0  0  0  0  0  0  0  0
  154.2333  140.4985  159.6346 C   0  0  0  0  0  0  0  0  0  0  0  0
  155.5222  139.7931  160.0006 C   0  0  0  0  0  0  0  0  0  0  0  0
  153.5521  139.9811  158.5898 N   0  0  0  0  0  0  0  0  0  0  0  0
  152.3888  140.5617  158.2041 C   0  0  0  0  0  0  0  0  0  0  0  0
  151.5991  140.0959  157.1203 N   0  0  0  0  0  0  0  0  0  0  0  0
  152.0120  139.5410  155.9655 C   0  0  0  0  0  0  0  0  0  0  0  0
  153.1917  139.3602  155.6599 O   0  0  0  0  0  0  0  0  0  0  0  0
  150.8869  139.1267  154.9976 C   0  0  1  0  0  0  0  0  0  0  0  0
  149.7094  138.3688  155.6568 C   0  0  0  0  0  0  0  0  0  0  0  0
  148.8809  139.2743  156.4885 N   0  3  2  0  0  0  0  0  0  0  0  0
  147.7727  138.5710  157.1683 C   0  0  0  0  0  0  0  0  0  0  0  0
  148.4217  140.4401  155.7009 C   0  0  0  0  0  0  0  0  0  0  0  0
  149.6230  141.1735  155.0831 C   0  0  0  0  0  0  0  0  0  0  0  0
  150.3861  140.2646  154.2895 O   0  0  0  0  0  0  0  0  0  0  0  0
  151.8749  141.6925  158.8773 C   0  0  0  0  0  0  0  0  0  0  0  0
  152.7057  143.7296  161.5276 H   0  0  0  0  0  0  0  0  0  0  0  0
  151.0613  143.2477  161.0980 H   0  0  0  0  0  0  0  0  0  0  0  0
  151.9861  144.2988  160.0177 H   0  0  0  0  0  0  0  0  0  0  0  0
  154.3671  142.0100  161.1876 H   0  0  0  0  0  0  0  0  0  0  0  0
  156.0432  140.3127  160.8053 H   0  0  0  0  0  0  0  0  0  0  0  0
  156.1887  139.7479  159.1388 H   0  0  0  0  0  0  0  0  0  0  0  0
  155.3156  138.7745  160.3299 H   0  0  0  0  0  0  0  0  0  0  0  0
  150.6015  140.2023  157.2340 H   0  0  0  0  0  0  0  0  0  0  0  0
  151.3396  138.4639  154.2590 H   0  0  0  0  0  0  0  0  0  0  0  0
  149.0845  137.9221  154.8818 H   0  0  0  0  0  0  0  0  0  0  0  0
  150.0823  137.5446  156.2671 H   0  0  0  0  0  0  0  0  0  0  0  0
  147.0656  138.1616  156.4455 H   0  0  0  0  0  0  0  0  0  0  0  0
  147.2335  139.2517  157.8276 H   0  0  0  0  0  0  0  0  0  0  0  0
  148.1546  137.7505  157.7767 H   0  0  0  0  0  0  0  0  0  0  0  0
  147.7420  140.1070  154.9150 H   0  0  0  0  0  0  0  0  0  0  0  0
  147.8611  141.1218  156.3415 H   0  0  0  0  0  0  0  0  0  0  0  0
  149.2746  141.9852  154.4444 H   0  0  0  0  0  0  0  0  0  0  0  0
  150.2389  141.6325  155.8575 H   0  0  0  0  0  0  0  0  0  0  0  0
  150.9459  142.1452  158.5614 H   0  0  0  0  0  0  0  0  0  0  0  0
  149.4861  139.6324  157.2145 H   0  0  0  0  0  0  0  0  0  0  0  0
  1  2  1  0  0  0  0
  1 19  1  0  0  0  0
  1 20  1  0  0  0  0
  1 21  1  0  0  0  0
  2 18  1  0  0  0  0
  2  3  2  0  0  0  0
  3  4  1  0  0  0  0
  3 22  1  0  0  0  0
  4  5  1  0  0  0  0
  4  6  2  0  0  0  0
  5 23  1  0  0  0  0
  5 24  1  0  0  0  0
  5 25  1  0  0  0  0
  6  7  1  0  0  0  0
  7  8  1  0  0  0  0
  7 18  2  0  0  0  0
  8  9  1  0  0  0  0
  8 26  1  0  0  0  0
  9 10  2  0  0  0  0
  9 11  1  0  0  0  0
 11 17  1  0  0  0  0
 11 12  1  0  0  0  0
 11 27  1  0  0  0  0
 12 13  1  0  0  0  0
 12 28  1  0  0  0  0
 12 29  1  0  0  0  0
 13 14  1  0  0  0  0
 13 15  1  0  0  0  0
 13 38  1  0  0  0  0
 14 30  1  0  0  0  0
 14 31  1  0  0  0  0
 14 32  1  0  0  0  0
 15 16  1  0  0  0  0
 15 33  1  0  0  0  0
 15 34  1  0  0  0  0
 16 17  1  0  0  0  0
 16 35  1  0  0  0  0
 16 36  1  0  0  0  0
 18 37  1  0  0  0  0
M  CHG  1  13   1
M  END
> <s_m_source_file>
AV-unprocessed.smi

> <i_m_source_file_index>
3314

> <i_lp_mmshare_version>
43012

> <i_f3d_flags>
0

> <s_epik_input>
W0NIM11jMVtjSF1jKFtDSDNdKW5jKFtjSF0xKVtOSF1DKD1PKVtDQEBIXTJbQ0gyXU4oW0NIM10pW0NIMl1bQ0gyXU8y

> <s_epik_cmdline>
J2VwaWtfcHl0aG9uJywgJy1waCcsICc3LjAnLCAnLXRuJywgJzgnLCAnLW1hJywgJzIwMCcsICctbWV0YWxfYmluZGluZycsICctaW1hZScsICc8aW5maWxlLm1hZT4nLCAnLW9tYWUnLCAnPG91dGZpbGUubWFlPic=

> <r_epik_Ionization_Penalty>
0.32442

> <r_epik_Ionization_Penalty_Charging>
0.314023

> <r_epik_Ionization_Penalty_Neutral>
0.0103972

> <r_epik_State_Penalty>
0.29453

> <r_epik_Charging_Adjusted_Penalty>
0.608553

> <i_epik_Tot_Q>
1

> <i_epik_Tot_abs_Q>
1

> <r_epik_Metal_State_Penalty>
0.286909

> <b_epik_Metal_Only>
0

> <s_lp_Force_Field>
OPLS_2005

> <r_lp_Energy>
14.9445

> <b_lp_Chiralities_Consistent>
1

> <s_lp_Variant>
AV-unprocessed.smi:3314-2

> <Gold.Version>
5.8.1

> <Gold.Id.Protein>
6NUR|6NUR_protein|mol2

> <Gold.PLP.Fitness>
38.0259

> <Gold.PLP.PLP>
-32.1884

> <Gold.PLP.part.hbond>
-2.9299

> <Gold.PLP.part.metal>
0.0000

> <Gold.PLP.part.buried>
-4.3519

> <Gold.PLP.part.nonpolar>
-25.5133

> <Gold.PLP.part.repulsive>
0.2172

> <Gold.PLP.ligand.clash>
0.0000

> <Gold.PLP.ligand.torsion>
0.6801

> <Gold.PLP.Chemscore.Hbond>
2.3920

> <Gold.PLP.Chemscore.CHOScore>
0.0000

> <Gold.PLP.Chemscore.Metal>
0.0000

> <Gold.Chemscore.Hbonds>
donor molecule, donor type, donor heavy atom, donor atom, acceptor molecule, acceptor atom, score
      P1  H  7989  7998       L1    17  1.00
      P1  H  7997  8008       L1     6  0.96
      P1  H  7997  8009       L1    10  0.45

> <Gold.PLP.Chemscore.Internal.Correction>
0.0217

> <Gold.Rescore>
     Score         DG    S(hbond)    S(metal)    S(lipo)     H(rot)  DE(clash)    DE(int)     intcor
     13.66     -17.51       1.66        0.00      77.45       1.00       0.04       3.81       ----

> <Gold.Chemscore.Fitness>
13.6636

> <Gold.Chemscore.DG>
-17.5122

> <Gold.Chemscore.ZeroCoef>
-5.4800

> <Gold.Chemscore.Hbond>
1.6559

> <Gold.Chemscore.Metal>
0.0000

> <Gold.Chemscore.Lipo>
77.4474

> <Gold.Chemscore.Internal_Hbond>
0.0000

> <Gold.Chemscore.DEClash>
0.0399

> <Gold.Chemscore.DEInternal>
3.8087

> <Gold.Chemscore.Rot>
1.0000

> <Gold.Chemscore.Internal.Correction>
   9.000000E+99

> <Gold.Chemscore.Hbonds>
donor molecule, donor type, donor heavy atom, donor atom, acceptor molecule, acceptor atom, score
      P1  H  7989  7998       L1    17  0.54
      P1  H  7997  8008       L1     6  0.20
      P1  H  7997  8009       L1    10  0.44

> <Gold.Chemscore.Hbond.Weighted>
-5.5308

> <Gold.Chemscore.Metal.Weighted>
-0.0000

> <Gold.Chemscore.Lipo.Weighted>
-9.0613

> <Gold.Chemscore.Internal_Hbond.Weighted>
0.0000

> <Gold.Chemscore.DEClash.Weighted>
0.0399

> <Gold.Chemscore.DEInternal.Weighted>
3.8087

> <Gold.Chemscore.Rot.Weighted>
2.5600

> <Gold.Chemscore.Internal.Correction.Weighted>
   9.000000E+99

> <Gold.Protein.RotatedTorsions>
[ 6907 6896 6895 6894 ] final  173.26 input  -60.11 | X-H torsion
[ 7974 7965 7964 7962 ] final   -9.08 input  175.53 | X-H torsion
[ 8008 7997 7996 7995 ] final -107.99 input   59.86 | X-H torsion
[ 10167 10162 10161 10158 ] final -179.71 input  -65.29 | X-H torsion
[ 10718 10713 10712 10709 ] final  -78.74 input   66.30 | X-H torsion
[ 10763 10752 10751 10750 ] final   23.85 input  -60.55 | X-H torsion
[ 11005 11000 10999 10996 ] final  178.76 input  -57.11 | X-H torsion

> <Gold.Protein.ActiveResidues>
 VAL166  LYS551  ARG553  GLY616  TRP617  ASP618  TYR619  PRO620  LYS621  CYS622 
 ASP623  PHE694  ASN695  SER759  ASP760  ASP761  ALA762  ILE779  LEU786  VAL792 
 PHE793  MET794  SER795  GLU796  ALA797  LYS798  CYS799  TRP800  GLU811  SER814 

> <Gold.Protein.RotatedAtoms>
  151.7712  133.3341  159.3444 H   0  0  0  0  0  0  0  0  0  0  0  0  # atno 6907 bound_to 6896
  150.7461  134.6017  159.6049 H   0  0  0  0  0  0  0  0  0  0  0  0  # atno 6908 bound_to 6896
  152.3340  134.7224  160.0333 H   0  0  0  0  0  0  0  0  0  0  0  0  # atno 6909 bound_to 6896
  146.2262  140.2563  142.8349 H   0  0  0  0  0  0  0  0  0  0  0  0  # atno 7974 bound_to 7965
  154.9376  140.0403  157.2080 H   0  0  0  0  0  0  0  0  0  0  0  0  # atno 8008 bound_to 7997
  154.8100  140.2866  155.5838 H   0  0  0  0  0  0  0  0  0  0  0  0  # atno 8009 bound_to 7997
  156.2970  140.2539  156.2986 H   0  0  0  0  0  0  0  0  0  0  0  0  # atno 8010 bound_to 7997
  139.5374  144.2459  152.0823 H   0  0  0  0  0  0  0  0  0  0  0  0  # atno 10167 bound_to 10162
  156.0110  130.4526  150.3542 H   0  0  0  0  0  0  0  0  0  0  0  0  # atno 10718 bound_to 10713
  153.0807  135.6618  154.0051 H   0  0  0  0  0  0  0  0  0  0  0  0  # atno 10763 bound_to 10752
  153.9673  135.2968  155.3431 H   0  0  0  0  0  0  0  0  0  0  0  0  # atno 10764 bound_to 10752
  154.7206  135.5166  153.8877 H   0  0  0  0  0  0  0  0  0  0  0  0  # atno 10765 bound_to 10752
  140.3987  134.6797  157.4549 H   0  0  0  0  0  0  0  0  0  0  0  0  # atno 11005 bound_to 11000
  144.9373  140.8040  143.5652 LP  0  0  0  0  0  0  0  0  0  0  0  0  # atno 17320 bound_to 7965
  145.2512  139.2031  143.4941 LP  0  0  0  0  0  0  0  0  0  0  0  0  # atno 17321 bound_to 7965
  140.1932  144.4732  150.6468 LP  0  0  0  0  0  0  0  0  0  0  0  0  # atno 17342 bound_to 10162
  140.6587  143.2245  151.5907 LP  0  0  0  0  0  0  0  0  0  0  0  0  # atno 17343 bound_to 10162
  157.1633  131.0350  151.2830 LP  0  0  0  0  0  0  0  0  0  0  0  0  # atno 17370 bound_to 10713
  157.4292  130.7481  149.6976 LP  0  0  0  0  0  0  0  0  0  0  0  0  # atno 17371 bound_to 10713
  140.0353  134.6347  155.9052 LP  0  0  0  0  0  0  0  0  0  0  0  0  # atno 17394 bound_to 11000
  141.1865  133.6557  156.5241 LP  0  0  0  0  0  0  0  0  0  0  0  0  # atno 17395 bound_to 11000

$$$$
