AV-unprocessed.smi:3141|AV-procd|sdf|11968|dock2
  -GOLD-   2272017363D 1   1.00000     0.00000
 Structure written by MMmdl.
 35 37  0  0  0  0  0  0  0  0  1 V2000
  150.6927  140.9473  157.2952 O   0  0  0  0  0  0  0  0  0  0  0  0
  150.2766  142.0323  156.8886 C   0  0  0  0  0  0  0  0  0  0  0  0
  150.7771  143.2192  157.2561 N   0  0  0  0  0  0  0  0  0  0  0  0
  151.8595  143.4133  158.1651 C   0  0  0  0  0  0  0  0  0  0  0  0
  151.6454  144.3676  159.3197 C   0  0  0  0  0  0  0  0  0  0  0  0
  152.5336  144.7681  158.1744 C   0  0  0  0  0  0  0  0  0  0  0  0
  149.2639  142.1696  156.0224 N   0  0  0  0  0  0  0  0  0  0  0  0
  148.4870  141.0675  155.4518 C   0  0  2  0  0  0  0  0  0  0  0  0
  148.6708  141.0109  153.9204 C   0  0  0  0  0  0  0  0  0  0  0  0
  147.3427  141.4645  153.2952 C   0  0  0  0  0  0  0  0  0  0  0  0
  146.5313  142.0732  154.4388 C   0  0  0  0  0  0  0  0  0  0  0  0
  146.9715  141.2640  155.6632 C   0  0  2  0  0  0  0  0  0  0  0  0
  146.6019  141.8305  156.9570 N   0  0  0  0  0  0  0  0  0  0  0  0
  145.9350  143.0323  157.1671 C   0  0  0  0  0  0  0  0  0  0  0  0
  145.8248  143.1956  158.5288 C   0  0  0  0  0  0  0  0  0  0  0  0
  146.4380  142.1281  159.1778 N   0  0  0  0  0  0  0  0  0  0  0  0
  146.8859  141.3696  158.1858 C   0  0  0  0  0  0  0  0  0  0  0  0
  150.3607  144.0510  156.8638 H   0  0  0  0  0  0  0  0  0  0  0  0
  152.5033  142.5583  158.3657 H   0  0  0  0  0  0  0  0  0  0  0  0
  150.6781  144.8599  159.4013 H   0  0  0  0  0  0  0  0  0  0  0  0
  152.1250  144.1250  160.2659 H   0  0  0  0  0  0  0  0  0  0  0  0
  153.6062  144.7923  158.3555 H   0  0  0  0  0  0  0  0  0  0  0  0
  152.1595  145.5283  157.4914 H   0  0  0  0  0  0  0  0  0  0  0  0
  148.9950  143.1035  155.7493 H   0  0  0  0  0  0  0  0  0  0  0  0
  148.8013  140.1299  155.9142 H   0  0  0  0  0  0  0  0  0  0  0  0
  149.4921  141.6471  153.5867 H   0  0  0  0  0  0  0  0  0  0  0  0
  148.9094  139.9968  153.5982 H   0  0  0  0  0  0  0  0  0  0  0  0
  147.4880  142.1673  152.4745 H   0  0  0  0  0  0  0  0  0  0  0  0
  146.8148  140.5980  152.8950 H   0  0  0  0  0  0  0  0  0  0  0  0
  146.8034  143.1232  154.5558 H   0  0  0  0  0  0  0  0  0  0  0  0
  145.4566  142.0209  154.2610 H   0  0  0  0  0  0  0  0  0  0  0  0
  146.4934  140.2849  155.6006 H   0  0  0  0  0  0  0  0  0  0  0  0
  145.5959  143.6524  156.3501 H   0  0  0  0  0  0  0  0  0  0  0  0
  145.3657  143.9986  159.0864 H   0  0  0  0  0  0  0  0  0  0  0  0
  147.4321  140.4556  158.3661 H   0  0  0  0  0  0  0  0  0  0  0  0
  1  2  2  0  0  0  0
  2  3  1  0  0  0  0
  2  7  1  0  0  0  0
  3  4  1  0  0  0  0
  3 18  1  0  0  0  0
  4  6  1  0  0  0  0
  4  5  1  0  0  0  0
  4 19  1  0  0  0  0
  5  6  1  0  0  0  0
  5 20  1  0  0  0  0
  5 21  1  0  0  0  0
  6 22  1  0  0  0  0
  6 23  1  0  0  0  0
  7  8  1  0  0  0  0
  7 24  1  0  0  0  0
  8 12  1  0  0  0  0
  8  9  1  0  0  0  0
  8 25  1  0  0  0  0
  9 10  1  0  0  0  0
  9 26  1  0  0  0  0
  9 27  1  0  0  0  0
 10 11  1  0  0  0  0
 10 28  1  0  0  0  0
 10 29  1  0  0  0  0
 11 12  1  0  0  0  0
 11 30  1  0  0  0  0
 11 31  1  0  0  0  0
 12 13  1  0  0  0  0
 12 32  1  0  0  0  0
 13 17  1  0  0  0  0
 13 14  1  0  0  0  0
 14 15  2  0  0  0  0
 14 33  1  0  0  0  0
 15 16  1  0  0  0  0
 15 34  1  0  0  0  0
 16 17  2  0  0  0  0
 17 35  1  0  0  0  0
M  END
> <s_m_source_file>
AV-unprocessed.smi

> <i_m_source_file_index>
3141

> <i_lp_mmshare_version>
43012

> <i_f3d_flags>
0

> <s_epik_input>
W0NIMl0xW0NIMl1bQ0hdMVtOSF1DKD1PKVtOSF1bQ0BASF0yW0NIMl1bQ0gyXVtDSDJdW0NASF0ybjNbY0hdW2NIXW5bY0hdMw==

> <s_epik_cmdline>
J2VwaWtfcHl0aG9uJywgJy1waCcsICc3LjAnLCAnLXRuJywgJzgnLCAnLW1hJywgJzIwMCcsICctbWV0YWxfYmluZGluZycsICctaW1hZScsICc8aW5maWxlLm1hZT4nLCAnLW9tYWUnLCAnPG91dGZpbGUubWFlPic=

> <r_lp_tautomer_probability>
1

> <r_epik_Ionization_Penalty>
0.728419

> <r_epik_Ionization_Penalty_Charging>
0.728357

> <r_epik_Ionization_Penalty_Neutral>
6.27871e-05

> <r_epik_State_Penalty>
0.753408

> <r_epik_Charging_Adjusted_Penalty>
1.48176

> <i_epik_Tot_Q>
0

> <i_epik_Tot_abs_Q>
0

> <r_epik_Metal_State_Penalty>
0.332413

> <b_epik_Metal_Only>
0

> <s_lp_Force_Field>
OPLS_2005

> <r_lp_Energy>
36.3958

> <b_lp_Chiralities_Consistent>
1

> <s_lp_Variant>
AV-unprocessed.smi:3141-7

> <Gold.Version>
5.8.1

> <Gold.Id.Protein>
6NUR|6NUR_protein|mol2

> <Gold.PLP.Fitness>
38.3414

> <Gold.PLP.PLP>
-30.3063

> <Gold.PLP.part.hbond>
-3.0000

> <Gold.PLP.part.metal>
0.0000

> <Gold.PLP.part.buried>
-3.3123

> <Gold.PLP.part.nonpolar>
-25.2512

> <Gold.PLP.part.repulsive>
0.1495

> <Gold.PLP.ligand.clash>
0.0000

> <Gold.PLP.ligand.torsion>
0.1782

> <Gold.PLP.Chemscore.Hbond>
2.7760

> <Gold.PLP.Chemscore.CHOScore>
0.0000

> <Gold.PLP.Chemscore.Metal>
0.0000

> <Gold.Chemscore.Hbonds>
donor molecule, donor type, donor heavy atom, donor atom, acceptor molecule, acceptor atom, score
      L1  H     3    18       P1  8028  0.90
      L1  H     7    24       P1  8028  1.00
      P1  H  6934  6946       L1    16  0.80

> <Gold.PLP.Chemscore.Internal.Correction>
0.0636

> <Gold.Rescore>
     Score         DG    S(hbond)    S(metal)    S(lipo)     H(rot)  DE(clash)    DE(int)     intcor
     16.52     -16.85       2.21        0.00      68.36       1.57       0.15       0.18       ----

> <Gold.Chemscore.Fitness>
16.5181

> <Gold.Chemscore.DG>
-16.8542

> <Gold.Chemscore.ZeroCoef>
-5.4800

> <Gold.Chemscore.Hbond>
2.2145

> <Gold.Chemscore.Metal>
0.0000

> <Gold.Chemscore.Lipo>
68.3610

> <Gold.Chemscore.Internal_Hbond>
0.0000

> <Gold.Chemscore.DEClash>
0.1523

> <Gold.Chemscore.DEInternal>
0.1838

> <Gold.Chemscore.Rot>
1.5705

> <Gold.Chemscore.Internal.Correction>
   9.000000E+99

> <Gold.Chemscore.Hbonds>
donor molecule, donor type, donor heavy atom, donor atom, acceptor molecule, acceptor atom, score
      L1  H     3    18       P1  8028  0.84
      L1  H     7    24       P1  8028  0.99
      P1  H  6934  6946       L1    16  0.12

> <Gold.Chemscore.Hbond.Weighted>
-7.3966

> <Gold.Chemscore.Metal.Weighted>
-0.0000

> <Gold.Chemscore.Lipo.Weighted>
-7.9982

> <Gold.Chemscore.Internal_Hbond.Weighted>
0.0000

> <Gold.Chemscore.DEClash.Weighted>
0.1523

> <Gold.Chemscore.DEInternal.Weighted>
0.1838

> <Gold.Chemscore.Rot.Weighted>
4.0206

> <Gold.Chemscore.Internal.Correction.Weighted>
   9.000000E+99

> <Gold.Protein.RotatedTorsions>
[ 6907 6896 6895 6894 ] final  114.34 input  -60.11 | X-H torsion
[ 7974 7965 7964 7962 ] final -117.53 input  175.53 | X-H torsion
[ 8008 7997 7996 7995 ] final -144.16 input   59.86 | X-H torsion
[ 10167 10162 10161 10158 ] final   30.75 input  -65.29 | X-H torsion
[ 10718 10713 10712 10709 ] final  156.17 input   66.30 | X-H torsion
[ 10763 10752 10751 10750 ] final  155.17 input  -60.55 | X-H torsion
[ 11005 11000 10999 10996 ] final  106.34 input  -57.11 | X-H torsion

> <Gold.Protein.ActiveResidues>
 VAL166  LYS551  ARG553  GLY616  TRP617  ASP618  TYR619  PRO620  LYS621  CYS622 
 ASP623  PHE694  ASN695  SER759  ASP760  ASP761  ALA762  ILE779  LEU786  VAL792 
 PHE793  MET794  SER795  GLU796  ALA797  LYS798  CYS799  TRP800  GLU811  SER814 

> <Gold.Protein.RotatedAtoms>
  152.4808  133.8249  159.7072 H   0  0  0  0  0  0  0  0  0  0  0  0  # atno 6907 bound_to 6896
  150.8856  133.7303  159.2926 H   0  0  0  0  0  0  0  0  0  0  0  0  # atno 6908 bound_to 6896
  151.4792  135.1054  159.9825 H   0  0  0  0  0  0  0  0  0  0  0  0  # atno 6909 bound_to 6896
  145.0842  140.8446  143.4021 H   0  0  0  0  0  0  0  0  0  0  0  0  # atno 7974 bound_to 7965
  155.5224  140.0592  157.2904 H   0  0  0  0  0  0  0  0  0  0  0  0  # atno 8008 bound_to 7997
  154.4513  140.1950  156.0458 H   0  0  0  0  0  0  0  0  0  0  0  0  # atno 8009 bound_to 7997
  156.0709  140.3260  155.7579 H   0  0  0  0  0  0  0  0  0  0  0  0  # atno 8010 bound_to 7997
  140.4650  144.0849  150.6222 H   0  0  0  0  0  0  0  0  0  0  0  0  # atno 10167 bound_to 10162
  157.2085  131.0692  151.1983 H   0  0  0  0  0  0  0  0  0  0  0  0  # atno 10718 bound_to 10713
  154.1640  135.2808  155.3100 H   0  0  0  0  0  0  0  0  0  0  0  0  # atno 10763 bound_to 10752
  154.6125  135.5494  153.7492 H   0  0  0  0  0  0  0  0  0  0  0  0  # atno 10764 bound_to 10752
  153.0184  135.6419  154.1781 H   0  0  0  0  0  0  0  0  0  0  0  0  # atno 10765 bound_to 10752
  139.8813  134.9366  156.5651 H   0  0  0  0  0  0  0  0  0  0  0  0  # atno 11005 bound_to 11000
  145.1142  139.2736  143.5621 LP  0  0  0  0  0  0  0  0  0  0  0  0  # atno 17320 bound_to 7965
  146.3531  140.0747  142.8621 LP  0  0  0  0  0  0  0  0  0  0  0  0  # atno 17321 bound_to 7965
  140.4047  143.2686  151.9905 LP  0  0  0  0  0  0  0  0  0  0  0  0  # atno 17342 bound_to 10162
  139.4811  144.5967  151.7677 LP  0  0  0  0  0  0  0  0  0  0  0  0  # atno 17343 bound_to 10162
  157.3696  130.7174  149.6556 LP  0  0  0  0  0  0  0  0  0  0  0  0  # atno 17370 bound_to 10713
  155.9693  130.4202  150.4414 LP  0  0  0  0  0  0  0  0  0  0  0  0  # atno 17371 bound_to 10713
  140.8140  133.8406  155.8835 LP  0  0  0  0  0  0  0  0  0  0  0  0  # atno 17394 bound_to 11000
  140.9480  134.1815  157.4749 LP  0  0  0  0  0  0  0  0  0  0  0  0  # atno 17395 bound_to 11000

$$$$
