AV-unprocessed.smi:270|AV-procd|sdf|2048|dock2
  -GOLD-   2262021273D 1   1.00000     0.00000
 Structure written by MMmdl.
 54 57  0  0  0  0  0  0  0  0  1 V2000
  143.3536  135.0160  153.5683 C   0  0  0  0  0  0  0  0  0  0  0  0
  144.7308  135.0366  152.8871 C   0  0  1  0  0  0  0  0  0  0  0  0
  144.5172  135.2625  151.4956 O   0  0  0  0  0  0  0  0  0  0  0  0
  145.6175  135.9845  150.9716 C   0  0  0  0  0  0  0  0  0  0  0  0
  145.9166  136.9763  152.0847 C   0  0  0  0  0  0  0  0  0  0  0  0
  145.7234  136.1420  153.3477 C   0  0  2  0  0  0  0  0  0  0  0  0
  146.9598  135.5131  153.6443 O   0  0  0  0  0  0  0  0  0  0  0  0
  145.3016  136.9753  154.5867 C   0  0  0  0  0  0  0  0  0  0  0  0
  146.4289  137.5148  155.3326 N   0  0  0  0  0  0  0  0  0  0  0  0
  146.8893  137.0788  156.5540 C   0  0  0  0  0  0  0  0  0  0  0  0
  147.9266  137.7198  157.0180 N   0  0  0  0  0  0  0  0  0  0  0  0
  148.1952  138.6837  156.0527 C   0  0  0  0  0  0  0  0  0  0  0  0
  149.1787  139.7089  155.9301 C   0  0  0  0  0  0  0  0  0  0  0  0
  150.2085  139.9530  156.8840 N   0  0  0  0  0  0  0  0  0  0  0  0
  149.8026  139.9888  158.2813 C   0  0  0  0  0  0  0  0  0  0  0  0
  150.7417  141.1892  158.4389 C   0  0  0  0  0  0  0  0  0  0  0  0
  152.0074  140.8600  158.9900 O   0  0  0  0  0  0  0  0  0  0  0  0
  152.8588  141.9862  159.1306 C   0  0  0  0  0  0  0  0  0  0  0  0
  152.1121  143.0760  159.9087 C   0  0  0  0  0  0  0  0  0  0  0  0
  151.6368  142.7860  161.0075 O   0  0  0  0  0  0  0  0  0  0  0  0
  151.9973  144.3133  159.3718 N   0  0  0  0  0  0  0  0  0  0  0  0
  152.5784  144.6841  158.0776 C   0  0  0  0  0  0  0  0  0  0  0  0
  151.2700  145.3647  160.0881 C   0  0  0  0  0  0  0  0  0  0  0  0
  150.7919  141.2889  156.9133 C   0  0  0  0  0  0  0  0  0  0  0  0
  149.1319  140.4532  154.7926 N   0  0  0  0  0  0  0  0  0  0  0  0
  148.1923  140.2434  153.8664 C   0  0  0  0  0  0  0  0  0  0  0  0
  147.2131  139.3389  153.8637 N   0  0  0  0  0  0  0  0  0  0  0  0
  147.2583  138.5672  154.9856 C   0  0  0  0  0  0  0  0  0  0  0  0
  143.4399  134.8278  154.6384 H   0  0  0  0  0  0  0  0  0  0  0  0
  142.7305  134.2254  153.1495 H   0  0  0  0  0  0  0  0  0  0  0  0
  142.8227  135.9577  153.4273 H   0  0  0  0  0  0  0  0  0  0  0  0
  145.1830  134.0490  152.9968 H   0  0  0  0  0  0  0  0  0  0  0  0
  146.4588  135.3100  150.8055 H   0  0  0  0  0  0  0  0  0  0  0  0
  145.3685  136.4697  150.0277 H   0  0  0  0  0  0  0  0  0  0  0  0
  146.9032  137.4346  152.0015 H   0  0  0  0  0  0  0  0  0  0  0  0
  145.1748  137.7744  152.0452 H   0  0  0  0  0  0  0  0  0  0  0  0
  147.6498  135.9920  153.2112 H   0  0  0  0  0  0  0  0  0  0  0  0
  144.6678  137.8112  154.2893 H   0  0  0  0  0  0  0  0  0  0  0  0
  144.7085  136.3656  155.2693 H   0  0  0  0  0  0  0  0  0  0  0  0
  146.4329  136.2588  157.0894 H   0  0  0  0  0  0  0  0  0  0  0  0
  148.7528  140.2500  158.4222 H   0  0  0  0  0  0  0  0  0  0  0  0
  150.0930  139.0987  158.8398 H   0  0  0  0  0  0  0  0  0  0  0  0
  150.2759  142.0604  158.9021 H   0  0  0  0  0  0  0  0  0  0  0  0
  153.7588  141.6996  159.6771 H   0  0  0  0  0  0  0  0  0  0  0  0
  153.1833  142.3693  158.1627 H   0  0  0  0  0  0  0  0  0  0  0  0
  153.6540  144.5061  158.0669 H   0  0  0  0  0  0  0  0  0  0  0  0
  152.4334  145.7373  157.8373 H   0  0  0  0  0  0  0  0  0  0  0  0
  152.1257  144.1076  157.2703 H   0  0  0  0  0  0  0  0  0  0  0  0
  150.2536  145.0406  160.3166 H   0  0  0  0  0  0  0  0  0  0  0  0
  151.1902  146.2915  159.5202 H   0  0  0  0  0  0  0  0  0  0  0  0
  151.7703  145.5993  161.0287 H   0  0  0  0  0  0  0  0  0  0  0  0
  151.7972  141.3373  156.4942 H   0  0  0  0  0  0  0  0  0  0  0  0
  150.1357  142.0685  156.5230 H   0  0  0  0  0  0  0  0  0  0  0  0
  148.2341  140.8909  153.0030 H   0  0  0  0  0  0  0  0  0  0  0  0
  1  2  1  0  0  0  0
  1 29  1  0  0  0  0
  1 30  1  0  0  0  0
  1 31  1  0  0  0  0
  2  6  1  0  0  0  0
  2  3  1  0  0  0  0
  2 32  1  0  0  0  0
  3  4  1  0  0  0  0
  4  5  1  0  0  0  0
  4 33  1  0  0  0  0
  4 34  1  0  0  0  0
  5  6  1  0  0  0  0
  5 35  1  0  0  0  0
  5 36  1  0  0  0  0
  6  7  1  0  0  0  0
  6  8  1  0  0  0  0
  7 37  1  0  0  0  0
  8  9  1  0  0  0  0
  8 38  1  0  0  0  0
  8 39  1  0  0  0  0
  9 28  1  0  0  0  0
  9 10  1  0  0  0  0
 10 11  2  0  0  0  0
 10 40  1  0  0  0  0
 11 12  1  0  0  0  0
 12 28  2  0  0  0  0
 12 13  1  0  0  0  0
 13 14  1  0  0  0  0
 13 25  2  0  0  0  0
 14 24  1  0  0  0  0
 14 15  1  0  0  0  0
 15 16  1  0  0  0  0
 15 41  1  0  0  0  0
 15 42  1  0  0  0  0
 16 17  1  0  0  0  0
 16 24  1  0  0  0  0
 16 43  1  0  0  0  0
 17 18  1  0  0  0  0
 18 19  1  0  0  0  0
 18 44  1  0  0  0  0
 18 45  1  0  0  0  0
 19 20  2  0  0  0  0
 19 21  1  0  0  0  0
 21 22  1  0  0  0  0
 21 23  1  0  0  0  0
 22 46  1  0  0  0  0
 22 47  1  0  0  0  0
 22 48  1  0  0  0  0
 23 49  1  0  0  0  0
 23 50  1  0  0  0  0
 23 51  1  0  0  0  0
 24 52  1  0  0  0  0
 24 53  1  0  0  0  0
 25 26  1  0  0  0  0
 26 27  2  0  0  0  0
 26 54  1  0  0  0  0
 27 28  1  0  0  0  0
M  END
> <s_m_source_file>
AV-unprocessed.smi

> <i_m_source_file_index>
270

> <i_lp_mmshare_version>
43012

> <i_f3d_flags>
0

> <s_epik_input>
W0NIMl0xW0NIMl1PW0NAQEhdKFtDSDNdKVtDQEBdMShbT0hdKVtDSDJdbihbY0hdbjIpYyhjMjMpbltjSF1uYzNONFtDSDJdW0NIXShbQ0gyXTQpT1tDSDJdQyg9TylOKFtDSDNdKVtDSDNd

> <s_epik_cmdline>
J2VwaWtfcHl0aG9uJywgJy1waCcsICc3LjAnLCAnLXRuJywgJzgnLCAnLW1hJywgJzIwMCcsICctbWV0YWxfYmluZGluZycsICctaW1hZScsICc8aW5maWxlLm1hZT4nLCAnLW9tYWUnLCAnPG91dGZpbGUubWFlPic=

> <r_lp_tautomer_probability>
1

> <r_epik_Ionization_Penalty>
0.00375854

> <r_epik_Ionization_Penalty_Charging>
0

> <r_epik_Ionization_Penalty_Neutral>
0.00375854

> <r_epik_State_Penalty>
-0

> <r_epik_Charging_Adjusted_Penalty>
0

> <i_epik_Tot_Q>
0

> <i_epik_Tot_abs_Q>
0

> <r_epik_Metal_State_Penalty>
-0

> <b_epik_Metal_Only>
0

> <s_lp_Force_Field>
OPLS_2005

> <r_lp_Energy>
53.4022

> <b_lp_Chiralities_Consistent>
1

> <s_lp_Variant>
AV-unprocessed.smi:270-4

> <Gold.Version>
5.8.1

> <Gold.Id.Protein>
6NUR|6NUR_protein|mol2

> <Gold.PLP.Fitness>
42.4615

> <Gold.PLP.PLP>
-39.3268

> <Gold.PLP.part.hbond>
-2.0000

> <Gold.PLP.part.metal>
0.0000

> <Gold.PLP.part.buried>
-5.5634

> <Gold.PLP.part.nonpolar>
-33.4105

> <Gold.PLP.part.repulsive>
0.5515

> <Gold.PLP.ligand.clash>
0.0000

> <Gold.PLP.ligand.torsion>
1.3301

> <Gold.PLP.Chemscore.Hbond>
1.1316

> <Gold.PLP.Chemscore.CHOScore>
0.6604

> <Gold.PLP.Chemscore.Metal>
0.0000

> <Gold.Chemscore.Hbonds>
donor molecule, donor type, donor heavy atom, donor atom, acceptor molecule, acceptor atom, score
      L1  H     7    37       P1  7948  1.00
      P1  H  6933  6945       L1    20  0.16
      L1  C    26    54       P1  7957  0.71

> <Gold.PLP.Chemscore.Internal.Correction>
0.4192

> <Gold.Rescore>
     Score         DG    S(hbond)    S(metal)    S(lipo)     H(rot)  DE(clash)    DE(int)     intcor
      9.75     -11.30       1.60        0.00      72.45       3.12       0.10       1.46       ----

> <Gold.Chemscore.Fitness>
9.7501

> <Gold.Chemscore.DG>
-11.3047

> <Gold.Chemscore.ZeroCoef>
-5.4800

> <Gold.Chemscore.Hbond>
1.6000

> <Gold.Chemscore.Metal>
0.0000

> <Gold.Chemscore.Lipo>
72.4487

> <Gold.Chemscore.Internal_Hbond>
0.0000

> <Gold.Chemscore.DEClash>
0.0960

> <Gold.Chemscore.DEInternal>
1.4586

> <Gold.Chemscore.Rot>
3.1234

> <Gold.Chemscore.Internal.Correction>
   9.000000E+99

> <Gold.Chemscore.Hbonds>
donor molecule, donor type, donor heavy atom, donor atom, acceptor molecule, acceptor atom, score
      L1  H     7    37       P1  7948  0.97
      P1  H  6933  6945       L1    20  0.16

> <Gold.Chemscore.Hbond.Weighted>
-5.3440

> <Gold.Chemscore.Metal.Weighted>
-0.0000

> <Gold.Chemscore.Lipo.Weighted>
-8.4765

> <Gold.Chemscore.Internal_Hbond.Weighted>
0.0000

> <Gold.Chemscore.DEClash.Weighted>
0.0960

> <Gold.Chemscore.DEInternal.Weighted>
1.4586

> <Gold.Chemscore.Rot.Weighted>
7.9959

> <Gold.Chemscore.Internal.Correction.Weighted>
   9.000000E+99

> <Gold.Protein.RotatedTorsions>
[ 6907 6896 6895 6894 ] final   25.87 input  -60.11 | X-H torsion
[ 7974 7965 7964 7962 ] final -149.63 input  175.53 | X-H torsion
[ 8008 7997 7996 7995 ] final  130.10 input   59.86 | X-H torsion
[ 10167 10162 10161 10158 ] final -135.88 input  -65.29 | X-H torsion
[ 10718 10713 10712 10709 ] final   -4.29 input   66.30 | X-H torsion
[ 10763 10752 10751 10750 ] final   15.62 input  -60.55 | X-H torsion
[ 11005 11000 10999 10996 ] final  -40.66 input  -57.11 | X-H torsion

> <Gold.Protein.ActiveResidues>
 VAL166  LYS551  ARG553  GLY616  TRP617  ASP618  TYR619  PRO620  LYS621  CYS622 
 ASP623  PHE694  ASN695  SER759  ASP760  ASP761  ALA762  ILE779  LEU786  VAL792 
 PHE793  MET794  SER795  GLU796  ALA797  LYS798  CYS799  TRP800  GLU811  SER814 

> <Gold.Protein.RotatedAtoms>
  151.9791  135.0038  160.0556 H   0  0  0  0  0  0  0  0  0  0  0  0  # atno 6907 bound_to 6896
  152.1713  133.4641  159.4919 H   0  0  0  0  0  0  0  0  0  0  0  0  # atno 6908 bound_to 6896
  150.6902  134.1867  159.4312 H   0  0  0  0  0  0  0  0  0  0  0  0  # atno 6909 bound_to 6896
  144.7956  140.5040  143.5742 H   0  0  0  0  0  0  0  0  0  0  0  0  # atno 7974 bound_to 7965
  156.2948  140.2604  156.2707 H   0  0  0  0  0  0  0  0  0  0  0  0  # atno 8008 bound_to 7997
  154.9697  140.0391  157.2247 H   0  0  0  0  0  0  0  0  0  0  0  0  # atno 8009 bound_to 7997
  154.7870  140.2805  155.6025 H   0  0  0  0  0  0  0  0  0  0  0  0  # atno 8010 bound_to 7997
  139.8734  143.6929  152.2637 H   0  0  0  0  0  0  0  0  0  0  0  0  # atno 10167 bound_to 10162
  156.7635  130.5277  149.5780 H   0  0  0  0  0  0  0  0  0  0  0  0  # atno 10718 bound_to 10713
  153.1508  135.6778  153.8885 H   0  0  0  0  0  0  0  0  0  0  0  0  # atno 10763 bound_to 10752
  153.8312  135.3117  155.3420 H   0  0  0  0  0  0  0  0  0  0  0  0  # atno 10764 bound_to 10752
  154.7861  135.4861  154.0035 H   0  0  0  0  0  0  0  0  0  0  0  0  # atno 10765 bound_to 10752
  141.0191  133.6871  156.2352 H   0  0  0  0  0  0  0  0  0  0  0  0  # atno 11005 bound_to 11000
  145.5682  139.1482  143.3303 LP  0  0  0  0  0  0  0  0  0  0  0  0  # atno 17320 bound_to 7965
  146.2223  140.5816  142.9012 LP  0  0  0  0  0  0  0  0  0  0  0  0  # atno 17321 bound_to 7965
  139.7263  144.7592  151.0874 LP  0  0  0  0  0  0  0  0  0  0  0  0  # atno 17342 bound_to 10162
  140.7757  143.5144  150.9613 LP  0  0  0  0  0  0  0  0  0  0  0  0  # atno 17343 bound_to 10162
  156.1323  130.6187  151.0351 LP  0  0  0  0  0  0  0  0  0  0  0  0  # atno 17370 bound_to 10713
  157.6723  131.0858  150.7580 LP  0  0  0  0  0  0  0  0  0  0  0  0  # atno 17371 bound_to 10713
  140.6604  134.4974  157.5583 LP  0  0  0  0  0  0  0  0  0  0  0  0  # atno 17394 bound_to 11000
  139.9135  134.8295  156.1446 LP  0  0  0  0  0  0  0  0  0  0  0  0  # atno 17395 bound_to 11000

$$$$
