AV-unprocessed.smi:3199|AV-procd|sdf|12233|dock1
  -GOLD-   2272018 63D 1   1.00000     0.00000
 Structure written by MMmdl.
 36 37  0  0  0  0  0  0  0  0  2 V2000
  151.3307  143.4528  157.9521 C   0  0  0  0  0  0  0  0  0  0  0  0
  151.0830  142.2873  157.0180 C   0  0  0  0  0  0  0  0  0  0  0  0
  151.8425  141.0988  157.0771 C   0  0  0  0  0  0  0  0  0  0  0  0
  151.5554  140.0522  156.1759 C   0  0  0  0  0  0  0  0  0  0  0  0
  150.5157  140.2152  155.2341 C   0  0  0  0  0  0  0  0  0  0  0  0
  150.1788  139.1128  154.2494 C   0  0  0  0  0  0  0  0  0  0  0  0
  151.0833  137.8814  154.4245 C   0  0  0  0  0  0  0  0  0  0  0  0
  150.3133  136.6435  154.4153 N   0  0  0  0  0  0  0  0  0  0  0  0
  150.3194  135.7253  155.3953 C   0  0  0  0  0  0  0  0  0  0  0  0
  150.9814  135.8534  156.4257 O   0  0  0  0  0  0  0  0  0  0  0  0
  149.4307  134.4874  155.2021 C   0  0  2  0  0  0  0  0  0  0  0  0
  149.5834  133.4150  156.2983 C   0  0  0  0  0  0  0  0  0  0  0  0
  149.9051  132.1419  155.5327 C   0  0  0  0  0  0  0  0  0  0  0  0
  149.4202  132.4581  154.1245 C   0  0  0  0  0  0  0  0  0  0  0  0
  149.7652  133.8250  153.9839 O   0  0  0  0  0  0  0  0  0  0  0  0
  149.7889  141.4250  155.2232 C   0  0  0  0  0  0  0  0  0  0  0  0
  150.0940  142.4033  156.1035 N   0  3  0  0  0  0  0  0  0  0  0  0
  152.2971  143.3576  158.4482 H   0  0  0  0  0  0  0  0  0  0  0  0
  150.5555  143.4947  158.7175 H   0  0  0  0  0  0  0  0  0  0  0  0
  151.3237  144.3946  157.4026 H   0  0  0  0  0  0  0  0  0  0  0  0
  152.6352  140.9881  157.8027 H   0  0  0  0  0  0  0  0  0  0  0  0
  152.1281  139.1367  156.2097 H   0  0  0  0  0  0  0  0  0  0  0  0
  149.1320  138.8380  154.3857 H   0  0  0  0  0  0  0  0  0  0  0  0
  150.2640  139.4977  153.2323 H   0  0  0  0  0  0  0  0  0  0  0  0
  151.8124  137.8362  153.6150 H   0  0  0  0  0  0  0  0  0  0  0  0
  151.6535  137.9523  155.3523 H   0  0  0  0  0  0  0  0  0  0  0  0
  149.7410  136.4612  153.6031 H   0  0  0  0  0  0  0  0  0  0  0  0
  148.3893  134.8080  155.1442 H   0  0  0  0  0  0  0  0  0  0  0  0
  150.3643  133.6348  157.0276 H   0  0  0  0  0  0  0  0  0  0  0  0
  148.6461  133.3069  156.8451 H   0  0  0  0  0  0  0  0  0  0  0  0
  150.9834  131.9783  155.5228 H   0  0  0  0  0  0  0  0  0  0  0  0
  149.4308  131.2566  155.9570 H   0  0  0  0  0  0  0  0  0  0  0  0
  149.8976  131.8403  153.3638 H   0  0  0  0  0  0  0  0  0  0  0  0
  148.3387  132.3386  154.0436 H   0  0  0  0  0  0  0  0  0  0  0  0
  148.9773  141.6378  154.5425 H   0  0  0  0  0  0  0  0  0  0  0  0
  149.5539  143.2685  156.0769 H   0  0  0  0  0  0  0  0  0  0  0  0
  1  2  1  0  0  0  0
  1 18  1  0  0  0  0
  1 19  1  0  0  0  0
  1 20  1  0  0  0  0
  2 17  1  0  0  0  0
  2  3  2  0  0  0  0
  3  4  1  0  0  0  0
  3 21  1  0  0  0  0
  4  5  2  0  0  0  0
  4 22  1  0  0  0  0
  5  6  1  0  0  0  0
  5 16  1  0  0  0  0
  6  7  1  0  0  0  0
  6 23  1  0  0  0  0
  6 24  1  0  0  0  0
  7  8  1  0  0  0  0
  7 25  1  0  0  0  0
  7 26  1  0  0  0  0
  8  9  1  0  0  0  0
  8 27  1  0  0  0  0
  9 10  2  0  0  0  0
  9 11  1  0  0  0  0
 11 15  1  0  0  0  0
 11 12  1  0  0  0  0
 11 28  1  0  0  0  0
 12 13  1  0  0  0  0
 12 29  1  0  0  0  0
 12 30  1  0  0  0  0
 13 14  1  0  0  0  0
 13 31  1  0  0  0  0
 13 32  1  0  0  0  0
 14 15  1  0  0  0  0
 14 33  1  0  0  0  0
 14 34  1  0  0  0  0
 16 17  2  0  0  0  0
 16 35  1  0  0  0  0
 17 36  1  0  0  0  0
M  CHG  1  17   1
M  END
> <s_m_source_file>
AV-unprocessed.smi

> <i_m_source_file_index>
3199

> <i_lp_mmshare_version>
43012

> <i_f3d_flags>
0

> <s_epik_input>
W0NIM11jMVtjSF1bY0hdYyhbY0hdbjEpW0NIMl1bQ0gyXVtOSF1DKD1PKVtDQEBIXTJbQ0gyXVtDSDJdW0NIMl1PMg==

> <s_epik_cmdline>
J2VwaWtfcHl0aG9uJywgJy1waCcsICc3LjAnLCAnLXRuJywgJzgnLCAnLW1hJywgJzIwMCcsICctbWV0YWxfYmluZGluZycsICctaW1hZScsICc8aW5maWxlLm1hZT4nLCAnLW9tYWUnLCAnPG91dGZpbGUubWFlPic=

> <r_epik_Ionization_Penalty>
1.4683

> <r_epik_Ionization_Penalty_Charging>
1.4683

> <r_epik_Ionization_Penalty_Neutral>
5.71603e-08

> <r_epik_State_Penalty>
1.5559

> <r_epik_Charging_Adjusted_Penalty>
3.0242

> <i_epik_Tot_Q>
1

> <i_epik_Tot_abs_Q>
1

> <r_epik_Metal_State_Penalty>
1.60421

> <b_epik_Metal_Only>
0

> <s_lp_Force_Field>
OPLS_2005

> <r_lp_Energy>
23.6243

> <b_lp_Chiralities_Consistent>
1

> <s_lp_Variant>
AV-unprocessed.smi:3199-3

> <Gold.Version>
5.8.1

> <Gold.Id.Protein>
6NUR|6NUR_protein|mol2

> <Gold.PLP.Fitness>
40.9390

> <Gold.PLP.PLP>
-32.6870

> <Gold.PLP.part.hbond>
-2.7535

> <Gold.PLP.part.metal>
0.0000

> <Gold.PLP.part.buried>
-3.2761

> <Gold.PLP.part.nonpolar>
-26.8904

> <Gold.PLP.part.repulsive>
0.3504

> <Gold.PLP.ligand.clash>
0.0000

> <Gold.PLP.ligand.torsion>
0.3867

> <Gold.PLP.Chemscore.Hbond>
3.0000

> <Gold.PLP.Chemscore.CHOScore>
0.0000

> <Gold.PLP.Chemscore.Metal>
0.0000

> <Gold.Chemscore.Hbonds>
donor molecule, donor type, donor heavy atom, donor atom, acceptor molecule, acceptor atom, score
      L1  H     8    27       P1  7948  1.00
      L1  H    17    36       P1  8028  2.00

> <Gold.PLP.Chemscore.Internal.Correction>
0.0255

> <Gold.Rescore>
     Score         DG    S(hbond)    S(metal)    S(lipo)     H(rot)  DE(clash)    DE(int)     intcor
     16.60     -16.94       1.81        0.00      80.35       1.56       0.01       0.33       ----

> <Gold.Chemscore.Fitness>
16.5972

> <Gold.Chemscore.DG>
-16.9392

> <Gold.Chemscore.ZeroCoef>
-5.4800

> <Gold.Chemscore.Hbond>
1.8128

> <Gold.Chemscore.Metal>
0.0000

> <Gold.Chemscore.Lipo>
80.3538

> <Gold.Chemscore.Internal_Hbond>
0.0000

> <Gold.Chemscore.DEClash>
0.0129

> <Gold.Chemscore.DEInternal>
0.3292

> <Gold.Chemscore.Rot>
1.5613

> <Gold.Chemscore.Internal.Correction>
   9.000000E+99

> <Gold.Chemscore.Hbonds>
donor molecule, donor type, donor heavy atom, donor atom, acceptor molecule, acceptor atom, score
      L1  H     8    27       P1  7948  0.40
      L1  H    17    36       P1  8028  1.00

> <Gold.Chemscore.Hbond.Weighted>
-6.0547

> <Gold.Chemscore.Metal.Weighted>
-0.0000

> <Gold.Chemscore.Lipo.Weighted>
-9.4014

> <Gold.Chemscore.Internal_Hbond.Weighted>
0.0000

> <Gold.Chemscore.DEClash.Weighted>
0.0129

> <Gold.Chemscore.DEInternal.Weighted>
0.3292

> <Gold.Chemscore.Rot.Weighted>
3.9969

> <Gold.Chemscore.Internal.Correction.Weighted>
   9.000000E+99

> <Gold.Protein.RotatedTorsions>
[ 6907 6896 6895 6894 ] final  110.80 input  -60.11 | X-H torsion
[ 7974 7965 7964 7962 ] final -146.40 input  175.53 | X-H torsion
[ 8008 7997 7996 7995 ] final   96.79 input   59.86 | X-H torsion
[ 10167 10162 10161 10158 ] final  -48.42 input  -65.29 | X-H torsion
[ 10718 10713 10712 10709 ] final -151.44 input   66.30 | X-H torsion
[ 10763 10752 10751 10750 ] final  -25.99 input  -60.55 | X-H torsion
[ 11005 11000 10999 10996 ] final   24.82 input  -57.11 | X-H torsion

> <Gold.Protein.ActiveResidues>
 VAL166  LYS551  ARG553  GLY616  TRP617  ASP618  TYR619  PRO620  LYS621  CYS622 
 ASP623  PHE694  ASN695  SER759  ASP760  ASP761  ALA762  ILE779  LEU786  VAL792 
 PHE793  MET794  SER795  GLU796  ALA797  LYS798  CYS799  TRP800  GLU811  SER814 

> <Gold.Protein.RotatedAtoms>
  152.5002  133.8749  159.7316 H   0  0  0  0  0  0  0  0  0  0  0  0  # atno 6907 bound_to 6896
  150.9226  133.6853  159.2835 H   0  0  0  0  0  0  0  0  0  0  0  0  # atno 6908 bound_to 6896
  151.4225  135.1004  159.9670 H   0  0  0  0  0  0  0  0  0  0  0  0  # atno 6909 bound_to 6896
  144.8162  140.5461  143.5609 H   0  0  0  0  0  0  0  0  0  0  0  0  # atno 7974 bound_to 7965
  156.0833  140.3267  155.7722 H   0  0  0  0  0  0  0  0  0  0  0  0  # atno 8008 bound_to 7997
  155.5116  140.0577  157.2939 H   0  0  0  0  0  0  0  0  0  0  0  0  # atno 8009 bound_to 7997
  154.4595  140.1959  156.0302 H   0  0  0  0  0  0  0  0  0  0  0  0  # atno 8010 bound_to 7997
  140.6732  143.2741  151.4068 H   0  0  0  0  0  0  0  0  0  0  0  0  # atno 10167 bound_to 10162
  156.4593  130.8206  151.2436 H   0  0  0  0  0  0  0  0  0  0  0  0  # atno 10718 bound_to 10713
  153.7087  135.6952  153.5043 H   0  0  0  0  0  0  0  0  0  0  0  0  # atno 10763 bound_to 10752
  153.2289  135.4344  155.0572 H   0  0  0  0  0  0  0  0  0  0  0  0  # atno 10764 bound_to 10752
  154.8321  135.3479  154.6624 H   0  0  0  0  0  0  0  0  0  0  0  0  # atno 10765 bound_to 10752
  140.3546  134.2191  155.7677 H   0  0  0  0  0  0  0  0  0  0  0  0  # atno 11005 bound_to 11000
  145.5209  139.1477  143.3553 LP  0  0  0  0  0  0  0  0  0  0  0  0  # atno 17320 bound_to 7965
  146.2465  140.5350  142.8911 LP  0  0  0  0  0  0  0  0  0  0  0  0  # atno 17321 bound_to 7965
  139.6010  144.1295  152.2198 LP  0  0  0  0  0  0  0  0  0  0  0  0  # atno 17342 bound_to 10162
  140.0680  144.5803  150.7213 LP  0  0  0  0  0  0  0  0  0  0  0  0  # atno 17343 bound_to 10162
  157.7499  131.0112  150.3337 LP  0  0  0  0  0  0  0  0  0  0  0  0  # atno 17370 bound_to 10713
  156.3733  130.3867  149.7158 LP  0  0  0  0  0  0  0  0  0  0  0  0  # atno 17371 bound_to 10713
  141.2002  133.7993  157.0500 LP  0  0  0  0  0  0  0  0  0  0  0  0  # atno 17394 bound_to 11000
  140.0675  134.9720  157.1411 LP  0  0  0  0  0  0  0  0  0  0  0  0  # atno 17395 bound_to 11000

$$$$
