AV-unprocessed.smi:124|AV-procd|sdf|1148|dock8
  -GOLD-   2262018283D 1   1.00000     0.00000
 Structure written by MMmdl.
 52 56  0  0  0  0  0  0  0  0  1 V2000
  151.6637  136.5911  155.7674 O   0  0  0  0  0  0  0  0  0  0  0  0
  152.0790  137.5408  156.4335 C   0  0  0  0  0  0  0  0  0  0  0  0
  152.5135  138.8335  155.7187 C   0  0  0  0  0  0  0  0  0  0  0  0
  151.6377  139.9605  156.0179 N   0  0  0  0  0  0  0  0  0  0  0  0
  150.5177  140.1609  155.1722 C   0  0  0  0  0  0  0  0  0  0  0  0
  150.2753  139.4156  154.2209 O   0  0  0  0  0  0  0  0  0  0  0  0
  149.6854  141.3047  155.5284 C   0  0  0  0  0  0  0  0  0  0  0  0
  148.6107  141.6034  154.7788 F   0  0  0  0  0  0  0  0  0  0  0  0
  149.9779  142.0737  156.5994 C   0  0  0  0  0  0  0  0  0  0  0  0
  151.0638  141.8370  157.4260 N   0  0  0  0  0  0  0  0  0  0  0  0
  151.3481  142.7166  158.6234 C   0  0  1  0  0  0  0  0  0  0  0  0
  152.7740  143.2735  158.5461 C   0  0  0  0  0  0  0  0  0  0  0  0
  152.5482  144.6160  157.8850 C   0  0  0  0  0  0  0  0  0  0  0  0
  151.1982  145.0213  158.4656 C   0  0  0  0  0  0  0  0  0  0  0  0
  150.4692  143.8051  158.6116 O   0  0  0  0  0  0  0  0  0  0  0  0
  151.9381  140.7644  157.1447 C   0  0  0  0  0  0  0  0  0  0  0  0
  152.9176  140.5444  157.8611 O   0  0  0  0  0  0  0  0  0  0  0  0
  152.2181  137.5370  157.8901 C   0  0  0  0  0  0  0  0  0  0  0  0
  151.1627  137.3672  158.7643 C   0  0  0  0  0  0  0  0  0  0  0  0
  149.7455  137.0875  158.5474 C   0  0  0  0  0  0  0  0  0  0  0  0
  148.8879  136.8513  159.6445 C   0  0  0  0  0  0  0  0  0  0  0  0
  147.5222  136.5737  159.4400 C   0  0  0  0  0  0  0  0  0  0  0  0
  147.0011  136.5251  158.1334 C   0  0  0  0  0  0  0  0  0  0  0  0
  147.8484  136.7521  157.0326 C   0  0  0  0  0  0  0  0  0  0  0  0
  149.2136  137.0286  157.2400 C   0  0  0  0  0  0  0  0  0  0  0  0
  151.6316  137.4646  160.0625 N   0  0  0  0  0  0  0  0  0  0  0  0
  152.9883  137.6977  160.0806 C   0  0  0  0  0  0  0  0  0  0  0  0
  153.8967  137.8659  161.1417 C   0  0  0  0  0  0  0  0  0  0  0  0
  155.2521  138.1094  160.8606 C   0  0  0  0  0  0  0  0  0  0  0  0
  155.6826  138.1860  159.5234 C   0  0  0  0  0  0  0  0  0  0  0  0
  154.7638  138.0152  158.4684 C   0  0  0  0  0  0  0  0  0  0  0  0
  153.3901  137.7575  158.7124 C   0  0  0  0  0  0  0  0  0  0  0  0
  151.0346  137.3634  160.8708 H   0  0  0  0  0  0  0  0  0  0  0  0
  153.5318  139.1047  155.9977 H   0  0  0  0  0  0  0  0  0  0  0  0
  152.5259  138.7114  154.6344 H   0  0  0  0  0  0  0  0  0  0  0  0
  149.3266  142.9095  156.8071 H   0  0  0  0  0  0  0  0  0  0  0  0
  151.1586  142.1029  159.5054 H   0  0  0  0  0  0  0  0  0  0  0  0
  153.1512  143.4047  159.5612 H   0  0  0  0  0  0  0  0  0  0  0  0
  153.4508  142.6156  157.9995 H   0  0  0  0  0  0  0  0  0  0  0  0
  153.3376  145.3372  158.0977 H   0  0  0  0  0  0  0  0  0  0  0  0
  152.4756  144.4964  156.8034 H   0  0  0  0  0  0  0  0  0  0  0  0
  151.3284  145.4707  159.4510 H   0  0  0  0  0  0  0  0  0  0  0  0
  150.6660  145.7335  157.8347 H   0  0  0  0  0  0  0  0  0  0  0  0
  149.2765  136.8888  160.6518 H   0  0  0  0  0  0  0  0  0  0  0  0
  146.8745  136.3988  160.2864 H   0  0  0  0  0  0  0  0  0  0  0  0
  145.9539  136.3128  157.9758 H   0  0  0  0  0  0  0  0  0  0  0  0
  147.4520  136.7135  156.0286 H   0  0  0  0  0  0  0  0  0  0  0  0
  149.8553  137.1981  156.3874 H   0  0  0  0  0  0  0  0  0  0  0  0
  153.5553  137.8114  162.1649 H   0  0  0  0  0  0  0  0  0  0  0  0
  155.9586  138.2411  161.6670 H   0  0  0  0  0  0  0  0  0  0  0  0
  156.7227  138.3774  159.3040 H   0  0  0  0  0  0  0  0  0  0  0  0
  155.1292  138.0854  157.4562 H   0  0  0  0  0  0  0  0  0  0  0  0
  1  2  2  0  0  0  0
  2  3  1  0  0  0  0
  2 18  1  0  0  0  0
  3  4  1  0  0  0  0
  3 34  1  0  0  0  0
  3 35  1  0  0  0  0
  4 16  1  0  0  0  0
  4  5  1  0  0  0  0
  5  6  2  0  0  0  0
  5  7  1  0  0  0  0
  7  8  1  0  0  0  0
  7  9  2  0  0  0  0
  9 10  1  0  0  0  0
  9 36  1  0  0  0  0
 10 11  1  0  0  0  0
 10 16  1  0  0  0  0
 11 15  1  0  0  0  0
 11 12  1  0  0  0  0
 11 37  1  0  0  0  0
 12 13  1  0  0  0  0
 12 38  1  0  0  0  0
 12 39  1  0  0  0  0
 13 14  1  0  0  0  0
 13 40  1  0  0  0  0
 13 41  1  0  0  0  0
 14 15  1  0  0  0  0
 14 42  1  0  0  0  0
 14 43  1  0  0  0  0
 16 17  2  0  0  0  0
 18 32  1  0  0  0  0
 18 19  2  0  0  0  0
 19 20  1  0  0  0  0
 19 26  1  0  0  0  0
 20 25  1  0  0  0  0
 20 21  2  0  0  0  0
 21 22  1  0  0  0  0
 21 44  1  0  0  0  0
 22 23  2  0  0  0  0
 22 45  1  0  0  0  0
 23 24  1  0  0  0  0
 23 46  1  0  0  0  0
 24 25  2  0  0  0  0
 24 47  1  0  0  0  0
 25 48  1  0  0  0  0
 26 33  1  0  0  0  0
 26 27  1  0  0  0  0
 27 32  1  0  0  0  0
 27 28  2  0  0  0  0
 28 29  1  0  0  0  0
 28 49  1  0  0  0  0
 29 30  2  0  0  0  0
 29 50  1  0  0  0  0
 30 31  1  0  0  0  0
 30 51  1  0  0  0  0
 31 32  2  0  0  0  0
 31 52  1  0  0  0  0
M  END
> <s_m_source_file>
AV-unprocessed.smi

> <i_m_source_file_index>
124

> <i_lp_mmshare_version>
43012

> <i_f3d_flags>
0

> <s_epik_input>
W2NIXTFbY0hdW2NIXVtjSF1bY0hdYzEtYyhbbkhdMiljKGMoYzIzKVtjSF1bY0hdW2NIXVtjSF0zKUMoPU8pW0NIMl1uNGMoPU8pYyhGKVtjSF1uKGM0PU8pW0NAQEhdNVtDSDJdW0NIMl1bQ0gyXU81

> <s_epik_cmdline>
J2VwaWtfcHl0aG9uJywgJy1waCcsICc3LjAnLCAnLXRuJywgJzgnLCAnLW1hJywgJzIwMCcsICctbWV0YWxfYmluZGluZycsICctaW1hZScsICc8aW5maWxlLm1hZT4nLCAnLW9tYWUnLCAnPG91dGZpbGUubWFlPic=

> <r_lp_tautomer_probability>
1

> <r_epik_Ionization_Penalty>
1.43207e-08

> <r_epik_Ionization_Penalty_Charging>
5.01743e-09

> <r_epik_Ionization_Penalty_Neutral>
9.30329e-09

> <r_epik_State_Penalty>
-0

> <r_epik_Charging_Adjusted_Penalty>
5.01743e-09

> <i_epik_Tot_Q>
0

> <i_epik_Tot_abs_Q>
0

> <r_epik_Metal_State_Penalty>
-0

> <b_epik_Metal_Only>
0

> <s_epik_Chemistry_Notes>
This compound contains an acetal/aminal-like group ( X-CH(R)-Y where X, Y are N, S, or O) that may be acid/base labile, releasing an aldehyde.

> <s_lp_Force_Field>
OPLS_2005

> <r_lp_Energy>
48.1056

> <b_lp_Chiralities_Consistent>
1

> <s_lp_Variant>
AV-unprocessed.smi:124-2

> <Gold.Version>
5.8.1

> <Gold.Id.Protein>
6NUR|6NUR_protein|mol2

> <Gold.PLP.Fitness>
53.4274

> <Gold.PLP.PLP>
-46.7782

> <Gold.PLP.part.hbond>
-3.0000

> <Gold.PLP.part.metal>
0.0000

> <Gold.PLP.part.buried>
-1.7659

> <Gold.PLP.part.nonpolar>
-42.9481

> <Gold.PLP.part.repulsive>
1.1151

> <Gold.PLP.ligand.clash>
0.0000

> <Gold.PLP.ligand.torsion>
1.6223

> <Gold.PLP.Chemscore.Hbond>
1.8320

> <Gold.PLP.Chemscore.CHOScore>
1.0000

> <Gold.PLP.Chemscore.Metal>
0.0000

> <Gold.Chemscore.Hbonds>
donor molecule, donor type, donor heavy atom, donor atom, acceptor molecule, acceptor atom, score
      P1  H  7997  8010       L1    17  0.74
      P1  H 10752 10764       L1     1  1.00
      L1  C     9    36       P1  8028  1.00

> <Gold.PLP.Chemscore.Internal.Correction>
1.3978

> <Gold.Rescore>
     Score         DG    S(hbond)    S(metal)    S(lipo)     H(rot)  DE(clash)    DE(int)     intcor
     13.72     -19.19       1.49        0.00     108.65       1.55       0.23       5.24       ----

> <Gold.Chemscore.Fitness>
13.7205

> <Gold.Chemscore.DG>
-19.1911

> <Gold.Chemscore.ZeroCoef>
-5.4800

> <Gold.Chemscore.Hbond>
1.4900

> <Gold.Chemscore.Metal>
0.0000

> <Gold.Chemscore.Lipo>
108.6492

> <Gold.Chemscore.Internal_Hbond>
0.0000

> <Gold.Chemscore.DEClash>
0.2315

> <Gold.Chemscore.DEInternal>
5.2391

> <Gold.Chemscore.Rot>
1.5537

> <Gold.Chemscore.Internal.Correction>
   9.000000E+99

> <Gold.Chemscore.Hbonds>
donor molecule, donor type, donor heavy atom, donor atom, acceptor molecule, acceptor atom, score
      P1  H  7997  8010       L1    17  0.70
      P1  H 10752 10764       L1     1  0.93

> <Gold.Chemscore.Hbond.Weighted>
-4.9765

> <Gold.Chemscore.Metal.Weighted>
-0.0000

> <Gold.Chemscore.Lipo.Weighted>
-12.7120

> <Gold.Chemscore.Internal_Hbond.Weighted>
0.0000

> <Gold.Chemscore.DEClash.Weighted>
0.2315

> <Gold.Chemscore.DEInternal.Weighted>
5.2391

> <Gold.Chemscore.Rot.Weighted>
3.9774

> <Gold.Chemscore.Internal.Correction.Weighted>
   9.000000E+99

> <Gold.Protein.RotatedTorsions>
[ 6907 6896 6895 6894 ] final  -99.63 input  -60.11 | X-H torsion
[ 7974 7965 7964 7962 ] final  152.86 input  175.53 | X-H torsion
[ 8008 7997 7996 7995 ] final   35.84 input   59.86 | X-H torsion
[ 10167 10162 10161 10158 ] final  -49.86 input  -65.29 | X-H torsion
[ 10718 10713 10712 10709 ] final   41.75 input   66.30 | X-H torsion
[ 10763 10752 10751 10750 ] final  -48.59 input  -60.55 | X-H torsion
[ 11005 11000 10999 10996 ] final -179.18 input  -57.11 | X-H torsion

> <Gold.Protein.ActiveResidues>
 VAL166  LYS551  ARG553  GLY616  TRP617  ASP618  TYR619  PRO620  LYS621  CYS622 
 ASP623  PHE694  ASN695  SER759  ASP760  ASP761  ALA762  ILE779  LEU786  VAL792 
 PHE793  MET794  SER795  GLU796  ALA797  LYS798  CYS799  TRP800  GLU811  SER814 

> <Gold.Protein.RotatedAtoms>
  150.7087  134.1011  159.3965 H   0  0  0  0  0  0  0  0  0  0  0  0  # atno 6907 bound_to 6896
  151.8997  135.0381  160.0514 H   0  0  0  0  0  0  0  0  0  0  0  0  # atno 6908 bound_to 6896
  152.2424  133.5111  159.5314 H   0  0  0  0  0  0  0  0  0  0  0  0  # atno 6909 bound_to 6896
  144.8194  139.6723  143.6107 H   0  0  0  0  0  0  0  0  0  0  0  0  # atno 7974 bound_to 7965
  155.1776  140.3297  155.4381 H   0  0  0  0  0  0  0  0  0  0  0  0  # atno 8008 bound_to 7997
  156.2488  140.1932  156.6826 H   0  0  0  0  0  0  0  0  0  0  0  0  # atno 8009 bound_to 7997
  154.6294  140.0584  156.9699 H   0  0  0  0  0  0  0  0  0  0  0  0  # atno 8010 bound_to 7997
  140.6665  143.2681  151.4276 H   0  0  0  0  0  0  0  0  0  0  0  0  # atno 10167 bound_to 10162
  157.3971  130.7839  149.7317 H   0  0  0  0  0  0  0  0  0  0  0  0  # atno 10718 bound_to 10713
  154.0803  135.6592  153.4837 H   0  0  0  0  0  0  0  0  0  0  0  0  # atno 10763 bound_to 10752
  153.0358  135.5178  154.7481 H   0  0  0  0  0  0  0  0  0  0  0  0  # atno 10764 bound_to 10752
  154.6573  135.3010  154.9879 H   0  0  0  0  0  0  0  0  0  0  0  0  # atno 10765 bound_to 10752
  140.4215  134.6602  157.4666 H   0  0  0  0  0  0  0  0  0  0  0  0  # atno 11005 bound_to 11000
  146.2499  139.6176  142.9434 LP  0  0  0  0  0  0  0  0  0  0  0  0  # atno 17320 bound_to 7965
  145.5140  141.0434  143.2472 LP  0  0  0  0  0  0  0  0  0  0  0  0  # atno 17321 bound_to 7965
  139.5916  144.1487  152.2095 LP  0  0  0  0  0  0  0  0  0  0  0  0  # atno 17342 bound_to 10162
  140.0843  144.5674  150.7100 LP  0  0  0  0  0  0  0  0  0  0  0  0  # atno 17343 bound_to 10162
  155.9813  130.4020  150.3479 LP  0  0  0  0  0  0  0  0  0  0  0  0  # atno 17370 bound_to 10713
  157.1602  131.0343  151.2844 LP  0  0  0  0  0  0  0  0  0  0  0  0  # atno 17371 bound_to 10713
  140.0197  134.6565  155.9257 LP  0  0  0  0  0  0  0  0  0  0  0  0  # atno 17394 bound_to 11000
  141.1782  133.6543  156.4913 LP  0  0  0  0  0  0  0  0  0  0  0  0  # atno 17395 bound_to 11000

$$$$
