AV-unprocessed.smi:1749|AV-procd|sdf|7048|dock4
  -GOLD-   22720 8263D 1   1.00000     0.00000
 Structure written by MMmdl.
 31 32  0  0  0  0  0  0  0  0  2 V2000
  151.9473  145.3329  159.3555 C   0  0  0  0  0  0  0  0  0  0  0  0
  152.1446  143.8876  159.8341 C   0  0  2  0  0  0  0  0  0  0  0  0
  152.2279  143.8092  161.3706 C   0  0  0  0  0  0  0  0  0  0  0  0
  152.4311  142.3641  161.8526 C   0  0  0  0  0  0  0  0  0  0  0  0
  153.6755  141.7296  161.2084 C   0  0  0  0  0  0  0  0  0  0  0  0
  153.6279  141.7993  159.6678 C   0  0  1  0  0  0  0  0  0  0  0  0
  152.5863  140.9255  159.1319 N   0  0  0  0  0  0  0  0  0  0  0  0
  152.7631  139.7875  158.4332 C   0  0  0  0  0  0  0  0  0  0  0  0
  153.9079  139.4130  158.1821 O   0  0  0  0  0  0  0  0  0  0  0  0
  151.6524  139.1081  158.0426 N   0  5  0  0  0  0  0  0  0  0  0  0
  151.5785  138.4622  156.8636 C   0  0  0  0  0  0  0  0  0  0  0  0
  151.5582  137.1221  156.7763 N   0  0  0  0  0  0  0  0  0  0  0  0
  151.4642  136.6617  155.4702 N   0  0  0  0  0  0  0  0  0  0  0  0
  151.4277  137.6711  154.6006 C   0  0  0  0  0  0  0  0  0  0  0  0
  151.5041  139.2754  155.2980 S   0  0  0  0  0  0  0  0  0  0  0  0
  153.3937  143.2470  159.1917 C   0  0  0  0  0  0  0  0  0  0  0  0
  152.7889  145.9643  159.6420 H   0  0  0  0  0  0  0  0  0  0  0  0
  151.0435  145.7679  159.7827 H   0  0  0  0  0  0  0  0  0  0  0  0
  151.8522  145.3765  158.2702 H   0  0  0  0  0  0  0  0  0  0  0  0
  151.2686  143.3199  159.5166 H   0  0  0  0  0  0  0  0  0  0  0  0
  153.0515  144.4294  161.7275 H   0  0  0  0  0  0  0  0  0  0  0  0
  151.3195  144.2172  161.8150 H   0  0  0  0  0  0  0  0  0  0  0  0
  152.5265  142.3454  162.9385 H   0  0  0  0  0  0  0  0  0  0  0  0
  151.5483  141.7699  161.6125 H   0  0  0  0  0  0  0  0  0  0  0  0
  154.5649  142.2527  161.5615 H   0  0  0  0  0  0  0  0  0  0  0  0
  153.7825  140.6963  161.5409 H   0  0  0  0  0  0  0  0  0  0  0  0
  154.5895  141.4691  159.2711 H   0  0  0  0  0  0  0  0  0  0  0  0
  151.6338  141.1992  159.3236 H   0  0  0  0  0  0  0  0  0  0  0  0
  151.3581  137.4697  153.5419 H   0  0  0  0  0  0  0  0  0  0  0  0
  153.3085  143.2685  158.1042 H   0  0  0  0  0  0  0  0  0  0  0  0
  154.2715  143.8465  159.4373 H   0  0  0  0  0  0  0  0  0  0  0  0
  1  2  1  0  0  0  0
  1 17  1  0  0  0  0
  1 18  1  0  0  0  0
  1 19  1  0  0  0  0
  2 16  1  0  0  0  0
  2  3  1  0  0  0  0
  2 20  1  0  0  0  0
  3  4  1  0  0  0  0
  3 21  1  0  0  0  0
  3 22  1  0  0  0  0
  4  5  1  0  0  0  0
  4 23  1  0  0  0  0
  4 24  1  0  0  0  0
  5  6  1  0  0  0  0
  5 25  1  0  0  0  0
  5 26  1  0  0  0  0
  6  7  1  0  0  0  0
  6 16  1  0  0  0  0
  6 27  1  0  0  0  0
  7  8  1  0  0  0  0
  7 28  1  0  0  0  0
  8  9  2  0  0  0  0
  8 10  1  0  0  0  0
 10 11  1  0  0  0  0
 11 15  1  0  0  0  0
 11 12  2  0  0  0  0
 12 13  1  0  0  0  0
 13 14  2  0  0  0  0
 14 15  1  0  0  0  0
 14 29  1  0  0  0  0
 16 30  1  0  0  0  0
 16 31  1  0  0  0  0
M  CHG  1  10  -1
M  END
> <s_m_source_file>
AV-unprocessed.smi

> <i_m_source_file_index>
1749

> <i_lp_mmshare_version>
43012

> <i_f3d_flags>
0

> <s_epik_input>
W0NIM11bQ0BASF0xW0NIMl1bQ0gyXVtDSDJdW0NASF0oW0NIMl0xKVtOSF1DKD1PKVtOSF1jMm5uW2NIXXMy

> <s_epik_cmdline>
J2VwaWtfcHl0aG9uJywgJy1waCcsICc3LjAnLCAnLXRuJywgJzgnLCAnLW1hJywgJzIwMCcsICctbWV0YWxfYmluZGluZycsICctaW1hZScsICc8aW5maWxlLm1hZT4nLCAnLW9tYWUnLCAnPG91dGZpbGUubWFlPic=

> <r_lp_tautomer_probability>
1

> <r_epik_Ionization_Penalty>
4.55442

> <r_epik_Ionization_Penalty_Charging>
4.5081

> <r_epik_Ionization_Penalty_Neutral>
0.0463156

> <r_epik_State_Penalty>
4.50781

> <r_epik_Charging_Adjusted_Penalty>
9.01591

> <i_epik_Tot_Q>
-1

> <i_epik_Tot_abs_Q>
1

> <r_epik_Metal_State_Penalty>
0.823335

> <b_epik_Metal_Only>
1

> <s_lp_Force_Field>
OPLS_2005

> <r_lp_Energy>
7.79414

> <b_lp_Chiralities_Consistent>
1

> <s_lp_Variant>
AV-unprocessed.smi:1749-5

> <Gold.Version>
5.8.1

> <Gold.Id.Protein>
6NUR|6NUR_protein|mol2

> <Gold.PLP.Fitness>
44.0060

> <Gold.PLP.PLP>
-37.0565

> <Gold.PLP.part.hbond>
-1.7945

> <Gold.PLP.part.metal>
0.0000

> <Gold.PLP.part.buried>
-3.9692

> <Gold.PLP.part.nonpolar>
-32.3726

> <Gold.PLP.part.repulsive>
0.1904

> <Gold.PLP.ligand.clash>
0.0000

> <Gold.PLP.ligand.torsion>
0.9911

> <Gold.PLP.Chemscore.Hbond>
2.0000

> <Gold.PLP.Chemscore.CHOScore>
0.9745

> <Gold.PLP.Chemscore.Metal>
0.0000

> <Gold.Chemscore.Hbonds>
donor molecule, donor type, donor heavy atom, donor atom, acceptor molecule, acceptor atom, score
      P1  H  7997  8009       L1     9  0.98
      P1  H 10752 10764       L1    13  1.00
      L1  C    14    29       P1  7949  0.99

> <Gold.PLP.Chemscore.Internal.Correction>
0.0082

> <Gold.Rescore>
     Score         DG    S(hbond)    S(metal)    S(lipo)     H(rot)  DE(clash)    DE(int)     intcor
     19.37     -20.47       1.86        0.00      96.83       1.00       0.05       1.05       ----

> <Gold.Chemscore.Fitness>
19.3740

> <Gold.Chemscore.DG>
-20.4706

> <Gold.Chemscore.ZeroCoef>
-5.4800

> <Gold.Chemscore.Hbond>
1.8628

> <Gold.Chemscore.Metal>
0.0000

> <Gold.Chemscore.Lipo>
96.8277

> <Gold.Chemscore.Internal_Hbond>
0.0000

> <Gold.Chemscore.DEClash>
0.0456

> <Gold.Chemscore.DEInternal>
1.0510

> <Gold.Chemscore.Rot>
1.0000

> <Gold.Chemscore.Internal.Correction>
   9.000000E+99

> <Gold.Chemscore.Hbonds>
donor molecule, donor type, donor heavy atom, donor atom, acceptor molecule, acceptor atom, score
      P1  H  7997  8009       L1     9  0.80
      P1  H 10752 10764       L1    13  0.39

> <Gold.Chemscore.Hbond.Weighted>
-6.2218

> <Gold.Chemscore.Metal.Weighted>
-0.0000

> <Gold.Chemscore.Lipo.Weighted>
-11.3288

> <Gold.Chemscore.Internal_Hbond.Weighted>
0.0000

> <Gold.Chemscore.DEClash.Weighted>
0.0456

> <Gold.Chemscore.DEInternal.Weighted>
1.0510

> <Gold.Chemscore.Rot.Weighted>
2.5600

> <Gold.Chemscore.Internal.Correction.Weighted>
   9.000000E+99

> <Gold.Protein.RotatedTorsions>
[ 6907 6896 6895 6894 ] final  129.22 input  -60.11 | X-H torsion
[ 7974 7965 7964 7962 ] final  -25.96 input  175.53 | X-H torsion
[ 8008 7997 7996 7995 ] final  161.88 input   59.86 | X-H torsion
[ 10167 10162 10161 10158 ] final  -37.75 input  -65.29 | X-H torsion
[ 10718 10713 10712 10709 ] final  -77.35 input   66.30 | X-H torsion
[ 10763 10752 10751 10750 ] final  -44.01 input  -60.55 | X-H torsion
[ 11005 11000 10999 10996 ] final  -85.84 input  -57.11 | X-H torsion

> <Gold.Protein.ActiveResidues>
 VAL166  LYS551  ARG553  GLY616  TRP617  ASP618  TYR619  PRO620  LYS621  CYS622 
 ASP623  PHE694  ASN695  SER759  ASP760  ASP761  ALA762  ILE779  LEU786  VAL792 
 PHE793  MET794  SER795  GLU796  ALA797  LYS798  CYS799  TRP800  GLU811  SER814 

> <Gold.Protein.RotatedAtoms>
  152.3645  133.6339  159.6039 H   0  0  0  0  0  0  0  0  0  0  0  0  # atno 6907 bound_to 6896
  150.7624  133.9370  159.3453 H   0  0  0  0  0  0  0  0  0  0  0  0  # atno 6908 bound_to 6896
  151.7203  135.0896  160.0334 H   0  0  0  0  0  0  0  0  0  0  0  0  # atno 6909 bound_to 6896
  146.1457  140.4956  142.8633 H   0  0  0  0  0  0  0  0  0  0  0  0  # atno 7974 bound_to 7965
  156.2072  140.1765  156.7774 H   0  0  0  0  0  0  0  0  0  0  0  0  # atno 8008 bound_to 7997
  154.5671  140.0689  156.8938 H   0  0  0  0  0  0  0  0  0  0  0  0  # atno 8009 bound_to 7997
  155.2740  140.3344  155.4265 H   0  0  0  0  0  0  0  0  0  0  0  0  # atno 8010 bound_to 7997
  140.7110  143.3321  151.2545 H   0  0  0  0  0  0  0  0  0  0  0  0  # atno 10167 bound_to 10162
  156.0148  130.4489  150.3331 H   0  0  0  0  0  0  0  0  0  0  0  0  # atno 10718 bound_to 10713
  154.0050  135.6689  153.4761 H   0  0  0  0  0  0  0  0  0  0  0  0  # atno 10763 bound_to 10752
  153.0646  135.5008  154.8166 H   0  0  0  0  0  0  0  0  0  0  0  0  # atno 10764 bound_to 10752
  154.7030  135.3082  154.9276 H   0  0  0  0  0  0  0  0  0  0  0  0  # atno 10765 bound_to 10752
  141.1637  133.7421  156.9074 H   0  0  0  0  0  0  0  0  0  0  0  0  # atno 11005 bound_to 11000
  144.7844  140.5905  143.6584 LP  0  0  0  0  0  0  0  0  0  0  0  0  # atno 17320 bound_to 7965
  145.4943  139.1487  143.3692 LP  0  0  0  0  0  0  0  0  0  0  0  0  # atno 17321 bound_to 7965
  139.6806  143.9861  152.2806 LP  0  0  0  0  0  0  0  0  0  0  0  0  # atno 17342 bound_to 10162
  139.9489  144.6633  150.8191 LP  0  0  0  0  0  0  0  0  0  0  0  0  # atno 17343 bound_to 10162
  157.1428  131.0301  151.2920 LP  0  0  0  0  0  0  0  0  0  0  0  0  # atno 17370 bound_to 10713
  157.4457  130.7569  149.7107 LP  0  0  0  0  0  0  0  0  0  0  0  0  # atno 17371 bound_to 10713
  140.1540  134.9210  157.2630 LP  0  0  0  0  0  0  0  0  0  0  0  0  # atno 17394 bound_to 11000
  140.2689  134.3484  155.7380 LP  0  0  0  0  0  0  0  0  0  0  0  0  # atno 17395 bound_to 11000

$$$$
