AV-unprocessed.smi:874|AV-procd|sdf|4017|dock2
  -GOLD-   22720 1503D 1   1.00000     0.00000
 Structure written by MMmdl.
 39 41  0  0  0  0  0  0  0  0  1 V2000
  153.5965  140.2086  160.0425 C   0  0  0  0  0  0  0  0  0  0  0  0
  152.7946  141.1709  159.2964 N   0  0  0  0  0  0  0  0  0  0  0  0
  152.3480  141.0486  158.0249 C   0  0  0  0  0  0  0  0  0  0  0  0
  152.5536  140.0939  157.2754 O   0  0  0  0  0  0  0  0  0  0  0  0
  151.6365  142.1612  157.7189 N   0  0  0  0  0  0  0  0  0  0  0  0
  150.9813  142.4605  156.4421 C   0  0  0  0  0  0  0  0  0  0  0  0
  150.1630  141.2828  155.8436 C   0  0  0  0  0  0  0  0  0  0  0  0
  151.0912  140.3854  155.2624 O   0  0  0  0  0  0  0  0  0  0  0  0
  149.4579  140.5179  156.9906 C   0  0  0  0  0  0  0  0  0  0  0  0
  148.5662  139.3650  156.4957 C   0  0  0  0  0  0  0  0  0  0  0  0
  147.5397  139.8588  155.4678 C   0  0  0  0  0  0  0  0  0  0  0  0
  148.2374  140.5532  154.2907 C   0  0  0  0  0  0  0  0  0  0  0  0
  149.1312  141.7117  154.7684 C   0  0  0  0  0  0  0  0  0  0  0  0
  151.6556  143.0312  158.8201 C   0  0  0  0  0  0  0  0  0  0  0  0
  151.0986  144.3092  159.0035 C   0  0  0  0  0  0  0  0  0  0  0  0
  151.3037  144.9317  160.2570 C   0  0  0  0  0  0  0  0  0  0  0  0
  152.0460  144.2832  161.2781 C   0  0  0  0  0  0  0  0  0  0  0  0
  152.6000  142.9991  161.0664 C   0  0  0  0  0  0  0  0  0  0  0  0
  152.3799  142.4044  159.8122 C   0  0  0  0  0  0  0  0  0  0  0  0
  153.7360  139.2768  159.4929 H   0  0  0  0  0  0  0  0  0  0  0  0
  153.1132  139.9690  160.9900 H   0  0  0  0  0  0  0  0  0  0  0  0
  154.5809  140.6256  160.2563 H   0  0  0  0  0  0  0  0  0  0  0  0
  150.3542  143.3465  156.5515 H   0  0  0  0  0  0  0  0  0  0  0  0
  151.7577  142.7519  155.7327 H   0  0  0  0  0  0  0  0  0  0  0  0
  151.4303  139.8247  155.9434 H   0  0  0  0  0  0  0  0  0  0  0  0
  150.1947  140.1337  157.6976 H   0  0  0  0  0  0  0  0  0  0  0  0
  148.8354  141.2130  157.5559 H   0  0  0  0  0  0  0  0  0  0  0  0
  149.1824  138.5819  156.0524 H   0  0  0  0  0  0  0  0  0  0  0  0
  148.0521  138.9071  157.3410 H   0  0  0  0  0  0  0  0  0  0  0  0
  146.9423  139.0214  155.1061 H   0  0  0  0  0  0  0  0  0  0  0  0
  146.8457  140.5523  155.9447 H   0  0  0  0  0  0  0  0  0  0  0  0
  148.8363  139.8268  153.7401 H   0  0  0  0  0  0  0  0  0  0  0  0
  147.4921  140.9287  153.5890 H   0  0  0  0  0  0  0  0  0  0  0  0
  148.4934  142.4961  155.1776 H   0  0  0  0  0  0  0  0  0  0  0  0
  149.6348  142.1461  153.9042 H   0  0  0  0  0  0  0  0  0  0  0  0
  150.5362  144.8005  158.2236 H   0  0  0  0  0  0  0  0  0  0  0  0
  150.8905  145.9130  160.4386 H   0  0  0  0  0  0  0  0  0  0  0  0
  152.1916  144.7772  162.2276 H   0  0  0  0  0  0  0  0  0  0  0  0
  153.1696  142.5002  161.8366 H   0  0  0  0  0  0  0  0  0  0  0  0
  1  2  1  0  0  0  0
  1 20  1  0  0  0  0
  1 21  1  0  0  0  0
  1 22  1  0  0  0  0
  2 19  1  0  0  0  0
  2  3  1  0  0  0  0
  3  4  2  0  0  0  0
  3  5  1  0  0  0  0
  5  6  1  0  0  0  0
  5 14  1  0  0  0  0
  6  7  1  0  0  0  0
  6 23  1  0  0  0  0
  6 24  1  0  0  0  0
  7 13  1  0  0  0  0
  7  8  1  0  0  0  0
  7  9  1  0  0  0  0
  8 25  1  0  0  0  0
  9 10  1  0  0  0  0
  9 26  1  0  0  0  0
  9 27  1  0  0  0  0
 10 11  1  0  0  0  0
 10 28  1  0  0  0  0
 10 29  1  0  0  0  0
 11 12  1  0  0  0  0
 11 30  1  0  0  0  0
 11 31  1  0  0  0  0
 12 13  1  0  0  0  0
 12 32  1  0  0  0  0
 12 33  1  0  0  0  0
 13 34  1  0  0  0  0
 13 35  1  0  0  0  0
 14 19  2  0  0  0  0
 14 15  1  0  0  0  0
 15 16  2  0  0  0  0
 15 36  1  0  0  0  0
 16 17  1  0  0  0  0
 16 37  1  0  0  0  0
 17 18  2  0  0  0  0
 17 38  1  0  0  0  0
 18 19  1  0  0  0  0
 18 39  1  0  0  0  0
M  END
> <s_m_source_file>
AV-unprocessed.smi

> <i_m_source_file_index>
874

> <i_lp_mmshare_version>
43012

> <i_f3d_flags>
0

> <s_epik_input>
W2NIXTFbY0hdW2NIXVtjSF1jKGMxMiluKFtDSDNdKWMoPU8pbjJbQ0gyXUMzKFtPSF0pW0NIMl1bQ0gyXVtDSDJdW0NIMl1bQ0gyXTM=

> <s_epik_cmdline>
J2VwaWtfcHl0aG9uJywgJy1waCcsICc3LjAnLCAnLXRuJywgJzgnLCAnLW1hJywgJzIwMCcsICctbWV0YWxfYmluZGluZycsICctaW1hZScsICc8aW5maWxlLm1hZT4nLCAnLW9tYWUnLCAnPG91dGZpbGUubWFlPic=

> <r_lp_tautomer_probability>
1

> <r_epik_Ionization_Penalty>
4.84563e-08

> <r_epik_Ionization_Penalty_Charging>
4.2068e-09

> <r_epik_Ionization_Penalty_Neutral>
4.42495e-08

> <r_epik_State_Penalty>
-0

> <r_epik_Charging_Adjusted_Penalty>
4.2068e-09

> <i_epik_Tot_Q>
0

> <i_epik_Tot_abs_Q>
0

> <r_epik_Metal_State_Penalty>
-0

> <b_epik_Metal_Only>
0

> <s_lp_Force_Field>
OPLS_2005

> <r_lp_Energy>
48.1274

> <b_lp_Chiralities_Consistent>
1

> <s_lp_Variant>
AV-unprocessed.smi:874-1

> <Gold.Version>
5.8.1

> <Gold.Id.Protein>
6NUR|6NUR_protein|mol2

> <Gold.PLP.Fitness>
46.7320

> <Gold.PLP.PLP>
-41.6152

> <Gold.PLP.part.hbond>
-2.0000

> <Gold.PLP.part.metal>
0.0000

> <Gold.PLP.part.buried>
-5.1360

> <Gold.PLP.part.nonpolar>
-33.2044

> <Gold.PLP.part.repulsive>
0.0000

> <Gold.PLP.ligand.clash>
0.0000

> <Gold.PLP.ligand.torsion>
0.4616

> <Gold.PLP.Chemscore.Hbond>
2.0000

> <Gold.PLP.Chemscore.CHOScore>
0.0000

> <Gold.PLP.Chemscore.Metal>
0.0000

> <Gold.Chemscore.Hbonds>
donor molecule, donor type, donor heavy atom, donor atom, acceptor molecule, acceptor atom, score
      P1  H  7989  7998       L1     8  1.00
      P1  H  7997  8010       L1     4  1.00

> <Gold.PLP.Chemscore.Internal.Correction>
0.0401

> <Gold.Rescore>
     Score         DG    S(hbond)    S(metal)    S(lipo)     H(rot)  DE(clash)    DE(int)     intcor
     19.40     -20.66       1.77        0.00     113.61       1.58       0.81       0.45       ----

> <Gold.Chemscore.Fitness>
19.3956

> <Gold.Chemscore.DG>
-20.6617

> <Gold.Chemscore.ZeroCoef>
-5.4800

> <Gold.Chemscore.Hbond>
1.7735

> <Gold.Chemscore.Metal>
0.0000

> <Gold.Chemscore.Lipo>
113.6061

> <Gold.Chemscore.Internal_Hbond>
0.0000

> <Gold.Chemscore.DEClash>
0.8143

> <Gold.Chemscore.DEInternal>
0.4517

> <Gold.Chemscore.Rot>
1.5757

> <Gold.Chemscore.Internal.Correction>
   9.000000E+99

> <Gold.Chemscore.Hbonds>
donor molecule, donor type, donor heavy atom, donor atom, acceptor molecule, acceptor atom, score
      P1  H  7989  7998       L1     8  0.84
      P1  H  7997  8010       L1     4  0.79

> <Gold.Chemscore.Hbond.Weighted>
-5.9236

> <Gold.Chemscore.Metal.Weighted>
-0.0000

> <Gold.Chemscore.Lipo.Weighted>
-13.2919

> <Gold.Chemscore.Internal_Hbond.Weighted>
0.0000

> <Gold.Chemscore.DEClash.Weighted>
0.8143

> <Gold.Chemscore.DEInternal.Weighted>
0.4517

> <Gold.Chemscore.Rot.Weighted>
4.0338

> <Gold.Chemscore.Internal.Correction.Weighted>
   9.000000E+99

> <Gold.Protein.RotatedTorsions>
[ 6907 6896 6895 6894 ] final  -72.51 input  -60.11 | X-H torsion
[ 7974 7965 7964 7962 ] final -163.06 input  175.53 | X-H torsion
[ 8008 7997 7996 7995 ] final   65.21 input   59.86 | X-H torsion
[ 10167 10162 10161 10158 ] final  -15.97 input  -65.29 | X-H torsion
[ 10718 10713 10712 10709 ] final -104.40 input   66.30 | X-H torsion
[ 10763 10752 10751 10750 ] final   56.81 input  -60.55 | X-H torsion
[ 11005 11000 10999 10996 ] final   49.82 input  -57.11 | X-H torsion

> <Gold.Protein.ActiveResidues>
 VAL166  LYS551  ARG553  GLY616  TRP617  ASP618  TYR619  PRO620  LYS621  CYS622 
 ASP623  PHE694  ASN695  SER759  ASP760  ASP761  ALA762  ILE779  LEU786  VAL792 
 PHE793  MET794  SER795  GLU796  ALA797  LYS798  CYS799  TRP800  GLU811  SER814 

> <Gold.Protein.RotatedAtoms>
  150.7167  134.5152  159.5626 H   0  0  0  0  0  0  0  0  0  0  0  0  # atno 6907 bound_to 6896
  152.2720  134.7920  160.0421 H   0  0  0  0  0  0  0  0  0  0  0  0  # atno 6908 bound_to 6896
  151.8596  133.3419  159.3736 H   0  0  0  0  0  0  0  0  0  0  0  0  # atno 6909 bound_to 6896
  144.7337  140.3162  143.6179 H   0  0  0  0  0  0  0  0  0  0  0  0  # atno 7974 bound_to 7965
  155.6582  140.3497  155.4773 H   0  0  0  0  0  0  0  0  0  0  0  0  # atno 8008 bound_to 7997
  155.9791  140.1171  157.0766 H   0  0  0  0  0  0  0  0  0  0  0  0  # atno 8009 bound_to 7997
  154.4186  140.1142  156.5397 H   0  0  0  0  0  0  0  0  0  0  0  0  # atno 8010 bound_to 7997
  140.7226  143.5164  150.9687 H   0  0  0  0  0  0  0  0  0  0  0  0  # atno 10167 bound_to 10162
  156.0303  130.5513  150.7390 H   0  0  0  0  0  0  0  0  0  0  0  0  # atno 10718 bound_to 10713
  152.9838  135.5663  154.5289 H   0  0  0  0  0  0  0  0  0  0  0  0  # atno 10763 bound_to 10752
  154.4764  135.2787  155.1606 H   0  0  0  0  0  0  0  0  0  0  0  0  # atno 10764 bound_to 10752
  154.3133  135.6284  153.5528 H   0  0  0  0  0  0  0  0  0  0  0  0  # atno 10765 bound_to 10752
  140.1070  134.5005  155.8711 H   0  0  0  0  0  0  0  0  0  0  0  0  # atno 11005 bound_to 11000
  145.7615  139.1826  143.2264 LP  0  0  0  0  0  0  0  0  0  0  0  0  # atno 17320 bound_to 7965
  146.0983  140.7575  142.9562 LP  0  0  0  0  0  0  0  0  0  0  0  0  # atno 17321 bound_to 7965
  139.8880  143.6989  152.3149 LP  0  0  0  0  0  0  0  0  0  0  0  0  # atno 17342 bound_to 10162
  139.7295  144.7585  151.0825 LP  0  0  0  0  0  0  0  0  0  0  0  0  # atno 17343 bound_to 10162
  157.4964  131.0915  151.0367 LP  0  0  0  0  0  0  0  0  0  0  0  0  # atno 17370 bound_to 10713
  157.0759  130.5883  149.5411 LP  0  0  0  0  0  0  0  0  0  0  0  0  # atno 17371 bound_to 10713
  141.2121  133.6714  156.6631 LP  0  0  0  0  0  0  0  0  0  0  0  0  # atno 17394 bound_to 11000
  140.3142  134.8061  157.4201 LP  0  0  0  0  0  0  0  0  0  0  0  0  # atno 17395 bound_to 11000

$$$$
