AV-unprocessed.smi:3181|AV-procd|sdf|12145|dock4
  -GOLD-   2272017583D 1   1.00000     0.00000
 Structure written by MMmdl.
 42 43  0  0  0  0  0  0  0  0  2 V2000
  149.7233  140.2349  154.6306 C   0  0  0  0  0  0  0  0  0  0  0  0
  149.6520  138.8073  154.0615 C   0  0  2  0  0  0  0  0  0  0  0  0
  151.0309  138.2674  153.6302 C   0  0  0  0  0  0  0  0  0  0  0  0
  152.0279  138.3495  154.6823 N   0  0  0  0  0  0  0  0  0  0  0  0
  152.5193  139.4049  155.3337 C   0  0  0  0  0  0  0  0  0  0  0  0
  153.4370  139.0949  156.2387 N   0  0  0  0  0  0  0  0  0  0  0  0
  153.4706  137.7387  156.0756 C   0  0  0  0  0  0  0  0  0  0  0  0
  152.6475  137.2412  155.1520 N   0  0  0  0  0  0  0  0  0  0  0  0
  148.7232  138.7705  152.9090 N   0  3  0  0  0  0  0  0  0  0  0  0
  147.3244  139.1762  153.1856 C   0  0  1  0  0  0  0  0  0  0  0  0
  146.4757  139.2790  151.9032 C   0  0  0  0  0  0  0  0  0  0  0  0
  146.2030  137.9003  151.2835 C   0  0  0  0  0  0  0  0  0  0  0  0
  145.5314  136.9376  152.2829 C   0  0  1  0  0  0  0  0  0  0  0  0
  145.2665  135.5829  151.6020 C   0  0  0  0  0  0  0  0  0  0  0  0
  146.3792  136.8110  153.5763 C   0  0  2  0  0  0  0  0  0  0  0  0
  145.7210  135.9101  154.6369 C   0  0  0  0  0  0  0  0  0  0  0  0
  146.6681  138.2032  154.1820 C   0  0  0  0  0  0  0  0  0  0  0  0
  150.3399  140.2778  155.5288 H   0  0  0  0  0  0  0  0  0  0  0  0
  148.7337  140.6016  154.9037 H   0  0  0  0  0  0  0  0  0  0  0  0
  150.1459  140.9302  153.9046 H   0  0  0  0  0  0  0  0  0  0  0  0
  149.2721  138.1539  154.8488 H   0  0  0  0  0  0  0  0  0  0  0  0
  150.9492  137.2241  153.3215 H   0  0  0  0  0  0  0  0  0  0  0  0
  151.4000  138.8210  152.7654 H   0  0  0  0  0  0  0  0  0  0  0  0
  152.1981  140.4191  155.1457 H   0  0  0  0  0  0  0  0  0  0  0  0
  154.1215  137.0995  156.6538 H   0  0  0  0  0  0  0  0  0  0  0  0
  149.0915  139.3530  152.1706 H   0  0  0  0  0  0  0  0  0  0  0  0
  147.3622  140.1569  153.6625 H   0  0  0  0  0  0  0  0  0  0  0  0
  145.5218  139.7486  152.1471 H   0  0  0  0  0  0  0  0  0  0  0  0
  146.9474  139.9326  151.1697 H   0  0  0  0  0  0  0  0  0  0  0  0
  145.5685  138.0235  150.4051 H   0  0  0  0  0  0  0  0  0  0  0  0
  147.1375  137.4675  150.9244 H   0  0  0  0  0  0  0  0  0  0  0  0
  144.5633  137.3627  152.5524 H   0  0  0  0  0  0  0  0  0  0  0  0
  146.1977  135.0659  151.3683 H   0  0  0  0  0  0  0  0  0  0  0  0
  144.7192  135.7158  150.6684 H   0  0  0  0  0  0  0  0  0  0  0  0
  144.6641  134.9252  152.2277 H   0  0  0  0  0  0  0  0  0  0  0  0
  147.3344  136.3548  153.3123 H   0  0  0  0  0  0  0  0  0  0  0  0
  144.7234  136.2659  154.8967 H   0  0  0  0  0  0  0  0  0  0  0  0
  146.3122  135.8871  155.5525 H   0  0  0  0  0  0  0  0  0  0  0  0
  145.6315  134.8797  154.2947 H   0  0  0  0  0  0  0  0  0  0  0  0
  147.2983  138.1039  155.0669 H   0  0  0  0  0  0  0  0  0  0  0  0
  145.7307  138.6389  154.5312 H   0  0  0  0  0  0  0  0  0  0  0  0
  148.6991  137.8174  152.5757 H   0  0  0  0  0  0  0  0  0  0  0  0
  1  2  1  0  0  0  0
  1 18  1  0  0  0  0
  1 19  1  0  0  0  0
  1 20  1  0  0  0  0
  2  3  1  0  0  0  0
  2  9  1  0  0  0  0
  2 21  1  0  0  0  0
  3  4  1  0  0  0  0
  3 22  1  0  0  0  0
  3 23  1  0  0  0  0
  4  8  1  0  0  0  0
  4  5  1  0  0  0  0
  5  6  2  0  0  0  0
  5 24  1  0  0  0  0
  6  7  1  0  0  0  0
  7  8  2  0  0  0  0
  7 25  1  0  0  0  0
  9 10  1  0  0  0  0
  9 26  1  0  0  0  0
  9 42  1  0  0  0  0
 10 17  1  0  0  0  0
 10 11  1  0  0  0  0
 10 27  1  0  0  0  0
 11 12  1  0  0  0  0
 11 28  1  0  0  0  0
 11 29  1  0  0  0  0
 12 13  1  0  0  0  0
 12 30  1  0  0  0  0
 12 31  1  0  0  0  0
 13 14  1  0  0  0  0
 13 15  1  0  0  0  0
 13 32  1  0  0  0  0
 14 33  1  0  0  0  0
 14 34  1  0  0  0  0
 14 35  1  0  0  0  0
 15 16  1  0  0  0  0
 15 17  1  0  0  0  0
 15 36  1  0  0  0  0
 16 37  1  0  0  0  0
 16 38  1  0  0  0  0
 16 39  1  0  0  0  0
 17 40  1  0  0  0  0
 17 41  1  0  0  0  0
M  CHG  1   9   1
M  END
> <s_m_source_file>
AV-unprocessed.smi

> <i_m_source_file_index>
3181

> <i_lp_mmshare_version>
43012

> <i_f3d_flags>
0

> <s_epik_input>
bjFbY0hdbltjSF1uMVtDSDJdW0NAQEhdKFtDSDNdKVtOSF1bQ0BASF0yW0NIMl1bQ0gyXVtDQEBIXShbQ0gzXSlbQ0BASF0oW0NIM10pW0NIMl0y

> <s_epik_cmdline>
J2VwaWtfcHl0aG9uJywgJy1waCcsICc3LjAnLCAnLXRuJywgJzgnLCAnLW1hJywgJzIwMCcsICctbWV0YWxfYmluZGluZycsICctaW1hZScsICc8aW5maWxlLm1hZT4nLCAnLW9tYWUnLCAnPG91dGZpbGUubWFlPic=

> <r_lp_tautomer_probability>
1

> <r_epik_Ionization_Penalty>
0.000617007

> <r_epik_Ionization_Penalty_Charging>
0.000616215

> <r_epik_Ionization_Penalty_Neutral>
7.92544e-07

> <r_epik_State_Penalty>
0.000388807

> <r_epik_Charging_Adjusted_Penalty>
0.00100502

> <i_epik_Tot_Q>
1

> <i_epik_Tot_abs_Q>
1

> <r_epik_Metal_State_Penalty>
-0

> <b_epik_Metal_Only>
0

> <s_lp_Force_Field>
OPLS_2005

> <r_lp_Energy>
23.0816

> <b_lp_Chiralities_Consistent>
1

> <s_lp_Variant>
AV-unprocessed.smi:3181-11

> <Gold.Version>
5.8.1

> <Gold.Id.Protein>
6NUR|6NUR_protein|mol2

> <Gold.PLP.Fitness>
44.4006

> <Gold.PLP.PLP>
-29.8579

> <Gold.PLP.part.hbond>
-4.0000

> <Gold.PLP.part.metal>
0.0000

> <Gold.PLP.part.buried>
0.5625

> <Gold.PLP.part.nonpolar>
-28.2764

> <Gold.PLP.part.repulsive>
0.0932

> <Gold.PLP.ligand.clash>
0.0000

> <Gold.PLP.ligand.torsion>
0.0347

> <Gold.PLP.Chemscore.Hbond>
4.8640

> <Gold.PLP.Chemscore.CHOScore>
0.0000

> <Gold.PLP.Chemscore.Metal>
0.0000

> <Gold.Chemscore.Hbonds>
donor molecule, donor type, donor heavy atom, donor atom, acceptor molecule, acceptor atom, score
      L1  H     9    26       P1  7957  0.47
      L1  H     9    42       P1  7948  2.00
      P1  H  7997  8010       L1     6  0.61
      P1  H 10752 10764       L1     8  0.46

> <Gold.PLP.Chemscore.Internal.Correction>
0.0202

> <Gold.Rescore>
     Score         DG    S(hbond)    S(metal)    S(lipo)     H(rot)  DE(clash)    DE(int)     intcor
     16.96     -18.60       3.56        0.00      56.80       2.11       0.52       1.12       ----

> <Gold.Chemscore.Fitness>
16.9623

> <Gold.Chemscore.DG>
-18.6035

> <Gold.Chemscore.ZeroCoef>
-5.4800

> <Gold.Chemscore.Hbond>
3.5564

> <Gold.Chemscore.Metal>
0.0000

> <Gold.Chemscore.Lipo>
56.7995

> <Gold.Chemscore.Internal_Hbond>
0.0000

> <Gold.Chemscore.DEClash>
0.5207

> <Gold.Chemscore.DEInternal>
1.1206

> <Gold.Chemscore.Rot>
2.1095

> <Gold.Chemscore.Internal.Correction>
   9.000000E+99

> <Gold.Chemscore.Hbonds>
donor molecule, donor type, donor heavy atom, donor atom, acceptor molecule, acceptor atom, score
      L1  H     9    26       P1  7957  0.46
      L1  H     9    42       P1  7948  1.00
      P1  H  7997  8010       L1     6  0.56
      P1  H 10752 10764       L1     8  0.25

> <Gold.Chemscore.Hbond.Weighted>
-11.8783

> <Gold.Chemscore.Metal.Weighted>
-0.0000

> <Gold.Chemscore.Lipo.Weighted>
-6.6455

> <Gold.Chemscore.Internal_Hbond.Weighted>
0.0000

> <Gold.Chemscore.DEClash.Weighted>
0.5207

> <Gold.Chemscore.DEInternal.Weighted>
1.1206

> <Gold.Chemscore.Rot.Weighted>
5.4003

> <Gold.Chemscore.Internal.Correction.Weighted>
   9.000000E+99

> <Gold.Protein.RotatedTorsions>
[ 6907 6896 6895 6894 ] final  142.26 input  -60.11 | X-H torsion
[ 7974 7965 7964 7962 ] final  131.47 input  175.53 | X-H torsion
[ 8008 7997 7996 7995 ] final   45.48 input   59.86 | X-H torsion
[ 10167 10162 10161 10158 ] final -113.82 input  -65.29 | X-H torsion
[ 10718 10713 10712 10709 ] final  -17.47 input   66.30 | X-H torsion
[ 10763 10752 10751 10750 ] final  -34.60 input  -60.55 | X-H torsion
[ 11005 11000 10999 10996 ] final   86.07 input  -57.11 | X-H torsion

> <Gold.Protein.ActiveResidues>
 VAL166  LYS551  ARG553  GLY616  TRP617  ASP618  TYR619  PRO620  LYS621  CYS622 
 ASP623  PHE694  ASN695  SER759  ASP760  ASP761  ALA762  ILE779  LEU786  VAL792 
 PHE793  MET794  SER795  GLU796  ALA797  LYS798  CYS799  TRP800  GLU811  SER814 

> <Gold.Protein.RotatedAtoms>
  152.2209  133.4983  159.5161 H   0  0  0  0  0  0  0  0  0  0  0  0  # atno 6907 bound_to 6896
  150.7012  134.1343  159.4090 H   0  0  0  0  0  0  0  0  0  0  0  0  # atno 6908 bound_to 6896
  151.9264  135.0275  160.0576 H   0  0  0  0  0  0  0  0  0  0  0  0  # atno 6909 bound_to 6896
  145.0070  139.4257  143.5264 H   0  0  0  0  0  0  0  0  0  0  0  0  # atno 7974 bound_to 7965
  155.3365  140.3405  155.4239 H   0  0  0  0  0  0  0  0  0  0  0  0  # atno 8008 bound_to 7997
  156.1835  140.1672  156.8266 H   0  0  0  0  0  0  0  0  0  0  0  0  # atno 8009 bound_to 7997
  154.5360  140.0735  156.8411 H   0  0  0  0  0  0  0  0  0  0  0  0  # atno 8010 bound_to 7997
  140.1076  143.4556  152.1773 H   0  0  0  0  0  0  0  0  0  0  0  0  # atno 10167 bound_to 10162
  156.5730  130.4754  149.6354 H   0  0  0  0  0  0  0  0  0  0  0  0  # atno 10718 bound_to 10713
  153.8494  135.6850  153.4794 H   0  0  0  0  0  0  0  0  0  0  0  0  # atno 10763 bound_to 10752
  153.1406  135.4659  154.9488 H   0  0  0  0  0  0  0  0  0  0  0  0  # atno 10764 bound_to 10752
  154.7809  135.3268  154.7940 H   0  0  0  0  0  0  0  0  0  0  0  0  # atno 10765 bound_to 10752
  139.8954  134.8330  156.2669 H   0  0  0  0  0  0  0  0  0  0  0  0  # atno 11005 bound_to 11000
  146.3463  139.9491  142.8731 LP  0  0  0  0  0  0  0  0  0  0  0  0  # atno 17320 bound_to 7965
  145.2075  140.9881  143.4120 LP  0  0  0  0  0  0  0  0  0  0  0  0  # atno 17321 bound_to 7965
  139.5637  144.7421  151.4084 LP  0  0  0  0  0  0  0  0  0  0  0  0  # atno 17342 bound_to 10162
  140.6943  143.7786  150.7303 LP  0  0  0  0  0  0  0  0  0  0  0  0  # atno 17343 bound_to 10162
  156.2698  130.7010  151.1804 LP  0  0  0  0  0  0  0  0  0  0  0  0  # atno 17370 bound_to 10713
  157.7344  131.0582  150.5527 LP  0  0  0  0  0  0  0  0  0  0  0  0  # atno 17371 bound_to 10713
  141.0126  133.7087  156.1136 LP  0  0  0  0  0  0  0  0  0  0  0  0  # atno 17394 bound_to 11000
  140.7346  134.4217  157.5562 LP  0  0  0  0  0  0  0  0  0  0  0  0  # atno 17395 bound_to 11000

$$$$
