AV-unprocessed.smi:2194|AV-procd|sdf|8903|dock4
  -GOLD-   2272012113D 1   1.00000     0.00000
 Structure written by MMmdl.
 45 47  0  0  0  0  0  0  0  0  1 V2000
  144.7954  136.5277  152.5899 C   0  0  0  0  0  0  0  0  0  0  0  0
  145.9129  137.3160  153.2412 C   0  0  0  0  0  0  0  0  0  0  0  0
  146.6129  136.7809  154.3405 C   0  0  0  0  0  0  0  0  0  0  0  0
  147.6520  137.5167  154.9420 C   0  0  0  0  0  0  0  0  0  0  0  0
  148.0091  138.7920  154.4576 C   0  0  0  0  0  0  0  0  0  0  0  0
  149.0375  139.4420  155.1058 O   0  0  0  0  0  0  0  0  0  0  0  0
  149.2797  140.8054  154.7851 C   0  0  0  0  0  0  0  0  0  0  0  0
  149.5354  141.5869  156.0822 C   0  0  1  0  0  0  0  0  0  0  0  0
  148.4322  141.3900  156.9445 O   0  0  0  0  0  0  0  0  0  0  0  0
  150.8445  141.1598  156.7769 C   0  0  0  0  0  0  0  0  0  0  0  0
  151.1235  141.9401  157.9733 N   0  0  0  0  0  0  0  0  0  0  0  0
  150.4956  143.0748  158.3423 C   0  0  0  0  0  0  0  0  0  0  0  0
  150.9123  143.6173  159.4866 N   0  0  0  0  0  0  0  0  0  0  0  0
  151.9096  142.7325  159.8826 C   0  0  0  0  0  0  0  0  0  0  0  0
  152.0533  141.7221  158.9901 C   0  0  0  0  0  0  0  0  0  0  0  0
  153.0284  140.6395  159.1613 C   0  0  0  0  0  0  0  0  0  0  0  0
  153.1311  139.7292  158.3379 O   0  0  0  0  0  0  0  0  0  0  0  0
  153.7815  140.7430  160.3006 N   0  0  0  0  0  0  0  0  0  0  0  0
  154.7764  139.6776  160.5294 C   0  0  0  0  0  0  0  0  0  0  0  0
  153.6531  141.7402  161.2531 C   0  0  0  0  0  0  0  0  0  0  0  0
  154.3341  141.7391  162.2822 O   0  0  0  0  0  0  0  0  0  0  0  0
  152.7392  142.7409  161.0337 N   0  0  0  0  0  0  0  0  0  0  0  0
  152.5904  143.8239  162.0100 C   0  0  0  0  0  0  0  0  0  0  0  0
  147.3026  139.3230  153.3487 C   0  0  0  0  0  0  0  0  0  0  0  0
  146.2627  138.5880  152.7469 C   0  0  0  0  0  0  0  0  0  0  0  0
  144.3422  135.8338  153.2986 H   0  0  0  0  0  0  0  0  0  0  0  0
  145.1812  135.9550  151.7463 H   0  0  0  0  0  0  0  0  0  0  0  0
  144.0135  137.1942  152.2240 H   0  0  0  0  0  0  0  0  0  0  0  0
  146.3561  135.8051  154.7265 H   0  0  0  0  0  0  0  0  0  0  0  0
  148.1815  137.0970  155.7849 H   0  0  0  0  0  0  0  0  0  0  0  0
  150.1564  140.8723  154.1384 H   0  0  0  0  0  0  0  0  0  0  0  0
  148.4309  141.2354  154.2503 H   0  0  0  0  0  0  0  0  0  0  0  0
  149.5787  142.6523  155.8522 H   0  0  0  0  0  0  0  0  0  0  0  0
  148.3332  142.1583  157.4858 H   0  0  0  0  0  0  0  0  0  0  0  0
  150.8286  140.0999  157.0270 H   0  0  0  0  0  0  0  0  0  0  0  0
  151.6829  141.2889  156.0913 H   0  0  0  0  0  0  0  0  0  0  0  0
  149.7037  143.5150  157.7542 H   0  0  0  0  0  0  0  0  0  0  0  0
  155.5819  139.9621  161.2072 H   0  0  0  0  0  0  0  0  0  0  0  0
  155.2739  139.3750  159.6062 H   0  0  0  0  0  0  0  0  0  0  0  0
  154.2874  138.7977  160.9493 H   0  0  0  0  0  0  0  0  0  0  0  0
  153.5511  144.3009  162.2094 H   0  0  0  0  0  0  0  0  0  0  0  0
  152.2000  143.4353  162.9515 H   0  0  0  0  0  0  0  0  0  0  0  0
  151.9110  144.6061  161.6716 H   0  0  0  0  0  0  0  0  0  0  0  0
  147.5397  140.2930  152.9390 H   0  0  0  0  0  0  0  0  0  0  0  0
  145.7339  139.0052  151.9023 H   0  0  0  0  0  0  0  0  0  0  0  0
  1  2  1  0  0  0  0
  1 26  1  0  0  0  0
  1 27  1  0  0  0  0
  1 28  1  0  0  0  0
  2 25  1  0  0  0  0
  2  3  2  0  0  0  0
  3  4  1  0  0  0  0
  3 29  1  0  0  0  0
  4  5  2  0  0  0  0
  4 30  1  0  0  0  0
  5  6  1  0  0  0  0
  5 24  1  0  0  0  0
  6  7  1  0  0  0  0
  7  8  1  0  0  0  0
  7 31  1  0  0  0  0
  7 32  1  0  0  0  0
  8  9  1  0  0  0  0
  8 10  1  0  0  0  0
  8 33  1  0  0  0  0
  9 34  1  0  0  0  0
 10 11  1  0  0  0  0
 10 35  1  0  0  0  0
 10 36  1  0  0  0  0
 11 15  1  0  0  0  0
 11 12  1  0  0  0  0
 12 13  2  0  0  0  0
 12 37  1  0  0  0  0
 13 14  1  0  0  0  0
 14 22  1  0  0  0  0
 14 15  2  0  0  0  0
 15 16  1  0  0  0  0
 16 17  2  0  0  0  0
 16 18  1  0  0  0  0
 18 19  1  0  0  0  0
 18 20  1  0  0  0  0
 19 38  1  0  0  0  0
 19 39  1  0  0  0  0
 19 40  1  0  0  0  0
 20 21  2  0  0  0  0
 20 22  1  0  0  0  0
 22 23  1  0  0  0  0
 23 41  1  0  0  0  0
 23 42  1  0  0  0  0
 23 43  1  0  0  0  0
 24 25  2  0  0  0  0
 24 44  1  0  0  0  0
 25 45  1  0  0  0  0
M  END
> <s_m_source_file>
AV-unprocessed.smi

> <i_m_source_file_index>
2194

> <i_lp_mmshare_version>
43012

> <i_f3d_flags>
0

> <s_epik_input>
W0NIM11jMVtjSF1bY0hdYyhbY0hdW2NIXTEpT1tDSDJdW0NASF0oW09IXSlbQ0gyXW4oW2NIXW4yKWMoYzIzKWMoPU8pbihbQ0gzXSljKD1PKW4zW0NIM10=

> <s_epik_cmdline>
J2VwaWtfcHl0aG9uJywgJy1waCcsICc3LjAnLCAnLXRuJywgJzgnLCAnLW1hJywgJzIwMCcsICctbWV0YWxfYmluZGluZycsICctaW1hZScsICc8aW5maWxlLm1hZT4nLCAnLW9tYWUnLCAnPG91dGZpbGUubWFlPic=

> <r_lp_tautomer_probability>
1

> <r_epik_Ionization_Penalty>
1.06124e-06

> <r_epik_Ionization_Penalty_Charging>
3.25921e-09

> <r_epik_Ionization_Penalty_Neutral>
1.05798e-06

> <r_epik_State_Penalty>
-0

> <r_epik_Charging_Adjusted_Penalty>
3.25921e-09

> <i_epik_Tot_Q>
0

> <i_epik_Tot_abs_Q>
0

> <r_epik_Metal_State_Penalty>
-0

> <b_epik_Metal_Only>
0

> <s_lp_Force_Field>
OPLS_2005

> <r_lp_Energy>
38.6758

> <b_lp_Chiralities_Consistent>
1

> <s_lp_Variant>
AV-unprocessed.smi:2194-2

> <Gold.Version>
5.8.1

> <Gold.Id.Protein>
6NUR|6NUR_protein|mol2

> <Gold.PLP.Fitness>
50.1731

> <Gold.PLP.PLP>
-45.2645

> <Gold.PLP.part.hbond>
-2.0000

> <Gold.PLP.part.metal>
0.0000

> <Gold.PLP.part.buried>
-2.3853

> <Gold.PLP.part.nonpolar>
-40.5117

> <Gold.PLP.part.repulsive>
0.1434

> <Gold.PLP.ligand.clash>
0.0000

> <Gold.PLP.ligand.torsion>
0.5547

> <Gold.PLP.Chemscore.Hbond>
1.0000

> <Gold.PLP.Chemscore.CHOScore>
1.0000

> <Gold.PLP.Chemscore.Metal>
0.0000

> <Gold.Chemscore.Hbonds>
donor molecule, donor type, donor heavy atom, donor atom, acceptor molecule, acceptor atom, score
      P1  H  7997  8009       L1    17  1.00
      L1  C    12    37       P1  8028  0.99

> <Gold.PLP.Chemscore.Internal.Correction>
0.0179

> <Gold.Rescore>
     Score         DG    S(hbond)    S(metal)    S(lipo)     H(rot)  DE(clash)    DE(int)     intcor
      8.47     -10.64       0.83        0.00      79.37       2.69       0.54       1.63       ----

> <Gold.Chemscore.Fitness>
8.4698

> <Gold.Chemscore.DG>
-10.6426

> <Gold.Chemscore.ZeroCoef>
-5.4800

> <Gold.Chemscore.Hbond>
0.8260

> <Gold.Chemscore.Metal>
0.0000

> <Gold.Chemscore.Lipo>
79.3698

> <Gold.Chemscore.Internal_Hbond>
0.0000

> <Gold.Chemscore.DEClash>
0.5446

> <Gold.Chemscore.DEInternal>
1.6282

> <Gold.Chemscore.Rot>
2.6885

> <Gold.Chemscore.Internal.Correction>
   9.000000E+99

> <Gold.Chemscore.Hbonds>
donor molecule, donor type, donor heavy atom, donor atom, acceptor molecule, acceptor atom, score
      P1  H  7997  8009       L1    17  0.70

> <Gold.Chemscore.Hbond.Weighted>
-2.7588

> <Gold.Chemscore.Metal.Weighted>
-0.0000

> <Gold.Chemscore.Lipo.Weighted>
-9.2863

> <Gold.Chemscore.Internal_Hbond.Weighted>
0.0000

> <Gold.Chemscore.DEClash.Weighted>
0.5446

> <Gold.Chemscore.DEInternal.Weighted>
1.6282

> <Gold.Chemscore.Rot.Weighted>
6.8825

> <Gold.Chemscore.Internal.Correction.Weighted>
   9.000000E+99

> <Gold.Protein.RotatedTorsions>
[ 6907 6896 6895 6894 ] final -118.92 input  -60.11 | X-H torsion
[ 7974 7965 7964 7962 ] final  -17.64 input  175.53 | X-H torsion
[ 8008 7997 7996 7995 ] final  143.23 input   59.86 | X-H torsion
[ 10167 10162 10161 10158 ] final  155.96 input  -65.29 | X-H torsion
[ 10718 10713 10712 10709 ] final -148.75 input   66.30 | X-H torsion
[ 10763 10752 10751 10750 ] final  -47.35 input  -60.55 | X-H torsion
[ 11005 11000 10999 10996 ] final  -67.57 input  -57.11 | X-H torsion

> <Gold.Protein.ActiveResidues>
 VAL166  LYS551  ARG553  GLY616  TRP617  ASP618  TYR619  PRO620  LYS621  CYS622 
 ASP623  PHE694  ASN695  SER759  ASP760  ASP761  ALA762  ILE779  LEU786  VAL792 
 PHE793  MET794  SER795  GLU796  ALA797  LYS798  CYS799  TRP800  GLU811  SER814 

> <Gold.Protein.RotatedAtoms>
  150.8260  133.8170  159.3118 H   0  0  0  0  0  0  0  0  0  0  0  0  # atno 6907 bound_to 6896
  151.5914  135.1051  160.0049 H   0  0  0  0  0  0  0  0  0  0  0  0  # atno 6908 bound_to 6896
  152.4345  133.7295  159.6636 H   0  0  0  0  0  0  0  0  0  0  0  0  # atno 6909 bound_to 6896
  146.1931  140.3808  142.8450 H   0  0  0  0  0  0  0  0  0  0  0  0  # atno 7974 bound_to 7965
  156.2934  140.2268  156.4857 H   0  0  0  0  0  0  0  0  0  0  0  0  # atno 8008 bound_to 7997
  154.7815  140.0460  157.1152 H   0  0  0  0  0  0  0  0  0  0  0  0  # atno 8009 bound_to 7997
  154.9753  140.3071  155.4973 H   0  0  0  0  0  0  0  0  0  0  0  0  # atno 8010 bound_to 7997
  139.4821  144.5051  151.8109 H   0  0  0  0  0  0  0  0  0  0  0  0  # atno 10167 bound_to 10162
  156.4242  130.8044  151.2268 H   0  0  0  0  0  0  0  0  0  0  0  0  # atno 10718 bound_to 10713
  154.0600  135.6619  153.4810 H   0  0  0  0  0  0  0  0  0  0  0  0  # atno 10763 bound_to 10752
  153.0430  135.5132  154.7668 H   0  0  0  0  0  0  0  0  0  0  0  0  # atno 10764 bound_to 10752
  154.6701  135.3028  154.9719 H   0  0  0  0  0  0  0  0  0  0  0  0  # atno 10765 bound_to 10752
  141.1511  133.6722  156.6312 H   0  0  0  0  0  0  0  0  0  0  0  0  # atno 11005 bound_to 11000
  144.8526  140.7023  143.6158 LP  0  0  0  0  0  0  0  0  0  0  0  0  # atno 17320 bound_to 7965
  145.3730  139.1654  143.4322 LP  0  0  0  0  0  0  0  0  0  0  0  0  # atno 17321 bound_to 7965
  140.4549  144.1804  150.5900 LP  0  0  0  0  0  0  0  0  0  0  0  0  # atno 17342 bound_to 10162
  140.4546  143.2473  151.9302 LP  0  0  0  0  0  0  0  0  0  0  0  0  # atno 17343 bound_to 10162
  157.7508  131.0218  150.3767 LP  0  0  0  0  0  0  0  0  0  0  0  0  # atno 17370 bound_to 10713
  156.4091  130.3930  149.6904 LP  0  0  0  0  0  0  0  0  0  0  0  0  # atno 17371 bound_to 10713
  140.3465  134.7805  157.4436 LP  0  0  0  0  0  0  0  0  0  0  0  0  # atno 17394 bound_to 11000
  140.0895  134.5620  155.8458 LP  0  0  0  0  0  0  0  0  0  0  0  0  # atno 17395 bound_to 11000

$$$$
