AV-unprocessed.smi:3267|AV-procd|sdf|12504|dock2
  -GOLD-   2272018413D 1   1.00000     0.00000
 Structure written by MMmdl.
 38 39  0  0  0  0  0  0  0  0  1 V2000
  147.7273  140.9314  153.6455 C   0  0  0  0  0  0  0  0  0  0  0  0
  148.3055  139.6007  154.1473 C   0  0  2  0  0  0  0  0  0  0  0  0
  149.8506  139.6385  154.2366 C   0  0  0  0  0  0  0  0  0  0  0  0
  150.3124  140.3901  155.3882 N   0  0  0  0  0  0  0  0  0  0  0  0
  150.0852  141.7148  155.6955 C   0  0  0  0  0  0  0  0  0  0  0  0
  150.7247  141.9733  156.8740 C   0  0  0  0  0  0  0  0  0  0  0  0
  151.3244  140.7282  157.2130 C   0  0  0  0  0  0  0  0  0  0  0  0
  151.0772  139.7827  156.3207 N   0  0  0  0  0  0  0  0  0  0  0  0
  147.8622  138.5244  153.2644 N   0  0  0  0  0  0  0  0  0  0  0  0
  146.5978  138.0980  153.1368 C   0  0  0  0  0  0  0  0  0  0  0  0
  145.6419  138.5747  153.7490 O   0  0  0  0  0  0  0  0  0  0  0  0
  146.5012  137.0857  152.2644 N   0  0  0  0  0  0  0  0  0  0  0  0
  145.2594  136.4147  151.8979 C   0  0  0  0  0  0  0  0  0  0  0  0
  145.5157  135.2455  150.9334 C   0  0  2  0  0  0  0  0  0  0  0  0
  144.2648  134.4293  150.6144 C   0  0  0  0  0  0  0  0  0  0  0  0
  144.8610  133.0964  150.2246 C   0  0  0  0  0  0  0  0  0  0  0  0
  146.0216  132.9753  151.2075 C   0  0  0  0  0  0  0  0  0  0  0  0
  146.4252  134.3093  151.5080 O   0  0  0  0  0  0  0  0  0  0  0  0
  148.0078  141.7515  154.3073 H   0  0  0  0  0  0  0  0  0  0  0  0
  146.6377  140.8980  153.6081 H   0  0  0  0  0  0  0  0  0  0  0  0
  148.0890  141.1718  152.6451 H   0  0  0  0  0  0  0  0  0  0  0  0
  147.8823  139.4252  155.1388 H   0  0  0  0  0  0  0  0  0  0  0  0
  150.2719  138.6337  154.2963 H   0  0  0  0  0  0  0  0  0  0  0  0
  150.2839  140.0858  153.3406 H   0  0  0  0  0  0  0  0  0  0  0  0
  149.4965  142.3556  155.0556 H   0  0  0  0  0  0  0  0  0  0  0  0
  150.7598  142.9093  157.4114 H   0  0  0  0  0  0  0  0  0  0  0  0
  151.9279  140.4848  158.0748 H   0  0  0  0  0  0  0  0  0  0  0  0
  148.5740  138.0691  152.7120 H   0  0  0  0  0  0  0  0  0  0  0  0
  147.3431  136.7645  151.8091 H   0  0  0  0  0  0  0  0  0  0  0  0
  144.7799  136.0527  152.8078 H   0  0  0  0  0  0  0  0  0  0  0  0
  144.5683  137.1300  151.4485 H   0  0  0  0  0  0  0  0  0  0  0  0
  145.9485  135.6062  149.9987 H   0  0  0  0  0  0  0  0  0  0  0  0
  143.6421  134.3131  151.5027 H   0  0  0  0  0  0  0  0  0  0  0  0
  143.6574  134.8737  149.8257 H   0  0  0  0  0  0  0  0  0  0  0  0
  144.1528  132.2704  150.2960 H   0  0  0  0  0  0  0  0  0  0  0  0
  145.2369  133.1395  149.2015 H   0  0  0  0  0  0  0  0  0  0  0  0
  145.6911  132.4987  152.1308 H   0  0  0  0  0  0  0  0  0  0  0  0
  146.8478  132.3908  150.8025 H   0  0  0  0  0  0  0  0  0  0  0  0
  1  2  1  0  0  0  0
  1 19  1  0  0  0  0
  1 20  1  0  0  0  0
  1 21  1  0  0  0  0
  2  3  1  0  0  0  0
  2  9  1  0  0  0  0
  2 22  1  0  0  0  0
  3  4  1  0  0  0  0
  3 23  1  0  0  0  0
  3 24  1  0  0  0  0
  4  8  1  0  0  0  0
  4  5  1  0  0  0  0
  5  6  2  0  0  0  0
  5 25  1  0  0  0  0
  6  7  1  0  0  0  0
  6 26  1  0  0  0  0
  7  8  2  0  0  0  0
  7 27  1  0  0  0  0
  9 10  1  0  0  0  0
  9 28  1  0  0  0  0
 10 11  2  0  0  0  0
 10 12  1  0  0  0  0
 12 13  1  0  0  0  0
 12 29  1  0  0  0  0
 13 14  1  0  0  0  0
 13 30  1  0  0  0  0
 13 31  1  0  0  0  0
 14 18  1  0  0  0  0
 14 15  1  0  0  0  0
 14 32  1  0  0  0  0
 15 16  1  0  0  0  0
 15 33  1  0  0  0  0
 15 34  1  0  0  0  0
 16 17  1  0  0  0  0
 16 35  1  0  0  0  0
 16 36  1  0  0  0  0
 17 18  1  0  0  0  0
 17 37  1  0  0  0  0
 17 38  1  0  0  0  0
M  END
> <s_m_source_file>
AV-unprocessed.smi

> <i_m_source_file_index>
3267

> <i_lp_mmshare_version>
43012

> <i_f3d_flags>
0

> <s_epik_input>
bjFbY0hdW2NIXVtjSF1uMVtDSDJdW0NAQEhdKFtDSDNdKVtOSF1DKD1PKVtOSF1bQ0gyXVtDQEBIXTJbQ0gyXVtDSDJdW0NIMl1PMg==

> <s_epik_cmdline>
J2VwaWtfcHl0aG9uJywgJy1waCcsICc3LjAnLCAnLXRuJywgJzgnLCAnLW1hJywgJzIwMCcsICctbWV0YWxfYmluZGluZycsICctaW1hZScsICc8aW5maWxlLm1hZT4nLCAnLW9tYWUnLCAnPG91dGZpbGUubWFlPic=

> <r_lp_tautomer_probability>
1

> <r_epik_Ionization_Penalty>
6.24796e-05

> <r_epik_Ionization_Penalty_Charging>
0

> <r_epik_Ionization_Penalty_Neutral>
6.24796e-05

> <r_epik_State_Penalty>
-0

> <r_epik_Charging_Adjusted_Penalty>
0

> <i_epik_Tot_Q>
0

> <i_epik_Tot_abs_Q>
0

> <r_epik_Metal_State_Penalty>
-0

> <b_epik_Metal_Only>
0

> <s_lp_Force_Field>
OPLS_2005

> <r_lp_Energy>
17.87

> <b_lp_Chiralities_Consistent>
1

> <s_lp_Variant>
AV-unprocessed.smi:3267-1

> <Gold.Version>
5.8.1

> <Gold.Id.Protein>
6NUR|6NUR_protein|mol2

> <Gold.PLP.Fitness>
39.6528

> <Gold.PLP.PLP>
-32.0031

> <Gold.PLP.part.hbond>
-2.7409

> <Gold.PLP.part.metal>
0.0000

> <Gold.PLP.part.buried>
-2.9946

> <Gold.PLP.part.nonpolar>
-28.1092

> <Gold.PLP.part.repulsive>
0.9198

> <Gold.PLP.ligand.clash>
0.0000

> <Gold.PLP.ligand.torsion>
0.2293

> <Gold.PLP.Chemscore.Hbond>
1.8000

> <Gold.PLP.Chemscore.CHOScore>
0.8946

> <Gold.PLP.Chemscore.Metal>
0.0000

> <Gold.Chemscore.Hbonds>
donor molecule, donor type, donor heavy atom, donor atom, acceptor molecule, acceptor atom, score
      L1  H     9    28       P1  7948  0.81
      L1  H    12    29       P1  7948  1.00
      L1  C     5    25       P1  8028  0.88

> <Gold.PLP.Chemscore.Internal.Correction>
0.0245

> <Gold.Rescore>
     Score         DG    S(hbond)    S(metal)    S(lipo)     H(rot)  DE(clash)    DE(int)     intcor
     14.90     -15.25       1.81        0.00      72.92       1.87       0.10       0.25       ----

> <Gold.Chemscore.Fitness>
14.8956

> <Gold.Chemscore.DG>
-15.2486

> <Gold.Chemscore.ZeroCoef>
-5.4800

> <Gold.Chemscore.Hbond>
1.8055

> <Gold.Chemscore.Metal>
0.0000

> <Gold.Chemscore.Lipo>
72.9177

> <Gold.Chemscore.Internal_Hbond>
0.0000

> <Gold.Chemscore.DEClash>
0.1049

> <Gold.Chemscore.DEInternal>
0.2481

> <Gold.Chemscore.Rot>
1.8724

> <Gold.Chemscore.Internal.Correction>
   9.000000E+99

> <Gold.Chemscore.Hbonds>
donor molecule, donor type, donor heavy atom, donor atom, acceptor molecule, acceptor atom, score
      L1  H     9    28       P1  7948  0.75
      L1  H    12    29       P1  7948  0.97

> <Gold.Chemscore.Hbond.Weighted>
-6.0305

> <Gold.Chemscore.Metal.Weighted>
-0.0000

> <Gold.Chemscore.Lipo.Weighted>
-8.5314

> <Gold.Chemscore.Internal_Hbond.Weighted>
0.0000

> <Gold.Chemscore.DEClash.Weighted>
0.1049

> <Gold.Chemscore.DEInternal.Weighted>
0.2481

> <Gold.Chemscore.Rot.Weighted>
4.7933

> <Gold.Chemscore.Internal.Correction.Weighted>
   9.000000E+99

> <Gold.Protein.RotatedTorsions>
[ 6907 6896 6895 6894 ] final  122.08 input  -60.11 | X-H torsion
[ 7974 7965 7964 7962 ] final  -48.38 input  175.53 | X-H torsion
[ 8008 7997 7996 7995 ] final -118.93 input   59.86 | X-H torsion
[ 10167 10162 10161 10158 ] final  117.31 input  -65.29 | X-H torsion
[ 10718 10713 10712 10709 ] final  -20.29 input   66.30 | X-H torsion
[ 10763 10752 10751 10750 ] final   -1.21 input  -60.55 | X-H torsion
[ 11005 11000 10999 10996 ] final  -10.27 input  -57.11 | X-H torsion

> <Gold.Protein.ActiveResidues>
 VAL166  LYS551  ARG553  GLY616  TRP617  ASP618  TYR619  PRO620  LYS621  CYS622 
 ASP623  PHE694  ASN695  SER759  ASP760  ASP761  ALA762  ILE779  LEU786  VAL792 
 PHE793  MET794  SER795  GLU796  ALA797  LYS798  CYS799  TRP800  GLU811  SER814 

> <Gold.Protein.RotatedAtoms>
  152.4271  133.7213  159.6534 H   0  0  0  0  0  0  0  0  0  0  0  0  # atno 6907 bound_to 6896
  150.8148  133.8346  159.3171 H   0  0  0  0  0  0  0  0  0  0  0  0  # atno 6908 bound_to 6896
  151.6046  135.1047  160.0119 H   0  0  0  0  0  0  0  0  0  0  0  0  # atno 6909 bound_to 6896
  145.9518  140.7565  142.9501 H   0  0  0  0  0  0  0  0  0  0  0  0  # atno 7974 bound_to 7965
  155.1075  140.0397  157.2714 H   0  0  0  0  0  0  0  0  0  0  0  0  # atno 8008 bound_to 7997
  154.6710  140.2612  155.6981 H   0  0  0  0  0  0  0  0  0  0  0  0  # atno 8009 bound_to 7997
  156.2658  140.2797  156.1219 H   0  0  0  0  0  0  0  0  0  0  0  0  # atno 8010 bound_to 7997
  139.6187  144.7097  151.2682 H   0  0  0  0  0  0  0  0  0  0  0  0  # atno 10167 bound_to 10162
  156.5340  130.4662  149.6532 H   0  0  0  0  0  0  0  0  0  0  0  0  # atno 10718 bound_to 10713
  153.3419  135.6981  153.6860 H   0  0  0  0  0  0  0  0  0  0  0  0  # atno 10763 bound_to 10752
  153.5622  135.3532  155.2804 H   0  0  0  0  0  0  0  0  0  0  0  0  # atno 10764 bound_to 10752
  154.8638  135.4252  154.2633 H   0  0  0  0  0  0  0  0  0  0  0  0  # atno 10765 bound_to 10752
  140.7430  133.8655  155.8983 H   0  0  0  0  0  0  0  0  0  0  0  0  # atno 11005 bound_to 11000
  144.6797  140.2446  143.7339 LP  0  0  0  0  0  0  0  0  0  0  0  0  # atno 17320 bound_to 7965
  145.8161  139.2024  143.1965 LP  0  0  0  0  0  0  0  0  0  0  0  0  # atno 17321 bound_to 7965
  140.7368  143.6697  150.8092 LP  0  0  0  0  0  0  0  0  0  0  0  0  # atno 17342 bound_to 10162
  140.0304  143.5449  152.2762 LP  0  0  0  0  0  0  0  0  0  0  0  0  # atno 17343 bound_to 10162
  156.3033  130.7189  151.2066 LP  0  0  0  0  0  0  0  0  0  0  0  0  # atno 17370 bound_to 10713
  157.7417  131.0500  150.5079 LP  0  0  0  0  0  0  0  0  0  0  0  0  # atno 17371 bound_to 10713
  140.9820  134.1393  157.4486 LP  0  0  0  0  0  0  0  0  0  0  0  0  # atno 17394 bound_to 11000
  139.8802  135.0013  156.6061 LP  0  0  0  0  0  0  0  0  0  0  0  0  # atno 17395 bound_to 11000

$$$$
