AV-unprocessed.smi:2494|AV-procd|sdf|9822|dock4
  -GOLD-   2272013453D 1   1.00000     0.00000
 Structure written by MMmdl.
 30 31  0  0  0  0  0  0  0  0  1 V2000
  148.3346  140.6683  153.5097 O   0  0  0  0  0  0  0  0  0  0  0  0
  148.4078  141.6680  154.5033 C   0  0  0  0  0  0  0  0  0  0  0  0
  149.8104  141.6726  155.1332 C   0  0  0  0  0  0  0  0  0  0  0  0
  150.1027  140.4469  156.0401 C   0  0  1  0  0  0  0  0  0  0  0  0
  150.3359  139.1810  155.1779 C   0  0  0  0  0  0  0  0  0  0  0  0
  150.6742  138.0635  155.9883 O   0  0  0  0  0  0  0  0  0  0  0  0
  151.8798  138.2863  156.7027 C   0  0  0  0  0  0  0  0  0  0  0  0
  151.6739  139.4721  157.6519 C   0  0  0  0  0  0  0  0  0  0  0  0
  151.2623  140.6666  156.9199 N   0  0  0  0  0  0  0  0  0  0  0  0
  151.3484  141.8182  157.6920 C   0  0  0  0  0  0  0  0  0  0  0  0
  152.4970  142.0532  158.3411 N   0  0  0  0  0  0  0  0  0  0  0  0
  152.5743  143.1923  159.0629 C   0  0  0  0  0  0  0  0  0  0  0  0
  151.4989  144.1004  159.1243 C   0  0  0  0  0  0  0  0  0  0  0  0
  151.5928  145.5576  160.0428 Cl  0  0  0  0  0  0  0  0  0  0  0  0
  150.3438  143.7574  158.3939 C   0  0  0  0  0  0  0  0  0  0  0  0
  150.2750  142.6163  157.6744 N   0  0  0  0  0  0  0  0  0  0  0  0
  148.9715  140.8633  152.8391 H   0  0  0  0  0  0  0  0  0  0  0  0
  148.1865  142.6347  154.0501 H   0  0  0  0  0  0  0  0  0  0  0  0
  147.6367  141.4666  155.2461 H   0  0  0  0  0  0  0  0  0  0  0  0
  150.5643  141.7334  154.3470 H   0  0  0  0  0  0  0  0  0  0  0  0
  149.9018  142.5967  155.7029 H   0  0  0  0  0  0  0  0  0  0  0  0
  149.2371  140.2717  156.6805 H   0  0  0  0  0  0  0  0  0  0  0  0
  149.4343  138.9186  154.6260 H   0  0  0  0  0  0  0  0  0  0  0  0
  151.1208  139.3503  154.4385 H   0  0  0  0  0  0  0  0  0  0  0  0
  152.1282  137.3892  157.2699 H   0  0  0  0  0  0  0  0  0  0  0  0
  152.7060  138.4699  156.0139 H   0  0  0  0  0  0  0  0  0  0  0  0
  150.9114  139.2283  158.3930 H   0  0  0  0  0  0  0  0  0  0  0  0
  152.5984  139.6640  158.1981 H   0  0  0  0  0  0  0  0  0  0  0  0
  153.4983  143.3791  159.5898 H   0  0  0  0  0  0  0  0  0  0  0  0
  149.4748  144.3985  158.3836 H   0  0  0  0  0  0  0  0  0  0  0  0
  1  2  1  0  0  0  0
  1 17  1  0  0  0  0
  2  3  1  0  0  0  0
  2 18  1  0  0  0  0
  2 19  1  0  0  0  0
  3  4  1  0  0  0  0
  3 20  1  0  0  0  0
  3 21  1  0  0  0  0
  4  9  1  0  0  0  0
  4  5  1  0  0  0  0
  4 22  1  0  0  0  0
  5  6  1  0  0  0  0
  5 23  1  0  0  0  0
  5 24  1  0  0  0  0
  6  7  1  0  0  0  0
  7  8  1  0  0  0  0
  7 25  1  0  0  0  0
  7 26  1  0  0  0  0
  8  9  1  0  0  0  0
  8 27  1  0  0  0  0
  8 28  1  0  0  0  0
  9 10  1  0  0  0  0
 10 16  1  0  0  0  0
 10 11  2  0  0  0  0
 11 12  1  0  0  0  0
 12 13  2  0  0  0  0
 12 29  1  0  0  0  0
 13 14  1  0  0  0  0
 13 15  1  0  0  0  0
 15 16  2  0  0  0  0
 15 30  1  0  0  0  0
M  END
> <s_m_source_file>
AV-unprocessed.smi

> <i_m_source_file_index>
2494

> <i_lp_mmshare_version>
43012

> <i_f3d_flags>
0

> <s_epik_input>
W09IXVtDSDJdW0NIMl1bQ0BASF0xW0NIMl1PW0NIMl1bQ0gyXU4xYzJuW2NIXWMoQ2wpW2NIXW4y

> <s_epik_cmdline>
J2VwaWtfcHl0aG9uJywgJy1waCcsICc3LjAnLCAnLXRuJywgJzgnLCAnLW1hJywgJzIwMCcsICctbWV0YWxfYmluZGluZycsICctaW1hZScsICc8aW5maWxlLm1hZT4nLCAnLW9tYWUnLCAnPG91dGZpbGUubWFlPic=

> <r_lp_tautomer_probability>
1

> <r_epik_Ionization_Penalty>
3.66811e-07

> <r_epik_Ionization_Penalty_Charging>
0

> <r_epik_Ionization_Penalty_Neutral>
3.66811e-07

> <r_epik_State_Penalty>
-0

> <r_epik_Charging_Adjusted_Penalty>
0

> <i_epik_Tot_Q>
0

> <i_epik_Tot_abs_Q>
0

> <r_epik_Metal_State_Penalty>
-0

> <b_epik_Metal_Only>
0

> <s_lp_Force_Field>
OPLS_2005

> <r_lp_Energy>
15.3646

> <b_lp_Chiralities_Consistent>
1

> <s_lp_Variant>
AV-unprocessed.smi:2494-2

> <Gold.Version>
5.8.1

> <Gold.Id.Protein>
6NUR|6NUR_protein|mol2

> <Gold.PLP.Fitness>
32.9994

> <Gold.PLP.PLP>
-27.8000

> <Gold.PLP.part.hbond>
-1.0000

> <Gold.PLP.part.metal>
0.0000

> <Gold.PLP.part.buried>
-1.2497

> <Gold.PLP.part.nonpolar>
-24.8098

> <Gold.PLP.part.repulsive>
0.1523

> <Gold.PLP.ligand.clash>
0.0000

> <Gold.PLP.ligand.torsion>
0.3061

> <Gold.PLP.Chemscore.Hbond>
0.7680

> <Gold.PLP.Chemscore.CHOScore>
1.0633

> <Gold.PLP.Chemscore.Metal>
0.0000

> <Gold.Chemscore.Hbonds>
donor molecule, donor type, donor heavy atom, donor atom, acceptor molecule, acceptor atom, score
      L1  H     1    17       P1  7957  0.75
      L1  C    15    30       P1  8028  0.07
      L1  C    15    30       P1  8029  1.00

> <Gold.PLP.Chemscore.Internal.Correction>
0.3177

> <Gold.Rescore>
     Score         DG    S(hbond)    S(metal)    S(lipo)     H(rot)  DE(clash)    DE(int)     intcor
     10.52     -12.45       0.87        0.00      79.35       2.04       0.10       1.83       ----

> <Gold.Chemscore.Fitness>
10.5178

> <Gold.Chemscore.DG>
-12.4536

> <Gold.Chemscore.ZeroCoef>
-5.4800

> <Gold.Chemscore.Hbond>
0.8736

> <Gold.Chemscore.Metal>
0.0000

> <Gold.Chemscore.Lipo>
79.3530

> <Gold.Chemscore.Internal_Hbond>
0.0000

> <Gold.Chemscore.DEClash>
0.1035

> <Gold.Chemscore.DEInternal>
1.8322

> <Gold.Chemscore.Rot>
2.0424

> <Gold.Chemscore.Internal.Correction>
   9.000000E+99

> <Gold.Chemscore.Hbonds>
donor molecule, donor type, donor heavy atom, donor atom, acceptor molecule, acceptor atom, score
      L1  H     1    17       P1  7957  0.74

> <Gold.Chemscore.Hbond.Weighted>
-2.9177

> <Gold.Chemscore.Metal.Weighted>
-0.0000

> <Gold.Chemscore.Lipo.Weighted>
-9.2843

> <Gold.Chemscore.Internal_Hbond.Weighted>
0.0000

> <Gold.Chemscore.DEClash.Weighted>
0.1035

> <Gold.Chemscore.DEInternal.Weighted>
1.8322

> <Gold.Chemscore.Rot.Weighted>
5.2285

> <Gold.Chemscore.Internal.Correction.Weighted>
   9.000000E+99

> <Gold.Protein.RotatedTorsions>
[ 6907 6896 6895 6894 ] final  153.61 input  -60.11 | X-H torsion
[ 7974 7965 7964 7962 ] final  114.05 input  175.53 | X-H torsion
[ 8008 7997 7996 7995 ] final  167.23 input   59.86 | X-H torsion
[ 10167 10162 10161 10158 ] final  -50.77 input  -65.29 | X-H torsion
[ 10718 10713 10712 10709 ] final   21.97 input   66.30 | X-H torsion
[ 10763 10752 10751 10750 ] final   80.61 input  -60.55 | X-H torsion
[ 11005 11000 10999 10996 ] final  -96.48 input  -57.11 | X-H torsion

> <Gold.Protein.ActiveResidues>
 VAL166  LYS551  ARG553  GLY616  TRP617  ASP618  TYR619  PRO620  LYS621  CYS622 
 ASP623  PHE694  ASN695  SER759  ASP760  ASP761  ALA762  ILE779  LEU786  VAL792 
 PHE793  MET794  SER795  GLU796  ALA797  LYS798  CYS799  TRP800  GLU811  SER814 

> <Gold.Protein.RotatedAtoms>
  152.0703  133.4103  159.4455 H   0  0  0  0  0  0  0  0  0  0  0  0  # atno 6907 bound_to 6896
  150.6863  134.3100  159.4751 H   0  0  0  0  0  0  0  0  0  0  0  0  # atno 6908 bound_to 6896
  152.0930  134.9393  160.0622 H   0  0  0  0  0  0  0  0  0  0  0  0  # atno 6909 bound_to 6896
  145.2093  139.2914  143.4277 H   0  0  0  0  0  0  0  0  0  0  0  0  # atno 7974 bound_to 7965
  156.1651  140.1622  156.8545 H   0  0  0  0  0  0  0  0  0  0  0  0  # atno 8008 bound_to 7997
  154.5200  140.0780  156.8188 H   0  0  0  0  0  0  0  0  0  0  0  0  # atno 8009 bound_to 7997
  155.3627  140.3396  155.4243 H   0  0  0  0  0  0  0  0  0  0  0  0  # atno 8010 bound_to 7997
  140.6621  143.2645  151.4407 H   0  0  0  0  0  0  0  0  0  0  0  0  # atno 10167 bound_to 10162
  157.1458  130.6653  149.5996 H   0  0  0  0  0  0  0  0  0  0  0  0  # atno 10718 bound_to 10713
  153.1048  135.4796  154.8931 H   0  0  0  0  0  0  0  0  0  0  0  0  # atno 10763 bound_to 10752
  154.7418  135.3084  154.8717 H   0  0  0  0  0  0  0  0  0  0  0  0  # atno 10764 bound_to 10752
  153.9323  135.6843  153.4799 H   0  0  0  0  0  0  0  0  0  0  0  0  # atno 10765 bound_to 10752
  141.1410  133.8101  157.0577 H   0  0  0  0  0  0  0  0  0  0  0  0  # atno 11005 bound_to 11000
  146.3401  140.2363  142.8594 LP  0  0  0  0  0  0  0  0  0  0  0  0  # atno 17320 bound_to 7965
  144.9872  140.8513  143.5361 LP  0  0  0  0  0  0  0  0  0  0  0  0  # atno 17321 bound_to 7965
  139.5858  144.1607  152.2027 LP  0  0  0  0  0  0  0  0  0  0  0  0  # atno 17342 bound_to 10162
  140.0947  144.5591  150.7030 LP  0  0  0  0  0  0  0  0  0  0  0  0  # atno 17343 bound_to 10162
  155.9780  130.4761  150.6627 LP  0  0  0  0  0  0  0  0  0  0  0  0  # atno 17370 bound_to 10713
  157.4265  131.0844  151.1080 LP  0  0  0  0  0  0  0  0  0  0  0  0  # atno 17371 bound_to 10713
  140.0591  134.9764  157.1273 LP  0  0  0  0  0  0  0  0  0  0  0  0  # atno 17394 bound_to 11000
  140.3875  134.2220  155.7167 LP  0  0  0  0  0  0  0  0  0  0  0  0  # atno 17395 bound_to 11000

$$$$
