AV-unprocessed.smi:2687|AV-procd|sdf|10385|dock10
  -GOLD-   2272014413D 1   1.00000     0.00000
 Structure written by MMmdl.
 38 39  0  0  0  0  0  0  0  0  1 V2000
  145.8922  139.0914  158.6804 O   0  0  0  0  0  0  0  0  0  0  0  0
  146.7822  138.4580  158.1139 C   0  0  0  0  0  0  0  0  0  0  0  0
  147.2774  137.1507  158.7290 C   0  0  0  0  0  0  0  0  0  0  0  0
  147.0412  137.1961  160.1263 O   0  0  0  0  0  0  0  0  0  0  0  0
  147.4794  136.0256  160.7975 C   0  0  0  0  0  0  0  0  0  0  0  0
  146.8899  135.9954  162.2131 C   0  0  0  0  0  0  0  0  0  0  0  0
  146.9808  134.7587  162.7006 F   0  0  0  0  0  0  0  0  0  0  0  0
  147.5657  136.8204  163.0124 F   0  0  0  0  0  0  0  0  0  0  0  0
  145.6058  136.3509  162.1851 F   0  0  0  0  0  0  0  0  0  0  0  0
  147.3850  138.8397  156.9736 N   0  0  0  0  0  0  0  0  0  0  0  0
  147.1228  139.9937  156.1818 C   0  0  0  0  0  0  0  0  0  0  0  0
  145.8440  140.5974  156.1101 C   0  0  0  0  0  0  0  0  0  0  0  0
  145.6609  141.7195  155.2815 C   0  0  0  0  0  0  0  0  0  0  0  0
  146.7611  142.1941  154.5450 C   0  0  0  0  0  0  0  0  0  0  0  0
  147.9816  141.6220  154.5902 N   0  0  0  0  0  0  0  0  0  0  0  0
  148.1624  140.5412  155.3874 C   0  0  0  0  0  0  0  0  0  0  0  0
  149.4448  139.9678  155.4149 N   0  0  0  0  0  0  0  0  0  0  0  0
  149.7865  139.2390  154.2003 C   0  0  0  0  0  0  0  0  0  0  0  0
  151.1435  138.5355  154.3750 C   0  0  0  0  0  0  0  0  0  0  0  0
  152.1364  139.4924  154.7348 O   0  0  0  0  0  0  0  0  0  0  0  0
  151.8295  140.1483  155.9620 C   0  0  0  0  0  0  0  0  0  0  0  0
  150.4917  140.8947  155.8264 C   0  0  0  0  0  0  0  0  0  0  0  0
  146.7648  136.2962  158.2830 H   0  0  0  0  0  0  0  0  0  0  0  0
  148.3436  137.0428  158.5239 H   0  0  0  0  0  0  0  0  0  0  0  0
  147.1670  135.1380  160.2450 H   0  0  0  0  0  0  0  0  0  0  0  0
  148.5692  136.0120  160.8496 H   0  0  0  0  0  0  0  0  0  0  0  0
  148.1714  138.2801  156.6769 H   0  0  0  0  0  0  0  0  0  0  0  0
  145.0006  140.2109  156.6613 H   0  0  0  0  0  0  0  0  0  0  0  0
  144.6973  142.2010  155.2076 H   0  0  0  0  0  0  0  0  0  0  0  0
  146.6573  143.0521  153.8976 H   0  0  0  0  0  0  0  0  0  0  0  0
  149.0094  138.5066  153.9784 H   0  0  0  0  0  0  0  0  0  0  0  0
  149.8331  139.9281  153.3559 H   0  0  0  0  0  0  0  0  0  0  0  0
  151.0827  137.7559  155.1362 H   0  0  0  0  0  0  0  0  0  0  0  0
  151.4381  138.0503  153.4443 H   0  0  0  0  0  0  0  0  0  0  0  0
  151.7893  139.4220  156.7754 H   0  0  0  0  0  0  0  0  0  0  0  0
  152.6288  140.8502  156.2001 H   0  0  0  0  0  0  0  0  0  0  0  0
  150.5886  141.6944  155.0908 H   0  0  0  0  0  0  0  0  0  0  0  0
  150.2216  141.3588  156.7758 H   0  0  0  0  0  0  0  0  0  0  0  0
  1  2  2  0  0  0  0
  2  3  1  0  0  0  0
  2 10  1  0  0  0  0
  3  4  1  0  0  0  0
  3 23  1  0  0  0  0
  3 24  1  0  0  0  0
  4  5  1  0  0  0  0
  5  6  1  0  0  0  0
  5 25  1  0  0  0  0
  5 26  1  0  0  0  0
  6  7  1  0  0  0  0
  6  8  1  0  0  0  0
  6  9  1  0  0  0  0
 10 11  1  0  0  0  0
 10 27  1  0  0  0  0
 11 16  1  0  0  0  0
 11 12  2  0  0  0  0
 12 13  1  0  0  0  0
 12 28  1  0  0  0  0
 13 14  2  0  0  0  0
 13 29  1  0  0  0  0
 14 15  1  0  0  0  0
 14 30  1  0  0  0  0
 15 16  2  0  0  0  0
 16 17  1  0  0  0  0
 17 22  1  0  0  0  0
 17 18  1  0  0  0  0
 18 19  1  0  0  0  0
 18 31  1  0  0  0  0
 18 32  1  0  0  0  0
 19 20  1  0  0  0  0
 19 33  1  0  0  0  0
 19 34  1  0  0  0  0
 20 21  1  0  0  0  0
 21 22  1  0  0  0  0
 21 35  1  0  0  0  0
 21 36  1  0  0  0  0
 22 37  1  0  0  0  0
 22 38  1  0  0  0  0
M  END
> <s_m_source_file>
AV-unprocessed.smi

> <i_m_source_file_index>
2687

> <i_lp_mmshare_version>
43012

> <i_f3d_flags>
0

> <s_epik_input>
RkMoRikoRilbQ0gyXU9bQ0gyXUMoPU8pW05IXWMxW2NIXVtjSF1bY0hdbmMxTjJbQ0gyXVtDSDJdT1tDSDJdW0NIMl0y

> <s_epik_cmdline>
J2VwaWtfcHl0aG9uJywgJy1waCcsICc3LjAnLCAnLXRuJywgJzgnLCAnLW1hJywgJzIwMCcsICctbWV0YWxfYmluZGluZycsICctaW1hZScsICc8aW5maWxlLm1hZT4nLCAnLW9tYWUnLCAnPG91dGZpbGUubWFlPic=

> <r_lp_tautomer_probability>
1

> <r_epik_Ionization_Penalty>
0.00040187

> <r_epik_Ionization_Penalty_Charging>
0

> <r_epik_Ionization_Penalty_Neutral>
0.00040187

> <r_epik_State_Penalty>
0.000245652

> <r_epik_Charging_Adjusted_Penalty>
0.000245652

> <i_epik_Tot_Q>
0

> <i_epik_Tot_abs_Q>
0

> <r_epik_Metal_State_Penalty>
-0

> <b_epik_Metal_Only>
0

> <s_lp_Force_Field>
OPLS_2005

> <r_lp_Energy>
25.827

> <b_lp_Chiralities_Consistent>
1

> <s_lp_Variant>
AV-unprocessed.smi:2687-1

> <Gold.Version>
5.8.1

> <Gold.Id.Protein>
6NUR|6NUR_protein|mol2

> <Gold.PLP.Fitness>
41.6453

> <Gold.PLP.PLP>
-37.8021

> <Gold.PLP.part.hbond>
-3.0000

> <Gold.PLP.part.metal>
0.0000

> <Gold.PLP.part.buried>
-3.9642

> <Gold.PLP.part.nonpolar>
-31.1345

> <Gold.PLP.part.repulsive>
0.2760

> <Gold.PLP.ligand.clash>
0.0000

> <Gold.PLP.ligand.torsion>
0.9308

> <Gold.PLP.Chemscore.Hbond>
1.8320

> <Gold.PLP.Chemscore.CHOScore>
0.0000

> <Gold.PLP.Chemscore.Metal>
0.0000

> <Gold.Chemscore.Hbonds>
donor molecule, donor type, donor heavy atom, donor atom, acceptor molecule, acceptor atom, score
      P1  H  6934  6947       L1     4  1.00
      P1  H  7989  7998       L1    20  0.81

> <Gold.PLP.Chemscore.Internal.Correction>
0.2087

> <Gold.Rescore>
     Score         DG    S(hbond)    S(metal)    S(lipo)     H(rot)  DE(clash)    DE(int)     intcor
      8.42     -10.55       0.94        0.00      60.57       2.01       0.17       1.96       ----

> <Gold.Chemscore.Fitness>
8.4206

> <Gold.Chemscore.DG>
-10.5518

> <Gold.Chemscore.ZeroCoef>
-5.4800

> <Gold.Chemscore.Hbond>
0.9408

> <Gold.Chemscore.Metal>
0.0000

> <Gold.Chemscore.Lipo>
60.5673

> <Gold.Chemscore.Internal_Hbond>
0.0000

> <Gold.Chemscore.DEClash>
0.1702

> <Gold.Chemscore.DEInternal>
1.9610

> <Gold.Chemscore.Rot>
2.0144

> <Gold.Chemscore.Internal.Correction>
   9.000000E+99

> <Gold.Chemscore.Hbonds>
donor molecule, donor type, donor heavy atom, donor atom, acceptor molecule, acceptor atom, score
      P1  H  6934  6947       L1     4  0.84
      P1  H  7989  7998       L1    20  0.05

> <Gold.Chemscore.Hbond.Weighted>
-3.1422

> <Gold.Chemscore.Metal.Weighted>
-0.0000

> <Gold.Chemscore.Lipo.Weighted>
-7.0864

> <Gold.Chemscore.Internal_Hbond.Weighted>
0.0000

> <Gold.Chemscore.DEClash.Weighted>
0.1702

> <Gold.Chemscore.DEInternal.Weighted>
1.9610

> <Gold.Chemscore.Rot.Weighted>
5.1568

> <Gold.Chemscore.Internal.Correction.Weighted>
   9.000000E+99

> <Gold.Protein.RotatedTorsions>
[ 6907 6896 6895 6894 ] final  -25.16 input  -60.11 | X-H torsion
[ 7974 7965 7964 7962 ] final -166.45 input  175.53 | X-H torsion
[ 8008 7997 7996 7995 ] final  -83.65 input   59.86 | X-H torsion
[ 10167 10162 10161 10158 ] final  -17.77 input  -65.29 | X-H torsion
[ 10718 10713 10712 10709 ] final  105.85 input   66.30 | X-H torsion
[ 10763 10752 10751 10750 ] final   76.31 input  -60.55 | X-H torsion
[ 11005 11000 10999 10996 ] final  121.61 input  -57.11 | X-H torsion

> <Gold.Protein.ActiveResidues>
 VAL166  LYS551  ARG553  GLY616  TRP617  ASP618  TYR619  PRO620  LYS621  CYS622 
 ASP623  PHE694  ASN695  SER759  ASP760  ASP761  ALA762  ILE779  LEU786  VAL792 
 PHE793  MET794  SER795  GLU796  ALA797  LYS798  CYS799  TRP800  GLU811  SER814 

> <Gold.Protein.RotatedAtoms>
  151.1792  135.0353  159.8784 H   0  0  0  0  0  0  0  0  0  0  0  0  # atno 6907 bound_to 6896
  152.5445  134.1082  159.8357 H   0  0  0  0  0  0  0  0  0  0  0  0  # atno 6908 bound_to 6896
  151.1197  133.5066  159.2635 H   0  0  0  0  0  0  0  0  0  0  0  0  # atno 6909 bound_to 6896
  144.7245  140.2665  143.6257 H   0  0  0  0  0  0  0  0  0  0  0  0  # atno 7974 bound_to 7965
  154.6214  140.0616  156.9619 H   0  0  0  0  0  0  0  0  0  0  0  0  # atno 8008 bound_to 7997
  155.1812  140.3299  155.4356 H   0  0  0  0  0  0  0  0  0  0  0  0  # atno 8009 bound_to 7997
  156.2433  140.1897  156.6908 H   0  0  0  0  0  0  0  0  0  0  0  0  # atno 8010 bound_to 7997
  140.7251  143.4983  150.9902 H   0  0  0  0  0  0  0  0  0  0  0  0  # atno 10167 bound_to 10162
  157.6690  131.0837  150.5918 H   0  0  0  0  0  0  0  0  0  0  0  0  # atno 10718 bound_to 10713
  153.0716  135.4956  154.8317 H   0  0  0  0  0  0  0  0  0  0  0  0  # atno 10763 bound_to 10752
  154.7030  135.3005  154.9314 H   0  0  0  0  0  0  0  0  0  0  0  0  # atno 10764 bound_to 10752
  154.0032  135.6763  153.4813 H   0  0  0  0  0  0  0  0  0  0  0  0  # atno 10765 bound_to 10752
  139.9233  134.9639  156.7984 H   0  0  0  0  0  0  0  0  0  0  0  0  # atno 11005 bound_to 11000
  145.8085  139.1993  143.2007 LP  0  0  0  0  0  0  0  0  0  0  0  0  # atno 17320 bound_to 7965
  146.0616  140.7964  142.9732 LP  0  0  0  0  0  0  0  0  0  0  0  0  # atno 17321 bound_to 7965
  139.8691  143.7216  152.3168 LP  0  0  0  0  0  0  0  0  0  0  0  0  # atno 17342 bound_to 10162
  139.7458  144.7547  151.0582 LP  0  0  0  0  0  0  0  0  0  0  0  0  # atno 17343 bound_to 10162
  156.6218  130.4408  149.5819 LP  0  0  0  0  0  0  0  0  0  0  0  0  # atno 17370 bound_to 10713
  156.2349  130.6817  151.1500 LP  0  0  0  0  0  0  0  0  0  0  0  0  # atno 17371 bound_to 10713
  140.6410  133.9818  155.7707 LP  0  0  0  0  0  0  0  0  0  0  0  0  # atno 17394 bound_to 11000
  141.0771  134.0118  157.3441 LP  0  0  0  0  0  0  0  0  0  0  0  0  # atno 17395 bound_to 11000

$$$$
