AV-unprocessed.smi:107|AV-procd|sdf|1015|dock7
  -GOLD-   2262018 13D 1   1.00000     0.00000
 Structure written by MMmdl.
 31 32  0  0  0  0  0  0  0  0  1 V2000
  150.3158  142.5706  158.7706 C   0  0  0  0  0  0  0  0  0  0  0  0
  150.6291  141.6132  157.6325 C   0  0  0  0  0  0  0  0  0  0  0  0
  149.9265  141.6085  156.4710 C   0  0  0  0  0  0  0  0  0  0  0  0
  150.1919  140.7510  155.4124 N   0  0  0  0  0  0  0  0  0  0  0  0
  149.3753  140.8028  154.1412 C   0  0  2  0  0  0  0  0  0  0  0  0
  148.2589  141.8423  154.2560 C   0  0  0  0  0  0  0  0  0  0  0  0
  147.1227  141.1491  153.5335 C   0  0  2  0  0  0  0  0  0  0  0  0
  145.8750  141.6302  153.9894 O   0  0  0  0  0  0  0  0  0  0  0  0
  147.3594  139.6819  153.9050 C   0  0  1  0  0  0  0  0  0  0  0  0
  146.7761  138.6640  152.9126 C   0  0  0  0  0  0  0  0  0  0  0  0
  147.5280  138.6489  151.7179 O   0  0  0  0  0  0  0  0  0  0  0  0
  148.7799  139.5552  153.9315 O   0  0  0  0  0  0  0  0  0  0  0  0
  151.2621  139.8380  155.5148 C   0  0  0  0  0  0  0  0  0  0  0  0
  151.5787  139.0687  154.6084 O   0  0  0  0  0  0  0  0  0  0  0  0
  151.9810  139.8386  156.7089 N   0  0  0  0  0  0  0  0  0  0  0  0
  151.7388  140.6715  157.8040 C   0  0  0  0  0  0  0  0  0  0  0  0
  152.4424  140.5745  158.8079 O   0  0  0  0  0  0  0  0  0  0  0  0
  152.7460  139.1844  156.7876 H   0  0  0  0  0  0  0  0  0  0  0  0
  149.4643  143.2105  158.5380 H   0  0  0  0  0  0  0  0  0  0  0  0
  151.1727  143.2143  158.9725 H   0  0  0  0  0  0  0  0  0  0  0  0
  150.0799  142.0183  159.6808 H   0  0  0  0  0  0  0  0  0  0  0  0
  149.1206  142.3187  156.3658 H   0  0  0  0  0  0  0  0  0  0  0  0
  150.0541  140.9855  153.3069 H   0  0  0  0  0  0  0  0  0  0  0  0
  148.0108  142.0017  155.3071 H   0  0  0  0  0  0  0  0  0  0  0  0
  148.5540  142.7931  153.8112 H   0  0  0  0  0  0  0  0  0  0  0  0
  147.2167  141.2975  152.4569 H   0  0  0  0  0  0  0  0  0  0  0  0
  145.1913  141.1994  153.4987 H   0  0  0  0  0  0  0  0  0  0  0  0
  146.9913  139.4834  154.9131 H   0  0  0  0  0  0  0  0  0  0  0  0
  146.7527  137.6632  153.3448 H   0  0  0  0  0  0  0  0  0  0  0  0
  145.7489  138.9313  152.6641 H   0  0  0  0  0  0  0  0  0  0  0  0
  148.1890  139.3223  151.7706 H   0  0  0  0  0  0  0  0  0  0  0  0
  1  2  1  0  0  0  0
  1 19  1  0  0  0  0
  1 20  1  0  0  0  0
  1 21  1  0  0  0  0
  2 16  1  0  0  0  0
  2  3  2  0  0  0  0
  3  4  1  0  0  0  0
  3 22  1  0  0  0  0
  4  5  1  0  0  0  0
  4 13  1  0  0  0  0
  5 12  1  0  0  0  0
  5  6  1  0  0  0  0
  5 23  1  0  0  0  0
  6  7  1  0  0  0  0
  6 24  1  0  0  0  0
  6 25  1  0  0  0  0
  7  8  1  0  0  0  0
  7  9  1  0  0  0  0
  7 26  1  0  0  0  0
  8 27  1  0  0  0  0
  9 10  1  0  0  0  0
  9 12  1  0  0  0  0
  9 28  1  0  0  0  0
 10 11  1  0  0  0  0
 10 29  1  0  0  0  0
 10 30  1  0  0  0  0
 11 31  1  0  0  0  0
 13 14  2  0  0  0  0
 13 15  1  0  0  0  0
 15 18  1  0  0  0  0
 15 16  1  0  0  0  0
 16 17  2  0  0  0  0
M  END
> <s_m_source_file>
AV-unprocessed.smi

> <i_m_source_file_index>
107

> <i_lp_mmshare_version>
43012

> <i_f3d_flags>
0

> <s_epik_input>
Tz1jMVtuSF1jKD1PKW4oW2NIXWMxW0NIM10pW0NAQEhdMltDSDJdW0NAQEhdKFtPSF0pW0NASF0oTzIpW0NIMl1bT0hd

> <s_epik_cmdline>
J2VwaWtfcHl0aG9uJywgJy1waCcsICc3LjAnLCAnLXRuJywgJzgnLCAnLW1hJywgJzIwMCcsICctbWV0YWxfYmluZGluZycsICctaW1hZScsICc8aW5maWxlLm1hZT4nLCAnLW9tYWUnLCAnPG91dGZpbGUubWFlPic=

> <r_lp_tautomer_probability>
0.999537

> <r_epik_Ionization_Penalty>
0.00121888

> <r_epik_Ionization_Penalty_Charging>
0.00121876

> <r_epik_Ionization_Penalty_Neutral>
1.19946e-07

> <r_epik_State_Penalty>
0.000805124

> <r_epik_Charging_Adjusted_Penalty>
0.00202389

> <i_epik_Tot_Q>
0

> <i_epik_Tot_abs_Q>
0

> <r_epik_Metal_State_Penalty>
0.662472

> <b_epik_Metal_Only>
0

> <s_epik_Chemistry_Notes>
This compound contains an acetal/aminal-like group ( X-CH(R)-Y where X, Y are N, S, or O) that may be acid/base labile, releasing an aldehyde.

> <s_lp_Force_Field>
OPLS_2005

> <r_lp_Energy>
24.0727

> <b_lp_Chiralities_Consistent>
1

> <s_lp_Variant>
AV-unprocessed.smi:107-3

> <Gold.Version>
5.8.1

> <Gold.Id.Protein>
6NUR|6NUR_protein|mol2

> <Gold.PLP.Fitness>
39.3598

> <Gold.PLP.PLP>
-27.9880

> <Gold.PLP.part.hbond>
-4.9104

> <Gold.PLP.part.metal>
0.0000

> <Gold.PLP.part.buried>
-0.2128

> <Gold.PLP.part.nonpolar>
-24.1484

> <Gold.PLP.part.repulsive>
1.7389

> <Gold.PLP.ligand.clash>
0.0000

> <Gold.PLP.ligand.torsion>
0.0998

> <Gold.PLP.Chemscore.Hbond>
2.8545

> <Gold.PLP.Chemscore.CHOScore>
1.0000

> <Gold.PLP.Chemscore.Metal>
0.0000

> <Gold.Chemscore.Hbonds>
donor molecule, donor type, donor heavy atom, donor atom, acceptor molecule, acceptor atom, score
      L1  H     8    27       P1 10175  1.00
      L1  H    11    31       P1  7957  0.96
      P1  H  7954  7966       L1    11  0.65
      P1  H  7989  7998       L1    14  0.12
      L1  C     3    22       P1  8028  1.00

> <Gold.PLP.Chemscore.Internal.Correction>
0.0077

> <Gold.Rescore>
     Score         DG    S(hbond)    S(metal)    S(lipo)     H(rot)  DE(clash)    DE(int)     intcor
      8.24      -9.64       1.82        0.00      43.14       2.73       0.09       1.31       ----

> <Gold.Chemscore.Fitness>
8.2385

> <Gold.Chemscore.DG>
-9.6432

> <Gold.Chemscore.ZeroCoef>
-5.4800

> <Gold.Chemscore.Hbond>
1.8241

> <Gold.Chemscore.Metal>
0.0000

> <Gold.Chemscore.Lipo>
43.1422

> <Gold.Chemscore.Internal_Hbond>
0.0000

> <Gold.Chemscore.DEClash>
0.0925

> <Gold.Chemscore.DEInternal>
1.3122

> <Gold.Chemscore.Rot>
2.7253

> <Gold.Chemscore.Internal.Correction>
   9.000000E+99

> <Gold.Chemscore.Hbonds>
donor molecule, donor type, donor heavy atom, donor atom, acceptor molecule, acceptor atom, score
      L1  H     8    27       P1 10175  0.39
      L1  H    11    31       P1  7957  0.91
      P1  H  7954  7966       L1    11  0.08

> <Gold.Chemscore.Hbond.Weighted>
-6.0924

> <Gold.Chemscore.Metal.Weighted>
-0.0000

> <Gold.Chemscore.Lipo.Weighted>
-5.0476

> <Gold.Chemscore.Internal_Hbond.Weighted>
0.0000

> <Gold.Chemscore.DEClash.Weighted>
0.0925

> <Gold.Chemscore.DEInternal.Weighted>
1.3122

> <Gold.Chemscore.Rot.Weighted>
6.9769

> <Gold.Chemscore.Internal.Correction.Weighted>
   9.000000E+99

> <Gold.Protein.RotatedTorsions>
[ 6907 6896 6895 6894 ] final  141.02 input  -60.11 | X-H torsion
[ 7974 7965 7964 7962 ] final  133.73 input  175.53 | X-H torsion
[ 8008 7997 7996 7995 ] final  132.01 input   59.86 | X-H torsion
[ 10167 10162 10161 10158 ] final  -31.86 input  -65.29 | X-H torsion
[ 10718 10713 10712 10709 ] final  152.01 input   66.30 | X-H torsion
[ 10763 10752 10751 10750 ] final   87.95 input  -60.55 | X-H torsion
[ 11005 11000 10999 10996 ] final -158.74 input  -57.11 | X-H torsion

> <Gold.Protein.ActiveResidues>
 VAL166  LYS551  ARG553  GLY616  TRP617  ASP618  TYR619  PRO620  LYS621  CYS622 
 ASP623  PHE694  ASN695  SER759  ASP760  ASP761  ALA762  ILE779  LEU786  VAL792 
 PHE793  MET794  SER795  GLU796  ALA797  LYS798  CYS799  TRP800  GLU811  SER814 

> <Gold.Protein.RotatedAtoms>
  152.2360  133.5097  159.5242 H   0  0  0  0  0  0  0  0  0  0  0  0  # atno 6907 bound_to 6896
  150.7051  134.1152  159.4024 H   0  0  0  0  0  0  0  0  0  0  0  0  # atno 6908 bound_to 6896
  151.9074  135.0353  160.0562 H   0  0  0  0  0  0  0  0  0  0  0  0  # atno 6909 bound_to 6896
  144.9835  139.4479  143.5374 H   0  0  0  0  0  0  0  0  0  0  0  0  # atno 7974 bound_to 7965
  156.2977  140.2557  156.3020 H   0  0  0  0  0  0  0  0  0  0  0  0  # atno 8008 bound_to 7997
  154.9408  140.0396  157.2115 H   0  0  0  0  0  0  0  0  0  0  0  0  # atno 8009 bound_to 7997
  154.8128  140.2847  155.5846 H   0  0  0  0  0  0  0  0  0  0  0  0  # atno 8010 bound_to 7997
  140.7230  143.3738  151.1727 H   0  0  0  0  0  0  0  0  0  0  0  0  # atno 10167 bound_to 10162
  157.2633  131.0802  151.1650 H   0  0  0  0  0  0  0  0  0  0  0  0  # atno 10718 bound_to 10713
  153.1719  135.4525  154.9914 H   0  0  0  0  0  0  0  0  0  0  0  0  # atno 10763 bound_to 10752
  154.7972  135.3242  154.7641 H   0  0  0  0  0  0  0  0  0  0  0  0  # atno 10764 bound_to 10752
  153.8116  135.6954  153.4895 H   0  0  0  0  0  0  0  0  0  0  0  0  # atno 10765 bound_to 10752
  140.6503  134.4457  157.5235 H   0  0  0  0  0  0  0  0  0  0  0  0  # atno 11005 bound_to 11000
  146.3414  139.9123  142.8778 LP  0  0  0  0  0  0  0  0  0  0  0  0  # atno 17320 bound_to 7965
  145.2386  141.0001  143.3949 LP  0  0  0  0  0  0  0  0  0  0  0  0  # atno 17321 bound_to 7965
  139.7315  143.9066  152.3021 LP  0  0  0  0  0  0  0  0  0  0  0  0  # atno 17342 bound_to 10162
  139.8856  144.6994  150.8828 LP  0  0  0  0  0  0  0  0  0  0  0  0  # atno 17343 bound_to 10162
  157.3151  130.6909  149.6237 LP  0  0  0  0  0  0  0  0  0  0  0  0  # atno 17370 bound_to 10713
  155.9664  130.4352  150.5081 LP  0  0  0  0  0  0  0  0  0  0  0  0  # atno 17371 bound_to 10713
  139.9048  134.8474  156.1749 LP  0  0  0  0  0  0  0  0  0  0  0  0  # atno 17394 bound_to 11000
  141.0541  133.6874  156.1828 LP  0  0  0  0  0  0  0  0  0  0  0  0  # atno 17395 bound_to 11000

$$$$
