AV-unprocessed.smi:1667|AV-procd|sdf|6675|dock7
  -GOLD-   22720 7393D 1   1.00000     0.00000
 Structure written by MMmdl.
 45 47  0  0  0  0  0  0  0  0  1 V2000
  152.3502  138.1958  159.7722 C   0  0  0  0  0  0  0  0  0  0  0  0
  152.8308  138.9448  158.5339 C   0  0  0  0  0  0  0  0  0  0  0  0
  153.9548  139.4453  158.5188 O   0  0  0  0  0  0  0  0  0  0  0  0
  151.9712  139.0207  157.5069 N   0  0  0  0  0  0  0  0  0  0  0  0
  152.2127  139.7256  156.2492 C   0  0  1  0  0  0  0  0  0  0  0  0
  152.9401  138.8220  155.2417 C   0  0  0  0  0  0  0  0  0  0  0  0
  150.8850  140.2033  155.7164 C   0  0  0  0  0  0  0  0  0  0  0  0
  150.3934  139.7669  154.5529 N   0  0  0  0  0  0  0  0  0  0  0  0
  149.2189  140.4784  154.4252 C   0  0  0  0  0  0  0  0  0  0  0  0
  148.2444  140.4625  153.4017 C   0  0  0  0  0  0  0  0  0  0  0  0
  147.1122  141.2993  153.4812 C   0  0  0  0  0  0  0  0  0  0  0  0
  146.9409  142.1634  154.5814 C   0  0  0  0  0  0  0  0  0  0  0  0
  147.9006  142.1938  155.6112 C   0  0  0  0  0  0  0  0  0  0  0  0
  149.0268  141.3520  155.5313 C   0  0  0  0  0  0  0  0  0  0  0  0
  150.1292  141.1368  156.3558 N   0  0  0  0  0  0  0  0  0  0  0  0
  150.3916  141.8133  157.6243 C   0  0  0  0  0  0  0  0  0  0  0  0
  151.4716  142.9187  157.5406 C   0  0  1  0  0  0  0  0  0  0  0  0
  151.2125  143.7791  156.4488 O   0  0  0  0  0  0  0  0  0  0  0  0
  151.6639  143.6768  158.8483 C   0  0  0  0  0  0  0  0  0  0  0  0
  151.4300  145.0687  158.9230 C   0  0  0  0  0  0  0  0  0  0  0  0
  151.6146  145.7569  160.1377 C   0  0  0  0  0  0  0  0  0  0  0  0
  152.0353  145.0591  161.2856 C   0  0  0  0  0  0  0  0  0  0  0  0
  152.2647  143.6716  161.2197 C   0  0  0  0  0  0  0  0  0  0  0  0
  152.6621  142.9984  162.3251 F   0  0  0  0  0  0  0  0  0  0  0  0
  152.0791  142.9828  160.0051 C   0  0  0  0  0  0  0  0  0  0  0  0
  152.8450  140.5834  156.4700 H   0  0  0  0  0  0  0  0  0  0  0  0
  151.2712  138.0386  159.7501 H   0  0  0  0  0  0  0  0  0  0  0  0
  152.5921  138.7624  160.6718 H   0  0  0  0  0  0  0  0  0  0  0  0
  152.8389  137.2235  159.8370 H   0  0  0  0  0  0  0  0  0  0  0  0
  151.0688  138.5780  157.6066 H   0  0  0  0  0  0  0  0  0  0  0  0
  153.1225  139.3515  154.3063 H   0  0  0  0  0  0  0  0  0  0  0  0
  152.3543  137.9317  155.0109 H   0  0  0  0  0  0  0  0  0  0  0  0
  153.9061  138.4948  155.6272 H   0  0  0  0  0  0  0  0  0  0  0  0
  148.3693  139.8070  152.5527 H   0  0  0  0  0  0  0  0  0  0  0  0
  146.3732  141.2797  152.6934 H   0  0  0  0  0  0  0  0  0  0  0  0
  146.0722  142.8031  154.6349 H   0  0  0  0  0  0  0  0  0  0  0  0
  147.7701  142.8550  156.4547 H   0  0  0  0  0  0  0  0  0  0  0  0
  149.4620  142.2146  158.0262 H   0  0  0  0  0  0  0  0  0  0  0  0
  150.7067  141.0570  158.3442 H   0  0  0  0  0  0  0  0  0  0  0  0
  152.4198  142.4325  157.3077 H   0  0  0  0  0  0  0  0  0  0  0  0
  150.2828  143.9446  156.4127 H   0  0  0  0  0  0  0  0  0  0  0  0
  151.1004  145.6141  158.0506 H   0  0  0  0  0  0  0  0  0  0  0  0
  151.4307  146.8199  160.1896 H   0  0  0  0  0  0  0  0  0  0  0  0
  152.1743  145.5861  162.2181 H   0  0  0  0  0  0  0  0  0  0  0  0
  152.2561  141.9181  159.9654 H   0  0  0  0  0  0  0  0  0  0  0  0
  1  2  1  0  0  0  0
  1 27  1  0  0  0  0
  1 28  1  0  0  0  0
  1 29  1  0  0  0  0
  2  3  2  0  0  0  0
  2  4  1  0  0  0  0
  4  5  1  0  0  0  0
  4 30  1  0  0  0  0
  5 26  1  0  0  0  0
  5  6  1  0  0  0  0
  5  7  1  0  0  0  0
  6 31  1  0  0  0  0
  6 32  1  0  0  0  0
  6 33  1  0  0  0  0
  7 15  1  0  0  0  0
  7  8  2  0  0  0  0
  8  9  1  0  0  0  0
  9 14  2  0  0  0  0
  9 10  1  0  0  0  0
 10 11  2  0  0  0  0
 10 34  1  0  0  0  0
 11 12  1  0  0  0  0
 11 35  1  0  0  0  0
 12 13  2  0  0  0  0
 12 36  1  0  0  0  0
 13 14  1  0  0  0  0
 13 37  1  0  0  0  0
 14 15  1  0  0  0  0
 15 16  1  0  0  0  0
 16 17  1  0  0  0  0
 16 38  1  0  0  0  0
 16 39  1  0  0  0  0
 17 18  1  0  0  0  0
 17 19  1  0  0  0  0
 17 40  1  0  0  0  0
 18 41  1  0  0  0  0
 19 25  1  0  0  0  0
 19 20  2  0  0  0  0
 20 21  1  0  0  0  0
 20 42  1  0  0  0  0
 21 22  2  0  0  0  0
 21 43  1  0  0  0  0
 22 23  1  0  0  0  0
 22 44  1  0  0  0  0
 23 24  1  0  0  0  0
 23 25  2  0  0  0  0
 25 45  1  0  0  0  0
M  END
> <s_m_source_file>
AV-unprocessed.smi

> <i_m_source_file_index>
1667

> <i_lp_mmshare_version>
43012

> <i_f3d_flags>
0

> <s_epik_input>
W0NIM11DKD1PKVtOSF1bQ0BASF0oW0NIM10pYyhuMSluKGMoYzEyKVtjSF1bY0hdW2NIXVtjSF0yKVtDSDJdW0NASF0oW09IXSljM1tjSF1bY0hdW2NIXWMoRilbY0hdMw==

> <s_epik_cmdline>
J2VwaWtfcHl0aG9uJywgJy1waCcsICc3LjAnLCAnLXRuJywgJzgnLCAnLW1hJywgJzIwMCcsICctbWV0YWxfYmluZGluZycsICctaW1hZScsICc8aW5maWxlLm1hZT4nLCAnLW9tYWUnLCAnPG91dGZpbGUubWFlPic=

> <r_epik_Ionization_Penalty>
0.133011

> <r_epik_Ionization_Penalty_Charging>
0

> <r_epik_Ionization_Penalty_Neutral>
0.133011

> <r_epik_State_Penalty>
0.122384

> <r_epik_Charging_Adjusted_Penalty>
0.122384

> <i_epik_Tot_Q>
0

> <i_epik_Tot_abs_Q>
0

> <r_epik_Metal_State_Penalty>
0.0997374

> <b_epik_Metal_Only>
0

> <s_lp_Force_Field>
OPLS_2005

> <r_lp_Energy>
5.5788

> <b_lp_Chiralities_Consistent>
1

> <s_lp_Variant>
AV-unprocessed.smi:1667-3

> <Gold.Version>
5.8.1

> <Gold.Id.Protein>
6NUR|6NUR_protein|mol2

> <Gold.PLP.Fitness>
62.5838

> <Gold.PLP.PLP>
-56.8661

> <Gold.PLP.part.hbond>
-2.8799

> <Gold.PLP.part.metal>
0.0000

> <Gold.PLP.part.buried>
0.5964

> <Gold.PLP.part.nonpolar>
-54.4658

> <Gold.PLP.part.repulsive>
0.1786

> <Gold.PLP.ligand.clash>
0.0000

> <Gold.PLP.ligand.torsion>
0.7284

> <Gold.PLP.Chemscore.Hbond>
2.3600

> <Gold.PLP.Chemscore.CHOScore>
0.0000

> <Gold.PLP.Chemscore.Metal>
0.0000

> <Gold.Chemscore.Hbonds>
donor molecule, donor type, donor heavy atom, donor atom, acceptor molecule, acceptor atom, score
      L1  H    18    41       P1  8028  0.99
      P1  H  7989  7998       L1     8  0.65
      P1  H  7997  8010       L1     3  0.93

> <Gold.PLP.Chemscore.Internal.Correction>
0.0945

> <Gold.Rescore>
     Score         DG    S(hbond)    S(metal)    S(lipo)     H(rot)  DE(clash)    DE(int)     intcor
     19.43     -22.28       1.84        0.00     145.10       2.48       2.17       0.68       ----

> <Gold.Chemscore.Fitness>
19.4272

> <Gold.Chemscore.DG>
-22.2765

> <Gold.Chemscore.ZeroCoef>
-5.4800

> <Gold.Chemscore.Hbond>
1.8438

> <Gold.Chemscore.Metal>
0.0000

> <Gold.Chemscore.Lipo>
145.0997

> <Gold.Chemscore.Internal_Hbond>
0.0000

> <Gold.Chemscore.DEClash>
2.1711

> <Gold.Chemscore.DEInternal>
0.6782

> <Gold.Chemscore.Rot>
2.4760

> <Gold.Chemscore.Internal.Correction>
   9.000000E+99

> <Gold.Chemscore.Hbonds>
donor molecule, donor type, donor heavy atom, donor atom, acceptor molecule, acceptor atom, score
      L1  H    18    41       P1  8028  0.94
      P1  H  7989  7998       L1     8  0.02
      P1  H  7997  8010       L1     3  0.86

> <Gold.Chemscore.Hbond.Weighted>
-6.1583

> <Gold.Chemscore.Metal.Weighted>
-0.0000

> <Gold.Chemscore.Lipo.Weighted>
-16.9767

> <Gold.Chemscore.Internal_Hbond.Weighted>
0.0000

> <Gold.Chemscore.DEClash.Weighted>
2.1711

> <Gold.Chemscore.DEInternal.Weighted>
0.6782

> <Gold.Chemscore.Rot.Weighted>
6.3385

> <Gold.Chemscore.Internal.Correction.Weighted>
   9.000000E+99

> <Gold.Protein.RotatedTorsions>
[ 6907 6896 6895 6894 ] final  164.94 input  -60.11 | X-H torsion
[ 7974 7965 7964 7962 ] final  -17.76 input  175.53 | X-H torsion
[ 8008 7997 7996 7995 ] final   40.69 input   59.86 | X-H torsion
[ 10167 10162 10161 10158 ] final  169.09 input  -65.29 | X-H torsion
[ 10718 10713 10712 10709 ] final  -63.55 input   66.30 | X-H torsion
[ 10763 10752 10751 10750 ] final   65.62 input  -60.55 | X-H torsion
[ 11005 11000 10999 10996 ] final  178.81 input  -57.11 | X-H torsion

> <Gold.Protein.ActiveResidues>
 VAL166  LYS551  ARG553  GLY616  TRP617  ASP618  TYR619  PRO620  LYS621  CYS622 
 ASP623  PHE694  ASN695  SER759  ASP760  ASP761  ALA762  ILE779  LEU786  VAL792 
 PHE793  MET794  SER795  GLU796  ALA797  LYS798  CYS799  TRP800  GLU811  SER814 

> <Gold.Protein.RotatedAtoms>
  151.9021  133.3540  159.3834 H   0  0  0  0  0  0  0  0  0  0  0  0  # atno 6907 bound_to 6896
  150.7077  134.4818  159.5483 H   0  0  0  0  0  0  0  0  0  0  0  0  # atno 6908 bound_to 6896
  152.2408  134.8231  160.0511 H   0  0  0  0  0  0  0  0  0  0  0  0  # atno 6909 bound_to 6896
  146.1925  140.3825  142.8453 H   0  0  0  0  0  0  0  0  0  0  0  0  # atno 7974 bound_to 7965
  155.2572  140.3356  155.4276 H   0  0  0  0  0  0  0  0  0  0  0  0  # atno 8008 bound_to 7997
  156.2190  140.1801  156.7564 H   0  0  0  0  0  0  0  0  0  0  0  0  # atno 8009 bound_to 7997
  154.5797  140.0656  156.9070 H   0  0  0  0  0  0  0  0  0  0  0  0  # atno 8010 bound_to 7997
  139.4983  144.3744  151.9690 H   0  0  0  0  0  0  0  0  0  0  0  0  # atno 10167 bound_to 10162
  156.0784  130.4222  150.1293 H   0  0  0  0  0  0  0  0  0  0  0  0  # atno 10718 bound_to 10713
  153.0104  135.5350  154.6696 H   0  0  0  0  0  0  0  0  0  0  0  0  # atno 10763 bound_to 10752
  154.5884  135.2856  155.0663 H   0  0  0  0  0  0  0  0  0  0  0  0  # atno 10764 bound_to 10752
  154.1766  135.6523  153.5075 H   0  0  0  0  0  0  0  0  0  0  0  0  # atno 10765 bound_to 10752
  140.3992  134.6792  157.4552 H   0  0  0  0  0  0  0  0  0  0  0  0  # atno 11005 bound_to 11000
  144.8515  140.7008  143.6165 LP  0  0  0  0  0  0  0  0  0  0  0  0  # atno 17320 bound_to 7965
  145.3747  139.1650  143.4313 LP  0  0  0  0  0  0  0  0  0  0  0  0  # atno 17321 bound_to 7965
  140.3180  144.3461  150.6017 LP  0  0  0  0  0  0  0  0  0  0  0  0  # atno 17342 bound_to 10162
  140.5746  143.2177  151.7539 LP  0  0  0  0  0  0  0  0  0  0  0  0  # atno 17343 bound_to 10162
  156.9330  130.9720  151.3529 LP  0  0  0  0  0  0  0  0  0  0  0  0  # atno 17370 bound_to 10713
  157.5890  130.8430  149.8631 LP  0  0  0  0  0  0  0  0  0  0  0  0  # atno 17371 bound_to 10713
  140.0348  134.6352  155.9057 LP  0  0  0  0  0  0  0  0  0  0  0  0  # atno 17394 bound_to 11000
  141.1863  133.6557  156.5232 LP  0  0  0  0  0  0  0  0  0  0  0  0  # atno 17395 bound_to 11000

$$$$
