AV-unprocessed.smi:1036|AV-procd|sdf|4518|dock4
  -GOLD-   22720 2533D 1   1.00000     0.00000
 Structure written by MMmdl.
 41 43  0  0  0  0  0  0  0  0  1 V2000
  155.2398  136.6604  156.4006 O   0  0  0  0  0  0  0  0  0  0  0  0
  154.4798  137.7340  156.9103 C   0  0  0  0  0  0  0  0  0  0  0  0
  153.4020  138.1388  155.8946 C   0  0  0  0  0  0  0  0  0  0  0  0
  152.4309  139.0587  156.4586 N   0  0  0  0  0  0  0  0  0  0  0  0
  151.2753  139.6257  155.9339 C   0  0  0  0  0  0  0  0  0  0  0  0
  150.8282  139.3867  154.7024 N   0  0  0  0  0  0  0  0  0  0  0  0
  149.6814  140.1564  154.6513 C   0  0  0  0  0  0  0  0  0  0  0  0
  148.7432  140.3376  153.6098 C   0  0  0  0  0  0  0  0  0  0  0  0
  147.6313  141.1863  153.7906 C   0  0  0  0  0  0  0  0  0  0  0  0
  147.4417  141.8650  155.0119 C   0  0  0  0  0  0  0  0  0  0  0  0
  148.3637  141.6984  156.0629 C   0  0  0  0  0  0  0  0  0  0  0  0
  149.4716  140.8502  155.8782 C   0  0  0  0  0  0  0  0  0  0  0  0
  150.5354  140.4713  156.6913 N   0  0  0  0  0  0  0  0  0  0  0  0
  150.7645  140.9056  158.0634 C   0  0  0  0  0  0  0  0  0  0  0  0
  152.1449  141.5678  158.2396 C   0  0  2  0  0  0  0  0  0  0  0  0
  153.1106  140.5427  158.3596 O   0  0  0  0  0  0  0  0  0  0  0  0
  152.1797  142.5388  159.4147 C   0  0  0  0  0  0  0  0  0  0  0  0
  152.6329  142.1089  160.6821 C   0  0  0  0  0  0  0  0  0  0  0  0
  152.6599  143.0025  161.7695 C   0  0  0  0  0  0  0  0  0  0  0  0
  153.0957  142.5816  162.9800 F   0  0  0  0  0  0  0  0  0  0  0  0
  152.2283  144.3313  161.6002 C   0  0  0  0  0  0  0  0  0  0  0  0
  151.7644  144.7640  160.3437 C   0  0  0  0  0  0  0  0  0  0  0  0
  151.7394  143.8727  159.2535 C   0  0  0  0  0  0  0  0  0  0  0  0
  151.2830  144.3051  158.0536 F   0  0  0  0  0  0  0  0  0  0  0  0
  155.3750  136.0343  157.0953 H   0  0  0  0  0  0  0  0  0  0  0  0
  154.0041  137.3872  157.8279 H   0  0  0  0  0  0  0  0  0  0  0  0
  155.1264  138.5696  157.1814 H   0  0  0  0  0  0  0  0  0  0  0  0
  153.8443  138.5649  154.9935 H   0  0  0  0  0  0  0  0  0  0  0  0
  152.8559  137.2487  155.5805 H   0  0  0  0  0  0  0  0  0  0  0  0
  152.6441  139.3408  157.4044 H   0  0  0  0  0  0  0  0  0  0  0  0
  148.8792  139.8228  152.6703 H   0  0  0  0  0  0  0  0  0  0  0  0
  146.9202  141.3172  152.9882 H   0  0  0  0  0  0  0  0  0  0  0  0
  146.5875  142.5135  155.1413 H   0  0  0  0  0  0  0  0  0  0  0  0
  148.2206  142.2155  157.0002 H   0  0  0  0  0  0  0  0  0  0  0  0
  149.9667  141.5772  158.3818 H   0  0  0  0  0  0  0  0  0  0  0  0
  150.6901  140.0253  158.7035 H   0  0  0  0  0  0  0  0  0  0  0  0
  152.3981  142.1090  157.3275 H   0  0  0  0  0  0  0  0  0  0  0  0
  152.9221  140.0437  159.1398 H   0  0  0  0  0  0  0  0  0  0  0  0
  152.9598  141.0896  160.8264 H   0  0  0  0  0  0  0  0  0  0  0  0
  152.2457  145.0160  162.4352 H   0  0  0  0  0  0  0  0  0  0  0  0
  151.4258  145.7815  160.2160 H   0  0  0  0  0  0  0  0  0  0  0  0
  1  2  1  0  0  0  0
  1 25  1  0  0  0  0
  2  3  1  0  0  0  0
  2 26  1  0  0  0  0
  2 27  1  0  0  0  0
  3  4  1  0  0  0  0
  3 28  1  0  0  0  0
  3 29  1  0  0  0  0
  4  5  1  0  0  0  0
  4 30  1  0  0  0  0
  5 13  1  0  0  0  0
  5  6  2  0  0  0  0
  6  7  1  0  0  0  0
  7 12  2  0  0  0  0
  7  8  1  0  0  0  0
  8  9  2  0  0  0  0
  8 31  1  0  0  0  0
  9 10  1  0  0  0  0
  9 32  1  0  0  0  0
 10 11  2  0  0  0  0
 10 33  1  0  0  0  0
 11 12  1  0  0  0  0
 11 34  1  0  0  0  0
 12 13  1  0  0  0  0
 13 14  1  0  0  0  0
 14 15  1  0  0  0  0
 14 35  1  0  0  0  0
 14 36  1  0  0  0  0
 15 16  1  0  0  0  0
 15 17  1  0  0  0  0
 15 37  1  0  0  0  0
 16 38  1  0  0  0  0
 17 23  1  0  0  0  0
 17 18  2  0  0  0  0
 18 19  1  0  0  0  0
 18 39  1  0  0  0  0
 19 20  1  0  0  0  0
 19 21  2  0  0  0  0
 21 22  1  0  0  0  0
 21 40  1  0  0  0  0
 22 23  2  0  0  0  0
 22 41  1  0  0  0  0
 23 24  1  0  0  0  0
M  END
> <s_m_source_file>
AV-unprocessed.smi

> <i_m_source_file_index>
1036

> <i_lp_mmshare_version>
43012

> <i_f3d_flags>
0

> <s_epik_input>
W09IXVtDSDJdW0NIMl1bTkhdYyhuMSluKGMoYzEyKVtjSF1bY0hdW2NIXVtjSF0yKVtDSDJdW0NASF0oW09IXSljM1tjSF1jKEYpW2NIXVtjSF1jM0Y=

> <s_epik_cmdline>
J2VwaWtfcHl0aG9uJywgJy1waCcsICc3LjAnLCAnLXRuJywgJzgnLCAnLW1hJywgJzIwMCcsICctbWV0YWxfYmluZGluZycsICctaW1hZScsICc8aW5maWxlLm1hZT4nLCAnLW9tYWUnLCAnPG91dGZpbGUubWFlPic=

> <r_epik_Ionization_Penalty>
1.30972

> <r_epik_Ionization_Penalty_Charging>
0

> <r_epik_Ionization_Penalty_Neutral>
1.30972

> <r_epik_State_Penalty>
1.38438

> <r_epik_Charging_Adjusted_Penalty>
1.38438

> <i_epik_Tot_Q>
0

> <i_epik_Tot_abs_Q>
0

> <r_epik_Metal_State_Penalty>
0.00551145

> <b_epik_Metal_Only>
0

> <s_lp_Force_Field>
OPLS_2005

> <r_lp_Energy>
9.11105

> <b_lp_Chiralities_Consistent>
1

> <s_lp_Variant>
AV-unprocessed.smi:1036-3

> <Gold.Version>
5.8.1

> <Gold.Id.Protein>
6NUR|6NUR_protein|mol2

> <Gold.PLP.Fitness>
52.9337

> <Gold.PLP.PLP>
-49.0988

> <Gold.PLP.part.hbond>
-2.3532

> <Gold.PLP.part.metal>
0.0000

> <Gold.PLP.part.buried>
1.0547

> <Gold.PLP.part.nonpolar>
-48.1237

> <Gold.PLP.part.repulsive>
0.2340

> <Gold.PLP.ligand.clash>
0.0000

> <Gold.PLP.ligand.torsion>
1.0001

> <Gold.PLP.Chemscore.Hbond>
1.9289

> <Gold.PLP.Chemscore.CHOScore>
0.0000

> <Gold.PLP.Chemscore.Metal>
0.0000

> <Gold.Chemscore.Hbonds>
donor molecule, donor type, donor heavy atom, donor atom, acceptor molecule, acceptor atom, score
      P1  H  7989  7998       L1     6  0.22
      P1  H  7997  8009       L1    16  0.76
      P1  H 10752 10765       L1     1  0.52

> <Gold.PLP.Chemscore.Internal.Correction>
0.0484

> <Gold.Rescore>
     Score         DG    S(hbond)    S(metal)    S(lipo)     H(rot)  DE(clash)    DE(int)     intcor
     13.84     -18.29       1.74        0.00     130.30       3.22       1.74       2.71       ----

> <Gold.Chemscore.Fitness>
13.8399

> <Gold.Chemscore.DG>
-18.2933

> <Gold.Chemscore.ZeroCoef>
-5.4800

> <Gold.Chemscore.Hbond>
1.7395

> <Gold.Chemscore.Metal>
0.0000

> <Gold.Chemscore.Lipo>
130.2978

> <Gold.Chemscore.Internal_Hbond>
0.0000

> <Gold.Chemscore.DEClash>
1.7411

> <Gold.Chemscore.DEInternal>
2.7124

> <Gold.Chemscore.Rot>
3.2194

> <Gold.Chemscore.Internal.Correction>
   9.000000E+99

> <Gold.Chemscore.Hbonds>
donor molecule, donor type, donor heavy atom, donor atom, acceptor molecule, acceptor atom, score
      P1  H  7997  8009       L1    16  0.70
      P1  H 10752 10765       L1     1  0.03

> <Gold.Chemscore.Hbond.Weighted>
-5.8101

> <Gold.Chemscore.Metal.Weighted>
-0.0000

> <Gold.Chemscore.Lipo.Weighted>
-15.2448

> <Gold.Chemscore.Internal_Hbond.Weighted>
0.0000

> <Gold.Chemscore.DEClash.Weighted>
1.7411

> <Gold.Chemscore.DEInternal.Weighted>
2.7124

> <Gold.Chemscore.Rot.Weighted>
8.2416

> <Gold.Chemscore.Internal.Correction.Weighted>
   9.000000E+99

> <Gold.Protein.RotatedTorsions>
[ 6907 6896 6895 6894 ] final -137.85 input  -60.11 | X-H torsion
[ 7974 7965 7964 7962 ] final  165.74 input  175.53 | X-H torsion
[ 8008 7997 7996 7995 ] final  154.82 input   59.86 | X-H torsion
[ 10167 10162 10161 10158 ] final  128.62 input  -65.29 | X-H torsion
[ 10718 10713 10712 10709 ] final  160.58 input   66.30 | X-H torsion
[ 10763 10752 10751 10750 ] final  -69.86 input  -60.55 | X-H torsion
[ 11005 11000 10999 10996 ] final -136.73 input  -57.11 | X-H torsion

> <Gold.Protein.ActiveResidues>
 VAL166  LYS551  ARG553  GLY616  TRP617  ASP618  TYR619  PRO620  LYS621  CYS622 
 ASP623  PHE694  ASN695  SER759  ASP760  ASP761  ALA762  ILE779  LEU786  VAL792 
 PHE793  MET794  SER795  GLU796  ALA797  LYS798  CYS799  TRP800  GLU811  SER814 

> <Gold.Protein.RotatedAtoms>
  151.0276  133.5819  159.2664 H   0  0  0  0  0  0  0  0  0  0  0  0  # atno 6907 bound_to 6896
  151.2912  135.0741  159.9215 H   0  0  0  0  0  0  0  0  0  0  0  0  # atno 6908 bound_to 6896
  152.5337  133.9974  159.7933 H   0  0  0  0  0  0  0  0  0  0  0  0  # atno 6909 bound_to 6896
  144.7490  139.8515  143.6372 H   0  0  0  0  0  0  0  0  0  0  0  0  # atno 7974 bound_to 7965
  156.2511  140.1956  156.6706 H   0  0  0  0  0  0  0  0  0  0  0  0  # atno 8008 bound_to 7997
  154.6396  140.0585  156.9855 H   0  0  0  0  0  0  0  0  0  0  0  0  # atno 8009 bound_to 7997
  155.1584  140.3257  155.4419 H   0  0  0  0  0  0  0  0  0  0  0  0  # atno 8010 bound_to 7997
  139.5518  144.6819  151.4301 H   0  0  0  0  0  0  0  0  0  0  0  0  # atno 10167 bound_to 10162
  157.1484  131.0558  151.2292 H   0  0  0  0  0  0  0  0  0  0  0  0  # atno 10718 bound_to 10713
  154.4094  135.6012  153.5944 H   0  0  0  0  0  0  0  0  0  0  0  0  # atno 10763 bound_to 10752
  152.9790  135.5926  154.4088 H   0  0  0  0  0  0  0  0  0  0  0  0  # atno 10764 bound_to 10752
  154.3898  135.2842  155.2140 H   0  0  0  0  0  0  0  0  0  0  0  0  # atno 10765 bound_to 10752
  140.8777  134.1971  157.4611 H   0  0  0  0  0  0  0  0  0  0  0  0  # atno 11005 bound_to 11000
  146.1413  139.4470  143.0107 LP  0  0  0  0  0  0  0  0  0  0  0  0  # atno 17320 bound_to 7965
  145.7014  141.0135  143.1502 LP  0  0  0  0  0  0  0  0  0  0  0  0  # atno 17321 bound_to 7965
  140.6782  143.8142  150.7086 LP  0  0  0  0  0  0  0  0  0  0  0  0  # atno 17342 bound_to 10162
  140.1587  143.4294  152.2082 LP  0  0  0  0  0  0  0  0  0  0  0  0  # atno 17343 bound_to 10162
  157.4243  130.7455  149.6938 LP  0  0  0  0  0  0  0  0  0  0  0  0  # atno 17370 bound_to 10713
  155.9775  130.4062  150.3708 LP  0  0  0  0  0  0  0  0  0  0  0  0  # atno 17371 bound_to 10713
  139.8717  134.9803  156.5071 LP  0  0  0  0  0  0  0  0  0  0  0  0  # atno 17394 bound_to 11000
  140.8498  133.8141  155.9157 LP  0  0  0  0  0  0  0  0  0  0  0  0  # atno 17395 bound_to 11000

$$$$
