AV-unprocessed.smi:2157|AV-procd|sdf|8786|dock3
  -GOLD-   2272011563D 1   1.00000     0.00000
 Structure written by MMmdl.
 41 42  0  0  0  0  0  0  0  0  1 V2000
  153.0383  142.7447  162.5501 C   0  0  0  0  0  0  0  0  0  0  0  0
  152.3475  143.0186  161.2067 C   0  0  1  0  0  0  0  0  0  0  0  0
  152.1787  144.5297  160.9584 C   0  0  0  0  0  0  0  0  0  0  0  0
  151.4889  144.8080  159.6136 C   0  0  0  0  0  0  0  0  0  0  0  0
  152.2451  144.1472  158.4481 C   0  0  0  0  0  0  0  0  0  0  0  0
  152.4484  142.6357  158.6684 C   0  0  2  0  0  0  0  0  0  0  0  0
  151.1744  141.9301  158.5391 N   0  0  0  0  0  0  0  0  0  0  0  0
  150.8754  141.0259  157.5944 C   0  0  0  0  0  0  0  0  0  0  0  0
  151.6666  140.6788  156.7161 O   0  0  0  0  0  0  0  0  0  0  0  0
  149.4734  140.4078  157.6792 C   0  0  0  0  0  0  0  0  0  0  0  0
  148.5120  141.0246  156.7563 N   0  0  0  0  0  0  0  0  0  0  0  0
  148.7927  141.0662  155.4027 C   0  0  0  0  0  0  0  0  0  0  0  0
  147.9718  141.6278  154.4886 C   0  0  0  0  0  0  0  0  0  0  0  0
  146.7083  142.2334  154.8903 C   0  0  0  0  0  0  0  0  0  0  0  0
  145.9393  142.7762  154.0958 O   0  0  0  0  0  0  0  0  0  0  0  0
  146.4372  142.1628  156.2772 N   0  0  0  0  0  0  0  0  0  0  0  0
  145.2089  142.7627  156.7561 C   0  0  0  0  0  0  0  0  0  0  0  0
  147.3100  141.5921  157.2317 C   0  0  0  0  0  0  0  0  0  0  0  0
  147.0509  141.5883  158.4377 O   0  0  0  0  0  0  0  0  0  0  0  0
  153.1104  142.3621  160.0370 C   0  0  0  0  0  0  0  0  0  0  0  0
  154.0438  143.1661  162.5723 H   0  0  0  0  0  0  0  0  0  0  0  0
  153.1217  141.6737  162.7372 H   0  0  0  0  0  0  0  0  0  0  0  0
  152.4760  143.1803  163.3764 H   0  0  0  0  0  0  0  0  0  0  0  0
  151.3531  142.5726  161.2571 H   0  0  0  0  0  0  0  0  0  0  0  0
  151.5981  144.9781  161.7655 H   0  0  0  0  0  0  0  0  0  0  0  0
  153.1544  145.0175  160.9728 H   0  0  0  0  0  0  0  0  0  0  0  0
  150.4629  144.4396  159.6455 H   0  0  0  0  0  0  0  0  0  0  0  0
  151.4224  145.8834  159.4478 H   0  0  0  0  0  0  0  0  0  0  0  0
  151.7181  144.3257  157.5099 H   0  0  0  0  0  0  0  0  0  0  0  0
  153.2198  144.6254  158.3423 H   0  0  0  0  0  0  0  0  0  0  0  0
  153.1139  142.2734  157.8827 H   0  0  0  0  0  0  0  0  0  0  0  0
  150.4650  142.1487  159.2236 H   0  0  0  0  0  0  0  0  0  0  0  0
  149.5602  139.3414  157.4671 H   0  0  0  0  0  0  0  0  0  0  0  0
  149.1028  140.4740  158.7040 H   0  0  0  0  0  0  0  0  0  0  0  0
  149.7200  140.6341  155.0556 H   0  0  0  0  0  0  0  0  0  0  0  0
  148.2553  141.6320  153.4465 H   0  0  0  0  0  0  0  0  0  0  0  0
  144.8636  142.2315  157.6438 H   0  0  0  0  0  0  0  0  0  0  0  0
  144.4365  142.6726  155.9910 H   0  0  0  0  0  0  0  0  0  0  0  0
  145.4327  143.8073  156.9775 H   0  0  0  0  0  0  0  0  0  0  0  0
  154.1311  142.7468  160.0161 H   0  0  0  0  0  0  0  0  0  0  0  0
  153.2005  141.2879  160.2036 H   0  0  0  0  0  0  0  0  0  0  0  0
  1  2  1  0  0  0  0
  1 21  1  0  0  0  0
  1 22  1  0  0  0  0
  1 23  1  0  0  0  0
  2 20  1  0  0  0  0
  2  3  1  0  0  0  0
  2 24  1  0  0  0  0
  3  4  1  0  0  0  0
  3 25  1  0  0  0  0
  3 26  1  0  0  0  0
  4  5  1  0  0  0  0
  4 27  1  0  0  0  0
  4 28  1  0  0  0  0
  5  6  1  0  0  0  0
  5 29  1  0  0  0  0
  5 30  1  0  0  0  0
  6  7  1  0  0  0  0
  6 20  1  0  0  0  0
  6 31  1  0  0  0  0
  7  8  1  0  0  0  0
  7 32  1  0  0  0  0
  8  9  2  0  0  0  0
  8 10  1  0  0  0  0
 10 11  1  0  0  0  0
 10 33  1  0  0  0  0
 10 34  1  0  0  0  0
 11 18  1  0  0  0  0
 11 12  1  0  0  0  0
 12 13  2  0  0  0  0
 12 35  1  0  0  0  0
 13 14  1  0  0  0  0
 13 36  1  0  0  0  0
 14 15  2  0  0  0  0
 14 16  1  0  0  0  0
 16 17  1  0  0  0  0
 16 18  1  0  0  0  0
 17 37  1  0  0  0  0
 17 38  1  0  0  0  0
 17 39  1  0  0  0  0
 18 19  2  0  0  0  0
 20 40  1  0  0  0  0
 20 41  1  0  0  0  0
M  END
> <s_m_source_file>
AV-unprocessed.smi

> <i_m_source_file_index>
2157

> <i_lp_mmshare_version>
43012

> <i_f3d_flags>
0

> <s_epik_input>
W0NIM11bQ0BASF0xW0NIMl1bQ0gyXVtDSDJdW0NASF0oW0NIMl0xKVtOSF1DKD1PKVtDSDJdbjJbY0hdW2NIXWMoPU8pbihbQ0gzXSljMj1P

> <s_epik_cmdline>
J2VwaWtfcHl0aG9uJywgJy1waCcsICc3LjAnLCAnLXRuJywgJzgnLCAnLW1hJywgJzIwMCcsICctbWV0YWxfYmluZGluZycsICctaW1hZScsICc8aW5maWxlLm1hZT4nLCAnLW9tYWUnLCAnPG91dGZpbGUubWFlPic=

> <r_lp_tautomer_probability>
1

> <r_epik_Ionization_Penalty>
3.1838e-08

> <r_epik_Ionization_Penalty_Charging>
1.27911e-08

> <r_epik_Ionization_Penalty_Neutral>
1.90469e-08

> <r_epik_State_Penalty>
-0

> <r_epik_Charging_Adjusted_Penalty>
1.27911e-08

> <i_epik_Tot_Q>
0

> <i_epik_Tot_abs_Q>
0

> <r_epik_Metal_State_Penalty>
-0

> <b_epik_Metal_Only>
0

> <s_lp_Force_Field>
OPLS_2005

> <r_lp_Energy>
16.1054

> <b_lp_Chiralities_Consistent>
1

> <s_lp_Variant>
AV-unprocessed.smi:2157-4

> <Gold.Version>
5.8.1

> <Gold.Id.Protein>
6NUR|6NUR_protein|mol2

> <Gold.PLP.Fitness>
43.6212

> <Gold.PLP.PLP>
-43.9498

> <Gold.PLP.part.hbond>
-1.0000

> <Gold.PLP.part.metal>
0.0000

> <Gold.PLP.part.buried>
-7.6509

> <Gold.PLP.part.nonpolar>
-36.1136

> <Gold.PLP.part.repulsive>
0.3418

> <Gold.PLP.ligand.clash>
0.0000

> <Gold.PLP.ligand.torsion>
0.3268

> <Gold.PLP.Chemscore.Hbond>
0.1053

> <Gold.PLP.Chemscore.CHOScore>
0.0000

> <Gold.PLP.Chemscore.Metal>
0.0000

> <Gold.Chemscore.Hbonds>
donor molecule, donor type, donor heavy atom, donor atom, acceptor molecule, acceptor atom, score
      P1  H  6934  6946       L1    19  0.07

> <Gold.PLP.Chemscore.Internal.Correction>
0.0091

> <Gold.Rescore>
     Score         DG    S(hbond)    S(metal)    S(lipo)     H(rot)  DE(clash)    DE(int)     intcor
     14.47     -14.91       0.55        0.00      98.28       1.52       0.12       0.32       ----

> <Gold.Chemscore.Fitness>
14.4691

> <Gold.Chemscore.DG>
-14.9065

> <Gold.Chemscore.ZeroCoef>
-5.4800

> <Gold.Chemscore.Hbond>
0.5479

> <Gold.Chemscore.Metal>
0.0000

> <Gold.Chemscore.Lipo>
98.2763

> <Gold.Chemscore.Internal_Hbond>
0.0000

> <Gold.Chemscore.DEClash>
0.1213

> <Gold.Chemscore.DEInternal>
0.3160

> <Gold.Chemscore.Rot>
1.5242

> <Gold.Chemscore.Internal.Correction>
   9.000000E+99

> <Gold.Chemscore.Hbonds>
donor molecule, donor type, donor heavy atom, donor atom, acceptor molecule, acceptor atom, score
      P1  H  6934  6946       L1    19  0.08

> <Gold.Chemscore.Hbond.Weighted>
-1.8301

> <Gold.Chemscore.Metal.Weighted>
-0.0000

> <Gold.Chemscore.Lipo.Weighted>
-11.4983

> <Gold.Chemscore.Internal_Hbond.Weighted>
0.0000

> <Gold.Chemscore.DEClash.Weighted>
0.1213

> <Gold.Chemscore.DEInternal.Weighted>
0.3160

> <Gold.Chemscore.Rot.Weighted>
3.9019

> <Gold.Chemscore.Internal.Correction.Weighted>
   9.000000E+99

> <Gold.Protein.RotatedTorsions>
[ 6907 6896 6895 6894 ] final  109.09 input  -60.11 | X-H torsion
[ 7974 7965 7964 7962 ] final   15.13 input  175.53 | X-H torsion
[ 8008 7997 7996 7995 ] final   58.29 input   59.86 | X-H torsion
[ 10167 10162 10161 10158 ] final -146.91 input  -65.29 | X-H torsion
[ 10718 10713 10712 10709 ] final -144.68 input   66.30 | X-H torsion
[ 10763 10752 10751 10750 ] final  160.44 input  -60.55 | X-H torsion
[ 11005 11000 10999 10996 ] final   53.96 input  -57.11 | X-H torsion

> <Gold.Protein.ActiveResidues>
 VAL166  LYS551  ARG553  GLY616  TRP617  ASP618  TYR619  PRO620  LYS621  CYS622 
 ASP623  PHE694  ASN695  SER759  ASP760  ASP761  ALA762  ILE779  LEU786  VAL792 
 PHE793  MET794  SER795  GLU796  ALA797  LYS798  CYS799  TRP800  GLU811  SER814 

> <Gold.Protein.RotatedAtoms>
  152.5083  133.8994  159.7433 H   0  0  0  0  0  0  0  0  0  0  0  0  # atno 6907 bound_to 6896
  150.9413  133.6644  159.2797 H   0  0  0  0  0  0  0  0  0  0  0  0  # atno 6908 bound_to 6896
  151.3954  135.0967  159.9592 H   0  0  0  0  0  0  0  0  0  0  0  0  # atno 6909 bound_to 6896
  146.2287  139.8939  142.8550 H   0  0  0  0  0  0  0  0  0  0  0  0  # atno 7974 bound_to 7965
  155.5476  140.3485  155.4461 H   0  0  0  0  0  0  0  0  0  0  0  0  # atno 8008 bound_to 7997
  156.0606  140.1339  156.9971 H   0  0  0  0  0  0  0  0  0  0  0  0  # atno 8009 bound_to 7997
  154.4478  140.0986  156.6497 H   0  0  0  0  0  0  0  0  0  0  0  0  # atno 8010 bound_to 7997
  139.7670  143.8293  152.2618 H   0  0  0  0  0  0  0  0  0  0  0  0  # atno 10167 bound_to 10162
  156.3731  130.7798  151.1981 H   0  0  0  0  0  0  0  0  0  0  0  0  # atno 10718 bound_to 10713
  154.2475  135.2772  155.2830 H   0  0  0  0  0  0  0  0  0  0  0  0  # atno 10763 bound_to 10752
  154.5493  135.5680  153.6911 H   0  0  0  0  0  0  0  0  0  0  0  0  # atno 10764 bound_to 10752
  152.9987  135.6270  154.2621 H   0  0  0  0  0  0  0  0  0  0  0  0  # atno 10765 bound_to 10752
  140.0725  134.5450  155.9031 H   0  0  0  0  0  0  0  0  0  0  0  0  # atno 11005 bound_to 11000
  145.2390  141.0002  143.3947 LP  0  0  0  0  0  0  0  0  0  0  0  0  # atno 17320 bound_to 7965
  144.9468  139.4127  143.6422 LP  0  0  0  0  0  0  0  0  0  0  0  0  # atno 17321 bound_to 7965
  139.8316  144.7251  150.9443 LP  0  0  0  0  0  0  0  0  0  0  0  0  # atno 17342 bound_to 10162
  140.7811  143.4065  151.1063 LP  0  0  0  0  0  0  0  0  0  0  0  0  # atno 17343 bound_to 10162
  157.7486  131.0366  150.4418 LP  0  0  0  0  0  0  0  0  0  0  0  0  # atno 17370 bound_to 10713
  156.4649  130.4040  149.6554 LP  0  0  0  0  0  0  0  0  0  0  0  0  # atno 17371 bound_to 10713
  141.2017  133.6620  156.5965 LP  0  0  0  0  0  0  0  0  0  0  0  0  # atno 17394 bound_to 11000
  140.3606  134.7690  157.4531 LP  0  0  0  0  0  0  0  0  0  0  0  0  # atno 17395 bound_to 11000

$$$$
