AV-unprocessed.smi:2061|AV-procd|sdf|8389|dock8
  -GOLD-   2272011 73D 1   1.00000     0.00000
 Structure written by MMmdl.
 45 46  0  0  0  0  0  0  0  0  3 V2000
  152.4859  145.0852  159.9694 C   0  0  0  0  0  0  0  0  0  0  0  0
  152.0060  144.1203  158.9404 C   0  0  0  0  0  0  0  0  0  0  0  0
  151.1066  144.2229  157.9167 C   0  0  0  0  0  0  0  0  0  0  0  0
  151.1293  142.9259  157.3379 C   0  0  0  0  0  0  0  0  0  0  0  0
  150.3067  142.6165  156.2225 N   0  0  0  0  0  0  0  0  0  0  0  0
  150.3931  141.5740  155.3762 C   0  0  0  0  0  0  0  0  0  0  0  0
  151.2900  140.7325  155.5098 O   0  0  0  0  0  0  0  0  0  0  0  0
  149.4091  141.5904  154.4350 N   0  5  0  0  0  0  0  0  0  0  0  0
  148.5303  140.4612  154.1251 C   0  0  0  0  0  0  0  0  0  0  0  0
  147.3838  140.8919  153.1674 C   0  0  1  0  0  0  0  0  0  0  0  0
  146.9883  139.8120  152.1285 C   0  0  0  0  0  0  0  0  0  0  0  0
  146.2135  141.4088  153.9433 N   0  3  1  0  0  0  0  0  0  0  0  0
  145.9346  140.6372  155.1800 C   0  0  0  0  0  0  0  0  0  0  0  0
  144.6113  141.1039  155.8166 C   0  0  1  0  0  0  0  0  0  0  0  0
  144.3274  140.3946  157.1453 C   0  0  0  0  0  0  0  0  0  0  0  0
  144.6759  142.5039  156.0679 O   0  0  0  0  0  0  0  0  0  0  0  0
  144.8622  143.2674  154.8809 C   0  0  1  0  0  0  0  0  0  0  0  0
  144.8212  144.7527  155.2564 C   0  0  0  0  0  0  0  0  0  0  0  0
  146.2026  142.8684  154.2389 C   0  0  0  0  0  0  0  0  0  0  0  0
  151.9707  142.1072  157.9521 N   0  0  0  0  0  0  0  0  0  0  0  0
  152.5371  142.8685  158.9813 O   0  0  0  0  0  0  0  0  0  0  0  0
  151.9037  146.0064  159.9414 H   0  0  0  0  0  0  0  0  0  0  0  0
  153.5321  145.3403  159.8002 H   0  0  0  0  0  0  0  0  0  0  0  0
  152.3972  144.6602  160.9692 H   0  0  0  0  0  0  0  0  0  0  0  0
  150.5244  145.0864  157.6312 H   0  0  0  0  0  0  0  0  0  0  0  0
  149.5453  143.2566  156.0514 H   0  0  0  0  0  0  0  0  0  0  0  0
  149.0855  139.6424  153.6671 H   0  0  0  0  0  0  0  0  0  0  0  0
  148.0938  140.0341  155.0294 H   0  0  0  0  0  0  0  0  0  0  0  0
  147.7713  141.7405  152.6012 H   0  0  0  0  0  0  0  0  0  0  0  0
  147.8173  139.5688  151.4617 H   0  0  0  0  0  0  0  0  0  0  0  0
  146.1747  140.1622  151.4930 H   0  0  0  0  0  0  0  0  0  0  0  0
  146.6619  138.8796  152.5925 H   0  0  0  0  0  0  0  0  0  0  0  0
  145.8657  139.5734  154.9482 H   0  0  0  0  0  0  0  0  0  0  0  0
  146.7600  140.7605  155.8828 H   0  0  0  0  0  0  0  0  0  0  0  0
  143.7850  140.9014  155.1326 H   0  0  0  0  0  0  0  0  0  0  0  0
  144.2592  139.3152  157.0080 H   0  0  0  0  0  0  0  0  0  0  0  0
  143.3845  140.7350  157.5743 H   0  0  0  0  0  0  0  0  0  0  0  0
  145.1144  140.5905  157.8742 H   0  0  0  0  0  0  0  0  0  0  0  0
  144.0450  143.0618  154.1869 H   0  0  0  0  0  0  0  0  0  0  0  0
  144.9511  145.3840  154.3770 H   0  0  0  0  0  0  0  0  0  0  0  0
  145.6098  145.0027  155.9669 H   0  0  0  0  0  0  0  0  0  0  0  0
  143.8661  145.0128  155.7135 H   0  0  0  0  0  0  0  0  0  0  0  0
  147.0184  143.1193  154.9183 H   0  0  0  0  0  0  0  0  0  0  0  0
  146.3555  143.4454  153.3264 H   0  0  0  0  0  0  0  0  0  0  0  0
  145.4191  141.2389  153.3427 H   0  0  0  0  0  0  0  0  0  0  0  0
  1  2  1  0  0  0  0
  1 22  1  0  0  0  0
  1 23  1  0  0  0  0
  1 24  1  0  0  0  0
  2 21  1  0  0  0  0
  2  3  2  0  0  0  0
  3  4  1  0  0  0  0
  3 25  1  0  0  0  0
  4  5  1  0  0  0  0
  4 20  2  0  0  0  0
  5  6  1  0  0  0  0
  5 26  1  0  0  0  0
  6  7  2  0  0  0  0
  6  8  1  0  0  0  0
  8  9  1  0  0  0  0
  9 10  1  0  0  0  0
  9 27  1  0  0  0  0
  9 28  1  0  0  0  0
 10 11  1  0  0  0  0
 10 12  1  0  0  0  0
 10 29  1  0  0  0  0
 11 30  1  0  0  0  0
 11 31  1  0  0  0  0
 11 32  1  0  0  0  0
 12 19  1  0  0  0  0
 12 13  1  0  0  0  0
 12 45  1  0  0  0  0
 13 14  1  0  0  0  0
 13 33  1  0  0  0  0
 13 34  1  0  0  0  0
 14 15  1  0  0  0  0
 14 16  1  0  0  0  0
 14 35  1  0  0  0  0
 15 36  1  0  0  0  0
 15 37  1  0  0  0  0
 15 38  1  0  0  0  0
 16 17  1  0  0  0  0
 17 18  1  0  0  0  0
 17 19  1  0  0  0  0
 17 39  1  0  0  0  0
 18 40  1  0  0  0  0
 18 41  1  0  0  0  0
 18 42  1  0  0  0  0
 19 43  1  0  0  0  0
 19 44  1  0  0  0  0
 20 21  1  0  0  0  0
M  CHG  1   8  -1
M  CHG  1  12   1
M  END
> <s_m_source_file>
AV-unprocessed.smi

> <i_m_source_file_index>
2061

> <i_lp_mmshare_version>
43012

> <i_f3d_flags>
0

> <s_epik_input>
W0NIM11jMVtjSF1jKG5vMSlbTkhdQyg9TylbTkhdW0NIMl1bQ0BIXShbQ0gzXSlOMltDSDJdW0NAQEhdKFtDSDNdKU9bQ0BASF0oW0NIM10pW0NIMl0y

> <s_epik_cmdline>
J2VwaWtfcHl0aG9uJywgJy1waCcsICc3LjAnLCAnLXRuJywgJzgnLCAnLW1hJywgJzIwMCcsICctbWV0YWxfYmluZGluZycsICctaW1hZScsICc8aW5maWxlLm1hZT4nLCAnLW9tYWUnLCAnPG91dGZpbGUubWFlPic=

> <r_epik_Ionization_Penalty>
6.8073

> <r_epik_Ionization_Penalty_Charging>
6.80729

> <r_epik_Ionization_Penalty_Neutral>
5.65391e-06

> <r_epik_State_Penalty>
7.47323

> <r_epik_Charging_Adjusted_Penalty>
14.2805

> <i_epik_Tot_Q>
0

> <i_epik_Tot_abs_Q>
2

> <r_epik_Metal_State_Penalty>
3.40035

> <b_epik_Metal_Only>
1

> <s_lp_Force_Field>
OPLS_2005

> <r_lp_Energy>
16.6672

> <b_lp_Chiralities_Consistent>
1

> <s_lp_Variant>
AV-unprocessed.smi:2061-30

> <Gold.Version>
5.8.1

> <Gold.Id.Protein>
6NUR|6NUR_protein|mol2

> <Gold.PLP.Fitness>
41.3821

> <Gold.PLP.PLP>
-34.5252

> <Gold.PLP.part.hbond>
-4.3643

> <Gold.PLP.part.metal>
0.0000

> <Gold.PLP.part.buried>
-0.7883

> <Gold.PLP.part.nonpolar>
-28.0178

> <Gold.PLP.part.repulsive>
0.3820

> <Gold.PLP.ligand.clash>
0.0000

> <Gold.PLP.ligand.torsion>
1.6948

> <Gold.PLP.Chemscore.Hbond>
3.3630

> <Gold.PLP.Chemscore.CHOScore>
0.0000

> <Gold.PLP.Chemscore.Metal>
0.0000

> <Gold.Chemscore.Hbonds>
donor molecule, donor type, donor heavy atom, donor atom, acceptor molecule, acceptor atom, score
      L1  H     5    26       P1  8028  1.00
      L1  H    12    45       P1 10175  1.82
      P1  H  7989  7998       L1     7  0.30
      P1  H  8011  8017       L1     8  0.19

> <Gold.PLP.Chemscore.Internal.Correction>
0.1574

> <Gold.Rescore>
     Score         DG    S(hbond)    S(metal)    S(lipo)     H(rot)  DE(clash)    DE(int)     intcor
     12.88     -16.12       1.75        0.00      75.10       1.56       0.22       3.02       ----

> <Gold.Chemscore.Fitness>
12.8817

> <Gold.Chemscore.DG>
-16.1238

> <Gold.Chemscore.ZeroCoef>
-5.4800

> <Gold.Chemscore.Hbond>
1.7478

> <Gold.Chemscore.Metal>
0.0000

> <Gold.Chemscore.Lipo>
75.1014

> <Gold.Chemscore.Internal_Hbond>
0.0000

> <Gold.Chemscore.DEClash>
0.2219

> <Gold.Chemscore.DEInternal>
3.0202

> <Gold.Chemscore.Rot>
1.5550

> <Gold.Chemscore.Internal.Correction>
   9.000000E+99

> <Gold.Chemscore.Hbonds>
donor molecule, donor type, donor heavy atom, donor atom, acceptor molecule, acceptor atom, score
      L1  H     5    26       P1  8028  0.97
      L1  H    12    45       P1 10175  0.22
      P1  H  7989  7998       L1     7  0.01
      P1  H  8011  8017       L1     8  0.06

> <Gold.Chemscore.Hbond.Weighted>
-5.8378

> <Gold.Chemscore.Metal.Weighted>
-0.0000

> <Gold.Chemscore.Lipo.Weighted>
-8.7869

> <Gold.Chemscore.Internal_Hbond.Weighted>
0.0000

> <Gold.Chemscore.DEClash.Weighted>
0.2219

> <Gold.Chemscore.DEInternal.Weighted>
3.0202

> <Gold.Chemscore.Rot.Weighted>
3.9809

> <Gold.Chemscore.Internal.Correction.Weighted>
   9.000000E+99

> <Gold.Protein.RotatedTorsions>
[ 6907 6896 6895 6894 ] final    5.43 input  -60.11 | X-H torsion
[ 7974 7965 7964 7962 ] final  -67.92 input  175.53 | X-H torsion
[ 8008 7997 7996 7995 ] final   83.81 input   59.86 | X-H torsion
[ 10167 10162 10161 10158 ] final   82.00 input  -65.29 | X-H torsion
[ 10718 10713 10712 10709 ] final -154.65 input   66.30 | X-H torsion
[ 10763 10752 10751 10750 ] final  -54.29 input  -60.55 | X-H torsion
[ 11005 11000 10999 10996 ] final   81.67 input  -57.11 | X-H torsion

> <Gold.Protein.ActiveResidues>
 VAL166  LYS551  ARG553  GLY616  TRP617  ASP618  TYR619  PRO620  LYS621  CYS622 
 ASP623  PHE694  ASN695  SER759  ASP760  ASP761  ALA762  ILE779  LEU786  VAL792 
 PHE793  MET794  SER795  GLU796  ALA797  LYS798  CYS799  TRP800  GLU811  SER814 

> <Gold.Protein.RotatedAtoms>
  151.6573  135.0994  160.0172 H   0  0  0  0  0  0  0  0  0  0  0  0  # atno 6907 bound_to 6896
  152.3966  133.6752  159.6290 H   0  0  0  0  0  0  0  0  0  0  0  0  # atno 6908 bound_to 6896
  150.7873  133.8779  159.3318 H   0  0  0  0  0  0  0  0  0  0  0  0  # atno 6909 bound_to 6896
  145.7231  140.9030  143.0620 H   0  0  0  0  0  0  0  0  0  0  0  0  # atno 7974 bound_to 7965
  155.9289  140.3416  155.6232 H   0  0  0  0  0  0  0  0  0  0  0  0  # atno 8008 bound_to 7997
  155.7182  140.0780  157.2360 H   0  0  0  0  0  0  0  0  0  0  0  0  # atno 8009 bound_to 7997
  154.4082  140.1610  156.2360 H   0  0  0  0  0  0  0  0  0  0  0  0  # atno 8010 bound_to 7997
  139.9334  144.6137  150.8323 H   0  0  0  0  0  0  0  0  0  0  0  0  # atno 10167 bound_to 10162
  156.5022  130.8396  151.2613 H   0  0  0  0  0  0  0  0  0  0  0  0  # atno 10718 bound_to 10713
  154.1725  135.6457  153.5013 H   0  0  0  0  0  0  0  0  0  0  0  0  # atno 10763 bound_to 10752
  153.0080  135.5387  154.6598 H   0  0  0  0  0  0  0  0  0  0  0  0  # atno 10764 bound_to 10752
  154.5941  135.2937  155.0577 H   0  0  0  0  0  0  0  0  0  0  0  0  # atno 10765 bound_to 10752
  139.9090  134.8014  156.2072 H   0  0  0  0  0  0  0  0  0  0  0  0  # atno 11005 bound_to 11000
  144.6912  139.9229  143.7468 LP  0  0  0  0  0  0  0  0  0  0  0  0  # atno 17320 bound_to 7965
  146.0607  139.3601  143.0583 LP  0  0  0  0  0  0  0  0  0  0  0  0  # atno 17321 bound_to 7965
  140.7631  143.3215  151.2612 LP  0  0  0  0  0  0  0  0  0  0  0  0  # atno 17342 bound_to 10162
  139.6764  143.9931  152.2783 LP  0  0  0  0  0  0  0  0  0  0  0  0  # atno 17343 bound_to 10162
  157.7461  130.9978  150.2829 LP  0  0  0  0  0  0  0  0  0  0  0  0  # atno 17370 bound_to 10713
  156.3322  130.3802  149.7481 LP  0  0  0  0  0  0  0  0  0  0  0  0  # atno 17371 bound_to 10713
  141.0488  133.6899  156.1733 LP  0  0  0  0  0  0  0  0  0  0  0  0  # atno 17394 bound_to 11000
  140.6842  134.4734  157.5589 LP  0  0  0  0  0  0  0  0  0  0  0  0  # atno 17395 bound_to 11000

$$$$
