AV-unprocessed.smi:1483|AV-procd|sdf|5991|dock7
  -GOLD-   22720 6 83D 1   1.00000     0.00000
 Structure written by MMmdl.
 50 51  0  0  0  0  0  0  0  0  3 V2000
  143.7660  131.6044  151.0758 C   0  0  0  0  0  0  0  0  0  0  0  0
  143.8873  133.0639  151.4596 C   0  0  0  0  0  0  0  0  0  0  0  0
  144.4446  134.0275  150.5918 C   0  0  0  0  0  0  0  0  0  0  0  0
  144.5244  135.3705  151.0142 C   0  0  0  0  0  0  0  0  0  0  0  0
  144.0477  135.7244  152.2959 C   0  0  0  0  0  0  0  0  0  0  0  0
  144.1225  137.1616  152.7800 C   0  0  0  0  0  0  0  0  0  0  0  0
  145.5794  137.5783  152.9825 C   0  0  0  0  0  0  0  0  0  0  0  0
  146.4736  136.7357  152.9156 O   0  0  0  0  0  0  0  0  0  0  0  0
  145.8040  138.8799  153.2232 N   0  0  0  0  0  0  0  0  0  0  0  0
  147.1173  139.4824  153.4319 C   0  0  2  0  0  0  0  0  0  0  0  0
  147.8253  138.8441  154.6397 C   0  0  0  0  0  0  0  0  0  0  0  0
  149.1637  139.5423  154.9330 C   0  0  0  0  0  0  0  0  0  0  0  0
  148.9768  141.0008  155.1488 N   0  3  1  0  0  0  0  0  0  0  0  0
  150.2355  141.6717  155.5657 C   0  0  0  0  0  0  0  0  0  0  0  0
  150.6009  141.4145  157.0441 C   0  0  0  0  0  0  0  0  0  0  0  0
  151.4010  142.5949  157.6145 C   0  0  0  0  0  0  0  0  0  0  0  0
  151.3812  140.1011  157.2221 C   0  0  0  0  0  0  0  0  0  0  0  0
  148.3268  141.6449  153.9760 C   0  0  0  0  0  0  0  0  0  0  0  0
  146.9685  140.9938  153.6653 C   0  0  0  0  0  0  0  0  0  0  0  0
  143.4985  134.7174  153.1197 C   0  0  0  0  0  0  0  0  0  0  0  0
  143.4397  133.4418  152.6780 N   0  3  0  0  0  0  0  0  0  0  0  0
  144.2651  131.4055  150.1268 H   0  0  0  0  0  0  0  0  0  0  0  0
  142.7170  131.3255  150.9741 H   0  0  0  0  0  0  0  0  0  0  0  0
  144.2200  130.9697  151.8372 H   0  0  0  0  0  0  0  0  0  0  0  0
  144.8065  133.7439  149.6143 H   0  0  0  0  0  0  0  0  0  0  0  0
  144.9492  136.1183  150.3603 H   0  0  0  0  0  0  0  0  0  0  0  0
  143.6370  137.8262  152.0639 H   0  0  0  0  0  0  0  0  0  0  0  0
  143.5782  137.2621  153.7201 H   0  0  0  0  0  0  0  0  0  0  0  0
  145.0069  139.4984  153.2636 H   0  0  0  0  0  0  0  0  0  0  0  0
  147.7296  139.3341  152.5398 H   0  0  0  0  0  0  0  0  0  0  0  0
  147.1851  138.9055  155.5213 H   0  0  0  0  0  0  0  0  0  0  0  0
  147.9986  137.7827  154.4574 H   0  0  0  0  0  0  0  0  0  0  0  0
  149.6112  139.0926  155.8202 H   0  0  0  0  0  0  0  0  0  0  0  0
  149.8612  139.3816  154.1091 H   0  0  0  0  0  0  0  0  0  0  0  0
  151.0605  141.3159  154.9467 H   0  0  0  0  0  0  0  0  0  0  0  0
  150.1520  142.7418  155.3693 H   0  0  0  0  0  0  0  0  0  0  0  0
  149.6880  141.3442  157.6344 H   0  0  0  0  0  0  0  0  0  0  0  0
  152.3431  142.7314  157.0824 H   0  0  0  0  0  0  0  0  0  0  0  0
  151.6342  142.4399  158.6685 H   0  0  0  0  0  0  0  0  0  0  0  0
  150.8379  143.5257  157.5382 H   0  0  0  0  0  0  0  0  0  0  0  0
  152.3110  140.1109  156.6522 H   0  0  0  0  0  0  0  0  0  0  0  0
  150.7975  139.2411  156.8935 H   0  0  0  0  0  0  0  0  0  0  0  0
  151.6371  139.9367  158.2692 H   0  0  0  0  0  0  0  0  0  0  0  0
  148.1701  142.7066  154.1614 H   0  0  0  0  0  0  0  0  0  0  0  0
  148.9840  141.5720  153.1080 H   0  0  0  0  0  0  0  0  0  0  0  0
  146.5272  141.4662  152.7867 H   0  0  0  0  0  0  0  0  0  0  0  0
  146.2821  141.1780  154.4934 H   0  0  0  0  0  0  0  0  0  0  0  0
  143.1103  134.8912  154.1130 H   0  0  0  0  0  0  0  0  0  0  0  0
  148.3389  141.0889  155.9270 H   0  0  0  0  0  0  0  0  0  0  0  0
  143.0399  132.7319  153.2922 H   0  0  0  0  0  0  0  0  0  0  0  0
  1  2  1  0  0  0  0
  1 22  1  0  0  0  0
  1 23  1  0  0  0  0
  1 24  1  0  0  0  0
  2 21  1  0  0  0  0
  2  3  2  0  0  0  0
  3  4  1  0  0  0  0
  3 25  1  0  0  0  0
  4  5  2  0  0  0  0
  4 26  1  0  0  0  0
  5  6  1  0  0  0  0
  5 20  1  0  0  0  0
  6  7  1  0  0  0  0
  6 27  1  0  0  0  0
  6 28  1  0  0  0  0
  7  8  2  0  0  0  0
  7  9  1  0  0  0  0
  9 10  1  0  0  0  0
  9 29  1  0  0  0  0
 10 19  1  0  0  0  0
 10 11  1  0  0  0  0
 10 30  1  0  0  0  0
 11 12  1  0  0  0  0
 11 31  1  0  0  0  0
 11 32  1  0  0  0  0
 12 13  1  0  0  0  0
 12 33  1  0  0  0  0
 12 34  1  0  0  0  0
 13 14  1  0  0  0  0
 13 18  1  0  0  0  0
 13 49  1  0  0  0  0
 14 15  1  0  0  0  0
 14 35  1  0  0  0  0
 14 36  1  0  0  0  0
 15 16  1  0  0  0  0
 15 17  1  0  0  0  0
 15 37  1  0  0  0  0
 16 38  1  0  0  0  0
 16 39  1  0  0  0  0
 16 40  1  0  0  0  0
 17 41  1  0  0  0  0
 17 42  1  0  0  0  0
 17 43  1  0  0  0  0
 18 19  1  0  0  0  0
 18 44  1  0  0  0  0
 18 45  1  0  0  0  0
 19 46  1  0  0  0  0
 19 47  1  0  0  0  0
 20 21  2  0  0  0  0
 20 48  1  0  0  0  0
 21 50  1  0  0  0  0
M  CHG  1  13   1
M  CHG  1  21   1
M  END
> <s_m_source_file>
AV-unprocessed.smi

> <i_m_source_file_index>
1483

> <i_lp_mmshare_version>
43012

> <i_f3d_flags>
0

> <s_epik_input>
W0NIM11jMVtjSF1bY0hdYyhbY0hdbjEpW0NIMl1DKD1PKVtOSF1bQ0hdMltDSDJdW0NIMl1OKFtDSDJdW0NIMl0yKVtDSDJdW0NIXShbQ0gzXSlbQ0gzXQ==

> <s_epik_cmdline>
J2VwaWtfcHl0aG9uJywgJy1waCcsICc3LjAnLCAnLXRuJywgJzgnLCAnLW1hJywgJzIwMCcsICctbWV0YWxfYmluZGluZycsICctaW1hZScsICc8aW5maWxlLm1hZT4nLCAnLW9tYWUnLCAnPG91dGZpbGUubWFlPic=

> <r_epik_Ionization_Penalty>
2.20554

> <r_epik_Ionization_Penalty_Charging>
2.20554

> <r_epik_Ionization_Penalty_Neutral>
2.83835e-07

> <r_epik_State_Penalty>
2.34446

> <r_epik_Charging_Adjusted_Penalty>
4.55

> <i_epik_Tot_Q>
2

> <i_epik_Tot_abs_Q>
2

> <r_epik_Metal_State_Penalty>
2.35906

> <b_epik_Metal_Only>
0

> <s_lp_Force_Field>
OPLS_2005

> <r_lp_Energy>
27.324

> <b_lp_Chiralities_Consistent>
1

> <s_lp_Variant>
AV-unprocessed.smi:1483-3

> <Gold.Version>
5.8.1

> <Gold.Id.Protein>
6NUR|6NUR_protein|mol2

> <Gold.PLP.Fitness>
43.6445

> <Gold.PLP.PLP>
-35.8695

> <Gold.PLP.part.hbond>
-2.0000

> <Gold.PLP.part.metal>
0.0000

> <Gold.PLP.part.buried>
-4.8203

> <Gold.PLP.part.nonpolar>
-32.4387

> <Gold.PLP.part.repulsive>
2.8613

> <Gold.PLP.ligand.clash>
0.0000

> <Gold.PLP.ligand.torsion>
0.6367

> <Gold.PLP.Chemscore.Hbond>
3.0000

> <Gold.PLP.Chemscore.CHOScore>
0.0000

> <Gold.PLP.Chemscore.Metal>
0.0000

> <Gold.Chemscore.Hbonds>
donor molecule, donor type, donor heavy atom, donor atom, acceptor molecule, acceptor atom, score
      L1  H     9    29       P1 10175  1.00
      L1  H    21    50       P1 10957  2.00

> <Gold.PLP.Chemscore.Internal.Correction>
0.0483

> <Gold.Rescore>
     Score         DG    S(hbond)    S(metal)    S(lipo)     H(rot)  DE(clash)    DE(int)     intcor
     15.58     -19.01       1.87        0.00      96.11       1.55       2.09       1.34       ----

> <Gold.Chemscore.Fitness>
15.5807

> <Gold.Chemscore.DG>
-19.0093

> <Gold.Chemscore.ZeroCoef>
-5.4800

> <Gold.Chemscore.Hbond>
1.8734

> <Gold.Chemscore.Metal>
0.0000

> <Gold.Chemscore.Lipo>
96.1119

> <Gold.Chemscore.Internal_Hbond>
0.0000

> <Gold.Chemscore.DEClash>
2.0863

> <Gold.Chemscore.DEInternal>
1.3423

> <Gold.Chemscore.Rot>
1.5520

> <Gold.Chemscore.Internal.Correction>
   9.000000E+99

> <Gold.Chemscore.Hbonds>
donor molecule, donor type, donor heavy atom, donor atom, acceptor molecule, acceptor atom, score
      L1  H     9    29       P1 10175  0.96
      L1  H    21    50       P1 10957  0.45

> <Gold.Chemscore.Hbond.Weighted>
-6.2572

> <Gold.Chemscore.Metal.Weighted>
-0.0000

> <Gold.Chemscore.Lipo.Weighted>
-11.2451

> <Gold.Chemscore.Internal_Hbond.Weighted>
0.0000

> <Gold.Chemscore.DEClash.Weighted>
2.0863

> <Gold.Chemscore.DEInternal.Weighted>
1.3423

> <Gold.Chemscore.Rot.Weighted>
3.9730

> <Gold.Chemscore.Internal.Correction.Weighted>
   9.000000E+99

> <Gold.Protein.RotatedTorsions>
[ 6907 6896 6895 6894 ] final  116.64 input  -60.11 | X-H torsion
[ 7974 7965 7964 7962 ] final   33.03 input  175.53 | X-H torsion
[ 8008 7997 7996 7995 ] final -145.25 input   59.86 | X-H torsion
[ 10167 10162 10161 10158 ] final  -70.20 input  -65.29 | X-H torsion
[ 10718 10713 10712 10709 ] final   25.58 input   66.30 | X-H torsion
[ 10763 10752 10751 10750 ] final  104.79 input  -60.55 | X-H torsion
[ 11005 11000 10999 10996 ] final  -35.30 input  -57.11 | X-H torsion

> <Gold.Protein.ActiveResidues>
 VAL166  LYS551  ARG553  GLY616  TRP617  ASP618  TYR619  PRO620  LYS621  CYS622 
 ASP623  PHE694  ASN695  SER759  ASP760  ASP761  ALA762  ILE779  LEU786  VAL792 
 PHE793  MET794  SER795  GLU796  ALA797  LYS798  CYS799  TRP800  GLU811  SER814 

> <Gold.Protein.RotatedAtoms>
  152.4664  133.7933  159.6913 H   0  0  0  0  0  0  0  0  0  0  0  0  # atno 6907 bound_to 6896
  150.8631  133.7604  159.2992 H   0  0  0  0  0  0  0  0  0  0  0  0  # atno 6908 bound_to 6896
  151.5163  135.1069  159.9919 H   0  0  0  0  0  0  0  0  0  0  0  0  # atno 6909 bound_to 6896
  146.1448  139.6450  142.9139 H   0  0  0  0  0  0  0  0  0  0  0  0  # atno 7974 bound_to 7965
  155.5401  140.0607  157.2872 H   0  0  0  0  0  0  0  0  0  0  0  0  # atno 8008 bound_to 7997
  154.4455  140.1920  156.0626 H   0  0  0  0  0  0  0  0  0  0  0  0  # atno 8009 bound_to 7997
  156.0591  140.3275  155.7444 H   0  0  0  0  0  0  0  0  0  0  0  0  # atno 8010 bound_to 7997
  140.5371  143.2317  151.7157 H   0  0  0  0  0  0  0  0  0  0  0  0  # atno 10167 bound_to 10162
  157.1952  130.6864  149.6166 H   0  0  0  0  0  0  0  0  0  0  0  0  # atno 10718 bound_to 10713
  153.3706  135.3931  155.1786 H   0  0  0  0  0  0  0  0  0  0  0  0  # atno 10763 bound_to 10752
  154.8693  135.3701  154.4982 H   0  0  0  0  0  0  0  0  0  0  0  0  # atno 10764 bound_to 10752
  153.5450  135.7084  153.5679 H   0  0  0  0  0  0  0  0  0  0  0  0  # atno 10765 bound_to 10752
  140.9785  133.7069  156.1644 H   0  0  0  0  0  0  0  0  0  0  0  0  # atno 11005 bound_to 11000
  145.4963  141.0438  143.2565 LP  0  0  0  0  0  0  0  0  0  0  0  0  # atno 17320 bound_to 7965
  144.7833  139.6479  143.7145 LP  0  0  0  0  0  0  0  0  0  0  0  0  # atno 17321 bound_to 7965
  139.4975  144.4026  152.0166 LP  0  0  0  0  0  0  0  0  0  0  0  0  # atno 17342 bound_to 10162
  140.3132  144.3514  150.6028 LP  0  0  0  0  0  0  0  0  0  0  0  0  # atno 17343 bound_to 10162
  155.9707  130.4601  150.6061 LP  0  0  0  0  0  0  0  0  0  0  0  0  # atno 17370 bound_to 10713
  157.3821  131.0782  151.1467 LP  0  0  0  0  0  0  0  0  0  0  0  0  # atno 17371 bound_to 10713
  140.7222  134.4346  157.5574 LP  0  0  0  0  0  0  0  0  0  0  0  0  # atno 17394 bound_to 11000
  139.8940  134.8716  156.2195 LP  0  0  0  0  0  0  0  0  0  0  0  0  # atno 17395 bound_to 11000

$$$$
