AV-unprocessed.smi:1721|AV-procd|sdf|6936|dock2
  -GOLD-   22720 8143D 1   1.00000     0.00000
 Structure written by MMmdl.
 44 46  0  0  0  0  0  0  0  0  2 V2000
  151.7673  138.2917  154.5326 C   0  0  0  0  0  0  0  0  0  0  0  0
  150.3770  138.1776  154.2494 O   0  0  0  0  0  0  0  0  0  0  0  0
  149.5975  139.3180  154.2964 C   0  0  0  0  0  0  0  0  0  0  0  0
  150.1859  140.4857  154.6578 N   0  0  0  0  0  0  0  0  0  0  0  0
  149.4268  141.5990  154.7087 C   0  0  0  0  0  0  0  0  0  0  0  0
  148.0526  141.6075  154.4101 C   0  0  0  0  0  0  0  0  0  0  0  0
  147.4395  140.3977  154.0356 C   0  0  0  0  0  0  0  0  0  0  0  0
  148.2248  139.2202  153.9672 C   0  0  0  0  0  0  0  0  0  0  0  0
  147.7197  137.9369  153.6132 N   0  0  0  0  0  0  0  0  0  0  0  0
  146.5374  137.3707  153.9090 C   0  0  0  0  0  0  0  0  0  0  0  0
  145.6288  137.8944  154.5523 O   0  0  0  0  0  0  0  0  0  0  0  0
  146.4573  136.1305  153.4067 N   0  0  0  0  0  0  0  0  0  0  0  0
  145.3057  135.2456  153.5614 C   0  0  1  0  0  0  0  0  0  0  0  0
  144.0056  135.8446  153.0406 C   0  0  0  0  0  0  0  0  0  0  0  0
  143.1038  134.6171  152.8722 C   0  0  0  0  0  0  0  0  0  0  0  0
  143.9974  133.4554  152.6393 N   0  3  1  0  0  0  0  0  0  0  0  0
  143.7019  132.7063  151.3885 C   0  0  0  0  0  0  0  0  0  0  0  0
  144.8745  131.7917  151.0042 C   0  0  0  0  0  0  0  0  0  0  0  0
  146.1552  132.6022  150.7286 C   0  0  0  0  0  0  0  0  0  0  0  0
  146.1510  133.9705  151.4368 C   0  0  0  0  0  0  0  0  0  0  0  0
  145.4079  133.9128  152.7943 C   0  0  1  0  0  0  0  0  0  0  0  0
  152.2329  137.3095  154.4524 H   0  0  0  0  0  0  0  0  0  0  0  0
  151.9399  138.6572  155.5458 H   0  0  0  0  0  0  0  0  0  0  0  0
  152.2662  138.9529  153.8226 H   0  0  0  0  0  0  0  0  0  0  0  0
  149.9291  142.5096  155.0001 H   0  0  0  0  0  0  0  0  0  0  0  0
  147.4806  142.5215  154.4694 H   0  0  0  0  0  0  0  0  0  0  0  0
  146.3831  140.4053  153.8211 H   0  0  0  0  0  0  0  0  0  0  0  0
  148.3366  137.3873  153.0327 H   0  0  0  0  0  0  0  0  0  0  0  0
  147.2455  135.7735  152.8863 H   0  0  0  0  0  0  0  0  0  0  0  0
  145.1678  135.0297  154.6233 H   0  0  0  0  0  0  0  0  0  0  0  0
  143.5817  136.5903  153.7139 H   0  0  0  0  0  0  0  0  0  0  0  0
  144.1686  136.3197  152.0720 H   0  0  0  0  0  0  0  0  0  0  0  0
  142.5487  134.4317  153.7923 H   0  0  0  0  0  0  0  0  0  0  0  0
  142.3720  134.7640  152.0764 H   0  0  0  0  0  0  0  0  0  0  0  0
  142.7905  132.1244  151.5305 H   0  0  0  0  0  0  0  0  0  0  0  0
  143.5088  133.4023  150.5701 H   0  0  0  0  0  0  0  0  0  0  0  0
  145.0558  131.0873  151.8171 H   0  0  0  0  0  0  0  0  0  0  0  0
  144.6205  131.1893  150.1315 H   0  0  0  0  0  0  0  0  0  0  0  0
  147.0199  132.0189  151.0469 H   0  0  0  0  0  0  0  0  0  0  0  0
  146.2761  132.7600  149.6562 H   0  0  0  0  0  0  0  0  0  0  0  0
  147.1805  134.3057  151.5627 H   0  0  0  0  0  0  0  0  0  0  0  0
  145.6695  134.7080  150.7931 H   0  0  0  0  0  0  0  0  0  0  0  0
  145.9288  133.1874  153.4215 H   0  0  0  0  0  0  0  0  0  0  0  0
  143.8329  132.8159  153.4038 H   0  0  0  0  0  0  0  0  0  0  0  0
  1  2  1  0  0  0  0
  1 22  1  0  0  0  0
  1 23  1  0  0  0  0
  1 24  1  0  0  0  0
  2  3  1  0  0  0  0
  3  8  1  0  0  0  0
  3  4  2  0  0  0  0
  4  5  1  0  0  0  0
  5  6  2  0  0  0  0
  5 25  1  0  0  0  0
  6  7  1  0  0  0  0
  6 26  1  0  0  0  0
  7  8  2  0  0  0  0
  7 27  1  0  0  0  0
  8  9  1  0  0  0  0
  9 10  1  0  0  0  0
  9 28  1  0  0  0  0
 10 11  2  0  0  0  0
 10 12  1  0  0  0  0
 12 13  1  0  0  0  0
 12 29  1  0  0  0  0
 13 21  1  0  0  0  0
 13 14  1  0  0  0  0
 13 30  1  0  0  0  0
 14 15  1  0  0  0  0
 14 31  1  0  0  0  0
 14 32  1  0  0  0  0
 15 16  1  0  0  0  0
 15 33  1  0  0  0  0
 15 34  1  0  0  0  0
 16 21  1  0  0  0  0
 16 17  1  0  0  0  0
 16 44  1  0  0  0  0
 17 18  1  0  0  0  0
 17 35  1  0  0  0  0
 17 36  1  0  0  0  0
 18 19  1  0  0  0  0
 18 37  1  0  0  0  0
 18 38  1  0  0  0  0
 19 20  1  0  0  0  0
 19 39  1  0  0  0  0
 19 40  1  0  0  0  0
 20 21  1  0  0  0  0
 20 41  1  0  0  0  0
 20 42  1  0  0  0  0
 21 43  1  0  0  0  0
M  CHG  1  16   1
M  END
> <s_m_source_file>
AV-unprocessed.smi

> <i_m_source_file_index>
1721

> <i_lp_mmshare_version>
43012

> <i_f3d_flags>
0

> <s_epik_input>
W0NIM11PYzFuW2NIXVtjSF1bY0hdYzFbTkhdQyg9TylbTkhdW0NASF0oW0NIMl1bQ0gyXTIpW0NAQEhdKE4yMylbQ0gyXVtDSDJdW0NIMl1bQ0gyXTM=

> <s_epik_cmdline>
J2VwaWtfcHl0aG9uJywgJy1waCcsICc3LjAnLCAnLXRuJywgJzgnLCAnLW1hJywgJzIwMCcsICctbWV0YWxfYmluZGluZycsICctaW1hZScsICc8aW5maWxlLm1hZT4nLCAnLW9tYWUnLCAnPG91dGZpbGUubWFlPic=

> <r_lp_tautomer_probability>
1

> <r_epik_Ionization_Penalty>
0.00104793

> <r_epik_Ionization_Penalty_Charging>
0.000974069

> <r_epik_Ionization_Penalty_Neutral>
7.38649e-05

> <r_epik_State_Penalty>
0.000633842

> <r_epik_Charging_Adjusted_Penalty>
0.00160791

> <i_epik_Tot_Q>
1

> <i_epik_Tot_abs_Q>
1

> <r_epik_Metal_State_Penalty>
-0

> <b_epik_Metal_Only>
0

> <s_lp_Force_Field>
OPLS_2005

> <r_lp_Energy>
43.723

> <b_lp_Chiralities_Consistent>
1

> <s_lp_Variant>
AV-unprocessed.smi:1721-2

> <Gold.Version>
5.8.1

> <Gold.Id.Protein>
6NUR|6NUR_protein|mol2

> <Gold.PLP.Fitness>
51.2996

> <Gold.PLP.PLP>
-35.1037

> <Gold.PLP.part.hbond>
-3.9902

> <Gold.PLP.part.metal>
0.0000

> <Gold.PLP.part.buried>
-5.3862

> <Gold.PLP.part.nonpolar>
-26.9245

> <Gold.PLP.part.repulsive>
0.4246

> <Gold.PLP.ligand.clash>
0.0000

> <Gold.PLP.ligand.torsion>
0.3013

> <Gold.PLP.Chemscore.Hbond>
4.6347

> <Gold.PLP.Chemscore.CHOScore>
0.9637

> <Gold.PLP.Chemscore.Metal>
0.0000

> <Gold.Chemscore.Hbonds>
donor molecule, donor type, donor heavy atom, donor atom, acceptor molecule, acceptor atom, score
      L1  H     9    28       P1  7948  1.00
      L1  H    12    29       P1  7948  0.94
      L1  H    16    44       P1 10957  1.76
      P1  H  7989  7998       L1     4  0.94
      L1  C     5    25       P1  8028  0.96

> <Gold.PLP.Chemscore.Internal.Correction>
0.0032

> <Gold.Rescore>
     Score         DG    S(hbond)    S(metal)    S(lipo)     H(rot)  DE(clash)    DE(int)     intcor
     20.86     -21.28       2.96        0.00      77.77       1.25       0.16       0.26       ----

> <Gold.Chemscore.Fitness>
20.8557

> <Gold.Chemscore.DG>
-21.2759

> <Gold.Chemscore.ZeroCoef>
-5.4800

> <Gold.Chemscore.Hbond>
2.9611

> <Gold.Chemscore.Metal>
0.0000

> <Gold.Chemscore.Lipo>
77.7700

> <Gold.Chemscore.Internal_Hbond>
0.0000

> <Gold.Chemscore.DEClash>
0.1616

> <Gold.Chemscore.DEInternal>
0.2586

> <Gold.Chemscore.Rot>
1.2474

> <Gold.Chemscore.Internal.Correction>
   9.000000E+99

> <Gold.Chemscore.Hbonds>
donor molecule, donor type, donor heavy atom, donor atom, acceptor molecule, acceptor atom, score
      L1  H     9    28       P1  7948  1.00
      L1  H    12    29       P1  7948  0.84
      L1  H    16    44       P1 10957  0.51
      P1  H  7989  7998       L1     4  0.37

> <Gold.Chemscore.Hbond.Weighted>
-9.8902

> <Gold.Chemscore.Metal.Weighted>
-0.0000

> <Gold.Chemscore.Lipo.Weighted>
-9.0991

> <Gold.Chemscore.Internal_Hbond.Weighted>
0.0000

> <Gold.Chemscore.DEClash.Weighted>
0.1616

> <Gold.Chemscore.DEInternal.Weighted>
0.2586

> <Gold.Chemscore.Rot.Weighted>
3.1934

> <Gold.Chemscore.Internal.Correction.Weighted>
   9.000000E+99

> <Gold.Protein.RotatedTorsions>
[ 6907 6896 6895 6894 ] final   71.56 input  -60.11 | X-H torsion
[ 7974 7965 7964 7962 ] final -128.64 input  175.53 | X-H torsion
[ 8008 7997 7996 7995 ] final   20.98 input   59.86 | X-H torsion
[ 10167 10162 10161 10158 ] final -161.92 input  -65.29 | X-H torsion
[ 10718 10713 10712 10709 ] final -151.32 input   66.30 | X-H torsion
[ 10763 10752 10751 10750 ] final  -73.43 input  -60.55 | X-H torsion
[ 11005 11000 10999 10996 ] final  132.01 input  -57.11 | X-H torsion

> <Gold.Protein.ActiveResidues>
 VAL166  LYS551  ARG553  GLY616  TRP617  ASP618  TYR619  PRO620  LYS621  CYS622 
 ASP623  PHE694  ASN695  SER759  ASP760  ASP761  ALA762  ILE779  LEU786  VAL792 
 PHE793  MET794  SER795  GLU796  ALA797  LYS798  CYS799  TRP800  GLU811  SER814 

> <Gold.Protein.RotatedAtoms>
  152.4817  134.4702  159.9632 H   0  0  0  0  0  0  0  0  0  0  0  0  # atno 6907 bound_to 6896
  151.4707  133.3564  159.2831 H   0  0  0  0  0  0  0  0  0  0  0  0  # atno 6908 bound_to 6896
  150.8894  134.8322  159.7343 H   0  0  0  0  0  0  0  0  0  0  0  0  # atno 6909 bound_to 6896
  144.9650  140.7487  143.4705 H   0  0  0  0  0  0  0  0  0  0  0  0  # atno 7974 bound_to 7965
  154.9437  140.3056  155.5108 H   0  0  0  0  0  0  0  0  0  0  0  0  # atno 8008 bound_to 7997
  156.2993  140.2331  156.4446 H   0  0  0  0  0  0  0  0  0  0  0  0  # atno 8009 bound_to 7997
  154.8121  140.0428  157.1338 H   0  0  0  0  0  0  0  0  0  0  0  0  # atno 8010 bound_to 7997
  139.6430  144.0224  152.2106 H   0  0  0  0  0  0  0  0  0  0  0  0  # atno 10167 bound_to 10162
  156.4577  130.8198  151.2429 H   0  0  0  0  0  0  0  0  0  0  0  0  # atno 10718 bound_to 10713
  154.4594  135.5897  153.6245 H   0  0  0  0  0  0  0  0  0  0  0  0  # atno 10763 bound_to 10752
  152.9821  135.6040  154.3505 H   0  0  0  0  0  0  0  0  0  0  0  0  # atno 10764 bound_to 10752
  154.3375  135.2842  155.2419 H   0  0  0  0  0  0  0  0  0  0  0  0  # atno 10765 bound_to 10752
  139.9764  134.9562  156.9521 H   0  0  0  0  0  0  0  0  0  0  0  0  # atno 11005 bound_to 11000
  145.2642  139.1980  143.4875 LP  0  0  0  0  0  0  0  0  0  0  0  0  # atno 17320 bound_to 7965
  146.3365  140.2578  142.8601 LP  0  0  0  0  0  0  0  0  0  0  0  0  # atno 17321 bound_to 7965
  139.9919  144.6355  150.7807 LP  0  0  0  0  0  0  0  0  0  0  0  0  # atno 17342 bound_to 10162
  140.7500  143.2949  151.3232 LP  0  0  0  0  0  0  0  0  0  0  0  0  # atno 17343 bound_to 10162
  157.7499  131.0117  150.3356 LP  0  0  0  0  0  0  0  0  0  0  0  0  # atno 17370 bound_to 10713
  156.3749  130.3870  149.7147 LP  0  0  0  0  0  0  0  0  0  0  0  0  # atno 17371 bound_to 10713
  140.5185  134.0931  155.7286 LP  0  0  0  0  0  0  0  0  0  0  0  0  # atno 17394 bound_to 11000
  141.1441  133.9087  157.2257 LP  0  0  0  0  0  0  0  0  0  0  0  0  # atno 17395 bound_to 11000

$$$$
