AV-unprocessed.smi:407|AV-procd|sdf|2502|dock6
  -GOLD-   2262022453D 1   1.00000     0.00000
 Structure written by MMmdl.
 45 47  0  0  0  0  0  0  0  0  1 V2000
  142.9588  145.1186  155.9093 C   0  0  0  0  0  0  0  0  0  0  0  0
  143.7409  144.8041  154.6351 C   0  0  0  0  0  0  0  0  0  0  0  0
  143.3661  145.3014  153.5736 O   0  0  0  0  0  0  0  0  0  0  0  0
  144.9229  143.9032  154.7488 C   0  0  0  0  0  0  0  0  0  0  0  0
  145.6579  143.4898  153.6137 C   0  0  0  0  0  0  0  0  0  0  0  0
  146.7713  142.6394  153.7555 C   0  0  0  0  0  0  0  0  0  0  0  0
  147.1787  142.1841  155.0247 C   0  0  0  0  0  0  0  0  0  0  0  0
  148.2817  141.3589  155.0701 O   0  0  0  0  0  0  0  0  0  0  0  0
  148.7375  140.9119  156.3405 C   0  0  0  0  0  0  0  0  0  0  0  0
  150.2438  140.6160  156.2504 C   0  0  1  0  0  0  0  0  0  0  0  0
  150.5073  140.1814  154.9308 O   0  0  0  0  0  0  0  0  0  0  0  0
  151.0954  141.8766  156.5088 C   0  0  0  0  0  0  0  0  0  0  0  0
  151.7403  141.8332  157.8206 N   0  0  0  0  0  0  0  0  0  0  0  0
  152.4943  140.8220  158.3140 C   0  0  0  0  0  0  0  0  0  0  0  0
  152.7533  139.7667  157.7354 O   0  0  0  0  0  0  0  0  0  0  0  0
  152.9199  141.1795  159.5479 N   0  0  0  0  0  0  0  0  0  0  0  0
  153.7671  140.4002  160.4427 C   0  0  0  0  0  0  0  0  0  0  0  0
  152.4381  142.4600  159.8473 C   0  0  0  0  0  0  0  0  0  0  0  0
  152.6121  143.2684  160.9836 C   0  0  0  0  0  0  0  0  0  0  0  0
  151.9873  144.5374  160.9748 C   0  0  0  0  0  0  0  0  0  0  0  0
  151.2221  144.9633  159.8579 C   0  0  0  0  0  0  0  0  0  0  0  0
  151.0646  144.1289  158.7264 C   0  0  0  0  0  0  0  0  0  0  0  0
  151.6942  142.8724  158.7615 C   0  0  0  0  0  0  0  0  0  0  0  0
  146.4415  142.5946  156.1623 C   0  0  0  0  0  0  0  0  0  0  0  0
  145.3272  143.4442  156.0225 C   0  0  0  0  0  0  0  0  0  0  0  0
  142.5615  144.2037  156.3493 H   0  0  0  0  0  0  0  0  0  0  0  0
  142.1220  145.7818  155.6894 H   0  0  0  0  0  0  0  0  0  0  0  0
  143.6002  145.6109  156.6406 H   0  0  0  0  0  0  0  0  0  0  0  0
  145.3867  143.8137  152.6201 H   0  0  0  0  0  0  0  0  0  0  0  0
  147.3216  142.3346  152.8773 H   0  0  0  0  0  0  0  0  0  0  0  0
  148.5308  141.6425  157.1250 H   0  0  0  0  0  0  0  0  0  0  0  0
  148.2017  139.9945  156.5894 H   0  0  0  0  0  0  0  0  0  0  0  0
  150.5033  139.8311  156.9623 H   0  0  0  0  0  0  0  0  0  0  0  0
  149.6842  140.0770  154.4787 H   0  0  0  0  0  0  0  0  0  0  0  0
  151.8285  142.0297  155.7157 H   0  0  0  0  0  0  0  0  0  0  0  0
  150.4581  142.7621  156.4888 H   0  0  0  0  0  0  0  0  0  0  0  0
  153.3638  140.4117  161.4559 H   0  0  0  0  0  0  0  0  0  0  0  0
  154.7718  140.8226  160.4693 H   0  0  0  0  0  0  0  0  0  0  0  0
  153.8441  139.3587  160.1268 H   0  0  0  0  0  0  0  0  0  0  0  0
  153.1983  142.9378  161.8283 H   0  0  0  0  0  0  0  0  0  0  0  0
  152.0949  145.1909  161.8281 H   0  0  0  0  0  0  0  0  0  0  0  0
  150.7554  145.9372  159.8710 H   0  0  0  0  0  0  0  0  0  0  0  0
  150.4863  144.4505  157.8729 H   0  0  0  0  0  0  0  0  0  0  0  0
  146.7094  142.2710  157.1564 H   0  0  0  0  0  0  0  0  0  0  0  0
  144.7868  143.7402  156.9102 H   0  0  0  0  0  0  0  0  0  0  0  0
  1  2  1  0  0  0  0
  1 26  1  0  0  0  0
  1 27  1  0  0  0  0
  1 28  1  0  0  0  0
  2  3  2  0  0  0  0
  2  4  1  0  0  0  0
  4 25  1  0  0  0  0
  4  5  2  0  0  0  0
  5  6  1  0  0  0  0
  5 29  1  0  0  0  0
  6  7  2  0  0  0  0
  6 30  1  0  0  0  0
  7  8  1  0  0  0  0
  7 24  1  0  0  0  0
  8  9  1  0  0  0  0
  9 10  1  0  0  0  0
  9 31  1  0  0  0  0
  9 32  1  0  0  0  0
 10 11  1  0  0  0  0
 10 12  1  0  0  0  0
 10 33  1  0  0  0  0
 11 34  1  0  0  0  0
 12 13  1  0  0  0  0
 12 35  1  0  0  0  0
 12 36  1  0  0  0  0
 13 23  1  0  0  0  0
 13 14  1  0  0  0  0
 14 15  2  0  0  0  0
 14 16  1  0  0  0  0
 16 17  1  0  0  0  0
 16 18  1  0  0  0  0
 17 37  1  0  0  0  0
 17 38  1  0  0  0  0
 17 39  1  0  0  0  0
 18 23  2  0  0  0  0
 18 19  1  0  0  0  0
 19 20  2  0  0  0  0
 19 40  1  0  0  0  0
 20 21  1  0  0  0  0
 20 41  1  0  0  0  0
 21 22  2  0  0  0  0
 21 42  1  0  0  0  0
 22 23  1  0  0  0  0
 22 43  1  0  0  0  0
 24 25  2  0  0  0  0
 24 44  1  0  0  0  0
 25 45  1  0  0  0  0
M  END
> <s_m_source_file>
AV-unprocessed.smi

> <i_m_source_file_index>
407

> <i_lp_mmshare_version>
43012

> <i_f3d_flags>
0

> <s_epik_input>
W0NIM11DKD1PKWMxW2NIXVtjSF1jKFtjSF1bY0hdMSlPW0NIMl1bQ0BIXShbT0hdKVtDSDJdbihjKD1PKW4yW0NIM10pYyhjMjMpW2NIXVtjSF1bY0hdW2NIXTM=

> <s_epik_cmdline>
J2VwaWtfcHl0aG9uJywgJy1waCcsICc3LjAnLCAnLXRuJywgJzgnLCAnLW1hJywgJzIwMCcsICctbWV0YWxfYmluZGluZycsICctaW1hZScsICc8aW5maWxlLm1hZT4nLCAnLW9tYWUnLCAnPG91dGZpbGUubWFlPic=

> <r_lp_tautomer_probability>
1

> <r_epik_Ionization_Penalty>
2.40123e-06

> <r_epik_Ionization_Penalty_Charging>
1.9356e-09

> <r_epik_Ionization_Penalty_Neutral>
2.3993e-06

> <r_epik_State_Penalty>
-0

> <r_epik_Charging_Adjusted_Penalty>
1.9356e-09

> <i_epik_Tot_Q>
0

> <i_epik_Tot_abs_Q>
0

> <r_epik_Metal_State_Penalty>
-0

> <b_epik_Metal_Only>
0

> <s_lp_Force_Field>
OPLS_2005

> <r_lp_Energy>
53.7359

> <b_lp_Chiralities_Consistent>
1

> <s_lp_Variant>
AV-unprocessed.smi:407-2

> <Gold.Version>
5.8.1

> <Gold.Id.Protein>
6NUR|6NUR_protein|mol2

> <Gold.PLP.Fitness>
57.1664

> <Gold.PLP.PLP>
-53.3272

> <Gold.PLP.part.hbond>
-3.0000

> <Gold.PLP.part.metal>
0.0000

> <Gold.PLP.part.buried>
-8.7718

> <Gold.PLP.part.nonpolar>
-41.5799

> <Gold.PLP.part.repulsive>
0.2189

> <Gold.PLP.ligand.clash>
0.0000

> <Gold.PLP.ligand.torsion>
1.2210

> <Gold.PLP.Chemscore.Hbond>
2.0000

> <Gold.PLP.Chemscore.CHOScore>
0.0000

> <Gold.PLP.Chemscore.Metal>
0.0000

> <Gold.Chemscore.Hbonds>
donor molecule, donor type, donor heavy atom, donor atom, acceptor molecule, acceptor atom, score
      P1  H  7989  7998       L1    11  1.00
      P1  H  7997  8008       L1    15  1.00

> <Gold.PLP.Chemscore.Internal.Correction>
0.2813

> <Gold.Rescore>
     Score         DG    S(hbond)    S(metal)    S(lipo)     H(rot)  DE(clash)    DE(int)     intcor
     18.31     -19.44       1.64        0.00     122.71       2.30       0.08       1.04       ----

> <Gold.Chemscore.Fitness>
18.3095

> <Gold.Chemscore.DG>
-19.4364

> <Gold.Chemscore.ZeroCoef>
-5.4800

> <Gold.Chemscore.Hbond>
1.6417

> <Gold.Chemscore.Metal>
0.0000

> <Gold.Chemscore.Lipo>
122.7088

> <Gold.Chemscore.Internal_Hbond>
0.0000

> <Gold.Chemscore.DEClash>
0.0822

> <Gold.Chemscore.DEInternal>
1.0446

> <Gold.Chemscore.Rot>
2.2984

> <Gold.Chemscore.Internal.Correction>
   9.000000E+99

> <Gold.Chemscore.Hbonds>
donor molecule, donor type, donor heavy atom, donor atom, acceptor molecule, acceptor atom, score
      P1  H  7989  7998       L1    11  0.30
      P1  H  7997  8008       L1    15  0.43

> <Gold.Chemscore.Hbond.Weighted>
-5.4833

> <Gold.Chemscore.Metal.Weighted>
-0.0000

> <Gold.Chemscore.Lipo.Weighted>
-14.3569

> <Gold.Chemscore.Internal_Hbond.Weighted>
0.0000

> <Gold.Chemscore.DEClash.Weighted>
0.0822

> <Gold.Chemscore.DEInternal.Weighted>
1.0446

> <Gold.Chemscore.Rot.Weighted>
5.8839

> <Gold.Chemscore.Internal.Correction.Weighted>
   9.000000E+99

> <Gold.Protein.RotatedTorsions>
[ 6907 6896 6895 6894 ] final   81.44 input  -60.11 | X-H torsion
[ 7974 7965 7964 7962 ] final  124.13 input  175.53 | X-H torsion
[ 8008 7997 7996 7995 ] final  -84.94 input   59.86 | X-H torsion
[ 10167 10162 10161 10158 ] final    0.52 input  -65.29 | X-H torsion
[ 10718 10713 10712 10709 ] final    3.14 input   66.30 | X-H torsion
[ 10763 10752 10751 10750 ] final  -53.65 input  -60.55 | X-H torsion
[ 11005 11000 10999 10996 ] final  -72.35 input  -57.11 | X-H torsion

> <Gold.Protein.ActiveResidues>
 VAL166  LYS551  ARG553  GLY616  TRP617  ASP618  TYR619  PRO620  LYS621  CYS622 
 ASP623  PHE694  ASN695  SER759  ASP760  ASP761  ALA762  ILE779  LEU786  VAL792 
 PHE793  MET794  SER795  GLU796  ALA797  LYS798  CYS799  TRP800  GLU811  SER814 

> <Gold.Protein.RotatedAtoms>
  152.5268  134.3204  159.9145 H   0  0  0  0  0  0  0  0  0  0  0  0  # atno 6907 bound_to 6896
  151.3153  133.4056  159.2658 H   0  0  0  0  0  0  0  0  0  0  0  0  # atno 6908 bound_to 6896
  151.0004  134.9334  159.8008 H   0  0  0  0  0  0  0  0  0  0  0  0  # atno 6909 bound_to 6896
  145.0880  139.3608  143.4875 H   0  0  0  0  0  0  0  0  0  0  0  0  # atno 7974 bound_to 7965
  154.6353  140.0598  156.9781 H   0  0  0  0  0  0  0  0  0  0  0  0  # atno 8008 bound_to 7997
  155.1602  140.3282  155.4394 H   0  0  0  0  0  0  0  0  0  0  0  0  # atno 8009 bound_to 7997
  156.2504  140.1932  156.6709 H   0  0  0  0  0  0  0  0  0  0  0  0  # atno 8010 bound_to 7997
  140.6725  143.7010  150.7952 H   0  0  0  0  0  0  0  0  0  0  0  0  # atno 10167 bound_to 10162
  156.8735  130.5628  149.5656 H   0  0  0  0  0  0  0  0  0  0  0  0  # atno 10718 bound_to 10713
  154.1622  135.6473  153.4988 H   0  0  0  0  0  0  0  0  0  0  0  0  # atno 10763 bound_to 10752
  153.0107  135.5363  154.6699 H   0  0  0  0  0  0  0  0  0  0  0  0  # atno 10764 bound_to 10752
  154.6016  135.2944  155.0501 H   0  0  0  0  0  0  0  0  0  0  0  0  # atno 10765 bound_to 10752
  141.1607  133.6844  156.7045 H   0  0  0  0  0  0  0  0  0  0  0  0  # atno 11005 bound_to 11000
  146.3531  140.0701  142.8624 LP  0  0  0  0  0  0  0  0  0  0  0  0  # atno 17320 bound_to 7965
  145.1100  140.9399  143.4662 LP  0  0  0  0  0  0  0  0  0  0  0  0  # atno 17321 bound_to 7965
  140.0697  143.5073  152.2586 LP  0  0  0  0  0  0  0  0  0  0  0  0  # atno 17342 bound_to 10162
  139.6000  144.7579  151.3195 LP  0  0  0  0  0  0  0  0  0  0  0  0  # atno 17343 bound_to 10162
  156.0714  130.5746  150.9391 LP  0  0  0  0  0  0  0  0  0  0  0  0  # atno 17370 bound_to 10713
  157.6182  131.0931  150.8671 LP  0  0  0  0  0  0  0  0  0  0  0  0  # atno 17371 bound_to 10713
  140.2934  134.8222  157.4036 LP  0  0  0  0  0  0  0  0  0  0  0  0  # atno 17394 bound_to 11000
  140.1326  134.5075  155.8093 LP  0  0  0  0  0  0  0  0  0  0  0  0  # atno 17395 bound_to 11000

$$$$
