AV-unprocessed.smi:2209|AV-procd|sdf|8947|dock2
  -GOLD-   2272012163D 1   1.00000     0.00000
 Structure written by MMmdl.
 26 27  0  0  0  0  0  0  0  0  2 V2000
  152.0100  140.6663  158.9833 C   0  0  0  0  0  0  0  0  0  0  0  0
  151.7202  140.2357  157.5857 C   0  0  0  0  0  0  0  0  0  0  0  0
  152.5478  139.4382  156.9218 N   0  0  0  0  0  0  0  0  0  0  0  0
  151.9201  139.2832  155.6774 O   0  0  0  0  0  0  0  0  0  0  0  0
  150.7809  140.0133  155.7439 C   0  0  0  0  0  0  0  0  0  0  0  0
  149.8737  140.0498  154.5540 C   0  0  2  0  0  0  0  0  0  0  0  0
  148.5774  140.8322  154.8378 C   0  0  0  0  0  0  0  0  0  0  0  0
  147.6679  140.8352  153.5994 C   0  0  0  0  0  0  0  0  0  0  0  0
  147.4018  139.4026  153.1083 C   0  0  0  0  0  0  0  0  0  0  0  0
  148.6741  138.6980  152.8384 N   0  3  0  0  0  0  0  0  0  0  0  0
  149.5645  138.6366  154.0191 C   0  0  0  0  0  0  0  0  0  0  0  0
  150.6031  140.6263  156.9125 N   0  0  0  0  0  0  0  0  0  0  0  0
  152.9533  140.2467  159.3347 H   0  0  0  0  0  0  0  0  0  0  0  0
  151.2154  140.3345  159.6519 H   0  0  0  0  0  0  0  0  0  0  0  0
  152.0763  141.7532  159.0359 H   0  0  0  0  0  0  0  0  0  0  0  0
  150.4085  140.5844  153.7669 H   0  0  0  0  0  0  0  0  0  0  0  0
  148.0460  140.3802  155.6765 H   0  0  0  0  0  0  0  0  0  0  0  0
  148.8100  141.8564  155.1319 H   0  0  0  0  0  0  0  0  0  0  0  0
  146.7251  141.3322  153.8303 H   0  0  0  0  0  0  0  0  0  0  0  0
  148.1357  141.4144  152.8021 H   0  0  0  0  0  0  0  0  0  0  0  0
  146.8316  138.8450  153.8528 H   0  0  0  0  0  0  0  0  0  0  0  0
  146.8045  139.4202  152.1964 H   0  0  0  0  0  0  0  0  0  0  0  0
  148.4693  137.7571  152.5332 H   0  0  0  0  0  0  0  0  0  0  0  0
  150.4862  138.1261  153.7380 H   0  0  0  0  0  0  0  0  0  0  0  0
  149.0877  138.0306  154.7910 H   0  0  0  0  0  0  0  0  0  0  0  0
  149.1571  139.1828  152.0953 H   0  0  0  0  0  0  0  0  0  0  0  0
  1  2  1  0  0  0  0
  1 13  1  0  0  0  0
  1 14  1  0  0  0  0
  1 15  1  0  0  0  0
  2 12  1  0  0  0  0
  2  3  2  0  0  0  0
  3  4  1  0  0  0  0
  4  5  1  0  0  0  0
  5  6  1  0  0  0  0
  5 12  2  0  0  0  0
  6 11  1  0  0  0  0
  6  7  1  0  0  0  0
  6 16  1  0  0  0  0
  7  8  1  0  0  0  0
  7 17  1  0  0  0  0
  7 18  1  0  0  0  0
  8  9  1  0  0  0  0
  8 19  1  0  0  0  0
  8 20  1  0  0  0  0
  9 10  1  0  0  0  0
  9 21  1  0  0  0  0
  9 22  1  0  0  0  0
 10 11  1  0  0  0  0
 10 23  1  0  0  0  0
 10 26  1  0  0  0  0
 11 24  1  0  0  0  0
 11 25  1  0  0  0  0
M  CHG  1  10   1
M  END
> <s_m_source_file>
AV-unprocessed.smi

> <i_m_source_file_index>
2209

> <i_lp_mmshare_version>
43012

> <i_f3d_flags>
0

> <s_epik_input>
W0NIM11jMW5vYyhuMSlbQ0BASF0yW0NIMl1bQ0gyXVtDSDJdW05IXVtDSDJdMg==

> <s_epik_cmdline>
J2VwaWtfcHl0aG9uJywgJy1waCcsICc3LjAnLCAnLXRuJywgJzgnLCAnLW1hJywgJzIwMCcsICctbWV0YWxfYmluZGluZycsICctaW1hZScsICc8aW5maWxlLm1hZT4nLCAnLW9tYWUnLCAnPG91dGZpbGUubWFlPic=

> <r_lp_tautomer_probability>
1

> <r_epik_Ionization_Penalty>
0.000532935

> <r_epik_Ionization_Penalty_Charging>
0.000532935

> <r_epik_Ionization_Penalty_Neutral>
4.97553e-13

> <r_epik_State_Penalty>
0.000332992

> <r_epik_Charging_Adjusted_Penalty>
0.000865928

> <i_epik_Tot_Q>
1

> <i_epik_Tot_abs_Q>
1

> <r_epik_Metal_State_Penalty>
-0

> <b_epik_Metal_Only>
0

> <s_lp_Force_Field>
OPLS_2005

> <r_lp_Energy>
10.4199

> <b_lp_Chiralities_Consistent>
1

> <s_lp_Variant>
AV-unprocessed.smi:2209-1

> <Gold.Version>
5.8.1

> <Gold.Id.Protein>
6NUR|6NUR_protein|mol2

> <Gold.PLP.Fitness>
33.9039

> <Gold.PLP.PLP>
-22.1176

> <Gold.PLP.part.hbond>
-3.1775

> <Gold.PLP.part.metal>
0.0000

> <Gold.PLP.part.buried>
-1.1879

> <Gold.PLP.part.nonpolar>
-17.7273

> <Gold.PLP.part.repulsive>
0.1168

> <Gold.PLP.ligand.clash>
0.0000

> <Gold.PLP.ligand.torsion>
0.1105

> <Gold.PLP.Chemscore.Hbond>
3.9913

> <Gold.PLP.Chemscore.CHOScore>
0.0000

> <Gold.PLP.Chemscore.Metal>
0.0000

> <Gold.Chemscore.Hbonds>
donor molecule, donor type, donor heavy atom, donor atom, acceptor molecule, acceptor atom, score
      L1  H    10    23       P1  7948  2.00
      L1  H    10    26       P1  7957  0.50
      P1  H  7997  8008       L1     3  1.00

> <Gold.PLP.Chemscore.Internal.Correction>
0.0335

> <Gold.Rescore>
     Score         DG    S(hbond)    S(metal)    S(lipo)     H(rot)  DE(clash)    DE(int)     intcor
     16.75     -17.08       2.81        0.00      40.93       1.00       0.10       0.24       ----

> <Gold.Chemscore.Fitness>
16.7453

> <Gold.Chemscore.DG>
-17.0823

> <Gold.Chemscore.ZeroCoef>
-5.4800

> <Gold.Chemscore.Hbond>
2.8065

> <Gold.Chemscore.Metal>
0.0000

> <Gold.Chemscore.Lipo>
40.9298

> <Gold.Chemscore.Internal_Hbond>
0.0000

> <Gold.Chemscore.DEClash>
0.1019

> <Gold.Chemscore.DEInternal>
0.2351

> <Gold.Chemscore.Rot>
1.0000

> <Gold.Chemscore.Internal.Correction>
   9.000000E+99

> <Gold.Chemscore.Hbonds>
donor molecule, donor type, donor heavy atom, donor atom, acceptor molecule, acceptor atom, score
      L1  H    10    23       P1  7948  0.94
      L1  H    10    26       P1  7957  0.48
      P1  H  7997  8008       L1     3  0.69

> <Gold.Chemscore.Hbond.Weighted>
-9.3736

> <Gold.Chemscore.Metal.Weighted>
-0.0000

> <Gold.Chemscore.Lipo.Weighted>
-4.7888

> <Gold.Chemscore.Internal_Hbond.Weighted>
0.0000

> <Gold.Chemscore.DEClash.Weighted>
0.1019

> <Gold.Chemscore.DEInternal.Weighted>
0.2351

> <Gold.Chemscore.Rot.Weighted>
2.5600

> <Gold.Chemscore.Internal.Correction.Weighted>
   9.000000E+99

> <Gold.Protein.RotatedTorsions>
[ 6907 6896 6895 6894 ] final -124.43 input  -60.11 | X-H torsion
[ 7974 7965 7964 7962 ] final  109.90 input  175.53 | X-H torsion
[ 8008 7997 7996 7995 ] final  -62.79 input   59.86 | X-H torsion
[ 10167 10162 10161 10158 ] final  165.98 input  -65.29 | X-H torsion
[ 10718 10713 10712 10709 ] final   89.01 input   66.30 | X-H torsion
[ 10763 10752 10751 10750 ] final   74.84 input  -60.55 | X-H torsion
[ 11005 11000 10999 10996 ] final   -2.80 input  -57.11 | X-H torsion

> <Gold.Protein.ActiveResidues>
 VAL166  LYS551  ARG553  GLY616  TRP617  ASP618  TYR619  PRO620  LYS621  CYS622 
 ASP623  PHE694  ASN695  SER759  ASP760  ASP761  ALA762  ILE779  LEU786  VAL792 
 PHE793  MET794  SER795  GLU796  ALA797  LYS798  CYS799  TRP800  GLU811  SER814 

> <Gold.Protein.RotatedAtoms>
  150.8767  133.7428  159.2944 H   0  0  0  0  0  0  0  0  0  0  0  0  # atno 6907 bound_to 6896
  151.5023  135.1060  159.9841 H   0  0  0  0  0  0  0  0  0  0  0  0  # atno 6908 bound_to 6896
  152.4732  133.8033  159.7020 H   0  0  0  0  0  0  0  0  0  0  0  0  # atno 6909 bound_to 6896
  145.2619  139.2699  143.4012 H   0  0  0  0  0  0  0  0  0  0  0  0  # atno 7974 bound_to 7965
  154.4519  140.0988  156.6642 H   0  0  0  0  0  0  0  0  0  0  0  0  # atno 8008 bound_to 7997
  155.5260  140.3480  155.4398 H   0  0  0  0  0  0  0  0  0  0  0  0  # atno 8009 bound_to 7997
  156.0697  140.1346  156.9832 H   0  0  0  0  0  0  0  0  0  0  0  0  # atno 8010 bound_to 7997
  139.4916  144.4075  151.9338 H   0  0  0  0  0  0  0  0  0  0  0  0  # atno 10167 bound_to 10162
  157.6953  131.0316  150.3361 H   0  0  0  0  0  0  0  0  0  0  0  0  # atno 10718 bound_to 10713
  153.0614  135.5011  154.8101 H   0  0  0  0  0  0  0  0  0  0  0  0  # atno 10763 bound_to 10752
  154.6888  135.2981  154.9512 H   0  0  0  0  0  0  0  0  0  0  0  0  # atno 10764 bound_to 10752
  154.0274  135.6734  153.4830 H   0  0  0  0  0  0  0  0  0  0  0  0  # atno 10765 bound_to 10752
  140.6623  133.9309  155.8444 H   0  0  0  0  0  0  0  0  0  0  0  0  # atno 11005 bound_to 11000
  146.3272  140.3038  142.8622 LP  0  0  0  0  0  0  0  0  0  0  0  0  # atno 17320 bound_to 7965
  144.9411  140.8079  143.5630 LP  0  0  0  0  0  0  0  0  0  0  0  0  # atno 17321 bound_to 7965
  140.3516  144.3082  150.5948 LP  0  0  0  0  0  0  0  0  0  0  0  0  # atno 17342 bound_to 10162
  140.5480  143.2211  151.7974 LP  0  0  0  0  0  0  0  0  0  0  0  0  # atno 17343 bound_to 10162
  156.3828  130.3883  149.7089 LP  0  0  0  0  0  0  0  0  0  0  0  0  # atno 17370 bound_to 10713
  156.4465  130.7886  151.2907 LP  0  0  0  0  0  0  0  0  0  0  0  0  # atno 17371 bound_to 10713
  141.0456  134.0559  157.3849 LP  0  0  0  0  0  0  0  0  0  0  0  0  # atno 17394 bound_to 11000
  139.9009  135.0164  156.7262 LP  0  0  0  0  0  0  0  0  0  0  0  0  # atno 17395 bound_to 11000

$$$$
