AV-unprocessed.smi:485|AV-procd|sdf|2691|dock6
  -GOLD-   2262023123D 1   1.00000     0.00000
 Structure written by MMmdl.
 36 38  0  0  0  0  0  0  0  0  1 V2000
  149.5699  143.9635  158.3036 O   0  0  0  0  0  0  0  0  0  0  0  0
  150.7541  144.6199  158.7010 C   0  0  0  0  0  0  0  0  0  0  0  0
  151.6103  143.7892  159.6087 C   0  0  0  0  0  0  0  0  0  0  0  0
  151.8624  144.1617  160.8643 N   0  0  0  0  0  0  0  0  0  0  0  0
  152.6460  143.1281  161.3378 C   0  0  0  0  0  0  0  0  0  0  0  0
  153.2340  142.9295  162.6076 C   0  0  0  0  0  0  0  0  0  0  0  0
  153.9997  141.7738  162.8668 C   0  0  0  0  0  0  0  0  0  0  0  0
  154.1861  140.8013  161.8632 C   0  0  0  0  0  0  0  0  0  0  0  0
  153.6094  140.9803  160.5911 C   0  0  0  0  0  0  0  0  0  0  0  0
  152.8496  142.1380  160.3357 C   0  0  0  0  0  0  0  0  0  0  0  0
  152.1684  142.6134  159.2188 N   0  0  0  0  0  0  0  0  0  0  0  0
  152.0829  141.9469  157.9242 C   0  0  0  0  0  0  0  0  0  0  0  0
  151.0455  140.8050  157.9041 C   0  0  2  0  0  0  0  0  0  0  0  0
  151.2595  139.9308  158.9946 O   0  0  0  0  0  0  0  0  0  0  0  0
  151.0557  140.0735  156.5710 C   0  0  0  0  0  0  0  0  0  0  0  0
  152.2094  139.3714  156.1602 C   0  0  0  0  0  0  0  0  0  0  0  0
  152.2234  138.6870  154.9292 C   0  0  0  0  0  0  0  0  0  0  0  0
  151.0829  138.6986  154.1033 C   0  0  0  0  0  0  0  0  0  0  0  0
  149.9276  139.3930  154.5098 C   0  0  0  0  0  0  0  0  0  0  0  0
  149.9130  140.0776  155.7406 C   0  0  0  0  0  0  0  0  0  0  0  0
  149.4707  144.0631  157.3694 H   0  0  0  0  0  0  0  0  0  0  0  0
  151.3217  144.8753  157.8055 H   0  0  0  0  0  0  0  0  0  0  0  0
  150.5069  145.5625  159.1890 H   0  0  0  0  0  0  0  0  0  0  0  0
  153.0946  143.6673  163.3838 H   0  0  0  0  0  0  0  0  0  0  0  0
  154.4446  141.6322  163.8408 H   0  0  0  0  0  0  0  0  0  0  0  0
  154.7722  139.9179  162.0701 H   0  0  0  0  0  0  0  0  0  0  0  0
  153.7499  140.2362  159.8216 H   0  0  0  0  0  0  0  0  0  0  0  0
  151.8185  142.6987  157.1797 H   0  0  0  0  0  0  0  0  0  0  0  0
  153.0626  141.5684  157.6360 H   0  0  0  0  0  0  0  0  0  0  0  0
  150.0510  141.2282  158.0466 H   0  0  0  0  0  0  0  0  0  0  0  0
  151.7578  140.3900  159.6528 H   0  0  0  0  0  0  0  0  0  0  0  0
  153.0887  139.3544  156.7877 H   0  0  0  0  0  0  0  0  0  0  0  0
  153.1090  138.1524  154.6186 H   0  0  0  0  0  0  0  0  0  0  0  0
  151.0943  138.1737  153.1593 H   0  0  0  0  0  0  0  0  0  0  0  0
  149.0517  139.4008  153.8778 H   0  0  0  0  0  0  0  0  0  0  0  0
  149.0211  140.6052  156.0464 H   0  0  0  0  0  0  0  0  0  0  0  0
  1  2  1  0  0  0  0
  1 21  1  0  0  0  0
  2  3  1  0  0  0  0
  2 22  1  0  0  0  0
  2 23  1  0  0  0  0
  3 11  1  0  0  0  0
  3  4  2  0  0  0  0
  4  5  1  0  0  0  0
  5 10  2  0  0  0  0
  5  6  1  0  0  0  0
  6  7  2  0  0  0  0
  6 24  1  0  0  0  0
  7  8  1  0  0  0  0
  7 25  1  0  0  0  0
  8  9  2  0  0  0  0
  8 26  1  0  0  0  0
  9 10  1  0  0  0  0
  9 27  1  0  0  0  0
 10 11  1  0  0  0  0
 11 12  1  0  0  0  0
 12 13  1  0  0  0  0
 12 28  1  0  0  0  0
 12 29  1  0  0  0  0
 13 14  1  0  0  0  0
 13 15  1  0  0  0  0
 13 30  1  0  0  0  0
 14 31  1  0  0  0  0
 15 20  1  0  0  0  0
 15 16  2  0  0  0  0
 16 17  1  0  0  0  0
 16 32  1  0  0  0  0
 17 18  2  0  0  0  0
 17 33  1  0  0  0  0
 18 19  1  0  0  0  0
 18 34  1  0  0  0  0
 19 20  2  0  0  0  0
 19 35  1  0  0  0  0
 20 36  1  0  0  0  0
M  END
> <s_m_source_file>
AV-unprocessed.smi

> <i_m_source_file_index>
485

> <i_lp_mmshare_version>
43012

> <i_f3d_flags>
0

> <s_epik_input>
W2NIXTFbY0hdW2NIXVtjSF1jKGMxMiluKGMobjIpW0NIMl1bT0hdKVtDSDJdW0NASF0oW09IXSljM1tjSF1bY0hdW2NIXVtjSF1bY0hdMw==

> <s_epik_cmdline>
J2VwaWtfcHl0aG9uJywgJy1waCcsICc3LjAnLCAnLXRuJywgJzgnLCAnLW1hJywgJzIwMCcsICctbWV0YWxfYmluZGluZycsICctaW1hZScsICc8aW5maWxlLm1hZT4nLCAnLW9tYWUnLCAnPG91dGZpbGUubWFlPic=

> <r_epik_Ionization_Penalty>
0.0634722

> <r_epik_Ionization_Penalty_Charging>
0

> <r_epik_Ionization_Penalty_Neutral>
0.0634722

> <r_epik_State_Penalty>
0.0551572

> <r_epik_Charging_Adjusted_Penalty>
0.0551572

> <i_epik_Tot_Q>
0

> <i_epik_Tot_abs_Q>
0

> <r_epik_Metal_State_Penalty>
5.78034e-05

> <b_epik_Metal_Only>
0

> <s_lp_Force_Field>
OPLS_2005

> <r_lp_Energy>
12.7627

> <b_lp_Chiralities_Consistent>
1

> <s_lp_Variant>
AV-unprocessed.smi:485-1

> <Gold.Version>
5.8.1

> <Gold.Id.Protein>
6NUR|6NUR_protein|mol2

> <Gold.PLP.Fitness>
49.3490

> <Gold.PLP.PLP>
-46.9525

> <Gold.PLP.part.hbond>
-2.0000

> <Gold.PLP.part.metal>
0.0000

> <Gold.PLP.part.buried>
-4.5112

> <Gold.PLP.part.nonpolar>
-39.8894

> <Gold.PLP.part.repulsive>
0.1255

> <Gold.PLP.ligand.clash>
0.0000

> <Gold.PLP.ligand.torsion>
0.3215

> <Gold.PLP.Chemscore.Hbond>
1.0000

> <Gold.PLP.Chemscore.CHOScore>
0.0000

> <Gold.PLP.Chemscore.Metal>
0.0000

> <Gold.Chemscore.Hbonds>
donor molecule, donor type, donor heavy atom, donor atom, acceptor molecule, acceptor atom, score
      L1  H     1    21       P1  8028  1.00

> <Gold.PLP.Chemscore.Internal.Correction>
0.0396

> <Gold.Rescore>
     Score         DG    S(hbond)    S(metal)    S(lipo)     H(rot)  DE(clash)    DE(int)     intcor
     15.17     -15.69       0.62        0.00     127.06       2.62       0.09       0.43       ----

> <Gold.Chemscore.Fitness>
15.1717

> <Gold.Chemscore.DG>
-15.6905

> <Gold.Chemscore.ZeroCoef>
-5.4800

> <Gold.Chemscore.Hbond>
0.6166

> <Gold.Chemscore.Metal>
0.0000

> <Gold.Chemscore.Lipo>
127.0638

> <Gold.Chemscore.Internal_Hbond>
0.0000

> <Gold.Chemscore.DEClash>
0.0923

> <Gold.Chemscore.DEInternal>
0.4265

> <Gold.Chemscore.Rot>
2.6232

> <Gold.Chemscore.Internal.Correction>
   9.000000E+99

> <Gold.Chemscore.Hbonds>
donor molecule, donor type, donor heavy atom, donor atom, acceptor molecule, acceptor atom, score
      L1  H     1    21       P1  8028  0.30

> <Gold.Chemscore.Hbond.Weighted>
-2.0595

> <Gold.Chemscore.Metal.Weighted>
-0.0000

> <Gold.Chemscore.Lipo.Weighted>
-14.8665

> <Gold.Chemscore.Internal_Hbond.Weighted>
0.0000

> <Gold.Chemscore.DEClash.Weighted>
0.0923

> <Gold.Chemscore.DEInternal.Weighted>
0.4265

> <Gold.Chemscore.Rot.Weighted>
6.7154

> <Gold.Chemscore.Internal.Correction.Weighted>
   9.000000E+99

> <Gold.Protein.RotatedTorsions>
[ 6907 6896 6895 6894 ] final -148.00 input  -60.11 | X-H torsion
[ 7974 7965 7964 7962 ] final -119.51 input  175.53 | X-H torsion
[ 8008 7997 7996 7995 ] final  116.60 input   59.86 | X-H torsion
[ 10167 10162 10161 10158 ] final -121.48 input  -65.29 | X-H torsion
[ 10718 10713 10712 10709 ] final   69.75 input   66.30 | X-H torsion
[ 10763 10752 10751 10750 ] final  -46.82 input  -60.55 | X-H torsion
[ 11005 11000 10999 10996 ] final  125.04 input  -57.11 | X-H torsion

> <Gold.Protein.ActiveResidues>
 VAL166  LYS551  ARG553  GLY616  TRP617  ASP618  TYR619  PRO620  LYS621  CYS622 
 ASP623  PHE694  ASN695  SER759  ASP760  ASP761  ALA762  ILE779  LEU786  VAL792 
 PHE793  MET794  SER795  GLU796  ALA797  LYS798  CYS799  TRP800  GLU811  SER814 

> <Gold.Protein.RotatedAtoms>
  151.1636  133.4829  159.2593 H   0  0  0  0  0  0  0  0  0  0  0  0  # atno 6907 bound_to 6896
  151.1429  135.0188  159.8643 H   0  0  0  0  0  0  0  0  0  0  0  0  # atno 6908 bound_to 6896
  152.5462  134.1528  159.8578 H   0  0  0  0  0  0  0  0  0  0  0  0  # atno 6909 bound_to 6896
  145.0617  140.8295  143.4148 H   0  0  0  0  0  0  0  0  0  0  0  0  # atno 7974 bound_to 7965
  156.2448  140.2914  156.0548 H   0  0  0  0  0  0  0  0  0  0  0  0  # atno 8008 bound_to 7997
  155.1841  140.0405  157.2905 H   0  0  0  0  0  0  0  0  0  0  0  0  # atno 8009 bound_to 7997
  154.6239  140.2483  155.7522 H   0  0  0  0  0  0  0  0  0  0  0  0  # atno 8010 bound_to 7997
  140.0246  143.5310  152.2205 H   0  0  0  0  0  0  0  0  0  0  0  0  # atno 10167 bound_to 10162
  157.6363  130.9442  150.0556 H   0  0  0  0  0  0  0  0  0  0  0  0  # atno 10718 bound_to 10713
  154.0513  135.6630  153.4801 H   0  0  0  0  0  0  0  0  0  0  0  0  # atno 10763 bound_to 10752
  153.0462  135.5113  154.7748 H   0  0  0  0  0  0  0  0  0  0  0  0  # atno 10764 bound_to 10752
  154.6755  135.3036  154.9650 H   0  0  0  0  0  0  0  0  0  0  0  0  # atno 10765 bound_to 10752
  139.9387  134.9637  156.8498 H   0  0  0  0  0  0  0  0  0  0  0  0  # atno 11005 bound_to 11000
  145.1401  139.2578  143.5495 LP  0  0  0  0  0  0  0  0  0  0  0  0  # atno 17320 bound_to 7965
  146.3524  140.1075  142.8605 LP  0  0  0  0  0  0  0  0  0  0  0  0  # atno 17321 bound_to 7965
  139.6117  144.7610  151.2937 LP  0  0  0  0  0  0  0  0  0  0  0  0  # atno 17342 bound_to 10162
  140.7328  143.6812  150.7999 LP  0  0  0  0  0  0  0  0  0  0  0  0  # atno 17343 bound_to 10162
  156.1605  130.3644  149.9307 LP  0  0  0  0  0  0  0  0  0  0  0  0  # atno 17370 bound_to 10713
  156.7306  130.9042  151.3625 LP  0  0  0  0  0  0  0  0  0  0  0  0  # atno 17371 bound_to 10713
  140.6008  134.0174  155.7536 LP  0  0  0  0  0  0  0  0  0  0  0  0  # atno 17394 bound_to 11000
  141.1012  133.9765  157.3075 LP  0  0  0  0  0  0  0  0  0  0  0  0  # atno 17395 bound_to 11000

$$$$
