AV-unprocessed.smi:157|AV-procd|sdf|1317|dock1
  -GOLD-   2262019 13D 1   1.00000     0.00000
 Structure written by MMmdl.
 36 38  0  0  0  0  0  0  0  0  2 V2000
  147.9873  131.7430  152.3291 O   0  0  0  0  0  0  0  0  0  0  0  0
  146.6882  131.4794  152.8146 C   0  0  0  0  0  0  0  0  0  0  0  0
  145.6758  132.4506  152.1824 C   0  0  1  0  0  0  0  0  0  0  0  0
  146.1800  133.7834  152.1722 O   0  0  0  0  0  0  0  0  0  0  0  0
  145.6690  134.4873  151.0777 C   0  0  2  0  0  0  0  0  0  0  0  0
  144.8803  135.6526  151.5818 N   0  0  0  0  0  0  0  0  0  0  0  0
  145.2203  136.9560  151.4885 C   0  0  0  0  0  0  0  0  0  0  0  0
  144.3449  137.7867  152.0291 N   0  3  0  0  0  0  0  0  0  0  0  0
  143.3269  137.0071  152.5351 C   0  0  0  0  0  0  0  0  0  0  0  0
  143.6838  135.6849  152.2598 C   0  0  0  0  0  0  0  0  0  0  0  0
  143.0154  134.4911  152.5709 N   0  0  0  0  0  0  0  0  0  0  0  0
  142.0686  134.4251  153.4496 C   0  0  0  0  0  0  0  0  0  0  0  0
  141.4710  135.4473  154.1687 N   0  0  0  0  0  0  0  0  0  0  0  0
  141.0168  136.6832  153.5557 C   0  0  0  0  0  0  0  0  0  0  0  0
  142.1537  137.6519  153.2036 C   0  0  1  0  0  0  0  0  0  0  0  0
  142.5207  138.3658  154.3651 O   0  0  0  0  0  0  0  0  0  0  0  0
  144.7588  133.5361  150.2942 C   0  0  0  0  0  0  0  0  0  0  0  0
  145.2698  132.1777  150.7271 C   0  0  1  0  0  0  0  0  0  0  0  0
  146.3654  131.7760  149.9265 O   0  0  0  0  0  0  0  0  0  0  0  0
  144.7714  132.4688  152.7934 H   0  0  0  0  0  0  0  0  0  0  0  0
  146.4826  134.9100  150.4873 H   0  0  0  0  0  0  0  0  0  0  0  0
  141.7528  138.3951  152.5135 H   0  0  0  0  0  0  0  0  0  0  0  0
  144.4949  131.4135  150.6599 H   0  0  0  0  0  0  0  0  0  0  0  0
  148.1189  131.2449  151.5366 H   0  0  0  0  0  0  0  0  0  0  0  0
  146.4281  130.4528  152.5564 H   0  0  0  0  0  0  0  0  0  0  0  0
  146.6809  131.5435  153.9030 H   0  0  0  0  0  0  0  0  0  0  0  0
  146.1269  137.2868  151.0139 H   0  0  0  0  0  0  0  0  0  0  0  0
  141.6397  133.4513  153.6906 H   0  0  0  0  0  0  0  0  0  0  0  0
  140.9010  135.2017  154.9660 H   0  0  0  0  0  0  0  0  0  0  0  0
  140.4866  136.4155  152.6405 H   0  0  0  0  0  0  0  0  0  0  0  0
  140.2809  137.1661  154.1999 H   0  0  0  0  0  0  0  0  0  0  0  0
  142.5110  139.2893  154.1639 H   0  0  0  0  0  0  0  0  0  0  0  0
  143.7242  133.6634  150.6177 H   0  0  0  0  0  0  0  0  0  0  0  0
  144.8171  133.7210  149.2209 H   0  0  0  0  0  0  0  0  0  0  0  0
  147.0812  131.5377  150.4961 H   0  0  0  0  0  0  0  0  0  0  0  0
  144.4119  138.7962  152.0621 H   0  0  0  0  0  0  0  0  0  0  0  0
  1  2  1  0  0  0  0
  1 24  1  0  0  0  0
  2  3  1  0  0  0  0
  2 25  1  0  0  0  0
  2 26  1  0  0  0  0
  3 20  1  0  0  0  0
  3 18  1  0  0  0  0
  3  4  1  0  0  0  0
  4  5  1  0  0  0  0
  5 21  1  0  0  0  0
  5  6  1  0  0  0  0
  5 17  1  0  0  0  0
  6 10  1  0  0  0  0
  6  7  1  0  0  0  0
  7  8  2  0  0  0  0
  7 27  1  0  0  0  0
  8  9  1  0  0  0  0
  8 36  1  0  0  0  0
  9 15  1  0  0  0  0
  9 10  2  0  0  0  0
 10 11  1  0  0  0  0
 11 12  2  0  0  0  0
 12 13  1  0  0  0  0
 12 28  1  0  0  0  0
 13 14  1  0  0  0  0
 13 29  1  0  0  0  0
 14 15  1  0  0  0  0
 14 30  1  0  0  0  0
 14 31  1  0  0  0  0
 15 22  1  0  0  0  0
 15 16  1  0  0  0  0
 16 32  1  0  0  0  0
 17 18  1  0  0  0  0
 17 33  1  0  0  0  0
 17 34  1  0  0  0  0
 18 23  1  0  0  0  0
 18 19  1  0  0  0  0
 19 35  1  0  0  0  0
M  CHG  1   8   1
M  END
> <s_m_source_file>
AV-unprocessed.smi

> <i_m_source_file_index>
157

> <i_lp_mmshare_version>
43012

> <i_f3d_flags>
0

> <s_epik_input>
W09IXVtDSDJdW0NASF0xT1tDQEhdKFtDSDJdW0NAQEhdMVtPSF0pbihbY0hdbjIpYyhjMjMpTj1bQ0hdW05IXVtDSDJdW0NASF0zW09IXQ==

> <s_epik_cmdline>
J2VwaWtfcHl0aG9uJywgJy1waCcsICc3LjAnLCAnLXRuJywgJzgnLCAnLW1hJywgJzIwMCcsICctbWV0YWxfYmluZGluZycsICctaW1hZScsICc8aW5maWxlLm1hZT4nLCAnLW9tYWUnLCAnPG91dGZpbGUubWFlPic=

> <r_epik_Ionization_Penalty>
1.68594

> <r_epik_Ionization_Penalty_Charging>
0

> <r_epik_Ionization_Penalty_Neutral>
1.68594

> <r_epik_State_Penalty>
1.79006

> <r_epik_Charging_Adjusted_Penalty>
1.79006

> <i_epik_Tot_Q>
1

> <i_epik_Tot_abs_Q>
1

> <r_epik_Metal_State_Penalty>
5.85324

> <b_epik_Metal_Only>
0

> <s_epik_Chemistry_Notes>
This compound has an imine and may undergo hydrolysis. This compound contains an acetal/aminal-like group ( X-CH(R)-Y where X, Y are N, S, or O) that may be acid/base labile, releasing an aldehyde.

> <s_lp_Force_Field>
OPLS_2005

> <r_lp_Energy>
54.1398

> <b_lp_Chiralities_Consistent>
1

> <s_lp_Variant>
AV-unprocessed.smi:157-27

> <Gold.Version>
5.8.1

> <Gold.Id.Protein>
6NUR|6NUR_protein|mol2

> <Gold.PLP.Fitness>
47.7280

> <Gold.PLP.PLP>
-30.6427

> <Gold.PLP.part.hbond>
-5.0986

> <Gold.PLP.part.metal>
0.0000

> <Gold.PLP.part.buried>
-1.8447

> <Gold.PLP.part.nonpolar>
-23.8251

> <Gold.PLP.part.repulsive>
0.4076

> <Gold.PLP.ligand.clash>
0.0000

> <Gold.PLP.ligand.torsion>
0.3340

> <Gold.PLP.Chemscore.Hbond>
4.9246

> <Gold.PLP.Chemscore.CHOScore>
0.9907

> <Gold.PLP.Chemscore.Metal>
0.0000

> <Gold.Chemscore.Hbonds>
donor molecule, donor type, donor heavy atom, donor atom, acceptor molecule, acceptor atom, score
      L1  H     1    24       P1 10747  1.00
      L1  H     8    36       P1 10175  2.00
      L1  H    13    29       P1 11000  0.89
      L1  H    16    32       P1 10175  0.18
      L1  H    19    35       P1 10747  0.72
      L1  C    12    28       P1 10957  0.96

> <Gold.PLP.Chemscore.Internal.Correction>
0.0074

> <Gold.Rescore>
     Score         DG    S(hbond)    S(metal)    S(lipo)     H(rot)  DE(clash)    DE(int)     intcor
     10.26     -13.07       3.70        0.00      39.46       3.67       1.27       1.54       ----

> <Gold.Chemscore.Fitness>
10.2578

> <Gold.Chemscore.DG>
-13.0673

> <Gold.Chemscore.ZeroCoef>
-5.4800

> <Gold.Chemscore.Hbond>
3.6990

> <Gold.Chemscore.Metal>
0.0000

> <Gold.Chemscore.Lipo>
39.4648

> <Gold.Chemscore.Internal_Hbond>
0.0000

> <Gold.Chemscore.DEClash>
1.2713

> <Gold.Chemscore.DEInternal>
1.5382

> <Gold.Chemscore.Rot>
3.6659

> <Gold.Chemscore.Internal.Correction>
   9.000000E+99

> <Gold.Chemscore.Hbonds>
donor molecule, donor type, donor heavy atom, donor atom, acceptor molecule, acceptor atom, score
      L1  H     1    24       P1 10747  0.92
      L1  H     8    36       P1 10175  0.94
      L1  H    13    29       P1 11000  0.78
      L1  H    16    32       P1 10175  0.17
      L1  H    19    35       P1 10747  0.68

> <Gold.Chemscore.Hbond.Weighted>
-12.3547

> <Gold.Chemscore.Metal.Weighted>
-0.0000

> <Gold.Chemscore.Lipo.Weighted>
-4.6174

> <Gold.Chemscore.Internal_Hbond.Weighted>
0.0000

> <Gold.Chemscore.DEClash.Weighted>
1.2713

> <Gold.Chemscore.DEInternal.Weighted>
1.5382

> <Gold.Chemscore.Rot.Weighted>
9.3848

> <Gold.Chemscore.Internal.Correction.Weighted>
   9.000000E+99

> <Gold.Protein.RotatedTorsions>
[ 6907 6896 6895 6894 ] final  -95.58 input  -60.11 | X-H torsion
[ 7974 7965 7964 7962 ] final  140.54 input  175.53 | X-H torsion
[ 8008 7997 7996 7995 ] final  -37.30 input   59.86 | X-H torsion
[ 10167 10162 10161 10158 ] final  -14.79 input  -65.29 | X-H torsion
[ 10718 10713 10712 10709 ] final -134.53 input   66.30 | X-H torsion
[ 10763 10752 10751 10750 ] final   -8.96 input  -60.55 | X-H torsion
[ 11005 11000 10999 10996 ] final -129.97 input  -57.11 | X-H torsion

> <Gold.Protein.ActiveResidues>
 VAL166  LYS551  ARG553  GLY616  TRP617  ASP618  TYR619  PRO620  LYS621  CYS622 
 ASP623  PHE694  ASN695  SER759  ASP760  ASP761  ALA762  ILE779  LEU786  VAL792 
 PHE793  MET794  SER795  GLU796  ALA797  LYS798  CYS799  TRP800  GLU811  SER814 

> <Gold.Protein.RotatedAtoms>
  150.6967  134.1636  159.4185 H   0  0  0  0  0  0  0  0  0  0  0  0  # atno 6907 bound_to 6896
  151.9615  135.0118  160.0557 H   0  0  0  0  0  0  0  0  0  0  0  0  # atno 6908 bound_to 6896
  152.1922  133.4746  159.5051 H   0  0  0  0  0  0  0  0  0  0  0  0  # atno 6909 bound_to 6896
  144.9177  139.5209  143.5678 H   0  0  0  0  0  0  0  0  0  0  0  0  # atno 7974 bound_to 7965
  154.4056  140.1608  156.2515 H   0  0  0  0  0  0  0  0  0  0  0  0  # atno 8008 bound_to 7997
  155.9115  140.3427  155.6080 H   0  0  0  0  0  0  0  0  0  0  0  0  # atno 8009 bound_to 7997
  155.7330  140.0783  157.2271 H   0  0  0  0  0  0  0  0  0  0  0  0  # atno 8010 bound_to 7997
  140.7207  143.5284  150.9549 H   0  0  0  0  0  0  0  0  0  0  0  0  # atno 10167 bound_to 10162
  156.2564  130.7184  151.1102 H   0  0  0  0  0  0  0  0  0  0  0  0  # atno 10718 bound_to 10713
  153.4479  135.7014  153.6127 H   0  0  0  0  0  0  0  0  0  0  0  0  # atno 10763 bound_to 10752
  153.4475  135.3766  155.2264 H   0  0  0  0  0  0  0  0  0  0  0  0  # atno 10764 bound_to 10752
  154.8728  135.3989  154.3887 H   0  0  0  0  0  0  0  0  0  0  0  0  # atno 10765 bound_to 10752
  140.9386  134.1223  157.4171 H   0  0  0  0  0  0  0  0  0  0  0  0  # atno 11005 bound_to 11000
  146.3190  139.8032  142.8961 LP  0  0  0  0  0  0  0  0  0  0  0  0  # atno 17320 bound_to 7965
  145.3348  141.0274  143.3426 LP  0  0  0  0  0  0  0  0  0  0  0  0  # atno 17321 bound_to 7965
  139.9004  143.6843  152.3132 LP  0  0  0  0  0  0  0  0  0  0  0  0  # atno 17342 bound_to 10162
  139.7190  144.7606  151.0986 LP  0  0  0  0  0  0  0  0  0  0  0  0  # atno 17343 bound_to 10162
  157.7234  131.0666  150.6037 LP  0  0  0  0  0  0  0  0  0  0  0  0  # atno 17370 bound_to 10713
  156.6122  130.4383  149.5855 LP  0  0  0  0  0  0  0  0  0  0  0  0  # atno 17371 bound_to 10713
  139.8814  135.0029  156.6155 LP  0  0  0  0  0  0  0  0  0  0  0  0  # atno 17394 bound_to 11000
  140.7765  133.8695  155.8533 LP  0  0  0  0  0  0  0  0  0  0  0  0  # atno 17395 bound_to 11000

$$$$
