AV-unprocessed.smi:1715|AV-procd|sdf|6912|dock5
  -GOLD-   22720 8113D 1   1.00000     0.00000
 Structure written by MMmdl.
 41 42  0  0  0  0  0  0  0  0  2 V2000
  149.1891  141.3008  156.6130 C   0  0  0  0  0  0  0  0  0  0  0  0
  149.7211  141.3301  155.1689 C   0  0  2  0  0  0  0  0  0  0  0  0
  148.6285  141.1090  154.1043 C   0  0  0  0  0  0  0  0  0  0  0  0
  148.1961  139.6916  154.0631 N   0  3  1  0  0  0  0  0  0  0  0  0
  147.1020  139.4637  153.0867 C   0  0  0  0  0  0  0  0  0  0  0  0
  146.1995  138.2782  153.4803 C   0  0  0  0  0  0  0  0  0  0  0  0
  146.5237  137.0801  152.7147 N   0  0  0  0  0  0  0  0  0  0  0  0
  145.6213  136.2433  152.1826 C   0  0  0  0  0  0  0  0  0  0  0  0
  144.4051  136.3984  152.2938 O   0  0  0  0  0  0  0  0  0  0  0  0
  146.2162  135.2329  151.5275 N   0  0  0  0  0  0  0  0  0  0  0  0
  145.5880  134.1569  150.8507 C   0  0  0  0  0  0  0  0  0  0  0  0
  146.2278  132.9358  150.5038 C   0  0  0  0  0  0  0  0  0  0  0  0
  145.3961  132.1145  149.8793 N   0  0  0  0  0  0  0  0  0  0  0  0
  144.2317  132.7999  149.8235 N   0  0  0  0  0  0  0  0  0  0  0  0
  144.3011  134.0474  150.4034 C   0  0  0  0  0  0  0  0  0  0  0  0
  149.3668  138.8045  153.8588 C   0  0  0  0  0  0  0  0  0  0  0  0
  150.4175  139.0385  154.9592 C   0  0  1  0  0  0  0  0  0  0  0  0
  151.6825  138.2029  154.7337 C   0  0  0  0  0  0  0  0  0  0  0  0
  150.7962  140.4124  154.9696 O   0  0  0  0  0  0  0  0  0  0  0  0
  143.4074  132.4069  149.3914 H   0  0  0  0  0  0  0  0  0  0  0  0
  148.4651  142.1002  156.7738 H   0  0  0  0  0  0  0  0  0  0  0  0
  149.9994  141.4437  157.3282 H   0  0  0  0  0  0  0  0  0  0  0  0
  148.6922  140.3615  156.8534 H   0  0  0  0  0  0  0  0  0  0  0  0
  150.1409  142.3238  155.0101 H   0  0  0  0  0  0  0  0  0  0  0  0
  147.7761  141.7586  154.3072 H   0  0  0  0  0  0  0  0  0  0  0  0
  149.0126  141.3909  153.1225 H   0  0  0  0  0  0  0  0  0  0  0  0
  146.4789  140.3577  153.0329 H   0  0  0  0  0  0  0  0  0  0  0  0
  147.5260  139.3240  152.0909 H   0  0  0  0  0  0  0  0  0  0  0  0
  146.2767  138.0510  154.5438 H   0  0  0  0  0  0  0  0  0  0  0  0
  145.1551  138.5283  153.2918 H   0  0  0  0  0  0  0  0  0  0  0  0
  147.5029  136.8779  152.5732 H   0  0  0  0  0  0  0  0  0  0  0  0
  147.2255  135.2316  151.5098 H   0  0  0  0  0  0  0  0  0  0  0  0
  147.2469  132.6248  150.6801 H   0  0  0  0  0  0  0  0  0  0  0  0
  143.4535  134.7156  150.4400 H   0  0  0  0  0  0  0  0  0  0  0  0
  149.0601  137.7592  153.8743 H   0  0  0  0  0  0  0  0  0  0  0  0
  149.8002  138.9940  152.8754 H   0  0  0  0  0  0  0  0  0  0  0  0
  150.0004  138.7632  155.9280 H   0  0  0  0  0  0  0  0  0  0  0  0
  151.4540  137.1368  154.7273 H   0  0  0  0  0  0  0  0  0  0  0  0
  152.4125  138.3805  155.5239 H   0  0  0  0  0  0  0  0  0  0  0  0
  152.1551  138.4497  153.7825 H   0  0  0  0  0  0  0  0  0  0  0  0
  147.8185  139.4828  154.9764 H   0  0  0  0  0  0  0  0  0  0  0  0
  1  2  1  0  0  0  0
  1 21  1  0  0  0  0
  1 22  1  0  0  0  0
  1 23  1  0  0  0  0
  2 19  1  0  0  0  0
  2  3  1  0  0  0  0
  2 24  1  0  0  0  0
  3  4  1  0  0  0  0
  3 25  1  0  0  0  0
  3 26  1  0  0  0  0
  4  5  1  0  0  0  0
  4 16  1  0  0  0  0
  4 41  1  0  0  0  0
  5  6  1  0  0  0  0
  5 27  1  0  0  0  0
  5 28  1  0  0  0  0
  6  7  1  0  0  0  0
  6 29  1  0  0  0  0
  6 30  1  0  0  0  0
  7  8  1  0  0  0  0
  7 31  1  0  0  0  0
  8  9  2  0  0  0  0
  8 10  1  0  0  0  0
 10 11  1  0  0  0  0
 10 32  1  0  0  0  0
 11 15  2  0  0  0  0
 11 12  1  0  0  0  0
 12 13  2  0  0  0  0
 12 33  1  0  0  0  0
 13 14  1  0  0  0  0
 14 20  1  0  0  0  0
 14 15  1  0  0  0  0
 15 34  1  0  0  0  0
 16 17  1  0  0  0  0
 16 35  1  0  0  0  0
 16 36  1  0  0  0  0
 17 18  1  0  0  0  0
 17 19  1  0  0  0  0
 17 37  1  0  0  0  0
 18 38  1  0  0  0  0
 18 39  1  0  0  0  0
 18 40  1  0  0  0  0
M  CHG  1   4   1
M  END
> <s_m_source_file>
AV-unprocessed.smi

> <i_m_source_file_index>
1715

> <i_lp_mmshare_version>
43012

> <i_f3d_flags>
0

> <s_epik_input>
W0NIM11bQ0BASF0xW0NIMl1OKFtDSDJdW0NASF0oTzEpW0NIM10pW0NIMl1bQ0gyXVtOSF1DKD1PKVtOSF1jMltjSF1uW25IXVtjSF0y

> <s_epik_cmdline>
J2VwaWtfcHl0aG9uJywgJy1waCcsICc3LjAnLCAnLXRuJywgJzgnLCAnLW1hJywgJzIwMCcsICctbWV0YWxfYmluZGluZycsICctaW1hZScsICc8aW5maWxlLm1hZT4nLCAnLW9tYWUnLCAnPG91dGZpbGUubWFlPic=

> <r_lp_tautomer_probability>
0.5

> <r_epik_Ionization_Penalty>
0.646007

> <r_epik_Ionization_Penalty_Charging>
0.645968

> <r_epik_Ionization_Penalty_Neutral>
3.91671e-05

> <r_epik_State_Penalty>
0.664063

> <r_epik_Charging_Adjusted_Penalty>
1.31003

> <i_epik_Tot_Q>
1

> <i_epik_Tot_abs_Q>
1

> <r_epik_Metal_State_Penalty>
0.664064

> <b_epik_Metal_Only>
0

> <s_lp_Force_Field>
OPLS_2005

> <r_lp_Energy>
20.2841

> <b_lp_Chiralities_Consistent>
1

> <s_lp_Variant>
AV-unprocessed.smi:1715-4

> <Gold.Version>
5.8.1

> <Gold.Id.Protein>
6NUR|6NUR_protein|mol2

> <Gold.PLP.Fitness>
44.4659

> <Gold.PLP.PLP>
-31.3988

> <Gold.PLP.part.hbond>
-3.3135

> <Gold.PLP.part.metal>
0.0000

> <Gold.PLP.part.buried>
-3.8941

> <Gold.PLP.part.nonpolar>
-25.6938

> <Gold.PLP.part.repulsive>
0.6213

> <Gold.PLP.ligand.clash>
0.0000

> <Gold.PLP.ligand.torsion>
0.7655

> <Gold.PLP.Chemscore.Hbond>
2.9920

> <Gold.PLP.Chemscore.CHOScore>
1.8647

> <Gold.PLP.Chemscore.Metal>
0.0000

> <Gold.Chemscore.Hbonds>
donor molecule, donor type, donor heavy atom, donor atom, acceptor molecule, acceptor atom, score
      L1  H     7    31       P1  7948  1.00
      L1  H    10    32       P1  7948  0.99
      P1  H  7989  7998       L1    19  1.00
      L1  C    12    33       P1 10747  1.00
      L1  C    15    34       P1 10186  0.80

> <Gold.PLP.Chemscore.Internal.Correction>
0.0281

> <Gold.Rescore>
     Score         DG    S(hbond)    S(metal)    S(lipo)     H(rot)  DE(clash)    DE(int)     intcor
     16.10     -17.91       2.48        0.00      71.98       1.67       0.16       1.65       ----

> <Gold.Chemscore.Fitness>
16.1013

> <Gold.Chemscore.DG>
-17.9099

> <Gold.Chemscore.ZeroCoef>
-5.4800

> <Gold.Chemscore.Hbond>
2.4779

> <Gold.Chemscore.Metal>
0.0000

> <Gold.Chemscore.Lipo>
71.9779

> <Gold.Chemscore.Internal_Hbond>
0.0000

> <Gold.Chemscore.DEClash>
0.1596

> <Gold.Chemscore.DEInternal>
1.6490

> <Gold.Chemscore.Rot>
1.6671

> <Gold.Chemscore.Internal.Correction>
   9.000000E+99

> <Gold.Chemscore.Hbonds>
donor molecule, donor type, donor heavy atom, donor atom, acceptor molecule, acceptor atom, score
      L1  H     7    31       P1  7948  0.99
      L1  H    10    32       P1  7948  0.83
      P1  H  7989  7998       L1    19  0.52

> <Gold.Chemscore.Hbond.Weighted>
-8.2762

> <Gold.Chemscore.Metal.Weighted>
-0.0000

> <Gold.Chemscore.Lipo.Weighted>
-8.4214

> <Gold.Chemscore.Internal_Hbond.Weighted>
0.0000

> <Gold.Chemscore.DEClash.Weighted>
0.1596

> <Gold.Chemscore.DEInternal.Weighted>
1.6490

> <Gold.Chemscore.Rot.Weighted>
4.2677

> <Gold.Chemscore.Internal.Correction.Weighted>
   9.000000E+99

> <Gold.Protein.RotatedTorsions>
[ 6907 6896 6895 6894 ] final    7.27 input  -60.11 | X-H torsion
[ 7974 7965 7964 7962 ] final   77.53 input  175.53 | X-H torsion
[ 8008 7997 7996 7995 ] final  116.01 input   59.86 | X-H torsion
[ 10167 10162 10161 10158 ] final  117.68 input  -65.29 | X-H torsion
[ 10718 10713 10712 10709 ] final  -17.97 input   66.30 | X-H torsion
[ 10763 10752 10751 10750 ] final  -74.67 input  -60.55 | X-H torsion
[ 11005 11000 10999 10996 ] final  100.44 input  -57.11 | X-H torsion

> <Gold.Protein.ActiveResidues>
 VAL166  LYS551  ARG553  GLY616  TRP617  ASP618  TYR619  PRO620  LYS621  CYS622 
 ASP623  PHE694  ASN695  SER759  ASP760  ASP761  ALA762  ILE779  LEU786  VAL792 
 PHE793  MET794  SER795  GLU796  ALA797  LYS798  CYS799  TRP800  GLU811  SER814 

> <Gold.Protein.RotatedAtoms>
  151.6871  135.0952  160.0226 H   0  0  0  0  0  0  0  0  0  0  0  0  # atno 6907 bound_to 6896
  152.3801  133.6530  159.6163 H   0  0  0  0  0  0  0  0  0  0  0  0  # atno 6908 bound_to 6896
  150.7740  133.9045  159.3392 H   0  0  0  0  0  0  0  0  0  0  0  0  # atno 6909 bound_to 6896
  145.6888  139.2546  143.1772 H   0  0  0  0  0  0  0  0  0  0  0  0  # atno 7974 bound_to 7965
  156.2415  140.2926  156.0457 H   0  0  0  0  0  0  0  0  0  0  0  0  # atno 8008 bound_to 7997
  155.1938  140.0407  157.2922 H   0  0  0  0  0  0  0  0  0  0  0  0  # atno 8009 bound_to 7997
  154.6177  140.2468  155.7596 H   0  0  0  0  0  0  0  0  0  0  0  0  # atno 8010 bound_to 7997
  139.6162  144.7092  151.2734 H   0  0  0  0  0  0  0  0  0  0  0  0  # atno 10167 bound_to 10162
  156.5661  130.4737  149.6384 H   0  0  0  0  0  0  0  0  0  0  0  0  # atno 10718 bound_to 10713
  154.4762  135.5856  153.6357 H   0  0  0  0  0  0  0  0  0  0  0  0  # atno 10763 bound_to 10752
  152.9841  135.6079  154.3304 H   0  0  0  0  0  0  0  0  0  0  0  0  # atno 10764 bound_to 10752
  154.3190  135.2844  155.2508 H   0  0  0  0  0  0  0  0  0  0  0  0  # atno 10765 bound_to 10752
  139.8771  134.9140  156.4756 H   0  0  0  0  0  0  0  0  0  0  0  0  # atno 11005 bound_to 11000
  146.0900  140.7667  142.9600 LP  0  0  0  0  0  0  0  0  0  0  0  0  # atno 17320 bound_to 7965
  144.7003  140.3622  143.7161 LP  0  0  0  0  0  0  0  0  0  0  0  0  # atno 17321 bound_to 7965
  140.7352  143.6742  150.8055 LP  0  0  0  0  0  0  0  0  0  0  0  0  # atno 17342 bound_to 10162
  140.0346  143.5409  152.2745 LP  0  0  0  0  0  0  0  0  0  0  0  0  # atno 17343 bound_to 10162
  156.2756  130.7042  151.1852 LP  0  0  0  0  0  0  0  0  0  0  0  0  # atno 17370 bound_to 10713
  157.7358  131.0568  150.5448 LP  0  0  0  0  0  0  0  0  0  0  0  0  # atno 17371 bound_to 10713
  140.8764  133.7950  155.9419 LP  0  0  0  0  0  0  0  0  0  0  0  0  # atno 17394 bound_to 11000
  140.8900  134.2507  157.5100 LP  0  0  0  0  0  0  0  0  0  0  0  0  # atno 17395 bound_to 11000

$$$$
