AV-unprocessed.smi:3295|AV-procd|sdf|12635|dock9
  -GOLD-   2272018573D 1   1.00000     0.00000
 Structure written by MMmdl.
 37 38  0  0  0  0  0  0  0  0  1 V2000
  147.8787  133.2475  152.3108 C   0  0  0  0  0  0  0  0  0  0  0  0
  146.5602  133.3627  151.5658 C   0  0  0  0  0  0  0  0  0  0  0  0
  145.9708  132.2126  150.9980 C   0  0  0  0  0  0  0  0  0  0  0  0
  144.8018  132.2274  150.3256 N   0  0  0  0  0  0  0  0  0  0  0  0
  144.1658  133.4098  150.1981 C   0  0  0  0  0  0  0  0  0  0  0  0
  144.6622  134.6186  150.7235 C   0  0  0  0  0  0  0  0  0  0  0  0
  145.8973  134.6057  151.4163 C   0  0  0  0  0  0  0  0  0  0  0  0
  146.4814  135.7656  152.0014 N   0  0  0  0  0  0  0  0  0  0  0  0
  145.8792  136.7981  152.6172 C   0  0  0  0  0  0  0  0  0  0  0  0
  144.6665  136.9197  152.7882 O   0  0  0  0  0  0  0  0  0  0  0  0
  146.7776  137.7092  153.0164 N   0  0  0  0  0  0  0  0  0  0  0  0
  146.4666  138.9441  153.7314 C   0  0  0  0  0  0  0  0  0  0  0  0
  147.1180  140.1984  153.0935 C   0  0  0  0  0  0  0  0  0  0  0  0
  146.8128  140.2065  151.7125 O   0  0  0  0  0  0  0  0  0  0  0  0
  146.7383  141.5315  153.7584 C   0  0  0  0  0  0  0  0  0  0  0  0
  147.6640  141.6401  154.9741 C   0  0  0  0  0  0  0  0  0  0  0  0
  148.9207  140.8285  154.6224 C   0  0  0  0  0  0  0  0  0  0  0  0
  148.6442  140.1723  153.2619 C   0  0  0  0  0  0  0  0  0  0  0  0
  148.2446  132.2204  152.3122 H   0  0  0  0  0  0  0  0  0  0  0  0
  147.7595  133.5641  153.3473 H   0  0  0  0  0  0  0  0  0  0  0  0
  148.6371  133.8751  151.8420 H   0  0  0  0  0  0  0  0  0  0  0  0
  146.4498  131.2484  151.0857 H   0  0  0  0  0  0  0  0  0  0  0  0
  143.2266  133.3916  149.6651 H   0  0  0  0  0  0  0  0  0  0  0  0
  144.0822  135.5192  150.5954 H   0  0  0  0  0  0  0  0  0  0  0  0
  147.4793  135.8508  151.8770 H   0  0  0  0  0  0  0  0  0  0  0  0
  147.7526  137.5301  152.8272 H   0  0  0  0  0  0  0  0  0  0  0  0
  145.3810  139.0420  153.7037 H   0  0  0  0  0  0  0  0  0  0  0  0
  146.7263  138.8665  154.7888 H   0  0  0  0  0  0  0  0  0  0  0  0
  147.6200  140.2703  151.2257 H   0  0  0  0  0  0  0  0  0  0  0  0
  146.9606  142.3557  153.0785 H   0  0  0  0  0  0  0  0  0  0  0  0
  145.6840  141.6176  154.0216 H   0  0  0  0  0  0  0  0  0  0  0  0
  147.8971  142.6779  155.2140 H   0  0  0  0  0  0  0  0  0  0  0  0
  147.1793  141.2038  155.8483 H   0  0  0  0  0  0  0  0  0  0  0  0
  149.8095  141.4589  154.5787 H   0  0  0  0  0  0  0  0  0  0  0  0
  149.0984  140.0689  155.3844 H   0  0  0  0  0  0  0  0  0  0  0  0
  149.0643  139.1685  153.1864 H   0  0  0  0  0  0  0  0  0  0  0  0
  149.1162  140.7763  152.4850 H   0  0  0  0  0  0  0  0  0  0  0  0
  1  2  1  0  0  0  0
  1 19  1  0  0  0  0
  1 20  1  0  0  0  0
  1 21  1  0  0  0  0
  2  7  1  0  0  0  0
  2  3  2  0  0  0  0
  3  4  1  0  0  0  0
  3 22  1  0  0  0  0
  4  5  2  0  0  0  0
  5  6  1  0  0  0  0
  5 23  1  0  0  0  0
  6  7  2  0  0  0  0
  6 24  1  0  0  0  0
  7  8  1  0  0  0  0
  8  9  1  0  0  0  0
  8 25  1  0  0  0  0
  9 10  2  0  0  0  0
  9 11  1  0  0  0  0
 11 12  1  0  0  0  0
 11 26  1  0  0  0  0
 12 13  1  0  0  0  0
 12 27  1  0  0  0  0
 12 28  1  0  0  0  0
 13 18  1  0  0  0  0
 13 14  1  0  0  0  0
 13 15  1  0  0  0  0
 14 29  1  0  0  0  0
 15 16  1  0  0  0  0
 15 30  1  0  0  0  0
 15 31  1  0  0  0  0
 16 17  1  0  0  0  0
 16 32  1  0  0  0  0
 16 33  1  0  0  0  0
 17 18  1  0  0  0  0
 17 34  1  0  0  0  0
 17 35  1  0  0  0  0
 18 36  1  0  0  0  0
 18 37  1  0  0  0  0
M  END
> <s_m_source_file>
AV-unprocessed.smi

> <i_m_source_file_index>
3295

> <i_lp_mmshare_version>
43012

> <i_f3d_flags>
0

> <s_epik_input>
W0NIM11jMVtjSF1uW2NIXVtjSF1jMVtOSF1DKD1PKVtOSF1bQ0gyXUMyKFtPSF0pW0NIMl1bQ0gyXVtDSDJdW0NIMl0y

> <s_epik_cmdline>
J2VwaWtfcHl0aG9uJywgJy1waCcsICc3LjAnLCAnLXRuJywgJzgnLCAnLW1hJywgJzIwMCcsICctbWV0YWxfYmluZGluZycsICctaW1hZScsICc8aW5maWxlLm1hZT4nLCAnLW9tYWUnLCAnPG91dGZpbGUubWFlPic=

> <r_epik_Ionization_Penalty>
0.224243

> <r_epik_Ionization_Penalty_Charging>
0

> <r_epik_Ionization_Penalty_Neutral>
0.224243

> <r_epik_State_Penalty>
0.214648

> <r_epik_Charging_Adjusted_Penalty>
0.214648

> <i_epik_Tot_Q>
0

> <i_epik_Tot_abs_Q>
0

> <r_epik_Metal_State_Penalty>
0.155078

> <b_epik_Metal_Only>
0

> <s_lp_Force_Field>
OPLS_2005

> <r_lp_Energy>
30.8814

> <b_lp_Chiralities_Consistent>
1

> <s_lp_Variant>
AV-unprocessed.smi:3295-1

> <Gold.Version>
5.8.1

> <Gold.Id.Protein>
6NUR|6NUR_protein|mol2

> <Gold.PLP.Fitness>
43.3870

> <Gold.PLP.PLP>
-31.2320

> <Gold.PLP.part.hbond>
-3.3081

> <Gold.PLP.part.metal>
0.0000

> <Gold.PLP.part.buried>
1.5956

> <Gold.PLP.part.nonpolar>
-28.4606

> <Gold.PLP.part.repulsive>
0.3937

> <Gold.PLP.ligand.clash>
0.0000

> <Gold.PLP.ligand.torsion>
0.3699

> <Gold.PLP.Chemscore.Hbond>
2.7420

> <Gold.PLP.Chemscore.CHOScore>
1.5530

> <Gold.PLP.Chemscore.Metal>
0.0000

> <Gold.Chemscore.Hbonds>
donor molecule, donor type, donor heavy atom, donor atom, acceptor molecule, acceptor atom, score
      L1  H     8    25       P1  7948  0.91
      L1  H    11    26       P1  7948  0.83
      L1  H    14    29       P1  7957  1.00
      L1  C     3    22       P1 10747  0.52
      L1  C     5    23       P1 10186  1.00

> <Gold.PLP.Chemscore.Internal.Correction>
0.0097

> <Gold.Rescore>
     Score         DG    S(hbond)    S(metal)    S(lipo)     H(rot)  DE(clash)    DE(int)     intcor
     18.10     -20.35       2.90        0.00      81.72       1.71       1.84       0.42       ----

> <Gold.Chemscore.Fitness>
18.0985

> <Gold.Chemscore.DG>
-20.3530

> <Gold.Chemscore.ZeroCoef>
-5.4800

> <Gold.Chemscore.Hbond>
2.9012

> <Gold.Chemscore.Metal>
0.0000

> <Gold.Chemscore.Lipo>
81.7223

> <Gold.Chemscore.Internal_Hbond>
0.0000

> <Gold.Chemscore.DEClash>
1.8366

> <Gold.Chemscore.DEInternal>
0.4179

> <Gold.Chemscore.Rot>
1.7103

> <Gold.Chemscore.Internal.Correction>
   9.000000E+99

> <Gold.Chemscore.Hbonds>
donor molecule, donor type, donor heavy atom, donor atom, acceptor molecule, acceptor atom, score
      L1  H     8    25       P1  7948  0.87
      L1  H    11    26       P1  7948  0.79
      L1  H    14    29       P1  7957  0.94

> <Gold.Chemscore.Hbond.Weighted>
-9.6900

> <Gold.Chemscore.Metal.Weighted>
-0.0000

> <Gold.Chemscore.Lipo.Weighted>
-9.5615

> <Gold.Chemscore.Internal_Hbond.Weighted>
0.0000

> <Gold.Chemscore.DEClash.Weighted>
1.8366

> <Gold.Chemscore.DEInternal.Weighted>
0.4179

> <Gold.Chemscore.Rot.Weighted>
4.3785

> <Gold.Chemscore.Internal.Correction.Weighted>
   9.000000E+99

> <Gold.Protein.RotatedTorsions>
[ 6907 6896 6895 6894 ] final  -71.36 input  -60.11 | X-H torsion
[ 7974 7965 7964 7962 ] final  -76.41 input  175.53 | X-H torsion
[ 8008 7997 7996 7995 ] final    9.46 input   59.86 | X-H torsion
[ 10167 10162 10161 10158 ] final  119.15 input  -65.29 | X-H torsion
[ 10718 10713 10712 10709 ] final   90.93 input   66.30 | X-H torsion
[ 10763 10752 10751 10750 ] final -102.19 input  -60.55 | X-H torsion
[ 11005 11000 10999 10996 ] final  -78.53 input  -57.11 | X-H torsion

> <Gold.Protein.ActiveResidues>
 VAL166  LYS551  ARG553  GLY616  TRP617  ASP618  TYR619  PRO620  LYS621  CYS622 
 ASP623  PHE694  ASN695  SER759  ASP760  ASP761  ALA762  ILE779  LEU786  VAL792 
 PHE793  MET794  SER795  GLU796  ALA797  LYS798  CYS799  TRP800  GLU811  SER814 

> <Gold.Protein.RotatedAtoms>
  150.7216  134.5320  159.5704 H   0  0  0  0  0  0  0  0  0  0  0  0  # atno 6907 bound_to 6896
  152.2851  134.7782  160.0398 H   0  0  0  0  0  0  0  0  0  0  0  0  # atno 6908 bound_to 6896
  151.8415  133.3389  159.3681 H   0  0  0  0  0  0  0  0  0  0  0  0  # atno 6909 bound_to 6896
  145.6133  140.9381  143.1178 H   0  0  0  0  0  0  0  0  0  0  0  0  # atno 7974 bound_to 7965
  154.7803  140.2818  155.6069 H   0  0  0  0  0  0  0  0  0  0  0  0  # atno 8008 bound_to 7997
  156.2949  140.2624  156.2555 H   0  0  0  0  0  0  0  0  0  0  0  0  # atno 8009 bound_to 7997
  154.9792  140.0375  157.2259 H   0  0  0  0  0  0  0  0  0  0  0  0  # atno 8010 bound_to 7997
  139.6065  144.7071  151.2942 H   0  0  0  0  0  0  0  0  0  0  0  0  # atno 10167 bound_to 10162
  157.6960  131.0389  150.3653 H   0  0  0  0  0  0  0  0  0  0  0  0  # atno 10718 bound_to 10713
  154.7715  135.4870  153.9658 H   0  0  0  0  0  0  0  0  0  0  0  0  # atno 10763 bound_to 10752
  153.1374  135.6765  153.9089 H   0  0  0  0  0  0  0  0  0  0  0  0  # atno 10764 bound_to 10752
  153.8774  135.3136  155.3422 H   0  0  0  0  0  0  0  0  0  0  0  0  # atno 10765 bound_to 10752
  141.1665  133.7067  156.7986 H   0  0  0  0  0  0  0  0  0  0  0  0  # atno 11005 bound_to 11000
  144.7261  139.7872  143.7364 LP  0  0  0  0  0  0  0  0  0  0  0  0  # atno 17320 bound_to 7965
  146.1488  139.4565  143.0062 LP  0  0  0  0  0  0  0  0  0  0  0  0  # atno 17321 bound_to 7965
  140.7288  143.6925  150.7911 LP  0  0  0  0  0  0  0  0  0  0  0  0  # atno 17342 bound_to 10162
  140.0511  143.5249  152.2673 LP  0  0  0  0  0  0  0  0  0  0  0  0  # atno 17343 bound_to 10162
  156.4084  130.3929  149.6909 LP  0  0  0  0  0  0  0  0  0  0  0  0  # atno 17370 bound_to 10713
  156.4202  130.7765  151.2781 LP  0  0  0  0  0  0  0  0  0  0  0  0  # atno 17371 bound_to 10713
  140.2273  134.8712  157.3440 LP  0  0  0  0  0  0  0  0  0  0  0  0  # atno 17394 bound_to 11000
  140.1927  134.4352  155.7707 LP  0  0  0  0  0  0  0  0  0  0  0  0  # atno 17395 bound_to 11000

$$$$
