AV-unprocessed.smi:2321|AV-procd|sdf|9282|dock4
  -GOLD-   2272012503D 1   1.00000     0.00000
 Structure written by MMmdl.
 36 37  0  0  0  0  0  0  0  0  1 V2000
  150.3788  136.6688  158.7795 O   0  0  0  0  0  0  0  0  0  0  0  0
  149.3011  137.2543  158.7020 C   0  0  0  0  0  0  0  0  0  0  0  0
  149.0138  138.2226  157.8101 N   0  0  0  0  0  0  0  0  0  0  0  0
  149.8367  138.7777  156.7932 C   0  0  0  0  0  0  0  0  0  0  0  0
  151.2249  139.0185  156.9347 C   0  0  0  0  0  0  0  0  0  0  0  0
  151.9302  139.5587  155.8405 C   0  0  0  0  0  0  0  0  0  0  0  0
  151.3542  139.8529  154.6554 N   0  0  0  0  0  0  0  0  0  0  0  0
  150.0336  139.6083  154.5198 C   0  0  0  0  0  0  0  0  0  0  0  0
  149.2364  139.0710  155.5503 C   0  0  0  0  0  0  0  0  0  0  0  0
  147.9156  138.8458  155.3472 F   0  0  0  0  0  0  0  0  0  0  0  0
  148.2978  136.9757  159.5549 N   0  0  0  0  0  0  0  0  0  0  0  0
  148.2694  135.9904  160.6386 C   0  0  1  0  0  0  0  0  0  0  0  0
  147.2000  136.3952  161.6688 C   0  0  0  0  0  0  0  0  0  0  0  0
  147.0969  135.3622  162.8005 C   0  0  0  0  0  0  0  0  0  0  0  0
  146.8187  133.9559  162.2474 C   0  0  0  0  0  0  0  0  0  0  0  0
  147.8860  133.5281  161.2182 C   0  0  1  0  0  0  0  0  0  0  0  0
  147.6255  132.1097  160.6702 C   0  0  0  0  0  0  0  0  0  0  0  0
  146.4111  132.0265  160.1260 F   0  0  0  0  0  0  0  0  0  0  0  0
  148.5349  131.8038  159.7446 F   0  0  0  0  0  0  0  0  0  0  0  0
  147.7185  131.2158  161.6547 F   0  0  0  0  0  0  0  0  0  0  0  0
  147.9844  134.5762  160.0888 C   0  0  0  0  0  0  0  0  0  0  0  0
  148.1126  138.6643  157.9187 H   0  0  0  0  0  0  0  0  0  0  0  0
  151.7605  138.7916  157.8433 H   0  0  0  0  0  0  0  0  0  0  0  0
  152.9895  139.7537  155.9180 H   0  0  0  0  0  0  0  0  0  0  0  0
  149.5990  139.8462  153.5601 H   0  0  0  0  0  0  0  0  0  0  0  0
  147.4586  137.5274  159.4486 H   0  0  0  0  0  0  0  0  0  0  0  0
  149.2336  135.9871  161.1504 H   0  0  0  0  0  0  0  0  0  0  0  0
  147.4348  137.3746  162.0876 H   0  0  0  0  0  0  0  0  0  0  0  0
  146.2300  136.4929  161.1789 H   0  0  0  0  0  0  0  0  0  0  0  0
  148.0242  135.3535  163.3745 H   0  0  0  0  0  0  0  0  0  0  0  0
  146.3071  135.6510  163.4947 H   0  0  0  0  0  0  0  0  0  0  0  0
  146.7857  133.2438  163.0724 H   0  0  0  0  0  0  0  0  0  0  0  0
  145.8310  133.9377  161.7852 H   0  0  0  0  0  0  0  0  0  0  0  0
  148.8488  133.5050  161.7312 H   0  0  0  0  0  0  0  0  0  0  0  0
  147.0549  134.5867  159.5177 H   0  0  0  0  0  0  0  0  0  0  0  0
  148.7683  134.2852  159.3891 H   0  0  0  0  0  0  0  0  0  0  0  0
  1  2  2  0  0  0  0
  2  3  1  0  0  0  0
  2 11  1  0  0  0  0
  3  4  1  0  0  0  0
  3 22  1  0  0  0  0
  4  9  1  0  0  0  0
  4  5  2  0  0  0  0
  5  6  1  0  0  0  0
  5 23  1  0  0  0  0
  6  7  2  0  0  0  0
  6 24  1  0  0  0  0
  7  8  1  0  0  0  0
  8  9  2  0  0  0  0
  8 25  1  0  0  0  0
  9 10  1  0  0  0  0
 11 12  1  0  0  0  0
 11 26  1  0  0  0  0
 12 21  1  0  0  0  0
 12 13  1  0  0  0  0
 12 27  1  0  0  0  0
 13 14  1  0  0  0  0
 13 28  1  0  0  0  0
 13 29  1  0  0  0  0
 14 15  1  0  0  0  0
 14 30  1  0  0  0  0
 14 31  1  0  0  0  0
 15 16  1  0  0  0  0
 15 32  1  0  0  0  0
 15 33  1  0  0  0  0
 16 17  1  0  0  0  0
 16 21  1  0  0  0  0
 16 34  1  0  0  0  0
 17 18  1  0  0  0  0
 17 19  1  0  0  0  0
 17 20  1  0  0  0  0
 21 35  1  0  0  0  0
 21 36  1  0  0  0  0
M  END
> <s_m_source_file>
AV-unprocessed.smi

> <i_m_source_file_index>
2321

> <i_lp_mmshare_version>
43012

> <i_f3d_flags>
0

> <s_epik_input>
RkMoRikoRilbQ0BASF0oW0NIMl0xKVtDSDJdW0NIMl1bQ0gyXVtDQEhdMVtOSF1DKD1PKVtOSF1jMltjSF1bY0hdbltjSF1jMkY=

> <s_epik_cmdline>
J2VwaWtfcHl0aG9uJywgJy1waCcsICc3LjAnLCAnLXRuJywgJzgnLCAnLW1hJywgJzIwMCcsICctbWV0YWxfYmluZGluZycsICctaW1hZScsICc8aW5maWxlLm1hZT4nLCAnLW9tYWUnLCAnPG91dGZpbGUubWFlPic=

> <r_epik_Ionization_Penalty>
0.00319438

> <r_epik_Ionization_Penalty_Charging>
0

> <r_epik_Ionization_Penalty_Neutral>
0.00319438

> <r_epik_State_Penalty>
0.00222511

> <r_epik_Charging_Adjusted_Penalty>
0.00222511

> <i_epik_Tot_Q>
0

> <i_epik_Tot_abs_Q>
0

> <r_epik_Metal_State_Penalty>
-0

> <b_epik_Metal_Only>
0

> <s_lp_Force_Field>
OPLS_2005

> <r_lp_Energy>
26.7556

> <b_lp_Chiralities_Consistent>
1

> <s_lp_Variant>
AV-unprocessed.smi:2321-2

> <Gold.Version>
5.8.1

> <Gold.Id.Protein>
6NUR|6NUR_protein|mol2

> <Gold.PLP.Fitness>
40.5333

> <Gold.PLP.PLP>
-32.8112

> <Gold.PLP.part.hbond>
-2.0000

> <Gold.PLP.part.metal>
0.0000

> <Gold.PLP.part.buried>
-4.4655

> <Gold.PLP.part.nonpolar>
-26.8066

> <Gold.PLP.part.repulsive>
0.3659

> <Gold.PLP.ligand.clash>
0.0000

> <Gold.PLP.ligand.torsion>
0.6492

> <Gold.PLP.Chemscore.Hbond>
2.0000

> <Gold.PLP.Chemscore.CHOScore>
1.0000

> <Gold.PLP.Chemscore.Metal>
0.0000

> <Gold.Chemscore.Hbonds>
donor molecule, donor type, donor heavy atom, donor atom, acceptor molecule, acceptor atom, score
      P1  H  6896  6908       L1     1  0.98
      P1  H  7989  7998       L1     7  1.00
      L1  C     8    25       P1  7957  1.00

> <Gold.PLP.Chemscore.Internal.Correction>
0.0204

> <Gold.Rescore>
     Score         DG    S(hbond)    S(metal)    S(lipo)     H(rot)  DE(clash)    DE(int)     intcor
     17.38     -18.15       1.93        0.00      75.11       1.00       0.07       0.70       ----

> <Gold.Chemscore.Fitness>
17.3798

> <Gold.Chemscore.DG>
-18.1537

> <Gold.Chemscore.ZeroCoef>
-5.4800

> <Gold.Chemscore.Hbond>
1.9300

> <Gold.Chemscore.Metal>
0.0000

> <Gold.Chemscore.Lipo>
75.1069

> <Gold.Chemscore.Internal_Hbond>
0.0000

> <Gold.Chemscore.DEClash>
0.0701

> <Gold.Chemscore.DEInternal>
0.7038

> <Gold.Chemscore.Rot>
1.0000

> <Gold.Chemscore.Internal.Correction>
   9.000000E+99

> <Gold.Chemscore.Hbonds>
donor molecule, donor type, donor heavy atom, donor atom, acceptor molecule, acceptor atom, score
      P1  H  6896  6908       L1     1  0.91
      P1  H  7989  7998       L1     7  0.38

> <Gold.Chemscore.Hbond.Weighted>
-6.4462

> <Gold.Chemscore.Metal.Weighted>
-0.0000

> <Gold.Chemscore.Lipo.Weighted>
-8.7875

> <Gold.Chemscore.Internal_Hbond.Weighted>
0.0000

> <Gold.Chemscore.DEClash.Weighted>
0.0701

> <Gold.Chemscore.DEInternal.Weighted>
0.7038

> <Gold.Chemscore.Rot.Weighted>
2.5600

> <Gold.Chemscore.Internal.Correction.Weighted>
   9.000000E+99

> <Gold.Protein.RotatedTorsions>
[ 6907 6896 6895 6894 ] final -159.83 input  -60.11 | X-H torsion
[ 7974 7965 7964 7962 ] final  -66.12 input  175.53 | X-H torsion
[ 8008 7997 7996 7995 ] final   50.53 input   59.86 | X-H torsion
[ 10167 10162 10161 10158 ] final   31.48 input  -65.29 | X-H torsion
[ 10718 10713 10712 10709 ] final   49.23 input   66.30 | X-H torsion
[ 10763 10752 10751 10750 ] final  118.20 input  -60.55 | X-H torsion
[ 11005 11000 10999 10996 ] final   12.90 input  -57.11 | X-H torsion

> <Gold.Protein.ActiveResidues>
 VAL166  LYS551  ARG553  GLY616  TRP617  ASP618  TYR619  PRO620  LYS621  CYS622 
 ASP623  PHE694  ASN695  SER759  ASP760  ASP761  ALA762  ILE779  LEU786  VAL792 
 PHE793  MET794  SER795  GLU796  ALA797  LYS798  CYS799  TRP800  GLU811  SER814 

> <Gold.Protein.RotatedAtoms>
  151.3397  133.3967  159.2669 H   0  0  0  0  0  0  0  0  0  0  0  0  # atno 6907 bound_to 6896
  150.9888  134.9228  159.7897 H   0  0  0  0  0  0  0  0  0  0  0  0  # atno 6908 bound_to 6896
  152.5240  134.3362  159.9253 H   0  0  0  0  0  0  0  0  0  0  0  0  # atno 6909 bound_to 6896
  145.7457  140.8932  143.0506 H   0  0  0  0  0  0  0  0  0  0  0  0  # atno 7974 bound_to 7965
  155.4203  140.3446  155.4271 H   0  0  0  0  0  0  0  0  0  0  0  0  # atno 8008 bound_to 7997
  156.1397  140.1538  156.8971 H   0  0  0  0  0  0  0  0  0  0  0  0  # atno 8009 bound_to 7997
  154.4960  140.0827  156.7679 H   0  0  0  0  0  0  0  0  0  0  0  0  # atno 8010 bound_to 7997
  140.4585  144.0943  150.6207 H   0  0  0  0  0  0  0  0  0  0  0  0  # atno 10167 bound_to 10162
  157.4766  130.8288  149.8046 H   0  0  0  0  0  0  0  0  0  0  0  0  # atno 10718 bound_to 10713
  153.5639  135.3515  155.2810 H   0  0  0  0  0  0  0  0  0  0  0  0  # atno 10763 bound_to 10752
  154.8691  135.4143  154.2800 H   0  0  0  0  0  0  0  0  0  0  0  0  # atno 10764 bound_to 10752
  153.3551  135.7057  153.6826 H   0  0  0  0  0  0  0  0  0  0  0  0  # atno 10765 bound_to 10752
  140.4867  134.0881  155.7762 H   0  0  0  0  0  0  0  0  0  0  0  0  # atno 11005 bound_to 11000
  144.6860  139.9522  143.7478 LP  0  0  0  0  0  0  0  0  0  0  0  0  # atno 17320 bound_to 7965
  146.0405  139.3417  143.0700 LP  0  0  0  0  0  0  0  0  0  0  0  0  # atno 17321 bound_to 7965
  140.4122  143.2651  151.9818 LP  0  0  0  0  0  0  0  0  0  0  0  0  # atno 17342 bound_to 10162
  139.4803  144.5905  151.7780 LP  0  0  0  0  0  0  0  0  0  0  0  0  # atno 17343 bound_to 10162
  156.0100  130.3838  150.2298 LP  0  0  0  0  0  0  0  0  0  0  0  0  # atno 17370 bound_to 10713
  157.0483  131.0055  151.3262 LP  0  0  0  0  0  0  0  0  0  0  0  0  # atno 17371 bound_to 10713
  141.1504  133.8979  157.2111 LP  0  0  0  0  0  0  0  0  0  0  0  0  # atno 17394 bound_to 11000
  139.9793  135.0103  156.9710 LP  0  0  0  0  0  0  0  0  0  0  0  0  # atno 17395 bound_to 11000

$$$$
