AV-unprocessed.smi:2532|AV-procd|sdf|9969|dock3
  -GOLD-   2272014 13D 1   1.00000     0.00000
 Structure written by MMmdl.
 36 38  0  0  0  0  0  0  0  0  1 V2000
  146.6431  137.7360  150.8026 O   0  0  0  0  0  0  0  0  0  0  0  0
  146.3923  138.0722  152.1535 C   0  0  1  0  0  0  0  0  0  0  0  0
  145.4304  137.0300  152.7461 C   0  0  0  0  0  0  0  0  0  0  0  0
  145.8180  135.7376  152.3102 O   0  0  0  0  0  0  0  0  0  0  0  0
  145.0109  135.2531  151.2490 C   0  0  0  0  0  0  0  0  0  0  0  0
  145.2996  133.7952  151.0838 C   0  0  0  0  0  0  0  0  0  0  0  0
  144.4208  132.7560  151.2565 C   0  0  0  0  0  0  0  0  0  0  0  0
  145.0005  131.4786  151.0014 C   0  0  0  0  0  0  0  0  0  0  0  0
  146.3156  131.5574  150.6282 C   0  0  0  0  0  0  0  0  0  0  0  0
  146.8689  133.2090  150.5812 S   0  0  0  0  0  0  0  0  0  0  0  0
  147.7313  138.1149  152.9151 C   0  0  0  0  0  0  0  0  0  0  0  0
  148.0990  139.4593  153.3243 N   0  0  0  0  0  0  0  0  0  0  0  0
  147.3036  140.5461  153.3382 C   0  0  0  0  0  0  0  0  0  0  0  0
  147.8403  141.6894  153.7551 N   0  0  0  0  0  0  0  0  0  0  0  0
  149.1360  141.2994  154.0479 C   0  0  0  0  0  0  0  0  0  0  0  0
  150.2298  142.0470  154.5400 C   0  0  0  0  0  0  0  0  0  0  0  0
  151.4761  141.4261  154.7649 C   0  0  0  0  0  0  0  0  0  0  0  0
  151.6486  140.0520  154.5003 C   0  0  0  0  0  0  0  0  0  0  0  0
  150.5736  139.2864  154.0090 C   0  0  0  0  0  0  0  0  0  0  0  0
  149.3309  139.9089  153.7882 C   0  0  0  0  0  0  0  0  0  0  0  0
  147.4209  137.2005  150.7668 H   0  0  0  0  0  0  0  0  0  0  0  0
  145.9306  139.0600  152.1927 H   0  0  0  0  0  0  0  0  0  0  0  0
  145.4016  137.0937  153.8355 H   0  0  0  0  0  0  0  0  0  0  0  0
  144.4176  137.2181  152.3859 H   0  0  0  0  0  0  0  0  0  0  0  0
  143.9547  135.4074  151.4750 H   0  0  0  0  0  0  0  0  0  0  0  0
  145.2375  135.7832  150.3229 H   0  0  0  0  0  0  0  0  0  0  0  0
  143.3892  132.8677  151.5566 H   0  0  0  0  0  0  0  0  0  0  0  0
  144.4399  130.5603  151.0972 H   0  0  0  0  0  0  0  0  0  0  0  0
  146.9893  130.7517  150.3767 H   0  0  0  0  0  0  0  0  0  0  0  0
  147.6746  137.4937  153.8099 H   0  0  0  0  0  0  0  0  0  0  0  0
  148.5333  137.7020  152.3017 H   0  0  0  0  0  0  0  0  0  0  0  0
  146.2716  140.4946  153.0226 H   0  0  0  0  0  0  0  0  0  0  0  0
  150.1095  143.1005  154.7448 H   0  0  0  0  0  0  0  0  0  0  0  0
  152.3045  142.0078  155.1421 H   0  0  0  0  0  0  0  0  0  0  0  0
  152.6072  139.5856  154.6746 H   0  0  0  0  0  0  0  0  0  0  0  0
  150.7032  138.2341  153.8031 H   0  0  0  0  0  0  0  0  0  0  0  0
  1  2  1  0  0  0  0
  1 21  1  0  0  0  0
  2  3  1  0  0  0  0
  2 11  1  0  0  0  0
  2 22  1  0  0  0  0
  3  4  1  0  0  0  0
  3 23  1  0  0  0  0
  3 24  1  0  0  0  0
  4  5  1  0  0  0  0
  5  6  1  0  0  0  0
  5 25  1  0  0  0  0
  5 26  1  0  0  0  0
  6 10  1  0  0  0  0
  6  7  2  0  0  0  0
  7  8  1  0  0  0  0
  7 27  1  0  0  0  0
  8  9  2  0  0  0  0
  8 28  1  0  0  0  0
  9 10  1  0  0  0  0
  9 29  1  0  0  0  0
 11 12  1  0  0  0  0
 11 30  1  0  0  0  0
 11 31  1  0  0  0  0
 12 20  1  0  0  0  0
 12 13  1  0  0  0  0
 13 14  2  0  0  0  0
 13 32  1  0  0  0  0
 14 15  1  0  0  0  0
 15 20  2  0  0  0  0
 15 16  1  0  0  0  0
 16 17  2  0  0  0  0
 16 33  1  0  0  0  0
 17 18  1  0  0  0  0
 17 34  1  0  0  0  0
 18 19  2  0  0  0  0
 18 35  1  0  0  0  0
 19 20  1  0  0  0  0
 19 36  1  0  0  0  0
M  END
> <s_m_source_file>
AV-unprocessed.smi

> <i_m_source_file_index>
2532

> <i_lp_mmshare_version>
43012

> <i_f3d_flags>
0

> <s_epik_input>
W2NIXTFbY0hdW2NIXVtjSF1jKGMxMiluKFtjSF1uMilbQ0gyXVtDQEhdKFtPSF0pW0NIMl1PW0NIMl1jM1tjSF1bY0hdW2NIXXMz

> <s_epik_cmdline>
J2VwaWtfcHl0aG9uJywgJy1waCcsICc3LjAnLCAnLXRuJywgJzgnLCAnLW1hJywgJzIwMCcsICctbWV0YWxfYmluZGluZycsICctaW1hZScsICc8aW5maWxlLm1hZT4nLCAnLW9tYWUnLCAnPG91dGZpbGUubWFlPic=

> <r_epik_Ionization_Penalty>
0.0678455

> <r_epik_Ionization_Penalty_Charging>
0

> <r_epik_Ionization_Penalty_Neutral>
0.0678455

> <r_epik_State_Penalty>
0.0593261

> <r_epik_Charging_Adjusted_Penalty>
0.0593261

> <i_epik_Tot_Q>
0

> <i_epik_Tot_abs_Q>
0

> <r_epik_Metal_State_Penalty>
6.23947e-05

> <b_epik_Metal_Only>
0

> <s_lp_Force_Field>
OPLS_2005

> <r_lp_Energy>
10.0551

> <b_lp_Chiralities_Consistent>
1

> <s_lp_Variant>
AV-unprocessed.smi:2532-2

> <Gold.Version>
5.8.1

> <Gold.Id.Protein>
6NUR|6NUR_protein|mol2

> <Gold.PLP.Fitness>
48.6407

> <Gold.PLP.PLP>
-42.5481

> <Gold.PLP.part.hbond>
-2.8864

> <Gold.PLP.part.metal>
0.0000

> <Gold.PLP.part.buried>
-0.6602

> <Gold.PLP.part.nonpolar>
-39.7641

> <Gold.PLP.part.repulsive>
0.3146

> <Gold.PLP.ligand.clash>
0.0000

> <Gold.PLP.ligand.torsion>
1.3765

> <Gold.PLP.Chemscore.Hbond>
1.0000

> <Gold.PLP.Chemscore.CHOScore>
1.9231

> <Gold.PLP.Chemscore.Metal>
0.0000

> <Gold.Chemscore.Hbonds>
donor molecule, donor type, donor heavy atom, donor atom, acceptor molecule, acceptor atom, score
      L1  H     1    21       P1  7948  0.90
      L1  C     9    29       P1 10747  0.83
      L1  C    13    32       P1 10175  0.73

> <Gold.PLP.Chemscore.Internal.Correction>
0.0763

> <Gold.Rescore>
     Score         DG    S(hbond)    S(metal)    S(lipo)     H(rot)  DE(clash)    DE(int)     intcor
     12.33     -14.46       1.00        0.00      99.91       2.36       0.08       2.04       ----

> <Gold.Chemscore.Fitness>
12.3346

> <Gold.Chemscore.DG>
-14.4619

> <Gold.Chemscore.ZeroCoef>
-5.4800

> <Gold.Chemscore.Hbond>
0.9997

> <Gold.Chemscore.Metal>
0.0000

> <Gold.Chemscore.Lipo>
99.9114

> <Gold.Chemscore.Internal_Hbond>
0.0000

> <Gold.Chemscore.DEClash>
0.0838

> <Gold.Chemscore.DEInternal>
2.0436

> <Gold.Chemscore.Rot>
2.3620

> <Gold.Chemscore.Internal.Correction>
   9.000000E+99

> <Gold.Chemscore.Hbonds>
donor molecule, donor type, donor heavy atom, donor atom, acceptor molecule, acceptor atom, score
      L1  H     1    21       P1  7948  0.79

> <Gold.Chemscore.Hbond.Weighted>
-3.3391

> <Gold.Chemscore.Metal.Weighted>
-0.0000

> <Gold.Chemscore.Lipo.Weighted>
-11.6896

> <Gold.Chemscore.Internal_Hbond.Weighted>
0.0000

> <Gold.Chemscore.DEClash.Weighted>
0.0838

> <Gold.Chemscore.DEInternal.Weighted>
2.0436

> <Gold.Chemscore.Rot.Weighted>
6.0468

> <Gold.Chemscore.Internal.Correction.Weighted>
   9.000000E+99

> <Gold.Protein.RotatedTorsions>
[ 6907 6896 6895 6894 ] final   69.62 input  -60.11 | X-H torsion
[ 7974 7965 7964 7962 ] final  -98.71 input  175.53 | X-H torsion
[ 8008 7997 7996 7995 ] final  104.10 input   59.86 | X-H torsion
[ 10167 10162 10161 10158 ] final   41.69 input  -65.29 | X-H torsion
[ 10718 10713 10712 10709 ] final -157.40 input   66.30 | X-H torsion
[ 10763 10752 10751 10750 ] final  178.60 input  -60.55 | X-H torsion
[ 11005 11000 10999 10996 ] final  161.90 input  -57.11 | X-H torsion

> <Gold.Protein.ActiveResidues>
 VAL166  LYS551  ARG553  GLY616  TRP617  ASP618  TYR619  PRO620  LYS621  CYS622 
 ASP623  PHE694  ASN695  SER759  ASP760  ASP761  ALA762  ILE779  LEU786  VAL792 
 PHE793  MET794  SER795  GLU796  ALA797  LYS798  CYS799  TRP800  GLU811  SER814 

> <Gold.Protein.RotatedAtoms>
  152.4697  134.4989  159.9718 H   0  0  0  0  0  0  0  0  0  0  0  0  # atno 6907 bound_to 6896
  151.5019  133.3497  159.2878 H   0  0  0  0  0  0  0  0  0  0  0  0  # atno 6908 bound_to 6896
  150.8701  134.8101  159.7210 H   0  0  0  0  0  0  0  0  0  0  0  0  # atno 6909 bound_to 6896
  145.3170  140.9413  143.2737 H   0  0  0  0  0  0  0  0  0  0  0  0  # atno 7974 bound_to 7965
  156.1543  140.3153  155.8700 H   0  0  0  0  0  0  0  0  0  0  0  0  # atno 8008 bound_to 7997
  155.3909  140.0493  157.3058 H   0  0  0  0  0  0  0  0  0  0  0  0  # atno 8009 bound_to 7997
  154.5087  140.2156  155.9211 H   0  0  0  0  0  0  0  0  0  0  0  0  # atno 8010 bound_to 7997
  140.3619  144.2218  150.6137 H   0  0  0  0  0  0  0  0  0  0  0  0  # atno 10167 bound_to 10162
  156.5397  130.8558  151.2744 H   0  0  0  0  0  0  0  0  0  0  0  0  # atno 10718 bound_to 10713
  154.5098  135.2788  155.1352 H   0  0  0  0  0  0  0  0  0  0  0  0  # atno 10763 bound_to 10752
  154.2952  135.6259  153.5405 H   0  0  0  0  0  0  0  0  0  0  0  0  # atno 10764 bound_to 10752
  152.9916  135.5683  154.5560 H   0  0  0  0  0  0  0  0  0  0  0  0  # atno 10765 bound_to 10752
  140.2204  134.8201  157.3214 H   0  0  0  0  0  0  0  0  0  0  0  0  # atno 11005 bound_to 11000
  144.8969  139.4700  143.6651 LP  0  0  0  0  0  0  0  0  0  0  0  0  # atno 17320 bound_to 7965
  146.3096  139.7701  142.9029 LP  0  0  0  0  0  0  0  0  0  0  0  0  # atno 17321 bound_to 7965
  140.5119  143.2288  151.8522 LP  0  0  0  0  0  0  0  0  0  0  0  0  # atno 17342 bound_to 10162
  139.4813  144.4940  151.9148 LP  0  0  0  0  0  0  0  0  0  0  0  0  # atno 17343 bound_to 10162
  157.7407  130.9856  150.2398 LP  0  0  0  0  0  0  0  0  0  0  0  0  # atno 17370 bound_to 10713
  156.2983  130.3755  149.7775 LP  0  0  0  0  0  0  0  0  0  0  0  0  # atno 17371 bound_to 10713
  140.1856  134.4435  155.7746 LP  0  0  0  0  0  0  0  0  0  0  0  0  # atno 17394 bound_to 11000
  141.2223  133.7003  156.7942 LP  0  0  0  0  0  0  0  0  0  0  0  0  # atno 17395 bound_to 11000

$$$$
