AV-unprocessed.smi:1196|AV-procd|sdf|5005|dock3
  -GOLD-   22720 4 13D 1   1.00000     0.00000
 Structure written by MMmdl.
 36 37  0  0  0  0  0  0  0  0  2 V2000
  149.3244  141.5884  156.8205 C   0  0  0  0  0  0  0  0  0  0  0  0
  150.6985  141.1450  156.3004 C   0  0  1  0  0  0  0  0  0  0  0  0
  151.7600  141.1783  157.4198 C   0  0  0  0  0  0  0  0  0  0  0  0
  151.9684  142.5127  157.9544 N   0  0  0  0  0  0  0  0  0  0  0  0
  151.6356  143.7243  157.3861 C   0  0  0  0  0  0  0  0  0  0  0  0
  152.0347  144.7023  158.2512 C   0  0  0  0  0  0  0  0  0  0  0  0
  152.6040  143.9805  159.3374 C   0  0  0  0  0  0  0  0  0  0  0  0
  152.5597  142.6701  159.1588 N   0  0  0  0  0  0  0  0  0  0  0  0
  150.5800  139.8028  155.7315 N   0  0  0  0  0  0  0  0  0  0  0  0
  151.5497  139.1338  155.0870 C   0  0  0  0  0  0  0  0  0  0  0  0
  152.6791  139.5879  154.9023 O   0  0  0  0  0  0  0  0  0  0  0  0
  151.1908  137.7320  154.5884 C   0  0  0  0  0  0  0  0  0  0  0  0
  150.6913  136.8122  155.7184 C   0  0  0  0  0  0  0  0  0  0  0  0
  150.4417  135.3656  155.2479 C   0  0  2  0  0  0  0  0  0  0  0  0
  149.2834  135.2885  154.3841 N   0  0  0  0  0  0  0  0  0  0  0  0
  148.3726  134.4459  154.8675 C   0  0  0  0  0  0  0  0  0  0  0  0
  147.3214  134.2188  154.2725 O   0  0  0  0  0  0  0  0  0  0  0  0
  148.7899  133.9350  156.0420 N   0  5  0  0  0  0  0  0  0  0  0  0
  150.0063  134.4223  156.3692 C   0  0  0  0  0  0  0  0  0  0  0  0
  150.7145  134.2011  157.3504 O   0  0  0  0  0  0  0  0  0  0  0  0
  149.3669  142.5992  157.2269 H   0  0  0  0  0  0  0  0  0  0  0  0
  148.9649  140.9274  157.6102 H   0  0  0  0  0  0  0  0  0  0  0  0
  148.5828  141.5873  156.0209 H   0  0  0  0  0  0  0  0  0  0  0  0
  150.9896  141.8538  155.5229 H   0  0  0  0  0  0  0  0  0  0  0  0
  151.4501  140.5375  158.2461 H   0  0  0  0  0  0  0  0  0  0  0  0
  152.7105  140.7808  157.0594 H   0  0  0  0  0  0  0  0  0  0  0  0
  151.1545  143.7883  156.4212 H   0  0  0  0  0  0  0  0  0  0  0  0
  151.9359  145.7702  158.1265 H   0  0  0  0  0  0  0  0  0  0  0  0
  153.0443  144.3668  160.2446 H   0  0  0  0  0  0  0  0  0  0  0  0
  149.6876  139.3433  155.8397 H   0  0  0  0  0  0  0  0  0  0  0  0
  150.4254  137.8322  153.8183 H   0  0  0  0  0  0  0  0  0  0  0  0
  152.0603  137.2811  154.1077 H   0  0  0  0  0  0  0  0  0  0  0  0
  151.4364  136.8003  156.5158 H   0  0  0  0  0  0  0  0  0  0  0  0
  149.7802  137.2190  156.1614 H   0  0  0  0  0  0  0  0  0  0  0  0
  151.3167  134.9542  154.7430 H   0  0  0  0  0  0  0  0  0  0  0  0
  149.1984  135.7975  153.5168 H   0  0  0  0  0  0  0  0  0  0  0  0
  1  2  1  0  0  0  0
  1 21  1  0  0  0  0
  1 22  1  0  0  0  0
  1 23  1  0  0  0  0
  2  3  1  0  0  0  0
  2  9  1  0  0  0  0
  2 24  1  0  0  0  0
  3  4  1  0  0  0  0
  3 25  1  0  0  0  0
  3 26  1  0  0  0  0
  4  8  1  0  0  0  0
  4  5  1  0  0  0  0
  5  6  2  0  0  0  0
  5 27  1  0  0  0  0
  6  7  1  0  0  0  0
  6 28  1  0  0  0  0
  7  8  2  0  0  0  0
  7 29  1  0  0  0  0
  9 10  1  0  0  0  0
  9 30  1  0  0  0  0
 10 11  2  0  0  0  0
 10 12  1  0  0  0  0
 12 13  1  0  0  0  0
 12 31  1  0  0  0  0
 12 32  1  0  0  0  0
 13 14  1  0  0  0  0
 13 33  1  0  0  0  0
 13 34  1  0  0  0  0
 14 19  1  0  0  0  0
 14 15  1  0  0  0  0
 14 35  1  0  0  0  0
 15 16  1  0  0  0  0
 15 36  1  0  0  0  0
 16 17  2  0  0  0  0
 16 18  1  0  0  0  0
 18 19  1  0  0  0  0
 19 20  2  0  0  0  0
M  CHG  1  18  -1
M  END
> <s_m_source_file>
AV-unprocessed.smi

> <i_m_source_file_index>
1196

> <i_lp_mmshare_version>
43012

> <i_f3d_flags>
0

> <s_epik_input>
bjFbY0hdW2NIXVtjSF1uMVtDSDJdW0NAQEhdKFtDSDNdKVtOSF1DKD1PKVtDSDJdW0NIMl1bQ0BASF0yW05IXUMoPU8pW05IXUMyPU8=

> <s_epik_cmdline>
J2VwaWtfcHl0aG9uJywgJy1waCcsICc3LjAnLCAnLXRuJywgJzgnLCAnLW1hJywgJzIwMCcsICctbWV0YWxfYmluZGluZycsICctaW1hZScsICc8aW5maWxlLm1hZT4nLCAnLW9tYWUnLCAnPG91dGZpbGUubWFlPic=

> <r_lp_tautomer_probability>
1

> <r_epik_Ionization_Penalty>
2.57056

> <r_epik_Ionization_Penalty_Charging>
2.57023

> <r_epik_Ionization_Penalty_Neutral>
0.000331301

> <r_epik_State_Penalty>
2.56828

> <r_epik_Charging_Adjusted_Penalty>
5.13851

> <i_epik_Tot_Q>
-1

> <i_epik_Tot_abs_Q>
1

> <r_epik_Metal_State_Penalty>
0.444883

> <b_epik_Metal_Only>
1

> <s_lp_Force_Field>
OPLS_2005

> <r_lp_Energy>
8.81211

> <b_lp_Chiralities_Consistent>
1

> <s_lp_Variant>
AV-unprocessed.smi:1196-10

> <Gold.Version>
5.8.1

> <Gold.Id.Protein>
6NUR|6NUR_protein|mol2

> <Gold.PLP.Fitness>
47.4270

> <Gold.PLP.PLP>
-37.3589

> <Gold.PLP.part.hbond>
-4.0010

> <Gold.PLP.part.metal>
0.0000

> <Gold.PLP.part.buried>
-6.1472

> <Gold.PLP.part.nonpolar>
-27.8697

> <Gold.PLP.part.repulsive>
0.2431

> <Gold.PLP.ligand.clash>
0.0000

> <Gold.PLP.ligand.torsion>
0.3291

> <Gold.PLP.Chemscore.Hbond>
2.5404

> <Gold.PLP.Chemscore.CHOScore>
0.9887

> <Gold.PLP.Chemscore.Metal>
0.0000

> <Gold.Chemscore.Hbonds>
donor molecule, donor type, donor heavy atom, donor atom, acceptor molecule, acceptor atom, score
      L1  H    15    36       P1  7948  1.00
      P1  H  6896  6909       L1    20  0.56
      P1  H  7989  7998       L1    11  0.08
      P1  H  7997  8010       L1    11  0.78
      L1  C     5    27       P1  8028  0.96

> <Gold.PLP.Chemscore.Internal.Correction>
0.1389

> <Gold.Rescore>
     Score         DG    S(hbond)    S(metal)    S(lipo)     H(rot)  DE(clash)    DE(int)     intcor
     15.69     -16.01       2.85        0.00      71.99       2.89       0.00       0.31       ----

> <Gold.Chemscore.Fitness>
15.6914

> <Gold.Chemscore.DG>
-16.0072

> <Gold.Chemscore.ZeroCoef>
-5.4800

> <Gold.Chemscore.Hbond>
2.8486

> <Gold.Chemscore.Metal>
0.0000

> <Gold.Chemscore.Lipo>
71.9925

> <Gold.Chemscore.Internal_Hbond>
0.0000

> <Gold.Chemscore.DEClash>
0.0021

> <Gold.Chemscore.DEInternal>
0.3136

> <Gold.Chemscore.Rot>
2.8946

> <Gold.Chemscore.Internal.Correction>
   9.000000E+99

> <Gold.Chemscore.Hbonds>
donor molecule, donor type, donor heavy atom, donor atom, acceptor molecule, acceptor atom, score
      L1  H    15    36       P1  7948  0.70
      P1  H  6896  6909       L1    20  0.56
      P1  H  7997  8010       L1    11  0.77

> <Gold.Chemscore.Hbond.Weighted>
-9.5142

> <Gold.Chemscore.Metal.Weighted>
-0.0000

> <Gold.Chemscore.Lipo.Weighted>
-8.4231

> <Gold.Chemscore.Internal_Hbond.Weighted>
0.0000

> <Gold.Chemscore.DEClash.Weighted>
0.0021

> <Gold.Chemscore.DEInternal.Weighted>
0.3136

> <Gold.Chemscore.Rot.Weighted>
7.4101

> <Gold.Chemscore.Internal.Correction.Weighted>
   9.000000E+99

> <Gold.Protein.RotatedTorsions>
[ 6907 6896 6895 6894 ] final   -2.53 input  -60.11 | X-H torsion
[ 7974 7965 7964 7962 ] final  -45.65 input  175.53 | X-H torsion
[ 8008 7997 7996 7995 ] final   98.45 input   59.86 | X-H torsion
[ 10167 10162 10161 10158 ] final -123.15 input  -65.29 | X-H torsion
[ 10718 10713 10712 10709 ] final  -15.52 input   66.30 | X-H torsion
[ 10763 10752 10751 10750 ] final -131.26 input  -60.55 | X-H torsion
[ 11005 11000 10999 10996 ] final  -92.72 input  -57.11 | X-H torsion

> <Gold.Protein.ActiveResidues>
 VAL166  LYS551  ARG553  GLY616  TRP617  ASP618  TYR619  PRO620  LYS621  CYS622 
 ASP623  PHE694  ASN695  SER759  ASP760  ASP761  ALA762  ILE779  LEU786  VAL792 
 PHE793  MET794  SER795  GLU796  ALA797  LYS798  CYS799  TRP800  GLU811  SER814 

> <Gold.Protein.RotatedAtoms>
  151.5285  135.1068  159.9896 H   0  0  0  0  0  0  0  0  0  0  0  0  # atno 6907 bound_to 6896
  152.4589  133.7776  159.6844 H   0  0  0  0  0  0  0  0  0  0  0  0  # atno 6908 bound_to 6896
  150.8543  133.7674  159.3039 H   0  0  0  0  0  0  0  0  0  0  0  0  # atno 6909 bound_to 6896
  145.9799  140.7294  142.9368 H   0  0  0  0  0  0  0  0  0  0  0  0  # atno 7974 bound_to 7965
  156.1005  140.3243  155.7936 H   0  0  0  0  0  0  0  0  0  0  0  0  # atno 8008 bound_to 7997
  155.4844  140.0556  157.2980 H   0  0  0  0  0  0  0  0  0  0  0  0  # atno 8009 bound_to 7997
  154.4694  140.2004  156.0049 H   0  0  0  0  0  0  0  0  0  0  0  0  # atno 8010 bound_to 7997
  140.0066  143.5485  152.2281 H   0  0  0  0  0  0  0  0  0  0  0  0  # atno 10167 bound_to 10162
  156.6006  130.4823  149.6241 H   0  0  0  0  0  0  0  0  0  0  0  0  # atno 10718 bound_to 10713
  154.8752  135.3836  154.4217 H   0  0  0  0  0  0  0  0  0  0  0  0  # atno 10763 bound_to 10752
  153.4920  135.7030  153.5884 H   0  0  0  0  0  0  0  0  0  0  0  0  # atno 10764 bound_to 10752
  153.4253  135.3891  155.2104 H   0  0  0  0  0  0  0  0  0  0  0  0  # atno 10765 bound_to 10752
  141.1515  133.7840  157.0059 H   0  0  0  0  0  0  0  0  0  0  0  0  # atno 11005 bound_to 11000
  144.6859  140.2891  143.7280 LP  0  0  0  0  0  0  0  0  0  0  0  0  # atno 17320 bound_to 7965
  145.7784  139.1882  143.2172 LP  0  0  0  0  0  0  0  0  0  0  0  0  # atno 17321 bound_to 7965
  139.6234  144.7633  151.2690 LP  0  0  0  0  0  0  0  0  0  0  0  0  # atno 17342 bound_to 10162
  140.7398  143.6607  150.8167 LP  0  0  0  0  0  0  0  0  0  0  0  0  # atno 17343 bound_to 10162
  156.2472  130.6886  151.1611 LP  0  0  0  0  0  0  0  0  0  0  0  0  # atno 17370 bound_to 10713
  157.7280  131.0635  150.5838 LP  0  0  0  0  0  0  0  0  0  0  0  0  # atno 17371 bound_to 10713
  140.0909  134.9593  157.1774 LP  0  0  0  0  0  0  0  0  0  0  0  0  # atno 17394 bound_to 11000
  140.3447  134.2665  155.7207 LP  0  0  0  0  0  0  0  0  0  0  0  0  # atno 17395 bound_to 11000

$$$$
