AV-unprocessed.smi:285|AV-procd|sdf|2166|dock6
  -GOLD-   2262021523D 1   1.00000     0.00000
 Structure written by MMmdl.
 31 33  0  0  0  0  0  0  0  0  1 V2000
  154.9243  141.1179  160.9850 N   0  0  0  0  0  0  0  0  0  0  0  0
  153.7693  141.5486  160.4588 C   0  0  0  0  0  0  0  0  0  0  0  0
  153.1766  142.6333  161.0104 N   0  0  0  0  0  0  0  0  0  0  0  0
  152.0235  143.0829  160.5045 C   0  0  0  0  0  0  0  0  0  0  0  0
  151.3182  142.6029  159.4769 N   0  0  0  0  0  0  0  0  0  0  0  0
  151.9169  141.5099  158.9190 C   0  0  0  0  0  0  0  0  0  0  0  0
  153.1412  140.9217  159.3532 C   0  0  0  0  0  0  0  0  0  0  0  0
  153.4529  139.8225  158.5630 N   0  0  0  0  0  0  0  0  0  0  0  0
  152.4596  139.7851  157.7194 C   0  0  0  0  0  0  0  0  0  0  0  0
  152.3798  138.4267  156.3865 Br  0  0  0  0  0  0  0  0  0  0  0  0
  151.4881  140.7525  157.8466 N   0  0  0  0  0  0  0  0  0  0  0  0
  150.2540  140.9586  157.0285 C   0  0  1  0  0  0  0  0  0  0  0  0
  150.5806  141.5088  155.6514 C   0  0  0  0  0  0  0  0  0  0  0  0
  149.3157  141.1106  154.9231 C   0  0  1  0  0  0  0  0  0  0  0  0
  149.5007  141.1168  153.5211 O   0  0  0  0  0  0  0  0  0  0  0  0
  148.9702  139.7362  155.5436 C   0  0  1  0  0  0  0  0  0  0  0  0
  149.4790  138.5111  154.7570 C   0  0  0  0  0  0  0  0  0  0  0  0
  149.0336  138.5803  153.4193 O   0  0  0  0  0  0  0  0  0  0  0  0
  149.6364  139.7311  156.8123 O   0  0  0  0  0  0  0  0  0  0  0  0
  155.3863  140.3107  160.5912 H   0  0  0  0  0  0  0  0  0  0  0  0
  155.3320  141.6031  161.7710 H   0  0  0  0  0  0  0  0  0  0  0  0
  151.6059  143.9514  160.9921 H   0  0  0  0  0  0  0  0  0  0  0  0
  149.6014  141.6083  157.6116 H   0  0  0  0  0  0  0  0  0  0  0  0
  150.7614  142.5837  155.6818 H   0  0  0  0  0  0  0  0  0  0  0  0
  151.4539  140.9989  155.2417 H   0  0  0  0  0  0  0  0  0  0  0  0
  148.5270  141.8229  155.1705 H   0  0  0  0  0  0  0  0  0  0  0  0
  149.1863  140.2965  153.1722 H   0  0  0  0  0  0  0  0  0  0  0  0
  147.8905  139.6675  155.6842 H   0  0  0  0  0  0  0  0  0  0  0  0
  150.5679  138.4958  154.7176 H   0  0  0  0  0  0  0  0  0  0  0  0
  149.1605  137.5761  155.2169 H   0  0  0  0  0  0  0  0  0  0  0  0
  148.9422  137.7002  153.0879 H   0  0  0  0  0  0  0  0  0  0  0  0
  1  2  1  0  0  0  0
  1 20  1  0  0  0  0
  1 21  1  0  0  0  0
  2  7  1  0  0  0  0
  2  3  2  0  0  0  0
  3  4  1  0  0  0  0
  4  5  2  0  0  0  0
  4 22  1  0  0  0  0
  5  6  1  0  0  0  0
  6 11  1  0  0  0  0
  6  7  2  0  0  0  0
  7  8  1  0  0  0  0
  8  9  2  0  0  0  0
  9 10  1  0  0  0  0
  9 11  1  0  0  0  0
 11 12  1  0  0  0  0
 12 19  1  0  0  0  0
 12 13  1  0  0  0  0
 12 23  1  0  0  0  0
 13 14  1  0  0  0  0
 13 24  1  0  0  0  0
 13 25  1  0  0  0  0
 14 15  1  0  0  0  0
 14 16  1  0  0  0  0
 14 26  1  0  0  0  0
 15 27  1  0  0  0  0
 16 17  1  0  0  0  0
 16 19  1  0  0  0  0
 16 28  1  0  0  0  0
 17 18  1  0  0  0  0
 17 29  1  0  0  0  0
 17 30  1  0  0  0  0
 18 31  1  0  0  0  0
M  END
> <s_m_source_file>
AV-unprocessed.smi

> <i_m_source_file_index>
285

> <i_lp_mmshare_version>
43012

> <i_f3d_flags>
0

> <s_epik_input>
bjFbY0hdbmMoW05IMl0pYyhjMTIpbmMoQnIpbjJbQ0BASF0zW0NIMl1bQ0BASF0oW09IXSlbQ0BIXShPMylbQ0gyXVtPSF0=

> <s_epik_cmdline>
J2VwaWtfcHl0aG9uJywgJy1waCcsICc3LjAnLCAnLXRuJywgJzgnLCAnLW1hJywgJzIwMCcsICctbWV0YWxfYmluZGluZycsICctaW1hZScsICc8aW5maWxlLm1hZT4nLCAnLW9tYWUnLCAnPG91dGZpbGUubWFlPic=

> <r_lp_tautomer_probability>
1

> <r_epik_Ionization_Penalty>
0.000103242

> <r_epik_Ionization_Penalty_Charging>
0

> <r_epik_Ionization_Penalty_Neutral>
0.000103242

> <r_epik_State_Penalty>
-0

> <r_epik_Charging_Adjusted_Penalty>
0

> <i_epik_Tot_Q>
0

> <i_epik_Tot_abs_Q>
0

> <r_epik_Metal_State_Penalty>
-0

> <b_epik_Metal_Only>
0

> <s_epik_Chemistry_Notes>
This compound contains an acetal/aminal-like group ( X-CH(R)-Y where X, Y are N, S, or O) that may be acid/base labile, releasing an aldehyde.

> <s_lp_Force_Field>
OPLS_2005

> <r_lp_Energy>
35.0354

> <b_lp_Chiralities_Consistent>
1

> <s_lp_Variant>
AV-unprocessed.smi:285-2

> <Gold.Version>
5.8.1

> <Gold.Id.Protein>
6NUR|6NUR_protein|mol2

> <Gold.PLP.Fitness>
43.3903

> <Gold.PLP.PLP>
-34.1184

> <Gold.PLP.part.hbond>
-7.1812

> <Gold.PLP.part.metal>
0.0000

> <Gold.PLP.part.buried>
-4.0424

> <Gold.PLP.part.nonpolar>
-21.4620

> <Gold.PLP.part.repulsive>
0.0387

> <Gold.PLP.ligand.clash>
0.0000

> <Gold.PLP.ligand.torsion>
0.3866

> <Gold.PLP.Chemscore.Hbond>
3.3435

> <Gold.PLP.Chemscore.CHOScore>
0.0000

> <Gold.PLP.Chemscore.Metal>
0.0000

> <Gold.Chemscore.Hbonds>
donor molecule, donor type, donor heavy atom, donor atom, acceptor molecule, acceptor atom, score
      L1  H    15    27       P1  7957  0.24
      L1  H    18    31       P1  7948  1.00
      P1  H  7989  7998       L1    15  0.17
      P1  H  7997  8009       L1     8  0.85
      P1  H  8011  8017       L1    15  1.00

> <Gold.PLP.Chemscore.Internal.Correction>
0.0145

> <Gold.Rescore>
     Score         DG    S(hbond)    S(metal)    S(lipo)     H(rot)  DE(clash)    DE(int)     intcor
     10.93     -11.31       2.73        0.00      38.99       3.06       0.13       0.25       ----

> <Gold.Chemscore.Fitness>
10.9258

> <Gold.Chemscore.DG>
-11.3125

> <Gold.Chemscore.ZeroCoef>
-5.4800

> <Gold.Chemscore.Hbond>
2.7264

> <Gold.Chemscore.Metal>
0.0000

> <Gold.Chemscore.Lipo>
38.9883

> <Gold.Chemscore.Internal_Hbond>
0.0000

> <Gold.Chemscore.DEClash>
0.1337

> <Gold.Chemscore.DEInternal>
0.2530

> <Gold.Chemscore.Rot>
3.0607

> <Gold.Chemscore.Internal.Correction>
   9.000000E+99

> <Gold.Chemscore.Hbonds>
donor molecule, donor type, donor heavy atom, donor atom, acceptor molecule, acceptor atom, score
      L1  H    15    27       P1  7957  0.23
      L1  H    18    31       P1  7948  0.99
      P1  H  7989  7998       L1    15  0.02
      P1  H  7997  8009       L1     8  0.17
      P1  H  8011  8017       L1    15  0.88

> <Gold.Chemscore.Hbond.Weighted>
-9.1063

> <Gold.Chemscore.Metal.Weighted>
-0.0000

> <Gold.Chemscore.Lipo.Weighted>
-4.5616

> <Gold.Chemscore.Internal_Hbond.Weighted>
0.0000

> <Gold.Chemscore.DEClash.Weighted>
0.1337

> <Gold.Chemscore.DEInternal.Weighted>
0.2530

> <Gold.Chemscore.Rot.Weighted>
7.8354

> <Gold.Chemscore.Internal.Correction.Weighted>
   9.000000E+99

> <Gold.Protein.RotatedTorsions>
[ 6907 6896 6895 6894 ] final  -86.28 input  -60.11 | X-H torsion
[ 7974 7965 7964 7962 ] final   37.42 input  175.53 | X-H torsion
[ 8008 7997 7996 7995 ] final  127.82 input   59.86 | X-H torsion
[ 10167 10162 10161 10158 ] final  -47.96 input  -65.29 | X-H torsion
[ 10718 10713 10712 10709 ] final  119.09 input   66.30 | X-H torsion
[ 10763 10752 10751 10750 ] final  -68.88 input  -60.55 | X-H torsion
[ 11005 11000 10999 10996 ] final   53.74 input  -57.11 | X-H torsion

> <Gold.Protein.ActiveResidues>
 VAL166  LYS551  ARG553  GLY616  TRP617  ASP618  TYR619  PRO620  LYS621  CYS622 
 ASP623  PHE694  ASN695  SER759  ASP760  ASP761  ALA762  ILE779  LEU786  VAL792 
 PHE793  MET794  SER795  GLU796  ALA797  LYS798  CYS799  TRP800  GLU811  SER814 

> <Gold.Protein.RotatedAtoms>
  150.6867  134.3075  159.4731 H   0  0  0  0  0  0  0  0  0  0  0  0  # atno 6907 bound_to 6896
  152.0964  134.9369  160.0580 H   0  0  0  0  0  0  0  0  0  0  0  0  # atno 6908 bound_to 6896
  152.0665  133.4052  159.4477 H   0  0  0  0  0  0  0  0  0  0  0  0  # atno 6909 bound_to 6896
  146.1139  139.5897  142.9334 H   0  0  0  0  0  0  0  0  0  0  0  0  # atno 7974 bound_to 7965
  156.2900  140.2660  156.2335 H   0  0  0  0  0  0  0  0  0  0  0  0  # atno 8008 bound_to 7997
  155.0049  140.0387  157.2393 H   0  0  0  0  0  0  0  0  0  0  0  0  # atno 8009 bound_to 7997
  154.7569  140.2753  155.6251 H   0  0  0  0  0  0  0  0  0  0  0  0  # atno 8010 bound_to 7997
  140.6752  143.2761  151.4002 H   0  0  0  0  0  0  0  0  0  0  0  0  # atno 10167 bound_to 10162
  157.5986  131.1054  150.7847 H   0  0  0  0  0  0  0  0  0  0  0  0  # atno 10718 bound_to 10713
  154.3953  135.6043  153.5866 H   0  0  0  0  0  0  0  0  0  0  0  0  # atno 10763 bound_to 10752
  152.9787  135.5893  154.4248 H   0  0  0  0  0  0  0  0  0  0  0  0  # atno 10764 bound_to 10752
  154.4039  135.2843  155.2057 H   0  0  0  0  0  0  0  0  0  0  0  0  # atno 10765 bound_to 10752
  140.0742  134.5427  155.9014 H   0  0  0  0  0  0  0  0  0  0  0  0  # atno 11005 bound_to 11000
  145.5607  141.0404  143.2228 LP  0  0  0  0  0  0  0  0  0  0  0  0  # atno 17320 bound_to 7965
  144.7536  139.7132  143.7263 LP  0  0  0  0  0  0  0  0  0  0  0  0  # atno 17321 bound_to 7965
  139.6041  144.1234  152.2230 LP  0  0  0  0  0  0  0  0  0  0  0  0  # atno 17342 bound_to 10162
  140.0628  144.5843  150.7250 LP  0  0  0  0  0  0  0  0  0  0  0  0  # atno 17343 bound_to 10162
  156.8252  130.4997  149.5338 LP  0  0  0  0  0  0  0  0  0  0  0  0  # atno 17370 bound_to 10713
  156.1053  130.6000  150.9961 LP  0  0  0  0  0  0  0  0  0  0  0  0  # atno 17371 bound_to 10713
  141.2023  133.6624  156.6000 LP  0  0  0  0  0  0  0  0  0  0  0  0  # atno 17394 bound_to 11000
  140.3582  134.7710  157.4515 LP  0  0  0  0  0  0  0  0  0  0  0  0  # atno 17395 bound_to 11000

$$$$
