AV-unprocessed.smi:1492|AV-procd|sdf|6040|dock8
  -GOLD-   22720 6153D 1   1.00000     0.00000
 Structure written by MMmdl.
 52 53  0  0  0  0  0  0  0  0  1 V2000
  149.7722  141.4750  155.1502 C   0  0  0  0  0  0  0  0  0  0  0  0
  150.6711  140.5362  155.9759 C   0  0  0  0  0  0  0  0  0  0  0  0
  150.6337  140.7151  157.5270 C   0  0  1  0  0  0  0  0  0  0  0  0
  149.1856  141.0792  157.9529 C   0  0  0  0  0  0  0  0  0  0  0  0
  150.9554  139.3463  158.2036 C   0  0  0  0  0  0  0  0  0  0  0  0
  149.9860  138.3221  157.8237 N   0  0  0  0  0  0  0  0  0  0  0  0
  149.6295  137.2592  158.5587 C   0  0  0  0  0  0  0  0  0  0  0  0
  150.2010  136.9151  159.5927 O   0  0  0  0  0  0  0  0  0  0  0  0
  148.4012  136.4970  158.0649 C   0  0  0  0  0  0  0  0  0  0  0  0
  147.7711  135.5793  159.1115 C   0  0  0  0  0  0  0  0  0  0  0  0
  147.6050  134.2460  158.9196 C   0  0  0  0  0  0  0  0  0  0  0  0
  148.0061  133.5049  157.6566 C   0  0  0  0  0  0  0  0  0  0  0  0
  147.0559  133.4439  159.9043 N   0  0  0  0  0  0  0  0  0  0  0  0
  146.6980  134.0403  161.1016 C   0  0  0  0  0  0  0  0  0  0  0  0
  146.1392  133.0710  162.1200 C   0  0  0  0  0  0  0  0  0  0  0  0
  146.8174  135.3024  161.3803 N   0  0  0  0  0  0  0  0  0  0  0  0
  147.3566  136.1620  160.4102 C   0  0  0  0  0  0  0  0  0  0  0  0
  147.4874  137.3621  160.6480 O   0  0  0  0  0  0  0  0  0  0  0  0
  151.5830  141.7684  157.9952 N   0  0  0  0  0  0  0  0  0  0  0  0
  151.2405  143.1399  157.6002 C   0  0  0  0  0  0  0  0  0  0  0  0
  152.3494  144.1378  157.9716 C   0  0  0  0  0  0  0  0  0  0  0  0
  152.6044  144.0724  159.3694 O   0  0  0  0  0  0  0  0  0  0  0  0
  152.9860  142.7692  159.7933 C   0  0  0  0  0  0  0  0  0  0  0  0
  151.8839  141.7584  159.4314 C   0  0  0  0  0  0  0  0  0  0  0  0
  146.9571  132.4553  159.7227 H   0  0  0  0  0  0  0  0  0  0  0  0
  149.8893  141.2681  154.0864 H   0  0  0  0  0  0  0  0  0  0  0  0
  150.0275  142.5235  155.3003 H   0  0  0  0  0  0  0  0  0  0  0  0
  148.7166  141.3430  155.3847 H   0  0  0  0  0  0  0  0  0  0  0  0
  150.3939  139.5154  155.7144 H   0  0  0  0  0  0  0  0  0  0  0  0
  151.6900  140.6674  155.6130 H   0  0  0  0  0  0  0  0  0  0  0  0
  148.5053  140.2327  157.8591 H   0  0  0  0  0  0  0  0  0  0  0  0
  148.7683  141.8799  157.3418 H   0  0  0  0  0  0  0  0  0  0  0  0
  149.1428  141.4038  158.9935 H   0  0  0  0  0  0  0  0  0  0  0  0
  151.9333  138.9787  157.8935 H   0  0  0  0  0  0  0  0  0  0  0  0
  151.0227  139.4524  159.2871 H   0  0  0  0  0  0  0  0  0  0  0  0
  149.4525  138.5054  156.9862 H   0  0  0  0  0  0  0  0  0  0  0  0
  147.6656  137.2083  157.6870 H   0  0  0  0  0  0  0  0  0  0  0  0
  148.6886  135.9077  157.1939 H   0  0  0  0  0  0  0  0  0  0  0  0
  149.0732  133.6244  157.4688 H   0  0  0  0  0  0  0  0  0  0  0  0
  147.4570  133.8893  156.7969 H   0  0  0  0  0  0  0  0  0  0  0  0
  147.7992  132.4369  157.7345 H   0  0  0  0  0  0  0  0  0  0  0  0
  145.8341  133.5926  163.0279 H   0  0  0  0  0  0  0  0  0  0  0  0
  146.8920  132.3296  162.3894 H   0  0  0  0  0  0  0  0  0  0  0  0
  145.2691  132.5528  161.7157 H   0  0  0  0  0  0  0  0  0  0  0  0
  151.0721  143.2105  156.5277 H   0  0  0  0  0  0  0  0  0  0  0  0
  150.3157  143.4527  158.0851 H   0  0  0  0  0  0  0  0  0  0  0  0
  153.2625  143.9223  157.4174 H   0  0  0  0  0  0  0  0  0  0  0  0
  152.0496  145.1529  157.7109 H   0  0  0  0  0  0  0  0  0  0  0  0
  153.9315  142.4898  159.3276 H   0  0  0  0  0  0  0  0  0  0  0  0
  153.1519  142.7798  160.8705 H   0  0  0  0  0  0  0  0  0  0  0  0
  150.9893  141.9926  160.0080 H   0  0  0  0  0  0  0  0  0  0  0  0
  152.2207  140.7748  159.7538 H   0  0  0  0  0  0  0  0  0  0  0  0
  1  2  1  0  0  0  0
  1 26  1  0  0  0  0
  1 27  1  0  0  0  0
  1 28  1  0  0  0  0
  2  3  1  0  0  0  0
  2 29  1  0  0  0  0
  2 30  1  0  0  0  0
  3  4  1  0  0  0  0
  3  5  1  0  0  0  0
  3 19  1  0  0  0  0
  4 31  1  0  0  0  0
  4 32  1  0  0  0  0
  4 33  1  0  0  0  0
  5  6  1  0  0  0  0
  5 34  1  0  0  0  0
  5 35  1  0  0  0  0
  6  7  1  0  0  0  0
  6 36  1  0  0  0  0
  7  8  2  0  0  0  0
  7  9  1  0  0  0  0
  9 37  1  0  0  0  0
  9 38  1  0  0  0  0
  9 10  1  0  0  0  0
 10 17  1  0  0  0  0
 10 11  2  0  0  0  0
 11 12  1  0  0  0  0
 11 13  1  0  0  0  0
 12 39  1  0  0  0  0
 12 40  1  0  0  0  0
 12 41  1  0  0  0  0
 13 25  1  0  0  0  0
 13 14  1  0  0  0  0
 14 15  1  0  0  0  0
 14 16  2  0  0  0  0
 15 42  1  0  0  0  0
 15 43  1  0  0  0  0
 15 44  1  0  0  0  0
 16 17  1  0  0  0  0
 17 18  2  0  0  0  0
 19 24  1  0  0  0  0
 19 20  1  0  0  0  0
 20 21  1  0  0  0  0
 20 45  1  0  0  0  0
 20 46  1  0  0  0  0
 21 22  1  0  0  0  0
 21 47  1  0  0  0  0
 21 48  1  0  0  0  0
 22 23  1  0  0  0  0
 23 24  1  0  0  0  0
 23 49  1  0  0  0  0
 23 50  1  0  0  0  0
 24 51  1  0  0  0  0
 24 52  1  0  0  0  0
M  END
> <s_m_source_file>
AV-unprocessed.smi

> <i_m_source_file_index>
1492

> <i_lp_mmshare_version>
43012

> <i_f3d_flags>
0

> <s_epik_input>
W0NIMl0xW0NIMl1PW0NIMl1bQ0gyXU4xW0NAQF0oW0NIM10pKFtDSDJdW0NIM10pW0NIMl1bTkhdQyg9TylbQ0gyXWMyYyhbQ0gzXSluYyhbQ0gzXSlbbkhdYzI9Tw==

> <s_epik_cmdline>
J2VwaWtfcHl0aG9uJywgJy1waCcsICc3LjAnLCAnLXRuJywgJzgnLCAnLW1hJywgJzIwMCcsICctbWV0YWxfYmluZGluZycsICctaW1hZScsICc8aW5maWxlLm1hZT4nLCAnLW9tYWUnLCAnPG91dGZpbGUubWFlPic=

> <r_lp_tautomer_probability>
0.156392

> <r_epik_Ionization_Penalty>
0.342516

> <r_epik_Ionization_Penalty_Charging>
0.0141408

> <r_epik_Ionization_Penalty_Neutral>
0.328375

> <r_epik_State_Penalty>
1.47662

> <r_epik_Charging_Adjusted_Penalty>
1.49076

> <i_epik_Tot_Q>
0

> <i_epik_Tot_abs_Q>
0

> <r_epik_Metal_State_Penalty>
1.65506

> <b_epik_Metal_Only>
0

> <s_lp_Force_Field>
OPLS_2005

> <r_lp_Energy>
46.8903

> <b_lp_Chiralities_Consistent>
1

> <s_lp_Variant>
AV-unprocessed.smi:1492-5

> <Gold.Version>
5.8.1

> <Gold.Id.Protein>
6NUR|6NUR_protein|mol2

> <Gold.PLP.Fitness>
45.1153

> <Gold.PLP.PLP>
-39.1519

> <Gold.PLP.part.hbond>
-3.0000

> <Gold.PLP.part.metal>
0.0000

> <Gold.PLP.part.buried>
-6.9167

> <Gold.PLP.part.nonpolar>
-30.6239

> <Gold.PLP.part.repulsive>
0.1446

> <Gold.PLP.ligand.clash>
0.0000

> <Gold.PLP.ligand.torsion>
1.1071

> <Gold.PLP.Chemscore.Hbond>
2.6800

> <Gold.PLP.Chemscore.CHOScore>
0.0000

> <Gold.PLP.Chemscore.Metal>
0.0000

> <Gold.Chemscore.Hbonds>
donor molecule, donor type, donor heavy atom, donor atom, acceptor molecule, acceptor atom, score
      P1  H  6896  6909       L1     8  0.91
      P1  H  6931  6943       L1    18  0.45
      P1  H  6934  6947       L1    18  1.00

> <Gold.PLP.Chemscore.Internal.Correction>
0.1376

> <Gold.Rescore>
     Score         DG    S(hbond)    S(metal)    S(lipo)     H(rot)  DE(clash)    DE(int)     intcor
     18.32     -19.34       2.69        0.00      88.01       2.12       0.06       0.96       ----

> <Gold.Chemscore.Fitness>
18.3160

> <Gold.Chemscore.DG>
-19.3407

> <Gold.Chemscore.ZeroCoef>
-5.4800

> <Gold.Chemscore.Hbond>
2.6885

> <Gold.Chemscore.Metal>
0.0000

> <Gold.Chemscore.Lipo>
88.0081

> <Gold.Chemscore.Internal_Hbond>
0.0000

> <Gold.Chemscore.DEClash>
0.0601

> <Gold.Chemscore.DEInternal>
0.9646

> <Gold.Chemscore.Rot>
2.1155

> <Gold.Chemscore.Internal.Correction>
   9.000000E+99

> <Gold.Chemscore.Hbonds>
donor molecule, donor type, donor heavy atom, donor atom, acceptor molecule, acceptor atom, score
      P1  H  6896  6909       L1     8  0.88
      P1  H  6931  6943       L1    18  0.45
      P1  H  6934  6947       L1    18  0.95

> <Gold.Chemscore.Hbond.Weighted>
-8.9795

> <Gold.Chemscore.Metal.Weighted>
-0.0000

> <Gold.Chemscore.Lipo.Weighted>
-10.2969

> <Gold.Chemscore.Internal_Hbond.Weighted>
0.0000

> <Gold.Chemscore.DEClash.Weighted>
0.0601

> <Gold.Chemscore.DEInternal.Weighted>
0.9646

> <Gold.Chemscore.Rot.Weighted>
5.4157

> <Gold.Chemscore.Internal.Correction.Weighted>
   9.000000E+99

> <Gold.Protein.RotatedTorsions>
[ 6907 6896 6895 6894 ] final   90.76 input  -60.11 | X-H torsion
[ 7974 7965 7964 7962 ] final  -59.33 input  175.53 | X-H torsion
[ 8008 7997 7996 7995 ] final  100.44 input   59.86 | X-H torsion
[ 10167 10162 10161 10158 ] final   83.27 input  -65.29 | X-H torsion
[ 10718 10713 10712 10709 ] final   82.62 input   66.30 | X-H torsion
[ 10763 10752 10751 10750 ] final -157.24 input  -60.55 | X-H torsion
[ 11005 11000 10999 10996 ] final  -29.96 input  -57.11 | X-H torsion

> <Gold.Protein.ActiveResidues>
 VAL166  LYS551  ARG553  GLY616  TRP617  ASP618  TYR619  PRO620  LYS621  CYS622 
 ASP623  PHE694  ASN695  SER759  ASP760  ASP761  ALA762  ILE779  LEU786  VAL792 
 PHE793  MET794  SER795  GLU796  ALA797  LYS798  CYS799  TRP800  GLU811  SER814 

> <Gold.Protein.RotatedAtoms>
  152.5446  134.1761  159.8616 H   0  0  0  0  0  0  0  0  0  0  0  0  # atno 6907 bound_to 6896
  151.1767  133.4743  159.2601 H   0  0  0  0  0  0  0  0  0  0  0  0  # atno 6908 bound_to 6896
  151.1220  135.0095  159.8598 H   0  0  0  0  0  0  0  0  0  0  0  0  # atno 6909 bound_to 6896
  145.8287  140.8494  143.0095 H   0  0  0  0  0  0  0  0  0  0  0  0  # atno 7974 bound_to 7965
  156.1203  140.3213  155.8199 H   0  0  0  0  0  0  0  0  0  0  0  0  # atno 8008 bound_to 7997
  155.4516  140.0533  157.3017 H   0  0  0  0  0  0  0  0  0  0  0  0  # atno 8009 bound_to 7997
  154.4823  140.2058  155.9749 H   0  0  0  0  0  0  0  0  0  0  0  0  # atno 8010 bound_to 7997
  139.9202  144.6217  150.8448 H   0  0  0  0  0  0  0  0  0  0  0  0  # atno 10167 bound_to 10162
  157.6861  131.0055  150.2401 H   0  0  0  0  0  0  0  0  0  0  0  0  # atno 10718 bound_to 10713
  154.7651  135.3129  154.8302 H   0  0  0  0  0  0  0  0  0  0  0  0  # atno 10763 bound_to 10752
  153.9053  135.6811  153.4757 H   0  0  0  0  0  0  0  0  0  0  0  0  # atno 10764 bound_to 10752
  153.1256  135.4803  154.9199 H   0  0  0  0  0  0  0  0  0  0  0  0  # atno 10765 bound_to 10752
  140.9342  133.7319  156.0980 H   0  0  0  0  0  0  0  0  0  0  0  0  # atno 11005 bound_to 11000
  144.6741  140.0640  143.7475 LP  0  0  0  0  0  0  0  0  0  0  0  0  # atno 17320 bound_to 7965
  145.9595  139.2790  143.1164 LP  0  0  0  0  0  0  0  0  0  0  0  0  # atno 17321 bound_to 7965
  140.7664  143.3303  151.2426 LP  0  0  0  0  0  0  0  0  0  0  0  0  # atno 17342 bound_to 10162
  139.6868  143.9760  152.2838 LP  0  0  0  0  0  0  0  0  0  0  0  0  # atno 17343 bound_to 10162
  156.3017  130.3759  149.7744 LP  0  0  0  0  0  0  0  0  0  0  0  0  # atno 17370 bound_to 10713
  156.5372  130.8284  151.3257 LP  0  0  0  0  0  0  0  0  0  0  0  0  # atno 17371 bound_to 10713
  140.7822  134.3712  157.5484 LP  0  0  0  0  0  0  0  0  0  0  0  0  # atno 17394 bound_to 11000
  139.8803  134.9089  156.2978 LP  0  0  0  0  0  0  0  0  0  0  0  0  # atno 17395 bound_to 11000

$$$$
