AV-unprocessed.smi:2822|AV-procd|sdf|10867|dock7
  -GOLD-   2272015313D 1   1.00000     0.00000
 Structure written by MMmdl.
 41 43  0  0  0  0  0  0  0  0  3 V2000
  146.5719  131.3143  148.5880 Cl  0  0  0  0  0  0  0  0  0  0  0  0
  145.4562  131.9825  149.7272 C   0  0  0  0  0  0  0  0  0  0  0  0
  144.3494  132.7188  149.2567 C   0  0  0  0  0  0  0  0  0  0  0  0
  143.4684  133.2474  150.1320 N   0  3  0  0  0  0  0  0  0  0  0  0
  143.5932  133.1043  151.4683 C   0  0  0  0  0  0  0  0  0  0  0  0
  144.6787  132.3785  151.9996 C   0  0  0  0  0  0  0  0  0  0  0  0
  145.6324  131.8044  151.1218 C   0  0  0  0  0  0  0  0  0  0  0  0
  146.7382  131.0748  151.5857 N   0  0  0  0  0  0  0  0  0  0  0  0
  146.7594  130.5025  152.9236 C   0  0  0  0  0  0  0  0  0  0  0  0
  146.8754  128.9718  152.8802 C   0  0  1  0  0  0  0  0  0  0  0  0
  147.6925  128.4959  151.6647 C   0  0  0  0  0  0  0  0  0  0  0  0
  147.8492  127.0228  151.6854 N   0  3  1  0  0  0  0  0  0  0  0  0
  148.5988  126.5156  150.5079 C   0  0  0  0  0  0  0  0  0  0  0  0
  148.6617  124.9796  150.5113 C   0  0  0  0  0  0  0  0  0  0  0  0
  149.2714  124.4605  151.8197 C   0  0  0  0  0  0  0  0  0  0  0  0
  148.4967  125.0214  153.0198 C   0  0  0  0  0  0  0  0  0  0  0  0
  148.4326  126.5611  152.9745 C   0  0  2  0  0  0  0  0  0  0  0  0
  147.6150  127.1236  154.1538 C   0  0  0  0  0  0  0  0  0  0  0  0
  147.5428  128.5408  154.0616 O   0  0  0  0  0  0  0  0  0  0  0  0
  144.1440  132.8997  148.2117 H   0  0  0  0  0  0  0  0  0  0  0  0
  142.8267  133.5721  152.0689 H   0  0  0  0  0  0  0  0  0  0  0  0
  144.7617  132.2772  153.0715 H   0  0  0  0  0  0  0  0  0  0  0  0
  147.4388  130.7737  150.9224 H   0  0  0  0  0  0  0  0  0  0  0  0
  147.6147  130.9134  153.4616 H   0  0  0  0  0  0  0  0  0  0  0  0
  145.8603  130.7968  153.4664 H   0  0  0  0  0  0  0  0  0  0  0  0
  145.8746  128.5367  152.8390 H   0  0  0  0  0  0  0  0  0  0  0  0
  147.1936  128.7945  150.7417 H   0  0  0  0  0  0  0  0  0  0  0  0
  148.6766  128.9675  151.6640 H   0  0  0  0  0  0  0  0  0  0  0  0
  148.1164  126.8587  149.5919 H   0  0  0  0  0  0  0  0  0  0  0  0
  149.6077  126.9310  150.5102 H   0  0  0  0  0  0  0  0  0  0  0  0
  147.6583  124.5703  150.3857 H   0  0  0  0  0  0  0  0  0  0  0  0
  149.2483  124.6283  149.6618 H   0  0  0  0  0  0  0  0  0  0  0  0
  149.2560  123.3703  151.8370 H   0  0  0  0  0  0  0  0  0  0  0  0
  150.3186  124.7594  151.8832 H   0  0  0  0  0  0  0  0  0  0  0  0
  147.4869  124.6085  153.0247 H   0  0  0  0  0  0  0  0  0  0  0  0
  148.9684  124.6932  153.9469 H   0  0  0  0  0  0  0  0  0  0  0  0
  149.4484  126.9545  153.0449 H   0  0  0  0  0  0  0  0  0  0  0  0
  146.6096  126.6993  154.1750 H   0  0  0  0  0  0  0  0  0  0  0  0
  148.0896  126.8604  155.0995 H   0  0  0  0  0  0  0  0  0  0  0  0
  146.9202  126.6300  151.6300 H   0  0  0  0  0  0  0  0  0  0  0  0
  142.6755  133.7769  149.7683 H   0  0  0  0  0  0  0  0  0  0  0  0
  1  2  1  0  0  0  0
  2  7  1  0  0  0  0
  2  3  2  0  0  0  0
  3  4  1  0  0  0  0
  3 20  1  0  0  0  0
  4  5  2  0  0  0  0
  4 41  1  0  0  0  0
  5  6  1  0  0  0  0
  5 21  1  0  0  0  0
  6  7  2  0  0  0  0
  6 22  1  0  0  0  0
  7  8  1  0  0  0  0
  8  9  1  0  0  0  0
  8 23  1  0  0  0  0
  9 10  1  0  0  0  0
  9 24  1  0  0  0  0
  9 25  1  0  0  0  0
 10 19  1  0  0  0  0
 10 11  1  0  0  0  0
 10 26  1  0  0  0  0
 11 12  1  0  0  0  0
 11 27  1  0  0  0  0
 11 28  1  0  0  0  0
 12 17  1  0  0  0  0
 12 13  1  0  0  0  0
 12 40  1  0  0  0  0
 13 14  1  0  0  0  0
 13 29  1  0  0  0  0
 13 30  1  0  0  0  0
 14 15  1  0  0  0  0
 14 31  1  0  0  0  0
 14 32  1  0  0  0  0
 15 16  1  0  0  0  0
 15 33  1  0  0  0  0
 15 34  1  0  0  0  0
 16 17  1  0  0  0  0
 16 35  1  0  0  0  0
 16 36  1  0  0  0  0
 17 18  1  0  0  0  0
 17 37  1  0  0  0  0
 18 19  1  0  0  0  0
 18 38  1  0  0  0  0
 18 39  1  0  0  0  0
M  CHG  1   4   1
M  CHG  1  12   1
M  END
> <s_m_source_file>
AV-unprocessed.smi

> <i_m_source_file_index>
2822

> <i_lp_mmshare_version>
43012

> <i_f3d_flags>
0

> <s_epik_input>
Q2xjMVtjSF1uW2NIXVtjSF1jMVtOSF1bQ0gyXVtDQEhdKFtDSDJdMilPW0NIMl1bQ0BASF0oTjIzKVtDSDJdW0NIMl1bQ0gyXVtDSDJdMw==

> <s_epik_cmdline>
J2VwaWtfcHl0aG9uJywgJy1waCcsICc3LjAnLCAnLXRuJywgJzgnLCAnLW1hJywgJzIwMCcsICctbWV0YWxfYmluZGluZycsICctaW1hZScsICc8aW5maWxlLm1hZT4nLCAnLW9tYWUnLCAnPG91dGZpbGUubWFlPic=

> <r_lp_tautomer_probability>
1

> <r_epik_Ionization_Penalty>
0.254999

> <r_epik_Ionization_Penalty_Charging>
0.254956

> <r_epik_Ionization_Penalty_Neutral>
4.33524e-05

> <r_epik_State_Penalty>
0.230978

> <r_epik_Charging_Adjusted_Penalty>
0.485934

> <i_epik_Tot_Q>
2

> <i_epik_Tot_abs_Q>
2

> <r_epik_Metal_State_Penalty>
3.47007

> <b_epik_Metal_Only>
0

> <s_lp_Force_Field>
OPLS_2005

> <r_lp_Energy>
36.8988

> <b_lp_Chiralities_Consistent>
1

> <s_lp_Variant>
AV-unprocessed.smi:2822-8

> <Gold.Version>
5.8.1

> <Gold.Id.Protein>
6NUR|6NUR_protein|mol2

> <Gold.PLP.Fitness>
43.3204

> <Gold.PLP.PLP>
-35.2025

> <Gold.PLP.part.hbond>
-2.0000

> <Gold.PLP.part.metal>
0.0000

> <Gold.PLP.part.buried>
-2.4228

> <Gold.PLP.part.nonpolar>
-30.2407

> <Gold.PLP.part.repulsive>
0.2023

> <Gold.PLP.ligand.clash>
0.0000

> <Gold.PLP.ligand.torsion>
0.4293

> <Gold.PLP.Chemscore.Hbond>
2.9920

> <Gold.PLP.Chemscore.CHOScore>
0.0000

> <Gold.PLP.Chemscore.Metal>
0.0000

> <Gold.Chemscore.Hbonds>
donor molecule, donor type, donor heavy atom, donor atom, acceptor molecule, acceptor atom, score
      L1  H     4    41       P1 10186  2.00
      L1  H     8    23       P1 10747  1.00

> <Gold.PLP.Chemscore.Internal.Correction>
0.0005

> <Gold.Rescore>
     Score         DG    S(hbond)    S(metal)    S(lipo)     H(rot)  DE(clash)    DE(int)     intcor
     20.66     -21.91       1.97        0.00     110.30       1.20       0.84       0.41       ----

> <Gold.Chemscore.Fitness>
20.6623

> <Gold.Chemscore.DG>
-21.9135

> <Gold.Chemscore.ZeroCoef>
-5.4800

> <Gold.Chemscore.Hbond>
1.9733

> <Gold.Chemscore.Metal>
0.0000

> <Gold.Chemscore.Lipo>
110.2985

> <Gold.Chemscore.Internal_Hbond>
0.0000

> <Gold.Chemscore.DEClash>
0.8396

> <Gold.Chemscore.DEInternal>
0.4116

> <Gold.Chemscore.Rot>
1.1962

> <Gold.Chemscore.Internal.Correction>
   9.000000E+99

> <Gold.Chemscore.Hbonds>
donor molecule, donor type, donor heavy atom, donor atom, acceptor molecule, acceptor atom, score
      L1  H     4    41       P1 10186  1.00
      L1  H     8    23       P1 10747  0.96

> <Gold.Chemscore.Hbond.Weighted>
-6.5908

> <Gold.Chemscore.Metal.Weighted>
-0.0000

> <Gold.Chemscore.Lipo.Weighted>
-12.9049

> <Gold.Chemscore.Internal_Hbond.Weighted>
0.0000

> <Gold.Chemscore.DEClash.Weighted>
0.8396

> <Gold.Chemscore.DEInternal.Weighted>
0.4116

> <Gold.Chemscore.Rot.Weighted>
3.0623

> <Gold.Chemscore.Internal.Correction.Weighted>
   9.000000E+99

> <Gold.Protein.RotatedTorsions>
[ 6907 6896 6895 6894 ] final  173.85 input  -60.11 | X-H torsion
[ 7974 7965 7964 7962 ] final  -75.98 input  175.53 | X-H torsion
[ 8008 7997 7996 7995 ] final  -94.77 input   59.86 | X-H torsion
[ 10167 10162 10161 10158 ] final  128.08 input  -65.29 | X-H torsion
[ 10718 10713 10712 10709 ] final  -76.62 input   66.30 | X-H torsion
[ 10763 10752 10751 10750 ] final   83.78 input  -60.55 | X-H torsion
[ 11005 11000 10999 10996 ] final   98.63 input  -57.11 | X-H torsion

> <Gold.Protein.ActiveResidues>
 VAL166  LYS551  ARG553  GLY616  TRP617  ASP618  TYR619  PRO620  LYS621  CYS622 
 ASP623  PHE694  ASN695  SER759  ASP760  ASP761  ALA762  ILE779  LEU786  VAL792 
 PHE793  MET794  SER795  GLU796  ALA797  LYS798  CYS799  TRP800  GLU811  SER814 

> <Gold.Protein.RotatedAtoms>
  151.7617  133.3334  159.3419 H   0  0  0  0  0  0  0  0  0  0  0  0  # atno 6907 bound_to 6896
  150.7495  134.6099  159.6090 H   0  0  0  0  0  0  0  0  0  0  0  0  # atno 6908 bound_to 6896
  152.3401  134.7148  160.0317 H   0  0  0  0  0  0  0  0  0  0  0  0  # atno 6909 bound_to 6896
  145.6189  140.9368  143.1149 H   0  0  0  0  0  0  0  0  0  0  0  0  # atno 7974 bound_to 7965
  154.7527  140.0486  157.0907 H   0  0  0  0  0  0  0  0  0  0  0  0  # atno 8008 bound_to 7997
  155.0037  140.3127  155.4838 H   0  0  0  0  0  0  0  0  0  0  0  0  # atno 8009 bound_to 7997
  156.2888  140.2197  156.5148 H   0  0  0  0  0  0  0  0  0  0  0  0  # atno 8010 bound_to 7997
  139.5545  144.6838  151.4223 H   0  0  0  0  0  0  0  0  0  0  0  0  # atno 10167 bound_to 10162
  156.0169  130.4470  150.3221 H   0  0  0  0  0  0  0  0  0  0  0  0  # atno 10718 bound_to 10713
  153.1322  135.4678  154.9367 H   0  0  0  0  0  0  0  0  0  0  0  0  # atno 10763 bound_to 10752
  154.7674  135.3149  154.8260 H   0  0  0  0  0  0  0  0  0  0  0  0  # atno 10764 bound_to 10752
  153.8800  135.6895  153.4821 H   0  0  0  0  0  0  0  0  0  0  0  0  # atno 10765 bound_to 10752
  139.8772  134.9058  156.4485 H   0  0  0  0  0  0  0  0  0  0  0  0  # atno 11005 bound_to 11000
  144.7239  139.7939  143.7372 LP  0  0  0  0  0  0  0  0  0  0  0  0  # atno 17320 bound_to 7965
  146.1446  139.4512  143.0087 LP  0  0  0  0  0  0  0  0  0  0  0  0  # atno 17321 bound_to 7965
  140.6815  143.8071  150.7128 LP  0  0  0  0  0  0  0  0  0  0  0  0  # atno 17342 bound_to 10162
  140.1525  143.4345  152.2121 LP  0  0  0  0  0  0  0  0  0  0  0  0  # atno 17343 bound_to 10162
  157.1321  131.0274  151.2965 LP  0  0  0  0  0  0  0  0  0  0  0  0  # atno 17370 bound_to 10713
  157.4542  130.7616  149.7178 LP  0  0  0  0  0  0  0  0  0  0  0  0  # atno 17371 bound_to 10713
  140.8949  133.7821  155.9613 LP  0  0  0  0  0  0  0  0  0  0  0  0  # atno 17394 bound_to 11000
  140.8714  134.2722  157.5189 LP  0  0  0  0  0  0  0  0  0  0  0  0  # atno 17395 bound_to 11000

$$$$
