AV-unprocessed.smi:1046|AV-procd|sdf|4555|dock4
  -GOLD-   22720 2593D 1   1.00000     0.00000
 Structure written by MMmdl.
 54 56  0  0  0  0  0  0  0  0  3 V2000
  152.5315  143.0998  161.4658 C   0  0  0  0  0  0  0  0  0  0  0  0
  152.0089  142.7014  160.0968 C   0  0  0  0  0  0  0  0  0  0  0  0
  152.0160  141.3370  159.7293 C   0  0  0  0  0  0  0  0  0  0  0  0
  151.5443  140.9254  158.4638 C   0  0  0  0  0  0  0  0  0  0  0  0
  151.4617  139.6630  157.9020 N   0  0  0  0  0  0  0  0  0  0  0  0
  150.9443  139.9333  156.7077 C   0  0  0  0  0  0  0  0  0  0  0  0
  150.6649  141.2228  156.4347 N   0  0  0  0  0  0  0  0  0  0  0  0
  150.0886  141.7549  155.2135 C   0  0  0  0  0  0  0  0  0  0  0  0
  149.1938  140.7313  154.4865 C   0  0  1  0  0  0  0  0  0  0  0  0
  150.0377  139.7915  153.8534 O   0  0  0  0  0  0  0  0  0  0  0  0
  148.2302  139.9778  155.4305 C   0  0  0  0  0  0  0  0  0  0  0  0
  147.3257  139.0481  154.7064 N   0  3  2  0  0  0  0  0  0  0  0  0
  147.0868  139.4331  153.2917 C   0  0  0  0  0  0  0  0  0  0  0  0
  146.2104  138.3912  152.5742 C   0  0  0  0  0  0  0  0  0  0  0  0
  144.9273  138.1822  153.2891 N   0  3  1  0  0  0  0  0  0  0  0  0
  144.0227  137.2523  152.5648 C   0  0  0  0  0  0  0  0  0  0  0  0
  142.5880  137.2663  153.1204 C   0  0  0  0  0  0  0  0  0  0  0  0
  141.9740  138.5069  152.8414 O   0  0  0  0  0  0  0  0  0  0  0  0
  145.1645  137.7999  154.7044 C   0  0  0  0  0  0  0  0  0  0  0  0
  146.0426  138.8408  155.4216 C   0  0  0  0  0  0  0  0  0  0  0  0
  151.0573  141.9236  157.5702 C   0  0  0  0  0  0  0  0  0  0  0  0
  151.0443  143.2843  157.9244 C   0  0  0  0  0  0  0  0  0  0  0  0
  151.5216  143.6785  159.1919 C   0  0  0  0  0  0  0  0  0  0  0  0
  151.5082  145.1508  159.5637 C   0  0  0  0  0  0  0  0  0  0  0  0
  152.9024  142.2356  162.0177 H   0  0  0  0  0  0  0  0  0  0  0  0
  151.7399  143.5602  162.0573 H   0  0  0  0  0  0  0  0  0  0  0  0
  153.3521  143.8111  161.3702 H   0  0  0  0  0  0  0  0  0  0  0  0
  152.3885  140.5931  160.4181 H   0  0  0  0  0  0  0  0  0  0  0  0
  150.7473  139.1469  155.9937 H   0  0  0  0  0  0  0  0  0  0  0  0
  149.5165  142.6479  155.4691 H   0  0  0  0  0  0  0  0  0  0  0  0
  150.9007  142.0800  154.5611 H   0  0  0  0  0  0  0  0  0  0  0  0
  148.6355  141.2547  153.7115 H   0  0  0  0  0  0  0  0  0  0  0  0
  149.7195  139.6432  152.9751 H   0  0  0  0  0  0  0  0  0  0  0  0
  148.8275  139.4203  156.1538 H   0  0  0  0  0  0  0  0  0  0  0  0
  147.6228  140.6730  156.0115 H   0  0  0  0  0  0  0  0  0  0  0  0
  146.6058  140.4119  153.2563 H   0  0  0  0  0  0  0  0  0  0  0  0
  148.0307  139.5276  152.7563 H   0  0  0  0  0  0  0  0  0  0  0  0
  146.0140  138.7282  151.5555 H   0  0  0  0  0  0  0  0  0  0  0  0
  146.7433  137.4419  152.4973 H   0  0  0  0  0  0  0  0  0  0  0  0
  143.9816  137.5265  151.5093 H   0  0  0  0  0  0  0  0  0  0  0  0
  144.4331  136.2421  152.6005 H   0  0  0  0  0  0  0  0  0  0  0  0
  142.0015  136.4807  152.6432 H   0  0  0  0  0  0  0  0  0  0  0  0
  142.5577  137.0722  154.1920 H   0  0  0  0  0  0  0  0  0  0  0  0
  142.6372  139.1122  152.5432 H   0  0  0  0  0  0  0  0  0  0  0  0
  144.2187  137.7080  155.2372 H   0  0  0  0  0  0  0  0  0  0  0  0
  145.6442  136.8202  154.7419 H   0  0  0  0  0  0  0  0  0  0  0  0
  146.2383  138.5042  156.4404 H   0  0  0  0  0  0  0  0  0  0  0  0
  145.5115  139.7913  155.4976 H   0  0  0  0  0  0  0  0  0  0  0  0
  150.6751  144.0195  157.2250 H   0  0  0  0  0  0  0  0  0  0  0  0
  151.0657  145.7572  158.7730 H   0  0  0  0  0  0  0  0  0  0  0  0
  152.5236  145.5105  159.7325 H   0  0  0  0  0  0  0  0  0  0  0  0
  150.9282  145.3117  160.4727 H   0  0  0  0  0  0  0  0  0  0  0  0
  147.7951  138.1531  154.6987 H   0  0  0  0  0  0  0  0  0  0  0  0
  144.4574  139.0770  153.2961 H   0  0  0  0  0  0  0  0  0  0  0  0
  1  2  1  0  0  0  0
  1 25  1  0  0  0  0
  1 26  1  0  0  0  0
  1 27  1  0  0  0  0
  2 23  1  0  0  0  0
  2  3  2  0  0  0  0
  3  4  1  0  0  0  0
  3 28  1  0  0  0  0
  4 21  2  0  0  0  0
  4  5  1  0  0  0  0
  5  6  2  0  0  0  0
  6  7  1  0  0  0  0
  6 29  1  0  0  0  0
  7  8  1  0  0  0  0
  7 21  1  0  0  0  0
  8  9  1  0  0  0  0
  8 30  1  0  0  0  0
  8 31  1  0  0  0  0
  9 10  1  0  0  0  0
  9 11  1  0  0  0  0
  9 32  1  0  0  0  0
 10 33  1  0  0  0  0
 11 12  1  0  0  0  0
 11 34  1  0  0  0  0
 11 35  1  0  0  0  0
 12 20  1  0  0  0  0
 12 13  1  0  0  0  0
 12 53  1  0  0  0  0
 13 14  1  0  0  0  0
 13 36  1  0  0  0  0
 13 37  1  0  0  0  0
 14 15  1  0  0  0  0
 14 38  1  0  0  0  0
 14 39  1  0  0  0  0
 15 16  1  0  0  0  0
 15 19  1  0  0  0  0
 15 54  1  0  0  0  0
 16 17  1  0  0  0  0
 16 40  1  0  0  0  0
 16 41  1  0  0  0  0
 17 18  1  0  0  0  0
 17 42  1  0  0  0  0
 17 43  1  0  0  0  0
 18 44  1  0  0  0  0
 19 20  1  0  0  0  0
 19 45  1  0  0  0  0
 19 46  1  0  0  0  0
 20 47  1  0  0  0  0
 20 48  1  0  0  0  0
 21 22  1  0  0  0  0
 22 23  2  0  0  0  0
 22 49  1  0  0  0  0
 23 24  1  0  0  0  0
 24 50  1  0  0  0  0
 24 51  1  0  0  0  0
 24 52  1  0  0  0  0
M  CHG  1  12   1
M  CHG  1  15   1
M  END
> <s_m_source_file>
AV-unprocessed.smi

> <i_m_source_file_index>
1046

> <i_lp_mmshare_version>
43012

> <i_f3d_flags>
0

> <s_epik_input>
W0NIM11jKFtjSF0xKWMoW0NIM10pW2NIXWMoYzEyKW4oW2NIXW4yKVtDSDJdW0NASF0oW09IXSlbQ0gyXU4zW0NIMl1bQ0gyXU4oW0NIMl1bQ0gyXTMpW0NIMl1bQ0gyXVtPSF0=

> <s_epik_cmdline>
J2VwaWtfcHl0aG9uJywgJy1waCcsICc3LjAnLCAnLXRuJywgJzgnLCAnLW1hJywgJzIwMCcsICctbWV0YWxfYmluZGluZycsICctaW1hZScsICc8aW5maWxlLm1hZT4nLCAnLW9tYWUnLCAnPG91dGZpbGUubWFlPic=

> <r_epik_Ionization_Penalty>
3.17398

> <r_epik_Ionization_Penalty_Charging>
3.09061

> <r_epik_Ionization_Penalty_Neutral>
0.0833726

> <r_epik_State_Penalty>
2.17606

> <r_epik_Charging_Adjusted_Penalty>
5.26667

> <i_epik_Tot_Q>
2

> <i_epik_Tot_abs_Q>
2

> <r_epik_Metal_State_Penalty>
2.08587

> <b_epik_Metal_Only>
0

> <s_lp_Force_Field>
OPLS_2005

> <r_lp_Energy>
27.7872

> <b_lp_Chiralities_Consistent>
1

> <s_lp_Variant>
AV-unprocessed.smi:1046-8

> <Gold.Version>
5.8.1

> <Gold.Id.Protein>
6NUR|6NUR_protein|mol2

> <Gold.PLP.Fitness>
58.9410

> <Gold.PLP.PLP>
-46.1065

> <Gold.PLP.part.hbond>
-4.0000

> <Gold.PLP.part.metal>
0.0000

> <Gold.PLP.part.buried>
-4.3554

> <Gold.PLP.part.nonpolar>
-38.0593

> <Gold.PLP.part.repulsive>
0.0000

> <Gold.PLP.ligand.clash>
0.1341

> <Gold.PLP.ligand.torsion>
0.9441

> <Gold.PLP.Chemscore.Hbond>
4.9120

> <Gold.PLP.Chemscore.CHOScore>
0.0000

> <Gold.PLP.Chemscore.Metal>
0.0000

> <Gold.Chemscore.Hbonds>
donor molecule, donor type, donor heavy atom, donor atom, acceptor molecule, acceptor atom, score
      L1  H    10    33       P1  7957  1.00
      L1  H    15    54       P1 10175  2.00
      L1  H    18    44       P1 10175  1.00
      P1  H  7989  7998       L1    10  0.91

> <Gold.PLP.Chemscore.Internal.Correction>
0.1207

> <Gold.Rescore>
     Score         DG    S(hbond)    S(metal)    S(lipo)     H(rot)  DE(clash)    DE(int)     intcor
     17.03     -22.03       3.02        0.00     126.95       3.28       2.14       2.86       ----

> <Gold.Chemscore.Fitness>
17.0297

> <Gold.Chemscore.DG>
-22.0304

> <Gold.Chemscore.ZeroCoef>
-5.4800

> <Gold.Chemscore.Hbond>
3.0244

> <Gold.Chemscore.Metal>
0.0000

> <Gold.Chemscore.Lipo>
126.9467

> <Gold.Chemscore.Internal_Hbond>
0.0000

> <Gold.Chemscore.DEClash>
2.1441

> <Gold.Chemscore.DEInternal>
2.8565

> <Gold.Chemscore.Rot>
3.2828

> <Gold.Chemscore.Internal.Correction>
   9.000000E+99

> <Gold.Chemscore.Hbonds>
donor molecule, donor type, donor heavy atom, donor atom, acceptor molecule, acceptor atom, score
      L1  H    10    33       P1  7957  0.97
      L1  H    15    54       P1 10175  0.96
      L1  H    18    44       P1 10175  0.98
      P1  H  7989  7998       L1    10  0.08

> <Gold.Chemscore.Hbond.Weighted>
-10.1015

> <Gold.Chemscore.Metal.Weighted>
-0.0000

> <Gold.Chemscore.Lipo.Weighted>
-14.8528

> <Gold.Chemscore.Internal_Hbond.Weighted>
0.0000

> <Gold.Chemscore.DEClash.Weighted>
2.1441

> <Gold.Chemscore.DEInternal.Weighted>
2.8565

> <Gold.Chemscore.Rot.Weighted>
8.4039

> <Gold.Chemscore.Internal.Correction.Weighted>
   9.000000E+99

> <Gold.Protein.RotatedTorsions>
[ 6907 6896 6895 6894 ] final  149.71 input  -60.11 | X-H torsion
[ 7974 7965 7964 7962 ] final  162.30 input  175.53 | X-H torsion
[ 8008 7997 7996 7995 ] final  -59.01 input   59.86 | X-H torsion
[ 10167 10162 10161 10158 ] final   42.25 input  -65.29 | X-H torsion
[ 10718 10713 10712 10709 ] final -142.75 input   66.30 | X-H torsion
[ 10763 10752 10751 10750 ] final   41.84 input  -60.55 | X-H torsion
[ 11005 11000 10999 10996 ] final -138.35 input  -57.11 | X-H torsion

> <Gold.Protein.ActiveResidues>
 VAL166  LYS551  ARG553  GLY616  TRP617  ASP618  TYR619  PRO620  LYS621  CYS622 
 ASP623  PHE694  ASN695  SER759  ASP760  ASP761  ALA762  ILE779  LEU786  VAL792 
 PHE793  MET794  SER795  GLU796  ALA797  LYS798  CYS799  TRP800  GLU811  SER814 

> <Gold.Protein.RotatedAtoms>
  152.1243  133.4371  159.4690 H   0  0  0  0  0  0  0  0  0  0  0  0  # atno 6907 bound_to 6896
  150.6874  134.2497  159.4515 H   0  0  0  0  0  0  0  0  0  0  0  0  # atno 6908 bound_to 6896
  152.0376  134.9730  160.0624 H   0  0  0  0  0  0  0  0  0  0  0  0  # atno 6909 bound_to 6896
  144.7643  139.8020  143.6321 H   0  0  0  0  0  0  0  0  0  0  0  0  # atno 7974 bound_to 7965
  154.4333  140.1071  156.6047 H   0  0  0  0  0  0  0  0  0  0  0  0  # atno 8008 bound_to 7997
  155.5873  140.3491  155.4538 H   0  0  0  0  0  0  0  0  0  0  0  0  # atno 8009 bound_to 7997
  156.0273  140.1253  157.0284 H   0  0  0  0  0  0  0  0  0  0  0  0  # atno 8010 bound_to 7997
  140.3562  144.2287  150.6141 H   0  0  0  0  0  0  0  0  0  0  0  0  # atno 10167 bound_to 10162
  156.3496  130.7681  151.1832 H   0  0  0  0  0  0  0  0  0  0  0  0  # atno 10718 bound_to 10713
  152.9898  135.6150  154.2852 H   0  0  0  0  0  0  0  0  0  0  0  0  # atno 10763 bound_to 10752
  154.2579  135.2783  155.2791 H   0  0  0  0  0  0  0  0  0  0  0  0  # atno 10764 bound_to 10752
  154.5231  135.5809  153.6754 H   0  0  0  0  0  0  0  0  0  0  0  0  # atno 10765 bound_to 10752
  140.8624  134.2152  157.4699 H   0  0  0  0  0  0  0  0  0  0  0  0  # atno 11005 bound_to 11000
  146.1737  139.4898  142.9911 LP  0  0  0  0  0  0  0  0  0  0  0  0  # atno 17320 bound_to 7965
  145.6518  141.0261  143.1756 LP  0  0  0  0  0  0  0  0  0  0  0  0  # atno 17321 bound_to 7965
  140.5171  143.2275  151.8446 LP  0  0  0  0  0  0  0  0  0  0  0  0  # atno 17342 bound_to 10162
  139.4820  144.4881  151.9221 LP  0  0  0  0  0  0  0  0  0  0  0  0  # atno 17343 bound_to 10162
  157.7459  131.0431  150.4728 LP  0  0  0  0  0  0  0  0  0  0  0  0  # atno 17370 bound_to 10713
  156.4921  130.4097  149.6401 LP  0  0  0  0  0  0  0  0  0  0  0  0  # atno 17371 bound_to 10713
  139.8707  134.9736  156.4814 LP  0  0  0  0  0  0  0  0  0  0  0  0  # atno 17394 bound_to 11000
  140.8667  133.8019  155.9322 LP  0  0  0  0  0  0  0  0  0  0  0  0  # atno 17395 bound_to 11000

$$$$
