AV-unprocessed.smi:367|AV-procd|sdf|2433|dock4
  -GOLD-   2262022373D 1   1.00000     0.00000
 Structure written by MMmdl.
 21 21  0  0  0  0  0  0  0  0  3 V2000
  151.0754  143.7360  158.5363 C   0  0  0  0  0  0  0  0  0  0  0  0
  151.2196  142.3419  157.9644 C   0  0  0  0  0  0  0  0  0  0  0  0
  151.6865  141.4084  158.7024 N   0  0  0  0  0  0  0  0  0  0  0  0
  151.8277  140.1139  158.1732 C   0  0  0  0  0  0  0  0  0  0  0  0
  152.4062  139.0726  159.1152 C   0  0  0  0  0  0  0  0  0  0  0  0
  151.4690  139.8327  156.8875 C   0  0  0  0  0  0  0  0  0  0  0  0
  151.6256  138.4446  156.2590 C   0  0  0  0  0  0  0  0  0  0  0  0
  152.4349  138.4059  154.9570 C   0  0  0  0  0  0  0  0  0  0  0  0
  152.1942  137.4549  154.1811 O   0  0  0  0  0  0  0  0  0  0  0  0
  153.2761  139.3084  154.7485 O   0  5  0  0  0  0  0  0  0  0  0  0
  150.9262  140.9358  156.0733 C   0  0  0  0  0  0  0  0  0  0  0  0
  150.5752  140.7373  154.9107 O   0  0  0  0  0  0  0  0  0  0  0  0
  150.8327  142.1666  156.6550 N   0  5  0  0  0  0  0  0  0  0  0  0
  151.3377  143.7564  159.5949 H   0  0  0  0  0  0  0  0  0  0  0  0
  150.0474  144.0842  158.4326 H   0  0  0  0  0  0  0  0  0  0  0  0
  151.7307  144.4291  158.0080 H   0  0  0  0  0  0  0  0  0  0  0  0
  153.3665  138.7141  158.7444 H   0  0  0  0  0  0  0  0  0  0  0  0
  151.7304  138.2225  159.2094 H   0  0  0  0  0  0  0  0  0  0  0  0
  152.5632  139.4853  160.1123 H   0  0  0  0  0  0  0  0  0  0  0  0
  152.0720  137.7443  156.9652 H   0  0  0  0  0  0  0  0  0  0  0  0
  150.6335  138.0423  156.0538 H   0  0  0  0  0  0  0  0  0  0  0  0
  1  2  1  0  0  0  0
  1 14  1  0  0  0  0
  1 15  1  0  0  0  0
  1 16  1  0  0  0  0
  2 13  1  0  0  0  0
  2  3  2  0  0  0  0
  3  4  1  0  0  0  0
  4  5  1  0  0  0  0
  4  6  2  0  0  0  0
  5 17  1  0  0  0  0
  5 18  1  0  0  0  0
  5 19  1  0  0  0  0
  6  7  1  0  0  0  0
  6 11  1  0  0  0  0
  7  8  1  0  0  0  0
  7 20  1  0  0  0  0
  7 21  1  0  0  0  0
  8  9  2  0  0  0  0
  8 10  1  0  0  0  0
 11 12  2  0  0  0  0
 11 13  1  0  0  0  0
M  CHG  1  10  -1
M  CHG  1  13  -1
M  END
> <s_m_source_file>
AV-unprocessed.smi

> <i_m_source_file_index>
367

> <i_lp_mmshare_version>
43012

> <i_f3d_flags>
0

> <s_epik_input>
W0NIM11jMW5jKFtDSDNdKWMoYyg9TylbbkhdMSlbQ0gyXUMoPU8pW09IXQ==

> <s_epik_cmdline>
J2VwaWtfcHl0aG9uJywgJy1waCcsICc3LjAnLCAnLXRuJywgJzgnLCAnLW1hJywgJzIwMCcsICctbWV0YWxfYmluZGluZycsICctaW1hZScsICc8aW5maWxlLm1hZT4nLCAnLW9tYWUnLCAnPG91dGZpbGUubWFlPic=

> <r_lp_tautomer_probability>
0.839158

> <r_epik_Ionization_Penalty>
8.1762

> <r_epik_Ionization_Penalty_Charging>
0.00175347

> <r_epik_Ionization_Penalty_Neutral>
8.17445

> <r_epik_State_Penalty>
5.46366

> <r_epik_Charging_Adjusted_Penalty>
5.46542

> <i_epik_Tot_Q>
-2

> <i_epik_Tot_abs_Q>
2

> <r_epik_Metal_State_Penalty>
1.48615

> <b_epik_Metal_Only>
1

> <s_lp_Force_Field>
OPLS_2005

> <r_lp_Energy>
12.8552

> <b_lp_Chiralities_Consistent>
1

> <s_lp_Variant>
AV-unprocessed.smi:367-3

> <Gold.Version>
5.8.1

> <Gold.Id.Protein>
6NUR|6NUR_protein|mol2

> <Gold.PLP.Fitness>
35.2025

> <Gold.PLP.PLP>
-22.1386

> <Gold.PLP.part.hbond>
-3.8649

> <Gold.PLP.part.metal>
0.0000

> <Gold.PLP.part.buried>
-5.1237

> <Gold.PLP.part.nonpolar>
-14.6465

> <Gold.PLP.part.repulsive>
0.3660

> <Gold.PLP.ligand.clash>
0.0000

> <Gold.PLP.ligand.torsion>
0.3804

> <Gold.PLP.Chemscore.Hbond>
4.6080

> <Gold.PLP.Chemscore.CHOScore>
0.0000

> <Gold.PLP.Chemscore.Metal>
0.0000

> <Gold.Chemscore.Hbonds>
donor molecule, donor type, donor heavy atom, donor atom, acceptor molecule, acceptor atom, score
      P1  H  7989  7998       L1    12  0.88
      P1  H  7997  8008       L1    10  2.00
      P1  H 10752 10764       L1     9  1.66

> <Gold.PLP.Chemscore.Internal.Correction>
0.0007

> <Gold.Rescore>
     Score         DG    S(hbond)    S(metal)    S(lipo)     H(rot)  DE(clash)    DE(int)     intcor
     14.07     -14.50       2.77        0.00      31.40       1.53       0.06       0.37       ----

> <Gold.Chemscore.Fitness>
14.0713

> <Gold.Chemscore.DG>
-14.4973

> <Gold.Chemscore.ZeroCoef>
-5.4800

> <Gold.Chemscore.Hbond>
2.7710

> <Gold.Chemscore.Metal>
0.0000

> <Gold.Chemscore.Lipo>
31.3959

> <Gold.Chemscore.Internal_Hbond>
0.0000

> <Gold.Chemscore.DEClash>
0.0580

> <Gold.Chemscore.DEInternal>
0.3680

> <Gold.Chemscore.Rot>
1.5278

> <Gold.Chemscore.Internal.Correction>
   9.000000E+99

> <Gold.Chemscore.Hbonds>
donor molecule, donor type, donor heavy atom, donor atom, acceptor molecule, acceptor atom, score
      P1  H  7989  7998       L1    12  0.86
      P1  H  7997  8008       L1    10  1.00
      P1  H 10752 10764       L1     9  0.83

> <Gold.Chemscore.Hbond.Weighted>
-9.2551

> <Gold.Chemscore.Metal.Weighted>
-0.0000

> <Gold.Chemscore.Lipo.Weighted>
-3.6733

> <Gold.Chemscore.Internal_Hbond.Weighted>
0.0000

> <Gold.Chemscore.DEClash.Weighted>
0.0580

> <Gold.Chemscore.DEInternal.Weighted>
0.3680

> <Gold.Chemscore.Rot.Weighted>
3.9111

> <Gold.Chemscore.Internal.Correction.Weighted>
   9.000000E+99

> <Gold.Protein.RotatedTorsions>
[ 6907 6896 6895 6894 ] final  -76.27 input  -60.11 | X-H torsion
[ 7974 7965 7964 7962 ] final -154.01 input  175.53 | X-H torsion
[ 8008 7997 7996 7995 ] final  -11.66 input   59.86 | X-H torsion
[ 10167 10162 10161 10158 ] final -154.75 input  -65.29 | X-H torsion
[ 10718 10713 10712 10709 ] final  115.46 input   66.30 | X-H torsion
[ 10763 10752 10751 10750 ] final  -86.65 input  -60.55 | X-H torsion
[ 11005 11000 10999 10996 ] final -133.37 input  -57.11 | X-H torsion

> <Gold.Protein.ActiveResidues>
 VAL166  LYS551  ARG553  GLY616  TRP617  ASP618  TYR619  PRO620  LYS621  CYS622 
 ASP623  PHE694  ASN695  SER759  ASP760  ASP761  ALA762  ILE779  LEU786  VAL792 
 PHE793  MET794  SER795  GLU796  ALA797  LYS798  CYS799  TRP800  GLU811  SER814 

> <Gold.Protein.RotatedAtoms>
  150.7032  134.4596  159.5374 H   0  0  0  0  0  0  0  0  0  0  0  0  # atno 6907 bound_to 6896
  152.2273  134.8352  160.0487 H   0  0  0  0  0  0  0  0  0  0  0  0  # atno 6908 bound_to 6896
  151.9181  133.3543  159.3924 H   0  0  0  0  0  0  0  0  0  0  0  0  # atno 6909 bound_to 6896
  144.7711  140.4447  143.5906 H   0  0  0  0  0  0  0  0  0  0  0  0  # atno 7974 bound_to 7965
  154.5445  140.2297  155.8585 H   0  0  0  0  0  0  0  0  0  0  0  0  # atno 8008 bound_to 7997
  156.1890  140.3082  155.9257 H   0  0  0  0  0  0  0  0  0  0  0  0  # atno 8009 bound_to 7997
  155.3191  140.0439  157.3029 H   0  0  0  0  0  0  0  0  0  0  0  0  # atno 8010 bound_to 7997
  139.6987  143.9298  152.2419 H   0  0  0  0  0  0  0  0  0  0  0  0  # atno 10167 bound_to 10162
  157.6220  131.1013  150.7333 H   0  0  0  0  0  0  0  0  0  0  0  0  # atno 10718 bound_to 10713
  154.6248  135.5441  153.7615 H   0  0  0  0  0  0  0  0  0  0  0  0  # atno 10763 bound_to 10752
  153.0256  135.6421  154.1387 H   0  0  0  0  0  0  0  0  0  0  0  0  # atno 10764 bound_to 10752
  154.1320  135.2913  155.3163 H   0  0  0  0  0  0  0  0  0  0  0  0  # atno 10765 bound_to 10752
  140.9087  134.1597  157.4406 H   0  0  0  0  0  0  0  0  0  0  0  0  # atno 11005 bound_to 11000
  145.6321  139.1538  143.2963 LP  0  0  0  0  0  0  0  0  0  0  0  0  # atno 17320 bound_to 7965
  146.1858  140.6424  142.9168 LP  0  0  0  0  0  0  0  0  0  0  0  0  # atno 17321 bound_to 7965
  139.9135  144.6842  150.8537 LP  0  0  0  0  0  0  0  0  0  0  0  0  # atno 17342 bound_to 10162
  140.7704  143.3426  151.2176 LP  0  0  0  0  0  0  0  0  0  0  0  0  # atno 17343 bound_to 10162
  156.7689  130.4822  149.5422 LP  0  0  0  0  0  0  0  0  0  0  0  0  # atno 17370 bound_to 10713
  156.1371  130.6219  151.0415 LP  0  0  0  0  0  0  0  0  0  0  0  0  # atno 17371 bound_to 10713
  139.8753  134.9927  156.5608 LP  0  0  0  0  0  0  0  0  0  0  0  0  # atno 17394 bound_to 11000
  140.8138  133.8408  155.8834 LP  0  0  0  0  0  0  0  0  0  0  0  0  # atno 17395 bound_to 11000

$$$$
