AV-unprocessed.smi:3348|AV-procd|sdf|12915|dock1
  -GOLD-   2272019333D 1   1.00000     0.00000
 Structure written by MMmdl.
 47 48  0  0  0  0  0  0  0  0  2 V2000
  146.3684  136.4153  153.0937 C   0  0  0  0  0  0  0  0  0  0  0  0
  145.3995  136.8141  151.9723 C   0  0  2  0  0  0  0  0  0  0  0  0
  145.7143  136.0263  150.6816 C   0  0  0  0  0  0  0  0  0  0  0  0
  145.1346  134.6955  150.6590 N   0  0  0  0  0  0  0  0  0  0  0  0
  145.2469  133.7285  149.6821 C   0  0  0  0  0  0  0  0  0  0  0  0
  144.5409  132.6393  150.1056 C   0  0  0  0  0  0  0  0  0  0  0  0
  144.0347  133.0367  151.3748 C   0  0  0  0  0  0  0  0  0  0  0  0
  144.3943  134.2670  151.7042 N   0  0  0  0  0  0  0  0  0  0  0  0
  145.4906  138.2755  151.7502 N   0  3  0  0  0  0  0  0  0  0  0  0
  146.8620  138.8145  151.6306 C   0  0  0  0  0  0  0  0  0  0  0  0
  147.3190  139.4381  152.9522 C   0  0  0  0  0  0  0  0  0  0  0  0
  148.7330  139.5648  152.9267 O   0  0  0  0  0  0  0  0  0  0  0  0
  149.3287  139.7907  154.1987 C   0  0  2  0  0  0  0  0  0  0  0  0
  148.9742  141.2120  154.6866 C   0  0  0  0  0  0  0  0  0  0  0  0
  149.7065  141.5615  155.9901 C   0  0  0  0  0  0  0  0  0  0  0  0
  151.2245  141.4055  155.8271 C   0  0  0  0  0  0  0  0  0  0  0  0
  151.5845  139.9897  155.3531 C   0  0  0  0  0  0  0  0  0  0  0  0
  150.8576  139.6216  154.0436 C   0  0  1  0  0  0  0  0  0  0  0  0
  151.2319  138.1978  153.6005 C   0  0  0  0  0  0  0  0  0  0  0  0
  146.3046  135.3478  153.3069 H   0  0  0  0  0  0  0  0  0  0  0  0
  146.1406  136.9470  154.0182 H   0  0  0  0  0  0  0  0  0  0  0  0
  147.4018  136.6392  152.8262 H   0  0  0  0  0  0  0  0  0  0  0  0
  144.3941  136.5642  152.3153 H   0  0  0  0  0  0  0  0  0  0  0  0
  145.3637  136.5745  149.8060 H   0  0  0  0  0  0  0  0  0  0  0  0
  146.7937  135.9181  150.5644 H   0  0  0  0  0  0  0  0  0  0  0  0
  145.8119  133.8931  148.7763 H   0  0  0  0  0  0  0  0  0  0  0  0
  144.4105  131.6992  149.5902 H   0  0  0  0  0  0  0  0  0  0  0  0
  143.4225  132.4712  152.0618 H   0  0  0  0  0  0  0  0  0  0  0  0
  145.0201  138.4823  150.8804 H   0  0  0  0  0  0  0  0  0  0  0  0
  147.5481  138.0145  151.3559 H   0  0  0  0  0  0  0  0  0  0  0  0
  146.9000  139.5574  150.8329 H   0  0  0  0  0  0  0  0  0  0  0  0
  146.8313  140.4016  153.1007 H   0  0  0  0  0  0  0  0  0  0  0  0
  147.0271  138.7927  153.7818 H   0  0  0  0  0  0  0  0  0  0  0  0
  148.9705  139.0533  154.9202 H   0  0  0  0  0  0  0  0  0  0  0  0
  149.2387  141.9388  153.9173 H   0  0  0  0  0  0  0  0  0  0  0  0
  147.9007  141.3094  154.8447 H   0  0  0  0  0  0  0  0  0  0  0  0
  149.4675  142.5823  156.2896 H   0  0  0  0  0  0  0  0  0  0  0  0
  149.3548  140.9125  156.7931 H   0  0  0  0  0  0  0  0  0  0  0  0
  151.5946  142.1384  155.1090 H   0  0  0  0  0  0  0  0  0  0  0  0
  151.7237  141.6189  156.7726 H   0  0  0  0  0  0  0  0  0  0  0  0
  152.6638  139.9176  155.2138 H   0  0  0  0  0  0  0  0  0  0  0  0
  151.3271  139.2712  156.1328 H   0  0  0  0  0  0  0  0  0  0  0  0
  151.1981  140.3101  153.2687 H   0  0  0  0  0  0  0  0  0  0  0  0
  150.9123  137.4574  154.3345 H   0  0  0  0  0  0  0  0  0  0  0  0
  152.3105  138.0971  153.4759 H   0  0  0  0  0  0  0  0  0  0  0  0
  150.7695  137.9418  152.6470 H   0  0  0  0  0  0  0  0  0  0  0  0
  145.0036  138.7516  152.4959 H   0  0  0  0  0  0  0  0  0  0  0  0
  1  2  1  0  0  0  0
  1 20  1  0  0  0  0
  1 21  1  0  0  0  0
  1 22  1  0  0  0  0
  2  3  1  0  0  0  0
  2  9  1  0  0  0  0
  2 23  1  0  0  0  0
  3  4  1  0  0  0  0
  3 24  1  0  0  0  0
  3 25  1  0  0  0  0
  4  8  1  0  0  0  0
  4  5  1  0  0  0  0
  5  6  2  0  0  0  0
  5 26  1  0  0  0  0
  6  7  1  0  0  0  0
  6 27  1  0  0  0  0
  7  8  2  0  0  0  0
  7 28  1  0  0  0  0
  9 10  1  0  0  0  0
  9 29  1  0  0  0  0
  9 47  1  0  0  0  0
 10 11  1  0  0  0  0
 10 30  1  0  0  0  0
 10 31  1  0  0  0  0
 11 12  1  0  0  0  0
 11 32  1  0  0  0  0
 11 33  1  0  0  0  0
 12 13  1  0  0  0  0
 13 18  1  0  0  0  0
 13 14  1  0  0  0  0
 13 34  1  0  0  0  0
 14 15  1  0  0  0  0
 14 35  1  0  0  0  0
 14 36  1  0  0  0  0
 15 16  1  0  0  0  0
 15 37  1  0  0  0  0
 15 38  1  0  0  0  0
 16 17  1  0  0  0  0
 16 39  1  0  0  0  0
 16 40  1  0  0  0  0
 17 18  1  0  0  0  0
 17 41  1  0  0  0  0
 17 42  1  0  0  0  0
 18 19  1  0  0  0  0
 18 43  1  0  0  0  0
 19 44  1  0  0  0  0
 19 45  1  0  0  0  0
 19 46  1  0  0  0  0
M  CHG  1   9   1
M  END
> <s_m_source_file>
AV-unprocessed.smi

> <i_m_source_file_index>
3348

> <i_lp_mmshare_version>
43012

> <i_f3d_flags>
0

> <s_epik_input>
bjFbY0hdW2NIXVtjSF1uMVtDSDJdW0NAQEhdKFtDSDNdKVtOSF1bQ0gyXVtDSDJdT1tDQEBIXTJbQ0gyXVtDSDJdW0NIMl1bQ0gyXVtDQEhdMltDSDNd

> <s_epik_cmdline>
J2VwaWtfcHl0aG9uJywgJy1waCcsICc3LjAnLCAnLXRuJywgJzgnLCAnLW1hJywgJzIwMCcsICctbWV0YWxfYmluZGluZycsICctaW1hZScsICc8aW5maWxlLm1hZT4nLCAnLW9tYWUnLCAnPG91dGZpbGUubWFlPic=

> <r_lp_tautomer_probability>
1

> <r_epik_Ionization_Penalty>
0.00925088

> <r_epik_Ionization_Penalty_Charging>
0.00924645

> <r_epik_Ionization_Penalty_Neutral>
4.42413e-06

> <r_epik_State_Penalty>
0.0070118

> <r_epik_Charging_Adjusted_Penalty>
0.0162583

> <i_epik_Tot_Q>
1

> <i_epik_Tot_abs_Q>
1

> <r_epik_Metal_State_Penalty>
0.00701222

> <b_epik_Metal_Only>
0

> <s_lp_Force_Field>
OPLS_2005

> <r_lp_Energy>
16.8222

> <b_lp_Chiralities_Consistent>
1

> <s_lp_Variant>
AV-unprocessed.smi:3348-1

> <Gold.Version>
5.8.1

> <Gold.Id.Protein>
6NUR|6NUR_protein|mol2

> <Gold.PLP.Fitness>
49.9101

> <Gold.PLP.PLP>
-36.7847

> <Gold.PLP.part.hbond>
-1.7887

> <Gold.PLP.part.metal>
0.0000

> <Gold.PLP.part.buried>
-0.7239

> <Gold.PLP.part.nonpolar>
-39.0159

> <Gold.PLP.part.repulsive>
5.2385

> <Gold.PLP.ligand.clash>
0.0000

> <Gold.PLP.ligand.torsion>
0.7961

> <Gold.PLP.Chemscore.Hbond>
2.8240

> <Gold.PLP.Chemscore.CHOScore>
1.9789

> <Gold.PLP.Chemscore.Metal>
0.0000

> <Gold.Chemscore.Hbonds>
donor molecule, donor type, donor heavy atom, donor atom, acceptor molecule, acceptor atom, score
      L1  H     9    29       P1 10171  1.00
      L1  H     9    47       P1 10175  0.83
      L1  C     7    28       P1 10957  0.04

> <Gold.PLP.Chemscore.Internal.Correction>
0.3090

> <Gold.Rescore>
     Score         DG    S(hbond)    S(metal)    S(lipo)     H(rot)  DE(clash)    DE(int)     intcor
     15.77     -18.39       1.71        0.00     101.15       1.82       1.79       0.83       ----

> <Gold.Chemscore.Fitness>
15.7728

> <Gold.Chemscore.DG>
-18.3920

> <Gold.Chemscore.ZeroCoef>
-5.4800

> <Gold.Chemscore.Hbond>
1.7147

> <Gold.Chemscore.Metal>
0.0000

> <Gold.Chemscore.Lipo>
101.1521

> <Gold.Chemscore.Internal_Hbond>
0.0000

> <Gold.Chemscore.DEClash>
1.7889

> <Gold.Chemscore.DEInternal>
0.8304

> <Gold.Chemscore.Rot>
1.8163

> <Gold.Chemscore.Internal.Correction>
   9.000000E+99

> <Gold.Chemscore.Hbonds>
donor molecule, donor type, donor heavy atom, donor atom, acceptor molecule, acceptor atom, score
      L1  H     9    29       P1 10171  0.96
      L1  H     9    47       P1 10175  0.43

> <Gold.Chemscore.Hbond.Weighted>
-5.7270

> <Gold.Chemscore.Metal.Weighted>
-0.0000

> <Gold.Chemscore.Lipo.Weighted>
-11.8348

> <Gold.Chemscore.Internal_Hbond.Weighted>
0.0000

> <Gold.Chemscore.DEClash.Weighted>
1.7889

> <Gold.Chemscore.DEInternal.Weighted>
0.8304

> <Gold.Chemscore.Rot.Weighted>
4.6497

> <Gold.Chemscore.Internal.Correction.Weighted>
   9.000000E+99

> <Gold.Protein.RotatedTorsions>
[ 6907 6896 6895 6894 ] final   70.81 input  -60.11 | X-H torsion
[ 7974 7965 7964 7962 ] final  -22.65 input  175.53 | X-H torsion
[ 8008 7997 7996 7995 ] final   94.67 input   59.86 | X-H torsion
[ 10167 10162 10161 10158 ] final -126.37 input  -65.29 | X-H torsion
[ 10718 10713 10712 10709 ] final   35.82 input   66.30 | X-H torsion
[ 10763 10752 10751 10750 ] final  -48.82 input  -60.55 | X-H torsion
[ 11005 11000 10999 10996 ] final   38.85 input  -57.11 | X-H torsion

> <Gold.Protein.ActiveResidues>
 VAL166  LYS551  ARG553  GLY616  TRP617  ASP618  TYR619  PRO620  LYS621  CYS622 
 ASP623  PHE694  ASN695  SER759  ASP760  ASP761  ALA762  ILE779  LEU786  VAL792 
 PHE793  MET794  SER795  GLU796  ALA797  LYS798  CYS799  TRP800  GLU811  SER814 

> <Gold.Protein.RotatedAtoms>
  152.4772  134.4813  159.9666 H   0  0  0  0  0  0  0  0  0  0  0  0  # atno 6907 bound_to 6896
  151.4827  133.3537  159.2848 H   0  0  0  0  0  0  0  0  0  0  0  0  # atno 6908 bound_to 6896
  150.8819  134.8237  159.7292 H   0  0  0  0  0  0  0  0  0  0  0  0  # atno 6909 bound_to 6896
  146.1663  140.4509  142.8551 H   0  0  0  0  0  0  0  0  0  0  0  0  # atno 7974 bound_to 7965
  156.0605  140.3297  155.7456 H   0  0  0  0  0  0  0  0  0  0  0  0  # atno 8008 bound_to 7997
  155.5462  140.0606  157.2877 H   0  0  0  0  0  0  0  0  0  0  0  0  # atno 8009 bound_to 7997
  154.4479  140.1902  156.0629 H   0  0  0  0  0  0  0  0  0  0  0  0  # atno 8010 bound_to 7997
  139.9721  143.5834  152.2409 H   0  0  0  0  0  0  0  0  0  0  0  0  # atno 10167 bound_to 10162
  157.3274  130.7480  149.6825 H   0  0  0  0  0  0  0  0  0  0  0  0  # atno 10718 bound_to 10713
  154.0840  135.6587  153.4842 H   0  0  0  0  0  0  0  0  0  0  0  0  # atno 10763 bound_to 10752
  153.0345  135.5186  154.7446 H   0  0  0  0  0  0  0  0  0  0  0  0  # atno 10764 bound_to 10752
  154.6550  135.3006  154.9908 H   0  0  0  0  0  0  0  0  0  0  0  0  # atno 10765 bound_to 10752
  140.2086  134.3783  155.8060 H   0  0  0  0  0  0  0  0  0  0  0  0  # atno 11005 bound_to 11000
  144.8097  140.6363  143.6423 LP  0  0  0  0  0  0  0  0  0  0  0  0  # atno 17320 bound_to 7965
  145.4459  139.1529  143.3945 LP  0  0  0  0  0  0  0  0  0  0  0  0  # atno 17321 bound_to 7965
  139.6473  144.7659  151.2218 LP  0  0  0  0  0  0  0  0  0  0  0  0  # atno 17342 bound_to 10162
  140.7518  143.6218  150.8506 LP  0  0  0  0  0  0  0  0  0  0  0  0  # atno 17343 bound_to 10162
  155.9692  130.4205  150.4426 LP  0  0  0  0  0  0  0  0  0  0  0  0  # atno 17370 bound_to 10713
  157.2452  131.0534  151.2412 LP  0  0  0  0  0  0  0  0  0  0  0  0  # atno 17371 bound_to 10713
  141.2226  133.7131  156.8379 LP  0  0  0  0  0  0  0  0  0  0  0  0  # atno 17394 bound_to 11000
  140.1976  134.8920  157.3132 LP  0  0  0  0  0  0  0  0  0  0  0  0  # atno 17395 bound_to 11000

$$$$
