AV-unprocessed.smi:2141|AV-procd|sdf|8719|dock6
  -GOLD-   2272011483D 1   1.00000     0.00000
 Structure written by MMmdl.
 41 42  0  0  0  0  0  0  0  0  2 V2000
  154.8713  133.9879  157.6796 C   0  0  0  0  0  0  0  0  0  0  0  0
  154.1610  132.9767  159.0482 S   0  0  0  0  0  0  0  0  0  0  0  0
  152.8414  132.5508  158.5584 O   0  0  0  0  0  0  0  0  0  0  0  0
  155.1410  131.9131  159.3256 O   0  0  0  0  0  0  0  0  0  0  0  0
  154.0160  134.0702  160.2440 N   0  5  0  0  0  0  0  0  0  0  0  0
  155.1865  134.7130  160.8250 C   0  0  0  0  0  0  0  0  0  0  0  0
  154.7413  135.8330  161.7908 C   0  0  0  0  0  0  0  0  0  0  0  0
  153.9132  136.9365  161.1140 C   0  0  0  0  0  0  0  0  0  0  0  0
  152.9317  136.6379  160.4306 O   0  0  0  0  0  0  0  0  0  0  0  0
  154.3762  138.1927  161.2687 N   0  0  0  0  0  0  0  0  0  0  0  0
  153.8221  139.4129  160.7957 C   0  0  0  0  0  0  0  0  0  0  0  0
  153.0140  139.5307  159.6412 C   0  0  0  0  0  0  0  0  0  0  0  0
  152.5066  140.7962  159.2897 C   0  0  0  0  0  0  0  0  0  0  0  0
  152.8070  141.9146  160.1029 C   0  0  0  0  0  0  0  0  0  0  0  0
  152.3069  143.1929  159.7698 N   0  0  0  0  0  0  0  0  0  0  0  0
  152.2079  144.1456  160.8732 C   0  0  0  0  0  0  0  0  0  0  0  0
  151.3709  145.3668  160.4540 C   0  0  0  0  0  0  0  0  0  0  0  0
  151.9168  145.9441  159.2727 O   0  0  0  0  0  0  0  0  0  0  0  0
  151.8975  145.0312  158.1806 C   0  0  0  0  0  0  0  0  0  0  0  0
  152.7562  143.8011  158.5185 C   0  0  0  0  0  0  0  0  0  0  0  0
  153.5771  141.7957  161.2121 N   0  0  0  0  0  0  0  0  0  0  0  0
  154.0606  140.5811  161.5458 C   0  0  0  0  0  0  0  0  0  0  0  0
  154.9286  133.3780  156.7788 H   0  0  0  0  0  0  0  0  0  0  0  0
  155.8721  134.3269  157.9442 H   0  0  0  0  0  0  0  0  0  0  0  0
  154.2295  134.8483  157.4921 H   0  0  0  0  0  0  0  0  0  0  0  0
  155.8095  133.9969  161.3620 H   0  0  0  0  0  0  0  0  0  0  0  0
  155.8269  135.1471  160.0563 H   0  0  0  0  0  0  0  0  0  0  0  0
  154.1657  135.4055  162.6139 H   0  0  0  0  0  0  0  0  0  0  0  0
  155.6177  136.2987  162.2440 H   0  0  0  0  0  0  0  0  0  0  0  0
  155.2513  138.2796  161.7651 H   0  0  0  0  0  0  0  0  0  0  0  0
  152.7636  138.6812  159.0254 H   0  0  0  0  0  0  0  0  0  0  0  0
  151.9048  140.8925  158.3986 H   0  0  0  0  0  0  0  0  0  0  0  0
  151.7580  143.6971  161.7575 H   0  0  0  0  0  0  0  0  0  0  0  0
  153.2131  144.4621  161.1548 H   0  0  0  0  0  0  0  0  0  0  0  0
  150.3298  145.0854  160.2871 H   0  0  0  0  0  0  0  0  0  0  0  0
  151.3742  146.1137  161.2478 H   0  0  0  0  0  0  0  0  0  0  0  0
  150.8708  144.7386  157.9545 H   0  0  0  0  0  0  0  0  0  0  0  0
  152.2886  145.5297  157.2936 H   0  0  0  0  0  0  0  0  0  0  0  0
  153.8033  144.0921  158.6138 H   0  0  0  0  0  0  0  0  0  0  0  0
  152.6898  143.0808  157.7021 H   0  0  0  0  0  0  0  0  0  0  0  0
  154.6625  140.5439  162.4421 H   0  0  0  0  0  0  0  0  0  0  0  0
  1  2  1  0  0  0  0
  1 23  1  0  0  0  0
  1 24  1  0  0  0  0
  1 25  1  0  0  0  0
  2  3  2  0  0  0  0
  2  4  2  0  0  0  0
  2  5  1  0  0  0  0
  5  6  1  0  0  0  0
  6  7  1  0  0  0  0
  6 26  1  0  0  0  0
  6 27  1  0  0  0  0
  7  8  1  0  0  0  0
  7 28  1  0  0  0  0
  7 29  1  0  0  0  0
  8  9  2  0  0  0  0
  8 10  1  0  0  0  0
 10 11  1  0  0  0  0
 10 30  1  0  0  0  0
 11 22  1  0  0  0  0
 11 12  2  0  0  0  0
 12 13  1  0  0  0  0
 12 31  1  0  0  0  0
 13 14  2  0  0  0  0
 13 32  1  0  0  0  0
 14 15  1  0  0  0  0
 14 21  1  0  0  0  0
 15 20  1  0  0  0  0
 15 16  1  0  0  0  0
 16 17  1  0  0  0  0
 16 33  1  0  0  0  0
 16 34  1  0  0  0  0
 17 18  1  0  0  0  0
 17 35  1  0  0  0  0
 17 36  1  0  0  0  0
 18 19  1  0  0  0  0
 19 20  1  0  0  0  0
 19 37  1  0  0  0  0
 19 38  1  0  0  0  0
 20 39  1  0  0  0  0
 20 40  1  0  0  0  0
 21 22  2  0  0  0  0
 22 41  1  0  0  0  0
M  CHG  1   5  -1
M  END
> <s_m_source_file>
AV-unprocessed.smi

> <i_m_source_file_index>
2141

> <i_lp_mmshare_version>
43012

> <i_f3d_flags>
0

> <s_epik_input>
W0NIM11TKD1PKSg9TylbTkhdW0NIMl1bQ0gyXUMoPU8pW05IXWMxW2NIXVtjSF1jKG5bY0hdMSlOMltDSDJdW0NIMl1PW0NIMl1bQ0gyXTI=

> <s_epik_cmdline>
J2VwaWtfcHl0aG9uJywgJy1waCcsICc3LjAnLCAnLXRuJywgJzgnLCAnLW1hJywgJzIwMCcsICctbWV0YWxfYmluZGluZycsICctaW1hZScsICc8aW5maWxlLm1hZT4nLCAnLW9tYWUnLCAnPG91dGZpbGUubWFlPic=

> <r_lp_tautomer_probability>
1

> <r_epik_Ionization_Penalty>
6.16997

> <r_epik_Ionization_Penalty_Charging>
6.16921

> <r_epik_Ionization_Penalty_Neutral>
0.000766965

> <r_epik_State_Penalty>
6.16956

> <r_epik_Charging_Adjusted_Penalty>
12.3388

> <i_epik_Tot_Q>
-1

> <i_epik_Tot_abs_Q>
1

> <r_epik_Metal_State_Penalty>
2.11159

> <b_epik_Metal_Only>
1

> <s_lp_Force_Field>
OPLS_2005

> <r_lp_Energy>
18.4771

> <b_lp_Chiralities_Consistent>
1

> <s_lp_Variant>
AV-unprocessed.smi:2141-2

> <Gold.Version>
5.8.1

> <Gold.Id.Protein>
6NUR|6NUR_protein|mol2

> <Gold.PLP.Fitness>
43.6741

> <Gold.PLP.PLP>
-38.5725

> <Gold.PLP.part.hbond>
-4.0000

> <Gold.PLP.part.metal>
0.0000

> <Gold.PLP.part.buried>
-6.9356

> <Gold.PLP.part.nonpolar>
-28.1462

> <Gold.PLP.part.repulsive>
0.1351

> <Gold.PLP.ligand.clash>
0.0000

> <Gold.PLP.ligand.torsion>
1.1185

> <Gold.PLP.Chemscore.Hbond>
1.9913

> <Gold.PLP.Chemscore.CHOScore>
0.0000

> <Gold.PLP.Chemscore.Metal>
0.0000

> <Gold.Chemscore.Hbonds>
donor molecule, donor type, donor heavy atom, donor atom, acceptor molecule, acceptor atom, score
      P1  H  6896  6907       L1     9  1.00
      P1  H  6896  6908       L1     3  0.40

> <Gold.PLP.Chemscore.Internal.Correction>
1.3648

> <Gold.Rescore>
     Score         DG    S(hbond)    S(metal)    S(lipo)     H(rot)  DE(clash)    DE(int)     intcor
     13.56     -17.07       1.87        0.00      87.87       1.93       0.30       3.21       ----

> <Gold.Chemscore.Fitness>
13.5641

> <Gold.Chemscore.DG>
-17.0717

> <Gold.Chemscore.ZeroCoef>
-5.4800

> <Gold.Chemscore.Hbond>
1.8684

> <Gold.Chemscore.Metal>
0.0000

> <Gold.Chemscore.Lipo>
87.8675

> <Gold.Chemscore.Internal_Hbond>
0.0000

> <Gold.Chemscore.DEClash>
0.2989

> <Gold.Chemscore.DEInternal>
3.2087

> <Gold.Chemscore.Rot>
1.9255

> <Gold.Chemscore.Internal.Correction>
   9.000000E+99

> <Gold.Chemscore.Hbonds>
donor molecule, donor type, donor heavy atom, donor atom, acceptor molecule, acceptor atom, score
      P1  H  6896  6907       L1     9  1.00
      P1  H  6896  6908       L1     3  0.03

> <Gold.Chemscore.Hbond.Weighted>
-6.2405

> <Gold.Chemscore.Metal.Weighted>
-0.0000

> <Gold.Chemscore.Lipo.Weighted>
-10.2805

> <Gold.Chemscore.Internal_Hbond.Weighted>
0.0000

> <Gold.Chemscore.DEClash.Weighted>
0.2989

> <Gold.Chemscore.DEInternal.Weighted>
3.2087

> <Gold.Chemscore.Rot.Weighted>
4.9292

> <Gold.Chemscore.Internal.Correction.Weighted>
   9.000000E+99

> <Gold.Protein.RotatedTorsions>
[ 6907 6896 6895 6894 ] final   26.84 input  -60.11 | X-H torsion
[ 7974 7965 7964 7962 ] final  -13.20 input  175.53 | X-H torsion
[ 8008 7997 7996 7995 ] final  -79.83 input   59.86 | X-H torsion
[ 10167 10162 10161 10158 ] final  -14.15 input  -65.29 | X-H torsion
[ 10718 10713 10712 10709 ] final -105.65 input   66.30 | X-H torsion
[ 10763 10752 10751 10750 ] final  -10.14 input  -60.55 | X-H torsion
[ 11005 11000 10999 10996 ] final  -49.00 input  -57.11 | X-H torsion

> <Gold.Protein.ActiveResidues>
 VAL166  LYS551  ARG553  GLY616  TRP617  ASP618  TYR619  PRO620  LYS621  CYS622 
 ASP623  PHE694  ASN695  SER759  ASP760  ASP761  ALA762  ILE779  LEU786  VAL792 
 PHE793  MET794  SER795  GLU796  ALA797  LYS798  CYS799  TRP800  GLU811  SER814 

> <Gold.Protein.RotatedAtoms>
  151.9935  134.9966  160.0562 H   0  0  0  0  0  0  0  0  0  0  0  0  # atno 6907 bound_to 6896
  152.1586  133.4562  159.4858 H   0  0  0  0  0  0  0  0  0  0  0  0  # atno 6908 bound_to 6896
  150.6885  134.2017  159.4368 H   0  0  0  0  0  0  0  0  0  0  0  0  # atno 6909 bound_to 6896
  146.2123  140.3169  142.8387 H   0  0  0  0  0  0  0  0  0  0  0  0  # atno 7974 bound_to 7965
  154.5823  140.0672  156.9122 H   0  0  0  0  0  0  0  0  0  0  0  0  # atno 8008 bound_to 7997
  155.2440  140.3347  155.4271 H   0  0  0  0  0  0  0  0  0  0  0  0  # atno 8009 bound_to 7997
  156.2198  140.1794  156.7488 H   0  0  0  0  0  0  0  0  0  0  0  0  # atno 8010 bound_to 7997
  140.7196  143.5351  150.9474 H   0  0  0  0  0  0  0  0  0  0  0  0  # atno 10167 bound_to 10162
  156.0355  130.5574  150.7570 H   0  0  0  0  0  0  0  0  0  0  0  0  # atno 10718 bound_to 10713
  153.4649  135.7016  153.6028 H   0  0  0  0  0  0  0  0  0  0  0  0  # atno 10763 bound_to 10752
  153.4306  135.3803  155.2168 H   0  0  0  0  0  0  0  0  0  0  0  0  # atno 10764 bound_to 10752
  154.8726  135.3950  154.4080 H   0  0  0  0  0  0  0  0  0  0  0  0  # atno 10765 bound_to 10752
  141.0734  133.6672  156.3522 H   0  0  0  0  0  0  0  0  0  0  0  0  # atno 11005 bound_to 11000
  144.8948  140.7569  143.5904 LP  0  0  0  0  0  0  0  0  0  0  0  0  # atno 17320 bound_to 7965
  145.3093  139.1824  143.4647 LP  0  0  0  0  0  0  0  0  0  0  0  0  # atno 17321 bound_to 7965
  139.9072  143.6763  152.3121 LP  0  0  0  0  0  0  0  0  0  0  0  0  # atno 17342 bound_to 10162
  139.7134  144.7616  151.1074 LP  0  0  0  0  0  0  0  0  0  0  0  0  # atno 17343 bound_to 10162
  157.5099  131.0925  151.0211 LP  0  0  0  0  0  0  0  0  0  0  0  0  # atno 17370 bound_to 10713
  157.0569  130.5809  149.5379 LP  0  0  0  0  0  0  0  0  0  0  0  0  # atno 17371 bound_to 10713
  140.5626  134.5919  157.5437 LP  0  0  0  0  0  0  0  0  0  0  0  0  # atno 17394 bound_to 11000
  139.9546  134.7557  156.0370 LP  0  0  0  0  0  0  0  0  0  0  0  0  # atno 17395 bound_to 11000

$$$$
