AV-unprocessed.smi:114|AV-procd|sdf|1120|dock10
  -GOLD-   2262018243D 1   1.00000     0.00000
 Structure written by MMmdl.
 32 34  0  0  0  0  0  0  0  0  1 V2000
  151.9140  137.7414  153.8281 N   0  0  0  0  0  0  0  0  0  0  0  0
  151.1395  138.5628  154.5510 C   0  0  0  0  0  0  0  0  0  0  0  0
  149.8912  138.8335  154.1025 N   0  0  0  0  0  0  0  0  0  0  0  0
  149.0858  139.6502  154.7938 C   0  0  0  0  0  0  0  0  0  0  0  0
  147.8555  139.8643  154.2714 F   0  0  0  0  0  0  0  0  0  0  0  0
  149.3598  140.2794  155.9423 N   0  0  0  0  0  0  0  0  0  0  0  0
  150.6171  140.0060  156.3956 C   0  0  0  0  0  0  0  0  0  0  0  0
  151.5659  139.1620  155.7612 C   0  0  0  0  0  0  0  0  0  0  0  0
  152.7359  139.1226  156.5076 N   0  0  0  0  0  0  0  0  0  0  0  0
  152.4869  139.9042  157.5252 C   0  0  0  0  0  0  0  0  0  0  0  0
  151.2337  140.4823  157.5313 N   0  0  0  0  0  0  0  0  0  0  0  0
  150.6165  141.4164  158.5293 C   0  0  1  0  0  0  0  0  0  0  0  0
  151.4596  141.4975  159.6390 O   0  0  0  0  0  0  0  0  0  0  0  0
  152.2025  142.7103  159.5905 C   0  0  2  0  0  0  0  0  0  0  0  0
  152.7716  143.0727  160.9728 C   0  0  0  0  0  0  0  0  0  0  0  0
  151.8183  142.7901  161.9744 O   0  0  0  0  0  0  0  0  0  0  0  0
  151.1813  143.6974  159.0117 C   0  0  2  0  0  0  0  0  0  0  0  0
  150.2847  144.1496  160.0104 O   0  0  0  0  0  0  0  0  0  0  0  0
  150.4468  142.8537  157.9763 C   0  0  1  0  0  0  0  0  0  0  0  0
  151.0263  143.0552  156.6982 O   0  0  0  0  0  0  0  0  0  0  0  0
  149.6760  140.9393  158.8071 H   0  0  0  0  0  0  0  0  0  0  0  0
  153.0151  142.6039  158.8695 H   0  0  0  0  0  0  0  0  0  0  0  0
  151.6652  144.5724  158.5751 H   0  0  0  0  0  0  0  0  0  0  0  0
  149.3860  143.1013  157.9169 H   0  0  0  0  0  0  0  0  0  0  0  0
  152.8491  137.5265  154.1436 H   0  0  0  0  0  0  0  0  0  0  0  0
  151.5628  137.3407  152.9703 H   0  0  0  0  0  0  0  0  0  0  0  0
  153.2188  140.0758  158.3009 H   0  0  0  0  0  0  0  0  0  0  0  0
  153.6556  142.4707  161.1848 H   0  0  0  0  0  0  0  0  0  0  0  0
  153.0695  144.1207  161.0200 H   0  0  0  0  0  0  0  0  0  0  0  0
  152.2307  142.8888  162.8189 H   0  0  0  0  0  0  0  0  0  0  0  0
  149.4785  143.6623  159.9343 H   0  0  0  0  0  0  0  0  0  0  0  0
  150.3896  143.4861  156.1483 H   0  0  0  0  0  0  0  0  0  0  0  0
  1  2  1  0  0  0  0
  1 25  1  0  0  0  0
  1 26  1  0  0  0  0
  2  8  1  0  0  0  0
  2  3  2  0  0  0  0
  3  4  1  0  0  0  0
  4  5  1  0  0  0  0
  4  6  2  0  0  0  0
  6  7  1  0  0  0  0
  7 11  1  0  0  0  0
  7  8  2  0  0  0  0
  8  9  1  0  0  0  0
  9 10  2  0  0  0  0
 10 11  1  0  0  0  0
 10 27  1  0  0  0  0
 11 12  1  0  0  0  0
 12 21  1  0  0  0  0
 12 19  1  0  0  0  0
 12 13  1  0  0  0  0
 13 14  1  0  0  0  0
 14 22  1  0  0  0  0
 14 15  1  0  0  0  0
 14 17  1  0  0  0  0
 15 16  1  0  0  0  0
 15 28  1  0  0  0  0
 15 29  1  0  0  0  0
 16 30  1  0  0  0  0
 17 23  1  0  0  0  0
 17 18  1  0  0  0  0
 17 19  1  0  0  0  0
 18 31  1  0  0  0  0
 19 24  1  0  0  0  0
 19 20  1  0  0  0  0
 20 32  1  0  0  0  0
M  END
> <s_m_source_file>
AV-unprocessed.smi

> <i_m_source_file_index>
114

> <i_lp_mmshare_version>
43012

> <i_f3d_flags>
0

> <s_epik_input>
RmMobjEpbmMoW05IMl0pYyhjMTIpbltjSF1uMltDQEBIXTNPW0NASF0oW0NIMl1bT0hdKVtDQEBIXShbT0hdKVtDQEBIXTNbT0hd

> <s_epik_cmdline>
J2VwaWtfcHl0aG9uJywgJy1waCcsICc3LjAnLCAnLXRuJywgJzgnLCAnLW1hJywgJzIwMCcsICctbWV0YWxfYmluZGluZycsICctaW1hZScsICc8aW5maWxlLm1hZT4nLCAnLW9tYWUnLCAnPG91dGZpbGUubWFlPic=

> <r_lp_tautomer_probability>
1

> <r_epik_Ionization_Penalty>
1.13199e-05

> <r_epik_Ionization_Penalty_Charging>
0

> <r_epik_Ionization_Penalty_Neutral>
1.13199e-05

> <r_epik_State_Penalty>
-0

> <r_epik_Charging_Adjusted_Penalty>
0

> <i_epik_Tot_Q>
0

> <i_epik_Tot_abs_Q>
0

> <r_epik_Metal_State_Penalty>
-0

> <b_epik_Metal_Only>
0

> <s_epik_Chemistry_Notes>
This compound contains an acetal/aminal-like group ( X-CH(R)-Y where X, Y are N, S, or O) that may be acid/base labile, releasing an aldehyde.

> <s_lp_Force_Field>
OPLS_2005

> <r_lp_Energy>
38.7556

> <b_lp_Chiralities_Consistent>
1

> <s_lp_Variant>
AV-unprocessed.smi:114-14

> <Gold.Version>
5.8.1

> <Gold.Id.Protein>
6NUR|6NUR_protein|mol2

> <Gold.PLP.Fitness>
41.7781

> <Gold.PLP.PLP>
-32.4314

> <Gold.PLP.part.hbond>
-5.8164

> <Gold.PLP.part.metal>
0.0000

> <Gold.PLP.part.buried>
-4.0664

> <Gold.PLP.part.nonpolar>
-23.4596

> <Gold.PLP.part.repulsive>
0.4139

> <Gold.PLP.ligand.clash>
0.0000

> <Gold.PLP.ligand.torsion>
0.3383

> <Gold.PLP.Chemscore.Hbond>
3.3207

> <Gold.PLP.Chemscore.CHOScore>
0.0000

> <Gold.PLP.Chemscore.Metal>
0.0000

> <Gold.Chemscore.Hbonds>
donor molecule, donor type, donor heavy atom, donor atom, acceptor molecule, acceptor atom, score
      L1  H     1    26       P1  7949  0.98
      L1  H    20    32       P1  8028  1.00
      P1  H  6933  6945       L1    16  0.77
      P1  H  7997  8008       L1     9  0.48

> <Gold.PLP.Chemscore.Internal.Correction>
0.0612

> <Gold.Rescore>
     Score         DG    S(hbond)    S(metal)    S(lipo)     H(rot)  DE(clash)    DE(int)     intcor
      7.44      -8.22       2.29        0.00      46.16       4.03       0.31       0.48       ----

> <Gold.Chemscore.Fitness>
7.4357

> <Gold.Chemscore.DG>
-8.2234

> <Gold.Chemscore.ZeroCoef>
-5.4800

> <Gold.Chemscore.Hbond>
2.2916

> <Gold.Chemscore.Metal>
0.0000

> <Gold.Chemscore.Lipo>
46.1569

> <Gold.Chemscore.Internal_Hbond>
0.0000

> <Gold.Chemscore.DEClash>
0.3075

> <Gold.Chemscore.DEInternal>
0.4802

> <Gold.Chemscore.Rot>
4.0277

> <Gold.Chemscore.Internal.Correction>
   9.000000E+99

> <Gold.Chemscore.Hbonds>
donor molecule, donor type, donor heavy atom, donor atom, acceptor molecule, acceptor atom, score
      L1  H     1    26       P1  7949  0.85
      L1  H    20    32       P1  8028  0.96
      P1  H  6933  6945       L1    16  0.48
      P1  H  7997  8008       L1     9  0.03

> <Gold.Chemscore.Hbond.Weighted>
-7.6540

> <Gold.Chemscore.Metal.Weighted>
-0.0000

> <Gold.Chemscore.Lipo.Weighted>
-5.4004

> <Gold.Chemscore.Internal_Hbond.Weighted>
0.0000

> <Gold.Chemscore.DEClash.Weighted>
0.3075

> <Gold.Chemscore.DEInternal.Weighted>
0.4802

> <Gold.Chemscore.Rot.Weighted>
10.3110

> <Gold.Chemscore.Internal.Correction.Weighted>
   9.000000E+99

> <Gold.Protein.RotatedTorsions>
[ 6907 6896 6895 6894 ] final  101.58 input  -60.11 | X-H torsion
[ 7974 7965 7964 7962 ] final -118.81 input  175.53 | X-H torsion
[ 8008 7997 7996 7995 ] final  -24.80 input   59.86 | X-H torsion
[ 10167 10162 10161 10158 ] final -125.39 input  -65.29 | X-H torsion
[ 10718 10713 10712 10709 ] final  -64.09 input   66.30 | X-H torsion
[ 10763 10752 10751 10750 ] final  -88.91 input  -60.55 | X-H torsion
[ 11005 11000 10999 10996 ] final  153.45 input  -57.11 | X-H torsion

> <Gold.Protein.ActiveResidues>
 VAL166  LYS551  ARG553  GLY616  TRP617  ASP618  TYR619  PRO620  LYS621  CYS622 
 ASP623  PHE694  ASN695  SER759  ASP760  ASP761  ALA762  ILE779  LEU786  VAL792 
 PHE793  MET794  SER795  GLU796  ALA797  LYS798  CYS799  TRP800  GLU811  SER814 

> <Gold.Protein.RotatedAtoms>
  152.5346  134.0104  159.7935 H   0  0  0  0  0  0  0  0  0  0  0  0  # atno 6907 bound_to 6896
  151.0307  133.5785  159.2668 H   0  0  0  0  0  0  0  0  0  0  0  0  # atno 6908 bound_to 6896
  151.2790  135.0715  159.9216 H   0  0  0  0  0  0  0  0  0  0  0  0  # atno 6909 bound_to 6896
  145.0696  140.8349  143.4103 H   0  0  0  0  0  0  0  0  0  0  0  0  # atno 7974 bound_to 7965
  154.4509  140.1943  156.0521 H   0  0  0  0  0  0  0  0  0  0  0  0  # atno 8008 bound_to 7997
  156.0646  140.3292  155.7475 H   0  0  0  0  0  0  0  0  0  0  0  0  # atno 8009 bound_to 7997
  155.5358  140.0582  157.2870 H   0  0  0  0  0  0  0  0  0  0  0  0  # atno 8010 bound_to 7997
  139.9826  143.5726  152.2372 H   0  0  0  0  0  0  0  0  0  0  0  0  # atno 10167 bound_to 10162
  156.0750  130.4229  150.1370 H   0  0  0  0  0  0  0  0  0  0  0  0  # atno 10718 bound_to 10713
  154.6496  135.5360  153.7886 H   0  0  0  0  0  0  0  0  0  0  0  0  # atno 10763 bound_to 10752
  153.0379  135.6479  154.1036 H   0  0  0  0  0  0  0  0  0  0  0  0  # atno 10764 bound_to 10752
  154.0955  135.2937  155.3242 H   0  0  0  0  0  0  0  0  0  0  0  0  # atno 10765 bound_to 10752
  140.1399  134.8746  157.2316 H   0  0  0  0  0  0  0  0  0  0  0  0  # atno 11005 bound_to 11000
  145.1309  139.2633  143.5540 LP  0  0  0  0  0  0  0  0  0  0  0  0  # atno 17320 bound_to 7965
  146.3528  140.0959  142.8610 LP  0  0  0  0  0  0  0  0  0  0  0  0  # atno 17321 bound_to 7965
  139.6399  144.7653  151.2361 LP  0  0  0  0  0  0  0  0  0  0  0  0  # atno 17342 bound_to 10162
  140.7484  143.6335  150.8400 LP  0  0  0  0  0  0  0  0  0  0  0  0  # atno 17343 bound_to 10162
  156.9413  130.9745  151.3515 LP  0  0  0  0  0  0  0  0  0  0  0  0  # atno 17370 bound_to 10713
  157.5841  130.8397  149.8565 LP  0  0  0  0  0  0  0  0  0  0  0  0  # atno 17371 bound_to 10713
  140.2736  134.3432  155.7365 LP  0  0  0  0  0  0  0  0  0  0  0  0  # atno 17394 bound_to 11000
  141.2184  133.7437  156.9259 LP  0  0  0  0  0  0  0  0  0  0  0  0  # atno 17395 bound_to 11000

$$$$
