AV-unprocessed.smi:3263|AV-procd|sdf|12493|dock9
  -GOLD-   2272018393D 1   1.00000     0.00000
 Structure written by MMmdl.
 42 44  0  0  0  0  0  0  0  0  2 V2000
  153.7023  141.0727  161.3335 O   0  0  0  0  0  0  0  0  0  0  0  0
  153.6285  140.6981  160.1628 C   0  0  0  0  0  0  0  0  0  0  0  0
  152.8196  141.5042  159.1413 C   0  0  0  0  0  0  0  0  0  0  0  0
  151.9371  142.5900  159.7972 C   0  0  1  0  0  0  0  0  0  0  0  0
  152.7059  143.6968  160.5542 C   0  0  0  0  0  0  0  0  0  0  0  0
  152.0872  144.9901  159.9906 C   0  0  1  0  0  0  0  0  0  0  0  0
  152.6100  145.2154  158.5603 C   0  0  0  0  0  0  0  0  0  0  0  0
  151.8643  144.1359  157.7548 C   0  0  0  0  0  0  0  0  0  0  0  0
  151.0406  143.4067  158.8367 C   0  0  2  0  0  0  0  0  0  0  0  0
  150.6424  144.5740  159.7353 C   0  0  0  0  0  0  0  0  0  0  0  0
  154.2359  139.5914  159.7074 N   0  0  0  0  0  0  0  0  0  0  0  0
  155.0674  138.7059  160.5134 C   0  0  0  0  0  0  0  0  0  0  0  0
  154.5600  137.2547  160.4628 C   0  0  0  0  0  0  0  0  0  0  0  0
  154.4183  136.6477  161.8447 C   0  0  0  0  0  0  0  0  0  0  0  0
  153.6257  137.2411  162.8510 C   0  0  0  0  0  0  0  0  0  0  0  0
  153.5433  136.6233  164.1164 C   0  0  0  0  0  0  0  0  0  0  0  0
  154.2551  135.4281  164.3491 C   0  0  0  0  0  0  0  0  0  0  0  0
  155.0327  134.8800  163.3088 C   0  0  0  0  0  0  0  0  0  0  0  0
  155.0860  135.5013  162.1100 N   0  3  0  0  0  0  0  0  0  0  0  0
  153.5047  141.9505  158.4203 H   0  0  0  0  0  0  0  0  0  0  0  0
  152.1906  140.8092  158.5840 H   0  0  0  0  0  0  0  0  0  0  0  0
  151.2688  142.0979  160.5066 H   0  0  0  0  0  0  0  0  0  0  0  0
  152.5335  143.6142  161.6281 H   0  0  0  0  0  0  0  0  0  0  0  0
  153.7836  143.6593  160.3888 H   0  0  0  0  0  0  0  0  0  0  0  0
  152.2115  145.8551  160.6424 H   0  0  0  0  0  0  0  0  0  0  0  0
  152.3471  146.2109  158.2006 H   0  0  0  0  0  0  0  0  0  0  0  0
  153.6934  145.1111  158.4932 H   0  0  0  0  0  0  0  0  0  0  0  0
  151.2002  144.6042  157.0269 H   0  0  0  0  0  0  0  0  0  0  0  0
  152.5348  143.4811  157.2004 H   0  0  0  0  0  0  0  0  0  0  0  0
  150.2021  142.8367  158.4352 H   0  0  0  0  0  0  0  0  0  0  0  0
  150.1139  144.2685  160.6402 H   0  0  0  0  0  0  0  0  0  0  0  0
  150.0566  145.3384  159.2214 H   0  0  0  0  0  0  0  0  0  0  0  0
  154.1207  139.3522  158.7328 H   0  0  0  0  0  0  0  0  0  0  0  0
  156.1037  138.7638  160.1763 H   0  0  0  0  0  0  0  0  0  0  0  0
  155.0548  139.0685  161.5418 H   0  0  0  0  0  0  0  0  0  0  0  0
  153.5971  137.2139  159.9515 H   0  0  0  0  0  0  0  0  0  0  0  0
  155.2420  136.6335  159.8801 H   0  0  0  0  0  0  0  0  0  0  0  0
  153.0882  138.1584  162.6586 H   0  0  0  0  0  0  0  0  0  0  0  0
  152.9422  137.0613  164.8999 H   0  0  0  0  0  0  0  0  0  0  0  0
  154.2051  134.9396  165.3114 H   0  0  0  0  0  0  0  0  0  0  0  0
  155.6094  133.9710  163.3983 H   0  0  0  0  0  0  0  0  0  0  0  0
  155.6554  135.0876  161.3709 H   0  0  0  0  0  0  0  0  0  0  0  0
  1  2  2  0  0  0  0
  2  3  1  0  0  0  0
  2 11  1  0  0  0  0
  3  4  1  0  0  0  0
  3 20  1  0  0  0  0
  3 21  1  0  0  0  0
  4  9  1  0  0  0  0
  4  5  1  0  0  0  0
  4 22  1  0  0  0  0
  5  6  1  0  0  0  0
  5 23  1  0  0  0  0
  5 24  1  0  0  0  0
  6 10  1  0  0  0  0
  6  7  1  0  0  0  0
  6 25  1  0  0  0  0
  7  8  1  0  0  0  0
  7 26  1  0  0  0  0
  7 27  1  0  0  0  0
  8  9  1  0  0  0  0
  8 28  1  0  0  0  0
  8 29  1  0  0  0  0
  9 10  1  0  0  0  0
  9 30  1  0  0  0  0
 10 31  1  0  0  0  0
 10 32  1  0  0  0  0
 11 12  1  0  0  0  0
 11 33  1  0  0  0  0
 12 13  1  0  0  0  0
 12 34  1  0  0  0  0
 12 35  1  0  0  0  0
 13 14  1  0  0  0  0
 13 36  1  0  0  0  0
 13 37  1  0  0  0  0
 14 19  1  0  0  0  0
 14 15  2  0  0  0  0
 15 16  1  0  0  0  0
 15 38  1  0  0  0  0
 16 17  2  0  0  0  0
 16 39  1  0  0  0  0
 17 18  1  0  0  0  0
 17 40  1  0  0  0  0
 18 19  2  0  0  0  0
 18 41  1  0  0  0  0
 19 42  1  0  0  0  0
M  CHG  1  19   1
M  END
> <s_m_source_file>
AV-unprocessed.smi

> <i_m_source_file_index>
3263

> <i_lp_mmshare_version>
43012

> <i_f3d_flags>
0

> <s_epik_input>
W0NIMl0xW0NIMl1bQ0BASF0oW0NIMl0yKVtDQEBIXShbQ0gyXVtDQEhdMTIpW0NIMl1DKD1PKVtOSF1bQ0gyXVtDSDJdYzNbY0hdW2NIXVtjSF1bY0hdbjM=

> <s_epik_cmdline>
J2VwaWtfcHl0aG9uJywgJy1waCcsICc3LjAnLCAnLXRuJywgJzgnLCAnLW1hJywgJzIwMCcsICctbWV0YWxfYmluZGluZycsICctaW1hZScsICc8aW5maWxlLm1hZT4nLCAnLW9tYWUnLCAnPG91dGZpbGUubWFlPic=

> <r_epik_Ionization_Penalty>
1.83579

> <r_epik_Ionization_Penalty_Charging>
1.83579

> <r_epik_Ionization_Penalty_Neutral>
2.47288e-08

> <r_epik_State_Penalty>
1.95213

> <r_epik_Charging_Adjusted_Penalty>
3.78793

> <i_epik_Tot_Q>
1

> <i_epik_Tot_abs_Q>
1

> <r_epik_Metal_State_Penalty>
1.97847

> <b_epik_Metal_Only>
0

> <s_lp_Force_Field>
OPLS_2005

> <r_lp_Energy>
51.7701

> <b_lp_Chiralities_Consistent>
1

> <s_lp_Variant>
AV-unprocessed.smi:3263-8

> <Gold.Version>
5.8.1

> <Gold.Id.Protein>
6NUR|6NUR_protein|mol2

> <Gold.PLP.Fitness>
44.2000

> <Gold.PLP.PLP>
-45.1677

> <Gold.PLP.part.hbond>
0.0000

> <Gold.PLP.part.metal>
0.0000

> <Gold.PLP.part.buried>
-6.4578

> <Gold.PLP.part.nonpolar>
-38.3651

> <Gold.PLP.part.repulsive>
0.1059

> <Gold.PLP.ligand.clash>
0.0000

> <Gold.PLP.ligand.torsion>
0.4953

> <Gold.PLP.Chemscore.Hbond>
0.0000

> <Gold.PLP.Chemscore.CHOScore>
0.0000

> <Gold.PLP.Chemscore.Metal>
0.0000

> <Gold.PLP.Chemscore.Internal.Correction>
0.0229

> <Gold.Rescore>
     Score         DG    S(hbond)    S(metal)    S(lipo)     H(rot)  DE(clash)    DE(int)     intcor
     16.07     -18.01       0.00        0.00     141.34       1.56       0.25       1.69       ----

> <Gold.Chemscore.Fitness>
16.0694

> <Gold.Chemscore.DG>
-18.0125

> <Gold.Chemscore.ZeroCoef>
-5.4800

> <Gold.Chemscore.Hbond>
0.0000

> <Gold.Chemscore.Metal>
0.0000

> <Gold.Chemscore.Lipo>
141.3359

> <Gold.Chemscore.Internal_Hbond>
0.0000

> <Gold.Chemscore.DEClash>
0.2503

> <Gold.Chemscore.DEInternal>
1.6928

> <Gold.Chemscore.Rot>
1.5640

> <Gold.Chemscore.Internal.Correction>
   9.000000E+99

> <Gold.Chemscore.Hbond.Weighted>
-0.0000

> <Gold.Chemscore.Metal.Weighted>
-0.0000

> <Gold.Chemscore.Lipo.Weighted>
-16.5363

> <Gold.Chemscore.Internal_Hbond.Weighted>
0.0000

> <Gold.Chemscore.DEClash.Weighted>
0.2503

> <Gold.Chemscore.DEInternal.Weighted>
1.6928

> <Gold.Chemscore.Rot.Weighted>
4.0038

> <Gold.Chemscore.Internal.Correction.Weighted>
   9.000000E+99

> <Gold.Protein.RotatedTorsions>
[ 6907 6896 6895 6894 ] final  -45.83 input  -60.11 | X-H torsion
[ 7974 7965 7964 7962 ] final  124.67 input  175.53 | X-H torsion
[ 8008 7997 7996 7995 ] final   32.52 input   59.86 | X-H torsion
[ 10167 10162 10161 10158 ] final   70.21 input  -65.29 | X-H torsion
[ 10718 10713 10712 10709 ] final   77.90 input   66.30 | X-H torsion
[ 10763 10752 10751 10750 ] final -108.86 input  -60.55 | X-H torsion
[ 11005 11000 10999 10996 ] final  -16.73 input  -57.11 | X-H torsion

> <Gold.Protein.ActiveResidues>
 VAL166  LYS551  ARG553  GLY616  TRP617  ASP618  TYR619  PRO620  LYS621  CYS622 
 ASP623  PHE694  ASN695  SER759  ASP760  ASP761  ALA762  ILE779  LEU786  VAL792 
 PHE793  MET794  SER795  GLU796  ALA797  LYS798  CYS799  TRP800  GLU811  SER814 

> <Gold.Protein.RotatedAtoms>
  150.9177  134.8594  159.7467 H   0  0  0  0  0  0  0  0  0  0  0  0  # atno 6907 bound_to 6896
  152.4977  134.4265  159.9508 H   0  0  0  0  0  0  0  0  0  0  0  0  # atno 6908 bound_to 6896
  151.4301  133.3633  159.2803 H   0  0  0  0  0  0  0  0  0  0  0  0  # atno 6909 bound_to 6896
  145.0817  139.3652  143.4905 H   0  0  0  0  0  0  0  0  0  0  0  0  # atno 7974 bound_to 7965
  155.1237  140.3250  155.4491 H   0  0  0  0  0  0  0  0  0  0  0  0  # atno 8008 bound_to 7997
  156.2655  140.2022  156.6307 H   0  0  0  0  0  0  0  0  0  0  0  0  # atno 8009 bound_to 7997
  154.6664  140.0541  157.0105 H   0  0  0  0  0  0  0  0  0  0  0  0  # atno 8010 bound_to 7997
  140.0594  144.5246  150.7305 H   0  0  0  0  0  0  0  0  0  0  0  0  # atno 10167 bound_to 10162
  157.6726  130.9843  150.1708 H   0  0  0  0  0  0  0  0  0  0  0  0  # atno 10718 bound_to 10713
  154.8160  135.4622  154.0644 H   0  0  0  0  0  0  0  0  0  0  0  0  # atno 10763 bound_to 10752
  153.2037  135.6872  153.8206 H   0  0  0  0  0  0  0  0  0  0  0  0  # atno 10764 bound_to 10752
  153.7681  135.3274  155.3325 H   0  0  0  0  0  0  0  0  0  0  0  0  # atno 10765 bound_to 10752
  140.8097  133.8150  155.9551 H   0  0  0  0  0  0  0  0  0  0  0  0  # atno 11005 bound_to 11000
  146.3531  140.0611  142.8629 LP  0  0  0  0  0  0  0  0  0  0  0  0  # atno 17320 bound_to 7965
  145.1170  140.9439  143.4623 LP  0  0  0  0  0  0  0  0  0  0  0  0  # atno 17321 bound_to 7965
  140.7179  143.2561  151.4374 LP  0  0  0  0  0  0  0  0  0  0  0  0  # atno 17342 bound_to 10162
  139.5903  144.1513  152.2080 LP  0  0  0  0  0  0  0  0  0  0  0  0  # atno 17343 bound_to 10162
  156.2463  130.3696  149.8281 LP  0  0  0  0  0  0  0  0  0  0  0  0  # atno 17370 bound_to 10713
  156.6067  130.8569  151.3444 LP  0  0  0  0  0  0  0  0  0  0  0  0  # atno 17371 bound_to 10713
  140.9210  134.2141  157.4926 LP  0  0  0  0  0  0  0  0  0  0  0  0  # atno 17394 bound_to 11000
  139.8715  134.9792  156.5028 LP  0  0  0  0  0  0  0  0  0  0  0  0  # atno 17395 bound_to 11000

$$$$
