AV-unprocessed.smi:2155|AV-procd|sdf|8778|dock1
  -GOLD-   2272011553D 1   1.00000     0.00000
 Structure written by MMmdl.
 42 43  0  0  0  0  0  0  0  0  1 V2000
  144.6792  141.3969  156.9629 C   0  0  0  0  0  0  0  0  0  0  0  0
  145.3330  142.1246  155.8949 N   0  0  0  0  0  0  0  0  0  0  0  0
  144.7433  143.3190  155.4140 C   0  0  0  0  0  0  0  0  0  0  0  0
  143.6911  143.7704  155.8674 O   0  0  0  0  0  0  0  0  0  0  0  0
  145.4896  143.9713  154.3447 C   0  0  0  0  0  0  0  0  0  0  0  0
  146.6479  143.4481  153.8869 C   0  0  0  0  0  0  0  0  0  0  0  0
  147.2074  142.2841  154.3818 N   0  0  0  0  0  0  0  0  0  0  0  0
  148.4678  141.7855  153.8160 C   0  0  0  0  0  0  0  0  0  0  0  0
  149.4773  141.3381  154.8826 C   0  0  0  0  0  0  0  0  0  0  0  0
  150.1085  140.2875  154.7581 O   0  0  0  0  0  0  0  0  0  0  0  0
  149.6316  142.1650  155.9257 N   0  0  0  0  0  0  0  0  0  0  0  0
  150.5421  141.9268  157.0389 C   0  0  0  0  0  0  0  0  0  0  0  0
  151.4307  143.1524  157.3122 C   0  0  0  0  0  0  0  0  0  0  0  0
  151.9303  143.2385  158.7469 C   0  0  0  0  0  0  0  0  0  0  0  0
  151.7763  144.3511  159.4911 C   0  0  0  0  0  0  0  0  0  0  0  0
  152.2377  144.4849  160.9316 C   0  0  0  0  0  0  0  0  0  0  0  0
  152.5844  143.1268  161.5644 C   0  0  0  0  0  0  0  0  0  0  0  0
  153.3923  142.2547  160.5954 C   0  0  0  0  0  0  0  0  0  0  0  0
  152.6115  141.9900  159.2957 C   0  0  0  0  0  0  0  0  0  0  0  0
  146.5490  141.5876  155.4176 C   0  0  0  0  0  0  0  0  0  0  0  0
  147.0282  140.5501  155.8828 O   0  0  0  0  0  0  0  0  0  0  0  0
  143.6781  141.7847  157.1492 H   0  0  0  0  0  0  0  0  0  0  0  0
  145.3038  141.5053  157.8509 H   0  0  0  0  0  0  0  0  0  0  0  0
  144.6017  140.3526  156.6546 H   0  0  0  0  0  0  0  0  0  0  0  0
  145.1095  144.8860  153.9136 H   0  0  0  0  0  0  0  0  0  0  0  0
  147.1609  143.9681  153.0908 H   0  0  0  0  0  0  0  0  0  0  0  0
  148.2684  140.9372  153.1595 H   0  0  0  0  0  0  0  0  0  0  0  0
  148.9221  142.5481  153.1804 H   0  0  0  0  0  0  0  0  0  0  0  0
  149.0783  143.0090  155.9560 H   0  0  0  0  0  0  0  0  0  0  0  0
  149.9636  141.6730  157.9283 H   0  0  0  0  0  0  0  0  0  0  0  0
  151.1707  141.0635  156.8158 H   0  0  0  0  0  0  0  0  0  0  0  0
  152.2929  143.1373  156.6449 H   0  0  0  0  0  0  0  0  0  0  0  0
  150.8750  144.0587  157.0675 H   0  0  0  0  0  0  0  0  0  0  0  0
  151.3053  145.2237  159.0625 H   0  0  0  0  0  0  0  0  0  0  0  0
  153.1091  145.1402  160.9455 H   0  0  0  0  0  0  0  0  0  0  0  0
  151.4597  144.9779  161.5150 H   0  0  0  0  0  0  0  0  0  0  0  0
  153.1373  143.2782  162.4919 H   0  0  0  0  0  0  0  0  0  0  0  0
  151.6656  142.6043  161.8336 H   0  0  0  0  0  0  0  0  0  0  0  0
  154.3314  142.7576  160.3598 H   0  0  0  0  0  0  0  0  0  0  0  0
  153.6589  141.3089  161.0678 H   0  0  0  0  0  0  0  0  0  0  0  0
  151.8448  141.2357  159.4752 H   0  0  0  0  0  0  0  0  0  0  0  0
  153.2868  141.5818  158.5430 H   0  0  0  0  0  0  0  0  0  0  0  0
  1  2  1  0  0  0  0
  1 22  1  0  0  0  0
  1 23  1  0  0  0  0
  1 24  1  0  0  0  0
  2 20  1  0  0  0  0
  2  3  1  0  0  0  0
  3  4  2  0  0  0  0
  3  5  1  0  0  0  0
  5  6  2  0  0  0  0
  5 25  1  0  0  0  0
  6  7  1  0  0  0  0
  6 26  1  0  0  0  0
  7  8  1  0  0  0  0
  7 20  1  0  0  0  0
  8  9  1  0  0  0  0
  8 27  1  0  0  0  0
  8 28  1  0  0  0  0
  9 10  2  0  0  0  0
  9 11  1  0  0  0  0
 11 12  1  0  0  0  0
 11 29  1  0  0  0  0
 12 13  1  0  0  0  0
 12 30  1  0  0  0  0
 12 31  1  0  0  0  0
 13 14  1  0  0  0  0
 13 32  1  0  0  0  0
 13 33  1  0  0  0  0
 14 19  1  0  0  0  0
 14 15  2  0  0  0  0
 15 16  1  0  0  0  0
 15 34  1  0  0  0  0
 16 17  1  0  0  0  0
 16 35  1  0  0  0  0
 16 36  1  0  0  0  0
 17 18  1  0  0  0  0
 17 37  1  0  0  0  0
 17 38  1  0  0  0  0
 18 19  1  0  0  0  0
 18 39  1  0  0  0  0
 18 40  1  0  0  0  0
 19 41  1  0  0  0  0
 19 42  1  0  0  0  0
 20 21  2  0  0  0  0
M  END
> <s_m_source_file>
AV-unprocessed.smi

> <i_m_source_file_index>
2155

> <i_lp_mmshare_version>
43012

> <i_f3d_flags>
0

> <s_epik_input>
W0NIM11uMWMoPU8pW2NIXVtjSF1uKGMxPU8pW0NIMl1DKD1PKVtOSF1bQ0gyXVtDSDJdQzI9W0NIXVtDSDJdW0NIMl1bQ0gyXVtDSDJdMg==

> <s_epik_cmdline>
J2VwaWtfcHl0aG9uJywgJy1waCcsICc3LjAnLCAnLXRuJywgJzgnLCAnLW1hJywgJzIwMCcsICctbWV0YWxfYmluZGluZycsICctaW1hZScsICc8aW5maWxlLm1hZT4nLCAnLW9tYWUnLCAnPG91dGZpbGUubWFlPic=

> <r_lp_tautomer_probability>
1

> <r_epik_Ionization_Penalty>
3.01725e-08

> <r_epik_Ionization_Penalty_Charging>
1.20689e-08

> <r_epik_Ionization_Penalty_Neutral>
1.81035e-08

> <r_epik_State_Penalty>
-0

> <r_epik_Charging_Adjusted_Penalty>
1.20689e-08

> <i_epik_Tot_Q>
0

> <i_epik_Tot_abs_Q>
0

> <r_epik_Metal_State_Penalty>
-0

> <b_epik_Metal_Only>
0

> <s_lp_Force_Field>
OPLS_2005

> <r_lp_Energy>
16.2907

> <b_lp_Chiralities_Consistent>
1

> <s_lp_Variant>
AV-unprocessed.smi:2155-1

> <Gold.Version>
5.8.1

> <Gold.Id.Protein>
6NUR|6NUR_protein|mol2

> <Gold.PLP.Fitness>
52.0752

> <Gold.PLP.PLP>
-47.6508

> <Gold.PLP.part.hbond>
-2.0000

> <Gold.PLP.part.metal>
0.0000

> <Gold.PLP.part.buried>
-4.2502

> <Gold.PLP.part.nonpolar>
-41.6450

> <Gold.PLP.part.repulsive>
0.2922

> <Gold.PLP.ligand.clash>
0.0000

> <Gold.PLP.ligand.torsion>
0.6274

> <Gold.PLP.Chemscore.Hbond>
1.8480

> <Gold.PLP.Chemscore.CHOScore>
0.0000

> <Gold.PLP.Chemscore.Metal>
0.0000

> <Gold.Chemscore.Hbonds>
donor molecule, donor type, donor heavy atom, donor atom, acceptor molecule, acceptor atom, score
      L1  H    11    29       P1  8028  1.00
      P1  H  7989  7998       L1    10  0.94

> <Gold.PLP.Chemscore.Internal.Correction>
0.1351

> <Gold.Rescore>
     Score         DG    S(hbond)    S(metal)    S(lipo)     H(rot)  DE(clash)    DE(int)     intcor
     16.23     -17.90       1.49        0.00     106.16       1.94       0.36       1.31       ----

> <Gold.Chemscore.Fitness>
16.2284

> <Gold.Chemscore.DG>
-17.8979

> <Gold.Chemscore.ZeroCoef>
-5.4800

> <Gold.Chemscore.Hbond>
1.4853

> <Gold.Chemscore.Metal>
0.0000

> <Gold.Chemscore.Lipo>
106.1626

> <Gold.Chemscore.Internal_Hbond>
0.0000

> <Gold.Chemscore.DEClash>
0.3605

> <Gold.Chemscore.DEInternal>
1.3090

> <Gold.Chemscore.Rot>
1.9390

> <Gold.Chemscore.Internal.Correction>
   9.000000E+99

> <Gold.Chemscore.Hbonds>
donor molecule, donor type, donor heavy atom, donor atom, acceptor molecule, acceptor atom, score
      L1  H    11    29       P1  8028  0.95
      P1  H  7989  7998       L1    10  0.26

> <Gold.Chemscore.Hbond.Weighted>
-4.9608

> <Gold.Chemscore.Metal.Weighted>
-0.0000

> <Gold.Chemscore.Lipo.Weighted>
-12.4210

> <Gold.Chemscore.Internal_Hbond.Weighted>
0.0000

> <Gold.Chemscore.DEClash.Weighted>
0.3605

> <Gold.Chemscore.DEInternal.Weighted>
1.3090

> <Gold.Chemscore.Rot.Weighted>
4.9639

> <Gold.Chemscore.Internal.Correction.Weighted>
   9.000000E+99

> <Gold.Protein.RotatedTorsions>
[ 6907 6896 6895 6894 ] final  168.96 input  -60.11 | X-H torsion
[ 7974 7965 7964 7962 ] final  161.74 input  175.53 | X-H torsion
[ 8008 7997 7996 7995 ] final  -29.58 input   59.86 | X-H torsion
[ 10167 10162 10161 10158 ] final  -75.60 input  -65.29 | X-H torsion
[ 10718 10713 10712 10709 ] final  121.60 input   66.30 | X-H torsion
[ 10763 10752 10751 10750 ] final   93.71 input  -60.55 | X-H torsion
[ 11005 11000 10999 10996 ] final  -36.34 input  -57.11 | X-H torsion

> <Gold.Protein.ActiveResidues>
 VAL166  LYS551  ARG553  GLY616  TRP617  ASP618  TYR619  PRO620  LYS621  CYS622 
 ASP623  PHE694  ASN695  SER759  ASP760  ASP761  ALA762  ILE779  LEU786  VAL792 
 PHE793  MET794  SER795  GLU796  ALA797  LYS798  CYS799  TRP800  GLU811  SER814 

> <Gold.Protein.RotatedAtoms>
  151.8395  133.3421  159.3638 H   0  0  0  0  0  0  0  0  0  0  0  0  # atno 6907 bound_to 6896
  150.7239  134.5405  159.5754 H   0  0  0  0  0  0  0  0  0  0  0  0  # atno 6908 bound_to 6896
  152.2876  134.7759  160.0435 H   0  0  0  0  0  0  0  0  0  0  0  0  # atno 6909 bound_to 6896
  144.7671  139.7940  143.6311 H   0  0  0  0  0  0  0  0  0  0  0  0  # atno 7974 bound_to 7965
  154.4284  140.1814  156.1271 H   0  0  0  0  0  0  0  0  0  0  0  0  # atno 8008 bound_to 7997
  156.0097  140.3352  155.6903 H   0  0  0  0  0  0  0  0  0  0  0  0  # atno 8009 bound_to 7997
  155.6127  140.0651  157.2692 H   0  0  0  0  0  0  0  0  0  0  0  0  # atno 8010 bound_to 7997
  140.4929  143.2376  151.7878 H   0  0  0  0  0  0  0  0  0  0  0  0  # atno 10167 bound_to 10162
  157.5806  131.1075  150.8195 H   0  0  0  0  0  0  0  0  0  0  0  0  # atno 10718 bound_to 10713
  153.2334  135.4315  155.0620 H   0  0  0  0  0  0  0  0  0  0  0  0  # atno 10763 bound_to 10752
  154.8307  135.3385  154.6754 H   0  0  0  0  0  0  0  0  0  0  0  0  # atno 10764 bound_to 10752
  153.7181  135.7018  153.5076 H   0  0  0  0  0  0  0  0  0  0  0  0  # atno 10765 bound_to 10752
  140.9867  133.7027  156.1778 H   0  0  0  0  0  0  0  0  0  0  0  0  # atno 11005 bound_to 11000
  146.1787  139.4969  142.9880 LP  0  0  0  0  0  0  0  0  0  0  0  0  # atno 17320 bound_to 7965
  145.6437  141.0278  143.1798 LP  0  0  0  0  0  0  0  0  0  0  0  0  # atno 17321 bound_to 7965
  139.4855  144.4626  151.9523 LP  0  0  0  0  0  0  0  0  0  0  0  0  # atno 17342 bound_to 10162
  140.3713  144.2852  150.5919 LP  0  0  0  0  0  0  0  0  0  0  0  0  # atno 17343 bound_to 10162
  156.8643  130.5124  149.5301 LP  0  0  0  0  0  0  0  0  0  0  0  0  # atno 17370 bound_to 10713
  156.0851  130.5852  150.9634 LP  0  0  0  0  0  0  0  0  0  0  0  0  # atno 17371 bound_to 10713
  140.7103  134.4468  157.5582 LP  0  0  0  0  0  0  0  0  0  0  0  0  # atno 17394 bound_to 11000
  139.8974  134.8638  156.2047 LP  0  0  0  0  0  0  0  0  0  0  0  0  # atno 17395 bound_to 11000

$$$$
