AV-unprocessed.smi:114|AV-procd|sdf|1122|dock3
  -GOLD-   2262018243D 1   1.00000     0.00000
 Structure written by MMmdl.
 32 34  0  0  0  0  0  0  0  0  1 V2000
  154.5466  141.4982  160.3531 N   0  0  0  0  0  0  0  0  0  0  0  0
  153.5517  142.0207  159.6224 C   0  0  0  0  0  0  0  0  0  0  0  0
  153.0621  143.2328  159.9740 N   0  0  0  0  0  0  0  0  0  0  0  0
  152.0674  143.7910  159.2720 C   0  0  0  0  0  0  0  0  0  0  0  0
  151.6405  145.0038  159.6954 F   0  0  0  0  0  0  0  0  0  0  0  0
  151.4475  143.2854  158.1994 N   0  0  0  0  0  0  0  0  0  0  0  0
  151.9414  142.0646  157.8433 C   0  0  0  0  0  0  0  0  0  0  0  0
  152.9874  141.3648  158.5010 C   0  0  0  0  0  0  0  0  0  0  0  0
  153.2181  140.1519  157.8645 N   0  0  0  0  0  0  0  0  0  0  0  0
  152.3530  140.1414  156.8847 C   0  0  0  0  0  0  0  0  0  0  0  0
  151.5475  141.2573  156.8004 N   0  0  0  0  0  0  0  0  0  0  0  0
  150.4653  141.5635  155.8176 C   0  0  1  0  0  0  0  0  0  0  0  0
  150.3646  140.5095  154.9188 O   0  0  0  0  0  0  0  0  0  0  0  0
  149.0542  140.5147  154.3642 C   0  0  1  0  0  0  0  0  0  0  0  0
  148.6159  139.0696  154.0648 C   0  0  0  0  0  0  0  0  0  0  0  0
  147.9287  138.9717  152.8340 O   0  0  0  0  0  0  0  0  0  0  0  0
  148.1533  141.3114  155.3342 C   0  0  2  0  0  0  0  0  0  0  0  0
  147.6805  142.4773  154.6863 O   0  0  0  0  0  0  0  0  0  0  0  0
  149.0870  141.7001  156.4762 C   0  0  1  0  0  0  0  0  0  0  0  0
  148.9158  140.8389  157.5877 O   0  0  0  0  0  0  0  0  0  0  0  0
  150.7839  142.4676  155.2959 H   0  0  0  0  0  0  0  0  0  0  0  0
  149.1350  141.0444  153.4129 H   0  0  0  0  0  0  0  0  0  0  0  0
  147.2889  140.7454  155.6839 H   0  0  0  0  0  0  0  0  0  0  0  0
  148.9440  142.7264  156.8177 H   0  0  0  0  0  0  0  0  0  0  0  0
  154.9275  140.5946  160.1105 H   0  0  0  0  0  0  0  0  0  0  0  0
  154.9143  142.0080  161.1434 H   0  0  0  0  0  0  0  0  0  0  0  0
  152.2744  139.3128  156.1954 H   0  0  0  0  0  0  0  0  0  0  0  0
  149.4930  138.4243  154.0094 H   0  0  0  0  0  0  0  0  0  0  0  0
  147.9862  138.6839  154.8669 H   0  0  0  0  0  0  0  0  0  0  0  0
  148.5377  139.1509  152.1339 H   0  0  0  0  0  0  0  0  0  0  0  0
  148.0745  143.2306  155.0987 H   0  0  0  0  0  0  0  0  0  0  0  0
  149.3044  140.0032  157.3782 H   0  0  0  0  0  0  0  0  0  0  0  0
  1  2  1  0  0  0  0
  1 25  1  0  0  0  0
  1 26  1  0  0  0  0
  2  8  1  0  0  0  0
  2  3  2  0  0  0  0
  3  4  1  0  0  0  0
  4  5  1  0  0  0  0
  4  6  2  0  0  0  0
  6  7  1  0  0  0  0
  7 11  1  0  0  0  0
  7  8  2  0  0  0  0
  8  9  1  0  0  0  0
  9 10  2  0  0  0  0
 10 11  1  0  0  0  0
 10 27  1  0  0  0  0
 11 12  1  0  0  0  0
 12 21  1  0  0  0  0
 12 19  1  0  0  0  0
 12 13  1  0  0  0  0
 13 14  1  0  0  0  0
 14 22  1  0  0  0  0
 14 15  1  0  0  0  0
 14 17  1  0  0  0  0
 15 16  1  0  0  0  0
 15 28  1  0  0  0  0
 15 29  1  0  0  0  0
 16 30  1  0  0  0  0
 17 23  1  0  0  0  0
 17 18  1  0  0  0  0
 17 19  1  0  0  0  0
 18 31  1  0  0  0  0
 19 24  1  0  0  0  0
 19 20  1  0  0  0  0
 20 32  1  0  0  0  0
M  END
> <s_m_source_file>
AV-unprocessed.smi

> <i_m_source_file_index>
114

> <i_lp_mmshare_version>
43012

> <i_f3d_flags>
0

> <s_epik_input>
RmMobjEpbmMoW05IMl0pYyhjMTIpbltjSF1uMltDQEBIXTNPW0NASF0oW0NIMl1bT0hdKVtDQEBIXShbT0hdKVtDQEBIXTNbT0hd

> <s_epik_cmdline>
J2VwaWtfcHl0aG9uJywgJy1waCcsICc3LjAnLCAnLXRuJywgJzgnLCAnLW1hJywgJzIwMCcsICctbWV0YWxfYmluZGluZycsICctaW1hZScsICc8aW5maWxlLm1hZT4nLCAnLW9tYWUnLCAnPG91dGZpbGUubWFlPic=

> <r_lp_tautomer_probability>
1

> <r_epik_Ionization_Penalty>
1.13199e-05

> <r_epik_Ionization_Penalty_Charging>
0

> <r_epik_Ionization_Penalty_Neutral>
1.13199e-05

> <r_epik_State_Penalty>
-0

> <r_epik_Charging_Adjusted_Penalty>
0

> <i_epik_Tot_Q>
0

> <i_epik_Tot_abs_Q>
0

> <r_epik_Metal_State_Penalty>
-0

> <b_epik_Metal_Only>
0

> <s_epik_Chemistry_Notes>
This compound contains an acetal/aminal-like group ( X-CH(R)-Y where X, Y are N, S, or O) that may be acid/base labile, releasing an aldehyde.

> <s_lp_Force_Field>
OPLS_2005

> <r_lp_Energy>
41.8757

> <b_lp_Chiralities_Consistent>
1

> <s_lp_Variant>
AV-unprocessed.smi:114-16

> <Gold.Version>
5.8.1

> <Gold.Id.Protein>
6NUR|6NUR_protein|mol2

> <Gold.PLP.Fitness>
47.4900

> <Gold.PLP.PLP>
-36.9333

> <Gold.PLP.part.hbond>
-5.0000

> <Gold.PLP.part.metal>
0.0000

> <Gold.PLP.part.buried>
-5.7474

> <Gold.PLP.part.nonpolar>
-25.1694

> <Gold.PLP.part.repulsive>
0.1899

> <Gold.PLP.ligand.clash>
0.0000

> <Gold.PLP.ligand.torsion>
0.5691

> <Gold.PLP.Chemscore.Hbond>
3.8960

> <Gold.PLP.Chemscore.CHOScore>
0.0000

> <Gold.PLP.Chemscore.Metal>
0.0000

> <Gold.Chemscore.Hbonds>
donor molecule, donor type, donor heavy atom, donor atom, acceptor molecule, acceptor atom, score
      L1  H    16    30       P1  7957  1.00
      L1  H    18    31       P1  8028  1.00
      P1  H  7989  7998       L1    13  0.99
      P1  H  7997  8009       L1     9  0.77

> <Gold.PLP.Chemscore.Internal.Correction>
0.0068

> <Gold.Rescore>
     Score         DG    S(hbond)    S(metal)    S(lipo)     H(rot)  DE(clash)    DE(int)     intcor
      7.32      -8.01       2.71        0.00      32.31       4.03       0.25       0.45       ----

> <Gold.Chemscore.Fitness>
7.3163

> <Gold.Chemscore.DG>
-8.0123

> <Gold.Chemscore.ZeroCoef>
-5.4800

> <Gold.Chemscore.Hbond>
2.7135

> <Gold.Chemscore.Metal>
0.0000

> <Gold.Chemscore.Lipo>
32.3089

> <Gold.Chemscore.Internal_Hbond>
0.0000

> <Gold.Chemscore.DEClash>
0.2476

> <Gold.Chemscore.DEInternal>
0.4484

> <Gold.Chemscore.Rot>
4.0277

> <Gold.Chemscore.Internal.Correction>
   9.000000E+99

> <Gold.Chemscore.Hbonds>
donor molecule, donor type, donor heavy atom, donor atom, acceptor molecule, acceptor atom, score
      L1  H    16    30       P1  7957  0.99
      L1  H    18    31       P1  8028  0.88
      P1  H  7989  7998       L1    13  0.33
      P1  H  7997  8009       L1     9  0.37

> <Gold.Chemscore.Hbond.Weighted>
-9.0632

> <Gold.Chemscore.Metal.Weighted>
-0.0000

> <Gold.Chemscore.Lipo.Weighted>
-3.7801

> <Gold.Chemscore.Internal_Hbond.Weighted>
0.0000

> <Gold.Chemscore.DEClash.Weighted>
0.2476

> <Gold.Chemscore.DEInternal.Weighted>
0.4484

> <Gold.Chemscore.Rot.Weighted>
10.3110

> <Gold.Chemscore.Internal.Correction.Weighted>
   9.000000E+99

> <Gold.Protein.RotatedTorsions>
[ 6907 6896 6895 6894 ] final  139.01 input  -60.11 | X-H torsion
[ 7974 7965 7964 7962 ] final  -33.29 input  175.53 | X-H torsion
[ 8008 7997 7996 7995 ] final  142.49 input   59.86 | X-H torsion
[ 10167 10162 10161 10158 ] final   13.90 input  -65.29 | X-H torsion
[ 10718 10713 10712 10709 ] final  -75.45 input   66.30 | X-H torsion
[ 10763 10752 10751 10750 ] final   38.06 input  -60.55 | X-H torsion
[ 11005 11000 10999 10996 ] final  153.72 input  -57.11 | X-H torsion

> <Gold.Protein.ActiveResidues>
 VAL166  LYS551  ARG553  GLY616  TRP617  ASP618  TYR619  PRO620  LYS621  CYS622 
 ASP623  PHE694  ASN695  SER759  ASP760  ASP761  ALA762  ILE779  LEU786  VAL792 
 PHE793  MET794  SER795  GLU796  ALA797  LYS798  CYS799  TRP800  GLU811  SER814 

> <Gold.Protein.RotatedAtoms>
  152.2600  133.5289  159.5375 H   0  0  0  0  0  0  0  0  0  0  0  0  # atno 6907 bound_to 6896
  150.7122  134.0843  159.3918 H   0  0  0  0  0  0  0  0  0  0  0  0  # atno 6908 bound_to 6896
  151.8761  135.0471  160.0535 H   0  0  0  0  0  0  0  0  0  0  0  0  # atno 6909 bound_to 6896
  146.0922  140.5898  142.8859 H   0  0  0  0  0  0  0  0  0  0  0  0  # atno 7974 bound_to 7965
  156.2948  140.2287  156.4737 H   0  0  0  0  0  0  0  0  0  0  0  0  # atno 8008 bound_to 7997
  154.7913  140.0454  157.1224 H   0  0  0  0  0  0  0  0  0  0  0  0  # atno 8009 bound_to 7997
  154.9642  140.3058  155.5020 H   0  0  0  0  0  0  0  0  0  0  0  0  # atno 8010 bound_to 7997
  140.5972  143.8678  150.6929 H   0  0  0  0  0  0  0  0  0  0  0  0  # atno 10167 bound_to 10162
  156.0207  130.4441  150.3044 H   0  0  0  0  0  0  0  0  0  0  0  0  # atno 10718 bound_to 10713
  153.0014  135.6260  154.2245 H   0  0  0  0  0  0  0  0  0  0  0  0  # atno 10763 bound_to 10752
  154.1987  135.2805  155.2999 H   0  0  0  0  0  0  0  0  0  0  0  0  # atno 10764 bound_to 10752
  154.5701  135.5679  153.7146 H   0  0  0  0  0  0  0  0  0  0  0  0  # atno 10765 bound_to 10752
  140.1424  134.8730  157.2348 H   0  0  0  0  0  0  0  0  0  0  0  0  # atno 11005 bound_to 11000
  144.7368  140.4832  143.6897 LP  0  0  0  0  0  0  0  0  0  0  0  0  # atno 17320 bound_to 7965
  145.6017  139.1504  143.3125 LP  0  0  0  0  0  0  0  0  0  0  0  0  # atno 17321 bound_to 7965
  140.2215  143.3805  152.1639 LP  0  0  0  0  0  0  0  0  0  0  0  0  # atno 17342 bound_to 10162
  139.5266  144.7109  151.5207 LP  0  0  0  0  0  0  0  0  0  0  0  0  # atno 17343 bound_to 10162
  157.1147  131.0230  151.3034 LP  0  0  0  0  0  0  0  0  0  0  0  0  # atno 17370 bound_to 10713
  157.4676  130.7690  149.7294 LP  0  0  0  0  0  0  0  0  0  0  0  0  # atno 17371 bound_to 10713
  140.2706  134.3465  155.7375 LP  0  0  0  0  0  0  0  0  0  0  0  0  # atno 17394 bound_to 11000
  141.2188  133.7421  156.9217 LP  0  0  0  0  0  0  0  0  0  0  0  0  # atno 17395 bound_to 11000

$$$$
