AV-unprocessed.smi:46|AV-procd|sdf|419|dock5
  -GOLD-   2262016293D 1   1.00000     0.00000
 Structure written by MMmdl.
 35 36  0  0  0  0  0  0  0  0  2 V2000
  152.3172  144.9132  158.5607 C   0  0  0  0  0  0  0  0  0  0  0  0
  151.5455  143.7765  159.2478 C   0  0  0  0  0  0  0  0  0  0  0  0
  152.1689  143.3903  160.5974 C   0  0  0  0  0  0  0  0  0  0  0  0
  151.4447  142.6170  158.3746 N   0  0  0  0  0  0  0  0  0  0  0  0
  151.0255  142.5584  157.0612 C   0  0  0  0  0  0  0  0  0  0  0  0
  151.1045  141.2545  156.6572 C   0  0  0  0  0  0  0  0  0  0  0  0
  150.7608  140.6454  155.3223 C   0  0  2  0  0  0  0  0  0  0  0  0
  149.2994  140.8552  154.9232 C   0  0  0  0  0  0  0  0  0  0  0  0
  149.0458  139.8585  153.8689 N   0  3  0  0  0  0  0  0  0  0  0  0
  150.0364  138.7722  154.0227 C   0  0  0  0  0  0  0  0  0  0  0  0
  150.8941  139.1217  155.2529 C   0  0  1  0  0  0  0  0  0  0  0  0
  152.3469  138.6213  155.1704 C   0  0  0  0  0  0  0  0  0  0  0  0
  152.3771  137.2107  155.2049 O   0  0  0  0  0  0  0  0  0  0  0  0
  151.5922  140.5834  157.8142 C   0  0  0  0  0  0  0  0  0  0  0  0
  151.7958  141.3979  158.8355 N   0  0  0  0  0  0  0  0  0  0  0  0
  151.3879  141.0805  154.5417 H   0  0  0  0  0  0  0  0  0  0  0  0
  150.4137  138.6909  156.1337 H   0  0  0  0  0  0  0  0  0  0  0  0
  152.3433  145.8035  159.1894 H   0  0  0  0  0  0  0  0  0  0  0  0
  151.8480  145.1911  157.6164 H   0  0  0  0  0  0  0  0  0  0  0  0
  153.3480  144.6272  158.3493 H   0  0  0  0  0  0  0  0  0  0  0  0
  150.5339  144.1375  159.4431 H   0  0  0  0  0  0  0  0  0  0  0  0
  152.1898  144.2432  161.2761 H   0  0  0  0  0  0  0  0  0  0  0  0
  153.1933  143.0364  160.4778 H   0  0  0  0  0  0  0  0  0  0  0  0
  151.5964  142.5984  161.0812 H   0  0  0  0  0  0  0  0  0  0  0  0
  150.7075  143.4422  156.5278 H   0  0  0  0  0  0  0  0  0  0  0  0
  148.6348  140.6333  155.7594 H   0  0  0  0  0  0  0  0  0  0  0  0
  149.0902  141.8710  154.5869 H   0  0  0  0  0  0  0  0  0  0  0  0
  148.1039  139.5015  153.9435 H   0  0  0  0  0  0  0  0  0  0  0  0
  149.5453  137.8046  154.1311 H   0  0  0  0  0  0  0  0  0  0  0  0
  150.6438  138.7376  153.1173 H   0  0  0  0  0  0  0  0  0  0  0  0
  152.8348  138.9724  154.2606 H   0  0  0  0  0  0  0  0  0  0  0  0
  152.9259  138.9986  156.0137 H   0  0  0  0  0  0  0  0  0  0  0  0
  151.4966  136.8935  155.3397 H   0  0  0  0  0  0  0  0  0  0  0  0
  151.8031  139.5318  157.9407 H   0  0  0  0  0  0  0  0  0  0  0  0
  149.1767  140.2883  152.9643 H   0  0  0  0  0  0  0  0  0  0  0  0
  1  2  1  0  0  0  0
  1 18  1  0  0  0  0
  1 19  1  0  0  0  0
  1 20  1  0  0  0  0
  2  3  1  0  0  0  0
  2  4  1  0  0  0  0
  2 21  1  0  0  0  0
  3 22  1  0  0  0  0
  3 23  1  0  0  0  0
  3 24  1  0  0  0  0
  4 15  1  0  0  0  0
  4  5  1  0  0  0  0
  5  6  2  0  0  0  0
  5 25  1  0  0  0  0
  6  7  1  0  0  0  0
  6 14  1  0  0  0  0
  7 16  1  0  0  0  0
  7 11  1  0  0  0  0
  7  8  1  0  0  0  0
  8  9  1  0  0  0  0
  8 26  1  0  0  0  0
  8 27  1  0  0  0  0
  9 10  1  0  0  0  0
  9 28  1  0  0  0  0
  9 35  1  0  0  0  0
 10 11  1  0  0  0  0
 10 29  1  0  0  0  0
 10 30  1  0  0  0  0
 11 17  1  0  0  0  0
 11 12  1  0  0  0  0
 12 13  1  0  0  0  0
 12 31  1  0  0  0  0
 12 32  1  0  0  0  0
 13 33  1  0  0  0  0
 14 15  2  0  0  0  0
 14 34  1  0  0  0  0
M  CHG  1   9   1
M  END
> <s_m_source_file>
AV-unprocessed.smi

> <i_m_source_file_index>
46

> <i_lp_mmshare_version>
43012

> <i_f3d_flags>
0

> <s_epik_input>
W0NIM11bQ0hdKFtDSDNdKW4xW2NIXWMoW2NIXW4xKVtDQEBIXTJbQ0gyXVtOSF1bQ0gyXVtDQEhdMltDSDJdW09IXQ==

> <s_epik_cmdline>
J2VwaWtfcHl0aG9uJywgJy1waCcsICc3LjAnLCAnLXRuJywgJzgnLCAnLW1hJywgJzIwMCcsICctbWV0YWxfYmluZGluZycsICctaW1hZScsICc8aW5maWxlLm1hZT4nLCAnLW9tYWUnLCAnPG91dGZpbGUubWFlPic=

> <r_lp_tautomer_probability>
1

> <r_epik_Ionization_Penalty>
0.000236226

> <r_epik_Ionization_Penalty_Charging>
0.00021985

> <r_epik_Ionization_Penalty_Neutral>
1.63752e-05

> <r_epik_State_Penalty>
-0

> <r_epik_Charging_Adjusted_Penalty>
0.00021985

> <i_epik_Tot_Q>
1

> <i_epik_Tot_abs_Q>
1

> <r_epik_Metal_State_Penalty>
-0

> <b_epik_Metal_Only>
0

> <s_lp_Force_Field>
OPLS_2005

> <r_lp_Energy>
29.3902

> <b_lp_Chiralities_Consistent>
1

> <s_lp_Variant>
AV-unprocessed.smi:46-1

> <Gold.Version>
5.8.1

> <Gold.Id.Protein>
6NUR|6NUR_protein|mol2

> <Gold.PLP.Fitness>
44.2710

> <Gold.PLP.PLP>
-35.7620

> <Gold.PLP.part.hbond>
-2.0000

> <Gold.PLP.part.metal>
0.0000

> <Gold.PLP.part.buried>
-3.3529

> <Gold.PLP.part.nonpolar>
-31.0919

> <Gold.PLP.part.repulsive>
0.1222

> <Gold.PLP.ligand.clash>
0.0000

> <Gold.PLP.ligand.torsion>
0.1337

> <Gold.PLP.Chemscore.Hbond>
1.9120

> <Gold.PLP.Chemscore.CHOScore>
1.0000

> <Gold.PLP.Chemscore.Metal>
0.0000

> <Gold.Chemscore.Hbonds>
donor molecule, donor type, donor heavy atom, donor atom, acceptor molecule, acceptor atom, score
      L1  H     9    35       P1  7957  0.94
      P1  H 10752 10764       L1    13  0.47
      L1  C     5    25       P1  8028  1.00

> <Gold.PLP.Chemscore.Internal.Correction>
0.0404

> <Gold.Rescore>
     Score         DG    S(hbond)    S(metal)    S(lipo)     H(rot)  DE(clash)    DE(int)     intcor
     18.03     -18.18       1.94        0.00      94.57       1.90       0.08       0.07       ----

> <Gold.Chemscore.Fitness>
18.0290

> <Gold.Chemscore.DG>
-18.1778

> <Gold.Chemscore.ZeroCoef>
-5.4800

> <Gold.Chemscore.Hbond>
1.9434

> <Gold.Chemscore.Metal>
0.0000

> <Gold.Chemscore.Lipo>
94.5698

> <Gold.Chemscore.Internal_Hbond>
0.0000

> <Gold.Chemscore.DEClash>
0.0824

> <Gold.Chemscore.DEInternal>
0.0664

> <Gold.Chemscore.Rot>
1.8976

> <Gold.Chemscore.Internal.Correction>
   9.000000E+99

> <Gold.Chemscore.Hbonds>
donor molecule, donor type, donor heavy atom, donor atom, acceptor molecule, acceptor atom, score
      L1  H     9    35       P1  7957  0.91
      P1  H 10752 10764       L1    13  0.04

> <Gold.Chemscore.Hbond.Weighted>
-6.4910

> <Gold.Chemscore.Metal.Weighted>
-0.0000

> <Gold.Chemscore.Lipo.Weighted>
-11.0647

> <Gold.Chemscore.Internal_Hbond.Weighted>
0.0000

> <Gold.Chemscore.DEClash.Weighted>
0.0824

> <Gold.Chemscore.DEInternal.Weighted>
0.0664

> <Gold.Chemscore.Rot.Weighted>
4.8579

> <Gold.Chemscore.Internal.Correction.Weighted>
   9.000000E+99

> <Gold.Protein.RotatedTorsions>
[ 6907 6896 6895 6894 ] final  149.84 input  -60.11 | X-H torsion
[ 7974 7965 7964 7962 ] final  138.46 input  175.53 | X-H torsion
[ 8008 7997 7996 7995 ] final -108.33 input   59.86 | X-H torsion
[ 10167 10162 10161 10158 ] final  -59.42 input  -65.29 | X-H torsion
[ 10718 10713 10712 10709 ] final  122.80 input   66.30 | X-H torsion
[ 10763 10752 10751 10750 ] final  -52.70 input  -60.55 | X-H torsion
[ 11005 11000 10999 10996 ] final  153.21 input  -57.11 | X-H torsion

> <Gold.Protein.ActiveResidues>
 VAL166  LYS551  ARG553  GLY616  TRP617  ASP618  TYR619  PRO620  LYS621  CYS622 
 ASP623  PHE694  ASN695  SER759  ASP760  ASP761  ALA762  ILE779  LEU786  VAL792 
 PHE793  MET794  SER795  GLU796  ALA797  LYS798  CYS799  TRP800  GLU811  SER814 

> <Gold.Protein.RotatedAtoms>
  152.1225  133.4361  159.4682 H   0  0  0  0  0  0  0  0  0  0  0  0  # atno 6907 bound_to 6896
  150.6873  134.2518  159.4523 H   0  0  0  0  0  0  0  0  0  0  0  0  # atno 6908 bound_to 6896
  152.0395  134.9719  160.0624 H   0  0  0  0  0  0  0  0  0  0  0  0  # atno 6909 bound_to 6896
  144.9370  139.4977  143.5590 H   0  0  0  0  0  0  0  0  0  0  0  0  # atno 7974 bound_to 7965
  154.9426  140.0402  157.2104 H   0  0  0  0  0  0  0  0  0  0  0  0  # atno 8008 bound_to 7997
  154.8054  140.2859  155.5869 H   0  0  0  0  0  0  0  0  0  0  0  0  # atno 8009 bound_to 7997
  156.2966  140.2547  156.2931 H   0  0  0  0  0  0  0  0  0  0  0  0  # atno 8010 bound_to 7997
  140.6136  143.2395  151.5651 H   0  0  0  0  0  0  0  0  0  0  0  0  # atno 10167 bound_to 10162
  157.5714  131.1083  150.8359 H   0  0  0  0  0  0  0  0  0  0  0  0  # atno 10718 bound_to 10713
  154.1470  135.6496  153.4955 H   0  0  0  0  0  0  0  0  0  0  0  0  # atno 10763 bound_to 10752
  153.0149  135.5329  154.6847 H   0  0  0  0  0  0  0  0  0  0  0  0  # atno 10764 bound_to 10752
  154.6124  135.2955  155.0388 H   0  0  0  0  0  0  0  0  0  0  0  0  # atno 10765 bound_to 10752
  140.1377  134.8759  157.2290 H   0  0  0  0  0  0  0  0  0  0  0  0  # atno 11005 bound_to 11000
  146.3270  139.8362  142.8899 LP  0  0  0  0  0  0  0  0  0  0  0  0  # atno 17320 bound_to 7965
  145.3051  141.0205  143.3587 LP  0  0  0  0  0  0  0  0  0  0  0  0  # atno 17321 bound_to 7965
  139.5381  144.2725  152.1293 LP  0  0  0  0  0  0  0  0  0  0  0  0  # atno 17342 bound_to 10162
  140.1929  144.4733  150.6469 LP  0  0  0  0  0  0  0  0  0  0  0  0  # atno 17343 bound_to 10162
  156.8829  130.5186  149.5290 LP  0  0  0  0  0  0  0  0  0  0  0  0  # atno 17370 bound_to 10713
  156.0760  130.5782  150.9474 LP  0  0  0  0  0  0  0  0  0  0  0  0  # atno 17371 bound_to 10713
  140.2761  134.3404  155.7358 LP  0  0  0  0  0  0  0  0  0  0  0  0  # atno 17394 bound_to 11000
  141.2181  133.7451  156.9295 LP  0  0  0  0  0  0  0  0  0  0  0  0  # atno 17395 bound_to 11000

$$$$
