AV-unprocessed.smi:2189|AV-procd|sdf|8886|dock7
  -GOLD-   2272012 83D 1   1.00000     0.00000
 Structure written by MMmdl.
 38 40  0  0  0  0  0  0  0  0  2 V2000
  151.3804  140.2884  155.4167 O   0  0  0  0  0  0  0  0  0  0  0  0
  150.7281  140.9974  156.1942 C   0  0  0  0  0  0  0  0  0  0  0  0
  149.3842  141.2392  156.1023 N   0  5  0  0  0  0  0  0  0  0  0  0
  148.4793  140.6674  155.1009 C   0  0  0  0  0  0  0  0  0  0  0  0
  147.9883  141.7681  154.1310 C   0  0  0  0  0  0  0  0  0  0  0  0
  146.6917  142.4645  154.5415 C   0  0  0  0  0  0  0  0  0  0  0  0
  146.1003  143.4333  153.6988 C   0  0  0  0  0  0  0  0  0  0  0  0
  144.9031  144.0483  154.1109 C   0  0  0  0  0  0  0  0  0  0  0  0
  144.3459  143.6838  155.3511 C   0  0  0  0  0  0  0  0  0  0  0  0
  145.0160  142.7183  156.1279 C   0  0  0  0  0  0  0  0  0  0  0  0
  146.1648  142.1224  155.7430 N   0  0  0  0  0  0  0  0  0  0  0  0
  151.4297  141.6716  157.3030 C   0  0  0  0  0  0  0  0  0  0  0  0
  151.1720  142.9872  157.5265 C   0  0  0  0  0  0  0  0  0  0  0  0
  151.8057  143.7166  158.5962 C   0  0  0  0  0  0  0  0  0  0  0  0
  152.6927  143.0680  159.3582 C   0  0  0  0  0  0  0  0  0  0  0  0
  153.0301  141.7292  159.1664 N   0  0  0  0  0  0  0  0  0  0  0  0
  154.0899  141.1875  160.0098 C   0  0  0  0  0  0  0  0  0  0  0  0
  153.7402  139.7811  160.4601 C   0  0  0  0  0  0  0  0  0  0  0  0
  153.6680  138.7736  158.9360 S   0  0  0  0  0  0  0  0  0  0  0  0
  154.9882  138.8310  158.2891 O   0  0  0  0  0  0  0  0  0  0  0  0
  153.0899  137.4657  159.2808 O   0  0  0  0  0  0  0  0  0  0  0  0
  152.5721  139.6631  158.0348 N   0  0  0  0  0  0  0  0  0  0  0  0
  152.3819  140.9456  158.1697 C   0  0  0  0  0  0  0  0  0  0  0  0
  148.9378  139.8664  154.5195 H   0  0  0  0  0  0  0  0  0  0  0  0
  147.6101  140.2170  155.5809 H   0  0  0  0  0  0  0  0  0  0  0  0
  148.7654  142.5274  154.0369 H   0  0  0  0  0  0  0  0  0  0  0  0
  147.8655  141.3501  153.1308 H   0  0  0  0  0  0  0  0  0  0  0  0
  146.5496  143.6877  152.7501 H   0  0  0  0  0  0  0  0  0  0  0  0
  144.4210  144.7854  153.4860 H   0  0  0  0  0  0  0  0  0  0  0  0
  143.4278  144.1333  155.6987 H   0  0  0  0  0  0  0  0  0  0  0  0
  144.6187  142.4172  157.0861 H   0  0  0  0  0  0  0  0  0  0  0  0
  150.4853  143.5336  156.8960 H   0  0  0  0  0  0  0  0  0  0  0  0
  151.5708  144.7551  158.7754 H   0  0  0  0  0  0  0  0  0  0  0  0
  153.2016  143.5602  160.1740 H   0  0  0  0  0  0  0  0  0  0  0  0
  155.0305  141.1982  159.4582 H   0  0  0  0  0  0  0  0  0  0  0  0
  154.2385  141.8113  160.8914 H   0  0  0  0  0  0  0  0  0  0  0  0
  154.5013  139.3651  161.1196 H   0  0  0  0  0  0  0  0  0  0  0  0
  152.7764  139.7400  160.9687 H   0  0  0  0  0  0  0  0  0  0  0  0
  1  2  2  0  0  0  0
  2  3  1  0  0  0  0
  2 12  1  0  0  0  0
  3  4  1  0  0  0  0
  4  5  1  0  0  0  0
  4 24  1  0  0  0  0
  4 25  1  0  0  0  0
  5  6  1  0  0  0  0
  5 26  1  0  0  0  0
  5 27  1  0  0  0  0
  6 11  1  0  0  0  0
  6  7  2  0  0  0  0
  7  8  1  0  0  0  0
  7 28  1  0  0  0  0
  8  9  2  0  0  0  0
  8 29  1  0  0  0  0
  9 10  1  0  0  0  0
  9 30  1  0  0  0  0
 10 11  2  0  0  0  0
 10 31  1  0  0  0  0
 12 23  1  0  0  0  0
 12 13  2  0  0  0  0
 13 14  1  0  0  0  0
 13 32  1  0  0  0  0
 14 15  2  0  0  0  0
 14 33  1  0  0  0  0
 15 16  1  0  0  0  0
 15 34  1  0  0  0  0
 16 23  1  0  0  0  0
 16 17  1  0  0  0  0
 17 18  1  0  0  0  0
 17 35  1  0  0  0  0
 17 36  1  0  0  0  0
 18 19  1  0  0  0  0
 18 37  1  0  0  0  0
 18 38  1  0  0  0  0
 19 20  2  0  0  0  0
 19 21  2  0  0  0  0
 19 22  1  0  0  0  0
 22 23  2  0  0  0  0
M  CHG  1   3  -1
M  END
> <s_m_source_file>
AV-unprocessed.smi

> <i_m_source_file_index>
2189

> <i_lp_mmshare_version>
43012

> <i_f3d_flags>
0

> <s_epik_input>
W0NIMl0xW0NIMl1TKD1PKSg9TylOPUMoTjEyKUMoPVtDSF1bQ0hdPVtDSF0yKUMoPU8pW05IXVtDSDJdW0NIMl1jM1tjSF1bY0hdW2NIXVtjSF1uMw==

> <s_epik_cmdline>
J2VwaWtfcHl0aG9uJywgJy1waCcsICc3LjAnLCAnLXRuJywgJzgnLCAnLW1hJywgJzIwMCcsICctbWV0YWxfYmluZGluZycsICctaW1hZScsICc8aW5maWxlLm1hZT4nLCAnLW9tYWUnLCAnPG91dGZpbGUubWFlPic=

> <r_epik_Ionization_Penalty>
5.6695

> <r_epik_Ionization_Penalty_Charging>
5.5942

> <r_epik_Ionization_Penalty_Neutral>
0.0753022

> <r_epik_State_Penalty>
5.60818

> <r_epik_Charging_Adjusted_Penalty>
11.2024

> <i_epik_Tot_Q>
-1

> <i_epik_Tot_abs_Q>
1

> <r_epik_Metal_State_Penalty>
1.61782

> <b_epik_Metal_Only>
1

> <s_lp_Force_Field>
OPLS_2005

> <r_lp_Energy>
39.8175

> <b_lp_Chiralities_Consistent>
1

> <s_lp_Variant>
AV-unprocessed.smi:2189-3

> <Gold.Version>
5.8.1

> <Gold.Id.Protein>
6NUR|6NUR_protein|mol2

> <Gold.PLP.Fitness>
49.1203

> <Gold.PLP.PLP>
-44.9013

> <Gold.PLP.part.hbond>
-2.1303

> <Gold.PLP.part.metal>
0.0000

> <Gold.PLP.part.buried>
-6.5586

> <Gold.PLP.part.nonpolar>
-36.9206

> <Gold.PLP.part.repulsive>
0.2220

> <Gold.PLP.ligand.clash>
0.0000

> <Gold.PLP.ligand.torsion>
1.0408

> <Gold.PLP.Chemscore.Hbond>
1.9600

> <Gold.PLP.Chemscore.CHOScore>
0.0000

> <Gold.PLP.Chemscore.Metal>
0.0000

> <Gold.Chemscore.Hbonds>
donor molecule, donor type, donor heavy atom, donor atom, acceptor molecule, acceptor atom, score
      P1  H  7989  7998       L1     1  0.96
      P1  H  7997  8010       L1    20  0.98

> <Gold.PLP.Chemscore.Internal.Correction>
0.4206

> <Gold.Rescore>
     Score         DG    S(hbond)    S(metal)    S(lipo)     H(rot)  DE(clash)    DE(int)     intcor
     17.77     -20.09       2.23        0.00      92.74       1.44       0.02       2.30       ----

> <Gold.Chemscore.Fitness>
17.7701

> <Gold.Chemscore.DG>
-20.0888

> <Gold.Chemscore.ZeroCoef>
-5.4800

> <Gold.Chemscore.Hbond>
2.2316

> <Gold.Chemscore.Metal>
0.0000

> <Gold.Chemscore.Lipo>
92.7354

> <Gold.Chemscore.Internal_Hbond>
0.0000

> <Gold.Chemscore.DEClash>
0.0164

> <Gold.Chemscore.DEInternal>
2.3023

> <Gold.Chemscore.Rot>
1.4433

> <Gold.Chemscore.Internal.Correction>
   9.000000E+99

> <Gold.Chemscore.Hbonds>
donor molecule, donor type, donor heavy atom, donor atom, acceptor molecule, acceptor atom, score
      P1  H  7989  7998       L1     1  0.86
      P1  H  7997  8010       L1    20  0.87

> <Gold.Chemscore.Hbond.Weighted>
-7.4536

> <Gold.Chemscore.Metal.Weighted>
-0.0000

> <Gold.Chemscore.Lipo.Weighted>
-10.8500

> <Gold.Chemscore.Internal_Hbond.Weighted>
0.0000

> <Gold.Chemscore.DEClash.Weighted>
0.0164

> <Gold.Chemscore.DEInternal.Weighted>
2.3023

> <Gold.Chemscore.Rot.Weighted>
3.6949

> <Gold.Chemscore.Internal.Correction.Weighted>
   9.000000E+99

> <Gold.Protein.RotatedTorsions>
[ 6907 6896 6895 6894 ] final  133.03 input  -60.11 | X-H torsion
[ 7974 7965 7964 7962 ] final -138.48 input  175.53 | X-H torsion
[ 8008 7997 7996 7995 ] final  -10.25 input   59.86 | X-H torsion
[ 10167 10162 10161 10158 ] final -160.86 input  -65.29 | X-H torsion
[ 10718 10713 10712 10709 ] final   10.84 input   66.30 | X-H torsion
[ 10763 10752 10751 10750 ] final -147.04 input  -60.55 | X-H torsion
[ 11005 11000 10999 10996 ] final  122.14 input  -57.11 | X-H torsion

> <Gold.Protein.ActiveResidues>
 VAL166  LYS551  ARG553  GLY616  TRP617  ASP618  TYR619  PRO620  LYS621  CYS622 
 ASP623  PHE694  ASN695  SER759  ASP760  ASP761  ALA762  ILE779  LEU786  VAL792 
 PHE793  MET794  SER795  GLU796  ALA797  LYS798  CYS799  TRP800  GLU811  SER814 

> <Gold.Protein.RotatedAtoms>
  152.3263  133.5908  159.5778 H   0  0  0  0  0  0  0  0  0  0  0  0  # atno 6907 bound_to 6896
  150.7398  133.9936  159.3624 H   0  0  0  0  0  0  0  0  0  0  0  0  # atno 6908 bound_to 6896
  151.7815  135.0761  160.0425 H   0  0  0  0  0  0  0  0  0  0  0  0  # atno 6909 bound_to 6896
  144.8755  140.6430  143.5239 H   0  0  0  0  0  0  0  0  0  0  0  0  # atno 7974 bound_to 7965
  154.5571  140.2333  155.8393 H   0  0  0  0  0  0  0  0  0  0  0  0  # atno 8008 bound_to 7997
  156.1998  140.3055  155.9462 H   0  0  0  0  0  0  0  0  0  0  0  0  # atno 8009 bound_to 7997
  155.2959  140.0429  157.3017 H   0  0  0  0  0  0  0  0  0  0  0  0  # atno 8010 bound_to 7997
  139.6508  144.0088  152.2160 H   0  0  0  0  0  0  0  0  0  0  0  0  # atno 10167 bound_to 10162
  156.9868  130.6027  149.5682 H   0  0  0  0  0  0  0  0  0  0  0  0  # atno 10718 bound_to 10713
  154.8306  135.3370  154.6756 H   0  0  0  0  0  0  0  0  0  0  0  0  # atno 10763 bound_to 10752
  153.7376  135.6948  153.4979 H   0  0  0  0  0  0  0  0  0  0  0  0  # atno 10764 bound_to 10752
  153.2267  135.4430  155.0501 H   0  0  0  0  0  0  0  0  0  0  0  0  # atno 10765 bound_to 10752
  139.9255  134.9640  156.8064 H   0  0  0  0  0  0  0  0  0  0  0  0  # atno 11005 bound_to 11000
  145.4051  139.1590  143.4156 LP  0  0  0  0  0  0  0  0  0  0  0  0  # atno 17320 bound_to 7965
  146.2959  140.4151  142.8722 LP  0  0  0  0  0  0  0  0  0  0  0  0  # atno 17321 bound_to 7965
  139.9802  144.6434  150.7908 LP  0  0  0  0  0  0  0  0  0  0  0  0  # atno 17342 bound_to 10162
  140.7536  143.3012  151.3075 LP  0  0  0  0  0  0  0  0  0  0  0  0  # atno 17343 bound_to 10162
  156.0223  130.5317  150.8309 LP  0  0  0  0  0  0  0  0  0  0  0  0  # atno 17370 bound_to 10713
  157.5487  131.0943  150.9726 LP  0  0  0  0  0  0  0  0  0  0  0  0  # atno 17371 bound_to 10713
  140.6348  133.9873  155.7679 LP  0  0  0  0  0  0  0  0  0  0  0  0  # atno 17394 bound_to 11000
  141.0810  134.0062  157.3386 LP  0  0  0  0  0  0  0  0  0  0  0  0  # atno 17395 bound_to 11000

$$$$
