AV-unprocessed.smi:2567|AV-procd|sdf|10083|dock2
  -GOLD-   2272014113D 1   1.00000     0.00000
 Structure written by MMmdl.
 33 34  0  0  0  0  0  0  0  0  1 V2000
  152.7137  144.7144  158.0332 C   0  0  0  0  0  0  0  0  0  0  0  0
  152.0812  143.9486  159.2091 C   0  0  0  0  0  0  0  0  0  0  0  0
  153.1842  143.2179  160.0056 C   0  0  0  0  0  0  0  0  0  0  0  0
  151.4153  144.9442  160.1850 C   0  0  0  0  0  0  0  0  0  0  0  0
  151.0699  142.9567  158.6824 C   0  0  0  0  0  0  0  0  0  0  0  0
  149.7871  143.0100  159.0501 N   0  0  0  0  0  0  0  0  0  0  0  0
  149.2200  142.0699  158.2664 N   0  0  0  0  0  0  0  0  0  0  0  0
  150.1442  141.5561  157.4549 C   0  0  0  0  0  0  0  0  0  0  0  0
  149.8165  140.5104  156.4363 C   0  0  1  0  0  0  0  0  0  0  0  0
  149.8793  141.0552  154.9960 C   0  0  0  0  0  0  0  0  0  0  0  0
  149.6410  139.9785  154.0362 N   0  0  0  0  0  0  0  0  0  0  0  0
  150.5707  138.8695  154.2456 C   0  0  0  0  0  0  0  0  0  0  0  0
  150.5008  138.3796  155.7033 C   0  0  0  0  0  0  0  0  0  0  0  0
  150.7721  139.4633  156.5857 O   0  0  0  0  0  0  0  0  0  0  0  0
  151.3401  142.1046  157.6435 N   0  0  0  0  0  0  0  0  0  0  0  0
  148.2371  141.8403  158.3022 H   0  0  0  0  0  0  0  0  0  0  0  0
  153.4542  145.4352  158.3811 H   0  0  0  0  0  0  0  0  0  0  0  0
  151.9606  145.2634  157.4666 H   0  0  0  0  0  0  0  0  0  0  0  0
  153.2141  144.0349  157.3422 H   0  0  0  0  0  0  0  0  0  0  0  0
  153.7451  142.5248  159.3774 H   0  0  0  0  0  0  0  0  0  0  0  0
  152.7644  142.6459  160.8340 H   0  0  0  0  0  0  0  0  0  0  0  0
  153.9044  143.9216  160.4245 H   0  0  0  0  0  0  0  0  0  0  0  0
  152.1451  145.6399  160.6008 H   0  0  0  0  0  0  0  0  0  0  0  0
  150.9430  144.4267  161.0211 H   0  0  0  0  0  0  0  0  0  0  0  0
  150.6496  145.5444  159.6926 H   0  0  0  0  0  0  0  0  0  0  0  0
  148.8182  140.1222  156.6487 H   0  0  0  0  0  0  0  0  0  0  0  0
  149.1419  141.8470  154.8609 H   0  0  0  0  0  0  0  0  0  0  0  0
  150.8573  141.5023  154.8131 H   0  0  0  0  0  0  0  0  0  0  0  0
  149.7467  140.3358  153.0919 H   0  0  0  0  0  0  0  0  0  0  0  0
  150.3382  138.0517  153.5636 H   0  0  0  0  0  0  0  0  0  0  0  0
  151.5876  139.1898  154.0162 H   0  0  0  0  0  0  0  0  0  0  0  0
  149.5230  137.9484  155.9246 H   0  0  0  0  0  0  0  0  0  0  0  0
  151.2391  137.5955  155.8706 H   0  0  0  0  0  0  0  0  0  0  0  0
  1  2  1  0  0  0  0
  1 17  1  0  0  0  0
  1 18  1  0  0  0  0
  1 19  1  0  0  0  0
  2  3  1  0  0  0  0
  2  4  1  0  0  0  0
  2  5  1  0  0  0  0
  3 20  1  0  0  0  0
  3 21  1  0  0  0  0
  3 22  1  0  0  0  0
  4 23  1  0  0  0  0
  4 24  1  0  0  0  0
  4 25  1  0  0  0  0
  5 15  1  0  0  0  0
  5  6  2  0  0  0  0
  6  7  1  0  0  0  0
  7 16  1  0  0  0  0
  7  8  1  0  0  0  0
  8  9  1  0  0  0  0
  8 15  2  0  0  0  0
  9 14  1  0  0  0  0
  9 10  1  0  0  0  0
  9 26  1  0  0  0  0
 10 11  1  0  0  0  0
 10 27  1  0  0  0  0
 10 28  1  0  0  0  0
 11 12  1  0  0  0  0
 11 29  1  0  0  0  0
 12 13  1  0  0  0  0
 12 30  1  0  0  0  0
 12 31  1  0  0  0  0
 13 14  1  0  0  0  0
 13 32  1  0  0  0  0
 13 33  1  0  0  0  0
M  END
> <s_m_source_file>
AV-unprocessed.smi

> <i_m_source_file_index>
2567

> <i_lp_mmshare_version>
43012

> <i_f3d_flags>
0

> <s_epik_input>
W0NIM11DKFtDSDNdKShbQ0gzXSljMW5bbkhdYyhuMSlbQ0BASF0yW0NIMl1bTkhdW0NIMl1bQ0gyXU8y

> <s_epik_cmdline>
J2VwaWtfcHl0aG9uJywgJy1waCcsICc3LjAnLCAnLXRuJywgJzgnLCAnLW1hJywgJzIwMCcsICctbWV0YWxfYmluZGluZycsICctaW1hZScsICc8aW5maWxlLm1hZT4nLCAnLW9tYWUnLCAnPG91dGZpbGUubWFlPic=

> <r_epik_Ionization_Penalty>
0.981987

> <r_epik_Ionization_Penalty_Charging>
0

> <r_epik_Ionization_Penalty_Neutral>
0.981987

> <r_epik_State_Penalty>
2.09479

> <r_epik_Charging_Adjusted_Penalty>
2.09479

> <i_epik_Tot_Q>
0

> <i_epik_Tot_abs_Q>
0

> <r_epik_Metal_State_Penalty>
2.40362

> <b_epik_Metal_Only>
0

> <s_lp_Force_Field>
OPLS_2005

> <r_lp_Energy>
12.9727

> <b_lp_Chiralities_Consistent>
1

> <s_lp_Variant>
AV-unprocessed.smi:2567-8

> <Gold.Version>
5.8.1

> <Gold.Id.Protein>
6NUR|6NUR_protein|mol2

> <Gold.PLP.Fitness>
33.4137

> <Gold.PLP.PLP>
-30.9875

> <Gold.PLP.part.hbond>
-2.5663

> <Gold.PLP.part.metal>
0.0000

> <Gold.PLP.part.buried>
-4.1463

> <Gold.PLP.part.nonpolar>
-25.0420

> <Gold.PLP.part.repulsive>
0.3197

> <Gold.PLP.ligand.clash>
0.0000

> <Gold.PLP.ligand.torsion>
0.3767

> <Gold.PLP.Chemscore.Hbond>
0.9920

> <Gold.PLP.Chemscore.CHOScore>
0.0000

> <Gold.PLP.Chemscore.Metal>
0.0000

> <Gold.Chemscore.Hbonds>
donor molecule, donor type, donor heavy atom, donor atom, acceptor molecule, acceptor atom, score
      L1  H    11    29       P1  7957  0.99

> <Gold.PLP.Chemscore.Internal.Correction>
0.2036

> <Gold.Rescore>
     Score         DG    S(hbond)    S(metal)    S(lipo)     H(rot)  DE(clash)    DE(int)     intcor
     14.09     -14.68       0.98        0.00      77.98       1.25       0.05       0.54       ----

> <Gold.Chemscore.Fitness>
14.0909

> <Gold.Chemscore.DG>
-14.6842

> <Gold.Chemscore.ZeroCoef>
-5.4800

> <Gold.Chemscore.Hbond>
0.9783

> <Gold.Chemscore.Metal>
0.0000

> <Gold.Chemscore.Lipo>
77.9828

> <Gold.Chemscore.Internal_Hbond>
0.0000

> <Gold.Chemscore.DEClash>
0.0534

> <Gold.Chemscore.DEInternal>
0.5399

> <Gold.Chemscore.Rot>
1.2450

> <Gold.Chemscore.Internal.Correction>
   9.000000E+99

> <Gold.Chemscore.Hbonds>
donor molecule, donor type, donor heavy atom, donor atom, acceptor molecule, acceptor atom, score
      L1  H    11    29       P1  7957  0.92

> <Gold.Chemscore.Hbond.Weighted>
-3.2674

> <Gold.Chemscore.Metal.Weighted>
-0.0000

> <Gold.Chemscore.Lipo.Weighted>
-9.1240

> <Gold.Chemscore.Internal_Hbond.Weighted>
0.0000

> <Gold.Chemscore.DEClash.Weighted>
0.0534

> <Gold.Chemscore.DEInternal.Weighted>
0.5399

> <Gold.Chemscore.Rot.Weighted>
3.1872

> <Gold.Chemscore.Internal.Correction.Weighted>
   9.000000E+99

> <Gold.Protein.RotatedTorsions>
[ 6907 6896 6895 6894 ] final  168.58 input  -60.11 | X-H torsion
[ 7974 7965 7964 7962 ] final  155.67 input  175.53 | X-H torsion
[ 8008 7997 7996 7995 ] final   98.43 input   59.86 | X-H torsion
[ 10167 10162 10161 10158 ] final  125.97 input  -65.29 | X-H torsion
[ 10718 10713 10712 10709 ] final  162.66 input   66.30 | X-H torsion
[ 10763 10752 10751 10750 ] final  -29.45 input  -60.55 | X-H torsion
[ 11005 11000 10999 10996 ] final   49.09 input  -57.11 | X-H torsion

> <Gold.Protein.ActiveResidues>
 VAL166  LYS551  ARG553  GLY616  TRP617  ASP618  TYR619  PRO620  LYS621  CYS622 
 ASP623  PHE694  ASN695  SER759  ASP760  ASP761  ALA762  ILE779  LEU786  VAL792 
 PHE793  MET794  SER795  GLU796  ALA797  LYS798  CYS799  TRP800  GLU811  SER814 

> <Gold.Protein.RotatedAtoms>
  151.8454  133.3430  159.3655 H   0  0  0  0  0  0  0  0  0  0  0  0  # atno 6907 bound_to 6896
  150.7222  134.5351  159.5729 H   0  0  0  0  0  0  0  0  0  0  0  0  # atno 6908 bound_to 6896
  152.2833  134.7804  160.0443 H   0  0  0  0  0  0  0  0  0  0  0  0  # atno 6909 bound_to 6896
  144.8010  139.7099  143.6182 H   0  0  0  0  0  0  0  0  0  0  0  0  # atno 7974 bound_to 7965
  156.1004  140.3244  155.7934 H   0  0  0  0  0  0  0  0  0  0  0  0  # atno 8008 bound_to 7997
  155.4846  140.0556  157.2979 H   0  0  0  0  0  0  0  0  0  0  0  0  # atno 8009 bound_to 7997
  154.4693  140.2004  156.0051 H   0  0  0  0  0  0  0  0  0  0  0  0  # atno 8010 bound_to 7997
  139.5656  144.6909  151.3919 H   0  0  0  0  0  0  0  0  0  0  0  0  # atno 10167 bound_to 10162
  157.1194  131.0488  151.2422 H   0  0  0  0  0  0  0  0  0  0  0  0  # atno 10718 bound_to 10713
  153.7649  135.6916  153.4918 H   0  0  0  0  0  0  0  0  0  0  0  0  # atno 10763 bound_to 10752
  153.1914  135.4470  155.0152 H   0  0  0  0  0  0  0  0  0  0  0  0  # atno 10764 bound_to 10752
  154.8139  135.3390  154.7162 H   0  0  0  0  0  0  0  0  0  0  0  0  # atno 10765 bound_to 10752
  140.1133  134.4925  155.8659 H   0  0  0  0  0  0  0  0  0  0  0  0  # atno 11005 bound_to 11000
  146.2292  139.5780  142.9567 LP  0  0  0  0  0  0  0  0  0  0  0  0  # atno 17320 bound_to 7965
  145.5553  141.0409  143.2256 LP  0  0  0  0  0  0  0  0  0  0  0  0  # atno 17321 bound_to 7965
  140.6940  143.7794  150.7297 LP  0  0  0  0  0  0  0  0  0  0  0  0  # atno 17342 bound_to 10162
  140.1285  143.4547  152.2269 LP  0  0  0  0  0  0  0  0  0  0  0  0  # atno 17343 bound_to 10162
  157.4490  130.7587  149.7135 LP  0  0  0  0  0  0  0  0  0  0  0  0  # atno 17370 bound_to 10713
  155.9832  130.4002  150.3376 LP  0  0  0  0  0  0  0  0  0  0  0  0  # atno 17371 bound_to 10713
  141.2135  133.6735  156.6748 LP  0  0  0  0  0  0  0  0  0  0  0  0  # atno 17394 bound_to 11000
  140.3061  134.8124  157.4138 LP  0  0  0  0  0  0  0  0  0  0  0  0  # atno 17395 bound_to 11000

$$$$
