AV-unprocessed.smi:104|AV-procd|sdf|1004|dock8
  -GOLD-   2262017593D 1   1.00000     0.00000
 Structure written by MMmdl.
 47 49  0  0  0  0  0  0  0  0  1 V2000
  147.2967  134.7472  162.4897 C   0  0  0  0  0  0  0  0  0  0  0  0
  147.7295  136.0048  161.7478 C   0  0  0  0  0  0  0  0  0  0  0  0
  148.3178  136.9219  162.3214 O   0  0  0  0  0  0  0  0  0  0  0  0
  147.3929  135.9721  160.4513 O   0  0  0  0  0  0  0  0  0  0  0  0
  148.0343  136.8435  159.5353 C   0  0  0  0  0  0  0  0  0  0  0  0
  147.2691  136.8180  158.2090 C   0  0  1  0  0  0  0  0  0  0  0  0
  146.1938  137.7450  158.2439 O   0  0  0  0  0  0  0  0  0  0  0  0
  145.7759  138.0054  156.9431 C   0  0  2  0  0  0  0  0  0  0  0  0
  144.6733  137.0550  156.5544 N   0  0  0  0  0  0  0  0  0  0  0  0
  143.9204  136.1578  157.2950 C   0  0  0  0  0  0  0  0  0  0  0  0
  144.1053  135.8743  159.1719 Br  0  0  0  0  0  0  0  0  0  0  0  0
  143.0099  135.4794  156.6536 N   0  0  0  0  0  0  0  0  0  0  0  0
  143.0979  135.9784  155.3631 C   0  0  0  0  0  0  0  0  0  0  0  0
  142.4054  135.7144  154.1547 C   0  0  0  0  0  0  0  0  0  0  0  0
  141.4306  134.8004  154.0557 N   0  0  0  0  0  0  0  0  0  0  0  0
  142.7395  136.4208  153.0496 N   0  0  0  0  0  0  0  0  0  0  0  0
  143.7033  137.3440  153.1247 C   0  0  0  0  0  0  0  0  0  0  0  0
  144.4391  137.6982  154.1814 N   0  0  0  0  0  0  0  0  0  0  0  0
  144.1104  136.9774  155.2942 C   0  0  0  0  0  0  0  0  0  0  0  0
  147.0089  137.7865  156.0454 C   0  0  1  0  0  0  0  0  0  0  0  0
  147.3767  139.0109  155.4233 O   0  0  0  0  0  0  0  0  0  0  0  0
  148.5317  139.1105  154.7419 C   0  0  0  0  0  0  0  0  0  0  0  0
  148.7828  140.5197  154.2210 C   0  0  0  0  0  0  0  0  0  0  0  0
  149.3351  138.2007  154.5365 O   0  0  0  0  0  0  0  0  0  0  0  0
  148.0842  137.3203  157.0219 C   0  0  2  0  0  0  0  0  0  0  0  0
  148.8442  136.2551  156.4660 O   0  0  0  0  0  0  0  0  0  0  0  0
  149.9416  135.8021  157.0954 C   0  0  0  0  0  0  0  0  0  0  0  0
  150.6650  134.7245  156.2991 C   0  0  0  0  0  0  0  0  0  0  0  0
  150.3588  136.1800  158.1903 O   0  0  0  0  0  0  0  0  0  0  0  0
  146.2091  134.6985  162.5462 H   0  0  0  0  0  0  0  0  0  0  0  0
  147.6967  134.7435  163.5039 H   0  0  0  0  0  0  0  0  0  0  0  0
  147.6569  133.8576  161.9727 H   0  0  0  0  0  0  0  0  0  0  0  0
  148.0809  137.8594  159.9301 H   0  0  0  0  0  0  0  0  0  0  0  0
  149.0584  136.5006  159.3816 H   0  0  0  0  0  0  0  0  0  0  0  0
  146.8840  135.8175  158.0013 H   0  0  0  0  0  0  0  0  0  0  0  0
  145.3196  138.9924  156.8592 H   0  0  0  0  0  0  0  0  0  0  0  0
  141.1606  134.2633  154.8672 H   0  0  0  0  0  0  0  0  0  0  0  0
  140.9697  134.6486  153.1703 H   0  0  0  0  0  0  0  0  0  0  0  0
  143.9174  137.8727  152.2076 H   0  0  0  0  0  0  0  0  0  0  0  0
  146.7869  136.9982  155.3249 H   0  0  0  0  0  0  0  0  0  0  0  0
  149.5938  140.9871  154.7791 H   0  0  0  0  0  0  0  0  0  0  0  0
  147.8913  141.1386  154.3235 H   0  0  0  0  0  0  0  0  0  0  0  0
  149.0608  140.4878  153.1675 H   0  0  0  0  0  0  0  0  0  0  0  0
  148.7051  138.1593  157.3416 H   0  0  0  0  0  0  0  0  0  0  0  0
  150.1611  133.7655  156.4189 H   0  0  0  0  0  0  0  0  0  0  0  0
  151.6938  134.6205  156.6445 H   0  0  0  0  0  0  0  0  0  0  0  0
  150.6821  134.9786  155.2391 H   0  0  0  0  0  0  0  0  0  0  0  0
  1  2  1  0  0  0  0
  1 30  1  0  0  0  0
  1 31  1  0  0  0  0
  1 32  1  0  0  0  0
  2  3  2  0  0  0  0
  2  4  1  0  0  0  0
  4  5  1  0  0  0  0
  5  6  1  0  0  0  0
  5 33  1  0  0  0  0
  5 34  1  0  0  0  0
  6 25  1  0  0  0  0
  6  7  1  0  0  0  0
  6 35  1  0  0  0  0
  7  8  1  0  0  0  0
  8  9  1  0  0  0  0
  8 20  1  0  0  0  0
  8 36  1  0  0  0  0
  9 19  1  0  0  0  0
  9 10  1  0  0  0  0
 10 11  1  0  0  0  0
 10 12  2  0  0  0  0
 12 13  1  0  0  0  0
 13 19  2  0  0  0  0
 13 14  1  0  0  0  0
 14 15  1  0  0  0  0
 14 16  2  0  0  0  0
 15 37  1  0  0  0  0
 15 38  1  0  0  0  0
 16 17  1  0  0  0  0
 17 18  2  0  0  0  0
 17 39  1  0  0  0  0
 18 19  1  0  0  0  0
 20 21  1  0  0  0  0
 20 25  1  0  0  0  0
 20 40  1  0  0  0  0
 21 22  1  0  0  0  0
 22 23  1  0  0  0  0
 22 24  2  0  0  0  0
 23 41  1  0  0  0  0
 23 42  1  0  0  0  0
 23 43  1  0  0  0  0
 25 26  1  0  0  0  0
 25 44  1  0  0  0  0
 26 27  1  0  0  0  0
 27 28  1  0  0  0  0
 27 29  2  0  0  0  0
 28 45  1  0  0  0  0
 28 46  1  0  0  0  0
 28 47  1  0  0  0  0
M  END
> <s_m_source_file>
AV-unprocessed.smi

> <i_m_source_file_index>
104

> <i_lp_mmshare_version>
43012

> <i_f3d_flags>
0

> <s_epik_input>
W0NIM11DKD1PKU9bQ0gyXVtDQEBIXTFPW0NASF0oW0NAQEhdKE9DKD1PKVtDSDNdKVtDQEhdMU9DKD1PKVtDSDNdKW4oYyhCciluMiljKGMyMyluW2NIXW5jM1tOSDJd

> <s_epik_cmdline>
J2VwaWtfcHl0aG9uJywgJy1waCcsICc3LjAnLCAnLXRuJywgJzgnLCAnLW1hJywgJzIwMCcsICctbWV0YWxfYmluZGluZycsICctaW1hZScsICc8aW5maWxlLm1hZT4nLCAnLW9tYWUnLCAnPG91dGZpbGUubWFlPic=

> <r_lp_tautomer_probability>
1

> <r_epik_Ionization_Penalty>
7.36622e-05

> <r_epik_Ionization_Penalty_Charging>
0

> <r_epik_Ionization_Penalty_Neutral>
7.36622e-05

> <r_epik_State_Penalty>
-0

> <r_epik_Charging_Adjusted_Penalty>
0

> <i_epik_Tot_Q>
0

> <i_epik_Tot_abs_Q>
0

> <r_epik_Metal_State_Penalty>
-0

> <b_epik_Metal_Only>
0

> <s_epik_Chemistry_Notes>
This compound has an ester and may undergo hydrolysis at high or low pH. This compound contains an acetal/aminal-like group ( X-CH(R)-Y where X, Y are N, S, or O) that may be acid/base labile, releasing an aldehyde.

> <s_lp_Force_Field>
OPLS_2005

> <r_lp_Energy>
12.8289

> <b_lp_Chiralities_Consistent>
1

> <s_lp_Variant>
AV-unprocessed.smi:104-12

> <Gold.Version>
5.8.1

> <Gold.Id.Protein>
6NUR|6NUR_protein|mol2

> <Gold.PLP.Fitness>
38.2081

> <Gold.PLP.PLP>
-25.8627

> <Gold.PLP.part.hbond>
-4.0794

> <Gold.PLP.part.metal>
0.0000

> <Gold.PLP.part.buried>
-5.7265

> <Gold.PLP.part.nonpolar>
-16.6259

> <Gold.PLP.part.repulsive>
0.5834

> <Gold.PLP.ligand.clash>
0.0000

> <Gold.PLP.ligand.torsion>
0.7379

> <Gold.PLP.Chemscore.Hbond>
2.8800

> <Gold.PLP.Chemscore.CHOScore>
1.6717

> <Gold.PLP.Chemscore.Metal>
0.0000

> <Gold.Chemscore.Hbonds>
donor molecule, donor type, donor heavy atom, donor atom, acceptor molecule, acceptor atom, score
      L1  H    15    37       P1 11000  1.00
      P1  H  6896  6908       L1    29  0.81
      P1  H  6931  6943       L1     3  1.00
      L1  C    17    39       P1 10171  1.00
      L1  C    17    39       P1 10175  0.57

> <Gold.PLP.Chemscore.Internal.Correction>
0.1661

> <Gold.Rescore>
     Score         DG    S(hbond)    S(metal)    S(lipo)     H(rot)  DE(clash)    DE(int)     intcor
      1.36      -7.41       2.85        0.00      29.37       4.31       0.00       6.05       ----

> <Gold.Chemscore.Fitness>
1.3627

> <Gold.Chemscore.DG>
-7.4135

> <Gold.Chemscore.ZeroCoef>
-5.4800

> <Gold.Chemscore.Hbond>
2.8512

> <Gold.Chemscore.Metal>
0.0000

> <Gold.Chemscore.Lipo>
29.3692

> <Gold.Chemscore.Internal_Hbond>
0.0000

> <Gold.Chemscore.DEClash>
0.0000

> <Gold.Chemscore.DEInternal>
6.0507

> <Gold.Chemscore.Rot>
4.3070

> <Gold.Chemscore.Internal.Correction>
   9.000000E+99

> <Gold.Chemscore.Hbonds>
donor molecule, donor type, donor heavy atom, donor atom, acceptor molecule, acceptor atom, score
      L1  H    15    37       P1 11000  0.94
      P1  H  6896  6908       L1    29  0.73
      P1  H  6931  6943       L1     3  0.95

> <Gold.Chemscore.Hbond.Weighted>
-9.5232

> <Gold.Chemscore.Metal.Weighted>
-0.0000

> <Gold.Chemscore.Lipo.Weighted>
-3.4362

> <Gold.Chemscore.Internal_Hbond.Weighted>
0.0000

> <Gold.Chemscore.DEClash.Weighted>
0.0000

> <Gold.Chemscore.DEInternal.Weighted>
6.0507

> <Gold.Chemscore.Rot.Weighted>
11.0259

> <Gold.Chemscore.Internal.Correction.Weighted>
   9.000000E+99

> <Gold.Protein.RotatedTorsions>
[ 6907 6896 6895 6894 ] final -175.70 input  -60.11 | X-H torsion
[ 7974 7965 7964 7962 ] final -169.88 input  175.53 | X-H torsion
[ 8008 7997 7996 7995 ] final -119.14 input   59.86 | X-H torsion
[ 10167 10162 10161 10158 ] final -156.40 input  -65.29 | X-H torsion
[ 10718 10713 10712 10709 ] final  -15.65 input   66.30 | X-H torsion
[ 10763 10752 10751 10750 ] final -171.83 input  -60.55 | X-H torsion
[ 11005 11000 10999 10996 ] final  174.70 input  -57.11 | X-H torsion

> <Gold.Protein.ActiveResidues>
 VAL166  LYS551  ARG553  GLY616  TRP617  ASP618  TYR619  PRO620  LYS621  CYS622 
 ASP623  PHE694  ASN695  SER759  ASP760  ASP761  ALA762  ILE779  LEU786  VAL792 
 PHE793  MET794  SER795  GLU796  ALA797  LYS798  CYS799  TRP800  GLU811  SER814 

> <Gold.Protein.RotatedAtoms>
  151.5928  133.3364  159.3030 H   0  0  0  0  0  0  0  0  0  0  0  0  # atno 6907 bound_to 6896
  150.8251  134.7481  159.6817 H   0  0  0  0  0  0  0  0  0  0  0  0  # atno 6908 bound_to 6896
  152.4341  134.5727  159.9977 H   0  0  0  0  0  0  0  0  0  0  0  0  # atno 6909 bound_to 6896
  144.7178  140.2156  143.6322 H   0  0  0  0  0  0  0  0  0  0  0  0  # atno 7974 bound_to 7965
  155.1110  140.0397  157.2724 H   0  0  0  0  0  0  0  0  0  0  0  0  # atno 8008 bound_to 7997
  154.6685  140.2607  155.7006 H   0  0  0  0  0  0  0  0  0  0  0  0  # atno 8009 bound_to 7997
  156.2649  140.2802  156.1185 H   0  0  0  0  0  0  0  0  0  0  0  0  # atno 8010 bound_to 7997
  139.6853  143.9512  152.2358 H   0  0  0  0  0  0  0  0  0  0  0  0  # atno 10167 bound_to 10162
  156.5987  130.4818  149.6249 H   0  0  0  0  0  0  0  0  0  0  0  0  # atno 10718 bound_to 10713
  154.6261  135.2881  155.0270 H   0  0  0  0  0  0  0  0  0  0  0  0  # atno 10763 bound_to 10752
  154.1447  135.6513  153.4954 H   0  0  0  0  0  0  0  0  0  0  0  0  # atno 10764 bound_to 10752
  153.0258  135.5341  154.7070 H   0  0  0  0  0  0  0  0  0  0  0  0  # atno 10765 bound_to 10752
  140.3541  134.7169  157.4288 H   0  0  0  0  0  0  0  0  0  0  0  0  # atno 11005 bound_to 11000
  145.8550  139.2194  143.1750 LP  0  0  0  0  0  0  0  0  0  0  0  0  # atno 17320 bound_to 7965
  146.0226  140.8334  142.9916 LP  0  0  0  0  0  0  0  0  0  0  0  0  # atno 17321 bound_to 7965
  139.9313  144.6740  150.8360 LP  0  0  0  0  0  0  0  0  0  0  0  0  # atno 17342 bound_to 10162
  140.7665  143.3307  151.2417 LP  0  0  0  0  0  0  0  0  0  0  0  0  # atno 17343 bound_to 10162
  156.2487  130.6894  151.1625 LP  0  0  0  0  0  0  0  0  0  0  0  0  # atno 17370 bound_to 10713
  157.7285  131.0631  150.5817 LP  0  0  0  0  0  0  0  0  0  0  0  0  # atno 17371 bound_to 10713
  140.0679  134.5904  155.8674 LP  0  0  0  0  0  0  0  0  0  0  0  0  # atno 17394 bound_to 11000
  141.2003  133.6612  156.5892 LP  0  0  0  0  0  0  0  0  0  0  0  0  # atno 17395 bound_to 11000

$$$$
