AV-unprocessed.smi:664|AV-procd|sdf|3251|dock4
  -GOLD-   22720 0203D 1   1.00000     0.00000
 Structure written by MMmdl.
 31 32  0  0  0  0  0  0  0  0  1 V2000
  148.3152  140.8130  154.0878 C   0  0  0  0  0  0  0  0  0  0  0  0
  149.6076  140.2716  154.6237 C   0  0  0  0  0  0  0  0  0  0  0  0
  150.2331  139.0701  154.1052 C   0  0  0  0  0  0  0  0  0  0  0  0
  151.3985  138.6473  154.6399 C   0  0  0  0  0  0  0  0  0  0  0  0
  152.0509  139.3695  155.7302 C   0  0  0  0  0  0  0  0  0  0  0  0
  153.1133  139.0084  156.2357 O   0  0  0  0  0  0  0  0  0  0  0  0
  151.3717  140.4832  156.1345 N   0  0  0  0  0  0  0  0  0  0  0  0
  151.8863  141.3403  157.2096 C   0  0  0  0  0  0  0  0  0  0  0  0
  150.9741  142.5589  157.4688 C   0  0  2  0  0  0  0  0  0  0  0  0
  150.9957  143.4053  156.3357 O   0  0  0  0  0  0  0  0  0  0  0  0
  151.4084  143.3037  158.7224 C   0  0  0  0  0  0  0  0  0  0  0  0
  151.1888  144.6941  158.8263 C   0  0  0  0  0  0  0  0  0  0  0  0
  151.5785  145.3902  159.9870 C   0  0  0  0  0  0  0  0  0  0  0  0
  152.1889  144.6998  161.0516 C   0  0  0  0  0  0  0  0  0  0  0  0
  152.4071  143.3118  160.9565 C   0  0  0  0  0  0  0  0  0  0  0  0
  153.1516  142.4637  162.2616 Cl  0  0  0  0  0  0  0  0  0  0  0  0
  152.0162  142.6151  159.7960 C   0  0  0  0  0  0  0  0  0  0  0  0
  150.1750  140.9189  155.5881 N   0  0  0  0  0  0  0  0  0  0  0  0
  147.8500  140.1097  153.3968 H   0  0  0  0  0  0  0  0  0  0  0  0
  148.4798  141.7486  153.5527 H   0  0  0  0  0  0  0  0  0  0  0  0
  147.6063  141.0044  154.8943 H   0  0  0  0  0  0  0  0  0  0  0  0
  149.7646  138.5249  153.2992 H   0  0  0  0  0  0  0  0  0  0  0  0
  151.8632  137.7525  154.2526 H   0  0  0  0  0  0  0  0  0  0  0  0
  151.9258  140.7313  158.1150 H   0  0  0  0  0  0  0  0  0  0  0  0
  152.9187  141.6515  157.0389 H   0  0  0  0  0  0  0  0  0  0  0  0
  149.9446  142.2262  157.6095 H   0  0  0  0  0  0  0  0  0  0  0  0
  150.1197  143.7252  156.1832 H   0  0  0  0  0  0  0  0  0  0  0  0
  150.7182  145.2327  158.0166 H   0  0  0  0  0  0  0  0  0  0  0  0
  151.4080  146.4543  160.0612 H   0  0  0  0  0  0  0  0  0  0  0  0
  152.4868  145.2357  161.9410 H   0  0  0  0  0  0  0  0  0  0  0  0
  152.1824  141.5494  159.7325 H   0  0  0  0  0  0  0  0  0  0  0  0
  1  2  1  0  0  0  0
  1 19  1  0  0  0  0
  1 20  1  0  0  0  0
  1 21  1  0  0  0  0
  2 18  2  0  0  0  0
  2  3  1  0  0  0  0
  3  4  2  0  0  0  0
  3 22  1  0  0  0  0
  4  5  1  0  0  0  0
  4 23  1  0  0  0  0
  5  6  2  0  0  0  0
  5  7  1  0  0  0  0
  7  8  1  0  0  0  0
  7 18  1  0  0  0  0
  8  9  1  0  0  0  0
  8 24  1  0  0  0  0
  8 25  1  0  0  0  0
  9 10  1  0  0  0  0
  9 11  1  0  0  0  0
  9 26  1  0  0  0  0
 10 27  1  0  0  0  0
 11 17  1  0  0  0  0
 11 12  2  0  0  0  0
 12 13  1  0  0  0  0
 12 28  1  0  0  0  0
 13 14  2  0  0  0  0
 13 29  1  0  0  0  0
 14 15  1  0  0  0  0
 14 30  1  0  0  0  0
 15 16  1  0  0  0  0
 15 17  2  0  0  0  0
 17 31  1  0  0  0  0
M  END
> <s_m_source_file>
AV-unprocessed.smi

> <i_m_source_file_index>
664

> <i_lp_mmshare_version>
43012

> <i_f3d_flags>
0

> <s_epik_input>
W0NIM11jMVtjSF1bY0hdYyg9TyluKG4xKVtDSDJdW0NASF0oW09IXSljMltjSF1bY0hdW2NIXWMoQ2wpW2NIXTI=

> <s_epik_cmdline>
J2VwaWtfcHl0aG9uJywgJy1waCcsICc3LjAnLCAnLXRuJywgJzgnLCAnLW1hJywgJzIwMCcsICctbWV0YWxfYmluZGluZycsICctaW1hZScsICc8aW5maWxlLm1hZT4nLCAnLW9tYWUnLCAnPG91dGZpbGUubWFlPic=

> <r_lp_tautomer_probability>
1

> <r_epik_Ionization_Penalty>
5.38844e-06

> <r_epik_Ionization_Penalty_Charging>
5.19536e-06

> <r_epik_Ionization_Penalty_Neutral>
1.93084e-07

> <r_epik_State_Penalty>
-0

> <r_epik_Charging_Adjusted_Penalty>
5.19536e-06

> <i_epik_Tot_Q>
0

> <i_epik_Tot_abs_Q>
0

> <r_epik_Metal_State_Penalty>
-0

> <b_epik_Metal_Only>
0

> <s_lp_Force_Field>
OPLS_2005

> <r_lp_Energy>
26.5125

> <b_lp_Chiralities_Consistent>
1

> <s_lp_Variant>
AV-unprocessed.smi:664-1

> <Gold.Version>
5.8.1

> <Gold.Id.Protein>
6NUR|6NUR_protein|mol2

> <Gold.PLP.Fitness>
52.3445

> <Gold.PLP.PLP>
-47.8914

> <Gold.PLP.part.hbond>
-2.0000

> <Gold.PLP.part.metal>
0.0000

> <Gold.PLP.part.buried>
-5.4141

> <Gold.PLP.part.nonpolar>
-40.0490

> <Gold.PLP.part.repulsive>
0.0718

> <Gold.PLP.ligand.clash>
0.0000

> <Gold.PLP.ligand.torsion>
0.7774

> <Gold.PLP.Chemscore.Hbond>
2.0000

> <Gold.PLP.Chemscore.CHOScore>
0.0000

> <Gold.PLP.Chemscore.Metal>
0.0000

> <Gold.Chemscore.Hbonds>
donor molecule, donor type, donor heavy atom, donor atom, acceptor molecule, acceptor atom, score
      L1  H    10    27       P1  8028  1.00
      P1  H  7997  8010       L1     6  1.00

> <Gold.PLP.Chemscore.Internal.Correction>
0.0079

> <Gold.Rescore>
     Score         DG    S(hbond)    S(metal)    S(lipo)     H(rot)  DE(clash)    DE(int)     intcor
     19.44     -21.93       1.98        0.00     124.24       1.84       0.27       2.22       ----

> <Gold.Chemscore.Fitness>
19.4408

> <Gold.Chemscore.DG>
-21.9259

> <Gold.Chemscore.ZeroCoef>
-5.4800

> <Gold.Chemscore.Hbond>
1.9820

> <Gold.Chemscore.Metal>
0.0000

> <Gold.Chemscore.Lipo>
124.2445

> <Gold.Chemscore.Internal_Hbond>
0.0000

> <Gold.Chemscore.DEClash>
0.2656

> <Gold.Chemscore.DEInternal>
2.2195

> <Gold.Chemscore.Rot>
1.8400

> <Gold.Chemscore.Internal.Correction>
   9.000000E+99

> <Gold.Chemscore.Hbonds>
donor molecule, donor type, donor heavy atom, donor atom, acceptor molecule, acceptor atom, score
      L1  H    10    27       P1  8028  0.99
      P1  H  7997  8010       L1     6  0.93

> <Gold.Chemscore.Hbond.Weighted>
-6.6198

> <Gold.Chemscore.Metal.Weighted>
-0.0000

> <Gold.Chemscore.Lipo.Weighted>
-14.5366

> <Gold.Chemscore.Internal_Hbond.Weighted>
0.0000

> <Gold.Chemscore.DEClash.Weighted>
0.2656

> <Gold.Chemscore.DEInternal.Weighted>
2.2195

> <Gold.Chemscore.Rot.Weighted>
4.7105

> <Gold.Chemscore.Internal.Correction.Weighted>
   9.000000E+99

> <Gold.Protein.RotatedTorsions>
[ 6907 6896 6895 6894 ] final  171.01 input  -60.11 | X-H torsion
[ 7974 7965 7964 7962 ] final  -77.83 input  175.53 | X-H torsion
[ 8008 7997 7996 7995 ] final   84.45 input   59.86 | X-H torsion
[ 10167 10162 10161 10158 ] final  -60.47 input  -65.29 | X-H torsion
[ 10718 10713 10712 10709 ] final  141.25 input   66.30 | X-H torsion
[ 10763 10752 10751 10750 ] final   -0.38 input  -60.55 | X-H torsion
[ 11005 11000 10999 10996 ] final   23.85 input  -57.11 | X-H torsion

> <Gold.Protein.ActiveResidues>
 VAL166  LYS551  ARG553  GLY616  TRP617  ASP618  TYR619  PRO620  LYS621  CYS622 
 ASP623  PHE694  ASN695  SER759  ASP760  ASP761  ALA762  ILE779  LEU786  VAL792 
 PHE793  MET794  SER795  GLU796  ALA797  LYS798  CYS799  TRP800  GLU811  SER814 

> <Gold.Protein.RotatedAtoms>
  151.8070  133.3377  159.3543 H   0  0  0  0  0  0  0  0  0  0  0  0  # atno 6907 bound_to 6896
  150.7339  134.5700  159.5894 H   0  0  0  0  0  0  0  0  0  0  0  0  # atno 6908 bound_to 6896
  152.3102  134.7508  160.0389 H   0  0  0  0  0  0  0  0  0  0  0  0  # atno 6909 bound_to 6896
  145.5944  140.9422  143.1274 H   0  0  0  0  0  0  0  0  0  0  0  0  # atno 7974 bound_to 7965
  155.9372  140.3410  155.6297 H   0  0  0  0  0  0  0  0  0  0  0  0  # atno 8008 bound_to 7997
  155.7085  140.0769  157.2399 H   0  0  0  0  0  0  0  0  0  0  0  0  # atno 8009 bound_to 7997
  154.4096  140.1627  156.2257 H   0  0  0  0  0  0  0  0  0  0  0  0  # atno 8010 bound_to 7997
  140.6069  143.2376  151.5800 H   0  0  0  0  0  0  0  0  0  0  0  0  # atno 10167 bound_to 10162
  157.3941  131.1008  151.0617 H   0  0  0  0  0  0  0  0  0  0  0  0  # atno 10718 bound_to 10713
  153.3311  135.6975  153.6946 H   0  0  0  0  0  0  0  0  0  0  0  0  # atno 10763 bound_to 10752
  153.5748  135.3509  155.2853 H   0  0  0  0  0  0  0  0  0  0  0  0  # atno 10764 bound_to 10752
  154.8618  135.4281  154.2501 H   0  0  0  0  0  0  0  0  0  0  0  0  # atno 10765 bound_to 10752
  140.3651  134.2083  155.7670 H   0  0  0  0  0  0  0  0  0  0  0  0  # atno 11005 bound_to 11000
  144.7337  139.7649  143.7337 LP  0  0  0  0  0  0  0  0  0  0  0  0  # atno 17320 bound_to 7965
  146.1623  139.4741  142.9981 LP  0  0  0  0  0  0  0  0  0  0  0  0  # atno 17321 bound_to 7965
  139.5332  144.2856  152.1194 LP  0  0  0  0  0  0  0  0  0  0  0  0  # atno 17342 bound_to 10162
  140.2048  144.4622  150.6414 LP  0  0  0  0  0  0  0  0  0  0  0  0  # atno 17343 bound_to 10162
  157.1640  130.6238  149.5620 LP  0  0  0  0  0  0  0  0  0  0  0  0  # atno 17370 bound_to 10713
  155.9806  130.4807  150.6780 LP  0  0  0  0  0  0  0  0  0  0  0  0  # atno 17371 bound_to 10713
  141.1972  133.8064  157.0638 LP  0  0  0  0  0  0  0  0  0  0  0  0  # atno 17394 bound_to 11000
  140.0596  134.9762  157.1281 LP  0  0  0  0  0  0  0  0  0  0  0  0  # atno 17395 bound_to 11000

$$$$
