AV-unprocessed.smi:2812|AV-procd|sdf|10834|dock1
  -GOLD-   2272015273D 1   1.00000     0.00000
 Structure written by MMmdl.
 55 56  0  0  0  0  0  0  0  0  2 V2000
  144.7448  133.3708  150.3317 C   0  0  0  0  0  0  0  0  0  0  0  0
  145.6199  132.4959  151.2169 C   0  0  0  0  0  0  0  0  0  0  0  0
  145.4554  131.0581  151.1538 C   0  0  0  0  0  0  0  0  0  0  0  0
  146.1905  130.2722  151.9529 C   0  0  0  0  0  0  0  0  0  0  0  0
  147.1223  130.8050  152.8557 N   0  0  0  0  0  0  0  0  0  0  0  0
  147.8765  129.8659  153.6898 C   0  0  0  0  0  0  0  0  0  0  0  0
  147.3378  132.1467  152.9719 C   0  0  0  0  0  0  0  0  0  0  0  0
  148.1577  132.5961  153.7764 O   0  0  0  0  0  0  0  0  0  0  0  0
  146.5366  133.0105  152.0829 C   0  0  0  0  0  0  0  0  0  0  0  0
  146.7618  134.3867  152.2017 N   0  0  0  0  0  0  0  0  0  0  0  0
  145.7998  135.3004  152.4080 C   0  0  0  0  0  0  0  0  0  0  0  0
  144.6052  135.0372  152.5527 O   0  0  0  0  0  0  0  0  0  0  0  0
  146.2967  136.5442  152.4415 N   0  0  0  0  0  0  0  0  0  0  0  0
  145.5059  137.7472  152.6819 C   0  0  0  0  0  0  0  0  0  0  0  0
  146.2295  138.7731  153.6031 C   0  0  1  0  0  0  0  0  0  0  0  0
  147.1079  139.7025  152.7230 C   0  0  0  0  0  0  0  0  0  0  0  0
  147.7654  140.8356  153.5121 C   0  0  0  0  0  0  0  0  0  0  0  0
  146.6843  141.6297  154.2401 C   0  0  0  0  0  0  0  0  0  0  0  0
  145.8950  140.6978  155.1637 C   0  0  0  0  0  0  0  0  0  0  0  0
  145.2608  139.5669  154.4288 N   0  3  2  0  0  0  0  0  0  0  0  0
  144.4267  138.7560  155.3620 C   0  0  0  0  0  0  0  0  0  0  0  0
  143.6094  139.6498  156.3156 C   0  0  0  0  0  0  0  0  0  0  0  0
  142.9328  138.8065  157.4063 C   0  0  0  0  0  0  0  0  0  0  0  0
  142.5653  140.4903  155.5617 C   0  0  0  0  0  0  0  0  0  0  0  0
  143.8827  132.8137  149.9644 H   0  0  0  0  0  0  0  0  0  0  0  0
  145.3074  133.7239  149.4676 H   0  0  0  0  0  0  0  0  0  0  0  0
  144.3687  134.2352  150.8797 H   0  0  0  0  0  0  0  0  0  0  0  0
  144.7472  130.6170  150.4675 H   0  0  0  0  0  0  0  0  0  0  0  0
  146.1110  129.1951  151.9481 H   0  0  0  0  0  0  0  0  0  0  0  0
  148.9473  129.9649  153.5056 H   0  0  0  0  0  0  0  0  0  0  0  0
  147.6091  128.8259  153.5008 H   0  0  0  0  0  0  0  0  0  0  0  0
  147.6937  130.0604  154.7477 H   0  0  0  0  0  0  0  0  0  0  0  0
  147.6930  134.7102  151.9840 H   0  0  0  0  0  0  0  0  0  0  0  0
  147.2897  136.6666  152.3048 H   0  0  0  0  0  0  0  0  0  0  0  0
  145.2974  138.2052  151.7147 H   0  0  0  0  0  0  0  0  0  0  0  0
  144.5417  137.4256  153.0701 H   0  0  0  0  0  0  0  0  0  0  0  0
  146.8811  138.2416  154.2986 H   0  0  0  0  0  0  0  0  0  0  0  0
  147.8912  139.1287  152.2271 H   0  0  0  0  0  0  0  0  0  0  0  0
  146.4984  140.1351  151.9281 H   0  0  0  0  0  0  0  0  0  0  0  0
  148.4809  140.4281  154.2277 H   0  0  0  0  0  0  0  0  0  0  0  0
  148.3258  141.4872  152.8409 H   0  0  0  0  0  0  0  0  0  0  0  0
  147.1386  142.4331  154.8206 H   0  0  0  0  0  0  0  0  0  0  0  0
  146.0140  142.1031  153.5211 H   0  0  0  0  0  0  0  0  0  0  0  0
  146.5608  140.3042  155.9337 H   0  0  0  0  0  0  0  0  0  0  0  0
  145.1246  141.2734  155.6782 H   0  0  0  0  0  0  0  0  0  0  0  0
  143.7574  138.0720  154.8457 H   0  0  0  0  0  0  0  0  0  0  0  0
  145.0706  138.0942  155.9439 H   0  0  0  0  0  0  0  0  0  0  0  0
  144.2933  140.3357  156.8171 H   0  0  0  0  0  0  0  0  0  0  0  0
  142.2322  138.0897  156.9762 H   0  0  0  0  0  0  0  0  0  0  0  0
  142.3785  139.4356  158.1033 H   0  0  0  0  0  0  0  0  0  0  0  0
  143.6683  138.2469  157.9854 H   0  0  0  0  0  0  0  0  0  0  0  0
  141.8609  139.8566  155.0219 H   0  0  0  0  0  0  0  0  0  0  0  0
  143.0347  141.1576  154.8387 H   0  0  0  0  0  0  0  0  0  0  0  0
  141.9917  141.1118  156.2498 H   0  0  0  0  0  0  0  0  0  0  0  0
  144.6206  139.9803  153.7662 H   0  0  0  0  0  0  0  0  0  0  0  0
  1  2  1  0  0  0  0
  1 25  1  0  0  0  0
  1 26  1  0  0  0  0
  1 27  1  0  0  0  0
  2  9  2  0  0  0  0
  2  3  1  0  0  0  0
  3  4  2  0  0  0  0
  3 28  1  0  0  0  0
  4  5  1  0  0  0  0
  4 29  1  0  0  0  0
  5  6  1  0  0  0  0
  5  7  1  0  0  0  0
  6 30  1  0  0  0  0
  6 31  1  0  0  0  0
  6 32  1  0  0  0  0
  7  8  2  0  0  0  0
  7  9  1  0  0  0  0
  9 10  1  0  0  0  0
 10 11  1  0  0  0  0
 10 33  1  0  0  0  0
 11 12  2  0  0  0  0
 11 13  1  0  0  0  0
 13 14  1  0  0  0  0
 13 34  1  0  0  0  0
 14 15  1  0  0  0  0
 14 35  1  0  0  0  0
 14 36  1  0  0  0  0
 15 20  1  0  0  0  0
 15 16  1  0  0  0  0
 15 37  1  0  0  0  0
 16 17  1  0  0  0  0
 16 38  1  0  0  0  0
 16 39  1  0  0  0  0
 17 18  1  0  0  0  0
 17 40  1  0  0  0  0
 17 41  1  0  0  0  0
 18 19  1  0  0  0  0
 18 42  1  0  0  0  0
 18 43  1  0  0  0  0
 19 20  1  0  0  0  0
 19 44  1  0  0  0  0
 19 45  1  0  0  0  0
 20 21  1  0  0  0  0
 20 55  1  0  0  0  0
 21 22  1  0  0  0  0
 21 46  1  0  0  0  0
 21 47  1  0  0  0  0
 22 23  1  0  0  0  0
 22 24  1  0  0  0  0
 22 48  1  0  0  0  0
 23 49  1  0  0  0  0
 23 50  1  0  0  0  0
 23 51  1  0  0  0  0
 24 52  1  0  0  0  0
 24 53  1  0  0  0  0
 24 54  1  0  0  0  0
M  CHG  1  20   1
M  END
> <s_m_source_file>
AV-unprocessed.smi

> <i_m_source_file_index>
2812

> <i_lp_mmshare_version>
43012

> <i_f3d_flags>
0

> <s_epik_input>
W0NIM11jMVtjSF1bY0hdbihbQ0gzXSljKD1PKWMxW05IXUMoPU8pW05IXVtDSDJdW0NAQEhdMltDSDJdW0NIMl1bQ0gyXVtDSDJdTjJbQ0gyXVtDSF0oW0NIM10pW0NIM10=

> <s_epik_cmdline>
J2VwaWtfcHl0aG9uJywgJy1waCcsICc3LjAnLCAnLXRuJywgJzgnLCAnLW1hJywgJzIwMCcsICctbWV0YWxfYmluZGluZycsICctaW1hZScsICc8aW5maWxlLm1hZT4nLCAnLW9tYWUnLCAnPG91dGZpbGUubWFlPic=

> <r_lp_tautomer_probability>
1

> <r_epik_Ionization_Penalty>
0.0010902

> <r_epik_Ionization_Penalty_Charging>
0.00107091

> <r_epik_Ionization_Penalty_Neutral>
1.92854e-05

> <r_epik_State_Penalty>
0.000697184

> <r_epik_Charging_Adjusted_Penalty>
0.0017681

> <i_epik_Tot_Q>
1

> <i_epik_Tot_abs_Q>
1

> <r_epik_Metal_State_Penalty>
-0

> <b_epik_Metal_Only>
0

> <s_lp_Force_Field>
OPLS_2005

> <r_lp_Energy>
40.1667

> <b_lp_Chiralities_Consistent>
1

> <s_lp_Variant>
AV-unprocessed.smi:2812-2

> <Gold.Version>
5.8.1

> <Gold.Id.Protein>
6NUR|6NUR_protein|mol2

> <Gold.PLP.Fitness>
43.5282

> <Gold.PLP.PLP>
-32.6625

> <Gold.PLP.part.hbond>
-3.0000

> <Gold.PLP.part.metal>
0.0000

> <Gold.PLP.part.buried>
-1.2426

> <Gold.PLP.part.nonpolar>
-28.1570

> <Gold.PLP.part.repulsive>
0.2304

> <Gold.PLP.ligand.clash>
0.0000

> <Gold.PLP.ligand.torsion>
1.0930

> <Gold.PLP.Chemscore.Hbond>
3.9920

> <Gold.PLP.Chemscore.CHOScore>
0.0000

> <Gold.PLP.Chemscore.Metal>
0.0000

> <Gold.Chemscore.Hbonds>
donor molecule, donor type, donor heavy atom, donor atom, acceptor molecule, acceptor atom, score
      L1  H    10    33       P1  7948  0.99
      L1  H    13    34       P1  7948  1.00
      L1  H    20    55       P1 10175  2.00

> <Gold.PLP.Chemscore.Internal.Correction>
1.0757

> <Gold.Rescore>
     Score         DG    S(hbond)    S(metal)    S(lipo)     H(rot)  DE(clash)    DE(int)     intcor
     18.25     -19.73       2.65        0.00      79.27       1.52       0.31       1.17       ----

> <Gold.Chemscore.Fitness>
18.2548

> <Gold.Chemscore.DG>
-19.7285

> <Gold.Chemscore.ZeroCoef>
-5.4800

> <Gold.Chemscore.Hbond>
2.6508

> <Gold.Chemscore.Metal>
0.0000

> <Gold.Chemscore.Lipo>
79.2746

> <Gold.Chemscore.Internal_Hbond>
0.0000

> <Gold.Chemscore.DEClash>
0.3078

> <Gold.Chemscore.DEInternal>
1.1659

> <Gold.Chemscore.Rot>
1.5157

> <Gold.Chemscore.Internal.Correction>
   9.000000E+99

> <Gold.Chemscore.Hbonds>
donor molecule, donor type, donor heavy atom, donor atom, acceptor molecule, acceptor atom, score
      L1  H    10    33       P1  7948  0.51
      L1  H    13    34       P1  7948  0.99
      L1  H    20    55       P1 10175  1.00

> <Gold.Chemscore.Hbond.Weighted>
-8.8537

> <Gold.Chemscore.Metal.Weighted>
-0.0000

> <Gold.Chemscore.Lipo.Weighted>
-9.2751

> <Gold.Chemscore.Internal_Hbond.Weighted>
0.0000

> <Gold.Chemscore.DEClash.Weighted>
0.3078

> <Gold.Chemscore.DEInternal.Weighted>
1.1659

> <Gold.Chemscore.Rot.Weighted>
3.8803

> <Gold.Chemscore.Internal.Correction.Weighted>
   9.000000E+99

> <Gold.Protein.RotatedTorsions>
[ 6907 6896 6895 6894 ] final  -19.28 input  -60.11 | X-H torsion
[ 7974 7965 7964 7962 ] final  156.61 input  175.53 | X-H torsion
[ 8008 7997 7996 7995 ] final   -0.09 input   59.86 | X-H torsion
[ 10167 10162 10161 10158 ] final   41.94 input  -65.29 | X-H torsion
[ 10718 10713 10712 10709 ] final -116.27 input   66.30 | X-H torsion
[ 10763 10752 10751 10750 ] final  -95.21 input  -60.55 | X-H torsion
[ 11005 11000 10999 10996 ] final -160.62 input  -57.11 | X-H torsion

> <Gold.Protein.ActiveResidues>
 VAL166  LYS551  ARG553  GLY616  TRP617  ASP618  TYR619  PRO620  LYS621  CYS622 
 ASP623  PHE694  ASN695  SER759  ASP760  ASP761  ALA762  ILE779  LEU786  VAL792 
 PHE793  MET794  SER795  GLU796  ALA797  LYS798  CYS799  TRP800  GLU811  SER814 

> <Gold.Protein.RotatedAtoms>
  151.2655  135.0667  159.9113 H   0  0  0  0  0  0  0  0  0  0  0  0  # atno 6907 bound_to 6896
  152.5359  134.0186  159.7981 H   0  0  0  0  0  0  0  0  0  0  0  0  # atno 6908 bound_to 6896
  151.0416  133.5651  159.2681 H   0  0  0  0  0  0  0  0  0  0  0  0  # atno 6909 bound_to 6896
  144.7953  139.7227  143.6204 H   0  0  0  0  0  0  0  0  0  0  0  0  # atno 7974 bound_to 7965
  154.6620  140.2592  155.7099 H   0  0  0  0  0  0  0  0  0  0  0  0  # atno 8008 bound_to 7997
  156.2622  140.2846  156.1017 H   0  0  0  0  0  0  0  0  0  0  0  0  # atno 8009 bound_to 7997
  155.1294  140.0378  157.2761 H   0  0  0  0  0  0  0  0  0  0  0  0  # atno 8010 bound_to 7997
  140.3593  144.2249  150.6139 H   0  0  0  0  0  0  0  0  0  0  0  0  # atno 10167 bound_to 10162
  156.0952  130.6126  150.9013 H   0  0  0  0  0  0  0  0  0  0  0  0  # atno 10718 bound_to 10713
  154.7127  135.5129  153.8691 H   0  0  0  0  0  0  0  0  0  0  0  0  # atno 10763 bound_to 10752
  153.0794  135.6626  154.0085 H   0  0  0  0  0  0  0  0  0  0  0  0  # atno 10764 bound_to 10752
  153.9924  135.3018  155.3390 H   0  0  0  0  0  0  0  0  0  0  0  0  # atno 10765 bound_to 10752
  140.6295  134.4666  157.5228 H   0  0  0  0  0  0  0  0  0  0  0  0  # atno 11005 bound_to 11000
  146.2219  139.5651  142.9613 LP  0  0  0  0  0  0  0  0  0  0  0  0  # atno 17320 bound_to 7965
  145.5690  141.0396  143.2184 LP  0  0  0  0  0  0  0  0  0  0  0  0  # atno 17321 bound_to 7965
  140.5142  143.2282  151.8488 LP  0  0  0  0  0  0  0  0  0  0  0  0  # atno 17342 bound_to 10162
  139.4816  144.4913  151.9181 LP  0  0  0  0  0  0  0  0  0  0  0  0  # atno 17343 bound_to 10162
  157.6111  131.0936  150.8793 LP  0  0  0  0  0  0  0  0  0  0  0  0  # atno 17370 bound_to 10713
  156.8933  130.5220  149.5285 LP  0  0  0  0  0  0  0  0  0  0  0  0  # atno 17371 bound_to 10713
  139.9122  134.8322  156.1490 LP  0  0  0  0  0  0  0  0  0  0  0  0  # atno 17394 bound_to 11000
  141.0686  133.6807  156.2094 LP  0  0  0  0  0  0  0  0  0  0  0  0  # atno 17395 bound_to 11000

$$$$
