AV-unprocessed.smi:1645|AV-procd|sdf|6606|dock3
  -GOLD-   22720 7313D 1   1.00000     0.00000
 Structure written by MMmdl.
 55 58  0  0  0  0  0  0  0  0  2 V2000
  148.4435  135.4318  156.0521 O   0  0  0  0  0  0  0  0  0  0  0  0
  148.6038  135.7000  154.8615 C   0  0  0  0  0  0  0  0  0  0  0  0
  149.1992  136.8074  154.3882 N   0  0  0  0  0  0  0  0  0  0  0  0
  149.7400  137.8924  155.1278 C   0  0  0  0  0  0  0  0  0  0  0  0
  149.6957  137.9893  156.5375 C   0  0  0  0  0  0  0  0  0  0  0  0
  150.2509  139.1235  157.1600 C   0  0  0  0  0  0  0  0  0  0  0  0
  150.8312  140.1368  156.3619 C   0  0  0  0  0  0  0  0  0  0  0  0
  151.4004  141.2762  156.9696 N   0  0  0  0  0  0  0  0  0  0  0  0
  151.6811  141.1504  158.4010 C   0  0  0  0  0  0  0  0  0  0  0  0
  152.6580  142.2418  158.8722 C   0  0  0  0  0  0  0  0  0  0  0  0
  152.1532  143.6406  158.4871 C   0  0  0  0  0  0  0  0  0  0  0  0
  151.8847  143.7050  156.9763 C   0  0  0  0  0  0  0  0  0  0  0  0
  150.9186  142.5909  156.5394 C   0  0  0  0  0  0  0  0  0  0  0  0
  150.8601  140.0463  155.0097 N   0  0  0  0  0  0  0  0  0  0  0  0
  150.3229  138.9598  154.4169 C   0  0  0  0  0  0  0  0  0  0  0  0
  148.2094  134.8946  153.8644 N   0  0  0  0  0  0  0  0  0  0  0  0
  147.5841  133.5843  154.0386 C   0  0  2  0  0  0  0  0  0  0  0  0
  148.6063  132.4347  154.1182 C   0  0  0  0  0  0  0  0  0  0  0  0
  147.9599  131.2892  153.3327 C   0  0  0  0  0  0  0  0  0  0  0  0
  147.2187  131.9932  152.2801 N   0  3  1  0  0  0  0  0  0  0  0  0
  146.2621  131.2277  151.4556 C   0  0  0  0  0  0  0  0  0  0  0  0
  145.7645  132.1396  150.3135 C   0  0  0  0  0  0  0  0  0  0  0  0
  145.2253  133.4914  150.8348 C   0  0  0  0  0  0  0  0  0  0  0  0
  146.2206  134.1775  151.7957 C   0  0  0  0  0  0  0  0  0  0  0  0
  146.6118  133.1824  152.9030 C   0  0  2  0  0  0  0  0  0  0  0  0
  149.3472  136.8465  153.3903 H   0  0  0  0  0  0  0  0  0  0  0  0
  149.2409  137.2253  157.1488 H   0  0  0  0  0  0  0  0  0  0  0  0
  150.2372  139.1984  158.2370 H   0  0  0  0  0  0  0  0  0  0  0  0
  150.7406  141.2353  158.9467 H   0  0  0  0  0  0  0  0  0  0  0  0
  152.0953  140.1734  158.6461 H   0  0  0  0  0  0  0  0  0  0  0  0
  152.7965  142.1776  159.9516 H   0  0  0  0  0  0  0  0  0  0  0  0
  153.6375  142.0716  158.4234 H   0  0  0  0  0  0  0  0  0  0  0  0
  151.2370  143.8660  159.0343 H   0  0  0  0  0  0  0  0  0  0  0  0
  152.8839  144.3976  158.7730 H   0  0  0  0  0  0  0  0  0  0  0  0
  151.4764  144.6799  156.7083 H   0  0  0  0  0  0  0  0  0  0  0  0
  152.8260  143.6039  156.4343 H   0  0  0  0  0  0  0  0  0  0  0  0
  150.8132  142.6161  155.4539 H   0  0  0  0  0  0  0  0  0  0  0  0
  149.9295  142.7665  156.9645 H   0  0  0  0  0  0  0  0  0  0  0  0
  150.3686  138.9399  153.3379 H   0  0  0  0  0  0  0  0  0  0  0  0
  148.3824  135.1956  152.9164 H   0  0  0  0  0  0  0  0  0  0  0  0
  147.0242  133.5912  154.9762 H   0  0  0  0  0  0  0  0  0  0  0  0
  149.5388  132.7228  153.6298 H   0  0  0  0  0  0  0  0  0  0  0  0
  148.8457  132.1541  155.1444 H   0  0  0  0  0  0  0  0  0  0  0  0
  148.6918  130.5934  152.9220 H   0  0  0  0  0  0  0  0  0  0  0  0
  147.2658  130.7323  153.9646 H   0  0  0  0  0  0  0  0  0  0  0  0
  146.7532  130.3447  151.0453 H   0  0  0  0  0  0  0  0  0  0  0  0
  145.4297  130.8806  152.0694 H   0  0  0  0  0  0  0  0  0  0  0  0
  146.5881  132.3288  149.6237 H   0  0  0  0  0  0  0  0  0  0  0  0
  144.9941  131.6278  149.7361 H   0  0  0  0  0  0  0  0  0  0  0  0
  144.9970  134.1518  149.9977 H   0  0  0  0  0  0  0  0  0  0  0  0
  144.2823  133.3222  151.3562 H   0  0  0  0  0  0  0  0  0  0  0  0
  147.1053  134.5063  151.2487 H   0  0  0  0  0  0  0  0  0  0  0  0
  145.7596  135.0681  152.2231 H   0  0  0  0  0  0  0  0  0  0  0  0
  145.6918  132.8588  153.3952 H   0  0  0  0  0  0  0  0  0  0  0  0
  147.9235  132.3428  151.6468 H   0  0  0  0  0  0  0  0  0  0  0  0
  1  2  2  0  0  0  0
  2  3  1  0  0  0  0
  2 16  1  0  0  0  0
  3  4  1  0  0  0  0
  3 26  1  0  0  0  0
  4 15  1  0  0  0  0
  4  5  2  0  0  0  0
  5  6  1  0  0  0  0
  5 27  1  0  0  0  0
  6  7  2  0  0  0  0
  6 28  1  0  0  0  0
  7  8  1  0  0  0  0
  7 14  1  0  0  0  0
  8 13  1  0  0  0  0
  8  9  1  0  0  0  0
  9 10  1  0  0  0  0
  9 29  1  0  0  0  0
  9 30  1  0  0  0  0
 10 11  1  0  0  0  0
 10 31  1  0  0  0  0
 10 32  1  0  0  0  0
 11 12  1  0  0  0  0
 11 33  1  0  0  0  0
 11 34  1  0  0  0  0
 12 13  1  0  0  0  0
 12 35  1  0  0  0  0
 12 36  1  0  0  0  0
 13 37  1  0  0  0  0
 13 38  1  0  0  0  0
 14 15  2  0  0  0  0
 15 39  1  0  0  0  0
 16 17  1  0  0  0  0
 16 40  1  0  0  0  0
 17 25  1  0  0  0  0
 17 18  1  0  0  0  0
 17 41  1  0  0  0  0
 18 19  1  0  0  0  0
 18 42  1  0  0  0  0
 18 43  1  0  0  0  0
 19 20  1  0  0  0  0
 19 44  1  0  0  0  0
 19 45  1  0  0  0  0
 20 25  1  0  0  0  0
 20 21  1  0  0  0  0
 20 55  1  0  0  0  0
 21 22  1  0  0  0  0
 21 46  1  0  0  0  0
 21 47  1  0  0  0  0
 22 23  1  0  0  0  0
 22 48  1  0  0  0  0
 22 49  1  0  0  0  0
 23 24  1  0  0  0  0
 23 50  1  0  0  0  0
 23 51  1  0  0  0  0
 24 25  1  0  0  0  0
 24 52  1  0  0  0  0
 24 53  1  0  0  0  0
 25 54  1  0  0  0  0
M  CHG  1  20   1
M  END
> <s_m_source_file>
AV-unprocessed.smi

> <i_m_source_file_index>
1645

> <i_lp_mmshare_version>
43012

> <i_f3d_flags>
0

> <s_epik_input>
W0NIMl0xW0NIMl1bQ0gyXVtDSDJdW0NASF0oTjEyKVtDQEBIXShbQ0gyXVtDSDJdMilbTkhdQyg9TylbTkhdYzNbY0hdW2NIXWMobltjSF0zKU40W0NIMl1bQ0gyXVtDSDJdW0NIMl1bQ0gyXTQ=

> <s_epik_cmdline>
J2VwaWtfcHl0aG9uJywgJy1waCcsICc3LjAnLCAnLXRuJywgJzgnLCAnLW1hJywgJzIwMCcsICctbWV0YWxfYmluZGluZycsICctaW1hZScsICc8aW5maWxlLm1hZT4nLCAnLW9tYWUnLCAnPG91dGZpbGUubWFlPic=

> <r_lp_tautomer_probability>
1

> <r_epik_Ionization_Penalty>
0.0808019

> <r_epik_Ionization_Penalty_Charging>
0.000974069

> <r_epik_Ionization_Penalty_Neutral>
0.0798278

> <r_epik_State_Penalty>
0.0653665

> <r_epik_Charging_Adjusted_Penalty>
0.0663406

> <i_epik_Tot_Q>
1

> <i_epik_Tot_abs_Q>
1

> <r_epik_Metal_State_Penalty>
0.0585673

> <b_epik_Metal_Only>
0

> <s_lp_Force_Field>
OPLS_2005

> <r_lp_Energy>
57.223

> <b_lp_Chiralities_Consistent>
1

> <s_lp_Variant>
AV-unprocessed.smi:1645-7

> <Gold.Version>
5.8.1

> <Gold.Id.Protein>
6NUR|6NUR_protein|mol2

> <Gold.PLP.Fitness>
48.4865

> <Gold.PLP.PLP>
-37.0296

> <Gold.PLP.part.hbond>
-3.9385

> <Gold.PLP.part.metal>
0.0000

> <Gold.PLP.part.buried>
-2.4147

> <Gold.PLP.part.nonpolar>
-30.3343

> <Gold.PLP.part.repulsive>
0.1114

> <Gold.PLP.ligand.clash>
0.0000

> <Gold.PLP.ligand.torsion>
0.6184

> <Gold.PLP.Chemscore.Hbond>
3.0960

> <Gold.PLP.Chemscore.CHOScore>
0.9895

> <Gold.PLP.Chemscore.Metal>
0.0000

> <Gold.Chemscore.Hbonds>
donor molecule, donor type, donor heavy atom, donor atom, acceptor molecule, acceptor atom, score
      L1  H     3    26       P1  7948  0.98
      L1  H    16    40       P1  7948  1.00
      L1  H    20    55       P1 10747  0.15
      P1  H  7989  7998       L1    14  1.00
      L1  C    15    39       P1  7957  0.97

> <Gold.PLP.Chemscore.Internal.Correction>
0.4372

> <Gold.Rescore>
     Score         DG    S(hbond)    S(metal)    S(lipo)     H(rot)  DE(clash)    DE(int)     intcor
     21.43     -24.77       2.68        0.00     114.11       1.17       1.44       1.91       ----

> <Gold.Chemscore.Fitness>
21.4254

> <Gold.Chemscore.DG>
-24.7686

> <Gold.Chemscore.ZeroCoef>
-5.4800

> <Gold.Chemscore.Hbond>
2.6768

> <Gold.Chemscore.Metal>
0.0000

> <Gold.Chemscore.Lipo>
114.1146

> <Gold.Chemscore.Internal_Hbond>
0.0000

> <Gold.Chemscore.DEClash>
1.4378

> <Gold.Chemscore.DEInternal>
1.9054

> <Gold.Chemscore.Rot>
1.1731

> <Gold.Chemscore.Internal.Correction>
   9.000000E+99

> <Gold.Chemscore.Hbonds>
donor molecule, donor type, donor heavy atom, donor atom, acceptor molecule, acceptor atom, score
      L1  H     3    26       P1  7948  0.88
      L1  H    16    40       P1  7948  0.84
      L1  H    20    55       P1 10747  0.15
      P1  H  7989  7998       L1    14  0.26

> <Gold.Chemscore.Hbond.Weighted>
-8.9405

> <Gold.Chemscore.Metal.Weighted>
-0.0000

> <Gold.Chemscore.Lipo.Weighted>
-13.3514

> <Gold.Chemscore.Internal_Hbond.Weighted>
0.0000

> <Gold.Chemscore.DEClash.Weighted>
1.4378

> <Gold.Chemscore.DEInternal.Weighted>
1.9054

> <Gold.Chemscore.Rot.Weighted>
3.0032

> <Gold.Chemscore.Internal.Correction.Weighted>
   9.000000E+99

> <Gold.Protein.RotatedTorsions>
[ 6907 6896 6895 6894 ] final    9.07 input  -60.11 | X-H torsion
[ 7974 7965 7964 7962 ] final  172.63 input  175.53 | X-H torsion
[ 8008 7997 7996 7995 ] final  -34.71 input   59.86 | X-H torsion
[ 10167 10162 10161 10158 ] final -122.73 input  -65.29 | X-H torsion
[ 10718 10713 10712 10709 ] final   39.58 input   66.30 | X-H torsion
[ 10763 10752 10751 10750 ] final -178.96 input  -60.55 | X-H torsion
[ 11005 11000 10999 10996 ] final  -36.16 input  -57.11 | X-H torsion

> <Gold.Protein.ActiveResidues>
 VAL166  LYS551  ARG553  GLY616  TRP617  ASP618  TYR619  PRO620  LYS621  CYS622 
 ASP623  PHE694  ASN695  SER759  ASP760  ASP761  ALA762  ILE779  LEU786  VAL792 
 PHE793  MET794  SER795  GLU796  ALA797  LYS798  CYS799  TRP800  GLU811  SER814 

> <Gold.Protein.RotatedAtoms>
  151.7163  135.0903  160.0276 H   0  0  0  0  0  0  0  0  0  0  0  0  # atno 6907 bound_to 6896
  152.3630  133.6317  159.6038 H   0  0  0  0  0  0  0  0  0  0  0  0  # atno 6908 bound_to 6896
  150.7618  133.9309  159.3468 H   0  0  0  0  0  0  0  0  0  0  0  0  # atno 6909 bound_to 6896
  144.7263  139.9528  143.6432 H   0  0  0  0  0  0  0  0  0  0  0  0  # atno 7974 bound_to 7965
  154.4113  140.1676  156.2094 H   0  0  0  0  0  0  0  0  0  0  0  0  # atno 8008 bound_to 7997
  155.9456  140.3405  155.6341 H   0  0  0  0  0  0  0  0  0  0  0  0  # atno 8009 bound_to 7997
  155.6934  140.0736  157.2430 H   0  0  0  0  0  0  0  0  0  0  0  0  # atno 8010 bound_to 7997
  140.0111  143.5441  152.2263 H   0  0  0  0  0  0  0  0  0  0  0  0  # atno 10167 bound_to 10162
  157.3722  130.7707  149.7127 H   0  0  0  0  0  0  0  0  0  0  0  0  # atno 10718 bound_to 10713
  154.5411  135.2806  155.1094 H   0  0  0  0  0  0  0  0  0  0  0  0  # atno 10763 bound_to 10752
  154.2576  135.6327  153.5266 H   0  0  0  0  0  0  0  0  0  0  0  0  # atno 10764 bound_to 10752
  152.9979  135.5598  154.5951 H   0  0  0  0  0  0  0  0  0  0  0  0  # atno 10765 bound_to 10752
  140.9853  133.7034  156.1754 H   0  0  0  0  0  0  0  0  0  0  0  0  # atno 11005 bound_to 11000
  146.0698  139.3687  143.0530 LP  0  0  0  0  0  0  0  0  0  0  0  0  # atno 17320 bound_to 7965
  145.7983  140.9783  143.1012 LP  0  0  0  0  0  0  0  0  0  0  0  0  # atno 17321 bound_to 7965
  139.6205  144.7628  151.2752 LP  0  0  0  0  0  0  0  0  0  0  0  0  # atno 17342 bound_to 10162
  140.7381  143.6658  150.8124 LP  0  0  0  0  0  0  0  0  0  0  0  0  # atno 17343 bound_to 10162
  155.9758  130.4084  150.3825 LP  0  0  0  0  0  0  0  0  0  0  0  0  # atno 17370 bound_to 10713
  157.1918  131.0417  151.2696 LP  0  0  0  0  0  0  0  0  0  0  0  0  # atno 17371 bound_to 10713
  140.7124  134.4447  157.5580 LP  0  0  0  0  0  0  0  0  0  0  0  0  # atno 17394 bound_to 11000
  139.8968  134.8652  156.2073 LP  0  0  0  0  0  0  0  0  0  0  0  0  # atno 17395 bound_to 11000

$$$$
