AV-unprocessed.smi:2802|AV-procd|sdf|10803|dock9
  -GOLD-   2272015233D 1   1.00000     0.00000
 Structure written by MMmdl.
 47 48  0  0  0  0  0  0  0  0  1 V2000
  150.4212  138.5853  155.1458 C   0  0  0  0  0  0  0  0  0  0  0  0
  149.0953  138.7262  154.3836 C   0  0  2  0  0  0  0  0  0  0  0  0
  148.6786  140.2038  154.2649 C   0  0  0  0  0  0  0  0  0  0  0  0
  147.3445  140.4104  153.5108 C   0  0  0  0  0  0  0  0  0  0  0  0
  146.9035  141.8774  153.6908 C   0  0  0  0  0  0  0  0  0  0  0  0
  147.5265  140.1794  151.9936 C   0  0  0  0  0  0  0  0  0  0  0  0
  146.2466  139.4938  154.1225 C   0  0  0  0  0  0  0  0  0  0  0  0
  146.6150  137.9930  154.3266 C   0  0  1  0  0  0  0  0  0  0  0  0
  145.5214  137.3217  155.2040 C   0  0  0  0  0  0  0  0  0  0  0  0
  145.8049  135.9608  155.4672 O   0  0  0  0  0  0  0  0  0  0  0  0
  146.7336  137.2813  153.0443 N   0  0  0  0  0  0  0  0  0  0  0  0
  145.7674  136.9482  152.1697 C   0  0  0  0  0  0  0  0  0  0  0  0
  144.5740  137.2022  152.3339 O   0  0  0  0  0  0  0  0  0  0  0  0
  146.2358  136.2137  150.9097 C   0  0  0  0  0  0  0  0  0  0  0  0
  145.7855  134.7627  150.9130 C   0  0  0  0  0  0  0  0  0  0  0  0
  144.7188  134.3322  150.0962 C   0  0  0  0  0  0  0  0  0  0  0  0
  144.3376  132.9773  150.1360 C   0  0  0  0  0  0  0  0  0  0  0  0
  145.0428  132.1073  150.9916 C   0  0  0  0  0  0  0  0  0  0  0  0
  146.0659  132.5073  151.7771 N   0  0  0  0  0  0  0  0  0  0  0  0
  146.4234  133.8089  151.7350 C   0  0  0  0  0  0  0  0  0  0  0  0
  147.9774  137.9102  155.0601 C   0  0  0  0  0  0  0  0  0  0  0  0
  150.3358  138.9631  156.1652 H   0  0  0  0  0  0  0  0  0  0  0  0
  151.2198  139.1391  154.6514 H   0  0  0  0  0  0  0  0  0  0  0  0
  150.7324  137.5418  155.2029 H   0  0  0  0  0  0  0  0  0  0  0  0
  149.2634  138.3256  153.3843 H   0  0  0  0  0  0  0  0  0  0  0  0
  148.5910  140.6179  155.2710 H   0  0  0  0  0  0  0  0  0  0  0  0
  149.4712  140.7733  153.7773 H   0  0  0  0  0  0  0  0  0  0  0  0
  145.9630  142.0750  153.1751 H   0  0  0  0  0  0  0  0  0  0  0  0
  147.6472  142.5690  153.2930 H   0  0  0  0  0  0  0  0  0  0  0  0
  146.7580  142.1286  154.7421 H   0  0  0  0  0  0  0  0  0  0  0  0
  146.5761  140.2627  151.4652 H   0  0  0  0  0  0  0  0  0  0  0  0
  147.9456  139.2040  151.7572 H   0  0  0  0  0  0  0  0  0  0  0  0
  148.2031  140.9181  151.5625 H   0  0  0  0  0  0  0  0  0  0  0  0
  145.9997  139.8966  155.1062 H   0  0  0  0  0  0  0  0  0  0  0  0
  145.3247  139.5915  153.5489 H   0  0  0  0  0  0  0  0  0  0  0  0
  145.4402  137.8339  156.1635 H   0  0  0  0  0  0  0  0  0  0  0  0
  144.5360  137.3907  154.7439 H   0  0  0  0  0  0  0  0  0  0  0  0
  144.9875  135.4901  155.5257 H   0  0  0  0  0  0  0  0  0  0  0  0
  147.6731  137.0100  152.7936 H   0  0  0  0  0  0  0  0  0  0  0  0
  145.8459  136.7059  150.0172 H   0  0  0  0  0  0  0  0  0  0  0  0
  147.3234  136.2675  150.8515 H   0  0  0  0  0  0  0  0  0  0  0  0
  144.2002  135.0272  149.4524 H   0  0  0  0  0  0  0  0  0  0  0  0
  143.5243  132.6131  149.5259 H   0  0  0  0  0  0  0  0  0  0  0  0
  144.7787  131.0616  151.0454 H   0  0  0  0  0  0  0  0  0  0  0  0
  147.2426  134.0969  152.3772 H   0  0  0  0  0  0  0  0  0  0  0  0
  148.2935  136.8695  155.1444 H   0  0  0  0  0  0  0  0  0  0  0  0
  147.8560  138.2677  156.0838 H   0  0  0  0  0  0  0  0  0  0  0  0
  1  2  1  0  0  0  0
  1 22  1  0  0  0  0
  1 23  1  0  0  0  0
  1 24  1  0  0  0  0
  2 21  1  0  0  0  0
  2  3  1  0  0  0  0
  2 25  1  0  0  0  0
  3  4  1  0  0  0  0
  3 26  1  0  0  0  0
  3 27  1  0  0  0  0
  4  5  1  0  0  0  0
  4  6  1  0  0  0  0
  4  7  1  0  0  0  0
  5 28  1  0  0  0  0
  5 29  1  0  0  0  0
  5 30  1  0  0  0  0
  6 31  1  0  0  0  0
  6 32  1  0  0  0  0
  6 33  1  0  0  0  0
  7  8  1  0  0  0  0
  7 34  1  0  0  0  0
  7 35  1  0  0  0  0
  8  9  1  0  0  0  0
  8 11  1  0  0  0  0
  8 21  1  0  0  0  0
  9 10  1  0  0  0  0
  9 36  1  0  0  0  0
  9 37  1  0  0  0  0
 10 38  1  0  0  0  0
 11 12  1  0  0  0  0
 11 39  1  0  0  0  0
 12 13  2  0  0  0  0
 12 14  1  0  0  0  0
 14 15  1  0  0  0  0
 14 40  1  0  0  0  0
 14 41  1  0  0  0  0
 15 20  1  0  0  0  0
 15 16  2  0  0  0  0
 16 17  1  0  0  0  0
 16 42  1  0  0  0  0
 17 18  2  0  0  0  0
 17 43  1  0  0  0  0
 18 19  1  0  0  0  0
 18 44  1  0  0  0  0
 19 20  2  0  0  0  0
 20 45  1  0  0  0  0
 21 46  1  0  0  0  0
 21 47  1  0  0  0  0
M  END
> <s_m_source_file>
AV-unprocessed.smi

> <i_m_source_file_index>
2802

> <i_lp_mmshare_version>
43012

> <i_f3d_flags>
0

> <s_epik_input>
W0NIM11DMShbQ0gzXSlbQ0gyXVtDQEBIXShbQ0gzXSlbQ0gyXVtDQF0oW0NIMl0xKShbQ0gyXVtPSF0pW05IXUMoPU8pW0NIMl1jMltjSF1bY0hdW2NIXW5bY0hdMg==

> <s_epik_cmdline>
J2VwaWtfcHl0aG9uJywgJy1waCcsICc3LjAnLCAnLXRuJywgJzgnLCAnLW1hJywgJzIwMCcsICctbWV0YWxfYmluZGluZycsICctaW1hZScsICc8aW5maWxlLm1hZT4nLCAnLW9tYWUnLCAnPG91dGZpbGUubWFlPic=

> <r_epik_Ionization_Penalty>
0.004793

> <r_epik_Ionization_Penalty_Charging>
0

> <r_epik_Ionization_Penalty_Neutral>
0.004793

> <r_epik_State_Penalty>
0.00347421

> <r_epik_Charging_Adjusted_Penalty>
0.00347421

> <i_epik_Tot_Q>
0

> <i_epik_Tot_abs_Q>
0

> <r_epik_Metal_State_Penalty>
-0

> <b_epik_Metal_Only>
0

> <s_lp_Force_Field>
OPLS_2005

> <r_lp_Energy>
18.2871

> <b_lp_Chiralities_Consistent>
1

> <s_lp_Variant>
AV-unprocessed.smi:2802-1

> <Gold.Version>
5.8.1

> <Gold.Id.Protein>
6NUR|6NUR_protein|mol2

> <Gold.PLP.Fitness>
37.4420

> <Gold.PLP.PLP>
-32.2707

> <Gold.PLP.part.hbond>
-1.0000

> <Gold.PLP.part.metal>
0.0000

> <Gold.PLP.part.buried>
-1.4886

> <Gold.PLP.part.nonpolar>
-30.3251

> <Gold.PLP.part.repulsive>
0.3213

> <Gold.PLP.ligand.clash>
0.0000

> <Gold.PLP.ligand.torsion>
0.4161

> <Gold.PLP.Chemscore.Hbond>
1.0000

> <Gold.PLP.Chemscore.CHOScore>
0.9993

> <Gold.PLP.Chemscore.Metal>
0.0000

> <Gold.Chemscore.Hbonds>
donor molecule, donor type, donor heavy atom, donor atom, acceptor molecule, acceptor atom, score
      L1  H    11    39       P1  7948  1.00
      L1  C    20    45       P1  7948  0.42

> <Gold.PLP.Chemscore.Internal.Correction>
0.0058

> <Gold.Rescore>
     Score         DG    S(hbond)    S(metal)    S(lipo)     H(rot)  DE(clash)    DE(int)     intcor
     13.86     -14.20       1.00        0.00      89.87       2.00       0.21       0.13       ----

> <Gold.Chemscore.Fitness>
13.8581

> <Gold.Chemscore.DG>
-14.2010

> <Gold.Chemscore.ZeroCoef>
-5.4800

> <Gold.Chemscore.Hbond>
0.9978

> <Gold.Chemscore.Metal>
0.0000

> <Gold.Chemscore.Lipo>
89.8711

> <Gold.Chemscore.Internal_Hbond>
0.0000

> <Gold.Chemscore.DEClash>
0.2081

> <Gold.Chemscore.DEInternal>
0.1348

> <Gold.Chemscore.Rot>
2.0026

> <Gold.Chemscore.Internal.Correction>
   9.000000E+99

> <Gold.Chemscore.Hbonds>
donor molecule, donor type, donor heavy atom, donor atom, acceptor molecule, acceptor atom, score
      L1  H    11    39       P1  7948  0.99

> <Gold.Chemscore.Hbond.Weighted>
-3.3327

> <Gold.Chemscore.Metal.Weighted>
-0.0000

> <Gold.Chemscore.Lipo.Weighted>
-10.5149

> <Gold.Chemscore.Internal_Hbond.Weighted>
0.0000

> <Gold.Chemscore.DEClash.Weighted>
0.2081

> <Gold.Chemscore.DEInternal.Weighted>
0.1348

> <Gold.Chemscore.Rot.Weighted>
5.1267

> <Gold.Chemscore.Internal.Correction.Weighted>
   9.000000E+99

> <Gold.Protein.RotatedTorsions>
[ 6907 6896 6895 6894 ] final -102.19 input  -60.11 | X-H torsion
[ 7974 7965 7964 7962 ] final  -22.77 input  175.53 | X-H torsion
[ 8008 7997 7996 7995 ] final  176.76 input   59.86 | X-H torsion
[ 10167 10162 10161 10158 ] final   11.06 input  -65.29 | X-H torsion
[ 10718 10713 10712 10709 ] final  179.82 input   66.30 | X-H torsion
[ 10763 10752 10751 10750 ] final  -86.48 input  -60.55 | X-H torsion
[ 11005 11000 10999 10996 ] final  -86.53 input  -57.11 | X-H torsion

> <Gold.Protein.ActiveResidues>
 VAL166  LYS551  ARG553  GLY616  TRP617  ASP618  TYR619  PRO620  LYS621  CYS622 
 ASP623  PHE694  ASN695  SER759  ASP760  ASP761  ALA762  ILE779  LEU786  VAL792 
 PHE793  MET794  SER795  GLU796  ALA797  LYS798  CYS799  TRP800  GLU811  SER814 

> <Gold.Protein.RotatedAtoms>
  150.7185  134.0620  159.3834 H   0  0  0  0  0  0  0  0  0  0  0  0  # atno 6907 bound_to 6896
  151.8600  135.0525  160.0477 H   0  0  0  0  0  0  0  0  0  0  0  0  # atno 6908 bound_to 6896
  152.2725  133.5359  159.5484 H   0  0  0  0  0  0  0  0  0  0  0  0  # atno 6909 bound_to 6896
  146.1656  140.4525  142.8553 H   0  0  0  0  0  0  0  0  0  0  0  0  # atno 7974 bound_to 7965
  156.0730  140.1375  156.9806 H   0  0  0  0  0  0  0  0  0  0  0  0  # atno 8008 bound_to 7997
  154.4542  140.0968  156.6759 H   0  0  0  0  0  0  0  0  0  0  0  0  # atno 8009 bound_to 7997
  155.5198  140.3456  155.4407 H   0  0  0  0  0  0  0  0  0  0  0  0  # atno 8010 bound_to 7997
  140.6155  143.8317  150.7114 H   0  0  0  0  0  0  0  0  0  0  0  0  # atno 10167 bound_to 10162
  156.8701  130.9781  151.3074 H   0  0  0  0  0  0  0  0  0  0  0  0  # atno 10718 bound_to 10713
  154.6230  135.5447  153.7596 H   0  0  0  0  0  0  0  0  0  0  0  0  # atno 10763 bound_to 10752
  153.0247  135.6417  154.1413 H   0  0  0  0  0  0  0  0  0  0  0  0  # atno 10764 bound_to 10752
  154.1347  135.2912  155.3156 H   0  0  0  0  0  0  0  0  0  0  0  0  # atno 10765 bound_to 10752
  141.1629  133.7460  156.9175 H   0  0  0  0  0  0  0  0  0  0  0  0  # atno 11005 bound_to 11000
  144.8088  140.6347  143.6429 LP  0  0  0  0  0  0  0  0  0  0  0  0  # atno 17320 bound_to 7965
  145.4476  139.1527  143.3936 LP  0  0  0  0  0  0  0  0  0  0  0  0  # atno 17321 bound_to 7965
  140.1895  143.4048  152.1874 LP  0  0  0  0  0  0  0  0  0  0  0  0  # atno 17342 bound_to 10162
  139.5395  144.7243  151.4780 LP  0  0  0  0  0  0  0  0  0  0  0  0  # atno 17343 bound_to 10162
  157.6200  130.8648  149.9093 LP  0  0  0  0  0  0  0  0  0  0  0  0  # atno 17370 bound_to 10713
  156.0731  130.3682  150.0735 LP  0  0  0  0  0  0  0  0  0  0  0  0  # atno 17371 bound_to 10713
  140.1474  134.9253  157.2548 LP  0  0  0  0  0  0  0  0  0  0  0  0  # atno 17394 bound_to 11000
  140.2763  134.3401  155.7357 LP  0  0  0  0  0  0  0  0  0  0  0  0  # atno 17395 bound_to 11000

$$$$
