AV-unprocessed.smi:573|AV-procd|sdf|2969|dock10
  -GOLD-   2262023473D 1   1.00000     0.00000
 Structure written by MMmdl.
 45 47  0  0  0  0  0  0  0  0  2 V2000
  147.0740  139.9275  153.7276 C   0  0  0  0  0  0  0  0  0  0  0  0
  147.8153  141.2662  153.8595 C   0  0  2  0  0  0  0  0  0  0  0  0
  149.1084  141.1157  153.3145 O   0  0  0  0  0  0  0  0  0  0  0  0
  147.9671  141.7344  155.3190 C   0  0  0  0  0  0  0  0  0  0  0  0
  148.9133  140.9259  156.0747 N   0  0  0  0  0  0  0  0  0  0  0  0
  149.8945  141.5566  156.8482 C   0  0  0  0  0  0  0  0  0  0  0  0
  150.2714  142.8602  156.7597 N   0  3  0  0  0  0  0  0  0  0  0  0
  151.2646  143.0964  157.7142 C   0  0  0  0  0  0  0  0  0  0  0  0
  151.9657  144.2576  158.0241 C   0  0  0  0  0  0  0  0  0  0  0  0
  152.9129  144.1671  159.0648 C   0  0  0  0  0  0  0  0  0  0  0  0
  153.1335  142.9577  159.7551 C   0  0  0  0  0  0  0  0  0  0  0  0
  152.4201  141.7846  159.4327 C   0  0  0  0  0  0  0  0  0  0  0  0
  151.4876  141.8775  158.3996 C   0  0  0  0  0  0  0  0  0  0  0  0
  150.6189  140.9435  157.8189 N   0  0  0  0  0  0  0  0  0  0  0  0
  150.5901  139.5556  158.3019 C   0  0  0  0  0  0  0  0  0  0  0  0
  151.1920  138.5768  157.2807 C   0  0  1  0  0  0  0  0  0  0  0  0
  150.1658  137.5278  156.8133 C   0  0  0  0  0  0  0  0  0  0  0  0
  150.7829  136.6069  155.7545 C   0  0  0  0  0  0  0  0  0  0  0  0
  151.3857  137.4488  154.6247 C   0  0  0  0  0  0  0  0  0  0  0  0
  152.3443  138.5055  155.1967 C   0  0  0  0  0  0  0  0  0  0  0  0
  151.6637  139.3123  156.1529 O   0  0  0  0  0  0  0  0  0  0  0  0
  146.0526  140.0030  154.1013 H   0  0  0  0  0  0  0  0  0  0  0  0
  147.5753  139.1377  154.2880 H   0  0  0  0  0  0  0  0  0  0  0  0
  147.0163  139.6112  152.6854 H   0  0  0  0  0  0  0  0  0  0  0  0
  147.2989  142.0257  153.2715 H   0  0  0  0  0  0  0  0  0  0  0  0
  149.0997  140.3878  152.7115 H   0  0  0  0  0  0  0  0  0  0  0  0
  148.3065  142.7705  155.3438 H   0  0  0  0  0  0  0  0  0  0  0  0
  147.0005  141.7188  155.8244 H   0  0  0  0  0  0  0  0  0  0  0  0
  148.6776  139.9628  156.2675 H   0  0  0  0  0  0  0  0  0  0  0  0
  151.7971  145.1866  157.4993 H   0  0  0  0  0  0  0  0  0  0  0  0
  153.4804  145.0442  159.3408 H   0  0  0  0  0  0  0  0  0  0  0  0
  153.8650  142.9287  160.5499 H   0  0  0  0  0  0  0  0  0  0  0  0
  152.5946  140.8663  159.9734 H   0  0  0  0  0  0  0  0  0  0  0  0
  151.1556  139.5210  159.2338 H   0  0  0  0  0  0  0  0  0  0  0  0
  149.5658  139.2829  158.5557 H   0  0  0  0  0  0  0  0  0  0  0  0
  152.0388  138.0693  157.7470 H   0  0  0  0  0  0  0  0  0  0  0  0
  149.8133  136.9381  157.6599 H   0  0  0  0  0  0  0  0  0  0  0  0
  149.2915  138.0289  156.3953 H   0  0  0  0  0  0  0  0  0  0  0  0
  151.5604  135.9922  156.2103 H   0  0  0  0  0  0  0  0  0  0  0  0
  150.0319  135.9221  155.3600 H   0  0  0  0  0  0  0  0  0  0  0  0
  151.9094  136.8081  153.9148 H   0  0  0  0  0  0  0  0  0  0  0  0
  150.5873  137.9435  154.0705 H   0  0  0  0  0  0  0  0  0  0  0  0
  153.2142  138.0344  155.6568 H   0  0  0  0  0  0  0  0  0  0  0  0
  152.7157  139.1462  154.3969 H   0  0  0  0  0  0  0  0  0  0  0  0
  149.8818  143.5277  156.1069 H   0  0  0  0  0  0  0  0  0  0  0  0
  1  2  1  0  0  0  0
  1 22  1  0  0  0  0
  1 23  1  0  0  0  0
  1 24  1  0  0  0  0
  2  3  1  0  0  0  0
  2  4  1  0  0  0  0
  2 25  1  0  0  0  0
  3 26  1  0  0  0  0
  4  5  1  0  0  0  0
  4 27  1  0  0  0  0
  4 28  1  0  0  0  0
  5  6  1  0  0  0  0
  5 29  1  0  0  0  0
  6 14  1  0  0  0  0
  6  7  2  0  0  0  0
  7  8  1  0  0  0  0
  7 45  1  0  0  0  0
  8 13  2  0  0  0  0
  8  9  1  0  0  0  0
  9 10  2  0  0  0  0
  9 30  1  0  0  0  0
 10 11  1  0  0  0  0
 10 31  1  0  0  0  0
 11 12  2  0  0  0  0
 11 32  1  0  0  0  0
 12 13  1  0  0  0  0
 12 33  1  0  0  0  0
 13 14  1  0  0  0  0
 14 15  1  0  0  0  0
 15 16  1  0  0  0  0
 15 34  1  0  0  0  0
 15 35  1  0  0  0  0
 16 21  1  0  0  0  0
 16 17  1  0  0  0  0
 16 36  1  0  0  0  0
 17 18  1  0  0  0  0
 17 37  1  0  0  0  0
 17 38  1  0  0  0  0
 18 19  1  0  0  0  0
 18 39  1  0  0  0  0
 18 40  1  0  0  0  0
 19 20  1  0  0  0  0
 19 41  1  0  0  0  0
 19 42  1  0  0  0  0
 20 21  1  0  0  0  0
 20 43  1  0  0  0  0
 20 44  1  0  0  0  0
M  CHG  1   7   1
M  END
> <s_m_source_file>
AV-unprocessed.smi

> <i_m_source_file_index>
573

> <i_lp_mmshare_version>
43012

> <i_f3d_flags>
0

> <s_epik_input>
W0NIM11bQ0BIXShbT0hdKVtDSDJdW05IXWMobjEpbihjKGMxMilbY0hdW2NIXVtjSF1bY0hdMilbQ0gyXVtDQEBIXTNbQ0gyXVtDSDJdW0NIMl1bQ0gyXU8z

> <s_epik_cmdline>
J2VwaWtfcHl0aG9uJywgJy1waCcsICc3LjAnLCAnLXRuJywgJzgnLCAnLW1hJywgJzIwMCcsICctbWV0YWxfYmluZGluZycsICctaW1hZScsICc8aW5maWxlLm1hZT4nLCAnLW9tYWUnLCAnPG91dGZpbGUubWFlPic=

> <r_epik_Ionization_Penalty>
0.0692245

> <r_epik_Ionization_Penalty_Charging>
0.0692223

> <r_epik_Ionization_Penalty_Neutral>
2.1869e-06

> <r_epik_State_Penalty>
0.0606215

> <r_epik_Charging_Adjusted_Penalty>
0.129844

> <i_epik_Tot_Q>
1

> <i_epik_Tot_abs_Q>
1

> <r_epik_Metal_State_Penalty>
2.77811

> <b_epik_Metal_Only>
0

> <s_lp_Force_Field>
OPLS_2005

> <r_lp_Energy>
19.2261

> <b_lp_Chiralities_Consistent>
1

> <s_lp_Variant>
AV-unprocessed.smi:573-3

> <Gold.Version>
5.8.1

> <Gold.Id.Protein>
6NUR|6NUR_protein|mol2

> <Gold.PLP.Fitness>
54.3966

> <Gold.PLP.PLP>
-44.4299

> <Gold.PLP.part.hbond>
-3.5203

> <Gold.PLP.part.metal>
0.0000

> <Gold.PLP.part.buried>
-5.4752

> <Gold.PLP.part.nonpolar>
-36.6983

> <Gold.PLP.part.repulsive>
0.0906

> <Gold.PLP.ligand.clash>
0.0000

> <Gold.PLP.ligand.torsion>
0.9849

> <Gold.PLP.Chemscore.Hbond>
3.9760

> <Gold.PLP.Chemscore.CHOScore>
0.0000

> <Gold.PLP.Chemscore.Metal>
0.0000

> <Gold.Chemscore.Hbonds>
donor molecule, donor type, donor heavy atom, donor atom, acceptor molecule, acceptor atom, score
      L1  H     3    26       P1  7957  0.77
      L1  H     7    45       P1  8028  2.00
      P1  H  8011  8017       L1     3  1.00

> <Gold.PLP.Chemscore.Internal.Correction>
0.0084

> <Gold.Rescore>
     Score         DG    S(hbond)    S(metal)    S(lipo)     H(rot)  DE(clash)    DE(int)     intcor
     19.19     -20.97       1.88        0.00     124.15       2.07       0.26       1.53       ----

> <Gold.Chemscore.Fitness>
19.1878

> <Gold.Chemscore.DG>
-20.9721

> <Gold.Chemscore.ZeroCoef>
-5.4800

> <Gold.Chemscore.Hbond>
1.8761

> <Gold.Chemscore.Metal>
0.0000

> <Gold.Chemscore.Lipo>
124.1454

> <Gold.Chemscore.Internal_Hbond>
0.0000

> <Gold.Chemscore.DEClash>
0.2586

> <Gold.Chemscore.DEInternal>
1.5257

> <Gold.Chemscore.Rot>
2.0699

> <Gold.Chemscore.Internal.Correction>
   9.000000E+99

> <Gold.Chemscore.Hbonds>
donor molecule, donor type, donor heavy atom, donor atom, acceptor molecule, acceptor atom, score
      L1  H     3    26       P1  7957  0.76
      L1  H     7    45       P1  8028  0.97
      P1  H  8011  8017       L1     3  0.33

> <Gold.Chemscore.Hbond.Weighted>
-6.2662

> <Gold.Chemscore.Metal.Weighted>
-0.0000

> <Gold.Chemscore.Lipo.Weighted>
-14.5250

> <Gold.Chemscore.Internal_Hbond.Weighted>
0.0000

> <Gold.Chemscore.DEClash.Weighted>
0.2586

> <Gold.Chemscore.DEInternal.Weighted>
1.5257

> <Gold.Chemscore.Rot.Weighted>
5.2991

> <Gold.Chemscore.Internal.Correction.Weighted>
   9.000000E+99

> <Gold.Protein.RotatedTorsions>
[ 6907 6896 6895 6894 ] final  136.30 input  -60.11 | X-H torsion
[ 7974 7965 7964 7962 ] final  -96.81 input  175.53 | X-H torsion
[ 8008 7997 7996 7995 ] final  -57.64 input   59.86 | X-H torsion
[ 10167 10162 10161 10158 ] final  -73.89 input  -65.29 | X-H torsion
[ 10718 10713 10712 10709 ] final  136.00 input   66.30 | X-H torsion
[ 10763 10752 10751 10750 ] final    6.76 input  -60.55 | X-H torsion
[ 11005 11000 10999 10996 ] final -159.92 input  -57.11 | X-H torsion

> <Gold.Protein.ActiveResidues>
 VAL166  LYS551  ARG553  GLY616  TRP617  ASP618  TYR619  PRO620  LYS621  CYS622 
 ASP623  PHE694  ASN695  SER759  ASP760  ASP761  ALA762  ILE779  LEU786  VAL792 
 PHE793  MET794  SER795  GLU796  ALA797  LYS798  CYS799  TRP800  GLU811  SER814 

> <Gold.Protein.RotatedAtoms>
  152.2908  133.5560  159.5556 H   0  0  0  0  0  0  0  0  0  0  0  0  # atno 6907 bound_to 6896
  150.7235  134.0431  159.3781 H   0  0  0  0  0  0  0  0  0  0  0  0  # atno 6908 bound_to 6896
  151.8336  135.0613  160.0490 H   0  0  0  0  0  0  0  0  0  0  0  0  # atno 6909 bound_to 6896
  145.3420  140.9461  143.2602 H   0  0  0  0  0  0  0  0  0  0  0  0  # atno 7974 bound_to 7965
  154.4276  140.1102  156.5830 H   0  0  0  0  0  0  0  0  0  0  0  0  # atno 8008 bound_to 7997
  155.6092  140.3494  155.4598 H   0  0  0  0  0  0  0  0  0  0  0  0  # atno 8009 bound_to 7997
  156.0112  140.1219  157.0441 H   0  0  0  0  0  0  0  0  0  0  0  0  # atno 8010 bound_to 7997
  140.5073  143.2350  151.7652 H   0  0  0  0  0  0  0  0  0  0  0  0  # atno 10167 bound_to 10162
  157.4512  131.1066  151.0031 H   0  0  0  0  0  0  0  0  0  0  0  0  # atno 10718 bound_to 10713
  153.2440  135.6906  153.7751 H   0  0  0  0  0  0  0  0  0  0  0  0  # atno 10763 bound_to 10752
  153.6871  135.3319  155.3193 H   0  0  0  0  0  0  0  0  0  0  0  0  # atno 10764 bound_to 10752
  154.8367  135.4536  154.1372 H   0  0  0  0  0  0  0  0  0  0  0  0  # atno 10765 bound_to 10752
  140.6373  134.4588  157.5232 H   0  0  0  0  0  0  0  0  0  0  0  0  # atno 11005 bound_to 11000
  144.8783  139.4940  143.6735 LP  0  0  0  0  0  0  0  0  0  0  0  0  # atno 17320 bound_to 7965
  146.3003  139.7406  142.9096 LP  0  0  0  0  0  0  0  0  0  0  0  0  # atno 17321 bound_to 7965
  139.4887  144.4439  151.9732 LP  0  0  0  0  0  0  0  0  0  0  0  0  # atno 17342 bound_to 10162
  140.3530  144.3065  150.5946 LP  0  0  0  0  0  0  0  0  0  0  0  0  # atno 17343 bound_to 10162
  157.0860  130.5922  149.5430 LP  0  0  0  0  0  0  0  0  0  0  0  0  # atno 17370 bound_to 10713
  155.9988  130.5062  150.7584 LP  0  0  0  0  0  0  0  0  0  0  0  0  # atno 17371 bound_to 10713
  139.9093  134.8379  156.1586 LP  0  0  0  0  0  0  0  0  0  0  0  0  # atno 17394 bound_to 11000
  141.0632  133.6831  156.1994 LP  0  0  0  0  0  0  0  0  0  0  0  0  # atno 17395 bound_to 11000

$$$$
