AV-unprocessed.smi:99|AV-procd|sdf|867|dock6
  -GOLD-   2262017323D 1   1.00000     0.00000
 Structure written by MMmdl.
 53 56  0  0  0  0  0  0  0  0  1 V2000
  150.5148  141.2199  156.2016 O   0  0  0  0  0  0  0  0  0  0  0  0
  151.3709  141.1764  157.0871 C   0  0  0  0  0  0  0  0  0  0  0  0
  152.1234  140.0901  157.3476 O   0  0  0  0  0  0  0  0  0  0  0  0
  152.0504  138.9401  156.5195 C   0  0  0  0  0  0  0  0  0  0  0  0
  152.6685  137.7543  157.2708 C   0  0  2  0  0  0  0  0  0  0  0  0
  152.3084  137.7986  158.6488 O   0  0  0  0  0  0  0  0  0  0  0  0
  153.3196  137.2273  159.4322 C   0  0  2  0  0  0  0  0  0  0  0  0
  153.7683  138.2316  160.4708 N   0  0  0  0  0  0  0  0  0  0  0  0
  153.4611  139.5822  160.3613 C   0  0  0  0  0  0  0  0  0  0  0  0
  153.8619  140.5063  161.2660 C   0  0  0  0  0  0  0  0  0  0  0  0
  154.6604  140.1132  162.4225 C   0  0  0  0  0  0  0  0  0  0  0  0
  155.0655  140.8762  163.2966 O   0  0  0  0  0  0  0  0  0  0  0  0
  154.9594  138.7492  162.4842 N   0  0  0  0  0  0  0  0  0  0  0  0
  154.5566  137.7884  161.5555 C   0  0  0  0  0  0  0  0  0  0  0  0
  154.8963  136.6145  161.6972 O   0  0  0  0  0  0  0  0  0  0  0  0
  154.4923  136.8666  158.5056 C   0  0  1  0  0  0  0  0  0  0  0  0
  154.4570  135.4885  158.1818 O   0  0  0  0  0  0  0  0  0  0  0  0
  154.1958  137.7521  157.3075 C   0  0  1  0  0  0  0  0  0  0  0  0
  154.8183  137.2722  156.1191 O   0  0  0  0  0  0  0  0  0  0  0  0
  156.1467  137.0267  156.0745 C   0  0  0  0  0  0  0  0  0  0  0  0
  156.8412  136.8223  157.0719 O   0  0  0  0  0  0  0  0  0  0  0  0
  156.6958  137.0685  154.6895 C   0  0  0  0  0  0  0  0  0  0  0  0
  156.1571  137.9882  153.7596 C   0  0  0  0  0  0  0  0  0  0  0  0
  156.6355  138.0324  152.4358 C   0  0  0  0  0  0  0  0  0  0  0  0
  157.6599  137.1591  152.0266 C   0  0  0  0  0  0  0  0  0  0  0  0
  158.2059  136.2416  152.9430 C   0  0  0  0  0  0  0  0  0  0  0  0
  157.7281  136.1949  154.2671 C   0  0  0  0  0  0  0  0  0  0  0  0
  151.6684  142.3145  158.0043 C   0  0  0  0  0  0  0  0  0  0  0  0
  152.1035  142.0476  159.3232 C   0  0  0  0  0  0  0  0  0  0  0  0
  152.4125  143.1026  160.2038 C   0  0  0  0  0  0  0  0  0  0  0  0
  152.2901  144.4374  159.7764 C   0  0  0  0  0  0  0  0  0  0  0  0
  151.8544  144.7165  158.4681 C   0  0  0  0  0  0  0  0  0  0  0  0
  151.5430  143.6630  157.5871 C   0  0  0  0  0  0  0  0  0  0  0  0
  155.5182  138.4335  163.2637 H   0  0  0  0  0  0  0  0  0  0  0  0
  151.0207  138.7083  156.2436 H   0  0  0  0  0  0  0  0  0  0  0  0
  152.6017  139.1356  155.5993 H   0  0  0  0  0  0  0  0  0  0  0  0
  152.2991  136.8118  156.8632 H   0  0  0  0  0  0  0  0  0  0  0  0
  152.9043  136.3808  159.9830 H   0  0  0  0  0  0  0  0  0  0  0  0
  152.8808  139.9332  159.5207 H   0  0  0  0  0  0  0  0  0  0  0  0
  153.5922  141.5440  161.1327 H   0  0  0  0  0  0  0  0  0  0  0  0
  155.4544  137.0982  158.9646 H   0  0  0  0  0  0  0  0  0  0  0  0
  154.6959  134.9947  158.9514 H   0  0  0  0  0  0  0  0  0  0  0  0
  154.5372  138.7579  157.5559 H   0  0  0  0  0  0  0  0  0  0  0  0
  155.3642  138.6631  154.0481 H   0  0  0  0  0  0  0  0  0  0  0  0
  156.2123  138.7347  151.7329 H   0  0  0  0  0  0  0  0  0  0  0  0
  158.0257  137.1922  151.0109 H   0  0  0  0  0  0  0  0  0  0  0  0
  158.9911  135.5697  152.6293 H   0  0  0  0  0  0  0  0  0  0  0  0
  158.1650  135.4747  154.9434 H   0  0  0  0  0  0  0  0  0  0  0  0
  152.2106  141.0306  159.6721 H   0  0  0  0  0  0  0  0  0  0  0  0
  152.7464  142.8864  161.2081 H   0  0  0  0  0  0  0  0  0  0  0  0
  152.5305  145.2460  160.4510 H   0  0  0  0  0  0  0  0  0  0  0  0
  151.7633  145.7405  158.1367 H   0  0  0  0  0  0  0  0  0  0  0  0
  151.2185  143.9133  156.5876 H   0  0  0  0  0  0  0  0  0  0  0  0
  1  2  2  0  0  0  0
  2  3  1  0  0  0  0
  2 28  1  0  0  0  0
  3  4  1  0  0  0  0
  4  5  1  0  0  0  0
  4 35  1  0  0  0  0
  4 36  1  0  0  0  0
  5 18  1  0  0  0  0
  5  6  1  0  0  0  0
  5 37  1  0  0  0  0
  6  7  1  0  0  0  0
  7  8  1  0  0  0  0
  7 16  1  0  0  0  0
  7 38  1  0  0  0  0
  8 14  1  0  0  0  0
  8  9  1  0  0  0  0
  9 10  2  0  0  0  0
  9 39  1  0  0  0  0
 10 11  1  0  0  0  0
 10 40  1  0  0  0  0
 11 12  2  0  0  0  0
 11 13  1  0  0  0  0
 13 34  1  0  0  0  0
 13 14  1  0  0  0  0
 14 15  2  0  0  0  0
 16 17  1  0  0  0  0
 16 18  1  0  0  0  0
 16 41  1  0  0  0  0
 17 42  1  0  0  0  0
 18 19  1  0  0  0  0
 18 43  1  0  0  0  0
 19 20  1  0  0  0  0
 20 21  2  0  0  0  0
 20 22  1  0  0  0  0
 22 27  1  0  0  0  0
 22 23  2  0  0  0  0
 23 24  1  0  0  0  0
 23 44  1  0  0  0  0
 24 25  2  0  0  0  0
 24 45  1  0  0  0  0
 25 26  1  0  0  0  0
 25 46  1  0  0  0  0
 26 27  2  0  0  0  0
 26 47  1  0  0  0  0
 27 48  1  0  0  0  0
 28 33  1  0  0  0  0
 28 29  2  0  0  0  0
 29 30  1  0  0  0  0
 29 49  1  0  0  0  0
 30 31  2  0  0  0  0
 30 50  1  0  0  0  0
 31 32  1  0  0  0  0
 31 51  1  0  0  0  0
 32 33  2  0  0  0  0
 32 52  1  0  0  0  0
 33 53  1  0  0  0  0
M  END
> <s_m_source_file>
AV-unprocessed.smi

> <i_m_source_file_index>
99

> <i_lp_mmshare_version>
43012

> <i_f3d_flags>
0

> <s_epik_input>
W2NIXTFbY0hdW2NIXVtjSF1bY0hdYzFDKD1PKU9bQ0gyXVtDQEBIXTJPW0NAQEhdKG4zW2NIXVtjSF1jKD1PKVtuSF1jMz1PKVtDQEBIXShbT0hdKVtDQEhdMk9DKD1PKWM0W2NIXVtjSF1bY0hdW2NIXVtjSF00

> <s_epik_cmdline>
J2VwaWtfcHl0aG9uJywgJy1waCcsICc3LjAnLCAnLXRuJywgJzgnLCAnLW1hJywgJzIwMCcsICctbWV0YWxfYmluZGluZycsICctaW1hZScsICc8aW5maWxlLm1hZT4nLCAnLW9tYWUnLCAnPG91dGZpbGUubWFlPic=

> <r_lp_tautomer_probability>
1

> <r_epik_Ionization_Penalty>
0.00454555

> <r_epik_Ionization_Penalty_Charging>
0.0045191

> <r_epik_Ionization_Penalty_Neutral>
2.64449e-05

> <r_epik_State_Penalty>
-0

> <r_epik_Charging_Adjusted_Penalty>
0.0045191

> <i_epik_Tot_Q>
0

> <i_epik_Tot_abs_Q>
0

> <r_epik_Metal_State_Penalty>
1.27877

> <b_epik_Metal_Only>
0

> <s_epik_Chemistry_Notes>
This compound has an ester and may undergo hydrolysis at high or low pH. This compound contains an acetal/aminal-like group ( X-CH(R)-Y where X, Y are N, S, or O) that may be acid/base labile, releasing an aldehyde.

> <s_lp_Force_Field>
OPLS_2005

> <r_lp_Energy>
37.3594

> <b_lp_Chiralities_Consistent>
1

> <s_lp_Variant>
AV-unprocessed.smi:99-3

> <Gold.Version>
5.8.1

> <Gold.Id.Protein>
6NUR|6NUR_protein|mol2

> <Gold.PLP.Fitness>
51.5837

> <Gold.PLP.PLP>
-55.1274

> <Gold.PLP.part.hbond>
-3.4100

> <Gold.PLP.part.metal>
0.0000

> <Gold.PLP.part.buried>
-3.4730

> <Gold.PLP.part.nonpolar>
-47.9202

> <Gold.PLP.part.repulsive>
0.1417

> <Gold.PLP.ligand.clash>
0.0065

> <Gold.PLP.ligand.torsion>
1.9505

> <Gold.PLP.Chemscore.Hbond>
0.0000

> <Gold.PLP.Chemscore.CHOScore>
0.0000

> <Gold.PLP.Chemscore.Metal>
0.0000

> <Gold.PLP.Chemscore.Internal.Correction>
0.3638

> <Gold.Rescore>
     Score         DG    S(hbond)    S(metal)    S(lipo)     H(rot)  DE(clash)    DE(int)     intcor
     10.49     -17.13       0.05        0.00     167.90       3.19       3.14       3.50       ----

> <Gold.Chemscore.Fitness>
10.4899

> <Gold.Chemscore.DG>
-17.1298

> <Gold.Chemscore.ZeroCoef>
-5.4800

> <Gold.Chemscore.Hbond>
0.0517

> <Gold.Chemscore.Metal>
0.0000

> <Gold.Chemscore.Lipo>
167.8999

> <Gold.Chemscore.Internal_Hbond>
0.0000

> <Gold.Chemscore.DEClash>
3.1364

> <Gold.Chemscore.DEInternal>
3.5035

> <Gold.Chemscore.Rot>
3.1903

> <Gold.Chemscore.Internal.Correction>
   9.000000E+99

> <Gold.Chemscore.Hbond.Weighted>
-0.1726

> <Gold.Chemscore.Metal.Weighted>
-0.0000

> <Gold.Chemscore.Lipo.Weighted>
-19.6443

> <Gold.Chemscore.Internal_Hbond.Weighted>
0.0000

> <Gold.Chemscore.DEClash.Weighted>
3.1364

> <Gold.Chemscore.DEInternal.Weighted>
3.5035

> <Gold.Chemscore.Rot.Weighted>
8.1671

> <Gold.Chemscore.Internal.Correction.Weighted>
   9.000000E+99

> <Gold.Protein.RotatedTorsions>
[ 6907 6896 6895 6894 ] final   47.83 input  -60.11 | X-H torsion
[ 7974 7965 7964 7962 ] final   91.40 input  175.53 | X-H torsion
[ 8008 7997 7996 7995 ] final  -57.10 input   59.86 | X-H torsion
[ 10167 10162 10161 10158 ] final  -53.72 input  -65.29 | X-H torsion
[ 10718 10713 10712 10709 ] final   73.67 input   66.30 | X-H torsion
[ 10763 10752 10751 10750 ] final -175.40 input  -60.55 | X-H torsion
[ 11005 11000 10999 10996 ] final  147.97 input  -57.11 | X-H torsion

> <Gold.Protein.ActiveResidues>
 VAL166  LYS551  ARG553  GLY616  TRP617  ASP618  TYR619  PRO620  LYS621  CYS622 
 ASP623  PHE694  ASN695  SER759  ASP760  ASP761  ALA762  ILE779  LEU786  VAL792 
 PHE793  MET794  SER795  GLU796  ALA797  LYS798  CYS799  TRP800  GLU811  SER814 

> <Gold.Protein.RotatedAtoms>
  152.2726  134.7916  160.0411 H   0  0  0  0  0  0  0  0  0  0  0  0  # atno 6907 bound_to 6896
  151.8524  133.3437  159.3685 H   0  0  0  0  0  0  0  0  0  0  0  0  # atno 6908 bound_to 6896
  150.7158  134.5214  159.5700 H   0  0  0  0  0  0  0  0  0  0  0  0  # atno 6909 bound_to 6896
  145.5062  139.2276  143.2750 H   0  0  0  0  0  0  0  0  0  0  0  0  # atno 7974 bound_to 7965
  154.4255  140.1114  156.5744 H   0  0  0  0  0  0  0  0  0  0  0  0  # atno 8008 bound_to 7997
  155.6178  140.3495  155.4623 H   0  0  0  0  0  0  0  0  0  0  0  0  # atno 8009 bound_to 7997
  156.0048  140.1206  157.0502 H   0  0  0  0  0  0  0  0  0  0  0  0  # atno 8010 bound_to 7997
  140.6470  143.2541  151.4832 H   0  0  0  0  0  0  0  0  0  0  0  0  # atno 10167 bound_to 10162
  157.6558  130.9640  150.1102 H   0  0  0  0  0  0  0  0  0  0  0  0  # atno 10718 bound_to 10713
  154.5849  135.2839  155.0695 H   0  0  0  0  0  0  0  0  0  0  0  0  # atno 10763 bound_to 10752
  154.2018  135.6423  153.5093 H   0  0  0  0  0  0  0  0  0  0  0  0  # atno 10764 bound_to 10752
  153.0101  135.5470  154.6515 H   0  0  0  0  0  0  0  0  0  0  0  0  # atno 10765 bound_to 10752
  140.0920  134.9035  157.1665 H   0  0  0  0  0  0  0  0  0  0  0  0  # atno 11005 bound_to 11000
  146.2195  140.5866  142.9023 LP  0  0  0  0  0  0  0  0  0  0  0  0  # atno 17320 bound_to 7965
  144.7752  140.5725  143.6642 LP  0  0  0  0  0  0  0  0  0  0  0  0  # atno 17321 bound_to 7965
  139.5681  144.1994  152.1795 LP  0  0  0  0  0  0  0  0  0  0  0  0  # atno 17342 bound_to 10162
  140.1282  144.5312  150.6819 LP  0  0  0  0  0  0  0  0  0  0  0  0  # atno 17343 bound_to 10162
  156.2001  130.3660  149.8799 LP  0  0  0  0  0  0  0  0  0  0  0  0  # atno 17370 bound_to 10713
  156.6705  130.8818  151.3561 LP  0  0  0  0  0  0  0  0  0  0  0  0  # atno 17371 bound_to 10713
  140.3339  134.2779  155.7223 LP  0  0  0  0  0  0  0  0  0  0  0  0  # atno 17394 bound_to 11000
  141.2081  133.7788  157.0081 LP  0  0  0  0  0  0  0  0  0  0  0  0  # atno 17395 bound_to 11000

$$$$
