AV-unprocessed.smi:94|AV-procd|sdf|851|dock7
  -GOLD-   2262017293D 1   1.00000     0.00000
 Structure written by MMmdl.
 53 55  0  0  0  0  0  0  0  0  1 V2000
  154.6690  139.1544  161.2490 C   0  0  0  0  0  0  0  0  0  0  0  0
  153.7175  139.2901  160.2039 O   0  0  0  0  0  0  0  0  0  0  0  0
  153.1265  140.5220  160.0077 C   0  0  0  0  0  0  0  0  0  0  0  0
  153.4630  141.6752  160.7626 C   0  0  0  0  0  0  0  0  0  0  0  0
  152.8306  142.9076  160.5156 C   0  0  0  0  0  0  0  0  0  0  0  0
  151.8590  143.0121  159.5041 C   0  0  0  0  0  0  0  0  0  0  0  0
  151.1725  144.3348  159.2319 C   0  0  0  0  0  0  0  0  0  0  0  0
  151.5211  141.8758  158.7477 C   0  0  0  0  0  0  0  0  0  0  0  0
  152.1369  140.6258  158.9982 C   0  0  0  0  0  0  0  0  0  0  0  0
  151.7488  139.3964  158.1724 C   0  0  2  0  0  0  0  0  0  0  0  0
  151.8665  139.6795  156.6684 C   0  0  0  0  0  0  0  0  0  0  0  0
  150.3908  138.9501  158.4684 N   0  0  0  0  0  0  0  0  0  0  0  0
  149.9942  137.6999  158.7573 C   0  0  0  0  0  0  0  0  0  0  0  0
  150.7307  136.7187  158.6686 O   0  0  0  0  0  0  0  0  0  0  0  0
  148.5562  137.5250  159.2769 C   0  0  0  0  0  0  0  0  0  0  0  0
  148.2858  136.1758  159.8298 N   0  0  0  0  0  0  0  0  0  0  0  0
  147.8560  136.0802  161.1774 C   0  0  0  0  0  0  0  0  0  0  0  0
  147.7485  137.0813  161.8868 O   0  0  0  0  0  0  0  0  0  0  0  0
  147.5348  134.7367  161.6426 C   0  0  0  0  0  0  0  0  0  0  0  0
  147.0986  134.5533  162.9003 F   0  0  0  0  0  0  0  0  0  0  0  0
  147.6548  133.6724  160.8236 C   0  0  0  0  0  0  0  0  0  0  0  0
  148.0952  133.7728  159.5182 N   0  0  0  0  0  0  0  0  0  0  0  0
  148.1269  132.5259  158.6615 C   0  0  2  0  0  0  0  0  0  0  0  0
  147.6720  131.2540  159.3930 C   0  0  0  0  0  0  0  0  0  0  0  0
  148.5720  130.2151  158.7595 C   0  0  0  0  0  0  0  0  0  0  0  0
  149.8594  131.0021  158.5385 C   0  0  0  0  0  0  0  0  0  0  0  0
  149.4324  132.3201  158.2040 O   0  0  0  0  0  0  0  0  0  0  0  0
  148.3986  135.0466  158.9825 C   0  0  0  0  0  0  0  0  0  0  0  0
  148.7304  135.1803  157.8041 O   0  0  0  0  0  0  0  0  0  0  0  0
  155.0308  138.1269  161.2727 H   0  0  0  0  0  0  0  0  0  0  0  0
  154.2260  139.3699  162.2221 H   0  0  0  0  0  0  0  0  0  0  0  0
  155.5312  139.8037  161.0911 H   0  0  0  0  0  0  0  0  0  0  0  0
  154.2077  141.6423  161.5430 H   0  0  0  0  0  0  0  0  0  0  0  0
  153.0971  143.7727  161.1046 H   0  0  0  0  0  0  0  0  0  0  0  0
  150.9265  144.4339  158.1741 H   0  0  0  0  0  0  0  0  0  0  0  0
  151.8137  145.1719  159.5100 H   0  0  0  0  0  0  0  0  0  0  0  0
  150.2481  144.4032  159.8055 H   0  0  0  0  0  0  0  0  0  0  0  0
  150.7789  141.9775  157.9698 H   0  0  0  0  0  0  0  0  0  0  0  0
  152.4413  138.5882  158.4118 H   0  0  0  0  0  0  0  0  0  0  0  0
  152.8843  139.9651  156.4007 H   0  0  0  0  0  0  0  0  0  0  0  0
  151.2027  140.4895  156.3635 H   0  0  0  0  0  0  0  0  0  0  0  0
  151.6083  138.7974  156.0818 H   0  0  0  0  0  0  0  0  0  0  0  0
  149.6971  139.6788  158.5513 H   0  0  0  0  0  0  0  0  0  0  0  0
  148.3664  138.3046  160.0158 H   0  0  0  0  0  0  0  0  0  0  0  0
  147.8598  137.7547  158.4686 H   0  0  0  0  0  0  0  0  0  0  0  0
  147.3922  132.7008  161.2162 H   0  0  0  0  0  0  0  0  0  0  0  0
  147.4983  132.7380  157.7957 H   0  0  0  0  0  0  0  0  0  0  0  0
  147.8538  131.3169  160.4649 H   0  0  0  0  0  0  0  0  0  0  0  0
  146.6103  131.0681  159.2304 H   0  0  0  0  0  0  0  0  0  0  0  0
  148.7129  129.3313  159.3824 H   0  0  0  0  0  0  0  0  0  0  0  0
  148.1588  129.8975  157.8012 H   0  0  0  0  0  0  0  0  0  0  0  0
  150.4511  131.0341  159.4536 H   0  0  0  0  0  0  0  0  0  0  0  0
  150.4817  130.5746  157.7522 H   0  0  0  0  0  0  0  0  0  0  0  0
  1  2  1  0  0  0  0
  1 30  1  0  0  0  0
  1 31  1  0  0  0  0
  1 32  1  0  0  0  0
  2  3  1  0  0  0  0
  3  9  1  0  0  0  0
  3  4  2  0  0  0  0
  4  5  1  0  0  0  0
  4 33  1  0  0  0  0
  5  6  2  0  0  0  0
  5 34  1  0  0  0  0
  6  7  1  0  0  0  0
  6  8  1  0  0  0  0
  7 35  1  0  0  0  0
  7 36  1  0  0  0  0
  7 37  1  0  0  0  0
  8  9  2  0  0  0  0
  8 38  1  0  0  0  0
  9 10  1  0  0  0  0
 10 11  1  0  0  0  0
 10 12  1  0  0  0  0
 10 39  1  0  0  0  0
 11 40  1  0  0  0  0
 11 41  1  0  0  0  0
 11 42  1  0  0  0  0
 12 13  1  0  0  0  0
 12 43  1  0  0  0  0
 13 14  2  0  0  0  0
 13 15  1  0  0  0  0
 15 16  1  0  0  0  0
 15 44  1  0  0  0  0
 15 45  1  0  0  0  0
 16 28  1  0  0  0  0
 16 17  1  0  0  0  0
 17 18  2  0  0  0  0
 17 19  1  0  0  0  0
 19 20  1  0  0  0  0
 19 21  2  0  0  0  0
 21 22  1  0  0  0  0
 21 46  1  0  0  0  0
 22 23  1  0  0  0  0
 22 28  1  0  0  0  0
 23 27  1  0  0  0  0
 23 24  1  0  0  0  0
 23 47  1  0  0  0  0
 24 25  1  0  0  0  0
 24 48  1  0  0  0  0
 24 49  1  0  0  0  0
 25 26  1  0  0  0  0
 25 50  1  0  0  0  0
 25 51  1  0  0  0  0
 26 27  1  0  0  0  0
 26 52  1  0  0  0  0
 26 53  1  0  0  0  0
 28 29  2  0  0  0  0
M  END
> <s_m_source_file>
AV-unprocessed.smi

> <i_m_source_file_index>
94

> <i_lp_mmshare_version>
43012

> <i_f3d_flags>
0

> <s_epik_input>
W0NIM11PYzFbY0hdW2NIXWMoW0NIM10pW2NIXWMxW0NASF0oW0NIM10pW05IXUMoPU8pW0NIMl1uMmMoPU8pYyhGKVtjSF1uKGMyPU8pW0NAQEhdM1tDSDJdW0NIMl1bQ0gyXU8z

> <s_epik_cmdline>
J2VwaWtfcHl0aG9uJywgJy1waCcsICc3LjAnLCAnLXRuJywgJzgnLCAnLW1hJywgJzIwMCcsICctbWV0YWxfYmluZGluZycsICctaW1hZScsICc8aW5maWxlLm1hZT4nLCAnLW9tYWUnLCAnPG91dGZpbGUubWFlPic=

> <r_lp_tautomer_probability>
1

> <r_epik_Ionization_Penalty>
3.37009e-08

> <r_epik_Ionization_Penalty_Charging>
3.59856e-09

> <r_epik_Ionization_Penalty_Neutral>
3.01024e-08

> <r_epik_State_Penalty>
-0

> <r_epik_Charging_Adjusted_Penalty>
3.59856e-09

> <i_epik_Tot_Q>
0

> <i_epik_Tot_abs_Q>
0

> <r_epik_Metal_State_Penalty>
-0

> <b_epik_Metal_Only>
0

> <s_epik_Chemistry_Notes>
This compound contains an acetal/aminal-like group ( X-CH(R)-Y where X, Y are N, S, or O) that may be acid/base labile, releasing an aldehyde.

> <s_lp_Force_Field>
OPLS_2005

> <r_lp_Energy>
26.0468

> <b_lp_Chiralities_Consistent>
1

> <s_lp_Variant>
AV-unprocessed.smi:94-1

> <Gold.Version>
5.8.1

> <Gold.Id.Protein>
6NUR|6NUR_protein|mol2

> <Gold.PLP.Fitness>
60.3927

> <Gold.PLP.PLP>
-49.9024

> <Gold.PLP.part.hbond>
-4.0000

> <Gold.PLP.part.metal>
0.0000

> <Gold.PLP.part.buried>
-4.2235

> <Gold.PLP.part.nonpolar>
-41.6594

> <Gold.PLP.part.repulsive>
0.1338

> <Gold.PLP.ligand.clash>
0.0000

> <Gold.PLP.ligand.torsion>
0.3794

> <Gold.PLP.Chemscore.Hbond>
3.7120

> <Gold.PLP.Chemscore.CHOScore>
0.0000

> <Gold.PLP.Chemscore.Metal>
0.0000

> <Gold.Chemscore.Hbonds>
donor molecule, donor type, donor heavy atom, donor atom, acceptor molecule, acceptor atom, score
      P1  H  6896  6907       L1    14  0.96
      P1  H  6896  6909       L1    27  0.33
      P1  H  6931  6943       L1    18  1.00
      P1  H  6934  6947       L1    18  0.33

> <Gold.PLP.Chemscore.Internal.Correction>
0.1131

> <Gold.Rescore>
     Score         DG    S(hbond)    S(metal)    S(lipo)     H(rot)  DE(clash)    DE(int)     intcor
     18.51     -22.23       3.05        0.00     107.29       2.34       0.83       2.90       ----

> <Gold.Chemscore.Fitness>
18.5057

> <Gold.Chemscore.DG>
-22.2324

> <Gold.Chemscore.ZeroCoef>
-5.4800

> <Gold.Chemscore.Hbond>
3.0485

> <Gold.Chemscore.Metal>
0.0000

> <Gold.Chemscore.Lipo>
107.2909

> <Gold.Chemscore.Internal_Hbond>
0.0000

> <Gold.Chemscore.DEClash>
0.8311

> <Gold.Chemscore.DEInternal>
2.8956

> <Gold.Chemscore.Rot>
2.3370

> <Gold.Chemscore.Internal.Correction>
   9.000000E+99

> <Gold.Chemscore.Hbonds>
donor molecule, donor type, donor heavy atom, donor atom, acceptor molecule, acceptor atom, score
      P1  H  6896  6907       L1    14  0.86
      P1  H  6896  6909       L1    27  0.05
      P1  H  6931  6943       L1    18  0.95
      P1  H  6934  6947       L1    18  0.34

> <Gold.Chemscore.Hbond.Weighted>
-10.1821

> <Gold.Chemscore.Metal.Weighted>
-0.0000

> <Gold.Chemscore.Lipo.Weighted>
-12.5530

> <Gold.Chemscore.Internal_Hbond.Weighted>
0.0000

> <Gold.Chemscore.DEClash.Weighted>
0.8311

> <Gold.Chemscore.DEInternal.Weighted>
2.8956

> <Gold.Chemscore.Rot.Weighted>
5.9827

> <Gold.Chemscore.Internal.Correction.Weighted>
   9.000000E+99

> <Gold.Protein.RotatedTorsions>
[ 6907 6896 6895 6894 ] final  -29.87 input  -60.11 | X-H torsion
[ 7974 7965 7964 7962 ] final  -53.88 input  175.53 | X-H torsion
[ 8008 7997 7996 7995 ] final   18.57 input   59.86 | X-H torsion
[ 10167 10162 10161 10158 ] final  177.54 input  -65.29 | X-H torsion
[ 10718 10713 10712 10709 ] final  107.48 input   66.30 | X-H torsion
[ 10763 10752 10751 10750 ] final   53.37 input  -60.55 | X-H torsion
[ 11005 11000 10999 10996 ] final   29.91 input  -57.11 | X-H torsion

> <Gold.Protein.ActiveResidues>
 VAL166  LYS551  ARG553  GLY616  TRP617  ASP618  TYR619  PRO620  LYS621  CYS622 
 ASP623  PHE694  ASN695  SER759  ASP760  ASP761  ALA762  ILE779  LEU786  VAL792 
 PHE793  MET794  SER795  GLU796  ALA797  LYS798  CYS799  TRP800  GLU811  SER814 

> <Gold.Protein.RotatedAtoms>
  151.1132  135.0038  159.8503 H   0  0  0  0  0  0  0  0  0  0  0  0  # atno 6907 bound_to 6896
  152.5444  134.1810  159.8645 H   0  0  0  0  0  0  0  0  0  0  0  0  # atno 6908 bound_to 6896
  151.1862  133.4650  159.2627 H   0  0  0  0  0  0  0  0  0  0  0  0  # atno 6909 bound_to 6896
  145.8919  140.8064  142.9787 H   0  0  0  0  0  0  0  0  0  0  0  0  # atno 7974 bound_to 7965
  154.9080  140.3010  155.5282 H   0  0  0  0  0  0  0  0  0  0  0  0  # atno 8008 bound_to 7997
  156.3016  140.2394  156.4051 H   0  0  0  0  0  0  0  0  0  0  0  0  # atno 8009 bound_to 7997
  154.8454  140.0412  157.1558 H   0  0  0  0  0  0  0  0  0  0  0  0  # atno 8010 bound_to 7997
  139.5257  144.2785  152.0567 H   0  0  0  0  0  0  0  0  0  0  0  0  # atno 10167 bound_to 10162
  157.6626  131.0873  150.6163 H   0  0  0  0  0  0  0  0  0  0  0  0  # atno 10718 bound_to 10713
  152.9795  135.5781  154.4731 H   0  0  0  0  0  0  0  0  0  0  0  0  # atno 10763 bound_to 10752
  154.4291  135.2773  155.1926 H   0  0  0  0  0  0  0  0  0  0  0  0  # atno 10764 bound_to 10752
  154.3643  135.6182  153.5760 H   0  0  0  0  0  0  0  0  0  0  0  0  # atno 10765 bound_to 10752
  140.3000  134.2767  155.7756 H   0  0  0  0  0  0  0  0  0  0  0  0  # atno 11005 bound_to 11000
  144.6731  140.1543  143.7427 LP  0  0  0  0  0  0  0  0  0  0  0  0  # atno 17320 bound_to 7965
  145.8898  139.2369  143.1556 LP  0  0  0  0  0  0  0  0  0  0  0  0  # atno 17321 bound_to 7965
  140.2242  144.4435  150.6328 LP  0  0  0  0  0  0  0  0  0  0  0  0  # atno 17342 bound_to 10162
  140.6398  143.2201  151.6314 LP  0  0  0  0  0  0  0  0  0  0  0  0  # atno 17343 bound_to 10162
  156.6465  130.4473  149.5734 LP  0  0  0  0  0  0  0  0  0  0  0  0  # atno 17370 bound_to 10713
  156.2169  130.6713  151.1328 LP  0  0  0  0  0  0  0  0  0  0  0  0  # atno 17371 bound_to 10713
  141.2130  133.7640  156.9753 LP  0  0  0  0  0  0  0  0  0  0  0  0  # atno 17394 bound_to 11000
  140.1118  134.9472  157.2076 LP  0  0  0  0  0  0  0  0  0  0  0  0  # atno 17395 bound_to 11000

$$$$
