AV-unprocessed.smi:2019|AV-procd|sdf|8171|dock6
  -GOLD-   2272010423D 1   1.00000     0.00000
 Structure written by MMmdl.
 36 37  0  0  0  0  0  0  0  0  1 V2000
  151.2879  140.9297  157.4153 O   0  0  0  0  0  0  0  0  0  0  0  0
  151.0867  142.0609  156.9715 C   0  0  0  0  0  0  0  0  0  0  0  0
  152.0074  143.2294  157.3496 C   0  0  0  0  0  0  0  0  0  0  0  0
  152.0561  143.4832  158.7990 N   0  0  0  0  0  0  0  0  0  0  0  0
  151.5881  144.7341  159.2486 C   0  0  0  0  0  0  0  0  0  0  0  0
  151.5894  145.0672  160.5490 C   0  0  0  0  0  0  0  0  0  0  0  0
  152.0883  144.1025  161.5003 C   0  0  0  0  0  0  0  0  0  0  0  0
  152.5411  142.9043  161.0808 C   0  0  0  0  0  0  0  0  0  0  0  0
  152.5432  142.5366  159.6601 C   0  0  0  0  0  0  0  0  0  0  0  0
  152.9553  141.4445  159.2683 O   0  0  0  0  0  0  0  0  0  0  0  0
  150.0828  142.3522  156.1289 N   0  0  0  0  0  0  0  0  0  0  0  0
  149.0721  141.4058  155.6509 C   0  0  2  0  0  0  0  0  0  0  0  0
  148.3178  140.8646  156.8874 C   0  0  0  0  0  0  0  0  0  0  0  0
  146.9223  140.3019  156.5663 C   0  0  0  0  0  0  0  0  0  0  0  0
  146.9172  139.0514  155.6736 C   0  0  0  0  0  0  0  0  0  0  0  0
  147.5019  139.2908  154.2712 C   0  0  0  0  0  0  0  0  0  0  0  0
  148.9585  139.3271  154.2832 N   0  0  0  0  0  0  0  0  0  0  0  0
  149.7378  140.2256  154.9044 C   0  0  0  0  0  0  0  0  0  0  0  0
  150.9628  140.1059  154.8815 O   0  0  0  0  0  0  0  0  0  0  0  0
  153.0043  143.0125  156.9635 H   0  0  0  0  0  0  0  0  0  0  0  0
  151.6878  144.1316  156.8242 H   0  0  0  0  0  0  0  0  0  0  0  0
  151.2386  145.4009  158.4739 H   0  0  0  0  0  0  0  0  0  0  0  0
  151.2304  146.0324  160.8745 H   0  0  0  0  0  0  0  0  0  0  0  0
  152.0998  144.3438  162.5532 H   0  0  0  0  0  0  0  0  0  0  0  0
  152.9120  142.1955  161.8066 H   0  0  0  0  0  0  0  0  0  0  0  0
  149.9903  143.3083  155.8181 H   0  0  0  0  0  0  0  0  0  0  0  0
  148.3800  141.9276  154.9872 H   0  0  0  0  0  0  0  0  0  0  0  0
  148.9146  140.1173  157.4140 H   0  0  0  0  0  0  0  0  0  0  0  0
  148.1756  141.6778  157.6010 H   0  0  0  0  0  0  0  0  0  0  0  0
  146.4226  140.0587  157.5046 H   0  0  0  0  0  0  0  0  0  0  0  0
  146.3161  141.0809  156.1020 H   0  0  0  0  0  0  0  0  0  0  0  0
  147.4432  138.2328  156.1669 H   0  0  0  0  0  0  0  0  0  0  0  0
  145.8846  138.7188  155.5640 H   0  0  0  0  0  0  0  0  0  0  0  0
  147.2074  138.4708  153.6158 H   0  0  0  0  0  0  0  0  0  0  0  0
  147.0990  140.2008  153.8242 H   0  0  0  0  0  0  0  0  0  0  0  0
  149.4262  138.5766  153.7955 H   0  0  0  0  0  0  0  0  0  0  0  0
  1  2  2  0  0  0  0
  2  3  1  0  0  0  0
  2 11  1  0  0  0  0
  3  4  1  0  0  0  0
  3 20  1  0  0  0  0
  3 21  1  0  0  0  0
  4  9  1  0  0  0  0
  4  5  1  0  0  0  0
  5  6  2  0  0  0  0
  5 22  1  0  0  0  0
  6  7  1  0  0  0  0
  6 23  1  0  0  0  0
  7  8  2  0  0  0  0
  7 24  1  0  0  0  0
  8  9  1  0  0  0  0
  8 25  1  0  0  0  0
  9 10  2  0  0  0  0
 11 12  1  0  0  0  0
 11 26  1  0  0  0  0
 12 18  1  0  0  0  0
 12 13  1  0  0  0  0
 12 27  1  0  0  0  0
 13 14  1  0  0  0  0
 13 28  1  0  0  0  0
 13 29  1  0  0  0  0
 14 15  1  0  0  0  0
 14 30  1  0  0  0  0
 14 31  1  0  0  0  0
 15 16  1  0  0  0  0
 15 32  1  0  0  0  0
 15 33  1  0  0  0  0
 16 17  1  0  0  0  0
 16 34  1  0  0  0  0
 16 35  1  0  0  0  0
 17 18  1  0  0  0  0
 17 36  1  0  0  0  0
 18 19  2  0  0  0  0
M  END
> <s_m_source_file>
AV-unprocessed.smi

> <i_m_source_file_index>
2019

> <i_lp_mmshare_version>
43012

> <i_f3d_flags>
0

> <s_epik_input>
Tz1jMVtjSF1bY0hdW2NIXVtjSF1uMVtDSDJdQyg9TylbTkhdW0NAQEhdMltDSDJdW0NIMl1bQ0gyXVtDSDJdW05IXUMyPU8=

> <s_epik_cmdline>
J2VwaWtfcHl0aG9uJywgJy1waCcsICc3LjAnLCAnLXRuJywgJzgnLCAnLW1hJywgJzIwMCcsICctbWV0YWxfYmluZGluZycsICctaW1hZScsICc8aW5maWxlLm1hZT4nLCAnLW9tYWUnLCAnPG91dGZpbGUubWFlPic=

> <r_lp_tautomer_probability>
1

> <r_epik_Ionization_Penalty>
3.70786e-07

> <r_epik_Ionization_Penalty_Charging>
3.17464e-07

> <r_epik_Ionization_Penalty_Neutral>
5.33217e-08

> <r_epik_State_Penalty>
-0

> <r_epik_Charging_Adjusted_Penalty>
3.17464e-07

> <i_epik_Tot_Q>
0

> <i_epik_Tot_abs_Q>
0

> <r_epik_Metal_State_Penalty>
-0

> <b_epik_Metal_Only>
0

> <s_lp_Force_Field>
OPLS_2005

> <r_lp_Energy>
20.44

> <b_lp_Chiralities_Consistent>
1

> <s_lp_Variant>
AV-unprocessed.smi:2019-1

> <Gold.Version>
5.8.1

> <Gold.Id.Protein>
6NUR|6NUR_protein|mol2

> <Gold.PLP.Fitness>
42.6697

> <Gold.PLP.PLP>
-36.6880

> <Gold.PLP.part.hbond>
-2.4910

> <Gold.PLP.part.metal>
0.0000

> <Gold.PLP.part.buried>
-6.4606

> <Gold.PLP.part.nonpolar>
-28.7007

> <Gold.PLP.part.repulsive>
0.2607

> <Gold.PLP.ligand.clash>
0.0000

> <Gold.PLP.ligand.torsion>
0.0097

> <Gold.PLP.Chemscore.Hbond>
2.0000

> <Gold.PLP.Chemscore.CHOScore>
0.0000

> <Gold.PLP.Chemscore.Metal>
0.0000

> <Gold.Chemscore.Hbonds>
donor molecule, donor type, donor heavy atom, donor atom, acceptor molecule, acceptor atom, score
      L1  H    11    26       P1  8028  0.93
      P1  H  7989  7998       L1    19  1.00

> <Gold.PLP.Chemscore.Internal.Correction>
0.0010

> <Gold.Rescore>
     Score         DG    S(hbond)    S(metal)    S(lipo)     H(rot)  DE(clash)    DE(int)     intcor
      8.52     -16.73       2.43        0.00      61.70       1.59       0.16       8.05       ----

> <Gold.Chemscore.Fitness>
8.5190

> <Gold.Chemscore.DG>
-16.7289

> <Gold.Chemscore.ZeroCoef>
-5.4800

> <Gold.Chemscore.Hbond>
2.4283

> <Gold.Chemscore.Metal>
0.0000

> <Gold.Chemscore.Lipo>
61.7000

> <Gold.Chemscore.Internal_Hbond>
0.0000

> <Gold.Chemscore.DEClash>
0.1642

> <Gold.Chemscore.DEInternal>
8.0457

> <Gold.Chemscore.Rot>
1.5939

> <Gold.Chemscore.Internal.Correction>
   9.000000E+99

> <Gold.Chemscore.Hbonds>
donor molecule, donor type, donor heavy atom, donor atom, acceptor molecule, acceptor atom, score
      L1  H    11    26       P1  8028  0.90
      P1  H  7989  7998       L1    19  0.78

> <Gold.Chemscore.Hbond.Weighted>
-8.1105

> <Gold.Chemscore.Metal.Weighted>
-0.0000

> <Gold.Chemscore.Lipo.Weighted>
-7.2189

> <Gold.Chemscore.Internal_Hbond.Weighted>
0.0000

> <Gold.Chemscore.DEClash.Weighted>
0.1642

> <Gold.Chemscore.DEInternal.Weighted>
8.0457

> <Gold.Chemscore.Rot.Weighted>
4.0804

> <Gold.Chemscore.Internal.Correction.Weighted>
   9.000000E+99

> <Gold.Protein.RotatedTorsions>
[ 6907 6896 6895 6894 ] final -145.60 input  -60.11 | X-H torsion
[ 7974 7965 7964 7962 ] final  -56.83 input  175.53 | X-H torsion
[ 8008 7997 7996 7995 ] final  120.25 input   59.86 | X-H torsion
[ 10167 10162 10161 10158 ] final   28.01 input  -65.29 | X-H torsion
[ 10718 10713 10712 10709 ] final    1.62 input   66.30 | X-H torsion
[ 10763 10752 10751 10750 ] final   12.41 input  -60.55 | X-H torsion
[ 11005 11000 10999 10996 ] final -101.55 input  -57.11 | X-H torsion

> <Gold.Protein.ActiveResidues>
 VAL166  LYS551  ARG553  GLY616  TRP617  ASP618  TYR619  PRO620  LYS621  CYS622 
 ASP623  PHE694  ASN695  SER759  ASP760  ASP761  ALA762  ILE779  LEU786  VAL792 
 PHE793  MET794  SER795  GLU796  ALA797  LYS798  CYS799  TRP800  GLU811  SER814 

> <Gold.Protein.RotatedAtoms>
  151.1300  133.5043  159.2599 H   0  0  0  0  0  0  0  0  0  0  0  0  # atno 6907 bound_to 6896
  151.1768  135.0342  159.8785 H   0  0  0  0  0  0  0  0  0  0  0  0  # atno 6908 bound_to 6896
  152.5459  134.1157  159.8431 H   0  0  0  0  0  0  0  0  0  0  0  0  # atno 6909 bound_to 6896
  145.8581  140.8305  142.9951 H   0  0  0  0  0  0  0  0  0  0  0  0  # atno 7974 bound_to 7965
  156.2634  140.2835  156.1119 H   0  0  0  0  0  0  0  0  0  0  0  0  # atno 8008 bound_to 7997
  155.1248  140.0393  157.2777 H   0  0  0  0  0  0  0  0  0  0  0  0  # atno 8009 bound_to 7997
  154.6644  140.2573  155.7081 H   0  0  0  0  0  0  0  0  0  0  0  0  # atno 8010 bound_to 7997
  140.4889  144.0498  150.6290 H   0  0  0  0  0  0  0  0  0  0  0  0  # atno 10167 bound_to 10162
  156.8509  130.5553  149.5670 H   0  0  0  0  0  0  0  0  0  0  0  0  # atno 10718 bound_to 10713
  153.1825  135.6830  153.8459 H   0  0  0  0  0  0  0  0  0  0  0  0  # atno 10763 bound_to 10752
  153.7786  135.3185  155.3363 H   0  0  0  0  0  0  0  0  0  0  0  0  # atno 10764 bound_to 10752
  154.8068  135.4743  154.0509 H   0  0  0  0  0  0  0  0  0  0  0  0  # atno 10765 bound_to 10752
  141.1226  133.8487  157.1246 H   0  0  0  0  0  0  0  0  0  0  0  0  # atno 11005 bound_to 11000
  144.6727  140.1054  143.7458 LP  0  0  0  0  0  0  0  0  0  0  0  0  # atno 17320 bound_to 7965
  145.9280  139.2587  143.1342 LP  0  0  0  0  0  0  0  0  0  0  0  0  # atno 17321 bound_to 7965
  140.3762  143.2827  152.0223 LP  0  0  0  0  0  0  0  0  0  0  0  0  # atno 17342 bound_to 10162
  139.4847  144.6191  151.7289 LP  0  0  0  0  0  0  0  0  0  0  0  0  # atno 17343 bound_to 10162
  156.0829  130.5835  150.9595 LP  0  0  0  0  0  0  0  0  0  0  0  0  # atno 17370 bound_to 10713
  157.6304  131.0921  150.8452 LP  0  0  0  0  0  0  0  0  0  0  0  0  # atno 17371 bound_to 10713
  140.0196  134.9952  157.0564 LP  0  0  0  0  0  0  0  0  0  0  0  0  # atno 17394 bound_to 11000
  140.4462  134.1630  155.7177 LP  0  0  0  0  0  0  0  0  0  0  0  0  # atno 17395 bound_to 11000

$$$$
