AV-unprocessed.smi:2597|AV-procd|sdf|10176|dock4
  -GOLD-   2272014193D 1   1.00000     0.00000
 Structure written by MMmdl.
 30 31  0  0  0  0  0  0  0  0  1 V2000
  150.7621  144.5793  157.7747 N   0  0  0  0  0  0  0  0  0  0  0  0
  151.8143  143.6817  158.2195 C   0  0  1  0  0  0  0  0  0  0  0  0
  152.3283  144.1752  159.5857 C   0  0  0  0  0  0  0  0  0  0  0  0
  153.3873  143.2251  160.1645 C   0  0  0  0  0  0  0  0  0  0  0  0
  152.8431  141.7933  160.2742 C   0  0  0  0  0  0  0  0  0  0  0  0
  152.3459  141.2867  158.9118 C   0  0  0  0  0  0  0  0  0  0  0  0
  151.2816  142.2283  158.3093 C   0  0  2  0  0  0  0  0  0  0  0  0
  150.8192  141.7247  157.0215 N   0  0  0  0  0  0  0  0  0  0  0  0
  149.6194  141.9790  156.3898 C   0  0  0  0  0  0  0  0  0  0  0  0
  149.7029  141.2505  155.2371 C   0  0  0  0  0  0  0  0  0  0  0  0
  148.7074  141.1142  154.1256 C   0  0  0  0  0  0  0  0  0  0  0  0
  149.0078  139.9092  153.4549 O   0  0  0  0  0  0  0  0  0  0  0  0
  150.9309  140.5911  155.2141 N   0  0  0  0  0  0  0  0  0  0  0  0
  151.5893  140.8785  156.2924 N   0  0  0  0  0  0  0  0  0  0  0  0
  152.6303  143.7305  157.4974 H   0  0  0  0  0  0  0  0  0  0  0  0
  150.4212  142.2229  158.9813 H   0  0  0  0  0  0  0  0  0  0  0  0
  151.1734  145.3658  157.2919 H   0  0  0  0  0  0  0  0  0  0  0  0
  150.1765  144.1064  157.1014 H   0  0  0  0  0  0  0  0  0  0  0  0
  152.7498  145.1765  159.4885 H   0  0  0  0  0  0  0  0  0  0  0  0
  151.4985  144.2562  160.2898 H   0  0  0  0  0  0  0  0  0  0  0  0
  154.2737  143.2332  159.5290 H   0  0  0  0  0  0  0  0  0  0  0  0
  153.7067  143.5777  161.1457 H   0  0  0  0  0  0  0  0  0  0  0  0
  153.6185  141.1294  160.6571 H   0  0  0  0  0  0  0  0  0  0  0  0
  152.0262  141.7653  160.9966 H   0  0  0  0  0  0  0  0  0  0  0  0
  153.1956  141.1981  158.2333 H   0  0  0  0  0  0  0  0  0  0  0  0
  151.9346  140.2829  159.0231 H   0  0  0  0  0  0  0  0  0  0  0  0
  148.8502  142.6194  156.7948 H   0  0  0  0  0  0  0  0  0  0  0  0
  147.6884  141.0749  154.5108 H   0  0  0  0  0  0  0  0  0  0  0  0
  148.7677  141.9470  153.4243 H   0  0  0  0  0  0  0  0  0  0  0  0
  149.4321  140.1195  152.6373 H   0  0  0  0  0  0  0  0  0  0  0  0
  1  2  1  0  0  0  0
  1 17  1  0  0  0  0
  1 18  1  0  0  0  0
  2 15  1  0  0  0  0
  2  7  1  0  0  0  0
  2  3  1  0  0  0  0
  3  4  1  0  0  0  0
  3 19  1  0  0  0  0
  3 20  1  0  0  0  0
  4  5  1  0  0  0  0
  4 21  1  0  0  0  0
  4 22  1  0  0  0  0
  5  6  1  0  0  0  0
  5 23  1  0  0  0  0
  5 24  1  0  0  0  0
  6  7  1  0  0  0  0
  6 25  1  0  0  0  0
  6 26  1  0  0  0  0
  7 16  1  0  0  0  0
  7  8  1  0  0  0  0
  8 14  1  0  0  0  0
  8  9  1  0  0  0  0
  9 10  2  0  0  0  0
  9 27  1  0  0  0  0
 10 11  1  0  0  0  0
 10 13  1  0  0  0  0
 11 12  1  0  0  0  0
 11 28  1  0  0  0  0
 11 29  1  0  0  0  0
 12 30  1  0  0  0  0
 13 14  2  0  0  0  0
M  END
> <s_m_source_file>
AV-unprocessed.smi

> <i_m_source_file_index>
2597

> <i_lp_mmshare_version>
43012

> <i_f3d_flags>
0

> <s_epik_input>
W05IMl1bQ0BIXTFbQ0gyXVtDSDJdW0NIMl1bQ0gyXVtDQEhdMW4yW2NIXWMobm4yKVtDSDJdW09IXQ==

> <s_epik_cmdline>
J2VwaWtfcHl0aG9uJywgJy1waCcsICc3LjAnLCAnLXRuJywgJzgnLCAnLW1hJywgJzIwMCcsICctbWV0YWxfYmluZGluZycsICctaW1hZScsICc8aW5maWxlLm1hZT4nLCAnLW9tYWUnLCAnPG91dGZpbGUubWFlPic=

> <r_lp_tautomer_probability>
1

> <r_epik_Ionization_Penalty>
2.21303

> <r_epik_Ionization_Penalty_Charging>
0

> <r_epik_Ionization_Penalty_Neutral>
2.21303

> <r_epik_State_Penalty>
2.3573

> <r_epik_Charging_Adjusted_Penalty>
2.3573

> <i_epik_Tot_Q>
0

> <i_epik_Tot_abs_Q>
0

> <r_epik_Metal_State_Penalty>
2.35724

> <b_epik_Metal_Only>
0

> <s_lp_Force_Field>
OPLS_2005

> <r_lp_Energy>
13.5857

> <b_lp_Chiralities_Consistent>
1

> <s_lp_Variant>
AV-unprocessed.smi:2597-7

> <Gold.Version>
5.8.1

> <Gold.Id.Protein>
6NUR|6NUR_protein|mol2

> <Gold.PLP.Fitness>
40.2003

> <Gold.PLP.PLP>
-31.6531

> <Gold.PLP.part.hbond>
-2.6747

> <Gold.PLP.part.metal>
0.0000

> <Gold.PLP.part.buried>
-1.5809

> <Gold.PLP.part.nonpolar>
-25.7907

> <Gold.PLP.part.repulsive>
0.0522

> <Gold.PLP.ligand.clash>
0.0000

> <Gold.PLP.ligand.torsion>
0.9044

> <Gold.PLP.Chemscore.Hbond>
2.6800

> <Gold.PLP.Chemscore.CHOScore>
0.7641

> <Gold.PLP.Chemscore.Metal>
0.0000

> <Gold.Chemscore.Hbonds>
donor molecule, donor type, donor heavy atom, donor atom, acceptor molecule, acceptor atom, score
      L1  H     1    18       P1  8028  0.66
      L1  H    12    30       P1  7957  0.89
      P1  H  7989  7998       L1    13  0.94
      L1  C     9    27       P1  8028  0.60

> <Gold.PLP.Chemscore.Internal.Correction>
0.0238

> <Gold.Rescore>
     Score         DG    S(hbond)    S(metal)    S(lipo)     H(rot)  DE(clash)    DE(int)     intcor
     17.14     -18.43       2.34        0.00      83.67       1.82       0.18       1.11       ----

> <Gold.Chemscore.Fitness>
17.1399

> <Gold.Chemscore.DG>
-18.4283

> <Gold.Chemscore.ZeroCoef>
-5.4800

> <Gold.Chemscore.Hbond>
2.3424

> <Gold.Chemscore.Metal>
0.0000

> <Gold.Chemscore.Lipo>
83.6716

> <Gold.Chemscore.Internal_Hbond>
0.0000

> <Gold.Chemscore.DEClash>
0.1815

> <Gold.Chemscore.DEInternal>
1.1070

> <Gold.Chemscore.Rot>
1.8222

> <Gold.Chemscore.Internal.Correction>
   9.000000E+99

> <Gold.Chemscore.Hbonds>
donor molecule, donor type, donor heavy atom, donor atom, acceptor molecule, acceptor atom, score
      L1  H     1    18       P1  8028  0.57
      L1  H    12    30       P1  7957  0.85
      P1  H  7989  7998       L1    13  0.50

> <Gold.Chemscore.Hbond.Weighted>
-7.8237

> <Gold.Chemscore.Metal.Weighted>
-0.0000

> <Gold.Chemscore.Lipo.Weighted>
-9.7896

> <Gold.Chemscore.Internal_Hbond.Weighted>
0.0000

> <Gold.Chemscore.DEClash.Weighted>
0.1815

> <Gold.Chemscore.DEInternal.Weighted>
1.1070

> <Gold.Chemscore.Rot.Weighted>
4.6649

> <Gold.Chemscore.Internal.Correction.Weighted>
   9.000000E+99

> <Gold.Protein.RotatedTorsions>
[ 6907 6896 6895 6894 ] final  154.32 input  -60.11 | X-H torsion
[ 7974 7965 7964 7962 ] final  -59.84 input  175.53 | X-H torsion
[ 8008 7997 7996 7995 ] final  -34.10 input   59.86 | X-H torsion
[ 10167 10162 10161 10158 ] final   65.89 input  -65.29 | X-H torsion
[ 10718 10713 10712 10709 ] final  102.66 input   66.30 | X-H torsion
[ 10763 10752 10751 10750 ] final  -68.60 input  -60.55 | X-H torsion
[ 11005 11000 10999 10996 ] final  103.46 input  -57.11 | X-H torsion

> <Gold.Protein.ActiveResidues>
 VAL166  LYS551  ARG553  GLY616  TRP617  ASP618  TYR619  PRO620  LYS621  CYS622 
 ASP623  PHE694  ASN695  SER759  ASP760  ASP761  ALA762  ILE779  LEU786  VAL792 
 PHE793  MET794  SER795  GLU796  ALA797  LYS798  CYS799  TRP800  GLU811  SER814 

> <Gold.Protein.RotatedAtoms>
  152.0601  133.4058  159.4413 H   0  0  0  0  0  0  0  0  0  0  0  0  # atno 6907 bound_to 6896
  150.6866  134.3210  159.4795 H   0  0  0  0  0  0  0  0  0  0  0  0  # atno 6908 bound_to 6896
  152.1030  134.9328  160.0619 H   0  0  0  0  0  0  0  0  0  0  0  0  # atno 6909 bound_to 6896
  145.8227  140.8530  143.0124 H   0  0  0  0  0  0  0  0  0  0  0  0  # atno 7974 bound_to 7965
  154.4130  140.1693  156.1995 H   0  0  0  0  0  0  0  0  0  0  0  0  # atno 8008 bound_to 7997
  155.9536  140.3399  155.6406 H   0  0  0  0  0  0  0  0  0  0  0  0  # atno 8009 bound_to 7997
  155.6838  140.0726  157.2465 H   0  0  0  0  0  0  0  0  0  0  0  0  # atno 8010 bound_to 7997
  140.1064  144.4858  150.7005 H   0  0  0  0  0  0  0  0  0  0  0  0  # atno 10167 bound_to 10162
  157.6796  131.0758  150.5437 H   0  0  0  0  0  0  0  0  0  0  0  0  # atno 10718 bound_to 10713
  154.3914  135.6052  153.5845 H   0  0  0  0  0  0  0  0  0  0  0  0  # atno 10763 bound_to 10752
  152.9787  135.5884  154.4293 H   0  0  0  0  0  0  0  0  0  0  0  0  # atno 10764 bound_to 10752
  154.4077  135.2844  155.2034 H   0  0  0  0  0  0  0  0  0  0  0  0  # atno 10765 bound_to 10752
  139.8784  134.9264  156.5213 H   0  0  0  0  0  0  0  0  0  0  0  0  # atno 11005 bound_to 11000
  144.6746  140.0556  143.7477 LP  0  0  0  0  0  0  0  0  0  0  0  0  # atno 17320 bound_to 7965
  145.9657  139.2833  143.1128 LP  0  0  0  0  0  0  0  0  0  0  0  0  # atno 17321 bound_to 7965
  140.6950  143.2398  151.5027 LP  0  0  0  0  0  0  0  0  0  0  0  0  # atno 17342 bound_to 10162
  139.5643  144.2080  152.1740 LP  0  0  0  0  0  0  0  0  0  0  0  0  # atno 17343 bound_to 10162
  156.5743  130.4288  149.6005 LP  0  0  0  0  0  0  0  0  0  0  0  0  # atno 17370 bound_to 10713
  156.2714  130.7019  151.1817 LP  0  0  0  0  0  0  0  0  0  0  0  0  # atno 17371 bound_to 10713
  140.8448  133.8177  155.9111 LP  0  0  0  0  0  0  0  0  0  0  0  0  # atno 17394 bound_to 11000
  140.9202  134.2151  157.4931 LP  0  0  0  0  0  0  0  0  0  0  0  0  # atno 17395 bound_to 11000

$$$$
