AV-unprocessed.smi:1983|AV-procd|sdf|8036|dock3
  -GOLD-   2272010233D 1   1.00000     0.00000
 Structure written by MMmdl.
 50 51  0  0  0  0  0  0  0  0  2 V2000
  148.0454  134.0205  155.4755 C   0  0  0  0  0  0  0  0  0  0  0  0
  146.8639  134.9535  155.1693 C   0  0  2  0  0  0  0  0  0  0  0  0
  145.6763  134.2030  154.5344 C   0  0  0  0  0  0  0  0  0  0  0  0
  145.3088  133.0980  155.3324 O   0  0  0  0  0  0  0  0  0  0  0  0
  147.3208  136.0260  154.2892 N   0  0  0  0  0  0  0  0  0  0  0  0
  147.2640  137.3360  154.5673 C   0  0  0  0  0  0  0  0  0  0  0  0
  146.7900  137.8048  155.6023 O   0  0  0  0  0  0  0  0  0  0  0  0
  147.7815  138.0776  153.5779 N   0  0  0  0  0  0  0  0  0  0  0  0
  147.8881  139.5337  153.5961 C   0  0  0  0  0  0  0  0  0  0  0  0
  148.8246  140.1021  154.6557 C   0  0  0  0  0  0  0  0  0  0  0  0
  149.7269  139.2915  155.3814 C   0  0  0  0  0  0  0  0  0  0  0  0
  150.5587  139.8751  156.3594 C   0  0  0  0  0  0  0  0  0  0  0  0
  150.4789  141.2674  156.6159 C   0  0  0  0  0  0  0  0  0  0  0  0
  151.2688  141.9399  157.5741 N   0  0  0  0  0  0  0  0  0  0  0  0
  152.0309  141.1372  158.5245 C   0  0  0  0  0  0  0  0  0  0  0  0
  153.0876  142.0001  159.2368 C   0  0  2  0  0  0  0  0  0  0  0  0
  153.8068  141.2239  160.3450 C   0  0  0  0  0  0  0  0  0  0  0  0
  152.4581  143.1345  159.8295 O   0  0  0  0  0  0  0  0  0  0  0  0
  151.7491  143.9707  158.9134 C   0  0  1  0  0  0  0  0  0  0  0  0
  152.6942  144.7571  157.9872 C   0  0  0  0  0  0  0  0  0  0  0  0
  150.6887  143.1501  158.1542 C   0  0  0  0  0  0  0  0  0  0  0  0
  149.5947  141.9985  155.8945 N   0  3  0  0  0  0  0  0  0  0  0  0
  148.7835  141.4802  154.9475 C   0  0  0  0  0  0  0  0  0  0  0  0
  147.7563  133.2320  156.1708 H   0  0  0  0  0  0  0  0  0  0  0  0
  148.8714  134.5688  155.9299 H   0  0  0  0  0  0  0  0  0  0  0  0
  148.4208  133.5430  154.5698 H   0  0  0  0  0  0  0  0  0  0  0  0
  146.5367  135.4026  156.1095 H   0  0  0  0  0  0  0  0  0  0  0  0
  144.8051  134.8536  154.4539 H   0  0  0  0  0  0  0  0  0  0  0  0
  145.9184  133.8638  153.5266 H   0  0  0  0  0  0  0  0  0  0  0  0
  144.5022  132.7385  154.9961 H   0  0  0  0  0  0  0  0  0  0  0  0
  147.7280  135.7441  153.4094 H   0  0  0  0  0  0  0  0  0  0  0  0
  148.1502  137.6018  152.7672 H   0  0  0  0  0  0  0  0  0  0  0  0
  148.1967  139.8878  152.6107 H   0  0  0  0  0  0  0  0  0  0  0  0
  146.8922  139.9418  153.7695 H   0  0  0  0  0  0  0  0  0  0  0  0
  149.7872  138.2285  155.2010 H   0  0  0  0  0  0  0  0  0  0  0  0
  151.2357  139.2353  156.9049 H   0  0  0  0  0  0  0  0  0  0  0  0
  151.3459  140.6984  159.2515 H   0  0  0  0  0  0  0  0  0  0  0  0
  152.5361  140.3192  158.0103 H   0  0  0  0  0  0  0  0  0  0  0  0
  153.8370  142.3294  158.5168 H   0  0  0  0  0  0  0  0  0  0  0  0
  154.3184  140.3486  159.9436 H   0  0  0  0  0  0  0  0  0  0  0  0
  153.1060  140.8823  161.1075 H   0  0  0  0  0  0  0  0  0  0  0  0
  154.5536  141.8486  160.8356 H   0  0  0  0  0  0  0  0  0  0  0  0
  151.2231  144.7071  159.5216 H   0  0  0  0  0  0  0  0  0  0  0  0
  152.1378  145.4886  157.4006 H   0  0  0  0  0  0  0  0  0  0  0  0
  153.2183  144.1115  157.2829 H   0  0  0  0  0  0  0  0  0  0  0  0
  153.4420  145.3000  158.5657 H   0  0  0  0  0  0  0  0  0  0  0  0
  150.2230  143.7824  157.3983 H   0  0  0  0  0  0  0  0  0  0  0  0
  149.8977  142.8498  158.8427 H   0  0  0  0  0  0  0  0  0  0  0  0
  148.1284  142.1832  154.4535 H   0  0  0  0  0  0  0  0  0  0  0  0
  149.5397  143.0011  156.0751 H   0  0  0  0  0  0  0  0  0  0  0  0
  1  2  1  0  0  0  0
  1 24  1  0  0  0  0
  1 25  1  0  0  0  0
  1 26  1  0  0  0  0
  2  3  1  0  0  0  0
  2  5  1  0  0  0  0
  2 27  1  0  0  0  0
  3  4  1  0  0  0  0
  3 28  1  0  0  0  0
  3 29  1  0  0  0  0
  4 30  1  0  0  0  0
  5  6  1  0  0  0  0
  5 31  1  0  0  0  0
  6  7  2  0  0  0  0
  6  8  1  0  0  0  0
  8  9  1  0  0  0  0
  8 32  1  0  0  0  0
  9 10  1  0  0  0  0
  9 33  1  0  0  0  0
  9 34  1  0  0  0  0
 10 23  1  0  0  0  0
 10 11  2  0  0  0  0
 11 12  1  0  0  0  0
 11 35  1  0  0  0  0
 12 13  2  0  0  0  0
 12 36  1  0  0  0  0
 13 14  1  0  0  0  0
 13 22  1  0  0  0  0
 14 21  1  0  0  0  0
 14 15  1  0  0  0  0
 15 16  1  0  0  0  0
 15 37  1  0  0  0  0
 15 38  1  0  0  0  0
 16 17  1  0  0  0  0
 16 18  1  0  0  0  0
 16 39  1  0  0  0  0
 17 40  1  0  0  0  0
 17 41  1  0  0  0  0
 17 42  1  0  0  0  0
 18 19  1  0  0  0  0
 19 20  1  0  0  0  0
 19 21  1  0  0  0  0
 19 43  1  0  0  0  0
 20 44  1  0  0  0  0
 20 45  1  0  0  0  0
 20 46  1  0  0  0  0
 21 47  1  0  0  0  0
 21 48  1  0  0  0  0
 22 23  2  0  0  0  0
 22 50  1  0  0  0  0
 23 49  1  0  0  0  0
M  CHG  1  22   1
M  END
> <s_m_source_file>
AV-unprocessed.smi

> <i_m_source_file_index>
1983

> <i_lp_mmshare_version>
43012

> <i_f3d_flags>
0

> <s_epik_input>
W09IXVtDSDJdW0NAQEhdKFtDSDNdKVtOSF1DKD1PKVtOSF1bQ0gyXWMxW2NIXVtjSF1jKG5bY0hdMSlOMltDSDJdW0NAQEhdKFtDSDNdKU9bQ0BASF0oW0NIM10pW0NIMl0y

> <s_epik_cmdline>
J2VwaWtfcHl0aG9uJywgJy1waCcsICc3LjAnLCAnLXRuJywgJzgnLCAnLW1hJywgJzIwMCcsICctbWV0YWxfYmluZGluZycsICctaW1hZScsICc8aW5maWxlLm1hZT4nLCAnLW9tYWUnLCAnPG91dGZpbGUubWFlPic=

> <r_lp_tautomer_probability>
0.999994

> <r_epik_Ionization_Penalty>
2.55677

> <r_epik_Ionization_Penalty_Charging>
2.55673

> <r_epik_Ionization_Penalty_Neutral>
3.71772e-05

> <r_epik_State_Penalty>
2.72571

> <r_epik_Charging_Adjusted_Penalty>
5.28244

> <i_epik_Tot_Q>
1

> <i_epik_Tot_abs_Q>
1

> <r_epik_Metal_State_Penalty>
2.73364

> <b_epik_Metal_Only>
0

> <s_lp_Force_Field>
OPLS_2005

> <r_lp_Energy>
21.0227

> <b_lp_Chiralities_Consistent>
1

> <s_lp_Variant>
AV-unprocessed.smi:1983-9

> <Gold.Version>
5.8.1

> <Gold.Id.Protein>
6NUR|6NUR_protein|mol2

> <Gold.PLP.Fitness>
50.7792

> <Gold.PLP.PLP>
-36.9016

> <Gold.PLP.part.hbond>
-4.0000

> <Gold.PLP.part.metal>
0.0000

> <Gold.PLP.part.buried>
-3.6900

> <Gold.PLP.part.nonpolar>
-30.4104

> <Gold.PLP.part.repulsive>
0.2339

> <Gold.PLP.ligand.clash>
0.0000

> <Gold.PLP.ligand.torsion>
0.6829

> <Gold.PLP.Chemscore.Hbond>
4.9350

> <Gold.PLP.Chemscore.CHOScore>
0.0000

> <Gold.PLP.Chemscore.Metal>
0.0000

> <Gold.Chemscore.Hbonds>
donor molecule, donor type, donor heavy atom, donor atom, acceptor molecule, acceptor atom, score
      L1  H     4    30       P1 10957  0.89
      L1  H     5    31       P1  7948  0.96
      L1  H     8    32       P1  7948  1.00
      L1  H    22    50       P1  8028  2.00

> <Gold.PLP.Chemscore.Internal.Correction>
0.4383

> <Gold.Rescore>
     Score         DG    S(hbond)    S(metal)    S(lipo)     H(rot)  DE(clash)    DE(int)     intcor
     21.62     -22.55       3.82        0.00      95.21       2.66       0.31       0.62       ----

> <Gold.Chemscore.Fitness>
21.6173

> <Gold.Chemscore.DG>
-22.5525

> <Gold.Chemscore.ZeroCoef>
-5.4800

> <Gold.Chemscore.Hbond>
3.8179

> <Gold.Chemscore.Metal>
0.0000

> <Gold.Chemscore.Lipo>
95.2116

> <Gold.Chemscore.Internal_Hbond>
0.0000

> <Gold.Chemscore.DEClash>
0.3149

> <Gold.Chemscore.DEInternal>
0.6203

> <Gold.Chemscore.Rot>
2.6637

> <Gold.Chemscore.Internal.Correction>
   9.000000E+99

> <Gold.Chemscore.Hbonds>
donor molecule, donor type, donor heavy atom, donor atom, acceptor molecule, acceptor atom, score
      L1  H     4    30       P1 10957  0.85
      L1  H     5    31       P1  7948  0.86
      L1  H     8    32       P1  7948  0.99
      L1  H    22    50       P1  8028  0.95

> <Gold.Chemscore.Hbond.Weighted>
-12.7519

> <Gold.Chemscore.Metal.Weighted>
-0.0000

> <Gold.Chemscore.Lipo.Weighted>
-11.1398

> <Gold.Chemscore.Internal_Hbond.Weighted>
0.0000

> <Gold.Chemscore.DEClash.Weighted>
0.3149

> <Gold.Chemscore.DEInternal.Weighted>
0.6203

> <Gold.Chemscore.Rot.Weighted>
6.8191

> <Gold.Chemscore.Internal.Correction.Weighted>
   9.000000E+99

> <Gold.Protein.RotatedTorsions>
[ 6907 6896 6895 6894 ] final    2.27 input  -60.11 | X-H torsion
[ 7974 7965 7964 7962 ] final   -4.88 input  175.53 | X-H torsion
[ 8008 7997 7996 7995 ] final  150.63 input   59.86 | X-H torsion
[ 10167 10162 10161 10158 ] final  140.62 input  -65.29 | X-H torsion
[ 10718 10713 10712 10709 ] final  -77.79 input   66.30 | X-H torsion
[ 10763 10752 10751 10750 ] final  -67.10 input  -60.55 | X-H torsion
[ 11005 11000 10999 10996 ] final    1.62 input  -57.11 | X-H torsion

> <Gold.Protein.ActiveResidues>
 VAL166  LYS551  ARG553  GLY616  TRP617  ASP618  TYR619  PRO620  LYS621  CYS622 
 ASP623  PHE694  ASN695  SER759  ASP760  ASP761  ALA762  ILE779  LEU786  VAL792 
 PHE793  MET794  SER795  GLU796  ALA797  LYS798  CYS799  TRP800  GLU811  SER814 

> <Gold.Protein.RotatedAtoms>
  151.6061  135.1044  160.0070 H   0  0  0  0  0  0  0  0  0  0  0  0  # atno 6907 bound_to 6896
  152.4233  133.7148  159.6510 H   0  0  0  0  0  0  0  0  0  0  0  0  # atno 6908 bound_to 6896
  150.8121  133.8331  159.3199 H   0  0  0  0  0  0  0  0  0  0  0  0  # atno 6909 bound_to 6896
  146.2364  140.1938  142.8333 H   0  0  0  0  0  0  0  0  0  0  0  0  # atno 7974 bound_to 7965
  156.2708  140.2070  156.6047 H   0  0  0  0  0  0  0  0  0  0  0  0  # atno 8008 bound_to 7997
  154.6879  140.0533  157.0357 H   0  0  0  0  0  0  0  0  0  0  0  0  # atno 8009 bound_to 7997
  155.0908  140.3196  155.4577 H   0  0  0  0  0  0  0  0  0  0  0  0  # atno 8010 bound_to 7997
  139.5043  144.6222  151.6022 H   0  0  0  0  0  0  0  0  0  0  0  0  # atno 10167 bound_to 10162
  156.0135  130.4501  150.3398 H   0  0  0  0  0  0  0  0  0  0  0  0  # atno 10718 bound_to 10713
  154.3696  135.6098  153.5733 H   0  0  0  0  0  0  0  0  0  0  0  0  # atno 10763 bound_to 10752
  152.9790  135.5834  154.4538 H   0  0  0  0  0  0  0  0  0  0  0  0  # atno 10764 bound_to 10752
  154.4289  135.2847  155.1903 H   0  0  0  0  0  0  0  0  0  0  0  0  # atno 10765 bound_to 10752
  140.6134  133.9727  155.8188 H   0  0  0  0  0  0  0  0  0  0  0  0  # atno 11005 bound_to 11000
  144.9836  140.8482  143.5382 LP  0  0  0  0  0  0  0  0  0  0  0  0  # atno 17320 bound_to 7965
  145.1935  139.2289  143.5230 LP  0  0  0  0  0  0  0  0  0  0  0  0  # atno 17321 bound_to 7965
  140.5928  143.9749  150.6335 LP  0  0  0  0  0  0  0  0  0  0  0  0  # atno 17342 bound_to 10162
  140.2935  143.3308  152.1040 LP  0  0  0  0  0  0  0  0  0  0  0  0  # atno 17343 bound_to 10162
  157.1494  131.0317  151.2892 LP  0  0  0  0  0  0  0  0  0  0  0  0  # atno 17370 bound_to 10713
  157.4405  130.7541  149.7065 LP  0  0  0  0  0  0  0  0  0  0  0  0  # atno 17371 bound_to 10713
  141.0792  134.0088  157.3411 LP  0  0  0  0  0  0  0  0  0  0  0  0  # atno 17394 bound_to 11000
  139.9183  135.0198  156.7966 LP  0  0  0  0  0  0  0  0  0  0  0  0  # atno 17395 bound_to 11000

$$$$
