AV-unprocessed.smi:1550|AV-procd|sdf|6228|dock6
  -GOLD-   22720 6403D 1   1.00000     0.00000
 Structure written by MMmdl.
 42 43  0  0  0  0  0  0  0  0  2 V2000
  148.2990  141.7797  154.1424 C   0  0  0  0  0  0  0  0  0  0  0  0
  148.6737  140.9441  155.3754 C   0  0  2  0  0  0  0  0  0  0  0  0
  149.4034  141.7879  156.2620 O   0  0  0  0  0  0  0  0  0  0  0  0
  150.0535  141.1226  157.3394 C   0  0  0  0  0  0  0  0  0  0  0  0
  150.6523  142.1760  158.2800 C   0  0  2  0  0  0  0  0  0  0  0  0
  151.1990  143.3924  157.5072 C   0  0  0  0  0  0  0  0  0  0  0  0
  151.8681  144.3836  158.4662 C   0  0  0  0  0  0  0  0  0  0  0  0
  152.9175  143.6554  159.3126 C   0  0  0  0  0  0  0  0  0  0  0  0
  152.2945  142.4241  159.9887 C   0  0  0  0  0  0  0  0  0  0  0  0
  151.7229  141.5702  159.0026 O   0  0  0  0  0  0  0  0  0  0  0  0
  149.5213  139.7213  154.9882 C   0  0  0  0  0  0  0  0  0  0  0  0
  150.5415  139.8828  154.3192 O   0  0  0  0  0  0  0  0  0  0  0  0
  149.0736  138.5403  155.4583 N   0  0  0  0  0  0  0  0  0  0  0  0
  149.6020  137.2467  155.3033 C   0  0  0  0  0  0  0  0  0  0  0  0
  148.9149  136.1707  154.8284 C   0  0  0  0  0  0  0  0  0  0  0  0
  149.5229  134.8526  154.6965 C   0  0  0  0  0  0  0  0  0  0  0  0
  148.7666  133.6176  154.2393 C   0  0  0  0  0  0  0  0  0  0  0  0
  148.7667  132.6768  155.1841 F   0  0  0  0  0  0  0  0  0  0  0  0
  147.5015  133.9148  153.9420 F   0  0  0  0  0  0  0  0  0  0  0  0
  149.3418  133.1114  153.1494 F   0  0  0  0  0  0  0  0  0  0  0  0
  150.8327  134.8329  155.1343 C   0  0  0  0  0  0  0  0  0  0  0  0
  151.5860  135.8488  155.6095 N   0  5  0  0  0  0  0  0  0  0  0  0
  151.0112  137.0800  155.7163 C   0  0  0  0  0  0  0  0  0  0  0  0
  151.6395  138.0482  156.1461 O   0  0  0  0  0  0  0  0  0  0  0  0
  147.7529  141.1827  153.4111 H   0  0  0  0  0  0  0  0  0  0  0  0
  149.1818  142.1902  153.6506 H   0  0  0  0  0  0  0  0  0  0  0  0
  147.6617  142.6180  154.4241 H   0  0  0  0  0  0  0  0  0  0  0  0
  147.7499  140.6201  155.8596 H   0  0  0  0  0  0  0  0  0  0  0  0
  149.3524  140.4833  157.8781 H   0  0  0  0  0  0  0  0  0  0  0  0
  150.8521  140.4846  156.9594 H   0  0  0  0  0  0  0  0  0  0  0  0
  149.8800  142.5086  158.9761 H   0  0  0  0  0  0  0  0  0  0  0  0
  151.9224  143.0607  156.7612 H   0  0  0  0  0  0  0  0  0  0  0  0
  150.3948  143.8885  156.9627 H   0  0  0  0  0  0  0  0  0  0  0  0
  152.3271  145.2022  157.9110 H   0  0  0  0  0  0  0  0  0  0  0  0
  151.1149  144.8280  159.1180 H   0  0  0  0  0  0  0  0  0  0  0  0
  153.7473  143.3405  158.6783 H   0  0  0  0  0  0  0  0  0  0  0  0
  153.3331  144.3294  160.0619 H   0  0  0  0  0  0  0  0  0  0  0  0
  153.0576  141.8699  160.5354 H   0  0  0  0  0  0  0  0  0  0  0  0
  151.5351  142.7198  160.7142 H   0  0  0  0  0  0  0  0  0  0  0  0
  148.2487  138.5800  156.0393 H   0  0  0  0  0  0  0  0  0  0  0  0
  147.8812  136.2536  154.5382 H   0  0  0  0  0  0  0  0  0  0  0  0
  151.3540  133.8526  155.0978 H   0  0  0  0  0  0  0  0  0  0  0  0
  1  2  1  0  0  0  0
  1 25  1  0  0  0  0
  1 26  1  0  0  0  0
  1 27  1  0  0  0  0
  2  3  1  0  0  0  0
  2 11  1  0  0  0  0
  2 28  1  0  0  0  0
  3  4  1  0  0  0  0
  4  5  1  0  0  0  0
  4 29  1  0  0  0  0
  4 30  1  0  0  0  0
  5 10  1  0  0  0  0
  5  6  1  0  0  0  0
  5 31  1  0  0  0  0
  6  7  1  0  0  0  0
  6 32  1  0  0  0  0
  6 33  1  0  0  0  0
  7  8  1  0  0  0  0
  7 34  1  0  0  0  0
  7 35  1  0  0  0  0
  8  9  1  0  0  0  0
  8 36  1  0  0  0  0
  8 37  1  0  0  0  0
  9 10  1  0  0  0  0
  9 38  1  0  0  0  0
  9 39  1  0  0  0  0
 11 12  2  0  0  0  0
 11 13  1  0  0  0  0
 13 14  1  0  0  0  0
 13 40  1  0  0  0  0
 14 23  1  0  0  0  0
 14 15  2  0  0  0  0
 15 16  1  0  0  0  0
 15 41  1  0  0  0  0
 16 17  1  0  0  0  0
 16 21  2  0  0  0  0
 17 18  1  0  0  0  0
 17 19  1  0  0  0  0
 17 20  1  0  0  0  0
 21 22  1  0  0  0  0
 21 42  1  0  0  0  0
 22 23  1  0  0  0  0
 23 24  2  0  0  0  0
M  CHG  1  22  -1
M  END
> <s_m_source_file>
AV-unprocessed.smi

> <i_m_source_file_index>
1550

> <i_lp_mmshare_version>
43012

> <i_f3d_flags>
0

> <s_epik_input>
TzFbQ0gyXVtDSDJdW0NIMl1bQ0gyXVtDQEhdMVtDSDJdT1tDQEBIXShbQ0gzXSlDKD1PKVtOSF1jMltjSF1jKEMoRikoRilGKVtjSF1bbkhdYzI9Tw==

> <s_epik_cmdline>
J2VwaWtfcHl0aG9uJywgJy1waCcsICc3LjAnLCAnLXRuJywgJzgnLCAnLW1hJywgJzIwMCcsICctbWV0YWxfYmluZGluZycsICctaW1hZScsICc8aW5maWxlLm1hZT4nLCAnLW9tYWUnLCAnPG91dGZpbGUubWFlPic=

> <r_epik_Ionization_Penalty>
2.54933

> <r_epik_Ionization_Penalty_Charging>
0.0583423

> <r_epik_Ionization_Penalty_Neutral>
2.49099

> <r_epik_State_Penalty>
2.65532

> <r_epik_Charging_Adjusted_Penalty>
2.71366

> <i_epik_Tot_Q>
-1

> <i_epik_Tot_abs_Q>
1

> <r_epik_Metal_State_Penalty>
0.516364

> <b_epik_Metal_Only>
0

> <s_lp_Force_Field>
OPLS_2005

> <r_lp_Energy>
27.7019

> <b_lp_Chiralities_Consistent>
1

> <s_lp_Variant>
AV-unprocessed.smi:1550-5

> <Gold.Version>
5.8.1

> <Gold.Id.Protein>
6NUR|6NUR_protein|mol2

> <Gold.PLP.Fitness>
46.6042

> <Gold.PLP.PLP>
-39.3317

> <Gold.PLP.part.hbond>
-2.0000

> <Gold.PLP.part.metal>
0.0000

> <Gold.PLP.part.buried>
-4.0327

> <Gold.PLP.part.nonpolar>
-34.3424

> <Gold.PLP.part.repulsive>
0.7415

> <Gold.PLP.ligand.clash>
0.0000

> <Gold.PLP.ligand.torsion>
0.9578

> <Gold.PLP.Chemscore.Hbond>
3.0000

> <Gold.PLP.Chemscore.CHOScore>
0.0000

> <Gold.PLP.Chemscore.Metal>
0.0000

> <Gold.Chemscore.Hbonds>
donor molecule, donor type, donor heavy atom, donor atom, acceptor molecule, acceptor atom, score
      P1  H  7989  7998       L1    12  1.00
      P1  H 10752 10764       L1    22  2.00

> <Gold.PLP.Chemscore.Internal.Correction>
0.1881

> <Gold.Rescore>
     Score         DG    S(hbond)    S(metal)    S(lipo)     H(rot)  DE(clash)    DE(int)     intcor
     14.02     -17.52       1.81        0.00      91.08       1.82       0.20       3.30       ----

> <Gold.Chemscore.Fitness>
14.0166

> <Gold.Chemscore.DG>
-17.5232

> <Gold.Chemscore.ZeroCoef>
-5.4800

> <Gold.Chemscore.Hbond>
1.8130

> <Gold.Chemscore.Metal>
0.0000

> <Gold.Chemscore.Lipo>
91.0772

> <Gold.Chemscore.Internal_Hbond>
0.0000

> <Gold.Chemscore.DEClash>
0.2031

> <Gold.Chemscore.DEInternal>
3.3035

> <Gold.Chemscore.Rot>
1.8236

> <Gold.Chemscore.Internal.Correction>
   9.000000E+99

> <Gold.Chemscore.Hbonds>
donor molecule, donor type, donor heavy atom, donor atom, acceptor molecule, acceptor atom, score
      P1  H  7989  7998       L1    12  1.00
      P1  H 10752 10764       L1    22  0.25

> <Gold.Chemscore.Hbond.Weighted>
-6.0555

> <Gold.Chemscore.Metal.Weighted>
-0.0000

> <Gold.Chemscore.Lipo.Weighted>
-10.6560

> <Gold.Chemscore.Internal_Hbond.Weighted>
0.0000

> <Gold.Chemscore.DEClash.Weighted>
0.2031

> <Gold.Chemscore.DEInternal.Weighted>
3.3035

> <Gold.Chemscore.Rot.Weighted>
4.6684

> <Gold.Chemscore.Internal.Correction.Weighted>
   9.000000E+99

> <Gold.Protein.RotatedTorsions>
[ 6907 6896 6895 6894 ] final   68.81 input  -60.11 | X-H torsion
[ 7974 7965 7964 7962 ] final  -40.99 input  175.53 | X-H torsion
[ 8008 7997 7996 7995 ] final -168.03 input   59.86 | X-H torsion
[ 10167 10162 10161 10158 ] final -136.78 input  -65.29 | X-H torsion
[ 10718 10713 10712 10709 ] final  -80.44 input   66.30 | X-H torsion
[ 10763 10752 10751 10750 ] final  -44.10 input  -60.55 | X-H torsion
[ 11005 11000 10999 10996 ] final   83.86 input  -57.11 | X-H torsion

> <Gold.Protein.ActiveResidues>
 VAL166  LYS551  ARG553  GLY616  TRP617  ASP618  TYR619  PRO620  LYS621  CYS622 
 ASP623  PHE694  ASN695  SER759  ASP760  ASP761  ALA762  ILE779  LEU786  VAL792 
 PHE793  MET794  SER795  GLU796  ALA797  LYS798  CYS799  TRP800  GLU811  SER814 

> <Gold.Protein.RotatedAtoms>
  152.4645  134.5108  159.9752 H   0  0  0  0  0  0  0  0  0  0  0  0  # atno 6907 bound_to 6896
  151.5149  133.3472  159.2899 H   0  0  0  0  0  0  0  0  0  0  0  0  # atno 6908 bound_to 6896
  150.8623  134.8006  159.7154 H   0  0  0  0  0  0  0  0  0  0  0  0  # atno 6909 bound_to 6896
  146.0253  140.6799  142.9158 H   0  0  0  0  0  0  0  0  0  0  0  0  # atno 7974 bound_to 7965
  155.8858  140.1016  157.1453 H   0  0  0  0  0  0  0  0  0  0  0  0  # atno 8008 bound_to 7997
  154.4009  140.1320  156.4317 H   0  0  0  0  0  0  0  0  0  0  0  0  # atno 8009 bound_to 7997
  155.7591  140.3463  155.5191 H   0  0  0  0  0  0  0  0  0  0  0  0  # atno 8010 bound_to 7997
  139.8643  143.7037  152.2647 H   0  0  0  0  0  0  0  0  0  0  0  0  # atno 10167 bound_to 10162
  156.0070  130.4574  150.3800 H   0  0  0  0  0  0  0  0  0  0  0  0  # atno 10718 bound_to 10713
  154.0065  135.6687  153.4762 H   0  0  0  0  0  0  0  0  0  0  0  0  # atno 10763 bound_to 10752
  153.0639  135.5012  154.8152 H   0  0  0  0  0  0  0  0  0  0  0  0  # atno 10764 bound_to 10752
  154.7021  135.3081  154.9289 H   0  0  0  0  0  0  0  0  0  0  0  0  # atno 10765 bound_to 10752
  139.9018  134.8175  156.2366 H   0  0  0  0  0  0  0  0  0  0  0  0  # atno 11005 bound_to 11000
  144.7007  140.3639  143.7158 LP  0  0  0  0  0  0  0  0  0  0  0  0  # atno 17320 bound_to 7965
  145.7128  139.1689  143.2529 LP  0  0  0  0  0  0  0  0  0  0  0  0  # atno 17321 bound_to 7965
  139.7344  144.7575  151.0751 LP  0  0  0  0  0  0  0  0  0  0  0  0  # atno 17342 bound_to 10162
  140.7770  143.5049  150.9725 LP  0  0  0  0  0  0  0  0  0  0  0  0  # atno 17343 bound_to 10162
  157.1881  131.0408  151.2714 LP  0  0  0  0  0  0  0  0  0  0  0  0  # atno 17370 bound_to 10713
  157.4086  130.7373  149.6822 LP  0  0  0  0  0  0  0  0  0  0  0  0  # atno 17371 bound_to 10713
  141.0311  133.6988  156.1432 LP  0  0  0  0  0  0  0  0  0  0  0  0  # atno 17394 bound_to 11000
  140.7094  134.4477  157.5582 LP  0  0  0  0  0  0  0  0  0  0  0  0  # atno 17395 bound_to 11000

$$$$
