AV-unprocessed.smi:54|AV-procd|sdf|534|dock4
  -GOLD-   2262016413D 1   1.00000     0.00000
 Structure written by MMmdl.
 44 46  0  0  0  0  0  0  0  0  1 V2000
  146.7885  142.5008  154.1319 C   0  0  0  0  0  0  0  0  0  0  0  0
  147.7727  141.4793  153.5390 C   0  0  0  0  0  0  0  0  0  0  0  0
  147.0338  140.2536  152.9776 C   0  0  0  0  0  0  0  0  0  0  0  0
  148.8073  141.0556  154.5881 C   0  0  0  0  0  0  0  0  0  0  0  0
  149.1729  139.8855  154.7081 O   0  0  0  0  0  0  0  0  0  0  0  0
  149.3156  142.1256  155.4287 N   0  0  0  0  0  0  0  0  0  0  0  0
  150.2189  142.0273  156.4321 C   0  0  0  0  0  0  0  0  0  0  0  0
  150.6793  140.8694  156.8850 N   0  0  0  0  0  0  0  0  0  0  0  0
  151.5822  140.9769  157.9057 C   0  0  0  0  0  0  0  0  0  0  0  0
  152.0407  142.1432  158.4802 C   0  0  0  0  0  0  0  0  0  0  0  0
  152.9491  141.8528  159.4920 N   0  0  0  0  0  0  0  0  0  0  0  0
  153.0088  140.5498  159.5005 C   0  0  0  0  0  0  0  0  0  0  0  0
  152.1999  139.9394  158.5696 N   0  0  0  0  0  0  0  0  0  0  0  0
  152.0047  138.4813  158.2771 C   0  0  1  0  0  0  0  0  0  0  0  0
  151.0817  138.3577  157.2373 O   0  0  0  0  0  0  0  0  0  0  0  0
  151.7663  138.0988  156.0172 C   0  0  2  0  0  0  0  0  0  0  0  0
  150.8204  137.5046  154.9598 C   0  0  0  0  0  0  0  0  0  0  0  0
  151.5671  136.8420  153.9620 O   0  0  0  0  0  0  0  0  0  0  0  0
  152.9081  137.1828  156.4738 C   0  0  2  0  0  0  0  0  0  0  0  0
  152.4536  135.8518  156.6395 O   0  0  0  0  0  0  0  0  0  0  0  0
  153.3094  137.7837  157.8160 C   0  0  1  0  0  0  0  0  0  0  0  0
  154.4061  138.6636  157.6358 O   0  0  0  0  0  0  0  0  0  0  0  0
  151.5581  143.4045  157.9967 C   0  0  0  0  0  0  0  0  0  0  0  0
  151.8552  144.5329  158.3828 O   0  0  0  0  0  0  0  0  0  0  0  0
  150.6338  143.2525  156.9545 N   0  0  0  0  0  0  0  0  0  0  0  0
  151.5896  138.0708  159.1984 H   0  0  0  0  0  0  0  0  0  0  0  0
  152.2044  139.0276  155.6467 H   0  0  0  0  0  0  0  0  0  0  0  0
  153.7292  137.1704  155.7552 H   0  0  0  0  0  0  0  0  0  0  0  0
  153.5949  137.0216  158.5426 H   0  0  0  0  0  0  0  0  0  0  0  0
  147.3128  143.3650  154.5418 H   0  0  0  0  0  0  0  0  0  0  0  0
  146.1897  142.0638  154.9321 H   0  0  0  0  0  0  0  0  0  0  0  0
  146.1016  142.8679  153.3689 H   0  0  0  0  0  0  0  0  0  0  0  0
  148.3010  141.9614  152.7151 H   0  0  0  0  0  0  0  0  0  0  0  0
  147.7307  139.5293  152.5543 H   0  0  0  0  0  0  0  0  0  0  0  0
  146.3439  140.5442  152.1847 H   0  0  0  0  0  0  0  0  0  0  0  0
  146.4530  139.7462  153.7492 H   0  0  0  0  0  0  0  0  0  0  0  0
  148.9394  143.0446  155.2478 H   0  0  0  0  0  0  0  0  0  0  0  0
  153.6451  140.0077  160.1847 H   0  0  0  0  0  0  0  0  0  0  0  0
  150.1604  136.7677  155.4185 H   0  0  0  0  0  0  0  0  0  0  0  0
  150.1900  138.2731  154.5113 H   0  0  0  0  0  0  0  0  0  0  0  0
  151.1196  136.9424  153.1358 H   0  0  0  0  0  0  0  0  0  0  0  0
  152.3112  135.4749  155.7847 H   0  0  0  0  0  0  0  0  0  0  0  0
  155.1517  138.3063  158.0938 H   0  0  0  0  0  0  0  0  0  0  0  0
  150.2481  144.1015  156.5679 H   0  0  0  0  0  0  0  0  0  0  0  0
  1  2  1  0  0  0  0
  1 30  1  0  0  0  0
  1 31  1  0  0  0  0
  1 32  1  0  0  0  0
  2  3  1  0  0  0  0
  2  4  1  0  0  0  0
  2 33  1  0  0  0  0
  3 34  1  0  0  0  0
  3 35  1  0  0  0  0
  3 36  1  0  0  0  0
  4  5  2  0  0  0  0
  4  6  1  0  0  0  0
  6 37  1  0  0  0  0
  6  7  1  0  0  0  0
  7 25  1  0  0  0  0
  7  8  2  0  0  0  0
  8  9  1  0  0  0  0
  9 13  1  0  0  0  0
  9 10  2  0  0  0  0
 10 11  1  0  0  0  0
 10 23  1  0  0  0  0
 11 12  2  0  0  0  0
 12 13  1  0  0  0  0
 12 38  1  0  0  0  0
 13 14  1  0  0  0  0
 14 26  1  0  0  0  0
 14 21  1  0  0  0  0
 14 15  1  0  0  0  0
 15 16  1  0  0  0  0
 16 27  1  0  0  0  0
 16 17  1  0  0  0  0
 16 19  1  0  0  0  0
 17 18  1  0  0  0  0
 17 39  1  0  0  0  0
 17 40  1  0  0  0  0
 18 41  1  0  0  0  0
 19 28  1  0  0  0  0
 19 20  1  0  0  0  0
 19 21  1  0  0  0  0
 20 42  1  0  0  0  0
 21 29  1  0  0  0  0
 21 22  1  0  0  0  0
 22 43  1  0  0  0  0
 23 24  2  0  0  0  0
 23 25  1  0  0  0  0
 25 44  1  0  0  0  0
M  END
> <s_m_source_file>
AV-unprocessed.smi

> <i_m_source_file_index>
54

> <i_lp_mmshare_version>
43012

> <i_f3d_flags>
0

> <s_epik_input>
W0NIM11bQ0hdKFtDSDNdKUMoPU8pW05IXWMobjEpW25IXWMoPU8pYyhjMTIpbltjSF1uMltDQEBIXTNPW0NASF0oW0NIMl1bT0hdKVtDQEBIXShbT0hdKVtDQEhdM1tPSF0=

> <s_epik_cmdline>
J2VwaWtfcHl0aG9uJywgJy1waCcsICc3LjAnLCAnLXRuJywgJzgnLCAnLW1hJywgJzIwMCcsICctbWV0YWxfYmluZGluZycsICctaW1hZScsICc8aW5maWxlLm1hZT4nLCAnLW9tYWUnLCAnPG91dGZpbGUubWFlPic=

> <r_lp_tautomer_probability>
0.85571

> <r_epik_Ionization_Penalty>
0.0316551

> <r_epik_Ionization_Penalty_Charging>
0.0316043

> <r_epik_Ionization_Penalty_Neutral>
5.07097e-05

> <r_epik_State_Penalty>
3.15494e-07

> <r_epik_Charging_Adjusted_Penalty>
0.0316047

> <i_epik_Tot_Q>
0

> <i_epik_Tot_abs_Q>
0

> <r_epik_Metal_State_Penalty>
0.421206

> <b_epik_Metal_Only>
0

> <s_epik_Chemistry_Notes>
This compound contains an acetal/aminal-like group ( X-CH(R)-Y where X, Y are N, S, or O) that may be acid/base labile, releasing an aldehyde.

> <s_lp_Force_Field>
OPLS_2005

> <r_lp_Energy>
41.1485

> <b_lp_Chiralities_Consistent>
1

> <s_lp_Variant>
AV-unprocessed.smi:54-6

> <Gold.Version>
5.8.1

> <Gold.Id.Protein>
6NUR|6NUR_protein|mol2

> <Gold.PLP.Fitness>
51.3506

> <Gold.PLP.PLP>
-38.8167

> <Gold.PLP.part.hbond>
-5.8335

> <Gold.PLP.part.metal>
0.0000

> <Gold.PLP.part.buried>
-7.5737

> <Gold.PLP.part.nonpolar>
-26.1653

> <Gold.PLP.part.repulsive>
0.3824

> <Gold.PLP.ligand.clash>
0.0686

> <Gold.PLP.ligand.torsion>
0.6255

> <Gold.PLP.Chemscore.Hbond>
4.5933

> <Gold.PLP.Chemscore.CHOScore>
0.0000

> <Gold.PLP.Chemscore.Metal>
0.0000

> <Gold.Chemscore.Hbonds>
donor molecule, donor type, donor heavy atom, donor atom, acceptor molecule, acceptor atom, score
      L1  H     6    37       P1  8028  0.99
      L1  H    18    41       P1  7949  0.67
      L1  H    25    44       P1  8028  0.88
      P1  H  7997  8010       L1    22  0.70
      P1  H 10752 10765       L1    18  0.83

> <Gold.PLP.Chemscore.Internal.Correction>
0.0737

> <Gold.Rescore>
     Score         DG    S(hbond)    S(metal)    S(lipo)     H(rot)  DE(clash)    DE(int)     intcor
     11.15     -15.82       4.39        0.00      51.57       4.05       0.11       4.56       ----

> <Gold.Chemscore.Fitness>
11.1516

> <Gold.Chemscore.DG>
-15.8162

> <Gold.Chemscore.ZeroCoef>
-5.4800

> <Gold.Chemscore.Hbond>
4.3918

> <Gold.Chemscore.Metal>
0.0000

> <Gold.Chemscore.Lipo>
51.5710

> <Gold.Chemscore.Internal_Hbond>
0.0000

> <Gold.Chemscore.DEClash>
0.1075

> <Gold.Chemscore.DEInternal>
4.5571

> <Gold.Chemscore.Rot>
4.0493

> <Gold.Chemscore.Internal.Correction>
   9.000000E+99

> <Gold.Chemscore.Hbonds>
donor molecule, donor type, donor heavy atom, donor atom, acceptor molecule, acceptor atom, score
      L1  H     6    37       P1  8028  0.94
      L1  H    18    41       P1  7949  0.30
      L1  H    25    44       P1  8028  0.86
      P1  H  7997  8010       L1    22  0.45
      P1  H 10752 10765       L1    18  0.74

> <Gold.Chemscore.Hbond.Weighted>
-14.6686

> <Gold.Chemscore.Metal.Weighted>
-0.0000

> <Gold.Chemscore.Lipo.Weighted>
-6.0338

> <Gold.Chemscore.Internal_Hbond.Weighted>
0.0000

> <Gold.Chemscore.DEClash.Weighted>
0.1075

> <Gold.Chemscore.DEInternal.Weighted>
4.5571

> <Gold.Chemscore.Rot.Weighted>
10.3662

> <Gold.Chemscore.Internal.Correction.Weighted>
   9.000000E+99

> <Gold.Protein.RotatedTorsions>
[ 6907 6896 6895 6894 ] final  -83.01 input  -60.11 | X-H torsion
[ 7974 7965 7964 7962 ] final   34.32 input  175.53 | X-H torsion
[ 8008 7997 7996 7995 ] final   22.34 input   59.86 | X-H torsion
[ 10167 10162 10161 10158 ] final  -68.05 input  -65.29 | X-H torsion
[ 10718 10713 10712 10709 ] final  -87.12 input   66.30 | X-H torsion
[ 10763 10752 10751 10750 ] final -177.65 input  -60.55 | X-H torsion
[ 11005 11000 10999 10996 ] final -159.62 input  -57.11 | X-H torsion

> <Gold.Protein.ActiveResidues>
 VAL166  LYS551  ARG553  GLY616  TRP617  ASP618  TYR619  PRO620  LYS621  CYS622 
 ASP623  PHE694  ASN695  SER759  ASP760  ASP761  ALA762  ILE779  LEU786  VAL792 
 PHE793  MET794  SER795  GLU796  ALA797  LYS798  CYS799  TRP800  GLU811  SER814 

> <Gold.Protein.RotatedAtoms>
  150.6890  134.3577  159.4936 H   0  0  0  0  0  0  0  0  0  0  0  0  # atno 6907 bound_to 6896
  152.1410  134.9060  160.0563 H   0  0  0  0  0  0  0  0  0  0  0  0  # atno 6908 bound_to 6896
  152.0193  133.3857  159.4288 H   0  0  0  0  0  0  0  0  0  0  0  0  # atno 6909 bound_to 6896
  146.1361  139.6284  142.9194 H   0  0  0  0  0  0  0  0  0  0  0  0  # atno 7974 bound_to 7965
  154.9642  140.3082  155.5017 H   0  0  0  0  0  0  0  0  0  0  0  0  # atno 8008 bound_to 7997
  156.2973  140.2295  156.4669 H   0  0  0  0  0  0  0  0  0  0  0  0  # atno 8009 bound_to 7997
  154.7936  140.0438  157.1208 H   0  0  0  0  0  0  0  0  0  0  0  0  # atno 8010 bound_to 7997
  140.5537  143.2312  151.6863 H   0  0  0  0  0  0  0  0  0  0  0  0  # atno 10167 bound_to 10162
  155.9986  130.4789  150.4818 H   0  0  0  0  0  0  0  0  0  0  0  0  # atno 10718 bound_to 10713
  154.5575  135.2817  155.0951 H   0  0  0  0  0  0  0  0  0  0  0  0  # atno 10763 bound_to 10752
  154.2372  135.6363  153.5199 H   0  0  0  0  0  0  0  0  0  0  0  0  # atno 10764 bound_to 10752
  153.0020  135.5551  154.6159 H   0  0  0  0  0  0  0  0  0  0  0  0  # atno 10765 bound_to 10752
  140.6405  134.4556  157.5233 H   0  0  0  0  0  0  0  0  0  0  0  0  # atno 11005 bound_to 11000
  145.5153  141.0434  143.2465 LP  0  0  0  0  0  0  0  0  0  0  0  0  # atno 17320 bound_to 7965
  144.7741  139.6668  143.7182 LP  0  0  0  0  0  0  0  0  0  0  0  0  # atno 17321 bound_to 7965
  139.5038  144.3776  152.0408 LP  0  0  0  0  0  0  0  0  0  0  0  0  # atno 17342 bound_to 10162
  140.2896  144.3769  150.6093 LP  0  0  0  0  0  0  0  0  0  0  0  0  # atno 17343 bound_to 10162
  157.2823  131.0609  151.2189 LP  0  0  0  0  0  0  0  0  0  0  0  0  # atno 17370 bound_to 10713
  157.3231  130.6947  149.6281 LP  0  0  0  0  0  0  0  0  0  0  0  0  # atno 17371 bound_to 10713
  139.9082  134.8403  156.1627 LP  0  0  0  0  0  0  0  0  0  0  0  0  # atno 17394 bound_to 11000
  141.0610  133.6842  156.1952 LP  0  0  0  0  0  0  0  0  0  0  0  0  # atno 17395 bound_to 11000

$$$$
