AV-unprocessed.smi:46|AV-procd|sdf|419|dock2
  -GOLD-   2262016293D 1   1.00000     0.00000
 Structure written by MMmdl.
 35 36  0  0  0  0  0  0  0  0  2 V2000
  152.7816  144.7820  157.7650 C   0  0  0  0  0  0  0  0  0  0  0  0
  152.0055  143.7286  158.5699 C   0  0  0  0  0  0  0  0  0  0  0  0
  152.7116  143.3747  159.8871 C   0  0  0  0  0  0  0  0  0  0  0  0
  151.7726  142.5347  157.7715 N   0  0  0  0  0  0  0  0  0  0  0  0
  151.1157  142.4176  156.5636 C   0  0  0  0  0  0  0  0  0  0  0  0
  151.1513  141.1008  156.1968 C   0  0  0  0  0  0  0  0  0  0  0  0
  150.5788  140.4344  154.9724 C   0  0  2  0  0  0  0  0  0  0  0  0
  149.0997  140.7532  154.7495 C   0  0  0  0  0  0  0  0  0  0  0  0
  148.6215  139.7131  153.8228 N   0  3  0  0  0  0  0  0  0  0  0  0
  149.5283  138.5513  153.9364 C   0  0  0  0  0  0  0  0  0  0  0  0
  150.5719  138.9038  155.0124 C   0  0  1  0  0  0  0  0  0  0  0  0
  151.9523  138.2633  154.7845 C   0  0  0  0  0  0  0  0  0  0  0  0
  151.8032  136.9181  154.3848 O   0  0  0  0  0  0  0  0  0  0  0  0
  151.8652  140.4843  157.2631 C   0  0  0  0  0  0  0  0  0  0  0  0
  152.2358  141.3411  158.1992 N   0  0  0  0  0  0  0  0  0  0  0  0
  151.1283  140.7519  154.0841 H   0  0  0  0  0  0  0  0  0  0  0  0
  150.1812  138.5839  155.9804 H   0  0  0  0  0  0  0  0  0  0  0  0
  152.9060  145.6997  158.3403 H   0  0  0  0  0  0  0  0  0  0  0  0
  152.2550  145.0392  156.8453 H   0  0  0  0  0  0  0  0  0  0  0  0
  153.7752  144.4256  157.4917 H   0  0  0  0  0  0  0  0  0  0  0  0
  151.0338  144.1578  158.8216 H   0  0  0  0  0  0  0  0  0  0  0  0
  152.8328  144.2579  160.5147 H   0  0  0  0  0  0  0  0  0  0  0  0
  153.7025  142.9556  159.7095 H   0  0  0  0  0  0  0  0  0  0  0  0
  152.1367  142.6431  160.4556 H   0  0  0  0  0  0  0  0  0  0  0  0
  150.6801  143.2740  156.0700 H   0  0  0  0  0  0  0  0  0  0  0  0
  148.5387  140.6549  155.6800 H   0  0  0  0  0  0  0  0  0  0  0  0
  148.9333  141.7580  154.3603 H   0  0  0  0  0  0  0  0  0  0  0  0
  147.6717  139.4533  154.0477 H   0  0  0  0  0  0  0  0  0  0  0  0
  148.9764  137.6448  154.1870 H   0  0  0  0  0  0  0  0  0  0  0  0
  150.0016  138.3955  152.9662 H   0  0  0  0  0  0  0  0  0  0  0  0
  152.5197  138.8058  154.0276 H   0  0  0  0  0  0  0  0  0  0  0  0
  152.5371  138.2862  155.7045 H   0  0  0  0  0  0  0  0  0  0  0  0
  151.5623  136.9001  153.4707 H   0  0  0  0  0  0  0  0  0  0  0  0
  152.1234  139.4425  157.3833 H   0  0  0  0  0  0  0  0  0  0  0  0
  148.6639  140.0637  152.8764 H   0  0  0  0  0  0  0  0  0  0  0  0
  1  2  1  0  0  0  0
  1 18  1  0  0  0  0
  1 19  1  0  0  0  0
  1 20  1  0  0  0  0
  2  3  1  0  0  0  0
  2  4  1  0  0  0  0
  2 21  1  0  0  0  0
  3 22  1  0  0  0  0
  3 23  1  0  0  0  0
  3 24  1  0  0  0  0
  4 15  1  0  0  0  0
  4  5  1  0  0  0  0
  5  6  2  0  0  0  0
  5 25  1  0  0  0  0
  6  7  1  0  0  0  0
  6 14  1  0  0  0  0
  7 16  1  0  0  0  0
  7 11  1  0  0  0  0
  7  8  1  0  0  0  0
  8  9  1  0  0  0  0
  8 26  1  0  0  0  0
  8 27  1  0  0  0  0
  9 10  1  0  0  0  0
  9 28  1  0  0  0  0
  9 35  1  0  0  0  0
 10 11  1  0  0  0  0
 10 29  1  0  0  0  0
 10 30  1  0  0  0  0
 11 17  1  0  0  0  0
 11 12  1  0  0  0  0
 12 13  1  0  0  0  0
 12 31  1  0  0  0  0
 12 32  1  0  0  0  0
 13 33  1  0  0  0  0
 14 15  2  0  0  0  0
 14 34  1  0  0  0  0
M  CHG  1   9   1
M  END
> <s_m_source_file>
AV-unprocessed.smi

> <i_m_source_file_index>
46

> <i_lp_mmshare_version>
43012

> <i_f3d_flags>
0

> <s_epik_input>
W0NIM11bQ0hdKFtDSDNdKW4xW2NIXWMoW2NIXW4xKVtDQEBIXTJbQ0gyXVtOSF1bQ0gyXVtDQEhdMltDSDJdW09IXQ==

> <s_epik_cmdline>
J2VwaWtfcHl0aG9uJywgJy1waCcsICc3LjAnLCAnLXRuJywgJzgnLCAnLW1hJywgJzIwMCcsICctbWV0YWxfYmluZGluZycsICctaW1hZScsICc8aW5maWxlLm1hZT4nLCAnLW9tYWUnLCAnPG91dGZpbGUubWFlPic=

> <r_lp_tautomer_probability>
1

> <r_epik_Ionization_Penalty>
0.000236226

> <r_epik_Ionization_Penalty_Charging>
0.00021985

> <r_epik_Ionization_Penalty_Neutral>
1.63752e-05

> <r_epik_State_Penalty>
-0

> <r_epik_Charging_Adjusted_Penalty>
0.00021985

> <i_epik_Tot_Q>
1

> <i_epik_Tot_abs_Q>
1

> <r_epik_Metal_State_Penalty>
-0

> <b_epik_Metal_Only>
0

> <s_lp_Force_Field>
OPLS_2005

> <r_lp_Energy>
29.3902

> <b_lp_Chiralities_Consistent>
1

> <s_lp_Variant>
AV-unprocessed.smi:46-1

> <Gold.Version>
5.8.1

> <Gold.Id.Protein>
6NUR|6NUR_protein|mol2

> <Gold.PLP.Fitness>
46.2620

> <Gold.PLP.PLP>
-35.5717

> <Gold.PLP.part.hbond>
-3.0000

> <Gold.PLP.part.metal>
0.0000

> <Gold.PLP.part.buried>
0.0125

> <Gold.PLP.part.nonpolar>
-32.3598

> <Gold.PLP.part.repulsive>
0.0831

> <Gold.PLP.ligand.clash>
0.0000

> <Gold.PLP.ligand.torsion>
0.3493

> <Gold.PLP.Chemscore.Hbond>
2.7828

> <Gold.PLP.Chemscore.CHOScore>
1.0000

> <Gold.PLP.Chemscore.Metal>
0.0000

> <Gold.Chemscore.Hbonds>
donor molecule, donor type, donor heavy atom, donor atom, acceptor molecule, acceptor atom, score
      L1  H     9    35       P1  7957  0.94
      L1  H    13    33       P1  7949  0.54
      P1  H 10752 10764       L1    13  0.70
      L1  C     5    25       P1  8028  1.00

> <Gold.PLP.Chemscore.Internal.Correction>
0.0404

> <Gold.Rescore>
     Score         DG    S(hbond)    S(metal)    S(lipo)     H(rot)  DE(clash)    DE(int)     intcor
     17.38     -18.09       2.02        0.00      91.67       1.90       0.06       0.65       ----

> <Gold.Chemscore.Fitness>
17.3793

> <Gold.Chemscore.DG>
-18.0853

> <Gold.Chemscore.ZeroCoef>
-5.4800

> <Gold.Chemscore.Hbond>
2.0174

> <Gold.Chemscore.Metal>
0.0000

> <Gold.Chemscore.Lipo>
91.6663

> <Gold.Chemscore.Internal_Hbond>
0.0000

> <Gold.Chemscore.DEClash>
0.0553

> <Gold.Chemscore.DEInternal>
0.6507

> <Gold.Chemscore.Rot>
1.8976

> <Gold.Chemscore.Internal.Correction>
   9.000000E+99

> <Gold.Chemscore.Hbonds>
donor molecule, donor type, donor heavy atom, donor atom, acceptor molecule, acceptor atom, score
      L1  H     9    35       P1  7957  0.90
      L1  H    13    33       P1  7949  0.48
      P1  H 10752 10764       L1    13  0.07

> <Gold.Chemscore.Hbond.Weighted>
-6.7382

> <Gold.Chemscore.Metal.Weighted>
-0.0000

> <Gold.Chemscore.Lipo.Weighted>
-10.7250

> <Gold.Chemscore.Internal_Hbond.Weighted>
0.0000

> <Gold.Chemscore.DEClash.Weighted>
0.0553

> <Gold.Chemscore.DEInternal.Weighted>
0.6507

> <Gold.Chemscore.Rot.Weighted>
4.8579

> <Gold.Chemscore.Internal.Correction.Weighted>
   9.000000E+99

> <Gold.Protein.RotatedTorsions>
[ 6907 6896 6895 6894 ] final  -79.23 input  -60.11 | X-H torsion
[ 7974 7965 7964 7962 ] final  132.82 input  175.53 | X-H torsion
[ 8008 7997 7996 7995 ] final  -87.30 input   59.86 | X-H torsion
[ 10167 10162 10161 10158 ] final  -44.57 input  -65.29 | X-H torsion
[ 10718 10713 10712 10709 ] final -154.54 input   66.30 | X-H torsion
[ 10763 10752 10751 10750 ] final  -81.01 input  -60.55 | X-H torsion
[ 11005 11000 10999 10996 ] final  -26.05 input  -57.11 | X-H torsion

> <Gold.Protein.ActiveResidues>
 VAL166  LYS551  ARG553  GLY616  TRP617  ASP618  TYR619  PRO620  LYS621  CYS622 
 ASP623  PHE694  ASN695  SER759  ASP760  ASP761  ALA762  ILE779  LEU786  VAL792 
 PHE793  MET794  SER795  GLU796  ALA797  LYS798  CYS799  TRP800  GLU811  SER814 

> <Gold.Protein.RotatedAtoms>
  150.6954  134.4153  159.5180 H   0  0  0  0  0  0  0  0  0  0  0  0  # atno 6907 bound_to 6896
  152.1905  134.8673  160.0527 H   0  0  0  0  0  0  0  0  0  0  0  0  # atno 6908 bound_to 6896
  151.9630  133.3666  159.4079 H   0  0  0  0  0  0  0  0  0  0  0  0  # atno 6909 bound_to 6896
  144.9929  139.4388  143.5330 H   0  0  0  0  0  0  0  0  0  0  0  0  # atno 7974 bound_to 7965
  154.6617  140.0567  157.0069 H   0  0  0  0  0  0  0  0  0  0  0  0  # atno 8008 bound_to 7997
  155.1219  140.3248  155.4476 H   0  0  0  0  0  0  0  0  0  0  0  0  # atno 8009 bound_to 7997
  156.2621  140.1996  156.6341 H   0  0  0  0  0  0  0  0  0  0  0  0  # atno 8010 bound_to 7997
  140.6892  143.2923  151.3514 H   0  0  0  0  0  0  0  0  0  0  0  0  # atno 10167 bound_to 10162
  156.5007  130.8390  151.2608 H   0  0  0  0  0  0  0  0  0  0  0  0  # atno 10718 bound_to 10713
  154.5583  135.5641  153.6984 H   0  0  0  0  0  0  0  0  0  0  0  0  # atno 10763 bound_to 10752
  153.0010  135.6267  154.2280 H   0  0  0  0  0  0  0  0  0  0  0  0  # atno 10764 bound_to 10752
  154.2217  135.2869  155.2902 H   0  0  0  0  0  0  0  0  0  0  0  0  # atno 10765 bound_to 10752
  140.8993  133.7535  156.0523 H   0  0  0  0  0  0  0  0  0  0  0  0  # atno 11005 bound_to 11000
  146.3435  139.9271  142.8758 LP  0  0  0  0  0  0  0  0  0  0  0  0  # atno 17320 bound_to 7965
  145.2260  140.9954  143.4018 LP  0  0  0  0  0  0  0  0  0  0  0  0  # atno 17321 bound_to 7965
  139.6278  144.0781  152.2449 LP  0  0  0  0  0  0  0  0  0  0  0  0  # atno 17342 bound_to 10162
  140.0245  144.6127  150.7538 LP  0  0  0  0  0  0  0  0  0  0  0  0  # atno 17343 bound_to 10162
  157.7463  130.9982  150.2846 LP  0  0  0  0  0  0  0  0  0  0  0  0  # atno 17370 bound_to 10713
  156.3335  130.3804  149.7470 LP  0  0  0  0  0  0  0  0  0  0  0  0  # atno 17371 bound_to 10713
  140.8249  134.3246  157.5369 LP  0  0  0  0  0  0  0  0  0  0  0  0  # atno 17394 bound_to 11000
  139.8740  134.9330  156.3570 LP  0  0  0  0  0  0  0  0  0  0  0  0  # atno 17395 bound_to 11000

$$$$
