AV-unprocessed.smi:1685|AV-procd|sdf|6757|dock8
  -GOLD-   22720 7513D 1   1.00000     0.00000
 Structure written by MMmdl.
 40 41  0  0  0  0  0  0  0  0  1 V2000
  145.9871  143.5016  153.5952 C   0  0  0  0  0  0  0  0  0  0  0  0
  146.9388  142.3386  153.8956 C   0  0  0  0  0  0  0  0  0  0  0  0
  146.8363  141.8628  155.3103 C   0  0  0  0  0  0  0  0  0  0  0  0
  145.9915  142.3383  156.2163 N   0  0  0  0  0  0  0  0  0  0  0  0
  146.2862  141.6135  157.3555 N   0  0  0  0  0  0  0  0  0  0  0  0
  147.2521  140.7676  157.1415 N   0  0  0  0  0  0  0  0  0  0  0  0
  147.6188  140.9135  155.8436 N   0  0  0  0  0  0  0  0  0  0  0  0
  148.6868  140.1061  155.2756 C   0  0  0  0  0  0  0  0  0  0  0  0
  150.0618  140.7033  155.5811 C   0  0  0  0  0  0  0  0  0  0  0  0
  151.0279  140.4114  154.8771 O   0  0  0  0  0  0  0  0  0  0  0  0
  150.1343  141.5389  156.6290 N   0  0  0  0  0  0  0  0  0  0  0  0
  151.3459  142.1975  157.1048 C   0  0  0  0  0  0  0  0  0  0  0  0
  151.6150  141.7834  158.5676 C   0  0  0  0  0  0  0  0  0  0  0  0
  152.7659  142.6024  159.1778 C   0  0  0  0  0  0  0  0  0  0  0  0
  152.4406  144.0292  159.0621 N   0  0  0  0  0  0  0  0  0  0  0  0
  152.0889  144.8392  160.0896 C   0  0  0  0  0  0  0  0  0  0  0  0
  152.0847  144.2810  161.5147 C   0  0  0  0  0  0  0  0  0  0  0  0
  151.7639  146.0156  159.9283 O   0  0  0  0  0  0  0  0  0  0  0  0
  152.3869  144.4572  157.6595 C   0  0  0  0  0  0  0  0  0  0  0  0
  151.2208  143.7321  156.9634 C   0  0  0  0  0  0  0  0  0  0  0  0
  146.0805  143.8220  152.5576 H   0  0  0  0  0  0  0  0  0  0  0  0
  146.2041  144.3609  154.2303 H   0  0  0  0  0  0  0  0  0  0  0  0
  144.9487  143.2141  153.7633 H   0  0  0  0  0  0  0  0  0  0  0  0
  146.7171  141.5022  153.2319 H   0  0  0  0  0  0  0  0  0  0  0  0
  147.9667  142.6324  153.6827 H   0  0  0  0  0  0  0  0  0  0  0  0
  148.6166  139.0943  155.6762 H   0  0  0  0  0  0  0  0  0  0  0  0
  148.5508  140.0316  154.1956 H   0  0  0  0  0  0  0  0  0  0  0  0
  149.2861  141.7207  157.1465 H   0  0  0  0  0  0  0  0  0  0  0  0
  152.1963  141.8644  156.5068 H   0  0  0  0  0  0  0  0  0  0  0  0
  150.7154  141.9322  159.1673 H   0  0  0  0  0  0  0  0  0  0  0  0
  151.8473  140.7190  158.6183 H   0  0  0  0  0  0  0  0  0  0  0  0
  152.9518  142.2780  160.2006 H   0  0  0  0  0  0  0  0  0  0  0  0
  153.6920  142.4011  158.6377 H   0  0  0  0  0  0  0  0  0  0  0  0
  151.4124  143.4261  161.5942 H   0  0  0  0  0  0  0  0  0  0  0  0
  151.7446  145.0376  162.2228 H   0  0  0  0  0  0  0  0  0  0  0  0
  153.0875  143.9735  161.8118 H   0  0  0  0  0  0  0  0  0  0  0  0
  152.2707  145.5363  157.5510 H   0  0  0  0  0  0  0  0  0  0  0  0
  153.3291  144.2103  157.1682 H   0  0  0  0  0  0  0  0  0  0  0  0
  151.1870  144.0121  155.9100 H   0  0  0  0  0  0  0  0  0  0  0  0
  150.2802  144.0685  157.4024 H   0  0  0  0  0  0  0  0  0  0  0  0
  1  2  1  0  0  0  0
  1 21  1  0  0  0  0
  1 22  1  0  0  0  0
  1 23  1  0  0  0  0
  2  3  1  0  0  0  0
  2 24  1  0  0  0  0
  2 25  1  0  0  0  0
  3  7  1  0  0  0  0
  3  4  2  0  0  0  0
  4  5  1  0  0  0  0
  5  6  2  0  0  0  0
  6  7  1  0  0  0  0
  7  8  1  0  0  0  0
  8  9  1  0  0  0  0
  8 26  1  0  0  0  0
  8 27  1  0  0  0  0
  9 10  2  0  0  0  0
  9 11  1  0  0  0  0
 11 12  1  0  0  0  0
 11 28  1  0  0  0  0
 12 20  1  0  0  0  0
 12 13  1  0  0  0  0
 12 29  1  0  0  0  0
 13 14  1  0  0  0  0
 13 30  1  0  0  0  0
 13 31  1  0  0  0  0
 14 15  1  0  0  0  0
 14 32  1  0  0  0  0
 14 33  1  0  0  0  0
 15 16  1  0  0  0  0
 15 19  1  0  0  0  0
 16 17  1  0  0  0  0
 16 18  2  0  0  0  0
 17 34  1  0  0  0  0
 17 35  1  0  0  0  0
 17 36  1  0  0  0  0
 19 20  1  0  0  0  0
 19 37  1  0  0  0  0
 19 38  1  0  0  0  0
 20 39  1  0  0  0  0
 20 40  1  0  0  0  0
M  END
> <s_m_source_file>
AV-unprocessed.smi

> <i_m_source_file_index>
1685

> <i_lp_mmshare_version>
43012

> <i_f3d_flags>
0

> <s_epik_input>
W0NIM11bQ0gyXWMxbm5ubjFbQ0gyXUMoPU8pW05IXVtDSF0yW0NIMl1bQ0gyXU4oQyg9TylbQ0gzXSlbQ0gyXVtDSDJdMg==

> <s_epik_cmdline>
J2VwaWtfcHl0aG9uJywgJy1waCcsICc3LjAnLCAnLXRuJywgJzgnLCAnLW1hJywgJzIwMCcsICctbWV0YWxfYmluZGluZycsICctaW1hZScsICc8aW5maWxlLm1hZT4nLCAnLW9tYWUnLCAnPG91dGZpbGUubWFlPic=

> <r_lp_tautomer_probability>
1

> <r_epik_Ionization_Penalty>
1.8486e-06

> <r_epik_Ionization_Penalty_Charging>
0

> <r_epik_Ionization_Penalty_Neutral>
1.8486e-06

> <r_epik_State_Penalty>
-0

> <r_epik_Charging_Adjusted_Penalty>
0

> <i_epik_Tot_Q>
0

> <i_epik_Tot_abs_Q>
0

> <r_epik_Metal_State_Penalty>
-0

> <b_epik_Metal_Only>
0

> <s_lp_Force_Field>
OPLS_2005

> <r_lp_Energy>
22.135

> <b_lp_Chiralities_Consistent>
1

> <s_lp_Variant>
AV-unprocessed.smi:1685-1

> <Gold.Version>
5.8.1

> <Gold.Id.Protein>
6NUR|6NUR_protein|mol2

> <Gold.PLP.Fitness>
42.3622

> <Gold.PLP.PLP>
-40.6629

> <Gold.PLP.part.hbond>
-1.4827

> <Gold.PLP.part.metal>
0.0000

> <Gold.PLP.part.buried>
-4.3653

> <Gold.PLP.part.nonpolar>
-34.5074

> <Gold.PLP.part.repulsive>
0.4565

> <Gold.PLP.ligand.clash>
0.0000

> <Gold.PLP.ligand.torsion>
0.6622

> <Gold.PLP.Chemscore.Hbond>
1.0000

> <Gold.PLP.Chemscore.CHOScore>
0.0000

> <Gold.PLP.Chemscore.Metal>
0.0000

> <Gold.Chemscore.Hbonds>
donor molecule, donor type, donor heavy atom, donor atom, acceptor molecule, acceptor atom, score
      P1  H  7989  7998       L1    10  1.00

> <Gold.PLP.Chemscore.Internal.Correction>
0.0237

> <Gold.Rescore>
     Score         DG    S(hbond)    S(metal)    S(lipo)     H(rot)  DE(clash)    DE(int)     intcor
     12.82     -13.55       0.98        0.00      81.44       1.85       0.04       0.70       ----

> <Gold.Chemscore.Fitness>
12.8176

> <Gold.Chemscore.DG>
-13.5545

> <Gold.Chemscore.ZeroCoef>
-5.4800

> <Gold.Chemscore.Hbond>
0.9807

> <Gold.Chemscore.Metal>
0.0000

> <Gold.Chemscore.Lipo>
81.4428

> <Gold.Chemscore.Internal_Hbond>
0.0000

> <Gold.Chemscore.DEClash>
0.0393

> <Gold.Chemscore.DEInternal>
0.6977

> <Gold.Chemscore.Rot>
1.8476

> <Gold.Chemscore.Internal.Correction>
   9.000000E+99

> <Gold.Chemscore.Hbonds>
donor molecule, donor type, donor heavy atom, donor atom, acceptor molecule, acceptor atom, score
      P1  H  7989  7998       L1    10  0.95

> <Gold.Chemscore.Hbond.Weighted>
-3.2755

> <Gold.Chemscore.Metal.Weighted>
-0.0000

> <Gold.Chemscore.Lipo.Weighted>
-9.5288

> <Gold.Chemscore.Internal_Hbond.Weighted>
0.0000

> <Gold.Chemscore.DEClash.Weighted>
0.0393

> <Gold.Chemscore.DEInternal.Weighted>
0.6977

> <Gold.Chemscore.Rot.Weighted>
4.7298

> <Gold.Chemscore.Internal.Correction.Weighted>
   9.000000E+99

> <Gold.Protein.RotatedTorsions>
[ 6907 6896 6895 6894 ] final -115.57 input  -60.11 | X-H torsion
[ 7974 7965 7964 7962 ] final  170.24 input  175.53 | X-H torsion
[ 8008 7997 7996 7995 ] final  -51.27 input   59.86 | X-H torsion
[ 10167 10162 10161 10158 ] final  160.24 input  -65.29 | X-H torsion
[ 10718 10713 10712 10709 ] final  104.14 input   66.30 | X-H torsion
[ 10763 10752 10751 10750 ] final -112.30 input  -60.55 | X-H torsion
[ 11005 11000 10999 10996 ] final  -78.58 input  -57.11 | X-H torsion

> <Gold.Protein.ActiveResidues>
 VAL166  LYS551  ARG553  GLY616  TRP617  ASP618  TYR619  PRO620  LYS621  CYS622 
 ASP623  PHE694  ASN695  SER759  ASP760  ASP761  ALA762  ILE779  LEU786  VAL792 
 PHE793  MET794  SER795  GLU796  ALA797  LYS798  CYS799  TRP800  GLU811  SER814 

> <Gold.Protein.RotatedAtoms>
  150.7988  133.8640  159.3239 H   0  0  0  0  0  0  0  0  0  0  0  0  # atno 6907 bound_to 6896
  151.6457  135.1006  160.0160 H   0  0  0  0  0  0  0  0  0  0  0  0  # atno 6908 bound_to 6896
  152.4073  133.6869  159.6402 H   0  0  0  0  0  0  0  0  0  0  0  0  # atno 6909 bound_to 6896
  144.7330  139.9172  143.6418 H   0  0  0  0  0  0  0  0  0  0  0  0  # atno 7974 bound_to 7965
  154.4079  140.1252  156.4802 H   0  0  0  0  0  0  0  0  0  0  0  0  # atno 8008 bound_to 7997
  155.7093  140.3494  155.4947 H   0  0  0  0  0  0  0  0  0  0  0  0  # atno 8009 bound_to 7997
  155.9315  140.1070  157.1118 H   0  0  0  0  0  0  0  0  0  0  0  0  # atno 8010 bound_to 7997
  139.4838  144.4653  151.8649 H   0  0  0  0  0  0  0  0  0  0  0  0  # atno 10167 bound_to 10162
  157.6750  131.0796  150.5662 H   0  0  0  0  0  0  0  0  0  0  0  0  # atno 10718 bound_to 10713
  154.8343  135.4496  154.1172 H   0  0  0  0  0  0  0  0  0  0  0  0  # atno 10763 bound_to 10752
  153.2418  135.6917  153.7781 H   0  0  0  0  0  0  0  0  0  0  0  0  # atno 10764 bound_to 10752
  153.7126  135.3354  155.3225 H   0  0  0  0  0  0  0  0  0  0  0  0  # atno 10765 bound_to 10752
  141.1665  133.7069  156.7993 H   0  0  0  0  0  0  0  0  0  0  0  0  # atno 11005 bound_to 11000
  146.0956  139.3949  143.0378 LP  0  0  0  0  0  0  0  0  0  0  0  0  # atno 17320 bound_to 7965
  145.7650  140.9920  143.1180 LP  0  0  0  0  0  0  0  0  0  0  0  0  # atno 17321 bound_to 7965
  140.4118  144.2359  150.5888 LP  0  0  0  0  0  0  0  0  0  0  0  0  # atno 17342 bound_to 10162
  140.4959  143.2333  151.8751 LP  0  0  0  0  0  0  0  0  0  0  0  0  # atno 17343 bound_to 10162
  156.5964  130.4343  149.5915 LP  0  0  0  0  0  0  0  0  0  0  0  0  # atno 17370 bound_to 10713
  156.2542  130.6925  151.1672 LP  0  0  0  0  0  0  0  0  0  0  0  0  # atno 17371 bound_to 10713
  140.2268  134.8716  157.3435 LP  0  0  0  0  0  0  0  0  0  0  0  0  # atno 17394 bound_to 11000
  140.1932  134.4346  155.7704 LP  0  0  0  0  0  0  0  0  0  0  0  0  # atno 17395 bound_to 11000

$$$$
