AV-unprocessed.smi:3112|AV-procd|sdf|11843|dock1
  -GOLD-   2272017223D 1   1.00000     0.00000
 Structure written by MMmdl.
 37 37  0  0  0  0  0  0  0  0  2 V2000
  147.0731  140.5104  152.9737 C   0  0  0  0  0  0  0  0  0  0  0  0
  147.2960  139.0131  152.7200 C   0  0  0  0  0  0  0  0  0  0  0  0
  146.0967  138.3196  152.0486 C   0  0  1  0  0  0  0  0  0  0  0  0
  146.4552  137.9638  150.7273 O   0  0  0  0  0  0  0  0  0  0  0  0
  145.6798  137.0420  152.7955 C   0  0  0  0  0  0  0  0  0  0  0  0
  146.3764  135.8556  152.2552 N   0  3  0  0  0  0  0  0  0  0  0  0
  146.3783  134.6704  153.1417 C   0  0  1  0  0  0  0  0  0  0  0  0
  145.0092  134.5767  153.8400 C   0  0  0  0  0  0  0  0  0  0  0  0
  146.7419  133.3925  152.3386 C   0  0  1  0  0  0  0  0  0  0  0  0
  146.9498  132.1550  153.2308 C   0  0  0  0  0  0  0  0  0  0  0  0
  145.7506  133.0967  151.3116 N   0  0  0  0  0  0  0  0  0  0  0  0
  145.7551  132.0856  150.3708 C   0  0  0  0  0  0  0  0  0  0  0  0
  144.6131  132.2086  149.6329 C   0  0  0  0  0  0  0  0  0  0  0  0
  143.9621  133.3372  150.2041 C   0  0  0  0  0  0  0  0  0  0  0  0
  144.6435  133.8643  151.2085 N   0  0  0  0  0  0  0  0  0  0  0  0
  147.9364  140.9496  153.4742 H   0  0  0  0  0  0  0  0  0  0  0  0
  146.2016  140.6779  153.6073 H   0  0  0  0  0  0  0  0  0  0  0  0
  146.9213  141.0556  152.0419 H   0  0  0  0  0  0  0  0  0  0  0  0
  148.1940  138.8739  152.1165 H   0  0  0  0  0  0  0  0  0  0  0  0
  147.4981  138.5319  153.6776 H   0  0  0  0  0  0  0  0  0  0  0  0
  145.2546  139.0121  152.0111 H   0  0  0  0  0  0  0  0  0  0  0  0
  145.6828  138.0073  150.1834 H   0  0  0  0  0  0  0  0  0  0  0  0
  145.8798  137.1450  153.8630 H   0  0  0  0  0  0  0  0  0  0  0  0
  144.6058  136.8836  152.6880 H   0  0  0  0  0  0  0  0  0  0  0  0
  145.9279  135.6016  151.3868 H   0  0  0  0  0  0  0  0  0  0  0  0
  147.1243  134.8119  153.9259 H   0  0  0  0  0  0  0  0  0  0  0  0
  144.9846  133.7798  154.5835 H   0  0  0  0  0  0  0  0  0  0  0  0
  144.2107  134.3866  153.1222 H   0  0  0  0  0  0  0  0  0  0  0  0
  144.7727  135.5051  154.3611 H   0  0  0  0  0  0  0  0  0  0  0  0
  147.6879  133.5815  151.8269 H   0  0  0  0  0  0  0  0  0  0  0  0
  147.7890  132.2897  153.9131 H   0  0  0  0  0  0  0  0  0  0  0  0
  147.1666  131.2720  152.6287 H   0  0  0  0  0  0  0  0  0  0  0  0
  146.0643  131.9394  153.8295 H   0  0  0  0  0  0  0  0  0  0  0  0
  146.5620  131.3707  150.3049 H   0  0  0  0  0  0  0  0  0  0  0  0
  144.2912  131.5875  148.8100 H   0  0  0  0  0  0  0  0  0  0  0  0
  143.0212  133.7856  149.9215 H   0  0  0  0  0  0  0  0  0  0  0  0
  147.3343  136.1084  152.0569 H   0  0  0  0  0  0  0  0  0  0  0  0
  1  2  1  0  0  0  0
  1 16  1  0  0  0  0
  1 17  1  0  0  0  0
  1 18  1  0  0  0  0
  2  3  1  0  0  0  0
  2 19  1  0  0  0  0
  2 20  1  0  0  0  0
  3  4  1  0  0  0  0
  3  5  1  0  0  0  0
  3 21  1  0  0  0  0
  4 22  1  0  0  0  0
  5  6  1  0  0  0  0
  5 23  1  0  0  0  0
  5 24  1  0  0  0  0
  6  7  1  0  0  0  0
  6 25  1  0  0  0  0
  6 37  1  0  0  0  0
  7  8  1  0  0  0  0
  7  9  1  0  0  0  0
  7 26  1  0  0  0  0
  8 27  1  0  0  0  0
  8 28  1  0  0  0  0
  8 29  1  0  0  0  0
  9 10  1  0  0  0  0
  9 11  1  0  0  0  0
  9 30  1  0  0  0  0
 10 31  1  0  0  0  0
 10 32  1  0  0  0  0
 10 33  1  0  0  0  0
 11 15  1  0  0  0  0
 11 12  1  0  0  0  0
 12 13  2  0  0  0  0
 12 34  1  0  0  0  0
 13 14  1  0  0  0  0
 13 35  1  0  0  0  0
 14 15  2  0  0  0  0
 14 36  1  0  0  0  0
M  CHG  1   6   1
M  END
> <s_m_source_file>
AV-unprocessed.smi

> <i_m_source_file_index>
3112

> <i_lp_mmshare_version>
43012

> <i_f3d_flags>
0

> <s_epik_input>
W0NIM11bQ0gyXVtDQEhdKFtPSF0pW0NIMl1bTkhdW0NASF0oW0NIM10pW0NASF0oW0NIM10pbjFbY0hdW2NIXVtjSF1uMQ==

> <s_epik_cmdline>
J2VwaWtfcHl0aG9uJywgJy1waCcsICc3LjAnLCAnLXRuJywgJzgnLCAnLW1hJywgJzIwMCcsICctbWV0YWxfYmluZGluZycsICctaW1hZScsICc8aW5maWxlLm1hZT4nLCAnLW9tYWUnLCAnPG91dGZpbGUubWFlPic=

> <r_lp_tautomer_probability>
1

> <r_epik_Ionization_Penalty>
0.0154842

> <r_epik_Ionization_Penalty_Charging>
0.0154724

> <r_epik_Ionization_Penalty_Neutral>
1.17979e-05

> <r_epik_State_Penalty>
0.0121607

> <r_epik_Charging_Adjusted_Penalty>
0.0276331

> <i_epik_Tot_Q>
1

> <i_epik_Tot_abs_Q>
1

> <r_epik_Metal_State_Penalty>
0.0121863

> <b_epik_Metal_Only>
0

> <s_lp_Force_Field>
OPLS_2005

> <r_lp_Energy>
13.9739

> <b_lp_Chiralities_Consistent>
1

> <s_lp_Variant>
AV-unprocessed.smi:3112-8

> <Gold.Version>
5.8.1

> <Gold.Id.Protein>
6NUR|6NUR_protein|mol2

> <Gold.PLP.Fitness>
45.2970

> <Gold.PLP.PLP>
-29.7581

> <Gold.PLP.part.hbond>
-3.6658

> <Gold.PLP.part.metal>
0.0000

> <Gold.PLP.part.buried>
-1.5351

> <Gold.PLP.part.nonpolar>
-24.4636

> <Gold.PLP.part.repulsive>
0.1700

> <Gold.PLP.ligand.clash>
0.0000

> <Gold.PLP.ligand.torsion>
1.4051

> <Gold.PLP.Chemscore.Hbond>
4.0000

> <Gold.PLP.Chemscore.CHOScore>
2.0000

> <Gold.PLP.Chemscore.Metal>
0.0000

> <Gold.Chemscore.Hbonds>
donor molecule, donor type, donor heavy atom, donor atom, acceptor molecule, acceptor atom, score
      L1  H     4    22       P1 10171  1.00
      L1  H     6    37       P1  7948  2.00
      P1  H  7954  7966       L1     4  1.00
      L1  C    12    34       P1 10747  1.00
      L1  C    14    36       P1 10186  1.00

> <Gold.PLP.Chemscore.Internal.Correction>
0.3491

> <Gold.Rescore>
     Score         DG    S(hbond)    S(metal)    S(lipo)     H(rot)  DE(clash)    DE(int)     intcor
     13.55     -17.55       2.86        0.00      74.24       2.41       0.07       3.93       ----

> <Gold.Chemscore.Fitness>
13.5453

> <Gold.Chemscore.DG>
-17.5482

> <Gold.Chemscore.ZeroCoef>
-5.4800

> <Gold.Chemscore.Hbond>
2.8589

> <Gold.Chemscore.Metal>
0.0000

> <Gold.Chemscore.Lipo>
74.2410

> <Gold.Chemscore.Internal_Hbond>
0.0000

> <Gold.Chemscore.DEClash>
0.0729

> <Gold.Chemscore.DEInternal>
3.9299

> <Gold.Chemscore.Rot>
2.4089

> <Gold.Chemscore.Internal.Correction>
   9.000000E+99

> <Gold.Chemscore.Hbonds>
donor molecule, donor type, donor heavy atom, donor atom, acceptor molecule, acceptor atom, score
      L1  H     4    22       P1 10171  0.97
      L1  H     6    37       P1  7948  0.99
      P1  H  7954  7966       L1     4  0.92

> <Gold.Chemscore.Hbond.Weighted>
-9.5487

> <Gold.Chemscore.Metal.Weighted>
-0.0000

> <Gold.Chemscore.Lipo.Weighted>
-8.6862

> <Gold.Chemscore.Internal_Hbond.Weighted>
0.0000

> <Gold.Chemscore.DEClash.Weighted>
0.0729

> <Gold.Chemscore.DEInternal.Weighted>
3.9299

> <Gold.Chemscore.Rot.Weighted>
6.1667

> <Gold.Chemscore.Internal.Correction.Weighted>
   9.000000E+99

> <Gold.Protein.RotatedTorsions>
[ 6907 6896 6895 6894 ] final  -91.57 input  -60.11 | X-H torsion
[ 7974 7965 7964 7962 ] final   17.74 input  175.53 | X-H torsion
[ 8008 7997 7996 7995 ] final  108.27 input   59.86 | X-H torsion
[ 10167 10162 10161 10158 ] final  163.16 input  -65.29 | X-H torsion
[ 10718 10713 10712 10709 ] final   38.56 input   66.30 | X-H torsion
[ 10763 10752 10751 10750 ] final -174.83 input  -60.55 | X-H torsion
[ 11005 11000 10999 10996 ] final   89.13 input  -57.11 | X-H torsion

> <Gold.Protein.ActiveResidues>
 VAL166  LYS551  ARG553  GLY616  TRP617  ASP618  TYR619  PRO620  LYS621  CYS622 
 ASP623  PHE694  ASN695  SER759  ASP760  ASP761  ALA762  ILE779  LEU786  VAL792 
 PHE793  MET794  SER795  GLU796  ALA797  LYS798  CYS799  TRP800  GLU811  SER814 

> <Gold.Protein.RotatedAtoms>
  150.6894  134.2257  159.4414 H   0  0  0  0  0  0  0  0  0  0  0  0  # atno 6907 bound_to 6896
  152.0211  134.9820  160.0580 H   0  0  0  0  0  0  0  0  0  0  0  0  # atno 6908 bound_to 6896
  152.1396  133.4421  159.4797 H   0  0  0  0  0  0  0  0  0  0  0  0  # atno 6909 bound_to 6896
  146.2208  139.8559  142.8614 H   0  0  0  0  0  0  0  0  0  0  0  0  # atno 7974 bound_to 7965
  156.1890  140.3079  155.9295 H   0  0  0  0  0  0  0  0  0  0  0  0  # atno 8008 bound_to 7997
  155.3216  140.0456  157.3056 H   0  0  0  0  0  0  0  0  0  0  0  0  # atno 8009 bound_to 7997
  154.5430  140.2267  155.8619 H   0  0  0  0  0  0  0  0  0  0  0  0  # atno 8010 bound_to 7997
  139.4870  144.4365  151.9005 H   0  0  0  0  0  0  0  0  0  0  0  0  # atno 10167 bound_to 10162
  157.3603  130.7646  149.7043 H   0  0  0  0  0  0  0  0  0  0  0  0  # atno 10718 bound_to 10713
  154.5916  135.2845  155.0629 H   0  0  0  0  0  0  0  0  0  0  0  0  # atno 10763 bound_to 10752
  154.1928  135.6438  153.5068 H   0  0  0  0  0  0  0  0  0  0  0  0  # atno 10764 bound_to 10752
  153.0123  135.5450  154.6604 H   0  0  0  0  0  0  0  0  0  0  0  0  # atno 10765 bound_to 10752
  139.8881  134.8532  156.3099 H   0  0  0  0  0  0  0  0  0  0  0  0  # atno 11005 bound_to 11000
  145.2754  141.0122  143.3748 LP  0  0  0  0  0  0  0  0  0  0  0  0  # atno 17320 bound_to 7965
  144.9191  139.4434  143.6550 LP  0  0  0  0  0  0  0  0  0  0  0  0  # atno 17321 bound_to 7965
  140.3815  144.2730  150.5908 LP  0  0  0  0  0  0  0  0  0  0  0  0  # atno 17342 bound_to 10162
  140.5229  143.2261  151.8361 LP  0  0  0  0  0  0  0  0  0  0  0  0  # atno 17343 bound_to 10162
  155.9736  130.4115  150.3987 LP  0  0  0  0  0  0  0  0  0  0  0  0  # atno 17370 bound_to 10713
  157.2063  131.0450  151.2623 LP  0  0  0  0  0  0  0  0  0  0  0  0  # atno 17371 bound_to 10713
  140.9857  133.7239  156.0739 LP  0  0  0  0  0  0  0  0  0  0  0  0  # atno 17394 bound_to 11000
  140.7691  134.3853  157.5511 LP  0  0  0  0  0  0  0  0  0  0  0  0  # atno 17395 bound_to 11000

$$$$
