AV-unprocessed.smi:2271|AV-procd|sdf|9160|dock3
  -GOLD-   2272012373D 1   1.00000     0.00000
 Structure written by MMmdl.
 46 47  0  0  0  0  0  0  0  0  2 V2000
  153.4239  141.0979  160.2541 C   0  0  0  0  0  0  0  0  0  0  0  0
  152.7189  142.2921  159.6462 C   0  0  0  0  0  0  0  0  0  0  0  0
  152.8760  143.5822  160.1899 C   0  0  0  0  0  0  0  0  0  0  0  0
  152.1954  144.6481  159.5748 C   0  0  0  0  0  0  0  0  0  0  0  0
  151.3920  144.3827  158.4490 C   0  0  0  0  0  0  0  0  0  0  0  0
  151.2888  143.0587  157.9659 C   0  0  0  0  0  0  0  0  0  0  0  0
  150.4495  142.8943  156.8318 N   0  0  0  0  0  0  0  0  0  0  0  0
  150.3447  141.8232  156.0257 C   0  0  0  0  0  0  0  0  0  0  0  0
  151.0209  140.7976  156.1122 O   0  0  0  0  0  0  0  0  0  0  0  0
  149.3911  142.0027  155.0994 N   0  0  0  0  0  0  0  0  0  0  0  0
  149.0198  141.0351  154.0704 C   0  0  0  0  0  0  0  0  0  0  0  0
  147.9173  140.0609  154.5390 C   0  0  2  0  0  0  0  0  0  0  0  0
  147.4580  139.0840  153.4372 C   0  0  0  0  0  0  0  0  0  0  0  0
  146.3165  138.1756  153.9210 C   0  0  0  0  0  0  0  0  0  0  0  0
  145.1657  138.9745  154.4107 N   0  3  1  0  0  0  0  0  0  0  0  0
  143.9920  138.1286  154.7459 C   0  0  0  0  0  0  0  0  0  0  0  0
  143.5256  137.2739  153.5558 C   0  0  0  0  0  0  0  0  0  0  0  0
  142.9332  138.0983  152.5747 O   0  0  0  0  0  0  0  0  0  0  0  0
  145.5704  139.8860  155.5123 C   0  0  0  0  0  0  0  0  0  0  0  0
  146.6922  140.8345  155.0588 C   0  0  0  0  0  0  0  0  0  0  0  0
  151.9485  142.0373  158.5669 N   0  0  0  0  0  0  0  0  0  0  0  0
  153.9171  141.3632  161.1896 H   0  0  0  0  0  0  0  0  0  0  0  0
  154.1790  140.7161  159.5663 H   0  0  0  0  0  0  0  0  0  0  0  0
  152.7117  140.2984  160.4611 H   0  0  0  0  0  0  0  0  0  0  0  0
  153.5005  143.7532  161.0546 H   0  0  0  0  0  0  0  0  0  0  0  0
  152.2872  145.6533  159.9590 H   0  0  0  0  0  0  0  0  0  0  0  0
  150.8626  145.1906  157.9650 H   0  0  0  0  0  0  0  0  0  0  0  0
  149.8452  143.6751  156.6232 H   0  0  0  0  0  0  0  0  0  0  0  0
  148.8863  142.8770  155.1023 H   0  0  0  0  0  0  0  0  0  0  0  0
  148.6633  141.6020  153.2097 H   0  0  0  0  0  0  0  0  0  0  0  0
  149.8947  140.4827  153.7231 H   0  0  0  0  0  0  0  0  0  0  0  0
  148.3184  139.4728  155.3663 H   0  0  0  0  0  0  0  0  0  0  0  0
  147.1330  139.6440  152.5591 H   0  0  0  0  0  0  0  0  0  0  0  0
  148.2878  138.4561  153.1131 H   0  0  0  0  0  0  0  0  0  0  0  0
  145.9983  137.5372  153.0958 H   0  0  0  0  0  0  0  0  0  0  0  0
  146.6694  137.5160  154.7154 H   0  0  0  0  0  0  0  0  0  0  0  0
  144.2392  137.4585  155.5707 H   0  0  0  0  0  0  0  0  0  0  0  0
  143.1776  138.7607  155.1023 H   0  0  0  0  0  0  0  0  0  0  0  0
  144.3813  136.7698  153.1061 H   0  0  0  0  0  0  0  0  0  0  0  0
  142.8241  136.4963  153.8557 H   0  0  0  0  0  0  0  0  0  0  0  0
  143.4382  138.8945  152.5043 H   0  0  0  0  0  0  0  0  0  0  0  0
  144.7204  140.4800  155.8456 H   0  0  0  0  0  0  0  0  0  0  0  0
  145.8997  139.2987  156.3710 H   0  0  0  0  0  0  0  0  0  0  0  0
  146.9834  141.4775  155.8902 H   0  0  0  0  0  0  0  0  0  0  0  0
  146.3136  141.4953  154.2773 H   0  0  0  0  0  0  0  0  0  0  0  0
  144.8783  139.5551  153.6352 H   0  0  0  0  0  0  0  0  0  0  0  0
  1  2  1  0  0  0  0
  1 22  1  0  0  0  0
  1 23  1  0  0  0  0
  1 24  1  0  0  0  0
  2 21  1  0  0  0  0
  2  3  2  0  0  0  0
  3  4  1  0  0  0  0
  3 25  1  0  0  0  0
  4  5  2  0  0  0  0
  4 26  1  0  0  0  0
  5  6  1  0  0  0  0
  5 27  1  0  0  0  0
  6  7  1  0  0  0  0
  6 21  2  0  0  0  0
  7  8  1  0  0  0  0
  7 28  1  0  0  0  0
  8  9  2  0  0  0  0
  8 10  1  0  0  0  0
 10 11  1  0  0  0  0
 10 29  1  0  0  0  0
 11 12  1  0  0  0  0
 11 30  1  0  0  0  0
 11 31  1  0  0  0  0
 12 20  1  0  0  0  0
 12 13  1  0  0  0  0
 12 32  1  0  0  0  0
 13 14  1  0  0  0  0
 13 33  1  0  0  0  0
 13 34  1  0  0  0  0
 14 15  1  0  0  0  0
 14 35  1  0  0  0  0
 14 36  1  0  0  0  0
 15 16  1  0  0  0  0
 15 19  1  0  0  0  0
 15 46  1  0  0  0  0
 16 17  1  0  0  0  0
 16 37  1  0  0  0  0
 16 38  1  0  0  0  0
 17 18  1  0  0  0  0
 17 39  1  0  0  0  0
 17 40  1  0  0  0  0
 18 41  1  0  0  0  0
 19 20  1  0  0  0  0
 19 42  1  0  0  0  0
 19 43  1  0  0  0  0
 20 44  1  0  0  0  0
 20 45  1  0  0  0  0
M  CHG  1  15   1
M  END
> <s_m_source_file>
AV-unprocessed.smi

> <i_m_source_file_index>
2271

> <i_lp_mmshare_version>
43012

> <i_f3d_flags>
0

> <s_epik_input>
W0NIM11jMVtjSF1bY0hdW2NIXWMobjEpW05IXUMoPU8pW05IXVtDSDJdW0NIXTJbQ0gyXVtDSDJdTihbQ0gyXVtDSDJdMilbQ0gyXVtDSDJdW09IXQ==

> <s_epik_cmdline>
J2VwaWtfcHl0aG9uJywgJy1waCcsICc3LjAnLCAnLXRuJywgJzgnLCAnLW1hJywgJzIwMCcsICctbWV0YWxfYmluZGluZycsICctaW1hZScsICc8aW5maWxlLm1hZT4nLCAnLW9tYWUnLCAnPG91dGZpbGUubWFlPic=

> <r_epik_Ionization_Penalty>
0.00184663

> <r_epik_Ionization_Penalty_Charging>
0.00177223

> <r_epik_Ionization_Penalty_Neutral>
7.44064e-05

> <r_epik_State_Penalty>
0.00120075

> <r_epik_Charging_Adjusted_Penalty>
0.00297297

> <i_epik_Tot_Q>
1

> <i_epik_Tot_abs_Q>
1

> <r_epik_Metal_State_Penalty>
-0

> <b_epik_Metal_Only>
0

> <s_lp_Force_Field>
OPLS_2005

> <r_lp_Energy>
18.6881

> <b_lp_Chiralities_Consistent>
1

> <s_lp_Variant>
AV-unprocessed.smi:2271-1

> <Gold.Version>
5.8.1

> <Gold.Id.Protein>
6NUR|6NUR_protein|mol2

> <Gold.PLP.Fitness>
54.3146

> <Gold.PLP.PLP>
-39.9835

> <Gold.PLP.part.hbond>
-4.7169

> <Gold.PLP.part.metal>
0.0000

> <Gold.PLP.part.buried>
-4.6322

> <Gold.PLP.part.nonpolar>
-30.9620

> <Gold.PLP.part.repulsive>
0.2677

> <Gold.PLP.ligand.clash>
0.0000

> <Gold.PLP.ligand.torsion>
0.2715

> <Gold.PLP.Chemscore.Hbond>
4.9440

> <Gold.PLP.Chemscore.CHOScore>
0.0000

> <Gold.PLP.Chemscore.Metal>
0.0000

> <Gold.Chemscore.Hbonds>
donor molecule, donor type, donor heavy atom, donor atom, acceptor molecule, acceptor atom, score
      L1  H     7    28       P1  8028  1.00
      L1  H    10    29       P1  8028  0.94
      L1  H    15    46       P1 10175  2.00
      L1  H    18    41       P1 10175  1.00

> <Gold.PLP.Chemscore.Internal.Correction>
0.0422

> <Gold.Rescore>
     Score         DG    S(hbond)    S(metal)    S(lipo)     H(rot)  DE(clash)    DE(int)     intcor
     21.45     -23.17       3.91        0.00      91.85       2.39       0.15       1.57       ----

> <Gold.Chemscore.Fitness>
21.4536

> <Gold.Chemscore.DG>
-23.1739

> <Gold.Chemscore.ZeroCoef>
-5.4800

> <Gold.Chemscore.Hbond>
3.9147

> <Gold.Chemscore.Metal>
0.0000

> <Gold.Chemscore.Lipo>
91.8477

> <Gold.Chemscore.Internal_Hbond>
0.0000

> <Gold.Chemscore.DEClash>
0.1492

> <Gold.Chemscore.DEInternal>
1.5712

> <Gold.Chemscore.Rot>
2.3935

> <Gold.Chemscore.Internal.Correction>
   9.000000E+99

> <Gold.Chemscore.Hbonds>
donor molecule, donor type, donor heavy atom, donor atom, acceptor molecule, acceptor atom, score
      L1  H     7    28       P1  8028  0.99
      L1  H    10    29       P1  8028  0.91
      L1  H    15    46       P1 10175  0.99
      L1  H    18    41       P1 10175  0.93

> <Gold.Chemscore.Hbond.Weighted>
-13.0752

> <Gold.Chemscore.Metal.Weighted>
-0.0000

> <Gold.Chemscore.Lipo.Weighted>
-10.7462

> <Gold.Chemscore.Internal_Hbond.Weighted>
0.0000

> <Gold.Chemscore.DEClash.Weighted>
0.1492

> <Gold.Chemscore.DEInternal.Weighted>
1.5712

> <Gold.Chemscore.Rot.Weighted>
6.1274

> <Gold.Chemscore.Internal.Correction.Weighted>
   9.000000E+99

> <Gold.Protein.RotatedTorsions>
[ 6907 6896 6895 6894 ] final  -88.21 input  -60.11 | X-H torsion
[ 7974 7965 7964 7962 ] final  -29.61 input  175.53 | X-H torsion
[ 8008 7997 7996 7995 ] final -110.28 input   59.86 | X-H torsion
[ 10167 10162 10161 10158 ] final  -22.61 input  -65.29 | X-H torsion
[ 10718 10713 10712 10709 ] final  -49.09 input   66.30 | X-H torsion
[ 10763 10752 10751 10750 ] final  -74.52 input  -60.55 | X-H torsion
[ 11005 11000 10999 10996 ] final  -51.48 input  -57.11 | X-H torsion

> <Gold.Protein.ActiveResidues>
 VAL166  LYS551  ARG553  GLY616  TRP617  ASP618  TYR619  PRO620  LYS621  CYS622 
 ASP623  PHE694  ASN695  SER759  ASP760  ASP761  ALA762  ILE779  LEU786  VAL792 
 PHE793  MET794  SER795  GLU796  ALA797  LYS798  CYS799  TRP800  GLU811  SER814 

> <Gold.Protein.RotatedAtoms>
  150.6868  134.2776  159.4613 H   0  0  0  0  0  0  0  0  0  0  0  0  # atno 6907 bound_to 6896
  152.0693  134.9541  160.0584 H   0  0  0  0  0  0  0  0  0  0  0  0  # atno 6908 bound_to 6896
  152.0937  133.4179  159.4592 H   0  0  0  0  0  0  0  0  0  0  0  0  # atno 6909 bound_to 6896
  146.1204  140.5434  142.8738 H   0  0  0  0  0  0  0  0  0  0  0  0  # atno 7974 bound_to 7965
  154.9720  140.0397  157.2239 H   0  0  0  0  0  0  0  0  0  0  0  0  # atno 8008 bound_to 7997
  154.7792  140.2815  155.6055 H   0  0  0  0  0  0  0  0  0  0  0  0  # atno 8009 bound_to 7997
  156.2933  140.2595  156.2613 H   0  0  0  0  0  0  0  0  0  0  0  0  # atno 8010 bound_to 7997
  140.7286  143.4519  151.0504 H   0  0  0  0  0  0  0  0  0  0  0  0  # atno 10167 bound_to 10162
  156.1926  130.4153  149.9350 H   0  0  0  0  0  0  0  0  0  0  0  0  # atno 10718 bound_to 10713
  154.4742  135.5861  153.6343 H   0  0  0  0  0  0  0  0  0  0  0  0  # atno 10763 bound_to 10752
  152.9838  135.6074  154.3328 H   0  0  0  0  0  0  0  0  0  0  0  0  # atno 10764 bound_to 10752
  154.3213  135.2843  155.2497 H   0  0  0  0  0  0  0  0  0  0  0  0  # atno 10765 bound_to 10752
  141.0873  133.6640  156.3883 H   0  0  0  0  0  0  0  0  0  0  0  0  # atno 11005 bound_to 11000
  144.7591  140.5380  143.6748 LP  0  0  0  0  0  0  0  0  0  0  0  0  # atno 17320 bound_to 7965
  145.5479  139.1476  143.3411 LP  0  0  0  0  0  0  0  0  0  0  0  0  # atno 17321 bound_to 7965
  139.8196  143.7838  152.3176 LP  0  0  0  0  0  0  0  0  0  0  0  0  # atno 17342 bound_to 10162
  139.7916  144.7408  150.9947 LP  0  0  0  0  0  0  0  0  0  0  0  0  # atno 17343 bound_to 10162
  156.7085  130.8961  151.3607 LP  0  0  0  0  0  0  0  0  0  0  0  0  # atno 17370 bound_to 10713
  157.6938  130.9261  150.0588 LP  0  0  0  0  0  0  0  0  0  0  0  0  # atno 17371 bound_to 10713
  140.5334  134.6191  157.5357 LP  0  0  0  0  0  0  0  0  0  0  0  0  # atno 17394 bound_to 11000
  139.9693  134.7320  156.0074 LP  0  0  0  0  0  0  0  0  0  0  0  0  # atno 17395 bound_to 11000

$$$$
