AV-unprocessed.smi:2814|AV-procd|sdf|10839|dock6
  -GOLD-   2272015283D 1   1.00000     0.00000
 Structure written by MMmdl.
 37 38  0  0  0  0  0  0  0  0  1 V2000
  151.2499  141.8173  156.5869 C   0  0  0  0  0  0  0  0  0  0  0  0
  151.2963  140.5444  155.7678 C   0  0  0  0  0  0  0  0  0  0  0  0
  150.1333  140.0387  155.1485 C   0  0  0  0  0  0  0  0  0  0  0  0
  150.2328  138.8461  154.3919 C   0  0  0  0  0  0  0  0  0  0  0  0
  149.1359  138.2233  153.7372 N   0  0  0  0  0  0  0  0  0  0  0  0
  147.8232  138.4793  153.8707 C   0  0  0  0  0  0  0  0  0  0  0  0
  147.3366  139.3515  154.5903 O   0  0  0  0  0  0  0  0  0  0  0  0
  147.0919  137.6628  153.0984 N   0  0  0  0  0  0  0  0  0  0  0  0
  145.6340  137.6605  152.9952 C   0  0  0  0  0  0  0  0  0  0  0  0
  145.1000  136.4506  152.1952 C   0  0  0  0  0  0  0  0  0  0  0  0
  145.4111  136.6526  150.8278 O   0  0  0  0  0  0  0  0  0  0  0  0
  145.6226  135.0776  152.6437 C   0  0  0  0  0  0  0  0  0  0  0  0
  144.5885  134.0557  152.1544 C   0  0  0  0  0  0  0  0  0  0  0  0
  143.2850  134.8342  151.9215 C   0  0  0  0  0  0  0  0  0  0  0  0
  143.5778  136.2910  152.3030 C   0  0  0  0  0  0  0  0  0  0  0  0
  151.4887  138.2098  154.3175 C   0  0  0  0  0  0  0  0  0  0  0  0
  152.5883  138.7988  154.9721 C   0  0  0  0  0  0  0  0  0  0  0  0
  152.5029  139.9435  155.6813 N   0  0  0  0  0  0  0  0  0  0  0  0
  150.2408  142.2286  156.6241 H   0  0  0  0  0  0  0  0  0  0  0  0
  151.9088  142.5703  156.1537 H   0  0  0  0  0  0  0  0  0  0  0  0
  151.5752  141.6225  157.6092 H   0  0  0  0  0  0  0  0  0  0  0  0
  149.1961  140.5588  155.2727 H   0  0  0  0  0  0  0  0  0  0  0  0
  149.3835  137.5331  153.0435 H   0  0  0  0  0  0  0  0  0  0  0  0
  147.5795  136.9759  152.5419 H   0  0  0  0  0  0  0  0  0  0  0  0
  145.1927  137.6730  153.9933 H   0  0  0  0  0  0  0  0  0  0  0  0
  145.3202  138.5918  152.5222 H   0  0  0  0  0  0  0  0  0  0  0  0
  144.9237  137.4010  150.5188 H   0  0  0  0  0  0  0  0  0  0  0  0
  146.6288  134.8623  152.2816 H   0  0  0  0  0  0  0  0  0  0  0  0
  145.6569  135.0417  153.7333 H   0  0  0  0  0  0  0  0  0  0  0  0
  144.9201  133.6022  151.2197 H   0  0  0  0  0  0  0  0  0  0  0  0
  144.4570  133.2502  152.8777 H   0  0  0  0  0  0  0  0  0  0  0  0
  143.0028  134.7715  150.8698 H   0  0  0  0  0  0  0  0  0  0  0  0
  142.4574  134.4286  152.5045 H   0  0  0  0  0  0  0  0  0  0  0  0
  143.2660  136.4495  153.3365 H   0  0  0  0  0  0  0  0  0  0  0  0
  143.0262  137.0054  151.6898 H   0  0  0  0  0  0  0  0  0  0  0  0
  151.6138  137.2902  153.7645 H   0  0  0  0  0  0  0  0  0  0  0  0
  153.5631  138.3368  154.9253 H   0  0  0  0  0  0  0  0  0  0  0  0
  1  2  1  0  0  0  0
  1 19  1  0  0  0  0
  1 20  1  0  0  0  0
  1 21  1  0  0  0  0
  2 18  1  0  0  0  0
  2  3  2  0  0  0  0
  3  4  1  0  0  0  0
  3 22  1  0  0  0  0
  4  5  1  0  0  0  0
  4 16  2  0  0  0  0
  5  6  1  0  0  0  0
  5 23  1  0  0  0  0
  6  7  2  0  0  0  0
  6  8  1  0  0  0  0
  8  9  1  0  0  0  0
  8 24  1  0  0  0  0
  9 10  1  0  0  0  0
  9 25  1  0  0  0  0
  9 26  1  0  0  0  0
 10 15  1  0  0  0  0
 10 11  1  0  0  0  0
 10 12  1  0  0  0  0
 11 27  1  0  0  0  0
 12 13  1  0  0  0  0
 12 28  1  0  0  0  0
 12 29  1  0  0  0  0
 13 14  1  0  0  0  0
 13 30  1  0  0  0  0
 13 31  1  0  0  0  0
 14 15  1  0  0  0  0
 14 32  1  0  0  0  0
 14 33  1  0  0  0  0
 15 34  1  0  0  0  0
 15 35  1  0  0  0  0
 16 17  1  0  0  0  0
 16 36  1  0  0  0  0
 17 18  2  0  0  0  0
 17 37  1  0  0  0  0
M  END
> <s_m_source_file>
AV-unprocessed.smi

> <i_m_source_file_index>
2814

> <i_lp_mmshare_version>
43012

> <i_f3d_flags>
0

> <s_epik_input>
W0NIM11jMVtjSF1jKFtjSF1bY0hdbjEpW05IXUMoPU8pW05IXVtDSDJdQzIoW09IXSlbQ0gyXVtDSDJdW0NIMl1bQ0gyXTI=

> <s_epik_cmdline>
J2VwaWtfcHl0aG9uJywgJy1waCcsICc3LjAnLCAnLXRuJywgJzgnLCAnLW1hJywgJzIwMCcsICctbWV0YWxfYmluZGluZycsICctaW1hZScsICc8aW5maWxlLm1hZT4nLCAnLW9tYWUnLCAnPG91dGZpbGUubWFlPic=

> <r_epik_Ionization_Penalty>
0.405099

> <r_epik_Ionization_Penalty_Charging>
0

> <r_epik_Ionization_Penalty_Neutral>
0.405099

> <r_epik_State_Penalty>
0.404681

> <r_epik_Charging_Adjusted_Penalty>
0.404681

> <i_epik_Tot_Q>
0

> <i_epik_Tot_abs_Q>
0

> <r_epik_Metal_State_Penalty>
0.238286

> <b_epik_Metal_Only>
0

> <s_lp_Force_Field>
OPLS_2005

> <r_lp_Energy>
28.9703

> <b_lp_Chiralities_Consistent>
1

> <s_lp_Variant>
AV-unprocessed.smi:2814-1

> <Gold.Version>
5.8.1

> <Gold.Id.Protein>
6NUR|6NUR_protein|mol2

> <Gold.PLP.Fitness>
43.5119

> <Gold.PLP.PLP>
-31.8361

> <Gold.PLP.part.hbond>
-4.3319

> <Gold.PLP.part.metal>
0.0000

> <Gold.PLP.part.buried>
-5.3118

> <Gold.PLP.part.nonpolar>
-23.0965

> <Gold.PLP.part.repulsive>
0.1477

> <Gold.PLP.ligand.clash>
0.0000

> <Gold.PLP.ligand.torsion>
0.1640

> <Gold.PLP.Chemscore.Hbond>
4.0000

> <Gold.PLP.Chemscore.CHOScore>
0.0000

> <Gold.PLP.Chemscore.Metal>
0.0000

> <Gold.Chemscore.Hbonds>
donor molecule, donor type, donor heavy atom, donor atom, acceptor molecule, acceptor atom, score
      L1  H     5    23       P1  7948  1.00
      L1  H     8    24       P1  7948  1.00
      L1  H    11    27       P1 10171  1.00
      P1  H  7997  8008       L1    18  0.95

> <Gold.PLP.Chemscore.Internal.Correction>
0.0037

> <Gold.Rescore>
     Score         DG    S(hbond)    S(metal)    S(lipo)     H(rot)  DE(clash)    DE(int)     intcor
     20.74     -22.03       3.84        0.00      69.25       1.71       0.03       1.27       ----

> <Gold.Chemscore.Fitness>
20.7367

> <Gold.Chemscore.DG>
-22.0314

> <Gold.Chemscore.ZeroCoef>
-5.4800

> <Gold.Chemscore.Hbond>
3.8405

> <Gold.Chemscore.Metal>
0.0000

> <Gold.Chemscore.Lipo>
69.2542

> <Gold.Chemscore.Internal_Hbond>
0.0000

> <Gold.Chemscore.DEClash>
0.0274

> <Gold.Chemscore.DEInternal>
1.2673

> <Gold.Chemscore.Rot>
1.7103

> <Gold.Chemscore.Internal.Correction>
   9.000000E+99

> <Gold.Chemscore.Hbonds>
donor molecule, donor type, donor heavy atom, donor atom, acceptor molecule, acceptor atom, score
      L1  H     5    23       P1  7948  0.90
      L1  H     8    24       P1  7948  0.98
      L1  H    11    27       P1 10171  1.00
      P1  H  7997  8008       L1    18  0.21

> <Gold.Chemscore.Hbond.Weighted>
-12.8272

> <Gold.Chemscore.Metal.Weighted>
-0.0000

> <Gold.Chemscore.Lipo.Weighted>
-8.1027

> <Gold.Chemscore.Internal_Hbond.Weighted>
0.0000

> <Gold.Chemscore.DEClash.Weighted>
0.0274

> <Gold.Chemscore.DEInternal.Weighted>
1.2673

> <Gold.Chemscore.Rot.Weighted>
4.3785

> <Gold.Chemscore.Internal.Correction.Weighted>
   9.000000E+99

> <Gold.Protein.RotatedTorsions>
[ 6907 6896 6895 6894 ] final  -37.62 input  -60.11 | X-H torsion
[ 7974 7965 7964 7962 ] final  116.62 input  175.53 | X-H torsion
[ 8008 7997 7996 7995 ] final  -31.71 input   59.86 | X-H torsion
[ 10167 10162 10161 10158 ] final  -55.53 input  -65.29 | X-H torsion
[ 10718 10713 10712 10709 ] final   22.49 input   66.30 | X-H torsion
[ 10763 10752 10751 10750 ] final    2.00 input  -60.55 | X-H torsion
[ 11005 11000 10999 10996 ] final  -95.59 input  -57.11 | X-H torsion

> <Gold.Protein.ActiveResidues>
 VAL166  LYS551  ARG553  GLY616  TRP617  ASP618  TYR619  PRO620  LYS621  CYS622 
 ASP623  PHE694  ASN695  SER759  ASP760  ASP761  ALA762  ILE779  LEU786  VAL792 
 PHE793  MET794  SER795  GLU796  ALA797  LYS798  CYS799  TRP800  GLU811  SER814 

> <Gold.Protein.RotatedAtoms>
  151.0125  134.9408  159.8014 H   0  0  0  0  0  0  0  0  0  0  0  0  # atno 6907 bound_to 6896
  152.5306  134.3009  159.9088 H   0  0  0  0  0  0  0  0  0  0  0  0  # atno 6908 bound_to 6896
  151.3015  133.4078  159.2674 H   0  0  0  0  0  0  0  0  0  0  0  0  # atno 6909 bound_to 6896
  145.1774  139.3068  143.4436 H   0  0  0  0  0  0  0  0  0  0  0  0  # atno 7974 bound_to 7965
  154.4204  140.1757  156.1610 H   0  0  0  0  0  0  0  0  0  0  0  0  # atno 8008 bound_to 7997
  155.9838  140.3375  155.6664 H   0  0  0  0  0  0  0  0  0  0  0  0  # atno 8009 bound_to 7997
  155.6464  140.0685  157.2592 H   0  0  0  0  0  0  0  0  0  0  0  0  # atno 8010 bound_to 7997
  140.6369  143.2487  151.5093 H   0  0  0  0  0  0  0  0  0  0  0  0  # atno 10167 bound_to 10162
  157.1531  130.6683  149.6018 H   0  0  0  0  0  0  0  0  0  0  0  0  # atno 10718 bound_to 10713
  153.3010  135.6956  153.7203 H   0  0  0  0  0  0  0  0  0  0  0  0  # atno 10763 bound_to 10752
  153.6118  135.3443  155.2982 H   0  0  0  0  0  0  0  0  0  0  0  0  # atno 10764 bound_to 10752
  154.8550  135.4365  154.2121 H   0  0  0  0  0  0  0  0  0  0  0  0  # atno 10765 bound_to 10752
  141.1437  133.8037  157.0456 H   0  0  0  0  0  0  0  0  0  0  0  0  # atno 11005 bound_to 11000
  146.3459  140.1941  142.8589 LP  0  0  0  0  0  0  0  0  0  0  0  0  # atno 17320 bound_to 7965
  145.0171  140.8763  143.5189 LP  0  0  0  0  0  0  0  0  0  0  0  0  # atno 17321 bound_to 7965
  139.5579  144.2228  152.1644 LP  0  0  0  0  0  0  0  0  0  0  0  0  # atno 17342 bound_to 10162
  140.1487  144.5134  150.6700 LP  0  0  0  0  0  0  0  0  0  0  0  0  # atno 17343 bound_to 10162
  155.9767  130.4738  150.6545 LP  0  0  0  0  0  0  0  0  0  0  0  0  # atno 17370 bound_to 10713
  157.4202  131.0836  151.1138 LP  0  0  0  0  0  0  0  0  0  0  0  0  # atno 17371 bound_to 10713
  140.0664  134.9726  157.1393 LP  0  0  0  0  0  0  0  0  0  0  0  0  # atno 17394 bound_to 11000
  140.3773  134.2325  155.7173 LP  0  0  0  0  0  0  0  0  0  0  0  0  # atno 17395 bound_to 11000

$$$$
