AV-unprocessed.smi:148|AV-procd|sdf|1213|dock6
  -GOLD-   2262018393D 1   1.00000     0.00000
 Structure written by MMmdl.
 63 67  0  0  0  0  0  0  0  0  1 V2000
  146.7101  135.5038  155.7957 O   0  0  0  0  0  0  0  0  0  0  0  0
  147.8261  134.8146  156.3190 C   0  0  0  0  0  0  0  0  0  0  0  0
  148.9238  134.6333  155.2441 C   0  0  1  0  0  0  0  0  0  0  0  0
  150.3499  134.5780  155.8590 C   0  0  0  0  0  0  0  0  0  0  0  0
  150.6747  135.7008  156.7273 N   0  0  0  0  0  0  0  0  0  0  0  0
  150.2157  135.9169  158.0083 C   0  0  0  0  0  0  0  0  0  0  0  0
  150.6497  137.0056  158.5816 N   0  0  0  0  0  0  0  0  0  0  0  0
  151.4875  137.5754  157.6317 C   0  0  0  0  0  0  0  0  0  0  0  0
  152.2873  138.7524  157.5891 C   0  0  0  0  0  0  0  0  0  0  0  0
  152.3773  139.6565  158.5888 N   0  0  0  0  0  0  0  0  0  0  0  0
  153.7052  139.5510  159.1991 C   0  0  0  0  0  0  0  0  0  0  0  0
  153.7949  140.3549  160.4988 C   0  0  0  0  0  0  0  0  0  0  0  0
  153.4161  141.8108  160.2288 C   0  0  0  0  0  0  0  0  0  0  0  0
  152.0166  141.8724  159.6056 C   0  0  0  0  0  0  0  0  0  0  0  0
  151.8971  141.0270  158.3071 C   0  0  2  0  0  0  0  0  0  0  0  0
  150.4274  141.0856  157.7614 C   0  0  2  0  0  0  0  0  0  0  0  0
  150.2175  140.7849  156.2609 C   0  0  0  0  0  0  0  0  0  0  0  0
  148.9041  141.4624  155.8443 C   0  0  0  0  0  0  0  0  0  0  0  0
  148.4630  142.3110  157.0396 C   0  0  0  0  0  0  0  0  0  0  0  0
  149.7055  142.4410  157.9213 C   0  0  2  0  0  0  0  0  0  0  0  0
  150.4961  143.5098  157.4306 O   0  0  0  0  0  0  0  0  0  0  0  0
  152.9916  139.0050  156.4584 N   0  0  0  0  0  0  0  0  0  0  0  0
  152.9398  138.1458  155.4359 C   0  0  0  0  0  0  0  0  0  0  0  0
  152.2514  137.0062  155.3367 N   0  0  0  0  0  0  0  0  0  0  0  0
  151.5248  136.7621  156.4650 C   0  0  0  0  0  0  0  0  0  0  0  0
  148.6199  133.4124  154.3362 C   0  0  2  0  0  0  0  0  0  0  0  0
  147.2659  133.4559  153.6473 C   0  0  0  0  0  0  0  0  0  0  0  0
  147.0604  132.0006  153.2424 C   0  0  0  0  0  0  0  0  0  0  0  0
  147.7029  131.2292  154.2503 O   0  0  0  0  0  0  0  0  0  0  0  0
  148.5013  132.0733  155.0736 C   0  0  0  0  0  0  0  0  0  0  0  0
  146.1780  135.8034  156.5177 H   0  0  0  0  0  0  0  0  0  0  0  0
  148.2063  135.3422  157.1938 H   0  0  0  0  0  0  0  0  0  0  0  0
  147.4621  133.8496  156.6697 H   0  0  0  0  0  0  0  0  0  0  0  0
  148.8919  135.5182  154.6063 H   0  0  0  0  0  0  0  0  0  0  0  0
  150.4839  133.6584  156.4287 H   0  0  0  0  0  0  0  0  0  0  0  0
  151.0975  134.5352  155.0665 H   0  0  0  0  0  0  0  0  0  0  0  0
  149.5380  135.2426  158.5098 H   0  0  0  0  0  0  0  0  0  0  0  0
  153.9405  138.5055  159.4067 H   0  0  0  0  0  0  0  0  0  0  0  0
  154.4595  139.9122  158.4987 H   0  0  0  0  0  0  0  0  0  0  0  0
  153.1264  139.9278  161.2475 H   0  0  0  0  0  0  0  0  0  0  0  0
  154.8037  140.2965  160.9083 H   0  0  0  0  0  0  0  0  0  0  0  0
  153.4437  142.3851  161.1552 H   0  0  0  0  0  0  0  0  0  0  0  0
  154.1421  142.2659  159.5535 H   0  0  0  0  0  0  0  0  0  0  0  0
  151.2843  141.5244  160.3357 H   0  0  0  0  0  0  0  0  0  0  0  0
  151.7859  142.9196  159.4158 H   0  0  0  0  0  0  0  0  0  0  0  0
  152.5615  141.4685  157.5635 H   0  0  0  0  0  0  0  0  0  0  0  0
  149.8412  140.3554  158.3225 H   0  0  0  0  0  0  0  0  0  0  0  0
  151.0369  141.2042  155.6760 H   0  0  0  0  0  0  0  0  0  0  0  0
  150.1745  139.7176  156.0497 H   0  0  0  0  0  0  0  0  0  0  0  0
  149.0687  142.0882  154.9662 H   0  0  0  0  0  0  0  0  0  0  0  0
  148.1386  140.7304  155.5847 H   0  0  0  0  0  0  0  0  0  0  0  0
  148.0424  143.2732  156.7440 H   0  0  0  0  0  0  0  0  0  0  0  0
  147.6887  141.7758  157.5911 H   0  0  0  0  0  0  0  0  0  0  0  0
  149.4295  142.6458  158.9561 H   0  0  0  0  0  0  0  0  0  0  0  0
  149.9381  144.0974  156.9443 H   0  0  0  0  0  0  0  0  0  0  0  0
  153.5351  138.4087  154.5739 H   0  0  0  0  0  0  0  0  0  0  0  0
  149.3977  133.3110  153.5778 H   0  0  0  0  0  0  0  0  0  0  0  0
  146.4898  133.7591  154.3515 H   0  0  0  0  0  0  0  0  0  0  0  0
  147.2293  134.1315  152.7936 H   0  0  0  0  0  0  0  0  0  0  0  0
  146.0065  131.7379  153.1488 H   0  0  0  0  0  0  0  0  0  0  0  0
  147.5473  131.7985  152.2874 H   0  0  0  0  0  0  0  0  0  0  0  0
  149.4718  131.6165  155.2687 H   0  0  0  0  0  0  0  0  0  0  0  0
  147.9899  132.2004  156.0289 H   0  0  0  0  0  0  0  0  0  0  0  0
  1  2  1  0  0  0  0
  1 31  1  0  0  0  0
  2  3  1  0  0  0  0
  2 32  1  0  0  0  0
  2 33  1  0  0  0  0
  3  4  1  0  0  0  0
  3 26  1  0  0  0  0
  3 34  1  0  0  0  0
  4  5  1  0  0  0  0
  4 35  1  0  0  0  0
  4 36  1  0  0  0  0
  5 25  1  0  0  0  0
  5  6  1  0  0  0  0
  6  7  2  0  0  0  0
  6 37  1  0  0  0  0
  7  8  1  0  0  0  0
  8 25  2  0  0  0  0
  8  9  1  0  0  0  0
  9 10  1  0  0  0  0
  9 22  2  0  0  0  0
 10 15  1  0  0  0  0
 10 11  1  0  0  0  0
 11 12  1  0  0  0  0
 11 38  1  0  0  0  0
 11 39  1  0  0  0  0
 12 13  1  0  0  0  0
 12 40  1  0  0  0  0
 12 41  1  0  0  0  0
 13 14  1  0  0  0  0
 13 42  1  0  0  0  0
 13 43  1  0  0  0  0
 14 15  1  0  0  0  0
 14 44  1  0  0  0  0
 14 45  1  0  0  0  0
 15 16  1  0  0  0  0
 15 46  1  0  0  0  0
 16 20  1  0  0  0  0
 16 17  1  0  0  0  0
 16 47  1  0  0  0  0
 17 18  1  0  0  0  0
 17 48  1  0  0  0  0
 17 49  1  0  0  0  0
 18 19  1  0  0  0  0
 18 50  1  0  0  0  0
 18 51  1  0  0  0  0
 19 20  1  0  0  0  0
 19 52  1  0  0  0  0
 19 53  1  0  0  0  0
 20 21  1  0  0  0  0
 20 54  1  0  0  0  0
 21 55  1  0  0  0  0
 22 23  1  0  0  0  0
 23 24  2  0  0  0  0
 23 56  1  0  0  0  0
 24 25  1  0  0  0  0
 26 30  1  0  0  0  0
 26 27  1  0  0  0  0
 26 57  1  0  0  0  0
 27 28  1  0  0  0  0
 27 58  1  0  0  0  0
 27 59  1  0  0  0  0
 28 29  1  0  0  0  0
 28 60  1  0  0  0  0
 28 61  1  0  0  0  0
 29 30  1  0  0  0  0
 30 62  1  0  0  0  0
 30 63  1  0  0  0  0
M  END
> <s_m_source_file>
AV-unprocessed.smi

> <i_m_source_file_index>
148

> <i_lp_mmshare_version>
43012

> <i_f3d_flags>
0

> <s_epik_input>
W0NIMl0xT1tDSDJdW0NIMl1bQ0BIXTFbQ0BIXShbQ0gyXVtPSF0pW0NIMl1uKFtjSF1uMiljKGMyMyluW2NIXW5jM040W0NIMl1bQ0gyXVtDSDJdW0NIMl1bQ0BIXTRbQ0BASF01W0NIMl1bQ0gyXVtDSDJdW0NASF01W09IXQ==

> <s_epik_cmdline>
J2VwaWtfcHl0aG9uJywgJy1waCcsICc3LjAnLCAnLXRuJywgJzgnLCAnLW1hJywgJzIwMCcsICctbWV0YWxfYmluZGluZycsICctaW1hZScsICc8aW5maWxlLm1hZT4nLCAnLW9tYWUnLCAnPG91dGZpbGUubWFlPic=

> <r_lp_tautomer_probability>
1

> <r_epik_Ionization_Penalty>
0.00556303

> <r_epik_Ionization_Penalty_Charging>
0

> <r_epik_Ionization_Penalty_Neutral>
0.00556303

> <r_epik_State_Penalty>
0.00401767

> <r_epik_Charging_Adjusted_Penalty>
0.00401767

> <i_epik_Tot_Q>
0

> <i_epik_Tot_abs_Q>
0

> <r_epik_Metal_State_Penalty>
-0

> <b_epik_Metal_Only>
0

> <s_lp_Force_Field>
OPLS_2005

> <r_lp_Energy>
69.1671

> <b_lp_Chiralities_Consistent>
1

> <s_lp_Variant>
AV-unprocessed.smi:148-12

> <Gold.Version>
5.8.1

> <Gold.Id.Protein>
6NUR|6NUR_protein|mol2

> <Gold.PLP.Fitness>
45.4388

> <Gold.PLP.PLP>
-38.7193

> <Gold.PLP.part.hbond>
-3.3766

> <Gold.PLP.part.metal>
0.0000

> <Gold.PLP.part.buried>
-2.0598

> <Gold.PLP.part.nonpolar>
-34.1301

> <Gold.PLP.part.repulsive>
0.1305

> <Gold.PLP.ligand.clash>
0.0000

> <Gold.PLP.ligand.torsion>
1.0654

> <Gold.PLP.Chemscore.Hbond>
2.7200

> <Gold.PLP.Chemscore.CHOScore>
0.0000

> <Gold.PLP.Chemscore.Metal>
0.0000

> <Gold.Chemscore.Hbonds>
donor molecule, donor type, donor heavy atom, donor atom, acceptor molecule, acceptor atom, score
      L1  H    21    55       P1  8028  1.00
      P1  H  7997  8009       L1    22  1.00
      P1  H 10752 10765       L1    24  0.83

> <Gold.PLP.Chemscore.Internal.Correction>
0.6904

> <Gold.Rescore>
     Score         DG    S(hbond)    S(metal)    S(lipo)     H(rot)  DE(clash)    DE(int)     intcor
     14.33     -17.11       2.55        0.00      99.15       3.32       1.69       1.08       ----

> <Gold.Chemscore.Fitness>
14.3341

> <Gold.Chemscore.DG>
-17.1062

> <Gold.Chemscore.ZeroCoef>
-5.4800

> <Gold.Chemscore.Hbond>
2.5524

> <Gold.Chemscore.Metal>
0.0000

> <Gold.Chemscore.Lipo>
99.1544

> <Gold.Chemscore.Internal_Hbond>
0.0000

> <Gold.Chemscore.DEClash>
1.6890

> <Gold.Chemscore.DEInternal>
1.0832

> <Gold.Chemscore.Rot>
3.3203

> <Gold.Chemscore.Internal.Correction>
   9.000000E+99

> <Gold.Chemscore.Hbonds>
donor molecule, donor type, donor heavy atom, donor atom, acceptor molecule, acceptor atom, score
      L1  H    21    55       P1  8028  0.90
      P1  H  7997  8009       L1    22  0.68
      P1  H 10752 10765       L1    24  0.75

> <Gold.Chemscore.Hbond.Weighted>
-8.5252

> <Gold.Chemscore.Metal.Weighted>
-0.0000

> <Gold.Chemscore.Lipo.Weighted>
-11.6011

> <Gold.Chemscore.Internal_Hbond.Weighted>
0.0000

> <Gold.Chemscore.DEClash.Weighted>
1.6890

> <Gold.Chemscore.DEInternal.Weighted>
1.0832

> <Gold.Chemscore.Rot.Weighted>
8.5000

> <Gold.Chemscore.Internal.Correction.Weighted>
   9.000000E+99

> <Gold.Protein.RotatedTorsions>
[ 6907 6896 6895 6894 ] final  -79.24 input  -60.11 | X-H torsion
[ 7974 7965 7964 7962 ] final  -28.49 input  175.53 | X-H torsion
[ 8008 7997 7996 7995 ] final -154.82 input   59.86 | X-H torsion
[ 10167 10162 10161 10158 ] final -124.35 input  -65.29 | X-H torsion
[ 10718 10713 10712 10709 ] final -118.09 input   66.30 | X-H torsion
[ 10763 10752 10751 10750 ] final  179.42 input  -60.55 | X-H torsion
[ 11005 11000 10999 10996 ] final   40.30 input  -57.11 | X-H torsion

> <Gold.Protein.ActiveResidues>
 VAL166  LYS551  ARG553  GLY616  TRP617  ASP618  TYR619  PRO620  LYS621  CYS622 
 ASP623  PHE694  ASN695  SER759  ASP760  ASP761  ALA762  ILE779  LEU786  VAL792 
 PHE793  MET794  SER795  GLU796  ALA797  LYS798  CYS799  TRP800  GLU811  SER814 

> <Gold.Protein.RotatedAtoms>
  150.6954  134.4151  159.5179 H   0  0  0  0  0  0  0  0  0  0  0  0  # atno 6907 bound_to 6896
  152.1903  134.8675  160.0527 H   0  0  0  0  0  0  0  0  0  0  0  0  # atno 6908 bound_to 6896
  151.9633  133.3667  159.4080 H   0  0  0  0  0  0  0  0  0  0  0  0  # atno 6909 bound_to 6896
  146.1284  140.5289  142.8704 H   0  0  0  0  0  0  0  0  0  0  0  0  # atno 7974 bound_to 7965
  155.6923  140.0757  157.2443 H   0  0  0  0  0  0  0  0  0  0  0  0  # atno 8008 bound_to 7997
  154.4087  140.1662  156.2152 H   0  0  0  0  0  0  0  0  0  0  0  0  # atno 8009 bound_to 7997
  155.9441  140.3382  155.6355 H   0  0  0  0  0  0  0  0  0  0  0  0  # atno 8010 bound_to 7997
  139.9938  143.5613  152.2331 H   0  0  0  0  0  0  0  0  0  0  0  0  # atno 10167 bound_to 10162
  156.1081  130.6227  150.9247 H   0  0  0  0  0  0  0  0  0  0  0  0  # atno 10718 bound_to 10713
  154.5205  135.2793  155.1266 H   0  0  0  0  0  0  0  0  0  0  0  0  # atno 10763 bound_to 10752
  154.2826  135.6282  153.5357 H   0  0  0  0  0  0  0  0  0  0  0  0  # atno 10764 bound_to 10752
  152.9936  135.5655  154.5693 H   0  0  0  0  0  0  0  0  0  0  0  0  # atno 10765 bound_to 10752
  140.1944  134.3947  155.8129 H   0  0  0  0  0  0  0  0  0  0  0  0  # atno 11005 bound_to 11000
  144.7666  140.5544  143.6699 LP  0  0  0  0  0  0  0  0  0  0  0  0  # atno 17320 bound_to 7965
  145.5314  139.1475  143.3497 LP  0  0  0  0  0  0  0  0  0  0  0  0  # atno 17321 bound_to 7965
  139.6321  144.7645  151.2515 LP  0  0  0  0  0  0  0  0  0  0  0  0  # atno 17342 bound_to 10162
  140.7445  143.6462  150.8290 LP  0  0  0  0  0  0  0  0  0  0  0  0  # atno 17343 bound_to 10162
  157.6260  131.0925  150.8533 LP  0  0  0  0  0  0  0  0  0  0  0  0  # atno 17370 bound_to 10713
  156.8648  130.5126  149.5301 LP  0  0  0  0  0  0  0  0  0  0  0  0  # atno 17371 bound_to 10713
  141.2227  133.7062  156.8150 LP  0  0  0  0  0  0  0  0  0  0  0  0  # atno 17394 bound_to 11000
  140.2124  134.8818  157.3288 LP  0  0  0  0  0  0  0  0  0  0  0  0  # atno 17395 bound_to 11000

$$$$
