AV-unprocessed.smi:2261|AV-procd|sdf|9136|dock3
  -GOLD-   2272012343D 1   1.00000     0.00000
 Structure written by MMmdl.
 41 42  0  0  0  0  0  0  0  0  1 V2000
  152.1484  135.9934  157.1631 C   0  0  0  0  0  0  0  0  0  0  0  0
  150.6271  135.8241  157.0311 C   0  0  0  0  0  0  0  0  0  0  0  0
  149.8806  136.7934  157.9636 C   0  0  0  0  0  0  0  0  0  0  0  0
  150.1524  135.9469  155.5780 C   0  0  0  0  0  0  0  0  0  0  0  0
  149.0280  134.9336  155.4931 C   0  0  1  0  0  0  0  0  0  0  0  0
  148.8119  134.4904  154.1175 N   0  0  0  0  0  0  0  0  0  0  0  0
  148.1375  133.3899  153.7527 C   0  0  0  0  0  0  0  0  0  0  0  0
  147.6086  132.6184  154.5522 O   0  0  0  0  0  0  0  0  0  0  0  0
  148.0426  133.1181  152.2516 C   0  0  0  0  0  0  0  0  0  0  0  0
  146.6341  133.3909  151.7567 C   0  0  0  0  0  0  0  0  0  0  0  0
  145.8223  132.3476  151.2650 C   0  0  0  0  0  0  0  0  0  0  0  0
  144.5235  132.6532  150.8153 C   0  0  0  0  0  0  0  0  0  0  0  0
  144.0903  133.9928  150.8770 C   0  0  0  0  0  0  0  0  0  0  0  0
  144.8579  134.9998  151.3464 N   0  0  0  0  0  0  0  0  0  0  0  0
  146.1026  134.6983  151.7750 C   0  0  0  0  0  0  0  0  0  0  0  0
  149.5142  133.8180  156.4443 C   0  0  0  0  0  0  0  0  0  0  0  0
  148.3525  133.1111  157.1606 C   0  0  0  0  0  0  0  0  0  0  0  0
  150.4575  132.7883  155.7875 C   0  0  0  0  0  0  0  0  0  0  0  0
  150.2836  134.4992  157.4341 O   0  0  0  0  0  0  0  0  0  0  0  0
  152.4634  136.9878  156.8457 H   0  0  0  0  0  0  0  0  0  0  0  0
  152.6820  135.2642  156.5527 H   0  0  0  0  0  0  0  0  0  0  0  0
  152.4724  135.8546  158.1949 H   0  0  0  0  0  0  0  0  0  0  0  0
  150.0907  137.8314  157.7041 H   0  0  0  0  0  0  0  0  0  0  0  0
  150.1768  136.6456  159.0027 H   0  0  0  0  0  0  0  0  0  0  0  0
  148.8012  136.6501  157.9082 H   0  0  0  0  0  0  0  0  0  0  0  0
  149.8337  136.9559  155.3137 H   0  0  0  0  0  0  0  0  0  0  0  0
  150.9558  135.6696  154.8933 H   0  0  0  0  0  0  0  0  0  0  0  0
  148.1226  135.3986  155.8884 H   0  0  0  0  0  0  0  0  0  0  0  0
  149.2103  135.0639  153.3884 H   0  0  0  0  0  0  0  0  0  0  0  0
  148.7572  133.7385  151.7087 H   0  0  0  0  0  0  0  0  0  0  0  0
  148.3108  132.0801  152.0503 H   0  0  0  0  0  0  0  0  0  0  0  0
  146.1874  131.3316  151.2300 H   0  0  0  0  0  0  0  0  0  0  0  0
  143.8746  131.8802  150.4315 H   0  0  0  0  0  0  0  0  0  0  0  0
  143.1001  134.2624  150.5405 H   0  0  0  0  0  0  0  0  0  0  0  0
  146.6923  135.5257  152.1421 H   0  0  0  0  0  0  0  0  0  0  0  0
  147.7289  132.5599  156.4568 H   0  0  0  0  0  0  0  0  0  0  0  0
  147.7151  133.8264  157.6813 H   0  0  0  0  0  0  0  0  0  0  0  0
  148.7212  132.4011  157.9011 H   0  0  0  0  0  0  0  0  0  0  0  0
  149.9376  132.1848  155.0428 H   0  0  0  0  0  0  0  0  0  0  0  0
  150.8650  132.1039  156.5319 H   0  0  0  0  0  0  0  0  0  0  0  0
  151.3014  133.2719  155.2951 H   0  0  0  0  0  0  0  0  0  0  0  0
  1  2  1  0  0  0  0
  1 20  1  0  0  0  0
  1 21  1  0  0  0  0
  1 22  1  0  0  0  0
  2 19  1  0  0  0  0
  2  3  1  0  0  0  0
  2  4  1  0  0  0  0
  3 23  1  0  0  0  0
  3 24  1  0  0  0  0
  3 25  1  0  0  0  0
  4  5  1  0  0  0  0
  4 26  1  0  0  0  0
  4 27  1  0  0  0  0
  5  6  1  0  0  0  0
  5 16  1  0  0  0  0
  5 28  1  0  0  0  0
  6  7  1  0  0  0  0
  6 29  1  0  0  0  0
  7  8  2  0  0  0  0
  7  9  1  0  0  0  0
  9 10  1  0  0  0  0
  9 30  1  0  0  0  0
  9 31  1  0  0  0  0
 10 15  1  0  0  0  0
 10 11  2  0  0  0  0
 11 12  1  0  0  0  0
 11 32  1  0  0  0  0
 12 13  2  0  0  0  0
 12 33  1  0  0  0  0
 13 14  1  0  0  0  0
 13 34  1  0  0  0  0
 14 15  2  0  0  0  0
 15 35  1  0  0  0  0
 16 17  1  0  0  0  0
 16 18  1  0  0  0  0
 16 19  1  0  0  0  0
 17 36  1  0  0  0  0
 17 37  1  0  0  0  0
 17 38  1  0  0  0  0
 18 39  1  0  0  0  0
 18 40  1  0  0  0  0
 18 41  1  0  0  0  0
M  END
> <s_m_source_file>
AV-unprocessed.smi

> <i_m_source_file_index>
2261

> <i_lp_mmshare_version>
43012

> <i_f3d_flags>
0

> <s_epik_input>
W0NIM11DMShbQ0gzXSlbQ0gyXVtDQEhdKEMoTzEpKFtDSDNdKVtDSDNdKVtOSF1DKD1PKVtDSDJdYzJbY0hdW2NIXVtjSF1uW2NIXTI=

> <s_epik_cmdline>
J2VwaWtfcHl0aG9uJywgJy1waCcsICc3LjAnLCAnLXRuJywgJzgnLCAnLW1hJywgJzIwMCcsICctbWV0YWxfYmluZGluZycsICctaW1hZScsICc8aW5maWxlLm1hZT4nLCAnLW9tYWUnLCAnPG91dGZpbGUubWFlPic=

> <r_epik_Ionization_Penalty>
0.00420617

> <r_epik_Ionization_Penalty_Charging>
0

> <r_epik_Ionization_Penalty_Neutral>
0.00420617

> <r_epik_State_Penalty>
0.0030219

> <r_epik_Charging_Adjusted_Penalty>
0.0030219

> <i_epik_Tot_Q>
0

> <i_epik_Tot_abs_Q>
0

> <r_epik_Metal_State_Penalty>
-0

> <b_epik_Metal_Only>
0

> <s_lp_Force_Field>
OPLS_2005

> <r_lp_Energy>
17.0757

> <b_lp_Chiralities_Consistent>
1

> <s_lp_Variant>
AV-unprocessed.smi:2261-1

> <Gold.Version>
5.8.1

> <Gold.Id.Protein>
6NUR|6NUR_protein|mol2

> <Gold.PLP.Fitness>
36.6325

> <Gold.PLP.PLP>
-26.4557

> <Gold.PLP.part.hbond>
-2.0000

> <Gold.PLP.part.metal>
0.0000

> <Gold.PLP.part.buried>
-4.2348

> <Gold.PLP.part.nonpolar>
-20.7650

> <Gold.PLP.part.repulsive>
0.1666

> <Gold.PLP.ligand.clash>
0.0000

> <Gold.PLP.ligand.torsion>
0.3511

> <Gold.PLP.Chemscore.Hbond>
1.6220

> <Gold.PLP.Chemscore.CHOScore>
2.0000

> <Gold.PLP.Chemscore.Metal>
0.0000

> <Gold.Chemscore.Hbonds>
donor molecule, donor type, donor heavy atom, donor atom, acceptor molecule, acceptor atom, score
      L1  H     6    29       P1  7948  0.85
      P1  H  6896  6907       L1    19  0.70
      L1  C    13    34       P1 10186  1.00
      L1  C    15    35       P1  7948  1.00

> <Gold.PLP.Chemscore.Internal.Correction>
0.0129

> <Gold.Rescore>
     Score         DG    S(hbond)    S(metal)    S(lipo)     H(rot)  DE(clash)    DE(int)     intcor
     11.85     -14.74       1.53        0.00      63.42       1.28       0.16       2.72       ----

> <Gold.Chemscore.Fitness>
11.8519

> <Gold.Chemscore.DG>
-14.7375

> <Gold.Chemscore.ZeroCoef>
-5.4800

> <Gold.Chemscore.Hbond>
1.5345

> <Gold.Chemscore.Metal>
0.0000

> <Gold.Chemscore.Lipo>
63.4165

> <Gold.Chemscore.Internal_Hbond>
0.0000

> <Gold.Chemscore.DEClash>
0.1644

> <Gold.Chemscore.DEInternal>
2.7213

> <Gold.Chemscore.Rot>
1.2842

> <Gold.Chemscore.Internal.Correction>
   9.000000E+99

> <Gold.Chemscore.Hbonds>
donor molecule, donor type, donor heavy atom, donor atom, acceptor molecule, acceptor atom, score
      L1  H     6    29       P1  7948  0.14
      P1  H  6896  6907       L1    19  0.62

> <Gold.Chemscore.Hbond.Weighted>
-5.1253

> <Gold.Chemscore.Metal.Weighted>
-0.0000

> <Gold.Chemscore.Lipo.Weighted>
-7.4197

> <Gold.Chemscore.Internal_Hbond.Weighted>
0.0000

> <Gold.Chemscore.DEClash.Weighted>
0.1644

> <Gold.Chemscore.DEInternal.Weighted>
2.7213

> <Gold.Chemscore.Rot.Weighted>
3.2875

> <Gold.Chemscore.Internal.Correction.Weighted>
   9.000000E+99

> <Gold.Protein.RotatedTorsions>
[ 6907 6896 6895 6894 ] final  -99.98 input  -60.11 | X-H torsion
[ 7974 7965 7964 7962 ] final -154.09 input  175.53 | X-H torsion
[ 8008 7997 7996 7995 ] final    0.29 input   59.86 | X-H torsion
[ 10167 10162 10161 10158 ] final  -26.58 input  -65.29 | X-H torsion
[ 10718 10713 10712 10709 ] final  -66.32 input   66.30 | X-H torsion
[ 10763 10752 10751 10750 ] final   64.72 input  -60.55 | X-H torsion
[ 11005 11000 10999 10996 ] final -122.76 input  -57.11 | X-H torsion

> <Gold.Protein.ActiveResidues>
 VAL166  LYS551  ARG553  GLY616  TRP617  ASP618  TYR619  PRO620  LYS621  CYS622 
 ASP623  PHE694  ASN695  SER759  ASP760  ASP761  ALA762  ILE779  LEU786  VAL792 
 PHE793  MET794  SER795  GLU796  ALA797  LYS798  CYS799  TRP800  GLU811  SER814 

> <Gold.Protein.RotatedAtoms>
  150.7099  134.0957  159.3947 H   0  0  0  0  0  0  0  0  0  0  0  0  # atno 6907 bound_to 6896
  151.8943  135.0401  160.0510 H   0  0  0  0  0  0  0  0  0  0  0  0  # atno 6908 bound_to 6896
  152.2466  133.5144  159.5337 H   0  0  0  0  0  0  0  0  0  0  0  0  # atno 6909 bound_to 6896
  144.7707  140.4436  143.5909 H   0  0  0  0  0  0  0  0  0  0  0  0  # atno 7974 bound_to 7965
  154.6664  140.2602  155.7054 H   0  0  0  0  0  0  0  0  0  0  0  0  # atno 8008 bound_to 7997
  156.2640  140.2838  156.1078 H   0  0  0  0  0  0  0  0  0  0  0  0  # atno 8009 bound_to 7997
  155.1233  140.0377  157.2746 H   0  0  0  0  0  0  0  0  0  0  0  0  # atno 8010 bound_to 7997
  140.7282  143.4166  151.1018 H   0  0  0  0  0  0  0  0  0  0  0  0  # atno 10167 bound_to 10162
  156.0619  130.4260  150.1692 H   0  0  0  0  0  0  0  0  0  0  0  0  # atno 10718 bound_to 10713
  153.0067  135.5383  154.6554 H   0  0  0  0  0  0  0  0  0  0  0  0  # atno 10763 bound_to 10752
  154.5776  135.2847  155.0767 H   0  0  0  0  0  0  0  0  0  0  0  0  # atno 10764 bound_to 10752
  154.1909  135.6500  153.5112 H   0  0  0  0  0  0  0  0  0  0  0  0  # atno 10765 bound_to 10752
  140.9970  134.0457  157.3584 H   0  0  0  0  0  0  0  0  0  0  0  0  # atno 11005 bound_to 11000
  145.6332  139.1539  143.2957 LP  0  0  0  0  0  0  0  0  0  0  0  0  # atno 17320 bound_to 7965
  146.1851  140.6435  142.9171 LP  0  0  0  0  0  0  0  0  0  0  0  0  # atno 17321 bound_to 7965
  139.7807  143.8360  152.3137 LP  0  0  0  0  0  0  0  0  0  0  0  0  # atno 17342 bound_to 10162
  139.8310  144.7254  150.9451 LP  0  0  0  0  0  0  0  0  0  0  0  0  # atno 17343 bound_to 10162
  156.9758  130.9849  151.3448 LP  0  0  0  0  0  0  0  0  0  0  0  0  # atno 17370 bound_to 10713
  157.5634  130.8261  149.8295 LP  0  0  0  0  0  0  0  0  0  0  0  0  # atno 17371 bound_to 10713
  139.9020  135.0167  156.7312 LP  0  0  0  0  0  0  0  0  0  0  0  0  # atno 17394 bound_to 11000
  140.6949  133.9357  155.7989 LP  0  0  0  0  0  0  0  0  0  0  0  0  # atno 17395 bound_to 11000

$$$$
