AV-unprocessed.smi:1010|AV-procd|sdf|4416|dock7
  -GOLD-   22720 2363D 1   1.00000     0.00000
 Structure written by MMmdl.
 56 58  0  0  0  0  0  0  0  0  3 V2000
  148.8037  139.6207  153.4781 C   0  0  0  0  0  0  0  0  0  0  0  0
  148.9738  138.3157  154.1667 N   0  3  0  0  0  0  0  0  0  0  0  0
  147.7442  137.9781  154.9312 C   0  0  0  0  0  0  0  0  0  0  0  0
  150.2725  138.1037  154.9103 C   0  0  0  0  0  0  0  0  0  0  0  0
  150.3472  136.6047  155.3482 C   0  0  0  0  0  0  0  0  0  0  0  0
  149.6330  135.6951  154.4517 N   0  0  0  0  0  0  0  0  0  0  0  0
  149.4309  134.3854  154.6537 C   0  0  0  0  0  0  0  0  0  0  0  0
  149.8062  133.7871  155.6608 O   0  0  0  0  0  0  0  0  0  0  0  0
  148.7820  133.8281  153.6181 N   0  0  0  0  0  0  0  0  0  0  0  0
  148.3987  132.4671  153.4460 C   0  0  0  0  0  0  0  0  0  0  0  0
  149.1497  131.3858  153.9748 C   0  0  0  0  0  0  0  0  0  0  0  0
  148.6991  130.0642  153.7866 C   0  0  0  0  0  0  0  0  0  0  0  0
  147.5013  129.8424  153.0827 C   0  0  0  0  0  0  0  0  0  0  0  0
  146.8022  130.8928  152.6045 N   0  3  0  0  0  0  0  0  0  0  0  0
  147.1923  132.1823  152.7565 C   0  0  0  0  0  0  0  0  0  0  0  0
  146.3900  133.2042  152.2194 N   0  0  0  0  0  0  0  0  0  0  0  0
  146.1562  133.1287  150.7867 C   0  0  0  0  0  0  0  0  0  0  0  0
  144.9833  134.0743  150.5152 C   0  0  0  0  0  0  0  0  0  0  0  0
  144.2721  134.2196  151.8663 C   0  0  0  0  0  0  0  0  0  0  0  0
  145.0807  133.3501  152.8328 C   0  0  0  0  0  0  0  0  0  0  0  0
  151.5120  138.4471  154.0253 C   0  0  0  0  0  0  0  0  0  0  0  0
  152.8368  138.4193  154.8076 C   0  0  0  0  0  0  0  0  0  0  0  0
  152.7620  139.3386  155.8887 O   0  0  0  0  0  0  0  0  0  0  0  0
  151.7470  139.0110  156.8282 C   0  0  0  0  0  0  0  0  0  0  0  0
  150.3598  139.0295  156.1555 C   0  0  0  0  0  0  0  0  0  0  0  0
  148.9030  140.4542  154.1743 H   0  0  0  0  0  0  0  0  0  0  0  0
  147.8172  139.6883  153.0181 H   0  0  0  0  0  0  0  0  0  0  0  0
  149.5223  139.7451  152.6682 H   0  0  0  0  0  0  0  0  0  0  0  0
  147.5257  138.7324  155.6881 H   0  0  0  0  0  0  0  0  0  0  0  0
  147.8088  137.0101  155.4245 H   0  0  0  0  0  0  0  0  0  0  0  0
  146.8867  137.9303  154.2594 H   0  0  0  0  0  0  0  0  0  0  0  0
  151.3762  136.2525  155.3757 H   0  0  0  0  0  0  0  0  0  0  0  0
  149.9977  136.4708  156.3717 H   0  0  0  0  0  0  0  0  0  0  0  0
  149.2910  136.0955  153.5897 H   0  0  0  0  0  0  0  0  0  0  0  0
  148.6203  134.4265  152.8210 H   0  0  0  0  0  0  0  0  0  0  0  0
  150.0579  131.5456  154.5351 H   0  0  0  0  0  0  0  0  0  0  0  0
  149.2628  129.2320  154.1827 H   0  0  0  0  0  0  0  0  0  0  0  0
  147.0806  128.8649  152.8947 H   0  0  0  0  0  0  0  0  0  0  0  0
  147.0453  133.4211  150.2272 H   0  0  0  0  0  0  0  0  0  0  0  0
  145.8921  132.1118  150.4930 H   0  0  0  0  0  0  0  0  0  0  0  0
  145.3485  135.0464  150.1816 H   0  0  0  0  0  0  0  0  0  0  0  0
  144.3248  133.6833  149.7389 H   0  0  0  0  0  0  0  0  0  0  0  0
  144.2926  135.2623  152.1856 H   0  0  0  0  0  0  0  0  0  0  0  0
  143.2286  133.9064  151.8223 H   0  0  0  0  0  0  0  0  0  0  0  0
  144.6033  132.3764  152.9511 H   0  0  0  0  0  0  0  0  0  0  0  0
  145.1566  133.8102  153.8185 H   0  0  0  0  0  0  0  0  0  0  0  0
  151.5747  137.7886  153.1585 H   0  0  0  0  0  0  0  0  0  0  0  0
  151.4395  139.4604  153.6314 H   0  0  0  0  0  0  0  0  0  0  0  0
  153.0854  137.4206  155.1664 H   0  0  0  0  0  0  0  0  0  0  0  0
  153.6557  138.7235  154.1556 H   0  0  0  0  0  0  0  0  0  0  0  0
  151.9587  138.0451  157.2873 H   0  0  0  0  0  0  0  0  0  0  0  0
  151.7743  139.7448  157.6338 H   0  0  0  0  0  0  0  0  0  0  0  0
  150.1384  140.0571  155.8649 H   0  0  0  0  0  0  0  0  0  0  0  0
  149.6126  138.7548  156.9004 H   0  0  0  0  0  0  0  0  0  0  0  0
  149.0041  137.6399  153.4166 H   0  0  0  0  0  0  0  0  0  0  0  0
  145.9341  130.7054  152.1023 H   0  0  0  0  0  0  0  0  0  0  0  0
  1  2  1  0  0  0  0
  1 26  1  0  0  0  0
  1 27  1  0  0  0  0
  1 28  1  0  0  0  0
  2  3  1  0  0  0  0
  2  4  1  0  0  0  0
  2 55  1  0  0  0  0
  3 29  1  0  0  0  0
  3 30  1  0  0  0  0
  3 31  1  0  0  0  0
  4 25  1  0  0  0  0
  4  5  1  0  0  0  0
  4 21  1  0  0  0  0
  5  6  1  0  0  0  0
  5 32  1  0  0  0  0
  5 33  1  0  0  0  0
  6  7  1  0  0  0  0
  6 34  1  0  0  0  0
  7  8  2  0  0  0  0
  7  9  1  0  0  0  0
  9 10  1  0  0  0  0
  9 35  1  0  0  0  0
 10 15  1  0  0  0  0
 10 11  2  0  0  0  0
 11 12  1  0  0  0  0
 11 36  1  0  0  0  0
 12 13  2  0  0  0  0
 12 37  1  0  0  0  0
 13 14  1  0  0  0  0
 13 38  1  0  0  0  0
 14 15  2  0  0  0  0
 14 56  1  0  0  0  0
 15 16  1  0  0  0  0
 16 20  1  0  0  0  0
 16 17  1  0  0  0  0
 17 18  1  0  0  0  0
 17 39  1  0  0  0  0
 17 40  1  0  0  0  0
 18 19  1  0  0  0  0
 18 41  1  0  0  0  0
 18 42  1  0  0  0  0
 19 20  1  0  0  0  0
 19 43  1  0  0  0  0
 19 44  1  0  0  0  0
 20 45  1  0  0  0  0
 20 46  1  0  0  0  0
 21 22  1  0  0  0  0
 21 47  1  0  0  0  0
 21 48  1  0  0  0  0
 22 23  1  0  0  0  0
 22 49  1  0  0  0  0
 22 50  1  0  0  0  0
 23 24  1  0  0  0  0
 24 25  1  0  0  0  0
 24 51  1  0  0  0  0
 24 52  1  0  0  0  0
 25 53  1  0  0  0  0
 25 54  1  0  0  0  0
M  CHG  1   2   1
M  CHG  1  14   1
M  END
> <s_m_source_file>
AV-unprocessed.smi

> <i_m_source_file_index>
1010

> <i_lp_mmshare_version>
43012

> <i_f3d_flags>
0

> <s_epik_input>
W0NIMl0xW0NIMl1PW0NIMl1bQ0gyXUMxKE4oW0NIM10pW0NIM10pW0NIMl1bTkhdQyg9TylbTkhdYzJbY0hdW2NIXVtjSF1uYzJOM1tDSDJdW0NIMl1bQ0gyXVtDSDJdMw==

> <s_epik_cmdline>
J2VwaWtfcHl0aG9uJywgJy1waCcsICc3LjAnLCAnLXRuJywgJzgnLCAnLW1hJywgJzIwMCcsICctbWV0YWxfYmluZGluZycsICctaW1hZScsICc8aW5maWxlLm1hZT4nLCAnLW9tYWUnLCAnPG91dGZpbGUubWFlPic=

> <r_lp_tautomer_probability>
0.999994

> <r_epik_Ionization_Penalty>
1.20932

> <r_epik_Ionization_Penalty_Charging>
1.2093

> <r_epik_Ionization_Penalty_Neutral>
2.0507e-05

> <r_epik_State_Penalty>
1.27047

> <r_epik_Charging_Adjusted_Penalty>
2.47977

> <i_epik_Tot_Q>
2

> <i_epik_Tot_abs_Q>
2

> <r_epik_Metal_State_Penalty>
1.34666

> <b_epik_Metal_Only>
0

> <s_lp_Force_Field>
OPLS_2005

> <r_lp_Energy>
72.2457

> <b_lp_Chiralities_Consistent>
1

> <s_lp_Variant>
AV-unprocessed.smi:1010-2

> <Gold.Version>
5.8.1

> <Gold.Id.Protein>
6NUR|6NUR_protein|mol2

> <Gold.PLP.Fitness>
47.7129

> <Gold.PLP.PLP>
-35.4511

> <Gold.PLP.part.hbond>
-4.7274

> <Gold.PLP.part.metal>
0.0000

> <Gold.PLP.part.buried>
-0.4041

> <Gold.PLP.part.nonpolar>
-30.9560

> <Gold.PLP.part.repulsive>
0.2136

> <Gold.PLP.ligand.clash>
0.0000

> <Gold.PLP.ligand.torsion>
0.9361

> <Gold.PLP.Chemscore.Hbond>
4.6657

> <Gold.PLP.Chemscore.CHOScore>
0.0000

> <Gold.PLP.Chemscore.Metal>
0.0000

> <Gold.Chemscore.Hbonds>
donor molecule, donor type, donor heavy atom, donor atom, acceptor molecule, acceptor atom, score
      L1  H     2    55       P1  7948  1.76
      L1  H     6    34       P1  7948  1.00
      L1  H     9    35       P1  7948  0.69
      P1  H  7997  8009       L1    23  1.00

> <Gold.PLP.Chemscore.Internal.Correction>
0.1369

> <Gold.Rescore>
     Score         DG    S(hbond)    S(metal)    S(lipo)     H(rot)  DE(clash)    DE(int)     intcor
     16.46     -21.88       2.95        0.00      91.67       1.63       2.41       3.01       ----

> <Gold.Chemscore.Fitness>
16.4611

> <Gold.Chemscore.DG>
-21.8819

> <Gold.Chemscore.ZeroCoef>
-5.4800

> <Gold.Chemscore.Hbond>
2.9513

> <Gold.Chemscore.Metal>
0.0000

> <Gold.Chemscore.Lipo>
91.6727

> <Gold.Chemscore.Internal_Hbond>
0.0000

> <Gold.Chemscore.DEClash>
2.4122

> <Gold.Chemscore.DEInternal>
3.0086

> <Gold.Chemscore.Rot>
1.6332

> <Gold.Chemscore.Internal.Correction>
   9.000000E+99

> <Gold.Chemscore.Hbonds>
donor molecule, donor type, donor heavy atom, donor atom, acceptor molecule, acceptor atom, score
      L1  H     2    55       P1  7948  0.86
      L1  H     6    34       P1  7948  0.78
      L1  H     9    35       P1  7948  0.06
      P1  H  7997  8009       L1    23  0.70

> <Gold.Chemscore.Hbond.Weighted>
-9.8572

> <Gold.Chemscore.Metal.Weighted>
-0.0000

> <Gold.Chemscore.Lipo.Weighted>
-10.7257

> <Gold.Chemscore.Internal_Hbond.Weighted>
0.0000

> <Gold.Chemscore.DEClash.Weighted>
2.4122

> <Gold.Chemscore.DEInternal.Weighted>
3.0086

> <Gold.Chemscore.Rot.Weighted>
4.1810

> <Gold.Chemscore.Internal.Correction.Weighted>
   9.000000E+99

> <Gold.Protein.RotatedTorsions>
[ 6907 6896 6895 6894 ] final   43.50 input  -60.11 | X-H torsion
[ 7974 7965 7964 7962 ] final  102.70 input  175.53 | X-H torsion
[ 8008 7997 7996 7995 ] final -148.04 input   59.86 | X-H torsion
[ 10167 10162 10161 10158 ] final -170.18 input  -65.29 | X-H torsion
[ 10718 10713 10712 10709 ] final  -61.39 input   66.30 | X-H torsion
[ 10763 10752 10751 10750 ] final    8.55 input  -60.55 | X-H torsion
[ 11005 11000 10999 10996 ] final  -40.32 input  -57.11 | X-H torsion

> <Gold.Protein.ActiveResidues>
 VAL166  LYS551  ARG553  GLY616  TRP617  ASP618  TYR619  PRO620  LYS621  CYS622 
 ASP623  PHE694  ASN695  SER759  ASP760  ASP761  ALA762  ILE779  LEU786  VAL792 
 PHE793  MET794  SER795  GLU796  ALA797  LYS798  CYS799  TRP800  GLU811  SER814 

> <Gold.Protein.RotatedAtoms>
  152.2210  134.8413  160.0485 H   0  0  0  0  0  0  0  0  0  0  0  0  # atno 6907 bound_to 6896
  151.9196  133.3577  159.3900 H   0  0  0  0  0  0  0  0  0  0  0  0  # atno 6908 bound_to 6896
  150.7000  134.4573  159.5408 H   0  0  0  0  0  0  0  0  0  0  0  0  # atno 6909 bound_to 6896
  145.3556  139.2429  143.3534 H   0  0  0  0  0  0  0  0  0  0  0  0  # atno 7974 bound_to 7965
  155.5853  140.0647  157.2773 H   0  0  0  0  0  0  0  0  0  0  0  0  # atno 8008 bound_to 7997
  154.4321  140.1845  156.1065 H   0  0  0  0  0  0  0  0  0  0  0  0  # atno 8009 bound_to 7997
  156.0274  140.3310  155.7106 H   0  0  0  0  0  0  0  0  0  0  0  0  # atno 8010 bound_to 7997
  139.5877  144.1281  152.1596 H   0  0  0  0  0  0  0  0  0  0  0  0  # atno 10167 bound_to 10162
  156.0925  130.4198  150.0988 H   0  0  0  0  0  0  0  0  0  0  0  0  # atno 10718 bound_to 10713
  153.2238  135.6884  153.7969 H   0  0  0  0  0  0  0  0  0  0  0  0  # atno 10763 bound_to 10752
  153.7158  135.3275  155.3257 H   0  0  0  0  0  0  0  0  0  0  0  0  # atno 10764 bound_to 10752
  154.8282  135.4601  154.1096 H   0  0  0  0  0  0  0  0  0  0  0  0  # atno 10765 bound_to 10752
  141.0166  133.6882  156.2305 H   0  0  0  0  0  0  0  0  0  0  0  0  # atno 11005 bound_to 11000
  146.2949  140.4181  142.8725 LP  0  0  0  0  0  0  0  0  0  0  0  0  # atno 17320 bound_to 7965
  144.8684  140.7239  143.6062 LP  0  0  0  0  0  0  0  0  0  0  0  0  # atno 17321 bound_to 7965
  140.0848  144.5670  150.7096 LP  0  0  0  0  0  0  0  0  0  0  0  0  # atno 17342 bound_to 10162
  140.7146  143.2533  151.4474 LP  0  0  0  0  0  0  0  0  0  0  0  0  # atno 17343 bound_to 10162
  156.8994  130.9615  151.3578 LP  0  0  0  0  0  0  0  0  0  0  0  0  # atno 17370 bound_to 10713
  157.6077  130.8560  149.8902 LP  0  0  0  0  0  0  0  0  0  0  0  0  # atno 17371 bound_to 10713
  140.6644  134.4934  157.5585 LP  0  0  0  0  0  0  0  0  0  0  0  0  # atno 17394 bound_to 11000
  139.9121  134.8323  156.1493 LP  0  0  0  0  0  0  0  0  0  0  0  0  # atno 17395 bound_to 11000

$$$$
