AV-unprocessed.smi:3294|AV-procd|sdf|12634|dock4
  -GOLD-   2272018573D 1   1.00000     0.00000
 Structure written by MMmdl.
 38 40  0  0  0  0  0  0  0  0  2 V2000
  147.0782  139.0528  152.3186 C   0  0  0  0  0  0  0  0  0  0  0  0
  147.2360  140.0806  153.4192 C   0  0  0  0  0  0  0  0  0  0  0  0
  148.4172  140.1914  154.1837 C   0  0  0  0  0  0  0  0  0  0  0  0
  148.4984  141.1750  155.2022 C   0  0  0  0  0  0  0  0  0  0  0  0
  149.6485  141.3788  156.0121 N   0  0  0  0  0  0  0  0  0  0  0  0
  149.7317  142.0075  157.1973 C   0  0  0  0  0  0  0  0  0  0  0  0
  148.7927  142.5562  157.7733 O   0  0  0  0  0  0  0  0  0  0  0  0
  150.9867  141.9815  157.6723 N   0  0  0  0  0  0  0  0  0  0  0  0
  151.4601  142.5727  158.9231 C   0  0  0  0  0  0  0  0  0  0  0  0
  152.0336  143.9735  158.7641 C   0  0  0  0  0  0  0  0  0  0  0  0
  152.0452  144.9512  159.9149 C   0  0  0  0  0  0  0  0  0  0  0  0
  151.1352  145.1862  158.7300 C   0  0  0  0  0  0  0  0  0  0  0  0
  152.4163  141.6798  159.7001 C   0  0  0  0  0  0  0  0  0  0  0  0
  153.0788  142.1613  160.9683 C   0  0  0  0  0  0  0  0  0  0  0  0
  153.9019  141.9507  159.7171 C   0  0  0  0  0  0  0  0  0  0  0  0
  147.3958  142.0349  155.4000 C   0  0  0  0  0  0  0  0  0  0  0  0
  146.2414  141.8779  154.6067 C   0  0  0  0  0  0  0  0  0  0  0  0
  146.2024  140.9174  153.6587 N   0  3  0  0  0  0  0  0  0  0  0  0
  147.9271  138.3689  152.2945 H   0  0  0  0  0  0  0  0  0  0  0  0
  147.0091  139.5446  151.3480 H   0  0  0  0  0  0  0  0  0  0  0  0
  146.1730  138.4646  152.4724 H   0  0  0  0  0  0  0  0  0  0  0  0
  149.2440  139.5314  153.9692 H   0  0  0  0  0  0  0  0  0  0  0  0
  150.5210  141.0602  155.6168 H   0  0  0  0  0  0  0  0  0  0  0  0
  151.6851  141.5088  157.1173 H   0  0  0  0  0  0  0  0  0  0  0  0
  150.5603  142.6711  159.5320 H   0  0  0  0  0  0  0  0  0  0  0  0
  152.9061  144.0169  158.1150 H   0  0  0  0  0  0  0  0  0  0  0  0
  151.5791  144.6462  160.8495 H   0  0  0  0  0  0  0  0  0  0  0  0
  152.9167  145.5947  160.0168 H   0  0  0  0  0  0  0  0  0  0  0  0
  151.3999  145.9865  158.0422 H   0  0  0  0  0  0  0  0  0  0  0  0
  150.0683  145.0325  158.8794 H   0  0  0  0  0  0  0  0  0  0  0  0
  152.1396  140.6272  159.6848 H   0  0  0  0  0  0  0  0  0  0  0  0
  152.8935  143.1872  161.2802 H   0  0  0  0  0  0  0  0  0  0  0  0
  153.1963  141.4421  161.7762 H   0  0  0  0  0  0  0  0  0  0  0  0
  154.5683  141.0909  159.6906 H   0  0  0  0  0  0  0  0  0  0  0  0
  154.2658  142.8384  159.2037 H   0  0  0  0  0  0  0  0  0  0  0  0
  147.4280  142.8049  156.1573 H   0  0  0  0  0  0  0  0  0  0  0  0
  145.3554  142.4887  154.6997 H   0  0  0  0  0  0  0  0  0  0  0  0
  145.3574  140.8223  153.0946 H   0  0  0  0  0  0  0  0  0  0  0  0
  1  2  1  0  0  0  0
  1 19  1  0  0  0  0
  1 20  1  0  0  0  0
  1 21  1  0  0  0  0
  2 18  1  0  0  0  0
  2  3  2  0  0  0  0
  3  4  1  0  0  0  0
  3 22  1  0  0  0  0
  4  5  1  0  0  0  0
  4 16  2  0  0  0  0
  5  6  1  0  0  0  0
  5 23  1  0  0  0  0
  6  7  2  0  0  0  0
  6  8  1  0  0  0  0
  8  9  1  0  0  0  0
  8 24  1  0  0  0  0
  9 10  1  0  0  0  0
  9 13  1  0  0  0  0
  9 25  1  0  0  0  0
 10 12  1  0  0  0  0
 10 11  1  0  0  0  0
 10 26  1  0  0  0  0
 11 12  1  0  0  0  0
 11 27  1  0  0  0  0
 11 28  1  0  0  0  0
 12 29  1  0  0  0  0
 12 30  1  0  0  0  0
 13 15  1  0  0  0  0
 13 14  1  0  0  0  0
 13 31  1  0  0  0  0
 14 15  1  0  0  0  0
 14 32  1  0  0  0  0
 14 33  1  0  0  0  0
 15 34  1  0  0  0  0
 15 35  1  0  0  0  0
 16 17  1  0  0  0  0
 16 36  1  0  0  0  0
 17 18  2  0  0  0  0
 17 37  1  0  0  0  0
 18 38  1  0  0  0  0
M  CHG  1  18   1
M  END
> <s_m_source_file>
AV-unprocessed.smi

> <i_m_source_file_index>
3294

> <i_lp_mmshare_version>
43012

> <i_f3d_flags>
0

> <s_epik_input>
W0NIM11jMVtjSF1jKFtjSF1bY0hdbjEpW05IXUMoPU8pW05IXVtDSF0oW0NIXTJbQ0gyXVtDSDJdMilbQ0hdM1tDSDJdW0NIMl0z

> <s_epik_cmdline>
J2VwaWtfcHl0aG9uJywgJy1waCcsICc3LjAnLCAnLXRuJywgJzgnLCAnLW1hJywgJzIwMCcsICctbWV0YWxfYmluZGluZycsICctaW1hZScsICc8aW5maWxlLm1hZT4nLCAnLW9tYWUnLCAnPG91dGZpbGUubWFlPic=

> <r_epik_Ionization_Penalty>
0.432398

> <r_epik_Ionization_Penalty_Charging>
0.432376

> <r_epik_Ionization_Penalty_Neutral>
2.18467e-05

> <r_epik_State_Penalty>
0.433859

> <r_epik_Charging_Adjusted_Penalty>
0.866235

> <i_epik_Tot_Q>
1

> <i_epik_Tot_abs_Q>
1

> <r_epik_Metal_State_Penalty>
0.667026

> <b_epik_Metal_Only>
0

> <s_lp_Force_Field>
OPLS_2005

> <r_lp_Energy>
34.1615

> <b_lp_Chiralities_Consistent>
1

> <s_lp_Variant>
AV-unprocessed.smi:3294-2

> <Gold.Version>
5.8.1

> <Gold.Id.Protein>
6NUR|6NUR_protein|mol2

> <Gold.PLP.Fitness>
43.9518

> <Gold.PLP.PLP>
-38.8097

> <Gold.PLP.part.hbond>
-1.0000

> <Gold.PLP.part.metal>
0.0000

> <Gold.PLP.part.buried>
-2.1377

> <Gold.PLP.part.nonpolar>
-36.3833

> <Gold.PLP.part.repulsive>
1.2131

> <Gold.PLP.ligand.clash>
0.0000

> <Gold.PLP.ligand.torsion>
1.5139

> <Gold.PLP.Chemscore.Hbond>
2.0000

> <Gold.PLP.Chemscore.CHOScore>
0.0000

> <Gold.PLP.Chemscore.Metal>
0.0000

> <Gold.Chemscore.Hbonds>
donor molecule, donor type, donor heavy atom, donor atom, acceptor molecule, acceptor atom, score
      L1  H    18    38       P1 10175  2.00

> <Gold.PLP.Chemscore.Internal.Correction>
2.1699

> <Gold.Rescore>
     Score         DG    S(hbond)    S(metal)    S(lipo)     H(rot)  DE(clash)    DE(int)     intcor
     15.43     -18.37       0.98        0.00     110.94       1.31       0.06       2.88       ----

> <Gold.Chemscore.Fitness>
15.4276

> <Gold.Chemscore.DG>
-18.3716

> <Gold.Chemscore.ZeroCoef>
-5.4800

> <Gold.Chemscore.Hbond>
0.9786

> <Gold.Chemscore.Metal>
0.0000

> <Gold.Chemscore.Lipo>
110.9371

> <Gold.Chemscore.Internal_Hbond>
0.0000

> <Gold.Chemscore.DEClash>
0.0598

> <Gold.Chemscore.DEInternal>
2.8843

> <Gold.Chemscore.Rot>
1.3111

> <Gold.Chemscore.Internal.Correction>
   9.000000E+99

> <Gold.Chemscore.Hbonds>
donor molecule, donor type, donor heavy atom, donor atom, acceptor molecule, acceptor atom, score
      L1  H    18    38       P1 10175  0.60

> <Gold.Chemscore.Hbond.Weighted>
-3.2684

> <Gold.Chemscore.Metal.Weighted>
-0.0000

> <Gold.Chemscore.Lipo.Weighted>
-12.9796

> <Gold.Chemscore.Internal_Hbond.Weighted>
0.0000

> <Gold.Chemscore.DEClash.Weighted>
0.0598

> <Gold.Chemscore.DEInternal.Weighted>
2.8843

> <Gold.Chemscore.Rot.Weighted>
3.3564

> <Gold.Chemscore.Internal.Correction.Weighted>
   9.000000E+99

> <Gold.Protein.RotatedTorsions>
[ 6907 6896 6895 6894 ] final    7.58 input  -60.11 | X-H torsion
[ 7974 7965 7964 7962 ] final  -67.79 input  175.53 | X-H torsion
[ 8008 7997 7996 7995 ] final -164.04 input   59.86 | X-H torsion
[ 10167 10162 10161 10158 ] final  177.55 input  -65.29 | X-H torsion
[ 10718 10713 10712 10709 ] final   59.22 input   66.30 | X-H torsion
[ 10763 10752 10751 10750 ] final -125.05 input  -60.55 | X-H torsion
[ 11005 11000 10999 10996 ] final   71.68 input  -57.11 | X-H torsion

> <Gold.Protein.ActiveResidues>
 VAL166  LYS551  ARG553  GLY616  TRP617  ASP618  TYR619  PRO620  LYS621  CYS622 
 ASP623  PHE694  ASN695  SER759  ASP760  ASP761  ALA762  ILE779  LEU786  VAL792 
 PHE793  MET794  SER795  GLU796  ALA797  LYS798  CYS799  TRP800  GLU811  SER814 

> <Gold.Protein.RotatedAtoms>
  151.6922  135.0944  160.0235 H   0  0  0  0  0  0  0  0  0  0  0  0  # atno 6907 bound_to 6896
  152.3771  133.6492  159.6141 H   0  0  0  0  0  0  0  0  0  0  0  0  # atno 6908 bound_to 6896
  150.7718  133.9091  159.3405 H   0  0  0  0  0  0  0  0  0  0  0  0  # atno 6909 bound_to 6896
  145.7247  140.9023  143.0612 H   0  0  0  0  0  0  0  0  0  0  0  0  # atno 7974 bound_to 7965
  155.8299  140.0932  157.1799 H   0  0  0  0  0  0  0  0  0  0  0  0  # atno 8008 bound_to 7997
  154.3979  140.1421  156.3661 H   0  0  0  0  0  0  0  0  0  0  0  0  # atno 8009 bound_to 7997
  155.8177  140.3447  155.5498 H   0  0  0  0  0  0  0  0  0  0  0  0  # atno 8010 bound_to 7997
  139.5258  144.2785  152.0567 H   0  0  0  0  0  0  0  0  0  0  0  0  # atno 10167 bound_to 10162
  157.5658  130.8870  149.9186 H   0  0  0  0  0  0  0  0  0  0  0  0  # atno 10718 bound_to 10713
  154.8731  135.4043  154.3204 H   0  0  0  0  0  0  0  0  0  0  0  0  # atno 10763 bound_to 10752
  153.4034  135.7018  153.6415 H   0  0  0  0  0  0  0  0  0  0  0  0  # atno 10764 bound_to 10752
  153.5149  135.3699  155.2575 H   0  0  0  0  0  0  0  0  0  0  0  0  # atno 10765 bound_to 10752
  139.9531  134.7192  156.0817 H   0  0  0  0  0  0  0  0  0  0  0  0  # atno 11005 bound_to 11000
  144.6908  139.9250  143.7469 LP  0  0  0  0  0  0  0  0  0  0  0  0  # atno 17320 bound_to 7965
  146.0593  139.3588  143.0591 LP  0  0  0  0  0  0  0  0  0  0  0  0  # atno 17321 bound_to 7965
  140.2241  144.4436  150.6329 LP  0  0  0  0  0  0  0  0  0  0  0  0  # atno 17342 bound_to 10162
  140.6399  143.2201  151.6313 LP  0  0  0  0  0  0  0  0  0  0  0  0  # atno 17343 bound_to 10162
  156.0707  130.3685  150.0782 LP  0  0  0  0  0  0  0  0  0  0  0  0  # atno 17370 bound_to 10713
  156.8941  130.9598  151.3585 LP  0  0  0  0  0  0  0  0  0  0  0  0  # atno 17371 bound_to 10713
  141.1197  133.6616  156.3184 LP  0  0  0  0  0  0  0  0  0  0  0  0  # atno 17394 bound_to 11000
  140.5673  134.5875  157.5449 LP  0  0  0  0  0  0  0  0  0  0  0  0  # atno 17395 bound_to 11000

$$$$
