AV-unprocessed.smi:232|AV-procd|sdf|1772|dock6
  -GOLD-   2262020313D 1   1.00000     0.00000
 Structure written by MMmdl.
 52 55  0  0  0  0  0  0  0  0  1 V2000
  152.4103  138.4729  154.5739 C   0  0  0  0  0  0  0  0  0  0  0  0
  150.9692  138.9012  154.2699 C   0  0  0  0  0  0  0  0  0  0  0  0
  150.2432  139.5011  155.4930 C   0  0  1  0  0  0  0  0  0  0  0  0
  150.8333  140.8375  155.9704 C   0  0  0  0  0  0  0  0  0  0  0  0
  149.6334  141.6386  156.4899 C   0  0  0  0  0  0  0  0  0  0  0  0
  148.4386  140.6951  156.3193 C   0  0  1  0  0  0  0  0  0  0  0  0
  147.1157  141.4247  156.0354 C   0  0  0  0  0  0  0  0  0  0  0  0
  148.8351  139.7912  155.2455 N   0  0  0  0  0  0  0  0  0  0  0  0
  148.0542  138.7012  155.0554 C   0  0  0  0  0  0  0  0  0  0  0  0
  147.9551  137.7445  156.0166 N   0  0  0  0  0  0  0  0  0  0  0  0
  147.1924  136.6665  155.8090 C   0  0  0  0  0  0  0  0  0  0  0  0
  146.4643  136.3518  154.7347 N   0  0  0  0  0  0  0  0  0  0  0  0
  146.5663  137.3109  153.7697 C   0  0  0  0  0  0  0  0  0  0  0  0
  147.3321  138.5069  153.8494 C   0  0  0  0  0  0  0  0  0  0  0  0
  147.1970  139.2412  152.6782 N   0  0  0  0  0  0  0  0  0  0  0  0
  146.3980  138.5168  151.9429 C   0  0  0  0  0  0  0  0  0  0  0  0
  145.9737  137.3410  152.5196 N   0  0  0  0  0  0  0  0  0  0  0  0
  145.0959  136.3513  151.9208 C   0  0  0  0  0  0  0  0  0  0  0  0
  145.8775  135.2569  151.1669 C   0  0  1  0  0  0  0  0  0  0  0  0
  146.7262  134.5805  152.0752 O   0  0  0  0  0  0  0  0  0  0  0  0
  144.9483  134.2316  150.4907 C   0  0  2  0  0  0  0  0  0  0  0  0
  143.8504  133.6781  151.4033 C   0  0  0  0  0  0  0  0  0  0  0  0
  143.5670  132.3367  150.7687 C   0  0  0  0  0  0  0  0  0  0  0  0
  144.9683  131.8885  150.3702 C   0  0  0  0  0  0  0  0  0  0  0  0
  145.6900  133.0828  150.0807 O   0  0  0  0  0  0  0  0  0  0  0  0
  152.8740  138.0254  153.6948 H   0  0  0  0  0  0  0  0  0  0  0  0
  152.4402  137.7355  155.3764 H   0  0  0  0  0  0  0  0  0  0  0  0
  153.0253  139.3215  154.8739 H   0  0  0  0  0  0  0  0  0  0  0  0
  150.9659  139.6193  153.4489 H   0  0  0  0  0  0  0  0  0  0  0  0
  150.4273  138.0262  153.9097 H   0  0  0  0  0  0  0  0  0  0  0  0
  150.2981  138.7875  156.3177 H   0  0  0  0  0  0  0  0  0  0  0  0
  151.5919  140.6850  156.7387 H   0  0  0  0  0  0  0  0  0  0  0  0
  151.3011  141.3781  155.1464 H   0  0  0  0  0  0  0  0  0  0  0  0
  149.7569  141.9495  157.5277 H   0  0  0  0  0  0  0  0  0  0  0  0
  149.5079  142.5387  155.8866 H   0  0  0  0  0  0  0  0  0  0  0  0
  148.3323  140.1232  157.2426 H   0  0  0  0  0  0  0  0  0  0  0  0
  146.8804  142.1275  156.8350 H   0  0  0  0  0  0  0  0  0  0  0  0
  146.2839  140.7236  155.9595 H   0  0  0  0  0  0  0  0  0  0  0  0
  147.1651  141.9855  155.1014 H   0  0  0  0  0  0  0  0  0  0  0  0
  147.1619  135.9536  156.6197 H   0  0  0  0  0  0  0  0  0  0  0  0
  146.0973  138.8191  150.9501 H   0  0  0  0  0  0  0  0  0  0  0  0
  144.4745  135.9123  152.7025 H   0  0  0  0  0  0  0  0  0  0  0  0
  144.4188  136.8694  151.2407 H   0  0  0  0  0  0  0  0  0  0  0  0
  146.5060  135.7239  150.4073 H   0  0  0  0  0  0  0  0  0  0  0  0
  147.5816  134.9810  152.0419 H   0  0  0  0  0  0  0  0  0  0  0  0
  144.4891  134.6638  149.5998 H   0  0  0  0  0  0  0  0  0  0  0  0
  144.2258  133.5363  152.4179 H   0  0  0  0  0  0  0  0  0  0  0  0
  142.9718  134.3223  151.4517 H   0  0  0  0  0  0  0  0  0  0  0  0
  143.0691  131.6378  151.4413 H   0  0  0  0  0  0  0  0  0  0  0  0
  142.9443  132.4651  149.8821 H   0  0  0  0  0  0  0  0  0  0  0  0
  145.4573  131.3833  151.2042 H   0  0  0  0  0  0  0  0  0  0  0  0
  144.9621  131.2079  149.5185 H   0  0  0  0  0  0  0  0  0  0  0  0
  1  2  1  0  0  0  0
  1 26  1  0  0  0  0
  1 27  1  0  0  0  0
  1 28  1  0  0  0  0
  2  3  1  0  0  0  0
  2 29  1  0  0  0  0
  2 30  1  0  0  0  0
  3  8  1  0  0  0  0
  3  4  1  0  0  0  0
  3 31  1  0  0  0  0
  4  5  1  0  0  0  0
  4 32  1  0  0  0  0
  4 33  1  0  0  0  0
  5  6  1  0  0  0  0
  5 34  1  0  0  0  0
  5 35  1  0  0  0  0
  6  7  1  0  0  0  0
  6  8  1  0  0  0  0
  6 36  1  0  0  0  0
  7 37  1  0  0  0  0
  7 38  1  0  0  0  0
  7 39  1  0  0  0  0
  8  9  1  0  0  0  0
  9 14  1  0  0  0  0
  9 10  2  0  0  0  0
 10 11  1  0  0  0  0
 11 12  2  0  0  0  0
 11 40  1  0  0  0  0
 12 13  1  0  0  0  0
 13 17  1  0  0  0  0
 13 14  2  0  0  0  0
 14 15  1  0  0  0  0
 15 16  2  0  0  0  0
 16 17  1  0  0  0  0
 16 41  1  0  0  0  0
 17 18  1  0  0  0  0
 18 19  1  0  0  0  0
 18 42  1  0  0  0  0
 18 43  1  0  0  0  0
 19 20  1  0  0  0  0
 19 21  1  0  0  0  0
 19 44  1  0  0  0  0
 20 45  1  0  0  0  0
 21 25  1  0  0  0  0
 21 22  1  0  0  0  0
 21 46  1  0  0  0  0
 22 23  1  0  0  0  0
 22 47  1  0  0  0  0
 22 48  1  0  0  0  0
 23 24  1  0  0  0  0
 23 49  1  0  0  0  0
 23 50  1  0  0  0  0
 24 25  1  0  0  0  0
 24 51  1  0  0  0  0
 24 52  1  0  0  0  0
M  END
> <s_m_source_file>
AV-unprocessed.smi

> <i_m_source_file_index>
232

> <i_lp_mmshare_version>
43012

> <i_f3d_flags>
0

> <s_epik_input>
W0NIM11bQ0gyXVtDQEBIXTFbQ0gyXVtDSDJdW0NAQEhdKFtDSDNdKU4xYyhuW2NIXW4yKWMoYzIzKW5bY0hdbjNbQ0gyXVtDQEhdKFtPSF0pW0NAQEhdNFtDSDJdW0NIMl1bQ0gyXU80

> <s_epik_cmdline>
J2VwaWtfcHl0aG9uJywgJy1waCcsICc3LjAnLCAnLXRuJywgJzgnLCAnLW1hJywgJzIwMCcsICctbWV0YWxfYmluZGluZycsICctaW1hZScsICc8aW5maWxlLm1hZT4nLCAnLW9tYWUnLCAnPG91dGZpbGUubWFlPic=

> <r_lp_tautomer_probability>
1

> <r_epik_Ionization_Penalty>
0.00258048

> <r_epik_Ionization_Penalty_Charging>
0

> <r_epik_Ionization_Penalty_Neutral>
0.00258048

> <r_epik_State_Penalty>
0.00168551

> <r_epik_Charging_Adjusted_Penalty>
0.00168551

> <i_epik_Tot_Q>
0

> <i_epik_Tot_abs_Q>
0

> <r_epik_Metal_State_Penalty>
-0

> <b_epik_Metal_Only>
0

> <s_lp_Force_Field>
OPLS_2005

> <r_lp_Energy>
51.197

> <b_lp_Chiralities_Consistent>
1

> <s_lp_Variant>
AV-unprocessed.smi:232-6

> <Gold.Version>
5.8.1

> <Gold.Id.Protein>
6NUR|6NUR_protein|mol2

> <Gold.PLP.Fitness>
42.1173

> <Gold.PLP.PLP>
-37.3084

> <Gold.PLP.part.hbond>
-1.0000

> <Gold.PLP.part.metal>
0.0000

> <Gold.PLP.part.buried>
-5.4041

> <Gold.PLP.part.nonpolar>
-32.8620

> <Gold.PLP.part.repulsive>
2.0939

> <Gold.PLP.ligand.clash>
0.0000

> <Gold.PLP.ligand.torsion>
0.5766

> <Gold.PLP.Chemscore.Hbond>
1.0000

> <Gold.PLP.Chemscore.CHOScore>
0.9641

> <Gold.PLP.Chemscore.Metal>
0.0000

> <Gold.Chemscore.Hbonds>
donor molecule, donor type, donor heavy atom, donor atom, acceptor molecule, acceptor atom, score
      L1  H    20    45       P1  7948  1.00
      L1  C    16    41       P1 10171  1.00

> <Gold.PLP.Chemscore.Internal.Correction>
0.0698

> <Gold.Rescore>
     Score         DG    S(hbond)    S(metal)    S(lipo)     H(rot)  DE(clash)    DE(int)     intcor
     11.73     -12.44       0.96        0.00      85.05       2.43       0.19       0.52       ----

> <Gold.Chemscore.Fitness>
11.7339

> <Gold.Chemscore.DG>
-12.4396

> <Gold.Chemscore.ZeroCoef>
-5.4800

> <Gold.Chemscore.Hbond>
0.9639

> <Gold.Chemscore.Metal>
0.0000

> <Gold.Chemscore.Lipo>
85.0493

> <Gold.Chemscore.Internal_Hbond>
0.0000

> <Gold.Chemscore.DEClash>
0.1902

> <Gold.Chemscore.DEInternal>
0.5155

> <Gold.Chemscore.Rot>
2.4260

> <Gold.Chemscore.Internal.Correction>
   9.000000E+99

> <Gold.Chemscore.Hbonds>
donor molecule, donor type, donor heavy atom, donor atom, acceptor molecule, acceptor atom, score
      L1  H    20    45       P1  7948  0.88

> <Gold.Chemscore.Hbond.Weighted>
-3.2195

> <Gold.Chemscore.Metal.Weighted>
-0.0000

> <Gold.Chemscore.Lipo.Weighted>
-9.9508

> <Gold.Chemscore.Internal_Hbond.Weighted>
0.0000

> <Gold.Chemscore.DEClash.Weighted>
0.1902

> <Gold.Chemscore.DEInternal.Weighted>
0.5155

> <Gold.Chemscore.Rot.Weighted>
6.2107

> <Gold.Chemscore.Internal.Correction.Weighted>
   9.000000E+99

> <Gold.Protein.RotatedTorsions>
[ 6907 6896 6895 6894 ] final -177.75 input  -60.11 | X-H torsion
[ 7974 7965 7964 7962 ] final  -42.45 input  175.53 | X-H torsion
[ 8008 7997 7996 7995 ] final   68.51 input   59.86 | X-H torsion
[ 10167 10162 10161 10158 ] final  -46.60 input  -65.29 | X-H torsion
[ 10718 10713 10712 10709 ] final   62.26 input   66.30 | X-H torsion
[ 10763 10752 10751 10750 ] final    5.75 input  -60.55 | X-H torsion
[ 11005 11000 10999 10996 ] final  169.31 input  -57.11 | X-H torsion

> <Gold.Protein.ActiveResidues>
 VAL166  LYS551  ARG553  GLY616  TRP617  ASP618  TYR619  PRO620  LYS621  CYS622 
 ASP623  PHE694  ASN695  SER759  ASP760  ASP761  ALA762  ILE779  LEU786  VAL792 
 PHE793  MET794  SER795  GLU796  ALA797  LYS798  CYS799  TRP800  GLU811  SER814 

> <Gold.Protein.RotatedAtoms>
  151.6261  133.3335  159.3098 H   0  0  0  0  0  0  0  0  0  0  0  0  # atno 6907 bound_to 6896
  150.8081  134.7222  159.6674 H   0  0  0  0  0  0  0  0  0  0  0  0  # atno 6908 bound_to 6896
  152.4177  134.6017  160.0053 H   0  0  0  0  0  0  0  0  0  0  0  0  # atno 6909 bound_to 6896
  146.0114  140.6959  142.9222 H   0  0  0  0  0  0  0  0  0  0  0  0  # atno 7974 bound_to 7965
  155.7095  140.3494  155.4967 H   0  0  0  0  0  0  0  0  0  0  0  0  # atno 8008 bound_to 7997
  155.9368  140.1094  157.1109 H   0  0  0  0  0  0  0  0  0  0  0  0  # atno 8009 bound_to 7997
  154.4095  140.1220  156.4862 H   0  0  0  0  0  0  0  0  0  0  0  0  # atno 8010 bound_to 7997
  140.6811  143.2823  151.3806 H   0  0  0  0  0  0  0  0  0  0  0  0  # atno 10167 bound_to 10162
  157.5888  130.9040  149.9565 H   0  0  0  0  0  0  0  0  0  0  0  0  # atno 10718 bound_to 10713
  153.2557  135.6918  153.7632 H   0  0  0  0  0  0  0  0  0  0  0  0  # atno 10763 bound_to 10752
  153.6710  135.3344  155.3154 H   0  0  0  0  0  0  0  0  0  0  0  0  # atno 10764 bound_to 10752
  154.8411  135.4500  154.1529 H   0  0  0  0  0  0  0  0  0  0  0  0  # atno 10765 bound_to 10752
  140.2964  134.7631  157.3881 H   0  0  0  0  0  0  0  0  0  0  0  0  # atno 11005 bound_to 11000
  144.6954  140.3406  143.7200 LP  0  0  0  0  0  0  0  0  0  0  0  0  # atno 17320 bound_to 7965
  145.7335  139.1743  143.2416 LP  0  0  0  0  0  0  0  0  0  0  0  0  # atno 17321 bound_to 7965
  139.6134  144.1053  152.2321 LP  0  0  0  0  0  0  0  0  0  0  0  0  # atno 17342 bound_to 10162
  140.0474  144.5960  150.7363 LP  0  0  0  0  0  0  0  0  0  0  0  0  # atno 17343 bound_to 10162
  156.0940  130.3661  150.0341 LP  0  0  0  0  0  0  0  0  0  0  0  0  # atno 17370 bound_to 10713
  156.8468  130.9445  151.3628 LP  0  0  0  0  0  0  0  0  0  0  0  0  # atno 17371 bound_to 10713
  140.1148  134.5297  155.8234 LP  0  0  0  0  0  0  0  0  0  0  0  0  # atno 17394 bound_to 11000
  141.2136  133.6736  156.6757 LP  0  0  0  0  0  0  0  0  0  0  0  0  # atno 17395 bound_to 11000

$$$$
