AV-unprocessed.smi:1927|AV-procd|sdf|7797|dock3
  -GOLD-   22720 9543D 1   1.00000     0.00000
 Structure written by MMmdl.
 34 35  0  0  0  0  0  0  0  0  1 V2000
  147.7068  133.1141  152.4107 C   0  0  0  0  0  0  0  0  0  0  0  0
  146.4257  133.1986  151.5965 C   0  0  0  0  0  0  0  0  0  0  0  0
  145.8331  132.0115  151.1157 C   0  0  0  0  0  0  0  0  0  0  0  0
  144.6493  132.0921  150.3628 C   0  0  0  0  0  0  0  0  0  0  0  0
  144.1047  133.3648  150.1208 C   0  0  0  0  0  0  0  0  0  0  0  0
  144.6641  134.5043  150.5766 N   0  0  0  0  0  0  0  0  0  0  0  0
  145.8067  134.4442  151.3056 C   0  0  0  0  0  0  0  0  0  0  0  0
  146.4502  135.6036  151.8237 N   0  0  0  0  0  0  0  0  0  0  0  0
  145.8993  136.6641  152.4403 C   0  0  0  0  0  0  0  0  0  0  0  0
  144.6954  136.8271  152.6418 O   0  0  0  0  0  0  0  0  0  0  0  0
  146.8389  137.5453  152.8130 N   0  0  0  0  0  0  0  0  0  0  0  0
  146.5938  138.8068  153.5049 C   0  0  0  0  0  0  0  0  0  0  0  0
  147.8263  139.7288  153.4661 C   0  0  1  0  0  0  0  0  0  0  0  0
  147.7097  140.9975  154.2891 C   0  0  0  0  0  0  0  0  0  0  0  0
  149.1707  141.4079  154.4536 C   0  0  0  0  0  0  0  0  0  0  0  0
  149.9270  140.2005  154.4128 O   0  0  0  0  0  0  0  0  0  0  0  0
  149.0803  139.1059  154.0774 C   0  0  0  0  0  0  0  0  0  0  0  0
  148.0339  132.0808  152.5314 H   0  0  0  0  0  0  0  0  0  0  0  0
  147.5565  133.5367  153.4046 H   0  0  0  0  0  0  0  0  0  0  0  0
  148.5091  133.6635  151.9174 H   0  0  0  0  0  0  0  0  0  0  0  0
  146.2780  131.0487  151.3197 H   0  0  0  0  0  0  0  0  0  0  0  0
  144.1712  131.2021  149.9812 H   0  0  0  0  0  0  0  0  0  0  0  0
  143.1959  133.4719  149.5475 H   0  0  0  0  0  0  0  0  0  0  0  0
  147.4536  135.6211  151.7201 H   0  0  0  0  0  0  0  0  0  0  0  0
  147.8019  137.3262  152.6036 H   0  0  0  0  0  0  0  0  0  0  0  0
  145.7184  139.3150  153.0966 H   0  0  0  0  0  0  0  0  0  0  0  0
  146.3506  138.5712  154.5412 H   0  0  0  0  0  0  0  0  0  0  0  0
  148.0453  140.0010  152.4318 H   0  0  0  0  0  0  0  0  0  0  0  0
  147.1056  141.7689  153.8104 H   0  0  0  0  0  0  0  0  0  0  0  0
  147.2716  140.7788  155.2642 H   0  0  0  0  0  0  0  0  0  0  0  0
  149.4847  142.0397  153.6220 H   0  0  0  0  0  0  0  0  0  0  0  0
  149.3454  141.9558  155.3799 H   0  0  0  0  0  0  0  0  0  0  0  0
  148.8367  138.5653  154.9932 H   0  0  0  0  0  0  0  0  0  0  0  0
  149.5769  138.4126  153.3981 H   0  0  0  0  0  0  0  0  0  0  0  0
  1  2  1  0  0  0  0
  1 18  1  0  0  0  0
  1 19  1  0  0  0  0
  1 20  1  0  0  0  0
  2  7  1  0  0  0  0
  2  3  2  0  0  0  0
  3  4  1  0  0  0  0
  3 21  1  0  0  0  0
  4  5  2  0  0  0  0
  4 22  1  0  0  0  0
  5  6  1  0  0  0  0
  5 23  1  0  0  0  0
  6  7  2  0  0  0  0
  7  8  1  0  0  0  0
  8  9  1  0  0  0  0
  8 24  1  0  0  0  0
  9 10  2  0  0  0  0
  9 11  1  0  0  0  0
 11 12  1  0  0  0  0
 11 25  1  0  0  0  0
 12 13  1  0  0  0  0
 12 26  1  0  0  0  0
 12 27  1  0  0  0  0
 13 17  1  0  0  0  0
 13 14  1  0  0  0  0
 13 28  1  0  0  0  0
 14 15  1  0  0  0  0
 14 29  1  0  0  0  0
 14 30  1  0  0  0  0
 15 16  1  0  0  0  0
 15 31  1  0  0  0  0
 15 32  1  0  0  0  0
 16 17  1  0  0  0  0
 17 33  1  0  0  0  0
 17 34  1  0  0  0  0
M  END
> <s_m_source_file>
AV-unprocessed.smi

> <i_m_source_file_index>
1927

> <i_lp_mmshare_version>
43012

> <i_f3d_flags>
0

> <s_epik_input>
W0NIM11jMVtjSF1bY0hdW2NIXW5jMVtOSF1DKD1PKVtOSF1bQ0gyXVtDQEBIXTJbQ0gyXVtDSDJdT1tDSDJdMg==

> <s_epik_cmdline>
J2VwaWtfcHl0aG9uJywgJy1waCcsICc3LjAnLCAnLXRuJywgJzgnLCAnLW1hJywgJzIwMCcsICctbWV0YWxfYmluZGluZycsICctaW1hZScsICc8aW5maWxlLm1hZT4nLCAnLW9tYWUnLCAnPG91dGZpbGUubWFlPic=

> <r_lp_tautomer_probability>
1

> <r_epik_Ionization_Penalty>
5.84082e-05

> <r_epik_Ionization_Penalty_Charging>
0

> <r_epik_Ionization_Penalty_Neutral>
5.84082e-05

> <r_epik_State_Penalty>
-0

> <r_epik_Charging_Adjusted_Penalty>
0

> <i_epik_Tot_Q>
0

> <i_epik_Tot_abs_Q>
0

> <r_epik_Metal_State_Penalty>
-0

> <b_epik_Metal_Only>
0

> <s_lp_Force_Field>
OPLS_2005

> <r_lp_Energy>
21.9437

> <b_lp_Chiralities_Consistent>
1

> <s_lp_Variant>
AV-unprocessed.smi:1927-2

> <Gold.Version>
5.8.1

> <Gold.Id.Protein>
6NUR|6NUR_protein|mol2

> <Gold.PLP.Fitness>
41.3163

> <Gold.PLP.PLP>
-30.4284

> <Gold.PLP.part.hbond>
-3.0000

> <Gold.PLP.part.metal>
0.0000

> <Gold.PLP.part.buried>
-1.5585

> <Gold.PLP.part.nonpolar>
-25.8040

> <Gold.PLP.part.repulsive>
0.5948

> <Gold.PLP.ligand.clash>
0.0000

> <Gold.PLP.ligand.torsion>
0.4656

> <Gold.PLP.Chemscore.Hbond>
2.9360

> <Gold.PLP.Chemscore.CHOScore>
1.0000

> <Gold.PLP.Chemscore.Metal>
0.0000

> <Gold.Chemscore.Hbonds>
donor molecule, donor type, donor heavy atom, donor atom, acceptor molecule, acceptor atom, score
      L1  H     8    24       P1  7948  1.00
      L1  H    11    25       P1  7948  0.96
      P1  H  7989  7998       L1    16  0.94
      L1  C     5    23       P1 10186  1.00

> <Gold.PLP.Chemscore.Internal.Correction>
0.0111

> <Gold.Rescore>
     Score         DG    S(hbond)    S(metal)    S(lipo)     H(rot)  DE(clash)    DE(int)     intcor
     17.93     -19.01       2.45        0.00      72.66       1.23       0.58       0.50       ----

> <Gold.Chemscore.Fitness>
17.9301

> <Gold.Chemscore.DG>
-19.0144

> <Gold.Chemscore.ZeroCoef>
-5.4800

> <Gold.Chemscore.Hbond>
2.4526

> <Gold.Chemscore.Metal>
0.0000

> <Gold.Chemscore.Lipo>
72.6584

> <Gold.Chemscore.Internal_Hbond>
0.0000

> <Gold.Chemscore.DEClash>
0.5839

> <Gold.Chemscore.DEInternal>
0.5004

> <Gold.Chemscore.Rot>
1.2337

> <Gold.Chemscore.Internal.Correction>
   9.000000E+99

> <Gold.Chemscore.Hbonds>
donor molecule, donor type, donor heavy atom, donor atom, acceptor molecule, acceptor atom, score
      L1  H     8    24       P1  7948  0.97
      L1  H    11    25       P1  7948  0.92
      P1  H  7989  7998       L1    16  0.22

> <Gold.Chemscore.Hbond.Weighted>
-8.1915

> <Gold.Chemscore.Metal.Weighted>
-0.0000

> <Gold.Chemscore.Lipo.Weighted>
-8.5010

> <Gold.Chemscore.Internal_Hbond.Weighted>
0.0000

> <Gold.Chemscore.DEClash.Weighted>
0.5839

> <Gold.Chemscore.DEInternal.Weighted>
0.5004

> <Gold.Chemscore.Rot.Weighted>
3.1582

> <Gold.Chemscore.Internal.Correction.Weighted>
   9.000000E+99

> <Gold.Protein.RotatedTorsions>
[ 6907 6896 6895 6894 ] final -102.53 input  -60.11 | X-H torsion
[ 7974 7965 7964 7962 ] final    4.24 input  175.53 | X-H torsion
[ 8008 7997 7996 7995 ] final  108.84 input   59.86 | X-H torsion
[ 10167 10162 10161 10158 ] final  -70.26 input  -65.29 | X-H torsion
[ 10718 10713 10712 10709 ] final   87.85 input   66.30 | X-H torsion
[ 10763 10752 10751 10750 ] final   28.29 input  -60.55 | X-H torsion
[ 11005 11000 10999 10996 ] final   39.85 input  -57.11 | X-H torsion

> <Gold.Protein.ActiveResidues>
 VAL166  LYS551  ARG553  GLY616  TRP617  ASP618  TYR619  PRO620  LYS621  CYS622 
 ASP623  PHE694  ASN695  SER759  ASP760  ASP761  ALA762  ILE779  LEU786  VAL792 
 PHE793  MET794  SER795  GLU796  ALA797  LYS798  CYS799  TRP800  GLU811  SER814 

> <Gold.Protein.RotatedAtoms>
  150.7200  134.0567  159.3816 H   0  0  0  0  0  0  0  0  0  0  0  0  # atno 6907 bound_to 6896
  151.8546  135.0543  160.0472 H   0  0  0  0  0  0  0  0  0  0  0  0  # atno 6908 bound_to 6896
  152.2764  133.5394  159.5507 H   0  0  0  0  0  0  0  0  0  0  0  0  # atno 6909 bound_to 6896
  146.2444  140.0564  142.8371 H   0  0  0  0  0  0  0  0  0  0  0  0  # atno 7974 bound_to 7965
  156.1933  140.3069  155.9377 H   0  0  0  0  0  0  0  0  0  0  0  0  # atno 8008 bound_to 7997
  155.3123  140.0451  157.3052 H   0  0  0  0  0  0  0  0  0  0  0  0  # atno 8009 bound_to 7997
  154.5479  140.2282  155.8542 H   0  0  0  0  0  0  0  0  0  0  0  0  # atno 8010 bound_to 7997
  140.5366  143.2317  151.7165 H   0  0  0  0  0  0  0  0  0  0  0  0  # atno 10167 bound_to 10162
  157.6944  131.0271  150.3185 H   0  0  0  0  0  0  0  0  0  0  0  0  # atno 10718 bound_to 10713
  153.0501  135.6516  154.0716 H   0  0  0  0  0  0  0  0  0  0  0  0  # atno 10763 bound_to 10752
  154.0406  135.2904  155.3357 H   0  0  0  0  0  0  0  0  0  0  0  0  # atno 10764 bound_to 10752
  154.6784  135.5329  153.8296 H   0  0  0  0  0  0  0  0  0  0  0  0  # atno 10765 bound_to 10752
  140.1988  134.3896  155.8107 H   0  0  0  0  0  0  0  0  0  0  0  0  # atno 11005 bound_to 11000
  145.0939  140.9302  143.4753 LP  0  0  0  0  0  0  0  0  0  0  0  0  # atno 17320 bound_to 7965
  145.0742  139.3008  143.5816 LP  0  0  0  0  0  0  0  0  0  0  0  0  # atno 17321 bound_to 7965
  139.4973  144.4033  152.0158 LP  0  0  0  0  0  0  0  0  0  0  0  0  # atno 17342 bound_to 10162
  140.3139  144.3506  150.6027 LP  0  0  0  0  0  0  0  0  0  0  0  0  # atno 17343 bound_to 10162
  156.3676  130.3858  149.7201 LP  0  0  0  0  0  0  0  0  0  0  0  0  # atno 17370 bound_to 10713
  156.4626  130.7959  151.2979 LP  0  0  0  0  0  0  0  0  0  0  0  0  # atno 17371 bound_to 10713
  141.2227  133.7083  156.8222 LP  0  0  0  0  0  0  0  0  0  0  0  0  # atno 17394 bound_to 11000
  140.2077  134.8850  157.3240 LP  0  0  0  0  0  0  0  0  0  0  0  0  # atno 17395 bound_to 11000

$$$$
