AV-unprocessed.smi:290|AV-procd|sdf|2218|dock5
  -GOLD-   2262022 63D 1   1.00000     0.00000
 Structure written by MMmdl.
 59 62  0  0  0  0  0  0  0  0  2 V2000
  152.6255  141.5937  158.9746 C   0  0  0  0  0  0  0  0  0  0  0  0
  151.5672  142.6960  159.1357 C   0  0  1  0  0  0  0  0  0  0  0  0
  152.1570  143.7667  159.8668 O   0  0  0  0  0  0  0  0  0  0  0  0
  151.5073  144.9705  159.5020 C   0  0  0  0  0  0  0  0  0  0  0  0
  151.3605  144.8134  157.9964 C   0  0  0  0  0  0  0  0  0  0  0  0
  151.0100  143.3357  157.8316 C   0  0  2  0  0  0  0  0  0  0  0  0
  149.5969  143.2218  157.8617 O   0  0  0  0  0  0  0  0  0  0  0  0
  151.5193  142.7290  156.4977 C   0  0  0  0  0  0  0  0  0  0  0  0
  150.9046  141.4515  156.1700 N   0  0  0  0  0  0  0  0  0  0  0  0
  151.2048  140.2233  156.7153 C   0  0  0  0  0  0  0  0  0  0  0  0
  150.5097  139.2218  156.2487 N   0  0  0  0  0  0  0  0  0  0  0  0
  149.6567  139.8065  155.3201 C   0  0  0  0  0  0  0  0  0  0  0  0
  148.6397  139.3146  154.4538 C   0  0  0  0  0  0  0  0  0  0  0  0
  148.2706  138.0197  154.3497 N   0  0  0  0  0  0  0  0  0  0  0  0
  146.8433  137.7618  154.5023 C   0  0  0  0  0  0  0  0  0  0  0  0
  146.7003  136.3575  155.1090 C   0  0  0  0  0  0  0  0  0  0  0  0
  148.1330  135.8130  155.2474 C   0  0  1  0  0  0  0  0  0  0  0  0
  148.4971  134.7493  154.2581 N   0  3  1  0  0  0  0  0  0  0  0  0
  149.6875  133.9808  154.6992 C   0  0  0  0  0  0  0  0  0  0  0  0
  147.3754  133.8745  153.8086 C   0  0  0  0  0  0  0  0  0  0  0  0
  147.8503  132.6048  153.0792 C   0  0  0  0  0  0  0  0  0  0  0  0
  147.7218  132.7617  151.6824 O   0  0  0  0  0  0  0  0  0  0  0  0
  149.0014  137.0821  155.1918 C   0  0  1  0  0  0  0  0  0  0  0  0
  150.4746  136.8919  154.7867 C   0  0  0  0  0  0  0  0  0  0  0  0
  147.9944  140.2025  153.6592 N   0  0  0  0  0  0  0  0  0  0  0  0
  148.3190  141.4985  153.7060 C   0  0  0  0  0  0  0  0  0  0  0  0
  149.2401  142.1020  154.4607 N   0  0  0  0  0  0  0  0  0  0  0  0
  149.8915  141.2084  155.2595 C   0  0  0  0  0  0  0  0  0  0  0  0
  148.2624  135.3831  156.2418 H   0  0  0  0  0  0  0  0  0  0  0  0
  149.0040  137.4957  156.2013 H   0  0  0  0  0  0  0  0  0  0  0  0
  152.2276  140.7326  158.4375 H   0  0  0  0  0  0  0  0  0  0  0  0
  152.9611  141.2412  159.9502 H   0  0  0  0  0  0  0  0  0  0  0  0
  153.5039  141.9559  158.4399 H   0  0  0  0  0  0  0  0  0  0  0  0
  150.7503  142.3010  159.7428 H   0  0  0  0  0  0  0  0  0  0  0  0
  150.5336  145.0304  159.9907 H   0  0  0  0  0  0  0  0  0  0  0  0
  152.0936  145.8460  159.7814 H   0  0  0  0  0  0  0  0  0  0  0  0
  150.6267  145.4944  157.5629 H   0  0  0  0  0  0  0  0  0  0  0  0
  152.3239  145.0254  157.5309 H   0  0  0  0  0  0  0  0  0  0  0  0
  149.2380  143.7428  157.1596 H   0  0  0  0  0  0  0  0  0  0  0  0
  151.3263  143.4114  155.6694 H   0  0  0  0  0  0  0  0  0  0  0  0
  152.5997  142.5842  156.5331 H   0  0  0  0  0  0  0  0  0  0  0  0
  151.9638  140.0917  157.4728 H   0  0  0  0  0  0  0  0  0  0  0  0
  146.3458  138.5052  155.1257 H   0  0  0  0  0  0  0  0  0  0  0  0
  146.3754  137.7996  153.5182 H   0  0  0  0  0  0  0  0  0  0  0  0
  146.2514  136.4472  156.0990 H   0  0  0  0  0  0  0  0  0  0  0  0
  146.0398  135.7170  154.5251 H   0  0  0  0  0  0  0  0  0  0  0  0
  149.4566  133.3636  155.5681 H   0  0  0  0  0  0  0  0  0  0  0  0
  150.5065  134.6488  154.9675 H   0  0  0  0  0  0  0  0  0  0  0  0
  150.0641  133.3313  153.9106 H   0  0  0  0  0  0  0  0  0  0  0  0
  146.7626  133.5922  154.6651 H   0  0  0  0  0  0  0  0  0  0  0  0
  146.7184  134.4136  153.1288 H   0  0  0  0  0  0  0  0  0  0  0  0
  148.8766  132.3391  153.3290 H   0  0  0  0  0  0  0  0  0  0  0  0
  147.2317  131.7597  153.3822 H   0  0  0  0  0  0  0  0  0  0  0  0
  148.3679  132.2177  151.2570 H   0  0  0  0  0  0  0  0  0  0  0  0
  150.9560  136.1377  155.4092 H   0  0  0  0  0  0  0  0  0  0  0  0
  151.0362  137.8189  154.9055 H   0  0  0  0  0  0  0  0  0  0  0  0
  150.5741  136.5843  153.7463 H   0  0  0  0  0  0  0  0  0  0  0  0
  147.7613  142.1442  153.0439 H   0  0  0  0  0  0  0  0  0  0  0  0
  148.7909  135.2528  153.4327 H   0  0  0  0  0  0  0  0  0  0  0  0
  1  2  1  0  0  0  0
  1 31  1  0  0  0  0
  1 32  1  0  0  0  0
  1 33  1  0  0  0  0
  2  6  1  0  0  0  0
  2  3  1  0  0  0  0
  2 34  1  0  0  0  0
  3  4  1  0  0  0  0
  4  5  1  0  0  0  0
  4 35  1  0  0  0  0
  4 36  1  0  0  0  0
  5  6  1  0  0  0  0
  5 37  1  0  0  0  0
  5 38  1  0  0  0  0
  6  7  1  0  0  0  0
  6  8  1  0  0  0  0
  7 39  1  0  0  0  0
  8  9  1  0  0  0  0
  8 40  1  0  0  0  0
  8 41  1  0  0  0  0
  9 28  1  0  0  0  0
  9 10  1  0  0  0  0
 10 11  2  0  0  0  0
 10 42  1  0  0  0  0
 11 12  1  0  0  0  0
 12 28  2  0  0  0  0
 12 13  1  0  0  0  0
 13 14  1  0  0  0  0
 13 25  2  0  0  0  0
 14 23  1  0  0  0  0
 14 15  1  0  0  0  0
 15 16  1  0  0  0  0
 15 43  1  0  0  0  0
 15 44  1  0  0  0  0
 16 17  1  0  0  0  0
 16 45  1  0  0  0  0
 16 46  1  0  0  0  0
 17 29  1  0  0  0  0
 17 18  1  0  0  0  0
 17 23  1  0  0  0  0
 18 19  1  0  0  0  0
 18 20  1  0  0  0  0
 18 59  1  0  0  0  0
 19 47  1  0  0  0  0
 19 48  1  0  0  0  0
 19 49  1  0  0  0  0
 20 21  1  0  0  0  0
 20 50  1  0  0  0  0
 20 51  1  0  0  0  0
 21 22  1  0  0  0  0
 21 52  1  0  0  0  0
 21 53  1  0  0  0  0
 22 54  1  0  0  0  0
 23 30  1  0  0  0  0
 23 24  1  0  0  0  0
 24 55  1  0  0  0  0
 24 56  1  0  0  0  0
 24 57  1  0  0  0  0
 25 26  1  0  0  0  0
 26 27  2  0  0  0  0
 26 58  1  0  0  0  0
 27 28  1  0  0  0  0
M  CHG  1  18   1
M  END
> <s_m_source_file>
AV-unprocessed.smi

> <i_m_source_file_index>
290

> <i_lp_mmshare_version>
43012

> <i_f3d_flags>
0

> <s_epik_input>
W0NIMl0xW0NIMl1PW0NAQEhdKFtDSDNdKVtDQEBdMShbT0hdKVtDSDJdbihbY0hdbjIpYyhjMjMpbltjSF1uYzNONFtDSDJdW0NIMl1bQ0BIXShbQ0BIXTRbQ0gzXSlOKFtDSDNdKVtDSDJdW0NIMl1bT0hd

> <s_epik_cmdline>
J2VwaWtfcHl0aG9uJywgJy1waCcsICc3LjAnLCAnLXRuJywgJzgnLCAnLW1hJywgJzIwMCcsICctbWV0YWxfYmluZGluZycsICctaW1hZScsICc8aW5maWxlLm1hZT4nLCAnLW9tYWUnLCAnPG91dGZpbGUubWFlPic=

> <r_lp_tautomer_probability>
1

> <r_epik_Ionization_Penalty>
0.0036983

> <r_epik_Ionization_Penalty_Charging>
0.0032725

> <r_epik_Ionization_Penalty_Neutral>
0.000425798

> <r_epik_State_Penalty>
-0

> <r_epik_Charging_Adjusted_Penalty>
0.0032725

> <i_epik_Tot_Q>
1

> <i_epik_Tot_abs_Q>
1

> <r_epik_Metal_State_Penalty>
-0

> <b_epik_Metal_Only>
0

> <s_lp_Force_Field>
OPLS_2005

> <r_lp_Energy>
69.1694

> <b_lp_Chiralities_Consistent>
1

> <s_lp_Variant>
AV-unprocessed.smi:290-4

> <Gold.Version>
5.8.1

> <Gold.Id.Protein>
6NUR|6NUR_protein|mol2

> <Gold.PLP.Fitness>
51.9391

> <Gold.PLP.PLP>
-42.4971

> <Gold.PLP.part.hbond>
-4.0823

> <Gold.PLP.part.metal>
0.0000

> <Gold.PLP.part.buried>
-7.2362

> <Gold.PLP.part.nonpolar>
-31.4557

> <Gold.PLP.part.repulsive>
2.3508

> <Gold.PLP.ligand.clash>
0.0000

> <Gold.PLP.ligand.torsion>
1.4450

> <Gold.PLP.Chemscore.Hbond>
4.0000

> <Gold.PLP.Chemscore.CHOScore>
0.0000

> <Gold.PLP.Chemscore.Metal>
0.0000

> <Gold.Chemscore.Hbonds>
donor molecule, donor type, donor heavy atom, donor atom, acceptor molecule, acceptor atom, score
      L1  H     7    39       P1  8028  1.00
      L1  H    18    59       P1  7948  2.00
      L1  H    22    54       P1 10747  1.00

> <Gold.PLP.Chemscore.Internal.Correction>
0.3320

> <Gold.Rescore>
     Score         DG    S(hbond)    S(metal)    S(lipo)     H(rot)  DE(clash)    DE(int)     intcor
      9.32     -15.82       2.42        0.00      99.33       3.67       1.97       4.52       ----

> <Gold.Chemscore.Fitness>
9.3204

> <Gold.Chemscore.DG>
-15.8155

> <Gold.Chemscore.ZeroCoef>
-5.4800

> <Gold.Chemscore.Hbond>
2.4248

> <Gold.Chemscore.Metal>
0.0000

> <Gold.Chemscore.Lipo>
99.3253

> <Gold.Chemscore.Internal_Hbond>
0.0000

> <Gold.Chemscore.DEClash>
1.9733

> <Gold.Chemscore.DEInternal>
4.5217

> <Gold.Chemscore.Rot>
3.6658

> <Gold.Chemscore.Internal.Correction>
   9.000000E+99

> <Gold.Chemscore.Hbonds>
donor molecule, donor type, donor heavy atom, donor atom, acceptor molecule, acceptor atom, score
      L1  H     7    39       P1  8028  0.50
      L1  H    18    59       P1  7948  0.74
      L1  H    22    54       P1 10747  0.99

> <Gold.Chemscore.Hbond.Weighted>
-8.0989

> <Gold.Chemscore.Metal.Weighted>
-0.0000

> <Gold.Chemscore.Lipo.Weighted>
-11.6211

> <Gold.Chemscore.Internal_Hbond.Weighted>
0.0000

> <Gold.Chemscore.DEClash.Weighted>
1.9733

> <Gold.Chemscore.DEInternal.Weighted>
4.5217

> <Gold.Chemscore.Rot.Weighted>
9.3844

> <Gold.Chemscore.Internal.Correction.Weighted>
   9.000000E+99

> <Gold.Protein.RotatedTorsions>
[ 6907 6896 6895 6894 ] final  170.28 input  -60.11 | X-H torsion
[ 7974 7965 7964 7962 ] final -134.26 input  175.53 | X-H torsion
[ 8008 7997 7996 7995 ] final  113.67 input   59.86 | X-H torsion
[ 10167 10162 10161 10158 ] final -143.97 input  -65.29 | X-H torsion
[ 10718 10713 10712 10709 ] final   50.65 input   66.30 | X-H torsion
[ 10763 10752 10751 10750 ] final   88.58 input  -60.55 | X-H torsion
[ 11005 11000 10999 10996 ] final -106.67 input  -57.11 | X-H torsion

> <Gold.Protein.ActiveResidues>
 VAL166  LYS551  ARG553  GLY616  TRP617  ASP618  TYR619  PRO620  LYS621  CYS622 
 ASP623  PHE694  ASN695  SER759  ASP760  ASP761  ALA762  ILE779  LEU786  VAL792 
 PHE793  MET794  SER795  GLU796  ALA797  LYS798  CYS799  TRP800  GLU811  SER814 

> <Gold.Protein.RotatedAtoms>
  151.8185  133.3391  159.3576 H   0  0  0  0  0  0  0  0  0  0  0  0  # atno 6907 bound_to 6896
  150.7302  134.5596  159.5845 H   0  0  0  0  0  0  0  0  0  0  0  0  # atno 6908 bound_to 6896
  152.3023  134.7597  160.0406 H   0  0  0  0  0  0  0  0  0  0  0  0  # atno 6909 bound_to 6896
  144.9119  140.6905  143.5020 H   0  0  0  0  0  0  0  0  0  0  0  0  # atno 7974 bound_to 7965
  156.2273  140.2975  156.0099 H   0  0  0  0  0  0  0  0  0  0  0  0  # atno 8008 bound_to 7997
  155.2322  140.0419  157.2981 H   0  0  0  0  0  0  0  0  0  0  0  0  # atno 8009 bound_to 7997
  154.5936  140.2408  155.7894 H   0  0  0  0  0  0  0  0  0  0  0  0  # atno 8010 bound_to 7997
  139.7943  143.7922  152.2653 H   0  0  0  0  0  0  0  0  0  0  0  0  # atno 10167 bound_to 10162
  157.4905  130.8373  149.8197 H   0  0  0  0  0  0  0  0  0  0  0  0  # atno 10718 bound_to 10713
  153.1783  135.4502  154.9994 H   0  0  0  0  0  0  0  0  0  0  0  0  # atno 10763 bound_to 10752
  154.8013  135.3257  154.7546 H   0  0  0  0  0  0  0  0  0  0  0  0  # atno 10764 bound_to 10752
  153.8013  135.6962  153.4910 H   0  0  0  0  0  0  0  0  0  0  0  0  # atno 10765 bound_to 10752
  141.0993  133.8914  157.1884 H   0  0  0  0  0  0  0  0  0  0  0  0  # atno 11005 bound_to 11000
  145.3440  139.1724  143.4470 LP  0  0  0  0  0  0  0  0  0  0  0  0  # atno 17320 bound_to 7965
  146.3163  140.3485  142.8654 LP  0  0  0  0  0  0  0  0  0  0  0  0  # atno 17321 bound_to 7965
  139.8023  144.7369  150.9808 LP  0  0  0  0  0  0  0  0  0  0  0  0  # atno 17342 bound_to 10162
  140.7820  143.4333  151.0662 LP  0  0  0  0  0  0  0  0  0  0  0  0  # atno 17343 bound_to 10162
  156.0171  130.3809  150.2077 LP  0  0  0  0  0  0  0  0  0  0  0  0  # atno 17370 bound_to 10713
  157.0266  130.9995  151.3324 LP  0  0  0  0  0  0  0  0  0  0  0  0  # atno 17371 bound_to 10713
  139.9839  135.0089  156.9816 LP  0  0  0  0  0  0  0  0  0  0  0  0  # atno 17394 bound_to 11000
  140.5062  134.1047  155.7260 LP  0  0  0  0  0  0  0  0  0  0  0  0  # atno 17395 bound_to 11000

$$$$
