AV-unprocessed.smi:1941|AV-procd|sdf|7848|dock9
  -GOLD-   22720 9593D 1   1.00000     0.00000
 Structure written by MMmdl.
 40 41  0  0  0  0  0  0  0  0  1 V2000
  151.1292  142.0303  157.5853 C   0  0  0  0  0  0  0  0  0  0  0  0
  150.7235  141.1779  156.4322 C   0  0  0  0  0  0  0  0  0  0  0  0
  151.2994  140.0096  156.1377 N   0  0  0  0  0  0  0  0  0  0  0  0
  150.7404  139.4040  155.0077 C   0  0  0  0  0  0  0  0  0  0  0  0
  151.2665  138.0856  154.5290 C   0  0  0  0  0  0  0  0  0  0  0  0
  150.7770  136.9107  155.3916 C   0  0  0  0  0  0  0  0  0  0  0  0
  149.9420  135.9980  154.6200 N   0  0  0  0  0  0  0  0  0  0  0  0
  149.5065  134.8068  155.0520 C   0  0  0  0  0  0  0  0  0  0  0  0
  149.7870  134.3291  156.1516 O   0  0  0  0  0  0  0  0  0  0  0  0
  148.7274  134.2059  154.1416 N   0  0  0  0  0  0  0  0  0  0  0  0
  148.0868  132.9007  154.2913 C   0  0  1  0  0  0  0  0  0  0  0  0
  147.0675  132.9724  155.4376 C   0  0  0  0  0  0  0  0  0  0  0  0
  147.4316  132.4786  152.9617 C   0  0  1  0  0  0  0  0  0  0  0  0
  146.5958  131.1981  153.0339 C   0  0  0  0  0  0  0  0  0  0  0  0
  145.5718  131.3671  151.9213 C   0  0  0  0  0  0  0  0  0  0  0  0
  145.6940  132.8392  151.5198 C   0  0  0  0  0  0  0  0  0  0  0  0
  146.4714  133.4371  152.5466 O   0  0  0  0  0  0  0  0  0  0  0  0
  149.7231  140.1362  154.4483 C   0  0  0  0  0  0  0  0  0  0  0  0
  149.4317  141.6156  155.3207 S   0  0  0  0  0  0  0  0  0  0  0  0
  151.9925  141.6021  158.0960 H   0  0  0  0  0  0  0  0  0  0  0  0
  150.3063  142.1101  158.2957 H   0  0  0  0  0  0  0  0  0  0  0  0
  151.3904  143.0294  157.2364 H   0  0  0  0  0  0  0  0  0  0  0  0
  150.9689  137.9270  153.4916 H   0  0  0  0  0  0  0  0  0  0  0  0
  152.3571  138.1031  154.5255 H   0  0  0  0  0  0  0  0  0  0  0  0
  151.6284  136.3463  155.7728 H   0  0  0  0  0  0  0  0  0  0  0  0
  150.2306  137.2757  156.2633 H   0  0  0  0  0  0  0  0  0  0  0  0
  149.6618  136.3037  153.6995 H   0  0  0  0  0  0  0  0  0  0  0  0
  148.5617  134.6899  153.2714 H   0  0  0  0  0  0  0  0  0  0  0  0
  148.8297  132.1469  154.5580 H   0  0  0  0  0  0  0  0  0  0  0  0
  146.5874  132.0068  155.5982 H   0  0  0  0  0  0  0  0  0  0  0  0
  146.2845  133.7024  155.2298 H   0  0  0  0  0  0  0  0  0  0  0  0
  147.5495  133.2571  156.3735 H   0  0  0  0  0  0  0  0  0  0  0  0
  148.1885  132.3790  152.1807 H   0  0  0  0  0  0  0  0  0  0  0  0
  147.2000  130.2977  152.9196 H   0  0  0  0  0  0  0  0  0  0  0  0
  146.0827  131.1362  153.9949 H   0  0  0  0  0  0  0  0  0  0  0  0
  145.7835  130.7150  151.0733 H   0  0  0  0  0  0  0  0  0  0  0  0
  144.5699  131.1324  152.2829 H   0  0  0  0  0  0  0  0  0  0  0  0
  146.2213  132.9353  150.5695 H   0  0  0  0  0  0  0  0  0  0  0  0
  144.7252  133.3295  151.4229 H   0  0  0  0  0  0  0  0  0  0  0  0
  149.1299  139.8958  153.5784 H   0  0  0  0  0  0  0  0  0  0  0  0
  1  2  1  0  0  0  0
  1 20  1  0  0  0  0
  1 21  1  0  0  0  0
  1 22  1  0  0  0  0
  2 19  1  0  0  0  0
  2  3  2  0  0  0  0
  3  4  1  0  0  0  0
  4  5  1  0  0  0  0
  4 18  2  0  0  0  0
  5  6  1  0  0  0  0
  5 23  1  0  0  0  0
  5 24  1  0  0  0  0
  6  7  1  0  0  0  0
  6 25  1  0  0  0  0
  6 26  1  0  0  0  0
  7  8  1  0  0  0  0
  7 27  1  0  0  0  0
  8  9  2  0  0  0  0
  8 10  1  0  0  0  0
 10 11  1  0  0  0  0
 10 28  1  0  0  0  0
 11 12  1  0  0  0  0
 11 13  1  0  0  0  0
 11 29  1  0  0  0  0
 12 30  1  0  0  0  0
 12 31  1  0  0  0  0
 12 32  1  0  0  0  0
 13 17  1  0  0  0  0
 13 14  1  0  0  0  0
 13 33  1  0  0  0  0
 14 15  1  0  0  0  0
 14 34  1  0  0  0  0
 14 35  1  0  0  0  0
 15 16  1  0  0  0  0
 15 36  1  0  0  0  0
 15 37  1  0  0  0  0
 16 17  1  0  0  0  0
 16 38  1  0  0  0  0
 16 39  1  0  0  0  0
 18 19  1  0  0  0  0
 18 40  1  0  0  0  0
M  END
> <s_m_source_file>
AV-unprocessed.smi

> <i_m_source_file_index>
1941

> <i_lp_mmshare_version>
43012

> <i_f3d_flags>
0

> <s_epik_input>
W0NIM11jMW5jKFtjSF1zMSlbQ0gyXVtDSDJdW05IXUMoPU8pW05IXVtDQEhdKFtDSDNdKVtDQEBIXTJbQ0gyXVtDSDJdW0NIMl1PMg==

> <s_epik_cmdline>
J2VwaWtfcHl0aG9uJywgJy1waCcsICc3LjAnLCAnLXRuJywgJzgnLCAnLW1hJywgJzIwMCcsICctbWV0YWxfYmluZGluZycsICctaW1hZScsICc8aW5maWxlLm1hZT4nLCAnLW9tYWUnLCAnPG91dGZpbGUubWFlPic=

> <r_epik_Ionization_Penalty>
0.00195486

> <r_epik_Ionization_Penalty_Charging>
0

> <r_epik_Ionization_Penalty_Neutral>
0.00195486

> <r_epik_State_Penalty>
0.00129472

> <r_epik_Charging_Adjusted_Penalty>
0.00129472

> <i_epik_Tot_Q>
0

> <i_epik_Tot_abs_Q>
0

> <r_epik_Metal_State_Penalty>
-0

> <b_epik_Metal_Only>
0

> <s_lp_Force_Field>
OPLS_2005

> <r_lp_Energy>
10.4384

> <b_lp_Chiralities_Consistent>
1

> <s_lp_Variant>
AV-unprocessed.smi:1941-4

> <Gold.Version>
5.8.1

> <Gold.Id.Protein>
6NUR|6NUR_protein|mol2

> <Gold.PLP.Fitness>
41.0748

> <Gold.PLP.PLP>
-33.4205

> <Gold.PLP.part.hbond>
-2.5620

> <Gold.PLP.part.metal>
0.0000

> <Gold.PLP.part.buried>
-2.3514

> <Gold.PLP.part.nonpolar>
-29.2186

> <Gold.PLP.part.repulsive>
0.2017

> <Gold.PLP.ligand.clash>
0.0000

> <Gold.PLP.ligand.torsion>
0.6907

> <Gold.PLP.Chemscore.Hbond>
2.0000

> <Gold.PLP.Chemscore.CHOScore>
1.0000

> <Gold.PLP.Chemscore.Metal>
0.0000

> <Gold.Chemscore.Hbonds>
donor molecule, donor type, donor heavy atom, donor atom, acceptor molecule, acceptor atom, score
      L1  H     7    27       P1  7948  1.00
      L1  H    10    28       P1  7948  0.86
      L1  C    18    40       P1  7957  1.00

> <Gold.PLP.Chemscore.Internal.Correction>
0.0356

> <Gold.Rescore>
     Score         DG    S(hbond)    S(metal)    S(lipo)     H(rot)  DE(clash)    DE(int)     intcor
     14.04     -14.71       1.38        0.00      76.49       1.69       0.01       0.66       ----

> <Gold.Chemscore.Fitness>
14.0439

> <Gold.Chemscore.DG>
-14.7084

> <Gold.Chemscore.ZeroCoef>
-5.4800

> <Gold.Chemscore.Hbond>
1.3807

> <Gold.Chemscore.Metal>
0.0000

> <Gold.Chemscore.Lipo>
76.4888

> <Gold.Chemscore.Internal_Hbond>
0.0000

> <Gold.Chemscore.DEClash>
0.0060

> <Gold.Chemscore.DEInternal>
0.6585

> <Gold.Chemscore.Rot>
1.6923

> <Gold.Chemscore.Internal.Correction>
   9.000000E+99

> <Gold.Chemscore.Hbonds>
donor molecule, donor type, donor heavy atom, donor atom, acceptor molecule, acceptor atom, score
      L1  H     7    27       P1  7948  0.44
      L1  H    10    28       P1  7948  0.36

> <Gold.Chemscore.Hbond.Weighted>
-4.6115

> <Gold.Chemscore.Metal.Weighted>
-0.0000

> <Gold.Chemscore.Lipo.Weighted>
-8.9492

> <Gold.Chemscore.Internal_Hbond.Weighted>
0.0000

> <Gold.Chemscore.DEClash.Weighted>
0.0060

> <Gold.Chemscore.DEInternal.Weighted>
0.6585

> <Gold.Chemscore.Rot.Weighted>
4.3323

> <Gold.Chemscore.Internal.Correction.Weighted>
   9.000000E+99

> <Gold.Protein.RotatedTorsions>
[ 6907 6896 6895 6894 ] final  -90.37 input  -60.11 | X-H torsion
[ 7974 7965 7964 7962 ] final -147.14 input  175.53 | X-H torsion
[ 8008 7997 7996 7995 ] final   91.96 input   59.86 | X-H torsion
[ 10167 10162 10161 10158 ] final   98.12 input  -65.29 | X-H torsion
[ 10718 10713 10712 10709 ] final  149.32 input   66.30 | X-H torsion
[ 10763 10752 10751 10750 ] final  -23.23 input  -60.55 | X-H torsion
[ 11005 11000 10999 10996 ] final   33.54 input  -57.11 | X-H torsion

> <Gold.Protein.ActiveResidues>
 VAL166  LYS551  ARG553  GLY616  TRP617  ASP618  TYR619  PRO620  LYS621  CYS622 
 ASP623  PHE694  ASN695  SER759  ASP760  ASP761  ALA762  ILE779  LEU786  VAL792 
 PHE793  MET794  SER795  GLU796  ALA797  LYS798  CYS799  TRP800  GLU811  SER814 

> <Gold.Protein.RotatedAtoms>
  150.6881  134.2443  159.4484 H   0  0  0  0  0  0  0  0  0  0  0  0  # atno 6907 bound_to 6896
  152.0385  134.9723  160.0583 H   0  0  0  0  0  0  0  0  0  0  0  0  # atno 6908 bound_to 6896
  152.1234  133.4331  159.4723 H   0  0  0  0  0  0  0  0  0  0  0  0  # atno 6909 bound_to 6896
  144.8113  140.5365  143.5641 H   0  0  0  0  0  0  0  0  0  0  0  0  # atno 7974 bound_to 7965
  156.0298  140.3331  155.7128 H   0  0  0  0  0  0  0  0  0  0  0  0  # atno 8008 bound_to 7997
  155.5901  140.0645  157.2778 H   0  0  0  0  0  0  0  0  0  0  0  0  # atno 8009 bound_to 7997
  154.4349  140.1829  156.1053 H   0  0  0  0  0  0  0  0  0  0  0  0  # atno 8010 bound_to 7997
  139.7738  144.6913  151.0119 H   0  0  0  0  0  0  0  0  0  0  0  0  # atno 10167 bound_to 10162
  157.2976  131.0865  151.1415 H   0  0  0  0  0  0  0  0  0  0  0  0  # atno 10718 bound_to 10713
  153.6646  135.6975  153.5166 H   0  0  0  0  0  0  0  0  0  0  0  0  # atno 10763 bound_to 10752
  153.2605  135.4246  155.0888 H   0  0  0  0  0  0  0  0  0  0  0  0  # atno 10764 bound_to 10752
  154.8443  135.3554  154.6190 H   0  0  0  0  0  0  0  0  0  0  0  0  # atno 10765 bound_to 10752
  140.2620  134.3181  155.7854 H   0  0  0  0  0  0  0  0  0  0  0  0  # atno 11005 bound_to 11000
  145.5318  139.1475  143.3495 LP  0  0  0  0  0  0  0  0  0  0  0  0  # atno 17320 bound_to 7965
  146.2411  140.5459  142.8933 LP  0  0  0  0  0  0  0  0  0  0  0  0  # atno 17321 bound_to 7965
  140.7815  143.4559  151.0346 LP  0  0  0  0  0  0  0  0  0  0  0  0  # atno 17342 bound_to 10162
  139.8242  143.7779  152.3178 LP  0  0  0  0  0  0  0  0  0  0  0  0  # atno 17343 bound_to 10162
  157.2787  130.6739  149.6055 LP  0  0  0  0  0  0  0  0  0  0  0  0  # atno 17370 bound_to 10713
  155.9670  130.4456  150.5510 LP  0  0  0  0  0  0  0  0  0  0  0  0  # atno 17371 bound_to 10713
  141.2189  133.7415  156.9202 LP  0  0  0  0  0  0  0  0  0  0  0  0  # atno 17394 bound_to 11000
  140.1455  134.9265  157.2524 LP  0  0  0  0  0  0  0  0  0  0  0  0  # atno 17395 bound_to 11000

$$$$
