AV-unprocessed.smi:1103|AV-procd|sdf|4771|dock10
  -GOLD-   22720 3313D 1   1.00000     0.00000
 Structure written by MMmdl.
 44 45  0  0  0  0  0  0  0  0  2 V2000
  149.0034  134.0786  154.8285 C   0  0  0  0  0  0  0  0  0  0  0  0
  148.1318  135.3270  155.0291 C   0  0  0  0  0  0  0  0  0  0  0  0
  148.8099  136.5722  154.5881 N   0  3  1  0  0  0  0  0  0  0  0  0
  147.8711  137.7202  154.5034 C   0  0  0  0  0  0  0  0  0  0  0  0
  148.5635  138.9555  153.9087 C   0  0  0  0  0  0  0  0  0  0  0  0
  149.8053  139.3318  154.7254 C   0  0  0  0  0  0  0  0  0  0  0  0
  150.7617  138.1314  154.8322 C   0  0  1  0  0  0  0  0  0  0  0  0
  152.0121  138.4983  155.6616 C   0  0  0  0  0  0  0  0  0  0  0  0
  151.6887  139.2229  156.8871 N   0  0  0  0  0  0  0  0  0  0  0  0
  152.5274  139.4045  157.9187 C   0  0  0  0  0  0  0  0  0  0  0  0
  153.6773  138.9627  157.9345 O   0  0  0  0  0  0  0  0  0  0  0  0
  151.9725  140.2056  159.1023 C   0  0  0  0  0  0  0  0  0  0  0  0
  151.7243  141.5974  158.7641 N   0  0  0  0  0  0  0  0  0  0  0  0
  152.2491  142.7302  159.3513 C   0  0  0  0  0  0  0  0  0  0  0  0
  151.7304  143.8111  158.6967 C   0  0  0  0  0  0  0  0  0  0  0  0
  151.9863  145.2694  158.9454 C   0  0  0  0  0  0  0  0  0  0  0  0
  150.8825  143.2265  157.7132 C   0  0  0  0  0  0  0  0  0  0  0  0
  150.8790  141.9043  157.7572 N   0  0  0  0  0  0  0  0  0  0  0  0
  150.0109  136.9059  155.4007 C   0  0  0  0  0  0  0  0  0  0  0  0
  148.4417  133.1774  155.0758 H   0  0  0  0  0  0  0  0  0  0  0  0
  149.8897  134.0883  155.4620 H   0  0  0  0  0  0  0  0  0  0  0  0
  149.3304  133.9889  153.7920 H   0  0  0  0  0  0  0  0  0  0  0  0
  147.2201  135.1882  154.4468 H   0  0  0  0  0  0  0  0  0  0  0  0
  147.8205  135.4177  156.0708 H   0  0  0  0  0  0  0  0  0  0  0  0
  147.0173  137.4555  153.8780 H   0  0  0  0  0  0  0  0  0  0  0  0
  147.4793  137.9474  155.4962 H   0  0  0  0  0  0  0  0  0  0  0  0
  148.8502  138.7539  152.8756 H   0  0  0  0  0  0  0  0  0  0  0  0
  147.8684  139.7951  153.8785 H   0  0  0  0  0  0  0  0  0  0  0  0
  150.3109  140.1776  154.2581 H   0  0  0  0  0  0  0  0  0  0  0  0
  149.5040  139.6594  155.7214 H   0  0  0  0  0  0  0  0  0  0  0  0
  151.0882  137.8839  153.8208 H   0  0  0  0  0  0  0  0  0  0  0  0
  152.5773  137.5993  155.9134 H   0  0  0  0  0  0  0  0  0  0  0  0
  152.6817  139.1226  155.0693 H   0  0  0  0  0  0  0  0  0  0  0  0
  150.7658  139.6282  156.9492 H   0  0  0  0  0  0  0  0  0  0  0  0
  151.0461  139.7430  159.4469 H   0  0  0  0  0  0  0  0  0  0  0  0
  152.6765  140.1774  159.9349 H   0  0  0  0  0  0  0  0  0  0  0  0
  152.9448  142.6729  160.1755 H   0  0  0  0  0  0  0  0  0  0  0  0
  151.4872  145.8998  158.2092 H   0  0  0  0  0  0  0  0  0  0  0  0
  153.0500  145.5041  158.9001 H   0  0  0  0  0  0  0  0  0  0  0  0
  151.6291  145.5785  159.9278 H   0  0  0  0  0  0  0  0  0  0  0  0
  150.2727  143.7216  156.9719 H   0  0  0  0  0  0  0  0  0  0  0  0
  149.7107  137.0937  156.4331 H   0  0  0  0  0  0  0  0  0  0  0  0
  150.6836  136.0496  155.4208 H   0  0  0  0  0  0  0  0  0  0  0  0
  149.1299  136.4035  153.6449 H   0  0  0  0  0  0  0  0  0  0  0  0
  1  2  1  0  0  0  0
  1 20  1  0  0  0  0
  1 21  1  0  0  0  0
  1 22  1  0  0  0  0
  2  3  1  0  0  0  0
  2 23  1  0  0  0  0
  2 24  1  0  0  0  0
  3 19  1  0  0  0  0
  3  4  1  0  0  0  0
  3 44  1  0  0  0  0
  4  5  1  0  0  0  0
  4 25  1  0  0  0  0
  4 26  1  0  0  0  0
  5  6  1  0  0  0  0
  5 27  1  0  0  0  0
  5 28  1  0  0  0  0
  6  7  1  0  0  0  0
  6 29  1  0  0  0  0
  6 30  1  0  0  0  0
  7  8  1  0  0  0  0
  7 19  1  0  0  0  0
  7 31  1  0  0  0  0
  8  9  1  0  0  0  0
  8 32  1  0  0  0  0
  8 33  1  0  0  0  0
  9 10  1  0  0  0  0
  9 34  1  0  0  0  0
 10 11  2  0  0  0  0
 10 12  1  0  0  0  0
 12 13  1  0  0  0  0
 12 35  1  0  0  0  0
 12 36  1  0  0  0  0
 13 18  1  0  0  0  0
 13 14  1  0  0  0  0
 14 15  2  0  0  0  0
 14 37  1  0  0  0  0
 15 16  1  0  0  0  0
 15 17  1  0  0  0  0
 16 38  1  0  0  0  0
 16 39  1  0  0  0  0
 16 40  1  0  0  0  0
 17 18  2  0  0  0  0
 17 41  1  0  0  0  0
 19 42  1  0  0  0  0
 19 43  1  0  0  0  0
M  CHG  1   3   1
M  END
> <s_m_source_file>
AV-unprocessed.smi

> <i_m_source_file_index>
1103

> <i_lp_mmshare_version>
43012

> <i_f3d_flags>
0

> <s_epik_input>
W0NIM11bQ0gyXU4xW0NIMl1bQ0gyXVtDSDJdW0NASF0oW0NIMl0xKVtDSDJdW05IXUMoPU8pW0NIMl1uMltjSF1jKFtDSDNdKVtjSF1uMg==

> <s_epik_cmdline>
J2VwaWtfcHl0aG9uJywgJy1waCcsICc3LjAnLCAnLXRuJywgJzgnLCAnLW1hJywgJzIwMCcsICctbWV0YWxfYmluZGluZycsICctaW1hZScsICc8aW5maWxlLm1hZT4nLCAnLW9tYWUnLCAnPG91dGZpbGUubWFlPic=

> <r_lp_tautomer_probability>
1

> <r_epik_Ionization_Penalty>
0.000672456

> <r_epik_Ionization_Penalty_Charging>
0.000647327

> <r_epik_Ionization_Penalty_Neutral>
2.51297e-05

> <r_epik_State_Penalty>
0.000409793

> <r_epik_Charging_Adjusted_Penalty>
0.00105712

> <i_epik_Tot_Q>
1

> <i_epik_Tot_abs_Q>
1

> <r_epik_Metal_State_Penalty>
-0

> <b_epik_Metal_Only>
0

> <s_lp_Force_Field>
OPLS_2005

> <r_lp_Energy>
19.0507

> <b_lp_Chiralities_Consistent>
1

> <s_lp_Variant>
AV-unprocessed.smi:1103-1

> <Gold.Version>
5.8.1

> <Gold.Id.Protein>
6NUR|6NUR_protein|mol2

> <Gold.PLP.Fitness>
45.9156

> <Gold.PLP.PLP>
-34.5266

> <Gold.PLP.part.hbond>
-1.9480

> <Gold.PLP.part.metal>
0.0000

> <Gold.PLP.part.buried>
-2.4887

> <Gold.PLP.part.nonpolar>
-30.7616

> <Gold.PLP.part.repulsive>
0.1317

> <Gold.PLP.ligand.clash>
0.0000

> <Gold.PLP.ligand.torsion>
0.3282

> <Gold.PLP.Chemscore.Hbond>
3.0000

> <Gold.PLP.Chemscore.CHOScore>
1.0000

> <Gold.PLP.Chemscore.Metal>
0.0000

> <Gold.Chemscore.Hbonds>
donor molecule, donor type, donor heavy atom, donor atom, acceptor molecule, acceptor atom, score
      L1  H     3    44       P1  7948  2.00
      P1  H  7997  8008       L1    11  1.00
      L1  C    17    41       P1  8028  1.00

> <Gold.PLP.Chemscore.Internal.Correction>
0.0454

> <Gold.Rescore>
     Score         DG    S(hbond)    S(metal)    S(lipo)     H(rot)  DE(clash)    DE(int)     intcor
     17.76     -18.34       1.97        0.00      90.55       1.68       0.00       0.58       ----

> <Gold.Chemscore.Fitness>
17.7601

> <Gold.Chemscore.DG>
-18.3376

> <Gold.Chemscore.ZeroCoef>
-5.4800

> <Gold.Chemscore.Hbond>
1.9670

> <Gold.Chemscore.Metal>
0.0000

> <Gold.Chemscore.Lipo>
90.5492

> <Gold.Chemscore.Internal_Hbond>
0.0000

> <Gold.Chemscore.DEClash>
0.0000

> <Gold.Chemscore.DEInternal>
0.5775

> <Gold.Chemscore.Rot>
1.6823

> <Gold.Chemscore.Internal.Correction>
   9.000000E+99

> <Gold.Chemscore.Hbonds>
donor molecule, donor type, donor heavy atom, donor atom, acceptor molecule, acceptor atom, score
      L1  H     3    44       P1  7948  0.97
      P1  H  7997  8008       L1    11  0.39

> <Gold.Chemscore.Hbond.Weighted>
-6.5699

> <Gold.Chemscore.Metal.Weighted>
-0.0000

> <Gold.Chemscore.Lipo.Weighted>
-10.5943

> <Gold.Chemscore.Internal_Hbond.Weighted>
0.0000

> <Gold.Chemscore.DEClash.Weighted>
0.0000

> <Gold.Chemscore.DEInternal.Weighted>
0.5775

> <Gold.Chemscore.Rot.Weighted>
4.3066

> <Gold.Chemscore.Internal.Correction.Weighted>
   9.000000E+99

> <Gold.Protein.RotatedTorsions>
[ 6907 6896 6895 6894 ] final  -45.74 input  -60.11 | X-H torsion
[ 7974 7965 7964 7962 ] final  -38.25 input  175.53 | X-H torsion
[ 8008 7997 7996 7995 ] final  -76.80 input   59.86 | X-H torsion
[ 10167 10162 10161 10158 ] final  173.25 input  -65.29 | X-H torsion
[ 10718 10713 10712 10709 ] final  119.67 input   66.30 | X-H torsion
[ 10763 10752 10751 10750 ] final -177.06 input  -60.55 | X-H torsion
[ 11005 11000 10999 10996 ] final   29.54 input  -57.11 | X-H torsion

> <Gold.Protein.ActiveResidues>
 VAL166  LYS551  ARG553  GLY616  TRP617  ASP618  TYR619  PRO620  LYS621  CYS622 
 ASP623  PHE694  ASN695  SER759  ASP760  ASP761  ALA762  ILE779  LEU786  VAL792 
 PHE793  MET794  SER795  GLU796  ALA797  LYS798  CYS799  TRP800  GLU811  SER814 

> <Gold.Protein.RotatedAtoms>
  150.9187  134.8605  159.7474 H   0  0  0  0  0  0  0  0  0  0  0  0  # atno 6907 bound_to 6896
  152.4982  134.4250  159.9503 H   0  0  0  0  0  0  0  0  0  0  0  0  # atno 6908 bound_to 6896
  151.4286  133.3637  159.2801 H   0  0  0  0  0  0  0  0  0  0  0  0  # atno 6909 bound_to 6896
  146.0503  140.6491  142.9045 H   0  0  0  0  0  0  0  0  0  0  0  0  # atno 7974 bound_to 7965
  154.5537  140.0721  156.8710 H   0  0  0  0  0  0  0  0  0  0  0  0  # atno 8008 bound_to 7997
  155.2943  140.3380  155.4232 H   0  0  0  0  0  0  0  0  0  0  0  0  # atno 8009 bound_to 7997
  156.1984  140.1712  156.7937 H   0  0  0  0  0  0  0  0  0  0  0  0  # atno 8010 bound_to 7997
  139.5102  144.3282  152.0137 H   0  0  0  0  0  0  0  0  0  0  0  0  # atno 10167 bound_to 10162
  157.5945  131.1060  150.7929 H   0  0  0  0  0  0  0  0  0  0  0  0  # atno 10718 bound_to 10713
  154.5648  135.2823  155.0885 H   0  0  0  0  0  0  0  0  0  0  0  0  # atno 10763 bound_to 10752
  154.2280  135.6379  153.5170 H   0  0  0  0  0  0  0  0  0  0  0  0  # atno 10764 bound_to 10752
  153.0039  135.5530  154.6253 H   0  0  0  0  0  0  0  0  0  0  0  0  # atno 10765 bound_to 10752
  140.3039  134.2725  155.7748 H   0  0  0  0  0  0  0  0  0  0  0  0  # atno 11005 bound_to 11000
  144.7119  140.4069  143.7074 LP  0  0  0  0  0  0  0  0  0  0  0  0  # atno 17320 bound_to 7965
  145.6736  139.1604  143.2740 LP  0  0  0  0  0  0  0  0  0  0  0  0  # atno 17321 bound_to 7965
  140.2722  144.3951  150.6147 LP  0  0  0  0  0  0  0  0  0  0  0  0  # atno 17342 bound_to 10162
  140.6080  143.2168  151.6943 LP  0  0  0  0  0  0  0  0  0  0  0  0  # atno 17343 bound_to 10162
  156.8342  130.5026  149.5328 LP  0  0  0  0  0  0  0  0  0  0  0  0  # atno 17370 bound_to 10713
  156.1005  130.5965  150.9886 LP  0  0  0  0  0  0  0  0  0  0  0  0  # atno 17371 bound_to 10713
  141.2122  133.7664  156.9808 LP  0  0  0  0  0  0  0  0  0  0  0  0  # atno 17394 bound_to 11000
  140.1085  134.9492  157.2029 LP  0  0  0  0  0  0  0  0  0  0  0  0  # atno 17395 bound_to 11000

$$$$
