AV-unprocessed.smi:137|AV-procd|sdf|1178|dock2
  -GOLD-   2262018323D 1   1.00000     0.00000
 Structure written by MMmdl.
 51 54  0  0  0  0  0  0  0  0  1 V2000
  150.4748  133.1951  156.7705 C   0  0  0  0  0  0  0  0  0  0  0  0
  150.8725  131.7105  156.7662 C   0  0  1  0  0  0  0  0  0  0  0  0
  149.6429  130.7932  156.5549 C   0  0  0  0  0  0  0  0  0  0  0  0
  149.4352  130.3580  155.1705 N   0  0  0  0  0  0  0  0  0  0  0  0
  148.7606  131.1457  154.2813 C   0  0  0  0  0  0  0  0  0  0  0  0
  149.1077  132.4583  154.1997 N   0  0  0  0  0  0  0  0  0  0  0  0
  148.4921  133.2850  153.3522 C   0  0  0  0  0  0  0  0  0  0  0  0
  147.5025  133.0178  152.5020 N   0  0  0  0  0  0  0  0  0  0  0  0
  147.1344  131.7077  152.5721 C   0  0  0  0  0  0  0  0  0  0  0  0
  147.7050  130.7101  153.4185 C   0  0  0  0  0  0  0  0  0  0  0  0
  147.0735  129.4940  153.1752 N   0  0  0  0  0  0  0  0  0  0  0  0
  146.1924  129.7553  152.2506 C   0  0  0  0  0  0  0  0  0  0  0  0
  146.1389  131.0696  151.8521 N   0  0  0  0  0  0  0  0  0  0  0  0
  145.2952  131.6225  150.8329 C   0  0  0  0  0  0  0  0  0  0  0  0
  145.7201  132.8648  150.0440 C   0  0  0  0  0  0  0  0  0  0  0  0
  144.2608  133.3720  150.0284 C   0  0  0  0  0  0  0  0  0  0  0  0
  144.1031  134.8582  150.3857 C   0  0  0  0  0  0  0  0  0  0  0  0
  144.7694  135.6867  149.4544 O   0  0  0  0  0  0  0  0  0  0  0  0
  143.4675  133.1306  148.7250 C   0  0  0  0  0  0  0  0  0  0  0  0
  143.6533  134.1479  147.7620 O   0  0  0  0  0  0  0  0  0  0  0  0
  144.0180  132.3876  151.1938 C   0  0  0  0  0  0  0  0  0  0  0  0
  150.0171  129.0746  154.7775 C   0  0  0  0  0  0  0  0  0  0  0  0
  151.4918  129.1617  154.3409 C   0  0  0  0  0  0  0  0  0  0  0  0
  152.5791  129.6997  155.7506 S   0  0  2  0  0  0  0  0  0  0  0  0
  152.0897  129.0070  157.0242 O   0  0  0  0  0  0  0  0  0  0  0  0
  152.0593  131.4847  155.8028 C   0  0  0  0  0  0  0  0  0  0  0  0
  150.1469  133.5237  155.7845 H   0  0  0  0  0  0  0  0  0  0  0  0
  151.3167  133.8241  157.0615 H   0  0  0  0  0  0  0  0  0  0  0  0
  149.6650  133.3875  157.4749 H   0  0  0  0  0  0  0  0  0  0  0  0
  151.2335  131.4993  157.7737 H   0  0  0  0  0  0  0  0  0  0  0  0
  149.7773  129.8986  157.1624 H   0  0  0  0  0  0  0  0  0  0  0  0
  148.7437  131.2490  156.9698 H   0  0  0  0  0  0  0  0  0  0  0  0
  148.8412  134.3069  153.3583 H   0  0  0  0  0  0  0  0  0  0  0  0
  145.5504  128.9910  151.8373 H   0  0  0  0  0  0  0  0  0  0  0  0
  145.0698  130.7973  150.1567 H   0  0  0  0  0  0  0  0  0  0  0  0
  146.3897  133.5074  150.6180 H   0  0  0  0  0  0  0  0  0  0  0  0
  146.1421  132.6478  149.0619 H   0  0  0  0  0  0  0  0  0  0  0  0
  143.0517  135.1469  150.3931 H   0  0  0  0  0  0  0  0  0  0  0  0
  144.4870  135.0681  151.3843 H   0  0  0  0  0  0  0  0  0  0  0  0
  144.5408  136.5858  149.6343 H   0  0  0  0  0  0  0  0  0  0  0  0
  143.7563  132.1880  148.2600 H   0  0  0  0  0  0  0  0  0  0  0  0
  142.3989  133.0619  148.9313 H   0  0  0  0  0  0  0  0  0  0  0  0
  144.5527  134.1262  147.4724 H   0  0  0  0  0  0  0  0  0  0  0  0
  143.1038  131.7990  151.1116 H   0  0  0  0  0  0  0  0  0  0  0  0
  144.0830  132.8701  152.1705 H   0  0  0  0  0  0  0  0  0  0  0  0
  149.9363  128.3813  155.6150 H   0  0  0  0  0  0  0  0  0  0  0  0
  149.4165  128.6179  153.9920 H   0  0  0  0  0  0  0  0  0  0  0  0
  151.8265  128.1766  154.0160 H   0  0  0  0  0  0  0  0  0  0  0  0
  151.6299  129.8366  153.4972 H   0  0  0  0  0  0  0  0  0  0  0  0
  151.8353  131.8353  154.7948 H   0  0  0  0  0  0  0  0  0  0  0  0
  152.9131  132.0667  156.1504 H   0  0  0  0  0  0  0  0  0  0  0  0
  1  2  1  0  0  0  0
  1 27  1  0  0  0  0
  1 28  1  0  0  0  0
  1 29  1  0  0  0  0
  2 26  1  0  0  0  0
  2  3  1  0  0  0  0
  2 30  1  0  0  0  0
  3  4  1  0  0  0  0
  3 31  1  0  0  0  0
  3 32  1  0  0  0  0
  4  5  1  0  0  0  0
  4 22  1  0  0  0  0
  5 10  1  0  0  0  0
  5  6  2  0  0  0  0
  6  7  1  0  0  0  0
  7  8  2  0  0  0  0
  7 33  1  0  0  0  0
  8  9  1  0  0  0  0
  9 13  1  0  0  0  0
  9 10  2  0  0  0  0
 10 11  1  0  0  0  0
 11 12  2  0  0  0  0
 12 13  1  0  0  0  0
 12 34  1  0  0  0  0
 13 14  1  0  0  0  0
 14 21  1  0  0  0  0
 14 15  1  0  0  0  0
 14 35  1  0  0  0  0
 15 16  1  0  0  0  0
 15 36  1  0  0  0  0
 15 37  1  0  0  0  0
 16 17  1  0  0  0  0
 16 19  1  0  0  0  0
 16 21  1  0  0  0  0
 17 18  1  0  0  0  0
 17 38  1  0  0  0  0
 17 39  1  0  0  0  0
 18 40  1  0  0  0  0
 19 20  1  0  0  0  0
 19 41  1  0  0  0  0
 19 42  1  0  0  0  0
 20 43  1  0  0  0  0
 21 44  1  0  0  0  0
 21 45  1  0  0  0  0
 22 23  1  0  0  0  0
 22 46  1  0  0  0  0
 22 47  1  0  0  0  0
 23 24  1  0  0  0  0
 23 48  1  0  0  0  0
 23 49  1  0  0  0  0
 24 25  2  0  0  0  0
 24 26  1  0  0  0  0
 26 50  1  0  0  0  0
 26 51  1  0  0  0  0
M  END
> <s_m_source_file>
AV-unprocessed.smi

> <i_m_source_file_index>
137

> <i_lp_mmshare_version>
43012

> <i_f3d_flags>
0

> <s_epik_input>
Tz1bU0BAXShbQ0gyXTEpW0NIMl1bQ0gyXU4oW0NIMl1bQ0BIXTFbQ0gzXSljKG5bY0hdbjIpYyhjMjMpbltjSF1uM1tDSF0oW0NIMl00KVtDSDJdQzQoW0NIMl1bT0hdKVtDSDJdW09IXQ==

> <s_epik_cmdline>
J2VwaWtfcHl0aG9uJywgJy1waCcsICc3LjAnLCAnLXRuJywgJzgnLCAnLW1hJywgJzIwMCcsICctbWV0YWxfYmluZGluZycsICctaW1hZScsICc8aW5maWxlLm1hZT4nLCAnLW9tYWUnLCAnPG91dGZpbGUubWFlPic=

> <r_lp_tautomer_probability>
1

> <r_epik_Ionization_Penalty>
0.000811024

> <r_epik_Ionization_Penalty_Charging>
0

> <r_epik_Ionization_Penalty_Neutral>
0.000811024

> <r_epik_State_Penalty>
0.000429598

> <r_epik_Charging_Adjusted_Penalty>
0.000429598

> <i_epik_Tot_Q>
0

> <i_epik_Tot_abs_Q>
0

> <r_epik_Metal_State_Penalty>
-0

> <b_epik_Metal_Only>
0

> <s_lp_Force_Field>
OPLS_2005

> <r_lp_Energy>
44.8713

> <b_lp_Chiralities_Consistent>
1

> <s_lp_Variant>
AV-unprocessed.smi:137-4

> <Gold.Version>
5.8.1

> <Gold.Id.Protein>
6NUR|6NUR_protein|mol2

> <Gold.PLP.Fitness>
52.9040

> <Gold.PLP.PLP>
-44.6581

> <Gold.PLP.part.hbond>
-5.3498

> <Gold.PLP.part.metal>
0.0000

> <Gold.PLP.part.buried>
-1.1440

> <Gold.PLP.part.nonpolar>
-38.8775

> <Gold.PLP.part.repulsive>
0.3466

> <Gold.PLP.ligand.clash>
0.0000

> <Gold.PLP.ligand.torsion>
1.8517

> <Gold.PLP.Chemscore.Hbond>
2.9425

> <Gold.PLP.Chemscore.CHOScore>
0.8937

> <Gold.PLP.Chemscore.Metal>
0.0000

> <Gold.Chemscore.Hbonds>
donor molecule, donor type, donor heavy atom, donor atom, acceptor molecule, acceptor atom, score
      L1  H    18    40       P1 10171  0.86
      L1  H    20    43       P1  7921  0.96
      P1  H 10192 10197       L1    20  1.00
      L1  C     7    33       P1  7948  0.77

> <Gold.PLP.Chemscore.Internal.Correction>
0.4407

> <Gold.Rescore>
     Score         DG    S(hbond)    S(metal)    S(lipo)     H(rot)  DE(clash)    DE(int)     intcor
     13.24     -17.90       2.99        0.00      83.64       2.87       1.42       3.24       ----

> <Gold.Chemscore.Fitness>
13.2409

> <Gold.Chemscore.DG>
-17.8953

> <Gold.Chemscore.ZeroCoef>
-5.4800

> <Gold.Chemscore.Hbond>
2.9891

> <Gold.Chemscore.Metal>
0.0000

> <Gold.Chemscore.Lipo>
83.6352

> <Gold.Chemscore.Internal_Hbond>
0.0000

> <Gold.Chemscore.DEClash>
1.4161

> <Gold.Chemscore.DEInternal>
3.2382

> <Gold.Chemscore.Rot>
2.8725

> <Gold.Chemscore.Internal.Correction>
   9.000000E+99

> <Gold.Chemscore.Hbonds>
donor molecule, donor type, donor heavy atom, donor atom, acceptor molecule, acceptor atom, score
      L1  H    18    40       P1 10171  0.84
      L1  H    20    43       P1  7921  0.92
      P1  H 10192 10197       L1    20  0.90

> <Gold.Chemscore.Hbond.Weighted>
-9.9835

> <Gold.Chemscore.Metal.Weighted>
-0.0000

> <Gold.Chemscore.Lipo.Weighted>
-9.7853

> <Gold.Chemscore.Internal_Hbond.Weighted>
0.0000

> <Gold.Chemscore.DEClash.Weighted>
1.4161

> <Gold.Chemscore.DEInternal.Weighted>
3.2382

> <Gold.Chemscore.Rot.Weighted>
7.3535

> <Gold.Chemscore.Internal.Correction.Weighted>
   9.000000E+99

> <Gold.Protein.RotatedTorsions>
[ 6907 6896 6895 6894 ] final -101.55 input  -60.11 | X-H torsion
[ 7974 7965 7964 7962 ] final  111.75 input  175.53 | X-H torsion
[ 8008 7997 7996 7995 ] final -134.52 input   59.86 | X-H torsion
[ 10167 10162 10161 10158 ] final    5.29 input  -65.29 | X-H torsion
[ 10718 10713 10712 10709 ] final  155.97 input   66.30 | X-H torsion
[ 10763 10752 10751 10750 ] final -157.97 input  -60.55 | X-H torsion
[ 11005 11000 10999 10996 ] final  104.51 input  -57.11 | X-H torsion

> <Gold.Protein.ActiveResidues>
 VAL166  LYS551  ARG553  GLY616  TRP617  ASP618  TYR619  PRO620  LYS621  CYS622 
 ASP623  PHE694  ASN695  SER759  ASP760  ASP761  ALA762  ILE779  LEU786  VAL792 
 PHE793  MET794  SER795  GLU796  ALA797  LYS798  CYS799  TRP800  GLU811  SER814 

> <Gold.Protein.RotatedAtoms>
  150.7159  134.0717  159.3866 H   0  0  0  0  0  0  0  0  0  0  0  0  # atno 6907 bound_to 6896
  151.8699  135.0491  160.0487 H   0  0  0  0  0  0  0  0  0  0  0  0  # atno 6908 bound_to 6896
  152.2651  133.5296  159.5441 H   0  0  0  0  0  0  0  0  0  0  0  0  # atno 6909 bound_to 6896
  145.2383  139.2790  143.4131 H   0  0  0  0  0  0  0  0  0  0  0  0  # atno 7974 bound_to 7965
  155.3634  140.0484  157.3046 H   0  0  0  0  0  0  0  0  0  0  0  0  # atno 8008 bound_to 7997
  154.5166  140.2210  155.9017 H   0  0  0  0  0  0  0  0  0  0  0  0  # atno 8009 bound_to 7997
  156.1644  140.3109  155.8868 H   0  0  0  0  0  0  0  0  0  0  0  0  # atno 8010 bound_to 7997
  140.6490  143.7591  150.7544 H   0  0  0  0  0  0  0  0  0  0  0  0  # atno 10167 bound_to 10162
  157.2112  131.0698  151.1968 H   0  0  0  0  0  0  0  0  0  0  0  0  # atno 10718 bound_to 10713
  154.7594  135.3113  154.8408 H   0  0  0  0  0  0  0  0  0  0  0  0  # atno 10763 bound_to 10752
  153.9173  135.6799  153.4753 H   0  0  0  0  0  0  0  0  0  0  0  0  # atno 10764 bound_to 10752
  153.1193  135.4830  154.9099 H   0  0  0  0  0  0  0  0  0  0  0  0  # atno 10765 bound_to 10752
  139.8792  134.9303  156.5373 H   0  0  0  0  0  0  0  0  0  0  0  0  # atno 11005 bound_to 11000
  146.3335  140.2738  142.8607 LP  0  0  0  0  0  0  0  0  0  0  0  0  # atno 17320 bound_to 7965
  144.9613  140.8278  143.5512 LP  0  0  0  0  0  0  0  0  0  0  0  0  # atno 17321 bound_to 7965
  140.1238  143.4587  152.2296 LP  0  0  0  0  0  0  0  0  0  0  0  0  # atno 17342 bound_to 10162
  139.5703  144.7459  151.3909 LP  0  0  0  0  0  0  0  0  0  0  0  0  # atno 17343 bound_to 10162
  157.3670  130.7161  149.6539 LP  0  0  0  0  0  0  0  0  0  0  0  0  # atno 17370 bound_to 10713
  155.9690  130.4209  150.4446 LP  0  0  0  0  0  0  0  0  0  0  0  0  # atno 17371 bound_to 10713
  140.8336  133.8259  155.9008 LP  0  0  0  0  0  0  0  0  0  0  0  0  # atno 17394 bound_to 11000
  140.9305  134.2028  157.4867 LP  0  0  0  0  0  0  0  0  0  0  0  0  # atno 17395 bound_to 11000

$$$$
