AV-unprocessed.smi:1210|AV-procd|sdf|5077|dock3
  -GOLD-   22720 4123D 1   1.00000     0.00000
 Structure written by MMmdl.
 44 45  0  0  0  0  0  0  0  0  1 V2000
  153.8571  136.9455  164.4349 C   0  0  0  0  0  0  0  0  0  0  0  0
  154.1137  136.0042  163.2930 C   0  0  0  0  0  0  0  0  0  0  0  0
  154.1076  134.7000  163.5120 N   0  0  0  0  0  0  0  0  0  0  0  0
  154.3631  134.1022  162.2742 O   0  0  0  0  0  0  0  0  0  0  0  0
  154.5123  135.0820  161.3468 C   0  0  0  0  0  0  0  0  0  0  0  0
  154.7888  134.6463  159.9477 C   0  0  0  0  0  0  0  0  0  0  0  0
  154.3671  136.3130  161.9248 C   0  0  0  0  0  0  0  0  0  0  0  0
  154.4496  137.6696  161.2731 C   0  0  0  0  0  0  0  0  0  0  0  0
  153.2484  137.8695  160.3490 C   0  0  0  0  0  0  0  0  0  0  0  0
  152.4782  136.9349  160.1284 O   0  0  0  0  0  0  0  0  0  0  0  0
  153.0911  139.0970  159.8307 N   0  0  0  0  0  0  0  0  0  0  0  0
  151.9847  139.5117  158.9787 C   0  0  0  0  0  0  0  0  0  0  0  0
  152.2722  140.8692  158.3106 C   0  0  0  0  0  0  0  0  0  0  0  0
  151.8858  141.9877  159.1828 N   0  0  0  0  0  0  0  0  0  0  0  0
  150.6680  142.7122  158.7879 C   0  0  0  0  0  0  0  0  0  0  0  0
  150.9455  144.1800  158.4082 C   0  0  0  0  0  0  0  0  0  0  0  0
  151.0603  145.1267  159.6124 C   0  0  0  0  0  0  0  0  0  0  0  0
  152.2377  144.8205  160.5490 C   0  0  0  0  0  0  0  0  0  0  0  0
  152.1487  143.4306  161.2000 C   0  0  0  0  0  0  0  0  0  0  0  0
  152.6283  142.3098  160.2691 C   0  0  0  0  0  0  0  0  0  0  0  0
  153.6732  141.7241  160.5559 O   0  0  0  0  0  0  0  0  0  0  0  0
  152.8045  137.2258  164.4775 H   0  0  0  0  0  0  0  0  0  0  0  0
  154.4396  137.8606  164.3289 H   0  0  0  0  0  0  0  0  0  0  0  0
  154.1212  136.4967  165.3933 H   0  0  0  0  0  0  0  0  0  0  0  0
  154.0665  135.0840  159.2586 H   0  0  0  0  0  0  0  0  0  0  0  0
  154.7305  133.5618  159.8538 H   0  0  0  0  0  0  0  0  0  0  0  0
  155.7856  134.9589  159.6367 H   0  0  0  0  0  0  0  0  0  0  0  0
  154.4821  138.4651  162.0186 H   0  0  0  0  0  0  0  0  0  0  0  0
  155.3607  137.7737  160.6828 H   0  0  0  0  0  0  0  0  0  0  0  0
  153.7746  139.8023  160.0653 H   0  0  0  0  0  0  0  0  0  0  0  0
  151.8418  138.7394  158.2224 H   0  0  0  0  0  0  0  0  0  0  0  0
  151.0591  139.5560  159.5554 H   0  0  0  0  0  0  0  0  0  0  0  0
  153.3258  140.9369  158.0371 H   0  0  0  0  0  0  0  0  0  0  0  0
  151.7380  140.9341  157.3607 H   0  0  0  0  0  0  0  0  0  0  0  0
  150.2083  142.2315  157.9240 H   0  0  0  0  0  0  0  0  0  0  0  0
  149.9197  142.6498  159.5789 H   0  0  0  0  0  0  0  0  0  0  0  0
  151.8382  144.2469  157.7846 H   0  0  0  0  0  0  0  0  0  0  0  0
  150.1227  144.5332  157.7857 H   0  0  0  0  0  0  0  0  0  0  0  0
  151.1628  146.1484  159.2458 H   0  0  0  0  0  0  0  0  0  0  0  0
  150.1295  145.1066  160.1803 H   0  0  0  0  0  0  0  0  0  0  0  0
  153.1807  144.9289  160.0107 H   0  0  0  0  0  0  0  0  0  0  0  0
  152.2579  145.5747  161.3364 H   0  0  0  0  0  0  0  0  0  0  0  0
  152.7820  143.4206  162.0883 H   0  0  0  0  0  0  0  0  0  0  0  0
  151.1386  143.2245  161.5557 H   0  0  0  0  0  0  0  0  0  0  0  0
  1  2  1  0  0  0  0
  1 22  1  0  0  0  0
  1 23  1  0  0  0  0
  1 24  1  0  0  0  0
  2  7  1  0  0  0  0
  2  3  2  0  0  0  0
  3  4  1  0  0  0  0
  4  5  1  0  0  0  0
  5  6  1  0  0  0  0
  5  7  2  0  0  0  0
  6 25  1  0  0  0  0
  6 26  1  0  0  0  0
  6 27  1  0  0  0  0
  7  8  1  0  0  0  0
  8  9  1  0  0  0  0
  8 28  1  0  0  0  0
  8 29  1  0  0  0  0
  9 10  2  0  0  0  0
  9 11  1  0  0  0  0
 11 12  1  0  0  0  0
 11 30  1  0  0  0  0
 12 13  1  0  0  0  0
 12 31  1  0  0  0  0
 12 32  1  0  0  0  0
 13 14  1  0  0  0  0
 13 33  1  0  0  0  0
 13 34  1  0  0  0  0
 14 20  1  0  0  0  0
 14 15  1  0  0  0  0
 15 16  1  0  0  0  0
 15 35  1  0  0  0  0
 15 36  1  0  0  0  0
 16 17  1  0  0  0  0
 16 37  1  0  0  0  0
 16 38  1  0  0  0  0
 17 18  1  0  0  0  0
 17 39  1  0  0  0  0
 17 40  1  0  0  0  0
 18 19  1  0  0  0  0
 18 41  1  0  0  0  0
 18 42  1  0  0  0  0
 19 20  1  0  0  0  0
 19 43  1  0  0  0  0
 19 44  1  0  0  0  0
 20 21  2  0  0  0  0
M  END
> <s_m_source_file>
AV-unprocessed.smi

> <i_m_source_file_index>
1210

> <i_lp_mmshare_version>
43012

> <i_f3d_flags>
0

> <s_epik_input>
W0NIM11jMW5vYyhbQ0gzXSljMVtDSDJdQyg9TylbTkhdW0NIMl1bQ0gyXU4yW0NIMl1bQ0gyXVtDSDJdW0NIMl1bQ0gyXUMyPU8=

> <s_epik_cmdline>
J2VwaWtfcHl0aG9uJywgJy1waCcsICc3LjAnLCAnLXRuJywgJzgnLCAnLW1hJywgJzIwMCcsICctbWV0YWxfYmluZGluZycsICctaW1hZScsICc8aW5maWxlLm1hZT4nLCAnLW9tYWUnLCAnPG91dGZpbGUubWFlPic=

> <r_lp_tautomer_probability>
1

> <r_epik_Ionization_Penalty>
5.48219e-08

> <r_epik_Ionization_Penalty_Charging>
0

> <r_epik_Ionization_Penalty_Neutral>
5.48219e-08

> <r_epik_State_Penalty>
-0

> <r_epik_Charging_Adjusted_Penalty>
0

> <i_epik_Tot_Q>
0

> <i_epik_Tot_abs_Q>
0

> <r_epik_Metal_State_Penalty>
-0

> <b_epik_Metal_Only>
0

> <s_lp_Force_Field>
OPLS_2005

> <r_lp_Energy>
11.1007

> <b_lp_Chiralities_Consistent>
1

> <s_lp_Variant>
AV-unprocessed.smi:1210-1

> <Gold.Version>
5.8.1

> <Gold.Id.Protein>
6NUR|6NUR_protein|mol2

> <Gold.PLP.Fitness>
44.4194

> <Gold.PLP.PLP>
-42.4357

> <Gold.PLP.part.hbond>
-1.0000

> <Gold.PLP.part.metal>
0.0000

> <Gold.PLP.part.buried>
-7.4396

> <Gold.PLP.part.nonpolar>
-34.2798

> <Gold.PLP.part.repulsive>
0.1098

> <Gold.PLP.ligand.clash>
0.0000

> <Gold.PLP.ligand.torsion>
0.5215

> <Gold.PLP.Chemscore.Hbond>
1.0000

> <Gold.PLP.Chemscore.CHOScore>
0.0000

> <Gold.PLP.Chemscore.Metal>
0.0000

> <Gold.Chemscore.Hbonds>
donor molecule, donor type, donor heavy atom, donor atom, acceptor molecule, acceptor atom, score
      P1  H  6896  6909       L1    10  1.00

> <Gold.PLP.Chemscore.Internal.Correction>
0.0267

> <Gold.Rescore>
     Score         DG    S(hbond)    S(metal)    S(lipo)     H(rot)  DE(clash)    DE(int)     intcor
     14.40     -16.45       1.00        0.00     104.50       1.79       0.07       1.99       ----

> <Gold.Chemscore.Fitness>
14.3975

> <Gold.Chemscore.DG>
-16.4537

> <Gold.Chemscore.ZeroCoef>
-5.4800

> <Gold.Chemscore.Hbond>
0.9988

> <Gold.Chemscore.Metal>
0.0000

> <Gold.Chemscore.Lipo>
104.4959

> <Gold.Chemscore.Internal_Hbond>
0.0000

> <Gold.Chemscore.DEClash>
0.0675

> <Gold.Chemscore.DEInternal>
1.9887

> <Gold.Chemscore.Rot>
1.7923

> <Gold.Chemscore.Internal.Correction>
   9.000000E+99

> <Gold.Chemscore.Hbonds>
donor molecule, donor type, donor heavy atom, donor atom, acceptor molecule, acceptor atom, score
      P1  H  6896  6909       L1    10  0.99

> <Gold.Chemscore.Hbond.Weighted>
-3.3361

> <Gold.Chemscore.Metal.Weighted>
-0.0000

> <Gold.Chemscore.Lipo.Weighted>
-12.2260

> <Gold.Chemscore.Internal_Hbond.Weighted>
0.0000

> <Gold.Chemscore.DEClash.Weighted>
0.0675

> <Gold.Chemscore.DEInternal.Weighted>
1.9887

> <Gold.Chemscore.Rot.Weighted>
4.5884

> <Gold.Chemscore.Internal.Correction.Weighted>
   9.000000E+99

> <Gold.Protein.RotatedTorsions>
[ 6907 6896 6895 6894 ] final  148.80 input  -60.11 | X-H torsion
[ 7974 7965 7964 7962 ] final  174.75 input  175.53 | X-H torsion
[ 8008 7997 7996 7995 ] final   29.47 input   59.86 | X-H torsion
[ 10167 10162 10161 10158 ] final -157.81 input  -65.29 | X-H torsion
[ 10718 10713 10712 10709 ] final -157.49 input   66.30 | X-H torsion
[ 10763 10752 10751 10750 ] final   40.43 input  -60.55 | X-H torsion
[ 11005 11000 10999 10996 ] final  -13.30 input  -57.11 | X-H torsion

> <Gold.Protein.ActiveResidues>
 VAL166  LYS551  ARG553  GLY616  TRP617  ASP618  TYR619  PRO620  LYS621  CYS622 
 ASP623  PHE694  ASN695  SER759  ASP760  ASP761  ALA762  ILE779  LEU786  VAL792 
 PHE793  MET794  SER795  GLU796  ALA797  LYS798  CYS799  TRP800  GLU811  SER814 

> <Gold.Protein.RotatedAtoms>
  152.1366  133.4439  159.4746 H   0  0  0  0  0  0  0  0  0  0  0  0  # atno 6907 bound_to 6896
  150.6882  134.2356  159.4461 H   0  0  0  0  0  0  0  0  0  0  0  0  # atno 6908 bound_to 6896
  152.0244  134.9804  160.0622 H   0  0  0  0  0  0  0  0  0  0  0  0  # atno 6909 bound_to 6896
  144.7215  139.9843  143.6439 H   0  0  0  0  0  0  0  0  0  0  0  0  # atno 7974 bound_to 7965
  155.0750  140.3204  155.4619 H   0  0  0  0  0  0  0  0  0  0  0  0  # atno 8008 bound_to 7997
  156.2781  140.2105  156.5823 H   0  0  0  0  0  0  0  0  0  0  0  0  # atno 8009 bound_to 7997
  154.7024  140.0506  157.0459 H   0  0  0  0  0  0  0  0  0  0  0  0  # atno 8010 bound_to 7997
  139.6741  143.9694  152.2300 H   0  0  0  0  0  0  0  0  0  0  0  0  # atno 10167 bound_to 10162
  156.5409  130.8563  151.2748 H   0  0  0  0  0  0  0  0  0  0  0  0  # atno 10718 bound_to 10713
  152.9936  135.6191  154.2625 H   0  0  0  0  0  0  0  0  0  0  0  0  # atno 10763 bound_to 10752
  154.2361  135.2790  155.2873 H   0  0  0  0  0  0  0  0  0  0  0  0  # atno 10764 bound_to 10752
  154.5409  135.5761  153.6896 H   0  0  0  0  0  0  0  0  0  0  0  0  # atno 10765 bound_to 10752
  140.7747  133.8411  155.9238 H   0  0  0  0  0  0  0  0  0  0  0  0  # atno 11005 bound_to 11000
  146.0462  139.3468  143.0667 LP  0  0  0  0  0  0  0  0  0  0  0  0  # atno 17320 bound_to 7965
  145.8272  140.9649  143.0868 LP  0  0  0  0  0  0  0  0  0  0  0  0  # atno 17321 bound_to 7965
  139.9466  144.6647  150.8213 LP  0  0  0  0  0  0  0  0  0  0  0  0  # atno 17342 bound_to 10162
  140.7629  143.3209  151.2624 LP  0  0  0  0  0  0  0  0  0  0  0  0  # atno 17343 bound_to 10162
  157.7405  130.9852  150.2384 LP  0  0  0  0  0  0  0  0  0  0  0  0  # atno 17370 bound_to 10713
  156.2972  130.3753  149.7785 LP  0  0  0  0  0  0  0  0  0  0  0  0  # atno 17371 bound_to 10713
  140.9540  134.1741  157.4705 LP  0  0  0  0  0  0  0  0  0  0  0  0  # atno 17394 bound_to 11000
  139.8751  134.9920  156.5576 LP  0  0  0  0  0  0  0  0  0  0  0  0  # atno 17395 bound_to 11000

$$$$
