AV-unprocessed.smi:1633|AV-procd|sdf|6535|dock1
  -GOLD-   22720 7213D 1   1.00000     0.00000
 Structure written by MMmdl.
 52 54  0  0  0  0  0  0  0  0  3 V2000
  143.5285  141.5869  158.7300 C   0  0  0  0  0  0  0  0  0  0  0  0
  145.0271  141.4387  159.0014 C   0  0  0  0  0  0  0  0  0  0  0  0
  145.3778  140.7010  159.9220 O   0  0  0  0  0  0  0  0  0  0  0  0
  145.9118  142.1154  158.2300 N   0  0  0  0  0  0  0  0  0  0  0  0
  145.5723  142.9455  157.0699 C   0  0  0  0  0  0  0  0  0  0  0  0
  146.1300  142.2861  155.7946 C   0  0  0  0  0  0  0  0  0  0  0  0
  147.5948  142.0382  155.9050 N   0  3  0  0  0  0  0  0  0  0  0  0
  148.1849  141.4004  154.6996 C   0  0  0  0  0  0  0  0  0  0  0  0
  149.5012  140.6431  154.9882 C   0  0  1  0  0  0  0  0  0  0  0  0
  149.9425  140.0086  153.8049 O   0  0  0  0  0  0  0  0  0  0  0  0
  150.6488  141.5565  155.4654 C   0  0  0  0  0  0  0  0  0  0  0  0
  151.3705  141.0206  156.6283 N   0  0  0  0  0  0  0  0  0  0  0  0
  151.9772  139.8129  156.7888 C   0  0  0  0  0  0  0  0  0  0  0  0
  152.5182  139.7873  158.0379 N   0  3  0  0  0  0  0  0  0  0  0  0
  152.2595  140.9981  158.6835 C   0  0  0  0  0  0  0  0  0  0  0  0
  152.6036  141.4422  159.9545 C   0  0  0  0  0  0  0  0  0  0  0  0
  152.1854  142.7419  160.3190 C   0  0  0  0  0  0  0  0  0  0  0  0
  152.5433  143.2575  161.7025 C   0  0  0  0  0  0  0  0  0  0  0  0
  151.4462  143.5503  159.4174 C   0  0  0  0  0  0  0  0  0  0  0  0
  150.9992  144.9456  159.8205 C   0  0  0  0  0  0  0  0  0  0  0  0
  151.1075  143.0808  158.1282 C   0  0  0  0  0  0  0  0  0  0  0  0
  151.5262  141.7969  157.7841 C   0  0  0  0  0  0  0  0  0  0  0  0
  147.9587  141.3138  157.1522 C   0  0  0  0  0  0  0  0  0  0  0  0
  147.3631  141.9970  158.3960 C   0  0  0  0  0  0  0  0  0  0  0  0
  143.2816  141.2517  157.7223 H   0  0  0  0  0  0  0  0  0  0  0  0
  143.2149  142.6246  158.8468 H   0  0  0  0  0  0  0  0  0  0  0  0
  142.9496  140.9848  159.4312 H   0  0  0  0  0  0  0  0  0  0  0  0
  144.5038  143.1199  156.9533 H   0  0  0  0  0  0  0  0  0  0  0  0
  146.0157  143.9336  157.2014 H   0  0  0  0  0  0  0  0  0  0  0  0
  145.6151  141.3409  155.6146 H   0  0  0  0  0  0  0  0  0  0  0  0
  145.9168  142.9301  154.9427 H   0  0  0  0  0  0  0  0  0  0  0  0
  147.4689  140.6928  154.2784 H   0  0  0  0  0  0  0  0  0  0  0  0
  148.3359  142.1691  153.9409 H   0  0  0  0  0  0  0  0  0  0  0  0
  149.3432  139.8758  155.7454 H   0  0  0  0  0  0  0  0  0  0  0  0
  149.3777  140.2592  153.0901 H   0  0  0  0  0  0  0  0  0  0  0  0
  151.3819  141.6767  154.6663 H   0  0  0  0  0  0  0  0  0  0  0  0
  150.2876  142.5592  155.6943 H   0  0  0  0  0  0  0  0  0  0  0  0
  152.0241  139.0190  156.0570 H   0  0  0  0  0  0  0  0  0  0  0  0
  153.1666  140.8212  160.6360 H   0  0  0  0  0  0  0  0  0  0  0  0
  153.1139  144.1835  161.6325 H   0  0  0  0  0  0  0  0  0  0  0  0
  153.1474  142.5366  162.2539 H   0  0  0  0  0  0  0  0  0  0  0  0
  151.6410  143.4496  162.2830 H   0  0  0  0  0  0  0  0  0  0  0  0
  150.4308  145.4288  159.0254 H   0  0  0  0  0  0  0  0  0  0  0  0
  151.8615  145.5749  160.0422 H   0  0  0  0  0  0  0  0  0  0  0  0
  150.3637  144.9036  160.7052 H   0  0  0  0  0  0  0  0  0  0  0  0
  150.5450  143.7007  157.4461 H   0  0  0  0  0  0  0  0  0  0  0  0
  147.6016  140.2845  157.0889 H   0  0  0  0  0  0  0  0  0  0  0  0
  149.0443  141.2689  157.2475 H   0  0  0  0  0  0  0  0  0  0  0  0
  147.7913  142.9930  158.5185 H   0  0  0  0  0  0  0  0  0  0  0  0
  147.6454  141.4408  159.2911 H   0  0  0  0  0  0  0  0  0  0  0  0
  148.0317  142.9453  155.9864 H   0  0  0  0  0  0  0  0  0  0  0  0
  153.0322  139.0020  158.4173 H   0  0  0  0  0  0  0  0  0  0  0  0
  1  2  1  0  0  0  0
  1 25  1  0  0  0  0
  1 26  1  0  0  0  0
  1 27  1  0  0  0  0
  2  3  2  0  0  0  0
  2  4  1  0  0  0  0
  4 24  1  0  0  0  0
  4  5  1  0  0  0  0
  5  6  1  0  0  0  0
  5 28  1  0  0  0  0
  5 29  1  0  0  0  0
  6  7  1  0  0  0  0
  6 30  1  0  0  0  0
  6 31  1  0  0  0  0
  7  8  1  0  0  0  0
  7 23  1  0  0  0  0
  7 51  1  0  0  0  0
  8  9  1  0  0  0  0
  8 32  1  0  0  0  0
  8 33  1  0  0  0  0
  9 10  1  0  0  0  0
  9 11  1  0  0  0  0
  9 34  1  0  0  0  0
 10 35  1  0  0  0  0
 11 12  1  0  0  0  0
 11 36  1  0  0  0  0
 11 37  1  0  0  0  0
 12 22  1  0  0  0  0
 12 13  1  0  0  0  0
 13 14  2  0  0  0  0
 13 38  1  0  0  0  0
 14 15  1  0  0  0  0
 14 52  1  0  0  0  0
 15 22  2  0  0  0  0
 15 16  1  0  0  0  0
 16 17  2  0  0  0  0
 16 39  1  0  0  0  0
 17 18  1  0  0  0  0
 17 19  1  0  0  0  0
 18 40  1  0  0  0  0
 18 41  1  0  0  0  0
 18 42  1  0  0  0  0
 19 20  1  0  0  0  0
 19 21  2  0  0  0  0
 20 43  1  0  0  0  0
 20 44  1  0  0  0  0
 20 45  1  0  0  0  0
 21 22  1  0  0  0  0
 21 46  1  0  0  0  0
 23 24  1  0  0  0  0
 23 47  1  0  0  0  0
 23 48  1  0  0  0  0
 24 49  1  0  0  0  0
 24 50  1  0  0  0  0
M  CHG  1   7   1
M  CHG  1  14   1
M  END
> <s_m_source_file>
AV-unprocessed.smi

> <i_m_source_file_index>
1633

> <i_lp_mmshare_version>
43012

> <i_f3d_flags>
0

> <s_epik_input>
W0NIM11DKD1PKU4xW0NIMl1bQ0gyXU4oW0NIMl1bQ0gyXTEpW0NIMl1bQ0BIXShbT0hdKVtDSDJdbihbY0hdbjIpYyhjMjMpW2NIXWMoW0NIM10pYyhbY0hdMylbQ0gzXQ==

> <s_epik_cmdline>
J2VwaWtfcHl0aG9uJywgJy1waCcsICc3LjAnLCAnLXRuJywgJzgnLCAnLW1hJywgJzIwMCcsICctbWV0YWxfYmluZGluZycsICctaW1hZScsICc8aW5maWxlLm1hZT4nLCAnLW9tYWUnLCAnPG91dGZpbGUubWFlPic=

> <r_epik_Ionization_Penalty>
1.18448

> <r_epik_Ionization_Penalty_Charging>
1.18447

> <r_epik_Ionization_Penalty_Neutral>
4.53746e-06

> <r_epik_State_Penalty>
1.28566

> <r_epik_Charging_Adjusted_Penalty>
2.47013

> <i_epik_Tot_Q>
2

> <i_epik_Tot_abs_Q>
2

> <r_epik_Metal_State_Penalty>
5.30076

> <b_epik_Metal_Only>
0

> <s_lp_Force_Field>
OPLS_2005

> <r_lp_Energy>
59.1266

> <b_lp_Chiralities_Consistent>
1

> <s_lp_Variant>
AV-unprocessed.smi:1633-4

> <Gold.Version>
5.8.1

> <Gold.Id.Protein>
6NUR|6NUR_protein|mol2

> <Gold.PLP.Fitness>
56.3547

> <Gold.PLP.PLP>
-44.8362

> <Gold.PLP.part.hbond>
-4.0000

> <Gold.PLP.part.metal>
0.0000

> <Gold.PLP.part.buried>
-6.3663

> <Gold.PLP.part.nonpolar>
-34.3198

> <Gold.PLP.part.repulsive>
0.1485

> <Gold.PLP.ligand.clash>
0.3338

> <Gold.PLP.ligand.torsion>
1.0208

> <Gold.PLP.Chemscore.Hbond>
4.5760

> <Gold.PLP.Chemscore.CHOScore>
0.0000

> <Gold.PLP.Chemscore.Metal>
0.0000

> <Gold.Chemscore.Hbonds>
donor molecule, donor type, donor heavy atom, donor atom, acceptor molecule, acceptor atom, score
      L1  H     7    51       P1  8028  2.00
      L1  H    10    35       P1  7957  0.61
      P1  H  6934  6946       L1     3  0.54
      P1  H  7989  7998       L1    10  0.80

> <Gold.PLP.Chemscore.Internal.Correction>
0.1659

> <Gold.Rescore>
     Score         DG    S(hbond)    S(metal)    S(lipo)     H(rot)  DE(clash)    DE(int)     intcor
     19.73     -22.83       2.91        0.00     113.84       2.22       2.11       0.99       ----

> <Gold.Chemscore.Fitness>
19.7310

> <Gold.Chemscore.DG>
-22.8312

> <Gold.Chemscore.ZeroCoef>
-5.4800

> <Gold.Chemscore.Hbond>
2.9071

> <Gold.Chemscore.Metal>
0.0000

> <Gold.Chemscore.Lipo>
113.8383

> <Gold.Chemscore.Internal_Hbond>
0.0000

> <Gold.Chemscore.DEClash>
2.1118

> <Gold.Chemscore.DEInternal>
0.9884

> <Gold.Chemscore.Rot>
2.2178

> <Gold.Chemscore.Internal.Correction>
   9.000000E+99

> <Gold.Chemscore.Hbonds>
donor molecule, donor type, donor heavy atom, donor atom, acceptor molecule, acceptor atom, score
      L1  H     7    51       P1  8028  0.64
      L1  H    10    35       P1  7957  0.59
      P1  H  6934  6946       L1     3  0.54
      P1  H  7989  7998       L1    10  0.16

> <Gold.Chemscore.Hbond.Weighted>
-9.7097

> <Gold.Chemscore.Metal.Weighted>
-0.0000

> <Gold.Chemscore.Lipo.Weighted>
-13.3191

> <Gold.Chemscore.Internal_Hbond.Weighted>
0.0000

> <Gold.Chemscore.DEClash.Weighted>
2.1118

> <Gold.Chemscore.DEInternal.Weighted>
0.9884

> <Gold.Chemscore.Rot.Weighted>
5.6775

> <Gold.Chemscore.Internal.Correction.Weighted>
   9.000000E+99

> <Gold.Protein.RotatedTorsions>
[ 6907 6896 6895 6894 ] final  -32.43 input  -60.11 | X-H torsion
[ 7974 7965 7964 7962 ] final  -67.72 input  175.53 | X-H torsion
[ 8008 7997 7996 7995 ] final  -58.75 input   59.86 | X-H torsion
[ 10167 10162 10161 10158 ] final  109.04 input  -65.29 | X-H torsion
[ 10718 10713 10712 10709 ] final   97.72 input   66.30 | X-H torsion
[ 10763 10752 10751 10750 ] final  -65.82 input  -60.55 | X-H torsion
[ 11005 11000 10999 10996 ] final  -82.94 input  -57.11 | X-H torsion

> <Gold.Protein.ActiveResidues>
 VAL166  LYS551  ARG553  GLY616  TRP617  ASP618  TYR619  PRO620  LYS621  CYS622 
 ASP623  PHE694  ASN695  SER759  ASP760  ASP761  ALA762  ILE779  LEU786  VAL792 
 PHE793  MET794  SER795  GLU796  ALA797  LYS798  CYS799  TRP800  GLU811  SER814 

> <Gold.Protein.RotatedAtoms>
  151.0788  134.9845  159.8345 H   0  0  0  0  0  0  0  0  0  0  0  0  # atno 6907 bound_to 6896
  152.5417  134.2207  159.8796 H   0  0  0  0  0  0  0  0  0  0  0  0  # atno 6908 bound_to 6896
  151.2236  133.4445  159.2635 H   0  0  0  0  0  0  0  0  0  0  0  0  # atno 6909 bound_to 6896
  145.7256  140.9019  143.0607 H   0  0  0  0  0  0  0  0  0  0  0  0  # atno 7974 bound_to 7965
  154.4322  140.1077  156.6006 H   0  0  0  0  0  0  0  0  0  0  0  0  # atno 8008 bound_to 7997
  155.5915  140.3492  155.4549 H   0  0  0  0  0  0  0  0  0  0  0  0  # atno 8009 bound_to 7997
  156.0243  140.1246  157.0314 H   0  0  0  0  0  0  0  0  0  0  0  0  # atno 8010 bound_to 7997
  139.6798  144.7119  151.1535 H   0  0  0  0  0  0  0  0  0  0  0  0  # atno 10167 bound_to 10162
  157.6908  131.0618  150.4687 H   0  0  0  0  0  0  0  0  0  0  0  0  # atno 10718 bound_to 10713
  154.3507  135.6137  153.5641 H   0  0  0  0  0  0  0  0  0  0  0  0  # atno 10763 bound_to 10752
  152.9798  135.5791  154.4747 H   0  0  0  0  0  0  0  0  0  0  0  0  # atno 10764 bound_to 10752
  154.4467  135.2851  155.1787 H   0  0  0  0  0  0  0  0  0  0  0  0  # atno 10765 bound_to 10752
  141.1660  133.7269  156.8647 H   0  0  0  0  0  0  0  0  0  0  0  0  # atno 11005 bound_to 11000
  144.6906  139.9261  143.7470 LP  0  0  0  0  0  0  0  0  0  0  0  0  # atno 17320 bound_to 7965
  146.0585  139.3580  143.0595 LP  0  0  0  0  0  0  0  0  0  0  0  0  # atno 17321 bound_to 7965
  140.7648  143.5716  150.8990 LP  0  0  0  0  0  0  0  0  0  0  0  0  # atno 17342 bound_to 10162
  139.9387  143.6407  152.3059 LP  0  0  0  0  0  0  0  0  0  0  0  0  # atno 17343 bound_to 10162
  156.5026  130.4120  149.6345 LP  0  0  0  0  0  0  0  0  0  0  0  0  # atno 17370 bound_to 10713
  156.3314  130.7333  151.2263 LP  0  0  0  0  0  0  0  0  0  0  0  0  # atno 17371 bound_to 10713
  140.1824  134.9024  157.2964 LP  0  0  0  0  0  0  0  0  0  0  0  0  # atno 17394 bound_to 11000
  140.2380  134.3829  155.7492 LP  0  0  0  0  0  0  0  0  0  0  0  0  # atno 17395 bound_to 11000

$$$$
