AV-unprocessed.smi:44|AV-procd|sdf|402|dock3
  -GOLD-   2262016253D 1   1.00000     0.00000
 Structure written by MMmdl.
 29 31  0  0  0  0  0  0  0  0  3 V2000
  152.4277  140.1729  158.7807 O   0  0  0  0  0  0  0  0  0  0  0  0
  152.1749  140.0188  157.5876 C   0  0  0  0  0  0  0  0  0  0  0  0
  152.8749  139.2838  156.6643 N   0  5  0  0  0  0  0  0  0  0  0  0
  152.4677  139.1960  155.3375 C   0  0  0  0  0  0  0  0  0  0  0  0
  151.4423  139.7517  154.7960 N   0  0  0  0  0  0  0  0  0  0  0  0
  150.6601  140.5283  155.6637 C   0  0  0  0  0  0  0  0  0  0  0  0
  150.9686  140.6854  156.9947 C   0  0  0  0  0  0  0  0  0  0  0  0
  150.0370  141.4927  157.5897 N   0  3  0  0  0  0  0  0  0  0  0  0
  149.2050  141.7885  156.5913 C   0  0  0  0  0  0  0  0  0  0  0  0
  149.5195  141.2354  155.3812 N   0  0  0  0  0  0  0  0  0  0  0  0
  148.7866  141.3835  154.0874 C   0  0  2  0  0  0  0  0  0  0  0  0
  147.4431  142.0726  154.3306 C   0  0  0  0  0  0  0  0  0  0  0  0
  146.5245  140.8880  154.5344 C   0  0  0  0  0  0  0  0  0  0  0  0
  147.1022  139.8817  153.5398 C   0  0  2  0  0  0  0  0  0  0  0  0
  146.7697  138.4220  153.8818 C   0  0  0  0  0  0  0  0  0  0  0  0
  146.7480  137.6457  152.7040 O   0  0  0  0  0  0  0  0  0  0  0  0
  148.5115  140.1024  153.5997 O   0  0  0  0  0  0  0  0  0  0  0  0
  149.9906  141.7926  158.5551 H   0  0  0  0  0  0  0  0  0  0  0  0
  149.4673  141.9381  153.4405 H   0  0  0  0  0  0  0  0  0  0  0  0
  146.7478  140.1378  152.5395 H   0  0  0  0  0  0  0  0  0  0  0  0
  153.1393  138.5686  154.7459 H   0  0  0  0  0  0  0  0  0  0  0  0
  148.3451  142.4184  156.7267 H   0  0  0  0  0  0  0  0  0  0  0  0
  147.4789  142.7629  155.1746 H   0  0  0  0  0  0  0  0  0  0  0  0
  147.1649  142.6245  153.4317 H   0  0  0  0  0  0  0  0  0  0  0  0
  146.6050  140.5175  155.5572 H   0  0  0  0  0  0  0  0  0  0  0  0
  145.4778  141.1233  154.3398 H   0  0  0  0  0  0  0  0  0  0  0  0
  147.4794  138.0054  154.5965 H   0  0  0  0  0  0  0  0  0  0  0  0
  145.7791  138.3597  154.3336 H   0  0  0  0  0  0  0  0  0  0  0  0
  147.4778  137.0457  152.7239 H   0  0  0  0  0  0  0  0  0  0  0  0
  1  2  2  0  0  0  0
  2  7  1  0  0  0  0
  2  3  1  0  0  0  0
  3  4  1  0  0  0  0
  4 21  1  0  0  0  0
  4  5  2  0  0  0  0
  5  6  1  0  0  0  0
  6 10  1  0  0  0  0
  6  7  2  0  0  0  0
  7  8  1  0  0  0  0
  8  9  2  0  0  0  0
  8 18  1  0  0  0  0
  9 10  1  0  0  0  0
  9 22  1  0  0  0  0
 10 11  1  0  0  0  0
 11 19  1  0  0  0  0
 11 17  1  0  0  0  0
 11 12  1  0  0  0  0
 12 13  1  0  0  0  0
 12 23  1  0  0  0  0
 12 24  1  0  0  0  0
 13 14  1  0  0  0  0
 13 25  1  0  0  0  0
 13 26  1  0  0  0  0
 14 20  1  0  0  0  0
 14 15  1  0  0  0  0
 14 17  1  0  0  0  0
 15 16  1  0  0  0  0
 15 27  1  0  0  0  0
 15 28  1  0  0  0  0
 16 29  1  0  0  0  0
M  CHG  1   3  -1
M  CHG  1   8   1
M  END
> <s_m_source_file>
AV-unprocessed.smi

> <i_m_source_file_index>
44

> <i_lp_mmshare_version>
43012

> <i_f3d_flags>
0

> <s_epik_input>
bjFbY0hdW25IXWMoPU8pYyhjMTIpbltjSF1uMltDQEhdM1tDSDJdW0NIMl1bQ0BIXShPMylbQ0gyXVtPSF0=

> <s_epik_cmdline>
J2VwaWtfcHl0aG9uJywgJy1waCcsICc3LjAnLCAnLXRuJywgJzgnLCAnLW1hJywgJzIwMCcsICctbWV0YWxfYmluZGluZycsICctaW1hZScsICc8aW5maWxlLm1hZT4nLCAnLW9tYWUnLCAnPG91dGZpbGUubWFlPic=

> <r_lp_tautomer_probability>
0.144281

> <r_epik_Ionization_Penalty>
5.63685

> <r_epik_Ionization_Penalty_Charging>
5.58669

> <r_epik_Ionization_Penalty_Neutral>
0.0501585

> <r_epik_State_Penalty>
1.20809

> <r_epik_Charging_Adjusted_Penalty>
6.79478

> <i_epik_Tot_Q>
0

> <i_epik_Tot_abs_Q>
2

> <r_epik_Metal_State_Penalty>
1.52487

> <b_epik_Metal_Only>
0

> <s_epik_Chemistry_Notes>
This compound contains an acetal/aminal-like group ( X-CH(R)-Y where X, Y are N, S, or O) that may be acid/base labile, releasing an aldehyde.

> <s_lp_Force_Field>
OPLS_2005

> <r_lp_Energy>
43.1819

> <b_lp_Chiralities_Consistent>
1

> <s_lp_Variant>
AV-unprocessed.smi:44-8

> <Gold.Version>
5.8.1

> <Gold.Id.Protein>
6NUR|6NUR_protein|mol2

> <Gold.PLP.Fitness>
38.6074

> <Gold.PLP.PLP>
-26.1300

> <Gold.PLP.part.hbond>
-3.0000

> <Gold.PLP.part.metal>
0.0000

> <Gold.PLP.part.buried>
-2.9881

> <Gold.PLP.part.nonpolar>
-22.6514

> <Gold.PLP.part.repulsive>
3.1080

> <Gold.PLP.ligand.clash>
0.0000

> <Gold.PLP.ligand.torsion>
0.4903

> <Gold.PLP.Chemscore.Hbond>
3.9920

> <Gold.PLP.Chemscore.CHOScore>
0.4888

> <Gold.PLP.Chemscore.Metal>
0.0000

> <Gold.Chemscore.Hbonds>
donor molecule, donor type, donor heavy atom, donor atom, acceptor molecule, acceptor atom, score
      L1  H    16    29       P1  7948  0.98
      P1  H  7989  7998       L1     5  1.00
      P1  H  7997  8009       L1     3  2.00
      L1  C     9    22       P1  8028  0.49

> <Gold.PLP.Chemscore.Internal.Correction>
0.0157

> <Gold.Rescore>
     Score         DG    S(hbond)    S(metal)    S(lipo)     H(rot)  DE(clash)    DE(int)     intcor
      8.77     -10.25       2.31        0.00      24.68       2.27       1.12       0.36       ----

> <Gold.Chemscore.Fitness>
8.7696

> <Gold.Chemscore.DG>
-10.2520

> <Gold.Chemscore.ZeroCoef>
-5.4800

> <Gold.Chemscore.Hbond>
2.3056

> <Gold.Chemscore.Metal>
0.0000

> <Gold.Chemscore.Lipo>
24.6812

> <Gold.Chemscore.Internal_Hbond>
0.0000

> <Gold.Chemscore.DEClash>
1.1203

> <Gold.Chemscore.DEInternal>
0.3621

> <Gold.Chemscore.Rot>
2.2720

> <Gold.Chemscore.Internal.Correction>
   9.000000E+99

> <Gold.Chemscore.Hbonds>
donor molecule, donor type, donor heavy atom, donor atom, acceptor molecule, acceptor atom, score
      L1  H    16    29       P1  7948  0.93
      P1  H  7989  7998       L1     5  0.25
      P1  H  7997  8009       L1     3  0.20

> <Gold.Chemscore.Hbond.Weighted>
-7.7007

> <Gold.Chemscore.Metal.Weighted>
-0.0000

> <Gold.Chemscore.Lipo.Weighted>
-2.8877

> <Gold.Chemscore.Internal_Hbond.Weighted>
0.0000

> <Gold.Chemscore.DEClash.Weighted>
1.1203

> <Gold.Chemscore.DEInternal.Weighted>
0.3621

> <Gold.Chemscore.Rot.Weighted>
5.8164

> <Gold.Chemscore.Internal.Correction.Weighted>
   9.000000E+99

> <Gold.Protein.RotatedTorsions>
[ 6907 6896 6895 6894 ] final  -14.79 input  -60.11 | X-H torsion
[ 7974 7965 7964 7962 ] final -174.93 input  175.53 | X-H torsion
[ 8008 7997 7996 7995 ] final  166.59 input   59.86 | X-H torsion
[ 10167 10162 10161 10158 ] final  -40.27 input  -65.29 | X-H torsion
[ 10718 10713 10712 10709 ] final   72.44 input   66.30 | X-H torsion
[ 10763 10752 10751 10750 ] final  167.15 input  -60.55 | X-H torsion
[ 11005 11000 10999 10996 ] final  106.73 input  -57.11 | X-H torsion

> <Gold.Protein.ActiveResidues>
 VAL166  LYS551  ARG553  GLY616  TRP617  ASP618  TYR619  PRO620  LYS621  CYS622 
 ASP623  PHE694  ASN695  SER759  ASP760  ASP761  ALA762  ILE779  LEU786  VAL792 
 PHE793  MET794  SER795  GLU796  ALA797  LYS798  CYS799  TRP800  GLU811  SER814 

> <Gold.Protein.RotatedAtoms>
  151.3340  135.0848  159.9347 H   0  0  0  0  0  0  0  0  0  0  0  0  # atno 6907 bound_to 6896
  152.5228  133.9514  159.7684 H   0  0  0  0  0  0  0  0  0  0  0  0  # atno 6908 bound_to 6896
  150.9858  133.6146  159.2745 H   0  0  0  0  0  0  0  0  0  0  0  0  # atno 6909 bound_to 6896
  144.7130  140.1398  143.6392 H   0  0  0  0  0  0  0  0  0  0  0  0  # atno 7974 bound_to 7965
  156.1706  140.1639  156.8454 H   0  0  0  0  0  0  0  0  0  0  0  0  # atno 8008 bound_to 7997
  154.5253  140.0769  156.8280 H   0  0  0  0  0  0  0  0  0  0  0  0  # atno 8009 bound_to 7997
  155.3521  140.3390  155.4242 H   0  0  0  0  0  0  0  0  0  0  0  0  # atno 8010 bound_to 7997
  140.7039  143.3164  151.2900 H   0  0  0  0  0  0  0  0  0  0  0  0  # atno 10167 bound_to 10162
  157.6501  130.9578  150.0928 H   0  0  0  0  0  0  0  0  0  0  0  0  # atno 10718 bound_to 10713
  154.3495  135.2753  155.2379 H   0  0  0  0  0  0  0  0  0  0  0  0  # atno 10763 bound_to 10752
  154.4615  135.5906  153.6262 H   0  0  0  0  0  0  0  0  0  0  0  0  # atno 10764 bound_to 10752
  152.9851  135.6066  154.3704 H   0  0  0  0  0  0  0  0  0  0  0  0  # atno 10765 bound_to 10752
  139.8818  134.9378  156.5711 H   0  0  0  0  0  0  0  0  0  0  0  0  # atno 11005 bound_to 11000
  145.9212  139.2547  143.1380 LP  0  0  0  0  0  0  0  0  0  0  0  0  # atno 17320 bound_to 7965
  145.9618  140.8829  143.0207 LP  0  0  0  0  0  0  0  0  0  0  0  0  # atno 17321 bound_to 7965
  139.6604  144.0200  152.2688 LP  0  0  0  0  0  0  0  0  0  0  0  0  # atno 17342 bound_to 10162
  139.9766  144.6457  150.7940 LP  0  0  0  0  0  0  0  0  0  0  0  0  # atno 17343 bound_to 10162
  156.1873  130.3653  149.8956 LP  0  0  0  0  0  0  0  0  0  0  0  0  # atno 17370 bound_to 10713
  156.6894  130.8889  151.3586 LP  0  0  0  0  0  0  0  0  0  0  0  0  # atno 17371 bound_to 10713
  140.8097  133.8439  155.8799 LP  0  0  0  0  0  0  0  0  0  0  0  0  # atno 17394 bound_to 11000
  140.9517  134.1770  157.4722 LP  0  0  0  0  0  0  0  0  0  0  0  0  # atno 17395 bound_to 11000

$$$$
