AV-unprocessed.smi:2130|AV-procd|sdf|8686|dock8
  -GOLD-   2272011443D 1   1.00000     0.00000
 Structure written by MMmdl.
 32 33  0  0  0  0  0  0  0  0  1 V2000
  151.9430  145.1904  160.0465 C   0  0  0  0  0  0  0  0  0  0  0  0
  151.7884  143.9982  159.1179 C   0  0  0  0  0  0  0  0  0  0  0  0
  151.2227  144.0236  157.9066 C   0  0  0  0  0  0  0  0  0  0  0  0
  151.1860  142.4521  157.1454 S   0  0  0  0  0  0  0  0  0  0  0  0
  151.9918  141.7270  158.5828 C   0  0  0  0  0  0  0  0  0  0  0  0
  152.2636  140.5300  158.6615 O   0  0  0  0  0  0  0  0  0  0  0  0
  152.2328  142.7309  159.5204 N   0  0  0  0  0  0  0  0  0  0  0  0
  152.9019  142.4776  160.8033 C   0  0  0  0  0  0  0  0  0  0  0  0
  153.9905  141.3992  160.7226 C   0  0  0  0  0  0  0  0  0  0  0  0
  154.8195  141.3984  159.8113 O   0  0  0  0  0  0  0  0  0  0  0  0
  153.9645  140.4747  161.6946 N   0  0  0  0  0  0  0  0  0  0  0  0
  154.8733  139.3387  161.8084 C   0  0  1  0  0  0  0  0  0  0  0  0
  155.5966  139.4220  163.1595 C   0  0  0  0  0  0  0  0  0  0  0  0
  154.1808  137.9955  161.6482 C   0  0  0  0  0  0  0  0  0  0  0  0
  153.7615  137.1887  162.8545 C   0  0  0  0  0  0  0  0  0  0  0  0
  154.8868  136.6997  161.9717 C   0  0  0  0  0  0  0  0  0  0  0  0
  151.2852  146.0018  159.7338 H   0  0  0  0  0  0  0  0  0  0  0  0
  152.9689  145.5585  160.0238 H   0  0  0  0  0  0  0  0  0  0  0  0
  151.6823  144.9375  161.0742 H   0  0  0  0  0  0  0  0  0  0  0  0
  150.8074  144.8893  157.4121 H   0  0  0  0  0  0  0  0  0  0  0  0
  153.3622  143.3993  161.1631 H   0  0  0  0  0  0  0  0  0  0  0  0
  152.1740  142.2026  161.5669 H   0  0  0  0  0  0  0  0  0  0  0  0
  153.2507  140.5557  162.4041 H   0  0  0  0  0  0  0  0  0  0  0  0
  155.6337  139.4227  161.0294 H   0  0  0  0  0  0  0  0  0  0  0  0
  156.3247  138.6173  163.2652 H   0  0  0  0  0  0  0  0  0  0  0  0
  154.8955  139.3458  163.9912 H   0  0  0  0  0  0  0  0  0  0  0  0
  156.1343  140.3653  163.2613 H   0  0  0  0  0  0  0  0  0  0  0  0
  153.4944  137.9611  160.8039 H   0  0  0  0  0  0  0  0  0  0  0  0
  154.0272  137.5701  163.8386 H   0  0  0  0  0  0  0  0  0  0  0  0
  152.8122  136.6597  162.8000 H   0  0  0  0  0  0  0  0  0  0  0  0
  154.6876  135.8468  161.3261 H   0  0  0  0  0  0  0  0  0  0  0  0
  155.8971  136.7553  162.3720 H   0  0  0  0  0  0  0  0  0  0  0  0
  1  2  1  0  0  0  0
  1 17  1  0  0  0  0
  1 18  1  0  0  0  0
  1 19  1  0  0  0  0
  2  7  1  0  0  0  0
  2  3  2  0  0  0  0
  3  4  1  0  0  0  0
  3 20  1  0  0  0  0
  4  5  1  0  0  0  0
  5  6  2  0  0  0  0
  5  7  1  0  0  0  0
  7  8  1  0  0  0  0
  8  9  1  0  0  0  0
  8 21  1  0  0  0  0
  8 22  1  0  0  0  0
  9 10  2  0  0  0  0
  9 11  1  0  0  0  0
 11 12  1  0  0  0  0
 11 23  1  0  0  0  0
 12 13  1  0  0  0  0
 12 14  1  0  0  0  0
 12 24  1  0  0  0  0
 13 25  1  0  0  0  0
 13 26  1  0  0  0  0
 13 27  1  0  0  0  0
 14 16  1  0  0  0  0
 14 15  1  0  0  0  0
 14 28  1  0  0  0  0
 15 16  1  0  0  0  0
 15 29  1  0  0  0  0
 15 30  1  0  0  0  0
 16 31  1  0  0  0  0
 16 32  1  0  0  0  0
M  END
> <s_m_source_file>
AV-unprocessed.smi

> <i_m_source_file_index>
2130

> <i_lp_mmshare_version>
43012

> <i_f3d_flags>
0

> <s_epik_input>
W0NIM11jMVtjSF1zYyg9TyluMVtDSDJdQyg9TylbTkhdW0NASF0oW0NIM10pW0NIXTJbQ0gyXVtDSDJdMg==

> <s_epik_cmdline>
J2VwaWtfcHl0aG9uJywgJy1waCcsICc3LjAnLCAnLXRuJywgJzgnLCAnLW1hJywgJzIwMCcsICctbWV0YWxfYmluZGluZycsICctaW1hZScsICc8aW5maWxlLm1hZT4nLCAnLW9tYWUnLCAnPG91dGZpbGUubWFlPic=

> <r_lp_tautomer_probability>
1

> <r_epik_Ionization_Penalty>
1.32882e-06

> <r_epik_Ionization_Penalty_Charging>
1.22222e-06

> <r_epik_Ionization_Penalty_Neutral>
1.066e-07

> <r_epik_State_Penalty>
-0

> <r_epik_Charging_Adjusted_Penalty>
1.22222e-06

> <i_epik_Tot_Q>
0

> <i_epik_Tot_abs_Q>
0

> <r_epik_Metal_State_Penalty>
-0

> <b_epik_Metal_Only>
0

> <s_lp_Force_Field>
OPLS_2005

> <r_lp_Energy>
16.4034

> <b_lp_Chiralities_Consistent>
1

> <s_lp_Variant>
AV-unprocessed.smi:2130-2

> <Gold.Version>
5.8.1

> <Gold.Id.Protein>
6NUR|6NUR_protein|mol2

> <Gold.PLP.Fitness>
38.8036

> <Gold.PLP.PLP>
-37.2045

> <Gold.PLP.part.hbond>
0.0000

> <Gold.PLP.part.metal>
0.0000

> <Gold.PLP.part.buried>
-3.7730

> <Gold.PLP.part.nonpolar>
-33.7659

> <Gold.PLP.part.repulsive>
0.0172

> <Gold.PLP.ligand.clash>
0.0000

> <Gold.PLP.ligand.torsion>
1.0979

> <Gold.PLP.Chemscore.Hbond>
0.0000

> <Gold.PLP.Chemscore.CHOScore>
0.9090

> <Gold.PLP.Chemscore.Metal>
0.0000

> <Gold.Chemscore.Hbonds>
donor molecule, donor type, donor heavy atom, donor atom, acceptor molecule, acceptor atom, score
      L1  C     3    20       P1  8028  0.81

> <Gold.PLP.Chemscore.Internal.Correction>
1.0679

> <Gold.Rescore>
     Score         DG    S(hbond)    S(metal)    S(lipo)     H(rot)  DE(clash)    DE(int)     intcor
     10.01     -12.25       0.00        0.00      92.70       1.59       0.28       1.96       ----

> <Gold.Chemscore.Fitness>
10.0112

> <Gold.Chemscore.DG>
-12.2494

> <Gold.Chemscore.ZeroCoef>
-5.4800

> <Gold.Chemscore.Hbond>
0.0000

> <Gold.Chemscore.Metal>
0.0000

> <Gold.Chemscore.Lipo>
92.7049

> <Gold.Chemscore.Internal_Hbond>
0.0000

> <Gold.Chemscore.DEClash>
0.2795

> <Gold.Chemscore.DEInternal>
1.9587

> <Gold.Chemscore.Rot>
1.5926

> <Gold.Chemscore.Internal.Correction>
   9.000000E+99

> <Gold.Chemscore.Hbond.Weighted>
-0.0000

> <Gold.Chemscore.Metal.Weighted>
-0.0000

> <Gold.Chemscore.Lipo.Weighted>
-10.8465

> <Gold.Chemscore.Internal_Hbond.Weighted>
0.0000

> <Gold.Chemscore.DEClash.Weighted>
0.2795

> <Gold.Chemscore.DEInternal.Weighted>
1.9587

> <Gold.Chemscore.Rot.Weighted>
4.0771

> <Gold.Chemscore.Internal.Correction.Weighted>
   9.000000E+99

> <Gold.Protein.RotatedTorsions>
[ 6907 6896 6895 6894 ] final  -99.39 input  -60.11 | X-H torsion
[ 7974 7965 7964 7962 ] final  -52.74 input  175.53 | X-H torsion
[ 8008 7997 7996 7995 ] final  161.25 input   59.86 | X-H torsion
[ 10167 10162 10161 10158 ] final  174.05 input  -65.29 | X-H torsion
[ 10718 10713 10712 10709 ] final  165.78 input   66.30 | X-H torsion
[ 10763 10752 10751 10750 ] final  -96.62 input  -60.55 | X-H torsion
[ 11005 11000 10999 10996 ] final  -40.50 input  -57.11 | X-H torsion

> <Gold.Protein.ActiveResidues>
 VAL166  LYS551  ARG553  GLY616  TRP617  ASP618  TYR619  PRO620  LYS621  CYS622 
 ASP623  PHE694  ASN695  SER759  ASP760  ASP761  ALA762  ILE779  LEU786  VAL792 
 PHE793  MET794  SER795  GLU796  ALA797  LYS798  CYS799  TRP800  GLU811  SER814 

> <Gold.Protein.RotatedAtoms>
  150.7078  134.1047  159.3978 H   0  0  0  0  0  0  0  0  0  0  0  0  # atno 6907 bound_to 6896
  151.9034  135.0366  160.0517 H   0  0  0  0  0  0  0  0  0  0  0  0  # atno 6908 bound_to 6896
  152.2395  133.5088  159.5299 H   0  0  0  0  0  0  0  0  0  0  0  0  # atno 6909 bound_to 6896
  145.9046  140.7966  142.9726 H   0  0  0  0  0  0  0  0  0  0  0  0  # atno 7974 bound_to 7965
  156.2116  140.1782  156.7682 H   0  0  0  0  0  0  0  0  0  0  0  0  # atno 8008 bound_to 7997
  154.5731  140.0679  156.9023 H   0  0  0  0  0  0  0  0  0  0  0  0  # atno 8009 bound_to 7997
  155.2637  140.3337  155.4273 H   0  0  0  0  0  0  0  0  0  0  0  0  # atno 8010 bound_to 7997
  139.5129  144.3191  152.0220 H   0  0  0  0  0  0  0  0  0  0  0  0  # atno 10167 bound_to 10162
  157.0753  131.0377  151.2596 H   0  0  0  0  0  0  0  0  0  0  0  0  # atno 10718 bound_to 10713
  154.7256  135.5076  153.8881 H   0  0  0  0  0  0  0  0  0  0  0  0  # atno 10763 bound_to 10752
  153.0902  135.6657  153.9878 H   0  0  0  0  0  0  0  0  0  0  0  0  # atno 10764 bound_to 10752
  153.9691  135.3040  155.3408 H   0  0  0  0  0  0  0  0  0  0  0  0  # atno 10765 bound_to 10752
  141.0179  133.6876  156.2330 H   0  0  0  0  0  0  0  0  0  0  0  0  # atno 11005 bound_to 11000
  144.6738  140.1730  143.7412 LP  0  0  0  0  0  0  0  0  0  0  0  0  # atno 17320 bound_to 7965
  145.8748  139.2291  143.1640 LP  0  0  0  0  0  0  0  0  0  0  0  0  # atno 17321 bound_to 7965
  140.2633  144.4044  150.6177 LP  0  0  0  0  0  0  0  0  0  0  0  0  # atno 17342 bound_to 10162
  140.6141  143.2171  151.6826 LP  0  0  0  0  0  0  0  0  0  0  0  0  # atno 17343 bound_to 10162
  157.4845  130.7785  149.7446 LP  0  0  0  0  0  0  0  0  0  0  0  0  # atno 17370 bound_to 10713
  155.9939  130.3921  150.2882 LP  0  0  0  0  0  0  0  0  0  0  0  0  # atno 17371 bound_to 10713
  140.6623  134.4955  157.5584 LP  0  0  0  0  0  0  0  0  0  0  0  0  # atno 17394 bound_to 11000
  139.9128  134.8309  156.1468 LP  0  0  0  0  0  0  0  0  0  0  0  0  # atno 17395 bound_to 11000

$$$$
