AV-unprocessed.smi:642|AV-procd|sdf|3152|dock4
  -GOLD-   22720 0 73D 1   1.00000     0.00000
 Structure written by MMmdl.
 49 51  0  0  0  0  0  0  0  0  1 V2000
  150.1817  140.5508  154.6938 O   0  0  0  0  0  0  0  0  0  0  0  0
  149.5162  140.5568  155.7296 C   0  0  0  0  0  0  0  0  0  0  0  0
  148.2988  140.0073  155.8660 N   0  0  0  0  0  0  0  0  0  0  0  0
  147.5559  139.2928  154.8855 C   0  0  0  0  0  0  0  0  0  0  0  0
  147.6010  139.6382  153.5136 C   0  0  0  0  0  0  0  0  0  0  0  0
  146.8035  138.9254  152.6007 C   0  0  0  0  0  0  0  0  0  0  0  0
  145.9789  137.8991  153.0947 C   0  0  0  0  0  0  0  0  0  0  0  0
  145.9160  137.5665  154.4000 N   0  0  0  0  0  0  0  0  0  0  0  0
  146.6848  138.2448  155.2870 C   0  0  0  0  0  0  0  0  0  0  0  0
  146.6186  137.8513  156.6387 N   0  0  0  0  0  0  0  0  0  0  0  0
  145.8962  138.7957  157.4840 C   0  0  0  0  0  0  0  0  0  0  0  0
  145.6474  138.1776  158.8705 C   0  0  0  0  0  0  0  0  0  0  0  0
  146.8864  137.7678  159.4429 O   0  0  0  0  0  0  0  0  0  0  0  0
  147.5476  136.7885  158.6468 C   0  0  0  0  0  0  0  0  0  0  0  0
  147.8517  137.3729  157.2565 C   0  0  0  0  0  0  0  0  0  0  0  0
  149.9361  141.0947  156.8838 N   0  0  0  0  0  0  0  0  0  0  0  0
  151.2373  141.7209  157.1092 C   0  0  0  0  0  0  0  0  0  0  0  0
  152.1427  140.7904  157.9480 C   0  0  0  0  0  0  0  0  0  0  0  0
  151.9814  140.9044  159.4736 C   0  0  0  0  0  0  0  0  0  0  0  0
  152.8749  141.9991  160.0843 C   0  0  0  0  0  0  0  0  0  0  0  0
  152.4204  143.4403  159.8036 C   0  0  0  0  0  0  0  0  0  0  0  0
  152.2542  143.7911  158.3142 C   0  0  0  0  0  0  0  0  0  0  0  0
  151.0139  143.1338  157.6869 C   0  0  0  0  0  0  0  0  0  0  0  0
  147.9150  139.9921  156.7998 H   0  0  0  0  0  0  0  0  0  0  0  0
  148.2192  140.4471  153.1542 H   0  0  0  0  0  0  0  0  0  0  0  0
  146.8172  139.1658  151.5480 H   0  0  0  0  0  0  0  0  0  0  0  0
  145.3497  137.3324  152.4246 H   0  0  0  0  0  0  0  0  0  0  0  0
  146.4863  139.7079  157.5826 H   0  0  0  0  0  0  0  0  0  0  0  0
  144.9468  139.0799  157.0300 H   0  0  0  0  0  0  0  0  0  0  0  0
  145.1765  138.9083  159.5284 H   0  0  0  0  0  0  0  0  0  0  0  0
  144.9673  137.3271  158.7995 H   0  0  0  0  0  0  0  0  0  0  0  0
  148.4734  136.4941  159.1412 H   0  0  0  0  0  0  0  0  0  0  0  0
  146.9296  135.8928  158.5659 H   0  0  0  0  0  0  0  0  0  0  0  0
  148.3146  136.6144  156.6238 H   0  0  0  0  0  0  0  0  0  0  0  0
  148.5609  138.1964  157.3514 H   0  0  0  0  0  0  0  0  0  0  0  0
  149.3156  141.0485  157.6788 H   0  0  0  0  0  0  0  0  0  0  0  0
  151.7286  141.8493  156.1429 H   0  0  0  0  0  0  0  0  0  0  0  0
  151.9647  139.7563  157.6495 H   0  0  0  0  0  0  0  0  0  0  0  0
  153.1853  140.9741  157.6860 H   0  0  0  0  0  0  0  0  0  0  0  0
  150.9360  141.0453  159.7507 H   0  0  0  0  0  0  0  0  0  0  0  0
  152.2794  139.9526  159.9148 H   0  0  0  0  0  0  0  0  0  0  0  0
  152.9065  141.8585  161.1653 H   0  0  0  0  0  0  0  0  0  0  0  0
  153.9021  141.8669  159.7426 H   0  0  0  0  0  0  0  0  0  0  0  0
  151.4878  143.6388  160.3333 H   0  0  0  0  0  0  0  0  0  0  0  0
  153.1546  144.1179  160.2402 H   0  0  0  0  0  0  0  0  0  0  0  0
  152.1350  144.8727  158.2416 H   0  0  0  0  0  0  0  0  0  0  0  0
  153.1554  143.5528  157.7483 H   0  0  0  0  0  0  0  0  0  0  0  0
  150.6530  143.7710  156.8784 H   0  0  0  0  0  0  0  0  0  0  0  0
  150.2069  143.1212  158.4212 H   0  0  0  0  0  0  0  0  0  0  0  0
  1  2  2  0  0  0  0
  2  3  1  0  0  0  0
  2 16  1  0  0  0  0
  3  4  1  0  0  0  0
  3 24  1  0  0  0  0
  4  9  1  0  0  0  0
  4  5  2  0  0  0  0
  5  6  1  0  0  0  0
  5 25  1  0  0  0  0
  6  7  2  0  0  0  0
  6 26  1  0  0  0  0
  7  8  1  0  0  0  0
  7 27  1  0  0  0  0
  8  9  2  0  0  0  0
  9 10  1  0  0  0  0
 10 15  1  0  0  0  0
 10 11  1  0  0  0  0
 11 12  1  0  0  0  0
 11 28  1  0  0  0  0
 11 29  1  0  0  0  0
 12 13  1  0  0  0  0
 12 30  1  0  0  0  0
 12 31  1  0  0  0  0
 13 14  1  0  0  0  0
 14 15  1  0  0  0  0
 14 32  1  0  0  0  0
 14 33  1  0  0  0  0
 15 34  1  0  0  0  0
 15 35  1  0  0  0  0
 16 17  1  0  0  0  0
 16 36  1  0  0  0  0
 17 23  1  0  0  0  0
 17 18  1  0  0  0  0
 17 37  1  0  0  0  0
 18 19  1  0  0  0  0
 18 38  1  0  0  0  0
 18 39  1  0  0  0  0
 19 20  1  0  0  0  0
 19 40  1  0  0  0  0
 19 41  1  0  0  0  0
 20 21  1  0  0  0  0
 20 42  1  0  0  0  0
 20 43  1  0  0  0  0
 21 22  1  0  0  0  0
 21 44  1  0  0  0  0
 21 45  1  0  0  0  0
 22 23  1  0  0  0  0
 22 46  1  0  0  0  0
 22 47  1  0  0  0  0
 23 48  1  0  0  0  0
 23 49  1  0  0  0  0
M  END
> <s_m_source_file>
AV-unprocessed.smi

> <i_m_source_file_index>
642

> <i_lp_mmshare_version>
43012

> <i_f3d_flags>
0

> <s_epik_input>
W0NIMl0xW0NIMl1bQ0gyXVtDSDJdW0NIMl1bQ0gyXVtDSF0xW05IXUMoPU8pW05IXWMyW2NIXVtjSF1bY0hdbmMyTjNbQ0gyXVtDSDJdT1tDSDJdW0NIMl0z

> <s_epik_cmdline>
J2VwaWtfcHl0aG9uJywgJy1waCcsICc3LjAnLCAnLXRuJywgJzgnLCAnLW1hJywgJzIwMCcsICctbWV0YWxfYmluZGluZycsICctaW1hZScsICc8aW5maWxlLm1hZT4nLCAnLW9tYWUnLCAnPG91dGZpbGUubWFlPic=

> <r_lp_tautomer_probability>
1

> <r_epik_Ionization_Penalty>
0.00218327

> <r_epik_Ionization_Penalty_Charging>
0

> <r_epik_Ionization_Penalty_Neutral>
0.00218327

> <r_epik_State_Penalty>
0.00146969

> <r_epik_Charging_Adjusted_Penalty>
0.00146969

> <i_epik_Tot_Q>
0

> <i_epik_Tot_abs_Q>
0

> <r_epik_Metal_State_Penalty>
-0

> <b_epik_Metal_Only>
0

> <s_lp_Force_Field>
OPLS_2005

> <r_lp_Energy>
33.5624

> <b_lp_Chiralities_Consistent>
1

> <s_lp_Variant>
AV-unprocessed.smi:642-1

> <Gold.Version>
5.8.1

> <Gold.Id.Protein>
6NUR|6NUR_protein|mol2

> <Gold.PLP.Fitness>
36.3158

> <Gold.PLP.PLP>
-31.9458

> <Gold.PLP.part.hbond>
-2.0000

> <Gold.PLP.part.metal>
0.0000

> <Gold.PLP.part.buried>
-4.2856

> <Gold.PLP.part.nonpolar>
-26.8247

> <Gold.PLP.part.repulsive>
0.2094

> <Gold.PLP.ligand.clash>
0.0000

> <Gold.PLP.ligand.torsion>
0.4986

> <Gold.PLP.Chemscore.Hbond>
1.7120

> <Gold.PLP.Chemscore.CHOScore>
0.0000

> <Gold.PLP.Chemscore.Metal>
0.0000

> <Gold.Chemscore.Hbonds>
donor molecule, donor type, donor heavy atom, donor atom, acceptor molecule, acceptor atom, score
      P1  H  6934  6947       L1    13  0.80
      P1  H  7989  7998       L1     1  0.91

> <Gold.PLP.Chemscore.Internal.Correction>
0.2313

> <Gold.Rescore>
     Score         DG    S(hbond)    S(metal)    S(lipo)     H(rot)  DE(clash)    DE(int)     intcor
     15.84     -18.47       1.64        0.00      90.00       1.18       0.00       2.63       ----

> <Gold.Chemscore.Fitness>
15.8396

> <Gold.Chemscore.DG>
-18.4697

> <Gold.Chemscore.ZeroCoef>
-5.4800

> <Gold.Chemscore.Hbond>
1.6403

> <Gold.Chemscore.Metal>
0.0000

> <Gold.Chemscore.Lipo>
89.9961

> <Gold.Chemscore.Internal_Hbond>
0.0000

> <Gold.Chemscore.DEClash>
0.0021

> <Gold.Chemscore.DEInternal>
2.6280

> <Gold.Chemscore.Rot>
1.1791

> <Gold.Chemscore.Internal.Correction>
   9.000000E+99

> <Gold.Chemscore.Hbonds>
donor molecule, donor type, donor heavy atom, donor atom, acceptor molecule, acceptor atom, score
      P1  H  6934  6947       L1    13  0.35
      P1  H  7989  7998       L1     1  0.89

> <Gold.Chemscore.Hbond.Weighted>
-5.4786

> <Gold.Chemscore.Metal.Weighted>
-0.0000

> <Gold.Chemscore.Lipo.Weighted>
-10.5295

> <Gold.Chemscore.Internal_Hbond.Weighted>
0.0000

> <Gold.Chemscore.DEClash.Weighted>
0.0021

> <Gold.Chemscore.DEInternal.Weighted>
2.6280

> <Gold.Chemscore.Rot.Weighted>
3.0184

> <Gold.Chemscore.Internal.Correction.Weighted>
   9.000000E+99

> <Gold.Protein.RotatedTorsions>
[ 6907 6896 6895 6894 ] final   88.82 input  -60.11 | X-H torsion
[ 7974 7965 7964 7962 ] final   -5.16 input  175.53 | X-H torsion
[ 8008 7997 7996 7995 ] final    5.20 input   59.86 | X-H torsion
[ 10167 10162 10161 10158 ] final  -52.55 input  -65.29 | X-H torsion
[ 10718 10713 10712 10709 ] final -128.47 input   66.30 | X-H torsion
[ 10763 10752 10751 10750 ] final  -64.60 input  -60.55 | X-H torsion
[ 11005 11000 10999 10996 ] final -171.12 input  -57.11 | X-H torsion

> <Gold.Protein.ActiveResidues>
 VAL166  LYS551  ARG553  GLY616  TRP617  ASP618  TYR619  PRO620  LYS621  CYS622 
 ASP623  PHE694  ASN695  SER759  ASP760  ASP761  ALA762  ILE779  LEU786  VAL792 
 PHE793  MET794  SER795  GLU796  ALA797  LYS798  CYS799  TRP800  GLU811  SER814 

> <Gold.Protein.RotatedAtoms>
  152.5429  134.2062  159.8731 H   0  0  0  0  0  0  0  0  0  0  0  0  # atno 6907 bound_to 6896
  151.2048  133.4583  159.2604 H   0  0  0  0  0  0  0  0  0  0  0  0  # atno 6908 bound_to 6896
  151.0954  134.9953  159.8479 H   0  0  0  0  0  0  0  0  0  0  0  0  # atno 6909 bound_to 6896
  146.2358  140.1980  142.8333 H   0  0  0  0  0  0  0  0  0  0  0  0  # atno 7974 bound_to 7965
  154.7254  140.2720  155.6503 H   0  0  0  0  0  0  0  0  0  0  0  0  # atno 8008 bound_to 7997
  156.2835  140.2726  156.1864 H   0  0  0  0  0  0  0  0  0  0  0  0  # atno 8009 bound_to 7997
  155.0451  140.0371  157.2513 H   0  0  0  0  0  0  0  0  0  0  0  0  # atno 8010 bound_to 7997
  140.6531  143.2580  151.4665 H   0  0  0  0  0  0  0  0  0  0  0  0  # atno 10167 bound_to 10162
  156.1954  130.6823  151.0476 H   0  0  0  0  0  0  0  0  0  0  0  0  # atno 10718 bound_to 10713
  154.3326  135.6173  153.5558 H   0  0  0  0  0  0  0  0  0  0  0  0  # atno 10763 bound_to 10752
  152.9810  135.5750  154.4945 H   0  0  0  0  0  0  0  0  0  0  0  0  # atno 10764 bound_to 10752
  154.4634  135.2856  155.1673 H   0  0  0  0  0  0  0  0  0  0  0  0  # atno 10765 bound_to 10752
  140.5118  134.5794  157.5021 H   0  0  0  0  0  0  0  0  0  0  0  0  # atno 11005 bound_to 11000
  144.9805  140.8454  143.5400 LP  0  0  0  0  0  0  0  0  0  0  0  0  # atno 17320 bound_to 7965
  145.1972  139.2270  143.5211 LP  0  0  0  0  0  0  0  0  0  0  0  0  # atno 17321 bound_to 7965
  139.5749  144.1842  152.1889 LP  0  0  0  0  0  0  0  0  0  0  0  0  # atno 17342 bound_to 10162
  140.1149  144.5424  150.6900 LP  0  0  0  0  0  0  0  0  0  0  0  0  # atno 17343 bound_to 10162
  157.6954  131.0795  150.6983 LP  0  0  0  0  0  0  0  0  0  0  0  0  # atno 17370 bound_to 10713
  156.7040  130.4632  149.5565 LP  0  0  0  0  0  0  0  0  0  0  0  0  # atno 17371 bound_to 10713
  139.9654  134.7381  156.0149 LP  0  0  0  0  0  0  0  0  0  0  0  0  # atno 17394 bound_to 11000
  141.1381  133.6570  156.3652 LP  0  0  0  0  0  0  0  0  0  0  0  0  # atno 17395 bound_to 11000

$$$$
