AV-unprocessed.smi:3058|AV-procd|sdf|11669|dock3
  -GOLD-   2272017 73D 1   1.00000     0.00000
 Structure written by MMmdl.
 38 40  0  0  0  0  0  0  0  0  1 V2000
  146.6877  134.2015  153.1317 O   0  0  0  0  0  0  0  0  0  0  0  0
  147.0617  133.4541  152.2274 C   0  0  0  0  0  0  0  0  0  0  0  0
  148.1497  132.6749  152.3279 N   0  0  0  0  0  0  0  0  0  0  0  0
  149.0257  132.6038  153.4910 C   0  0  0  0  0  0  0  0  0  0  0  0
  149.1391  131.1677  154.0291 C   0  0  0  0  0  0  0  0  0  0  0  0
  150.4717  130.9159  154.7066 C   0  0  0  0  0  0  0  0  0  0  0  0
  150.9893  131.8344  155.6430 C   0  0  0  0  0  0  0  0  0  0  0  0
  152.2289  131.5576  156.2506 C   0  0  0  0  0  0  0  0  0  0  0  0
  152.9006  130.3712  155.8936 C   0  0  0  0  0  0  0  0  0  0  0  0
  152.4144  129.4843  154.9986 N   0  0  0  0  0  0  0  0  0  0  0  0
  151.2244  129.7568  154.4212 C   0  0  0  0  0  0  0  0  0  0  0  0
  146.2882  133.3693  150.8999 C   0  0  2  0  0  0  0  0  0  0  0  0
  144.9395  134.1299  150.9283 C   0  0  0  0  0  0  0  0  0  0  0  0
  143.9191  133.0560  150.5032 C   0  0  1  0  0  0  0  0  0  0  0  0
  144.1366  132.6989  149.0202 C   0  0  0  0  0  0  0  0  0  0  0  0
  145.4471  131.8885  149.0545 C   0  0  0  0  0  0  0  0  0  0  0  0
  145.8296  131.9312  150.5462 C   0  0  2  0  0  0  0  0  0  0  0  0
  144.4552  131.8165  151.2053 C   0  0  0  0  0  0  0  0  0  0  0  0
  148.3873  132.0882  151.5411 H   0  0  0  0  0  0  0  0  0  0  0  0
  150.0113  132.9991  153.2388 H   0  0  0  0  0  0  0  0  0  0  0  0
  148.6171  133.2577  154.2619 H   0  0  0  0  0  0  0  0  0  0  0  0
  148.3328  130.9686  154.7364 H   0  0  0  0  0  0  0  0  0  0  0  0
  149.0207  130.4472  153.2187 H   0  0  0  0  0  0  0  0  0  0  0  0
  150.4459  132.7340  155.8930 H   0  0  0  0  0  0  0  0  0  0  0  0
  152.6552  132.2382  156.9727 H   0  0  0  0  0  0  0  0  0  0  0  0
  153.8539  130.1282  156.3394 H   0  0  0  0  0  0  0  0  0  0  0  0
  150.8626  129.0269  153.7120 H   0  0  0  0  0  0  0  0  0  0  0  0
  146.9227  133.7624  150.1035 H   0  0  0  0  0  0  0  0  0  0  0  0
  144.6988  134.5059  151.9242 H   0  0  0  0  0  0  0  0  0  0  0  0
  144.9376  134.9844  150.2506 H   0  0  0  0  0  0  0  0  0  0  0  0
  142.8871  133.3126  150.7448 H   0  0  0  0  0  0  0  0  0  0  0  0
  143.3173  132.0867  148.6412 H   0  0  0  0  0  0  0  0  0  0  0  0
  144.2118  133.5856  148.3897 H   0  0  0  0  0  0  0  0  0  0  0  0
  145.2701  130.8620  148.7308 H   0  0  0  0  0  0  0  0  0  0  0  0
  146.2185  132.3117  148.4099 H   0  0  0  0  0  0  0  0  0  0  0  0
  146.5373  131.1525  150.8339 H   0  0  0  0  0  0  0  0  0  0  0  0
  144.4674  131.9068  152.2918 H   0  0  0  0  0  0  0  0  0  0  0  0
  143.9218  130.9032  150.9356 H   0  0  0  0  0  0  0  0  0  0  0  0
  1  2  2  0  0  0  0
  2  3  1  0  0  0  0
  2 12  1  0  0  0  0
  3  4  1  0  0  0  0
  3 19  1  0  0  0  0
  4  5  1  0  0  0  0
  4 20  1  0  0  0  0
  4 21  1  0  0  0  0
  5  6  1  0  0  0  0
  5 22  1  0  0  0  0
  5 23  1  0  0  0  0
  6 11  1  0  0  0  0
  6  7  2  0  0  0  0
  7  8  1  0  0  0  0
  7 24  1  0  0  0  0
  8  9  2  0  0  0  0
  8 25  1  0  0  0  0
  9 10  1  0  0  0  0
  9 26  1  0  0  0  0
 10 11  2  0  0  0  0
 11 27  1  0  0  0  0
 12 17  1  0  0  0  0
 12 13  1  0  0  0  0
 12 28  1  0  0  0  0
 13 14  1  0  0  0  0
 13 29  1  0  0  0  0
 13 30  1  0  0  0  0
 14 18  1  0  0  0  0
 14 15  1  0  0  0  0
 14 31  1  0  0  0  0
 15 16  1  0  0  0  0
 15 32  1  0  0  0  0
 15 33  1  0  0  0  0
 16 17  1  0  0  0  0
 16 34  1  0  0  0  0
 16 35  1  0  0  0  0
 17 18  1  0  0  0  0
 17 36  1  0  0  0  0
 18 37  1  0  0  0  0
 18 38  1  0  0  0  0
M  END
> <s_m_source_file>
AV-unprocessed.smi

> <i_m_source_file_index>
3058

> <i_lp_mmshare_version>
43012

> <i_f3d_flags>
0

> <s_epik_input>
W0NIMl0xW0NIMl1bQ0BIXShbQ0gyXTIpW0NAQEhdKFtDSDJdW0NAQEhdMTIpQyg9TylbTkhdW0NIMl1bQ0gyXWMzW2NIXVtjSF1bY0hdbltjSF0z

> <s_epik_cmdline>
J2VwaWtfcHl0aG9uJywgJy1waCcsICc3LjAnLCAnLXRuJywgJzgnLCAnLW1hJywgJzIwMCcsICctbWV0YWxfYmluZGluZycsICctaW1hZScsICc8aW5maWxlLm1hZT4nLCAnLW9tYWUnLCAnPG91dGZpbGUubWFlPic=

> <r_epik_Ionization_Penalty>
0.0135821

> <r_epik_Ionization_Penalty_Charging>
0

> <r_epik_Ionization_Penalty_Neutral>
0.0135821

> <r_epik_State_Penalty>
0.0105782

> <r_epik_Charging_Adjusted_Penalty>
0.0105782

> <i_epik_Tot_Q>
0

> <i_epik_Tot_abs_Q>
0

> <r_epik_Metal_State_Penalty>
0.0103407

> <b_epik_Metal_Only>
0

> <s_lp_Force_Field>
OPLS_2005

> <r_lp_Energy>
46.4183

> <b_lp_Chiralities_Consistent>
1

> <s_lp_Variant>
AV-unprocessed.smi:3058-1

> <Gold.Version>
5.8.1

> <Gold.Id.Protein>
6NUR|6NUR_protein|mol2

> <Gold.PLP.Fitness>
44.2187

> <Gold.PLP.PLP>
-39.0007

> <Gold.PLP.part.hbond>
-1.0000

> <Gold.PLP.part.metal>
0.0000

> <Gold.PLP.part.buried>
-5.1135

> <Gold.PLP.part.nonpolar>
-33.2388

> <Gold.PLP.part.repulsive>
0.1651

> <Gold.PLP.ligand.clash>
0.0000

> <Gold.PLP.ligand.torsion>
0.4141

> <Gold.PLP.Chemscore.Hbond>
1.0000

> <Gold.PLP.Chemscore.CHOScore>
1.0000

> <Gold.PLP.Chemscore.Metal>
0.0000

> <Gold.Chemscore.Hbonds>
donor molecule, donor type, donor heavy atom, donor atom, acceptor molecule, acceptor atom, score
      L1  H     3    19       P1 10747  1.00
      L1  C    11    27       P1 10737  0.71

> <Gold.PLP.Chemscore.Internal.Correction>
0.0463

> <Gold.Rescore>
     Score         DG    S(hbond)    S(metal)    S(lipo)     H(rot)  DE(clash)    DE(int)     intcor
     17.25     -17.52       1.00        0.00     104.23       1.37       0.00       0.27       ----

> <Gold.Chemscore.Fitness>
17.2501

> <Gold.Chemscore.DG>
-17.5195

> <Gold.Chemscore.ZeroCoef>
-5.4800

> <Gold.Chemscore.Hbond>
1.0000

> <Gold.Chemscore.Metal>
0.0000

> <Gold.Chemscore.Lipo>
104.2273

> <Gold.Chemscore.Internal_Hbond>
0.0000

> <Gold.Chemscore.DEClash>
0.0019

> <Gold.Chemscore.DEInternal>
0.2675

> <Gold.Chemscore.Rot>
1.3653

> <Gold.Chemscore.Internal.Correction>
   9.000000E+99

> <Gold.Chemscore.Hbonds>
donor molecule, donor type, donor heavy atom, donor atom, acceptor molecule, acceptor atom, score
      L1  H     3    19       P1 10747  1.00

> <Gold.Chemscore.Hbond.Weighted>
-3.3400

> <Gold.Chemscore.Metal.Weighted>
-0.0000

> <Gold.Chemscore.Lipo.Weighted>
-12.1946

> <Gold.Chemscore.Internal_Hbond.Weighted>
0.0000

> <Gold.Chemscore.DEClash.Weighted>
0.0019

> <Gold.Chemscore.DEInternal.Weighted>
0.2675

> <Gold.Chemscore.Rot.Weighted>
3.4951

> <Gold.Chemscore.Internal.Correction.Weighted>
   9.000000E+99

> <Gold.Protein.RotatedTorsions>
[ 6907 6896 6895 6894 ] final   84.08 input  -60.11 | X-H torsion
[ 7974 7965 7964 7962 ] final -104.77 input  175.53 | X-H torsion
[ 8008 7997 7996 7995 ] final  -87.31 input   59.86 | X-H torsion
[ 10167 10162 10161 10158 ] final -100.57 input  -65.29 | X-H torsion
[ 10718 10713 10712 10709 ] final -167.47 input   66.30 | X-H torsion
[ 10763 10752 10751 10750 ] final  -96.40 input  -60.55 | X-H torsion
[ 11005 11000 10999 10996 ] final -129.74 input  -57.11 | X-H torsion

> <Gold.Protein.ActiveResidues>
 VAL166  LYS551  ARG553  GLY616  TRP617  ASP618  TYR619  PRO620  LYS621  CYS622 
 ASP623  PHE694  ASN695  SER759  ASP760  ASP761  ALA762  ILE779  LEU786  VAL792 
 PHE793  MET794  SER795  GLU796  ALA797  LYS798  CYS799  TRP800  GLU811  SER814 

> <Gold.Protein.RotatedAtoms>
  152.5343  134.2796  159.9002 H   0  0  0  0  0  0  0  0  0  0  0  0  # atno 6907 bound_to 6896
  151.2751  133.4230  159.2631 H   0  0  0  0  0  0  0  0  0  0  0  0  # atno 6908 bound_to 6896
  151.0333  134.9570  159.8179 H   0  0  0  0  0  0  0  0  0  0  0  0  # atno 6909 bound_to 6896
  145.2389  140.9198  143.3161 H   0  0  0  0  0  0  0  0  0  0  0  0  # atno 7974 bound_to 7965
  154.6618  140.0567  157.0070 H   0  0  0  0  0  0  0  0  0  0  0  0  # atno 8008 bound_to 7997
  155.1218  140.3248  155.4477 H   0  0  0  0  0  0  0  0  0  0  0  0  # atno 8009 bound_to 7997
  156.2621  140.1996  156.6340 H   0  0  0  0  0  0  0  0  0  0  0  0  # atno 8010 bound_to 7997
  140.2504  143.3476  152.0719 H   0  0  0  0  0  0  0  0  0  0  0  0  # atno 10167 bound_to 10162
  156.6828  130.9128  151.3059 H   0  0  0  0  0  0  0  0  0  0  0  0  # atno 10718 bound_to 10713
  154.7236  135.5085  153.8851 H   0  0  0  0  0  0  0  0  0  0  0  0  # atno 10763 bound_to 10752
  153.0884  135.6652  153.9910 H   0  0  0  0  0  0  0  0  0  0  0  0  # atno 10764 bound_to 10752
  153.9728  135.3036  155.3405 H   0  0  0  0  0  0  0  0  0  0  0  0  # atno 10765 bound_to 10752
  140.9405  134.1199  157.4155 H   0  0  0  0  0  0  0  0  0  0  0  0  # atno 11005 bound_to 11000
  144.9607  139.3983  143.6357 LP  0  0  0  0  0  0  0  0  0  0  0  0  # atno 17320 bound_to 7965
  146.3334  139.8659  142.8848 LP  0  0  0  0  0  0  0  0  0  0  0  0  # atno 17321 bound_to 7965
  139.5048  144.6782  151.6075 LP  0  0  0  0  0  0  0  0  0  0  0  0  # atno 17342 bound_to 10162
  140.6044  143.9550  150.6409 LP  0  0  0  0  0  0  0  0  0  0  0  0  # atno 17343 bound_to 10162
  157.7037  130.9361  150.0865 LP  0  0  0  0  0  0  0  0  0  0  0  0  # atno 17370 bound_to 10713
  156.1855  130.3652  149.8979 LP  0  0  0  0  0  0  0  0  0  0  0  0  # atno 17371 bound_to 10713
  139.8819  135.0035  156.6191 LP  0  0  0  0  0  0  0  0  0  0  0  0  # atno 17394 bound_to 11000
  140.7740  133.8715  155.8514 LP  0  0  0  0  0  0  0  0  0  0  0  0  # atno 17395 bound_to 11000

$$$$
