AV-unprocessed.smi:1554|AV-procd|sdf|6245|dock5
  -GOLD-   22720 6423D 1   1.00000     0.00000
 Structure written by MMmdl.
 48 50  0  0  0  0  0  0  0  0  2 V2000
  152.2361  143.1272  160.7133 C   0  0  0  0  0  0  0  0  0  0  0  0
  152.0530  142.2356  159.4976 C   0  0  0  0  0  0  0  0  0  0  0  0
  152.6117  140.9376  159.5072 C   0  0  0  0  0  0  0  0  0  0  0  0
  152.4616  140.0761  158.3984 C   0  0  0  0  0  0  0  0  0  0  0  0
  152.9159  138.7841  158.1956 N   0  0  0  0  0  0  0  0  0  0  0  0
  152.4538  138.5256  156.9759 C   0  0  0  0  0  0  0  0  0  0  0  0
  151.7516  139.4980  156.3632 N   0  0  0  0  0  0  0  0  0  0  0  0
  151.1489  139.4403  155.0431 C   0  0  0  0  0  0  0  0  0  0  0  0
  150.1127  138.3064  154.9170 C   0  0  1  0  0  0  0  0  0  0  0  0
  149.4307  138.4242  153.6824 O   0  0  0  0  0  0  0  0  0  0  0  0
  150.7714  136.9146  154.9846 C   0  0  0  0  0  0  0  0  0  0  0  0
  149.8461  135.8301  154.5672 N   0  3  1  0  0  0  0  0  0  0  0  0
  150.4773  134.4904  154.6117 C   0  0  0  0  0  0  0  0  0  0  0  0
  149.4980  133.4210  154.1004 C   0  0  0  0  0  0  0  0  0  0  0  0
  148.3040  133.4594  154.8724 O   0  0  0  0  0  0  0  0  0  0  0  0
  147.6362  134.7126  154.7725 C   0  0  1  0  0  0  0  0  0  0  0  0
  146.3252  134.6207  155.5610 C   0  0  0  0  0  0  0  0  0  0  0  0
  148.5621  135.8208  155.3110 C   0  0  0  0  0  0  0  0  0  0  0  0
  151.7315  140.5527  157.2703 C   0  0  0  0  0  0  0  0  0  0  0  0
  151.1724  141.8429  157.2482 C   0  0  0  0  0  0  0  0  0  0  0  0
  151.3315  142.6903  158.3645 C   0  0  0  0  0  0  0  0  0  0  0  0
  150.7242  144.0817  158.3304 C   0  0  0  0  0  0  0  0  0  0  0  0
  152.8169  142.6284  161.4899 H   0  0  0  0  0  0  0  0  0  0  0  0
  151.2688  143.3941  161.1397 H   0  0  0  0  0  0  0  0  0  0  0  0
  152.7597  144.0436  160.4399 H   0  0  0  0  0  0  0  0  0  0  0  0
  153.1615  140.5910  160.3699 H   0  0  0  0  0  0  0  0  0  0  0  0
  152.6340  137.5728  156.4999 H   0  0  0  0  0  0  0  0  0  0  0  0
  150.6917  140.4067  154.8262 H   0  0  0  0  0  0  0  0  0  0  0  0
  151.9460  139.3036  154.3111 H   0  0  0  0  0  0  0  0  0  0  0  0
  149.3821  138.4176  155.7181 H   0  0  0  0  0  0  0  0  0  0  0  0
  149.4881  137.5996  153.2238 H   0  0  0  0  0  0  0  0  0  0  0  0
  151.6516  136.9165  154.3394 H   0  0  0  0  0  0  0  0  0  0  0  0
  151.1354  136.7101  155.9928 H   0  0  0  0  0  0  0  0  0  0  0  0
  151.3785  134.4831  153.9972 H   0  0  0  0  0  0  0  0  0  0  0  0
  150.7825  134.2620  155.6342 H   0  0  0  0  0  0  0  0  0  0  0  0
  149.2683  133.5750  153.0446 H   0  0  0  0  0  0  0  0  0  0  0  0
  149.9435  132.4300  154.1875 H   0  0  0  0  0  0  0  0  0  0  0  0
  147.3975  134.9092  153.7256 H   0  0  0  0  0  0  0  0  0  0  0  0
  145.7687  135.5567  155.5082 H   0  0  0  0  0  0  0  0  0  0  0  0
  146.5114  134.4003  156.6126 H   0  0  0  0  0  0  0  0  0  0  0  0
  145.6858  133.8320  155.1637 H   0  0  0  0  0  0  0  0  0  0  0  0
  148.7580  135.6635  156.3731 H   0  0  0  0  0  0  0  0  0  0  0  0
  148.0631  136.7849  155.2186 H   0  0  0  0  0  0  0  0  0  0  0  0
  150.6241  142.1769  156.3803 H   0  0  0  0  0  0  0  0  0  0  0  0
  150.1761  144.2539  157.4036 H   0  0  0  0  0  0  0  0  0  0  0  0
  151.5046  144.8394  158.4042 H   0  0  0  0  0  0  0  0  0  0  0  0
  150.0289  144.2175  159.1590 H   0  0  0  0  0  0  0  0  0  0  0  0
  149.6253  136.0057  153.5968 H   0  0  0  0  0  0  0  0  0  0  0  0
  1  2  1  0  0  0  0
  1 23  1  0  0  0  0
  1 24  1  0  0  0  0
  1 25  1  0  0  0  0
  2 21  1  0  0  0  0
  2  3  2  0  0  0  0
  3  4  1  0  0  0  0
  3 26  1  0  0  0  0
  4 19  2  0  0  0  0
  4  5  1  0  0  0  0
  5  6  2  0  0  0  0
  6  7  1  0  0  0  0
  6 27  1  0  0  0  0
  7  8  1  0  0  0  0
  7 19  1  0  0  0  0
  8  9  1  0  0  0  0
  8 28  1  0  0  0  0
  8 29  1  0  0  0  0
  9 10  1  0  0  0  0
  9 11  1  0  0  0  0
  9 30  1  0  0  0  0
 10 31  1  0  0  0  0
 11 12  1  0  0  0  0
 11 32  1  0  0  0  0
 11 33  1  0  0  0  0
 12 18  1  0  0  0  0
 12 13  1  0  0  0  0
 12 48  1  0  0  0  0
 13 14  1  0  0  0  0
 13 34  1  0  0  0  0
 13 35  1  0  0  0  0
 14 15  1  0  0  0  0
 14 36  1  0  0  0  0
 14 37  1  0  0  0  0
 15 16  1  0  0  0  0
 16 17  1  0  0  0  0
 16 18  1  0  0  0  0
 16 38  1  0  0  0  0
 17 39  1  0  0  0  0
 17 40  1  0  0  0  0
 17 41  1  0  0  0  0
 18 42  1  0  0  0  0
 18 43  1  0  0  0  0
 19 20  1  0  0  0  0
 20 21  2  0  0  0  0
 20 44  1  0  0  0  0
 21 22  1  0  0  0  0
 22 45  1  0  0  0  0
 22 46  1  0  0  0  0
 22 47  1  0  0  0  0
M  CHG  1  12   1
M  END
> <s_m_source_file>
AV-unprocessed.smi

> <i_m_source_file_index>
1554

> <i_lp_mmshare_version>
43012

> <i_f3d_flags>
0

> <s_epik_input>
W0NIM11jKFtjSF0xKWMoW0NIM10pW2NIXWMoYzEyKW4oW2NIXW4yKVtDSDJdW0NASF0oW09IXSlbQ0gyXU4zW0NIMl1bQ0gyXU9bQ0BASF0oW0NIM10pW0NIMl0z

> <s_epik_cmdline>
J2VwaWtfcHl0aG9uJywgJy1waCcsICc3LjAnLCAnLXRuJywgJzgnLCAnLW1hJywgJzIwMCcsICctbWV0YWxfYmluZGluZycsICctaW1hZScsICc8aW5maWxlLm1hZT4nLCAnLW9tYWUnLCAnPG91dGZpbGUubWFlPic=

> <r_epik_Ionization_Penalty>
0.695251

> <r_epik_Ionization_Penalty_Charging>
0.608065

> <r_epik_Ionization_Penalty_Neutral>
0.0871863

> <r_epik_State_Penalty>
0.731955

> <r_epik_Charging_Adjusted_Penalty>
1.34002

> <i_epik_Tot_Q>
1

> <i_epik_Tot_abs_Q>
1

> <r_epik_Metal_State_Penalty>
0.652186

> <b_epik_Metal_Only>
0

> <s_lp_Force_Field>
OPLS_2005

> <r_lp_Energy>
21.5252

> <b_lp_Chiralities_Consistent>
1

> <s_lp_Variant>
AV-unprocessed.smi:1554-6

> <Gold.Version>
5.8.1

> <Gold.Id.Protein>
6NUR|6NUR_protein|mol2

> <Gold.PLP.Fitness>
47.6623

> <Gold.PLP.PLP>
-38.8739

> <Gold.PLP.part.hbond>
-3.0000

> <Gold.PLP.part.metal>
0.0000

> <Gold.PLP.part.buried>
-4.6001

> <Gold.PLP.part.nonpolar>
-31.5000

> <Gold.PLP.part.repulsive>
0.0942

> <Gold.PLP.ligand.clash>
0.0000

> <Gold.PLP.ligand.torsion>
0.1269

> <Gold.PLP.Chemscore.Hbond>
3.0000

> <Gold.PLP.Chemscore.CHOScore>
0.0000

> <Gold.PLP.Chemscore.Metal>
0.0000

> <Gold.Chemscore.Hbonds>
donor molecule, donor type, donor heavy atom, donor atom, acceptor molecule, acceptor atom, score
      L1  H    10    31       P1  7948  1.00
      L1  H    12    48       P1  7948  2.00

> <Gold.PLP.Chemscore.Internal.Correction>
0.0422

> <Gold.Rescore>
     Score         DG    S(hbond)    S(metal)    S(lipo)     H(rot)  DE(clash)    DE(int)     intcor
     18.43     -18.64       1.96        0.00     101.57       2.05       0.08       0.13       ----

> <Gold.Chemscore.Fitness>
18.4340

> <Gold.Chemscore.DG>
-18.6367

> <Gold.Chemscore.ZeroCoef>
-5.4800

> <Gold.Chemscore.Hbond>
1.9559

> <Gold.Chemscore.Metal>
0.0000

> <Gold.Chemscore.Lipo>
101.5696

> <Gold.Chemscore.Internal_Hbond>
0.0000

> <Gold.Chemscore.DEClash>
0.0764

> <Gold.Chemscore.DEInternal>
0.1263

> <Gold.Chemscore.Rot>
2.0546

> <Gold.Chemscore.Internal.Correction>
   9.000000E+99

> <Gold.Chemscore.Hbonds>
donor molecule, donor type, donor heavy atom, donor atom, acceptor molecule, acceptor atom, score
      L1  H    10    31       P1  7948  0.88
      L1  H    12    48       P1  7948  0.30

> <Gold.Chemscore.Hbond.Weighted>
-6.5327

> <Gold.Chemscore.Metal.Weighted>
-0.0000

> <Gold.Chemscore.Lipo.Weighted>
-11.8836

> <Gold.Chemscore.Internal_Hbond.Weighted>
0.0000

> <Gold.Chemscore.DEClash.Weighted>
0.0764

> <Gold.Chemscore.DEInternal.Weighted>
0.1263

> <Gold.Chemscore.Rot.Weighted>
5.2597

> <Gold.Chemscore.Internal.Correction.Weighted>
   9.000000E+99

> <Gold.Protein.RotatedTorsions>
[ 6907 6896 6895 6894 ] final  -82.47 input  -60.11 | X-H torsion
[ 7974 7965 7964 7962 ] final -141.76 input  175.53 | X-H torsion
[ 8008 7997 7996 7995 ] final  -33.56 input   59.86 | X-H torsion
[ 10167 10162 10161 10158 ] final -177.95 input  -65.29 | X-H torsion
[ 10718 10713 10712 10709 ] final  -40.65 input   66.30 | X-H torsion
[ 10763 10752 10751 10750 ] final -175.78 input  -60.55 | X-H torsion
[ 11005 11000 10999 10996 ] final -140.47 input  -57.11 | X-H torsion

> <Gold.Protein.ActiveResidues>
 VAL166  LYS551  ARG553  GLY616  TRP617  ASP618  TYR619  PRO620  LYS621  CYS622 
 ASP623  PHE694  ASN695  SER759  ASP760  ASP761  ALA762  ILE779  LEU786  VAL792 
 PHE793  MET794  SER795  GLU796  ALA797  LYS798  CYS799  TRP800  GLU811  SER814 

> <Gold.Protein.RotatedAtoms>
  150.6897  134.3660  159.4971 H   0  0  0  0  0  0  0  0  0  0  0  0  # atno 6907 bound_to 6896
  152.1483  134.9006  160.0559 H   0  0  0  0  0  0  0  0  0  0  0  0  # atno 6908 bound_to 6896
  152.0113  133.3828  159.4258 H   0  0  0  0  0  0  0  0  0  0  0  0  # atno 6909 bound_to 6896
  144.8495  140.6041  143.5399 H   0  0  0  0  0  0  0  0  0  0  0  0  # atno 7974 bound_to 7965
  154.4145  140.1707  156.1908 H   0  0  0  0  0  0  0  0  0  0  0  0  # atno 8008 bound_to 7997
  155.9605  140.3394  155.6463 H   0  0  0  0  0  0  0  0  0  0  0  0  # atno 8009 bound_to 7997
  155.6755  140.0716  157.2495 H   0  0  0  0  0  0  0  0  0  0  0  0  # atno 8010 bound_to 7997
  139.5456  144.2246  152.0980 H   0  0  0  0  0  0  0  0  0  0  0  0  # atno 10167 bound_to 10162
  156.2789  130.4215  149.8357 H   0  0  0  0  0  0  0  0  0  0  0  0  # atno 10718 bound_to 10713
  154.5803  135.2835  155.0739 H   0  0  0  0  0  0  0  0  0  0  0  0  # atno 10763 bound_to 10752
  154.2078  135.6413  153.5110 H   0  0  0  0  0  0  0  0  0  0  0  0  # atno 10764 bound_to 10752
  153.0086  135.5484  154.6455 H   0  0  0  0  0  0  0  0  0  0  0  0  # atno 10765 bound_to 10752
  140.8419  134.2391  157.4805 H   0  0  0  0  0  0  0  0  0  0  0  0  # atno 11005 bound_to 11000
  145.4529  139.1521  143.3908 LP  0  0  0  0  0  0  0  0  0  0  0  0  # atno 17320 bound_to 7965
  146.2773  140.4656  142.8790 LP  0  0  0  0  0  0  0  0  0  0  0  0  # atno 17321 bound_to 7965
  140.1732  144.4916  150.6568 LP  0  0  0  0  0  0  0  0  0  0  0  0  # atno 17342 bound_to 10162
  140.6702  143.2283  151.5643 LP  0  0  0  0  0  0  0  0  0  0  0  0  # atno 17343 bound_to 10162
  156.5812  130.8466  151.3383 LP  0  0  0  0  0  0  0  0  0  0  0  0  # atno 17370 bound_to 10713
  157.7308  130.9691  150.1851 LP  0  0  0  0  0  0  0  0  0  0  0  0  # atno 17371 bound_to 10713
  139.8703  134.9640  156.4480 LP  0  0  0  0  0  0  0  0  0  0  0  0  # atno 17394 bound_to 11000
  140.8885  133.7865  155.9545 LP  0  0  0  0  0  0  0  0  0  0  0  0  # atno 17395 bound_to 11000

$$$$
