AV-unprocessed.smi:3109|AV-procd|sdf|11827|dock4
  -GOLD-   2272017203D 1   1.00000     0.00000
 Structure written by MMmdl.
 37 38  0  0  0  0  0  0  0  0  2 V2000
  150.9909  137.7989  154.4004 C   0  0  0  0  0  0  0  0  0  0  0  0
  152.0900  138.6897  154.5502 C   0  0  0  0  0  0  0  0  0  0  0  0
  151.7151  139.9013  154.9278 N   0  0  0  0  0  0  0  0  0  0  0  0
  150.3692  139.8284  155.0218 N   0  0  0  0  0  0  0  0  0  0  0  0
  149.6040  140.9902  155.4444 C   0  0  0  0  0  0  0  0  0  0  0  0
  149.9157  141.4271  156.8866 C   0  0  0  0  0  0  0  0  0  0  0  0
  150.6574  142.7067  156.9139 N   0  3  0  0  0  0  0  0  0  0  0  0
  150.9946  143.2198  158.2614 C   0  0  0  0  0  0  0  0  0  0  0  0
  151.6885  144.5918  158.1287 C   0  0  0  0  0  0  0  0  0  0  0  0
  151.4359  145.5189  159.3320 C   0  0  0  0  0  0  0  0  0  0  0  0
  152.2007  145.1517  160.6115 C   0  0  0  0  0  0  0  0  0  0  0  0
  151.9523  143.7229  161.1214 C   0  0  0  0  0  0  0  0  0  0  0  0
  152.6350  142.6596  160.2480 C   0  0  0  0  0  0  0  0  0  0  0  0
  151.8168  142.1653  159.0416 C   0  0  0  0  0  0  0  0  0  0  0  0
  149.9066  138.5640  154.7220 C   0  0  0  0  0  0  0  0  0  0  0  0
  150.9987  136.7588  154.1097 H   0  0  0  0  0  0  0  0  0  0  0  0
  153.1413  138.4928  154.3995 H   0  0  0  0  0  0  0  0  0  0  0  0
  149.8024  141.8099  154.7524 H   0  0  0  0  0  0  0  0  0  0  0  0
  148.5444  140.7496  155.3493 H   0  0  0  0  0  0  0  0  0  0  0  0
  148.9826  141.5462  157.4382 H   0  0  0  0  0  0  0  0  0  0  0  0
  150.4839  140.6494  157.3967 H   0  0  0  0  0  0  0  0  0  0  0  0
  151.5122  142.6006  156.3860 H   0  0  0  0  0  0  0  0  0  0  0  0
  150.0486  143.3799  158.7813 H   0  0  0  0  0  0  0  0  0  0  0  0
  152.7564  144.4760  157.9376 H   0  0  0  0  0  0  0  0  0  0  0  0
  151.2879  145.1041  157.2526 H   0  0  0  0  0  0  0  0  0  0  0  0
  151.7201  146.5337  159.0516 H   0  0  0  0  0  0  0  0  0  0  0  0
  150.3671  145.5646  159.5441 H   0  0  0  0  0  0  0  0  0  0  0  0
  153.2693  145.3067  160.4568 H   0  0  0  0  0  0  0  0  0  0  0  0
  151.9132  145.8556  161.3934 H   0  0  0  0  0  0  0  0  0  0  0  0
  152.3729  143.6538  162.1253 H   0  0  0  0  0  0  0  0  0  0  0  0
  150.8863  143.5196  161.2302 H   0  0  0  0  0  0  0  0  0  0  0  0
  153.6006  143.0349  159.9069 H   0  0  0  0  0  0  0  0  0  0  0  0
  152.8706  141.7936  160.8676 H   0  0  0  0  0  0  0  0  0  0  0  0
  151.1355  141.3887  159.3907 H   0  0  0  0  0  0  0  0  0  0  0  0
  152.5067  141.6626  158.3618 H   0  0  0  0  0  0  0  0  0  0  0  0
  148.8561  138.3150  154.7603 H   0  0  0  0  0  0  0  0  0  0  0  0
  150.0824  143.3988  156.4552 H   0  0  0  0  0  0  0  0  0  0  0  0
  1 15  2  0  0  0  0
  1  2  1  0  0  0  0
  1 16  1  0  0  0  0
  2  3  2  0  0  0  0
  2 17  1  0  0  0  0
  3  4  1  0  0  0  0
  4  5  1  0  0  0  0
  4 15  1  0  0  0  0
  5  6  1  0  0  0  0
  5 18  1  0  0  0  0
  5 19  1  0  0  0  0
  6  7  1  0  0  0  0
  6 20  1  0  0  0  0
  6 21  1  0  0  0  0
  7  8  1  0  0  0  0
  7 22  1  0  0  0  0
  7 37  1  0  0  0  0
  8 14  1  0  0  0  0
  8  9  1  0  0  0  0
  8 23  1  0  0  0  0
  9 10  1  0  0  0  0
  9 24  1  0  0  0  0
  9 25  1  0  0  0  0
 10 11  1  0  0  0  0
 10 26  1  0  0  0  0
 10 27  1  0  0  0  0
 11 12  1  0  0  0  0
 11 28  1  0  0  0  0
 11 29  1  0  0  0  0
 12 13  1  0  0  0  0
 12 30  1  0  0  0  0
 12 31  1  0  0  0  0
 13 14  1  0  0  0  0
 13 32  1  0  0  0  0
 13 33  1  0  0  0  0
 14 34  1  0  0  0  0
 14 35  1  0  0  0  0
 15 36  1  0  0  0  0
M  CHG  1   7   1
M  END
> <s_m_source_file>
AV-unprocessed.smi

> <i_m_source_file_index>
3109

> <i_lp_mmshare_version>
43012

> <i_f3d_flags>
0

> <s_epik_input>
W2NIXTFbY0hdW2NIXW5uMVtDSDJdW0NIMl1bTkhdW0NIXTJbQ0gyXVtDSDJdW0NIMl1bQ0gyXVtDSDJdW0NIMl0y

> <s_epik_cmdline>
J2VwaWtfcHl0aG9uJywgJy1waCcsICc3LjAnLCAnLXRuJywgJzgnLCAnLW1hJywgJzIwMCcsICctbWV0YWxfYmluZGluZycsICctaW1hZScsICc8aW5maWxlLm1hZT4nLCAnLW9tYWUnLCAnPG91dGZpbGUubWFlPic=

> <r_lp_tautomer_probability>
1

> <r_epik_Ionization_Penalty>
0.00143219

> <r_epik_Ionization_Penalty_Charging>
0.00142912

> <r_epik_Ionization_Penalty_Neutral>
3.07097e-06

> <r_epik_State_Penalty>
-0

> <r_epik_Charging_Adjusted_Penalty>
0.00142912

> <i_epik_Tot_Q>
1

> <i_epik_Tot_abs_Q>
1

> <r_epik_Metal_State_Penalty>
-0

> <b_epik_Metal_Only>
0

> <s_lp_Force_Field>
OPLS_2005

> <r_lp_Energy>
18.9936

> <b_lp_Chiralities_Consistent>
1

> <s_lp_Variant>
AV-unprocessed.smi:3109-1

> <Gold.Version>
5.8.1

> <Gold.Id.Protein>
6NUR|6NUR_protein|mol2

> <Gold.PLP.Fitness>
47.9249

> <Gold.PLP.PLP>
-40.5653

> <Gold.PLP.part.hbond>
-2.0000

> <Gold.PLP.part.metal>
0.0000

> <Gold.PLP.part.buried>
-5.0657

> <Gold.PLP.part.nonpolar>
-33.8312

> <Gold.PLP.part.repulsive>
0.0795

> <Gold.PLP.ligand.clash>
0.0000

> <Gold.PLP.ligand.torsion>
0.3819

> <Gold.PLP.Chemscore.Hbond>
2.7000

> <Gold.PLP.Chemscore.CHOScore>
0.0000

> <Gold.PLP.Chemscore.Metal>
0.0000

> <Gold.Chemscore.Hbonds>
donor molecule, donor type, donor heavy atom, donor atom, acceptor molecule, acceptor atom, score
      L1  H     7    37       P1  8028  2.00
      P1  H  7989  7998       L1     3  0.65

> <Gold.PLP.Chemscore.Internal.Correction>
0.0234

> <Gold.Rescore>
     Score         DG    S(hbond)    S(metal)    S(lipo)     H(rot)  DE(clash)    DE(int)     intcor
     18.89     -19.55       1.42        0.00     111.44       1.46       0.19       0.46       ----

> <Gold.Chemscore.Fitness>
18.8917

> <Gold.Chemscore.DG>
-19.5455

> <Gold.Chemscore.ZeroCoef>
-5.4800

> <Gold.Chemscore.Hbond>
1.4242

> <Gold.Chemscore.Metal>
0.0000

> <Gold.Chemscore.Lipo>
111.4371

> <Gold.Chemscore.Internal_Hbond>
0.0000

> <Gold.Chemscore.DEClash>
0.1947

> <Gold.Chemscore.DEInternal>
0.4591

> <Gold.Chemscore.Rot>
1.4568

> <Gold.Chemscore.Internal.Correction>
   9.000000E+99

> <Gold.Chemscore.Hbonds>
donor molecule, donor type, donor heavy atom, donor atom, acceptor molecule, acceptor atom, score
      L1  H     7    37       P1  8028  0.99
      P1  H  7989  7998       L1     3  0.03

> <Gold.Chemscore.Hbond.Weighted>
-4.7567

> <Gold.Chemscore.Metal.Weighted>
-0.0000

> <Gold.Chemscore.Lipo.Weighted>
-13.0381

> <Gold.Chemscore.Internal_Hbond.Weighted>
0.0000

> <Gold.Chemscore.DEClash.Weighted>
0.1947

> <Gold.Chemscore.DEInternal.Weighted>
0.4591

> <Gold.Chemscore.Rot.Weighted>
3.7293

> <Gold.Chemscore.Internal.Correction.Weighted>
   9.000000E+99

> <Gold.Protein.RotatedTorsions>
[ 6907 6896 6895 6894 ] final  152.00 input  -60.11 | X-H torsion
[ 7974 7965 7964 7962 ] final  -40.68 input  175.53 | X-H torsion
[ 8008 7997 7996 7995 ] final -155.99 input   59.86 | X-H torsion
[ 10167 10162 10161 10158 ] final  -69.20 input  -65.29 | X-H torsion
[ 10718 10713 10712 10709 ] final  -43.51 input   66.30 | X-H torsion
[ 10763 10752 10751 10750 ] final  -25.05 input  -60.55 | X-H torsion
[ 11005 11000 10999 10996 ] final  -13.63 input  -57.11 | X-H torsion

> <Gold.Protein.ActiveResidues>
 VAL166  LYS551  ARG553  GLY616  TRP617  ASP618  TYR619  PRO620  LYS621  CYS622 
 ASP623  PHE694  ASN695  SER759  ASP760  ASP761  ALA762  ILE779  LEU786  VAL792 
 PHE793  MET794  SER795  GLU796  ALA797  LYS798  CYS799  TRP800  GLU811  SER814 

> <Gold.Protein.RotatedAtoms>
  152.0928  133.4209  159.4551 H   0  0  0  0  0  0  0  0  0  0  0  0  # atno 6907 bound_to 6896
  150.6862  134.2851  159.4652 H   0  0  0  0  0  0  0  0  0  0  0  0  # atno 6908 bound_to 6896
  152.0704  134.9536  160.0625 H   0  0  0  0  0  0  0  0  0  0  0  0  # atno 6909 bound_to 6896
  146.0281  140.6766  142.9145 H   0  0  0  0  0  0  0  0  0  0  0  0  # atno 7974 bound_to 7965
  155.7103  140.0777  157.2374 H   0  0  0  0  0  0  0  0  0  0  0  0  # atno 8008 bound_to 7997
  154.4059  140.1631  156.2342 H   0  0  0  0  0  0  0  0  0  0  0  0  # atno 8009 bound_to 7997
  155.9288  140.3392  155.6235 H   0  0  0  0  0  0  0  0  0  0  0  0  # atno 8010 bound_to 7997
  140.5449  143.2313  151.7020 H   0  0  0  0  0  0  0  0  0  0  0  0  # atno 10167 bound_to 10162
  156.2482  130.4186  149.8680 H   0  0  0  0  0  0  0  0  0  0  0  0  # atno 10718 bound_to 10713
  153.6936  135.6960  153.5083 H   0  0  0  0  0  0  0  0  0  0  0  0  # atno 10763 bound_to 10752
  153.2394  135.4311  155.0681 H   0  0  0  0  0  0  0  0  0  0  0  0  # atno 10764 bound_to 10752
  154.8365  135.3504  154.6477 H   0  0  0  0  0  0  0  0  0  0  0  0  # atno 10765 bound_to 10752
  140.7781  133.8385  155.9267 H   0  0  0  0  0  0  0  0  0  0  0  0  # atno 11005 bound_to 11000
  144.7018  140.3687  143.7149 LP  0  0  0  0  0  0  0  0  0  0  0  0  # atno 17320 bound_to 7965
  145.7084  139.1678  143.2552 LP  0  0  0  0  0  0  0  0  0  0  0  0  # atno 17321 bound_to 7965
  139.5003  144.3910  152.0279 LP  0  0  0  0  0  0  0  0  0  0  0  0  # atno 17342 bound_to 10162
  140.3022  144.3633  150.6057 LP  0  0  0  0  0  0  0  0  0  0  0  0  # atno 17343 bound_to 10162
  156.6238  130.8637  151.3481 LP  0  0  0  0  0  0  0  0  0  0  0  0  # atno 17370 bound_to 10713
  157.7204  130.9551  150.1416 LP  0  0  0  0  0  0  0  0  0  0  0  0  # atno 17371 bound_to 10713
  140.9509  134.1780  157.4728 LP  0  0  0  0  0  0  0  0  0  0  0  0  # atno 17394 bound_to 11000
  139.8746  134.9909  156.5523 LP  0  0  0  0  0  0  0  0  0  0  0  0  # atno 17395 bound_to 11000

$$$$
