AV-unprocessed.smi:54|AV-procd|sdf|556|dock6
  -GOLD-   2262016453D 1   1.00000     0.00000
 Structure written by MMmdl.
 43 45  0  0  0  0  0  0  0  0  2 V2000
  146.1104  134.0607  151.7132 C   0  0  0  0  0  0  0  0  0  0  0  0
  147.0082  132.8202  151.8508 C   0  0  0  0  0  0  0  0  0  0  0  0
  146.1945  131.5234  151.7064 C   0  0  0  0  0  0  0  0  0  0  0  0
  147.7642  132.8426  153.1867 C   0  0  0  0  0  0  0  0  0  0  0  0
  147.6557  131.8835  153.9537 O   0  0  0  0  0  0  0  0  0  0  0  0
  148.4939  133.9563  153.4172 N   0  0  0  0  0  0  0  0  0  0  0  0
  149.2579  134.2925  154.5401 C   0  0  0  0  0  0  0  0  0  0  0  0
  149.8388  135.4620  154.4330 N   0  0  0  0  0  0  0  0  0  0  0  0
  150.5900  135.7904  155.5448 C   0  0  0  0  0  0  0  0  0  0  0  0
  150.7850  135.0384  156.6712 C   0  0  0  0  0  0  0  0  0  0  0  0
  151.6017  135.6927  157.5857 N   0  0  0  0  0  0  0  0  0  0  0  0
  151.8661  136.8351  156.9543 C   0  0  0  0  0  0  0  0  0  0  0  0
  151.3028  136.9714  155.7377 N   0  0  0  0  0  0  0  0  0  0  0  0
  151.4381  138.1518  154.8297 C   0  0  1  0  0  0  0  0  0  0  0  0
  150.1700  138.6932  154.6304 O   0  0  0  0  0  0  0  0  0  0  0  0
  150.2537  140.1099  154.6295 C   0  0  1  0  0  0  0  0  0  0  0  0
  148.8764  140.7324  154.9191 C   0  0  0  0  0  0  0  0  0  0  0  0
  148.8081  142.0425  154.3968 O   0  0  0  0  0  0  0  0  0  0  0  0
  151.3889  140.4271  155.6154 C   0  0  1  0  0  0  0  0  0  0  0  0
  150.9225  140.5315  156.9468 O   0  0  0  0  0  0  0  0  0  0  0  0
  152.3296  139.2341  155.4665 C   0  0  2  0  0  0  0  0  0  0  0  0
  153.3965  139.5785  154.6048 O   0  0  0  0  0  0  0  0  0  0  0  0
  150.1199  133.7147  156.7173 C   0  0  0  0  0  0  0  0  0  0  0  0
  150.2746  133.0019  157.7071 O   0  0  0  0  0  0  0  0  0  0  0  0
  149.3717  133.3942  155.6196 N   0  5  0  0  0  0  0  0  0  0  0  0
  151.8344  137.7460  153.8975 H   0  0  0  0  0  0  0  0  0  0  0  0
  150.5747  140.4016  153.6277 H   0  0  0  0  0  0  0  0  0  0  0  0
  151.8721  141.3738  155.3692 H   0  0  0  0  0  0  0  0  0  0  0  0
  152.7394  138.9009  156.4219 H   0  0  0  0  0  0  0  0  0  0  0  0
  146.6864  134.9806  151.8218 H   0  0  0  0  0  0  0  0  0  0  0  0
  145.3211  134.0710  152.4660 H   0  0  0  0  0  0  0  0  0  0  0  0
  145.6325  134.0889  150.7338 H   0  0  0  0  0  0  0  0  0  0  0  0
  147.7388  132.8467  151.0405 H   0  0  0  0  0  0  0  0  0  0  0  0
  146.8304  130.6435  151.8102 H   0  0  0  0  0  0  0  0  0  0  0  0
  145.7190  131.4697  150.7267 H   0  0  0  0  0  0  0  0  0  0  0  0
  145.4077  131.4568  152.4588 H   0  0  0  0  0  0  0  0  0  0  0  0
  148.4102  134.6704  152.7093 H   0  0  0  0  0  0  0  0  0  0  0  0
  152.4894  137.6005  157.3927 H   0  0  0  0  0  0  0  0  0  0  0  0
  148.0957  140.1352  154.4474 H   0  0  0  0  0  0  0  0  0  0  0  0
  148.6583  140.7469  155.9874 H   0  0  0  0  0  0  0  0  0  0  0  0
  148.8393  142.6539  155.1168 H   0  0  0  0  0  0  0  0  0  0  0  0
  150.4643  141.3527  157.0389 H   0  0  0  0  0  0  0  0  0  0  0  0
  153.5979  138.8304  154.0639 H   0  0  0  0  0  0  0  0  0  0  0  0
  1  2  1  0  0  0  0
  1 30  1  0  0  0  0
  1 31  1  0  0  0  0
  1 32  1  0  0  0  0
  2  3  1  0  0  0  0
  2  4  1  0  0  0  0
  2 33  1  0  0  0  0
  3 34  1  0  0  0  0
  3 35  1  0  0  0  0
  3 36  1  0  0  0  0
  4  5  2  0  0  0  0
  4  6  1  0  0  0  0
  6 37  1  0  0  0  0
  6  7  1  0  0  0  0
  7 25  1  0  0  0  0
  7  8  2  0  0  0  0
  8  9  1  0  0  0  0
  9 13  1  0  0  0  0
  9 10  2  0  0  0  0
 10 11  1  0  0  0  0
 10 23  1  0  0  0  0
 11 12  2  0  0  0  0
 12 13  1  0  0  0  0
 12 38  1  0  0  0  0
 13 14  1  0  0  0  0
 14 26  1  0  0  0  0
 14 21  1  0  0  0  0
 14 15  1  0  0  0  0
 15 16  1  0  0  0  0
 16 27  1  0  0  0  0
 16 17  1  0  0  0  0
 16 19  1  0  0  0  0
 17 18  1  0  0  0  0
 17 39  1  0  0  0  0
 17 40  1  0  0  0  0
 18 41  1  0  0  0  0
 19 28  1  0  0  0  0
 19 20  1  0  0  0  0
 19 21  1  0  0  0  0
 20 42  1  0  0  0  0
 21 29  1  0  0  0  0
 21 22  1  0  0  0  0
 22 43  1  0  0  0  0
 23 24  2  0  0  0  0
 23 25  1  0  0  0  0
M  CHG  1  25  -1
M  END
> <s_m_source_file>
AV-unprocessed.smi

> <i_m_source_file_index>
54

> <i_lp_mmshare_version>
43012

> <i_f3d_flags>
0

> <s_epik_input>
W0NIM11bQ0hdKFtDSDNdKUMoPU8pW05IXWMobjEpW25IXWMoPU8pYyhjMTIpbltjSF1uMltDQEBIXTNPW0NASF0oW0NIMl1bT0hdKVtDQEBIXShbT0hdKVtDQEhdM1tPSF0=

> <s_epik_cmdline>
J2VwaWtfcHl0aG9uJywgJy1waCcsICc3LjAnLCAnLXRuJywgJzgnLCAnLW1hJywgJzIwMCcsICctbWV0YWxfYmluZGluZycsICctaW1hZScsICc8aW5maWxlLm1hZT4nLCAnLW9tYWUnLCAnPG91dGZpbGUubWFlPic=

> <r_lp_tautomer_probability>
0.85571

> <r_epik_Ionization_Penalty>
1.75936

> <r_epik_Ionization_Penalty_Charging>
4.55893e-11

> <r_epik_Ionization_Penalty_Neutral>
1.75936

> <r_epik_State_Penalty>
1.72072

> <r_epik_Charging_Adjusted_Penalty>
1.72072

> <i_epik_Tot_Q>
-1

> <i_epik_Tot_abs_Q>
1

> <r_epik_Metal_State_Penalty>
0.400338

> <b_epik_Metal_Only>
1

> <s_epik_Chemistry_Notes>
This compound contains an acetal/aminal-like group ( X-CH(R)-Y where X, Y are N, S, or O) that may be acid/base labile, releasing an aldehyde.

> <s_lp_Force_Field>
OPLS_2005

> <r_lp_Energy>
57.3422

> <b_lp_Chiralities_Consistent>
1

> <s_lp_Variant>
AV-unprocessed.smi:54-28

> <Gold.Version>
5.8.1

> <Gold.Id.Protein>
6NUR|6NUR_protein|mol2

> <Gold.PLP.Fitness>
48.2677

> <Gold.PLP.PLP>
-35.9740

> <Gold.PLP.part.hbond>
-7.0000

> <Gold.PLP.part.metal>
0.0000

> <Gold.PLP.part.buried>
-1.9651

> <Gold.PLP.part.nonpolar>
-28.4968

> <Gold.PLP.part.repulsive>
2.5029

> <Gold.PLP.ligand.clash>
0.0000

> <Gold.PLP.ligand.torsion>
0.2904

> <Gold.PLP.Chemscore.Hbond>
4.2805

> <Gold.PLP.Chemscore.CHOScore>
0.0000

> <Gold.PLP.Chemscore.Metal>
0.0000

> <Gold.Chemscore.Hbonds>
donor molecule, donor type, donor heavy atom, donor atom, acceptor molecule, acceptor atom, score
      L1  H     6    37       P1  7948  1.00
      L1  H    18    41       P1  8028  0.67
      P1  H  6896  6907       L1    24  1.00
      P1  H  6896  6908       L1    11  0.02
      P1  H  7997  8008       L1    22  1.00
      P1  H  8011  8017       L1    18  0.11

> <Gold.PLP.Chemscore.Internal.Correction>
0.0331

> <Gold.Rescore>
     Score         DG    S(hbond)    S(metal)    S(lipo)     H(rot)  DE(clash)    DE(int)     intcor
     10.31     -14.15       3.98        0.00      48.39       4.02       1.99       1.84       ----

> <Gold.Chemscore.Fitness>
10.3140

> <Gold.Chemscore.DG>
-14.1458

> <Gold.Chemscore.ZeroCoef>
-5.4800

> <Gold.Chemscore.Hbond>
3.9799

> <Gold.Chemscore.Metal>
0.0000

> <Gold.Chemscore.Lipo>
48.3945

> <Gold.Chemscore.Internal_Hbond>
0.0000

> <Gold.Chemscore.DEClash>
1.9923

> <Gold.Chemscore.DEInternal>
1.8395

> <Gold.Chemscore.Rot>
4.0192

> <Gold.Chemscore.Internal.Correction>
   9.000000E+99

> <Gold.Chemscore.Hbonds>
donor molecule, donor type, donor heavy atom, donor atom, acceptor molecule, acceptor atom, score
      L1  H     6    37       P1  7948  0.29
      L1  H    18    41       P1  8028  0.66
      P1  H  6896  6907       L1    24  0.99
      P1  H  6896  6908       L1    11  0.02
      P1  H  7997  8008       L1    22  0.68
      P1  H  8011  8017       L1    18  0.11

> <Gold.Chemscore.Hbond.Weighted>
-13.2929

> <Gold.Chemscore.Metal.Weighted>
-0.0000

> <Gold.Chemscore.Lipo.Weighted>
-5.6622

> <Gold.Chemscore.Internal_Hbond.Weighted>
0.0000

> <Gold.Chemscore.DEClash.Weighted>
1.9923

> <Gold.Chemscore.DEInternal.Weighted>
1.8395

> <Gold.Chemscore.Rot.Weighted>
10.2893

> <Gold.Chemscore.Internal.Correction.Weighted>
   9.000000E+99

> <Gold.Protein.RotatedTorsions>
[ 6907 6896 6895 6894 ] final -148.54 input  -60.11 | X-H torsion
[ 7974 7965 7964 7962 ] final   61.47 input  175.53 | X-H torsion
[ 8008 7997 7996 7995 ] final   11.47 input   59.86 | X-H torsion
[ 10167 10162 10161 10158 ] final -105.45 input  -65.29 | X-H torsion
[ 10718 10713 10712 10709 ] final  -98.53 input   66.30 | X-H torsion
[ 10763 10752 10751 10750 ] final   36.44 input  -60.55 | X-H torsion
[ 11005 11000 10999 10996 ] final  172.20 input  -57.11 | X-H torsion

> <Gold.Protein.ActiveResidues>
 VAL166  LYS551  ARG553  GLY616  TRP617  ASP618  TYR619  PRO620  LYS621  CYS622 
 ASP623  PHE694  ASN695  SER759  ASP760  ASP761  ALA762  ILE779  LEU786  VAL792 
 PHE793  MET794  SER795  GLU796  ALA797  LYS798  CYS799  TRP800  GLU811  SER814 

> <Gold.Protein.RotatedAtoms>
  151.1713  133.4782  159.2593 H   0  0  0  0  0  0  0  0  0  0  0  0  # atno 6907 bound_to 6896
  151.1353  135.0151  159.8611 H   0  0  0  0  0  0  0  0  0  0  0  0  # atno 6908 bound_to 6896
  152.5461  134.1612  159.8611 H   0  0  0  0  0  0  0  0  0  0  0  0  # atno 6909 bound_to 6896
  145.8844  139.3466  143.0686 H   0  0  0  0  0  0  0  0  0  0  0  0  # atno 7974 bound_to 7965
  154.8073  140.2862  155.5878 H   0  0  0  0  0  0  0  0  0  0  0  0  # atno 8008 bound_to 7997
  156.2984  140.2575  156.2884 H   0  0  0  0  0  0  0  0  0  0  0  0  # atno 8009 bound_to 7997
  154.9488  140.0380  157.2123 H   0  0  0  0  0  0  0  0  0  0  0  0  # atno 8010 bound_to 7997
  140.1984  143.3837  152.1149 H   0  0  0  0  0  0  0  0  0  0  0  0  # atno 10167 bound_to 10162
  156.0110  130.5242  150.6536 H   0  0  0  0  0  0  0  0  0  0  0  0  # atno 10718 bound_to 10713
  153.0077  135.6306  154.1985 H   0  0  0  0  0  0  0  0  0  0  0  0  # atno 10763 bound_to 10752
  154.1728  135.2817  155.3077 H   0  0  0  0  0  0  0  0  0  0  0  0  # atno 10764 bound_to 10752
  154.5895  135.5622  153.7324 H   0  0  0  0  0  0  0  0  0  0  0  0  # atno 10765 bound_to 10752
  140.3272  134.7388  157.4108 H   0  0  0  0  0  0  0  0  0  0  0  0  # atno 11005 bound_to 11000
  145.8984  140.9259  143.0515 LP  0  0  0  0  0  0  0  0  0  0  0  0  # atno 17320 bound_to 7965
  144.6728  140.1000  143.7461 LP  0  0  0  0  0  0  0  0  0  0  0  0  # atno 17321 bound_to 7965
  139.5227  144.7062  151.5346 LP  0  0  0  0  0  0  0  0  0  0  0  0  # atno 17342 bound_to 10162
  140.6407  143.8894  150.6689 LP  0  0  0  0  0  0  0  0  0  0  0  0  # atno 17343 bound_to 10162
  157.4293  131.0847  151.1055 LP  0  0  0  0  0  0  0  0  0  0  0  0  # atno 17370 bound_to 10713
  157.1632  130.6235  149.5617 LP  0  0  0  0  0  0  0  0  0  0  0  0  # atno 17371 bound_to 10713
  140.0891  134.5625  155.8462 LP  0  0  0  0  0  0  0  0  0  0  0  0  # atno 17394 bound_to 11000
  141.2072  133.6662  156.6292 LP  0  0  0  0  0  0  0  0  0  0  0  0  # atno 17395 bound_to 11000

$$$$
