AV-unprocessed.smi:3161|AV-procd|sdf|12061|dock8
  -GOLD-   2272017493D 1   1.00000     0.00000
 Structure written by MMmdl.
 40 41  0  0  0  0  0  0  0  0  1 V2000
  146.2587  142.9575  154.4129 C   0  0  0  0  0  0  0  0  0  0  0  0
  147.1599  141.7586  154.3436 C   0  0  0  0  0  0  0  0  0  0  0  0
  146.8442  140.4502  153.8793 C   0  0  0  0  0  0  0  0  0  0  0  0
  147.8693  139.6172  153.9509 N   0  0  0  0  0  0  0  0  0  0  0  0
  148.8724  140.3593  154.4673 N   0  0  0  0  0  0  0  0  0  0  0  0
  150.1786  139.7608  154.6970 C   0  0  0  0  0  0  0  0  0  0  0  0
  150.5259  139.5805  156.1920 C   0  0  2  0  0  0  0  0  0  0  0  0
  149.6723  138.4850  156.8621 C   0  0  0  0  0  0  0  0  0  0  0  0
  150.4138  140.8675  156.8874 N   0  0  0  0  0  0  0  0  0  0  0  0
  150.8982  140.8922  158.2671 C   0  0  0  0  0  0  0  0  0  0  0  0
  151.8564  142.0712  158.4936 C   0  0  1  0  0  0  0  0  0  0  0  0
  151.4615  143.3224  157.6811 C   0  0  0  0  0  0  0  0  0  0  0  0
  152.3923  144.4946  158.0110 C   0  0  0  0  0  0  0  0  0  0  0  0
  152.4255  144.7171  159.5264 C   0  0  0  0  0  0  0  0  0  0  0  0
  152.7573  143.4037  160.2522 C   0  0  0  0  0  0  0  0  0  0  0  0
  151.8231  142.3938  159.8822 O   0  0  0  0  0  0  0  0  0  0  0  0
  148.4727  141.6572  154.7069 C   0  0  0  0  0  0  0  0  0  0  0  0
  145.2622  142.7394  154.0283 H   0  0  0  0  0  0  0  0  0  0  0  0
  146.6528  143.7904  153.8303 H   0  0  0  0  0  0  0  0  0  0  0  0
  146.1374  143.3100  155.4373 H   0  0  0  0  0  0  0  0  0  0  0  0
  145.9043  140.0835  153.4938 H   0  0  0  0  0  0  0  0  0  0  0  0
  150.2098  138.7937  154.1926 H   0  0  0  0  0  0  0  0  0  0  0  0
  150.9307  140.3804  154.2067 H   0  0  0  0  0  0  0  0  0  0  0  0
  151.5666  139.2571  156.2362 H   0  0  0  0  0  0  0  0  0  0  0  0
  149.6782  137.5721  156.2662 H   0  0  0  0  0  0  0  0  0  0  0  0
  148.6337  138.7964  156.9793 H   0  0  0  0  0  0  0  0  0  0  0  0
  150.0544  138.2201  157.8476 H   0  0  0  0  0  0  0  0  0  0  0  0
  149.4480  141.1792  156.8664 H   0  0  0  0  0  0  0  0  0  0  0  0
  150.0711  140.9630  158.9730 H   0  0  0  0  0  0  0  0  0  0  0  0
  151.4181  139.9585  158.4848 H   0  0  0  0  0  0  0  0  0  0  0  0
  152.8704  141.7601  158.2340 H   0  0  0  0  0  0  0  0  0  0  0  0
  151.4984  143.1124  156.6116 H   0  0  0  0  0  0  0  0  0  0  0  0
  150.4313  143.5996  157.9093 H   0  0  0  0  0  0  0  0  0  0  0  0
  153.3980  144.2776  157.6491 H   0  0  0  0  0  0  0  0  0  0  0  0
  152.0626  145.3994  157.4998 H   0  0  0  0  0  0  0  0  0  0  0  0
  153.1570  145.4850  159.7796 H   0  0  0  0  0  0  0  0  0  0  0  0
  151.4558  145.0843  159.8645 H   0  0  0  0  0  0  0  0  0  0  0  0
  153.7724  143.0768  160.0221 H   0  0  0  0  0  0  0  0  0  0  0  0
  152.7086  143.5500  161.3313 H   0  0  0  0  0  0  0  0  0  0  0  0
  149.1490  142.3933  155.1167 H   0  0  0  0  0  0  0  0  0  0  0  0
  1  2  1  0  0  0  0
  1 18  1  0  0  0  0
  1 19  1  0  0  0  0
  1 20  1  0  0  0  0
  2 17  2  0  0  0  0
  2  3  1  0  0  0  0
  3  4  2  0  0  0  0
  3 21  1  0  0  0  0
  4  5  1  0  0  0  0
  5  6  1  0  0  0  0
  5 17  1  0  0  0  0
  6  7  1  0  0  0  0
  6 22  1  0  0  0  0
  6 23  1  0  0  0  0
  7  8  1  0  0  0  0
  7  9  1  0  0  0  0
  7 24  1  0  0  0  0
  8 25  1  0  0  0  0
  8 26  1  0  0  0  0
  8 27  1  0  0  0  0
  9 10  1  0  0  0  0
  9 28  1  0  0  0  0
 10 11  1  0  0  0  0
 10 29  1  0  0  0  0
 10 30  1  0  0  0  0
 11 16  1  0  0  0  0
 11 12  1  0  0  0  0
 11 31  1  0  0  0  0
 12 13  1  0  0  0  0
 12 32  1  0  0  0  0
 12 33  1  0  0  0  0
 13 14  1  0  0  0  0
 13 34  1  0  0  0  0
 13 35  1  0  0  0  0
 14 15  1  0  0  0  0
 14 36  1  0  0  0  0
 14 37  1  0  0  0  0
 15 16  1  0  0  0  0
 15 38  1  0  0  0  0
 15 39  1  0  0  0  0
 17 40  1  0  0  0  0
M  END
> <s_m_source_file>
AV-unprocessed.smi

> <i_m_source_file_index>
3161

> <i_lp_mmshare_version>
43012

> <i_f3d_flags>
0

> <s_epik_input>
W0NIM11jMVtjSF1ubihbY0hdMSlbQ0gyXVtDQEhdKFtDSDNdKVtOSF1bQ0gyXVtDQEBIXTJbQ0gyXVtDSDJdW0NIMl1bQ0gyXU8y

> <s_epik_cmdline>
J2VwaWtfcHl0aG9uJywgJy1waCcsICc3LjAnLCAnLXRuJywgJzgnLCAnLW1hJywgJzIwMCcsICctbWV0YWxfYmluZGluZycsICctaW1hZScsICc8aW5maWxlLm1hZT4nLCAnLW9tYWUnLCAnPG91dGZpbGUubWFlPic=

> <r_lp_tautomer_probability>
1

> <r_epik_Ionization_Penalty>
2.51986

> <r_epik_Ionization_Penalty_Charging>
0

> <r_epik_Ionization_Penalty_Neutral>
2.51986

> <r_epik_State_Penalty>
2.68614

> <r_epik_Charging_Adjusted_Penalty>
2.68614

> <i_epik_Tot_Q>
0

> <i_epik_Tot_abs_Q>
0

> <r_epik_Metal_State_Penalty>
2.68606

> <b_epik_Metal_Only>
0

> <s_lp_Force_Field>
OPLS_2005

> <r_lp_Energy>
14.508

> <b_lp_Chiralities_Consistent>
1

> <s_lp_Variant>
AV-unprocessed.smi:3161-7

> <Gold.Version>
5.8.1

> <Gold.Id.Protein>
6NUR|6NUR_protein|mol2

> <Gold.PLP.Fitness>
44.2764

> <Gold.PLP.PLP>
-39.7961

> <Gold.PLP.part.hbond>
-0.4274

> <Gold.PLP.part.metal>
0.0000

> <Gold.PLP.part.buried>
-4.0449

> <Gold.PLP.part.nonpolar>
-36.0109

> <Gold.PLP.part.repulsive>
0.3666

> <Gold.PLP.ligand.clash>
0.0000

> <Gold.PLP.ligand.torsion>
0.7783

> <Gold.PLP.Chemscore.Hbond>
0.0000

> <Gold.PLP.Chemscore.CHOScore>
2.0000

> <Gold.PLP.Chemscore.Metal>
0.0000

> <Gold.Chemscore.Hbonds>
donor molecule, donor type, donor heavy atom, donor atom, acceptor molecule, acceptor atom, score
      L1  C     3    21       P1 10175  1.00
      L1  C    17    40       P1  8028  1.00

> <Gold.PLP.Chemscore.Internal.Correction>
0.0369

> <Gold.Rescore>
     Score         DG    S(hbond)    S(metal)    S(lipo)     H(rot)  DE(clash)    DE(int)     intcor
     12.88     -14.01       0.00        0.00     105.78       1.50       0.21       0.92       ----

> <Gold.Chemscore.Fitness>
12.8830

> <Gold.Chemscore.DG>
-14.0088

> <Gold.Chemscore.ZeroCoef>
-5.4800

> <Gold.Chemscore.Hbond>
0.0000

> <Gold.Chemscore.Metal>
0.0000

> <Gold.Chemscore.Lipo>
105.7821

> <Gold.Chemscore.Internal_Hbond>
0.0000

> <Gold.Chemscore.DEClash>
0.2084

> <Gold.Chemscore.DEInternal>
0.9173

> <Gold.Chemscore.Rot>
1.5030

> <Gold.Chemscore.Internal.Correction>
   9.000000E+99

> <Gold.Chemscore.Hbond.Weighted>
-0.0000

> <Gold.Chemscore.Metal.Weighted>
-0.0000

> <Gold.Chemscore.Lipo.Weighted>
-12.3765

> <Gold.Chemscore.Internal_Hbond.Weighted>
0.0000

> <Gold.Chemscore.DEClash.Weighted>
0.2084

> <Gold.Chemscore.DEInternal.Weighted>
0.9173

> <Gold.Chemscore.Rot.Weighted>
3.8477

> <Gold.Chemscore.Internal.Correction.Weighted>
   9.000000E+99

> <Gold.Protein.RotatedTorsions>
[ 6907 6896 6895 6894 ] final -134.52 input  -60.11 | X-H torsion
[ 7974 7965 7964 7962 ] final -148.53 input  175.53 | X-H torsion
[ 8008 7997 7996 7995 ] final   24.57 input   59.86 | X-H torsion
[ 10167 10162 10161 10158 ] final  -86.23 input  -65.29 | X-H torsion
[ 10718 10713 10712 10709 ] final   12.46 input   66.30 | X-H torsion
[ 10763 10752 10751 10750 ] final   -1.57 input  -60.55 | X-H torsion
[ 11005 11000 10999 10996 ] final   -9.53 input  -57.11 | X-H torsion

> <Gold.Protein.ActiveResidues>
 VAL166  LYS551  ARG553  GLY616  TRP617  ASP618  TYR619  PRO620  LYS621  CYS622 
 ASP623  PHE694  ASN695  SER759  ASP760  ASP761  ALA762  ILE779  LEU786  VAL792 
 PHE793  MET794  SER795  GLU796  ALA797  LYS798  CYS799  TRP800  GLU811  SER814 

> <Gold.Protein.RotatedAtoms>
  150.9868  133.6189  159.2714 H   0  0  0  0  0  0  0  0  0  0  0  0  # atno 6907 bound_to 6896
  151.3424  135.0865  159.9385 H   0  0  0  0  0  0  0  0  0  0  0  0  # atno 6908 bound_to 6896
  152.5233  133.9477  159.7711 H   0  0  0  0  0  0  0  0  0  0  0  0  # atno 6909 bound_to 6896
  144.8023  140.5184  143.5698 H   0  0  0  0  0  0  0  0  0  0  0  0  # atno 7974 bound_to 7965
  154.9984  140.3122  155.4877 H   0  0  0  0  0  0  0  0  0  0  0  0  # atno 8008 bound_to 7997
  156.2929  140.2236  156.5033 H   0  0  0  0  0  0  0  0  0  0  0  0  # atno 8009 bound_to 7997
  154.7641  140.0457  157.0985 H   0  0  0  0  0  0  0  0  0  0  0  0  # atno 8010 bound_to 7997
  140.3961  143.2683  151.9202 H   0  0  0  0  0  0  0  0  0  0  0  0  # atno 10167 bound_to 10162
  157.0104  130.6115  149.5707 H   0  0  0  0  0  0  0  0  0  0  0  0  # atno 10718 bound_to 10713
  153.3466  135.6983  153.6823 H   0  0  0  0  0  0  0  0  0  0  0  0  # atno 10763 bound_to 10752
  153.5567  135.3543  155.2782 H   0  0  0  0  0  0  0  0  0  0  0  0  # atno 10764 bound_to 10752
  154.8646  135.4239  154.2691 H   0  0  0  0  0  0  0  0  0  0  0  0  # atno 10765 bound_to 10752
  140.7351  133.8716  155.8923 H   0  0  0  0  0  0  0  0  0  0  0  0  # atno 11005 bound_to 11000
  145.5522  139.1477  143.3388 LP  0  0  0  0  0  0  0  0  0  0  0  0  # atno 17320 bound_to 7965
  146.2307  140.5660  142.8976 LP  0  0  0  0  0  0  0  0  0  0  0  0  # atno 17321 bound_to 7965
  139.4786  144.5679  151.8135 LP  0  0  0  0  0  0  0  0  0  0  0  0  # atno 17342 bound_to 10162
  140.4789  144.1479  150.5929 LP  0  0  0  0  0  0  0  0  0  0  0  0  # atno 17343 bound_to 10162
  156.0138  130.5231  150.8072 LP  0  0  0  0  0  0  0  0  0  0  0  0  # atno 17370 bound_to 10713
  157.5325  131.0937  150.9936 LP  0  0  0  0  0  0  0  0  0  0  0  0  # atno 17371 bound_to 10713
  140.9886  134.1309  157.4429 LP  0  0  0  0  0  0  0  0  0  0  0  0  # atno 17394 bound_to 11000
  139.8818  135.0033  156.6181 LP  0  0  0  0  0  0  0  0  0  0  0  0  # atno 17395 bound_to 11000

$$$$
