AV-unprocessed.smi:2895|AV-procd|sdf|11131|dock8
  -GOLD-   2272016 03D 1   1.00000     0.00000
 Structure written by MMmdl.
 53 56  0  0  0  0  0  0  0  0  2 V2000
  151.4688  136.2554  158.1122 O   0  0  0  0  0  0  0  0  0  0  0  0
  150.9558  137.2223  157.5473 C   0  0  0  0  0  0  0  0  0  0  0  0
  150.3829  137.1181  156.3361 N   0  0  0  0  0  0  0  0  0  0  0  0
  150.3110  135.8973  155.5412 C   0  0  0  0  0  0  0  0  0  0  0  0
  149.5321  134.7896  156.2703 C   0  0  0  0  0  0  0  0  0  0  0  0
  149.6283  133.4553  155.5564 C   0  0  0  0  0  0  0  0  0  0  0  0
  150.2022  132.3381  156.1973 C   0  0  0  0  0  0  0  0  0  0  0  0
  150.2682  131.1195  155.4927 C   0  0  0  0  0  0  0  0  0  0  0  0
  149.8089  130.9661  154.2319 N   0  0  0  0  0  0  0  0  0  0  0  0
  149.2606  132.0407  153.6249 C   0  0  0  0  0  0  0  0  0  0  0  0
  149.1461  133.3035  154.2400 C   0  0  0  0  0  0  0  0  0  0  0  0
  150.8955  138.4594  158.1026 N   0  0  0  0  0  0  0  0  0  0  0  0
  150.1225  139.6042  157.5954 C   0  0  0  0  0  0  0  0  0  0  0  0
  151.0981  140.6491  157.0184 C   0  0  0  0  0  0  0  0  0  0  0  0
  152.1111  141.0834  158.0234 N   0  3  0  0  0  0  0  0  0  0  0  0
  151.6066  142.0680  159.0281 C   0  0  1  0  0  0  0  0  0  0  0  0
  152.7263  142.7973  159.8109 C   0  0  0  0  0  0  0  0  0  0  0  0
  152.3327  144.2813  159.6896 C   0  0  1  0  0  0  0  0  0  0  0  0
  152.6705  144.7692  158.2707 C   0  0  0  0  0  0  0  0  0  0  0  0
  151.6142  144.0523  157.4111 C   0  0  0  0  0  0  0  0  0  0  0  0
  150.7973  143.2593  158.4546 C   0  0  2  0  0  0  0  0  0  0  0  0
  150.8112  144.2168  159.6416 C   0  0  0  0  0  0  0  0  0  0  0  0
  152.8007  139.9129  158.6398 C   0  0  0  0  0  0  0  0  0  0  0  0
  151.8019  138.8689  159.1810 C   0  0  0  0  0  0  0  0  0  0  0  0
  149.9631  137.9449  155.9370 H   0  0  0  0  0  0  0  0  0  0  0  0
  149.8594  136.1120  154.5711 H   0  0  0  0  0  0  0  0  0  0  0  0
  151.3300  135.5640  155.3426 H   0  0  0  0  0  0  0  0  0  0  0  0
  149.9048  134.6811  157.2900 H   0  0  0  0  0  0  0  0  0  0  0  0
  148.4783  135.0580  156.3555 H   0  0  0  0  0  0  0  0  0  0  0  0
  150.5825  132.4103  157.2060 H   0  0  0  0  0  0  0  0  0  0  0  0
  150.7008  130.2445  155.9547 H   0  0  0  0  0  0  0  0  0  0  0  0
  148.9020  131.8904  152.6174 H   0  0  0  0  0  0  0  0  0  0  0  0
  148.6994  134.1318  153.7099 H   0  0  0  0  0  0  0  0  0  0  0  0
  149.3870  139.3413  156.8354 H   0  0  0  0  0  0  0  0  0  0  0  0
  149.5455  140.0357  158.4140 H   0  0  0  0  0  0  0  0  0  0  0  0
  151.6334  140.2050  156.1781 H   0  0  0  0  0  0  0  0  0  0  0  0
  150.5549  141.4930  156.5966 H   0  0  0  0  0  0  0  0  0  0  0  0
  150.9680  141.5431  159.7395 H   0  0  0  0  0  0  0  0  0  0  0  0
  152.7331  142.4760  160.8531 H   0  0  0  0  0  0  0  0  0  0  0  0
  153.7241  142.6249  159.4051 H   0  0  0  0  0  0  0  0  0  0  0  0
  152.7462  144.9113  160.4778 H   0  0  0  0  0  0  0  0  0  0  0  0
  152.5561  145.8514  158.1949 H   0  0  0  0  0  0  0  0  0  0  0  0
  153.6901  144.5200  157.9745 H   0  0  0  0  0  0  0  0  0  0  0  0
  150.9821  144.7817  156.9026 H   0  0  0  0  0  0  0  0  0  0  0  0
  152.0616  143.4170  156.6468 H   0  0  0  0  0  0  0  0  0  0  0  0
  149.7941  142.9939  158.1202 H   0  0  0  0  0  0  0  0  0  0  0  0
  150.3669  143.7972  160.5460 H   0  0  0  0  0  0  0  0  0  0  0  0
  150.3435  145.1798  159.4277 H   0  0  0  0  0  0  0  0  0  0  0  0
  153.4200  139.4467  157.8723 H   0  0  0  0  0  0  0  0  0  0  0  0
  153.4878  140.2203  159.4273 H   0  0  0  0  0  0  0  0  0  0  0  0
  151.2170  139.2841  160.0022 H   0  0  0  0  0  0  0  0  0  0  0  0
  152.3491  138.0307  159.6144 H   0  0  0  0  0  0  0  0  0  0  0  0
  152.8170  141.5857  157.5040 H   0  0  0  0  0  0  0  0  0  0  0  0
  1  2  2  0  0  0  0
  2  3  1  0  0  0  0
  2 12  1  0  0  0  0
  3  4  1  0  0  0  0
  3 25  1  0  0  0  0
  4  5  1  0  0  0  0
  4 26  1  0  0  0  0
  4 27  1  0  0  0  0
  5  6  1  0  0  0  0
  5 28  1  0  0  0  0
  5 29  1  0  0  0  0
  6 11  1  0  0  0  0
  6  7  2  0  0  0  0
  7  8  1  0  0  0  0
  7 30  1  0  0  0  0
  8  9  2  0  0  0  0
  8 31  1  0  0  0  0
  9 10  1  0  0  0  0
 10 11  2  0  0  0  0
 10 32  1  0  0  0  0
 11 33  1  0  0  0  0
 12 24  1  0  0  0  0
 12 13  1  0  0  0  0
 13 14  1  0  0  0  0
 13 34  1  0  0  0  0
 13 35  1  0  0  0  0
 14 15  1  0  0  0  0
 14 36  1  0  0  0  0
 14 37  1  0  0  0  0
 15 16  1  0  0  0  0
 15 23  1  0  0  0  0
 15 53  1  0  0  0  0
 16 21  1  0  0  0  0
 16 17  1  0  0  0  0
 16 38  1  0  0  0  0
 17 18  1  0  0  0  0
 17 39  1  0  0  0  0
 17 40  1  0  0  0  0
 18 22  1  0  0  0  0
 18 19  1  0  0  0  0
 18 41  1  0  0  0  0
 19 20  1  0  0  0  0
 19 42  1  0  0  0  0
 19 43  1  0  0  0  0
 20 21  1  0  0  0  0
 20 44  1  0  0  0  0
 20 45  1  0  0  0  0
 21 22  1  0  0  0  0
 21 46  1  0  0  0  0
 22 47  1  0  0  0  0
 22 48  1  0  0  0  0
 23 24  1  0  0  0  0
 23 49  1  0  0  0  0
 23 50  1  0  0  0  0
 24 51  1  0  0  0  0
 24 52  1  0  0  0  0
M  CHG  1  15   1
M  END
> <s_m_source_file>
AV-unprocessed.smi

> <i_m_source_file_index>
2895

> <i_lp_mmshare_version>
43012

> <i_f3d_flags>
0

> <s_epik_input>
W0NIMl0xW0NIMl1bQ0BASF0oW0NIMl0yKVtDQEBIXShbQ0gyXVtDQEhdMTIpTihbQ0gyXVtDSDJdMylbQ0gyXVtDSDJdTjNDKD1PKVtOSF1bQ0gyXVtDSDJdYzRbY0hdW2NIXW5bY0hdW2NIXTQ=

> <s_epik_cmdline>
J2VwaWtfcHl0aG9uJywgJy1waCcsICc3LjAnLCAnLXRuJywgJzgnLCAnLW1hJywgJzIwMCcsICctbWV0YWxfYmluZGluZycsICctaW1hZScsICc8aW5maWxlLm1hZT4nLCAnLW9tYWUnLCAnPG91dGZpbGUubWFlPic=

> <r_epik_Ionization_Penalty>
0.0566172

> <r_epik_Ionization_Penalty_Charging>
0.00262064

> <r_epik_Ionization_Penalty_Neutral>
0.0539965

> <r_epik_State_Penalty>
0.0463959

> <r_epik_Charging_Adjusted_Penalty>
0.0490165

> <i_epik_Tot_Q>
1

> <i_epik_Tot_abs_Q>
1

> <r_epik_Metal_State_Penalty>
0.0424856

> <b_epik_Metal_Only>
0

> <s_lp_Force_Field>
OPLS_2005

> <r_lp_Energy>
99.8283

> <b_lp_Chiralities_Consistent>
1

> <s_lp_Variant>
AV-unprocessed.smi:2895-4

> <Gold.Version>
5.8.1

> <Gold.Id.Protein>
6NUR|6NUR_protein|mol2

> <Gold.PLP.Fitness>
48.3184

> <Gold.PLP.PLP>
-45.1685

> <Gold.PLP.part.hbond>
-1.0000

> <Gold.PLP.part.metal>
0.0000

> <Gold.PLP.part.buried>
-6.8326

> <Gold.PLP.part.nonpolar>
-38.0690

> <Gold.PLP.part.repulsive>
0.1877

> <Gold.PLP.ligand.clash>
0.0000

> <Gold.PLP.ligand.torsion>
0.2488

> <Gold.PLP.Chemscore.Hbond>
0.1888

> <Gold.PLP.Chemscore.CHOScore>
1.0000

> <Gold.PLP.Chemscore.Metal>
0.0000

> <Gold.Chemscore.Hbonds>
donor molecule, donor type, donor heavy atom, donor atom, acceptor molecule, acceptor atom, score
      P1  H  6896  6907       L1     1  0.20
      L1  C    10    32       P1 10747  0.98

> <Gold.PLP.Chemscore.Internal.Correction>
0.0811

> <Gold.Rescore>
     Score         DG    S(hbond)    S(metal)    S(lipo)     H(rot)  DE(clash)    DE(int)     intcor
     18.13     -18.82       0.62        0.00     126.45       1.37       0.06       0.63       ----

> <Gold.Chemscore.Fitness>
18.1283

> <Gold.Chemscore.DG>
-18.8192

> <Gold.Chemscore.ZeroCoef>
-5.4800

> <Gold.Chemscore.Hbond>
0.6167

> <Gold.Chemscore.Metal>
0.0000

> <Gold.Chemscore.Lipo>
126.4484

> <Gold.Chemscore.Internal_Hbond>
0.0000

> <Gold.Chemscore.DEClash>
0.0580

> <Gold.Chemscore.DEInternal>
0.6329

> <Gold.Chemscore.Rot>
1.3731

> <Gold.Chemscore.Internal.Correction>
   9.000000E+99

> <Gold.Chemscore.Hbonds>
donor molecule, donor type, donor heavy atom, donor atom, acceptor molecule, acceptor atom, score
      P1  H  6896  6907       L1     1  0.19

> <Gold.Chemscore.Hbond.Weighted>
-2.0599

> <Gold.Chemscore.Metal.Weighted>
-0.0000

> <Gold.Chemscore.Lipo.Weighted>
-14.7945

> <Gold.Chemscore.Internal_Hbond.Weighted>
0.0000

> <Gold.Chemscore.DEClash.Weighted>
0.0580

> <Gold.Chemscore.DEInternal.Weighted>
0.6329

> <Gold.Chemscore.Rot.Weighted>
3.5152

> <Gold.Chemscore.Internal.Correction.Weighted>
   9.000000E+99

> <Gold.Protein.RotatedTorsions>
[ 6907 6896 6895 6894 ] final  -53.25 input  -60.11 | X-H torsion
[ 7974 7965 7964 7962 ] final  157.34 input  175.53 | X-H torsion
[ 8008 7997 7996 7995 ] final  -18.74 input   59.86 | X-H torsion
[ 10167 10162 10161 10158 ] final  118.90 input  -65.29 | X-H torsion
[ 10718 10713 10712 10709 ] final   35.43 input   66.30 | X-H torsion
[ 10763 10752 10751 10750 ] final  160.41 input  -60.55 | X-H torsion
[ 11005 11000 10999 10996 ] final   48.08 input  -57.11 | X-H torsion

> <Gold.Protein.ActiveResidues>
 VAL166  LYS551  ARG553  GLY616  TRP617  ASP618  TYR619  PRO620  LYS621  CYS622 
 ASP623  PHE694  ASN695  SER759  ASP760  ASP761  ALA762  ILE779  LEU786  VAL792 
 PHE793  MET794  SER795  GLU796  ALA797  LYS798  CYS799  TRP800  GLU811  SER814 

> <Gold.Protein.RotatedAtoms>
  150.8444  134.7747  159.6958 H   0  0  0  0  0  0  0  0  0  0  0  0  # atno 6907 bound_to 6896
  152.4524  134.5362  159.9835 H   0  0  0  0  0  0  0  0  0  0  0  0  # atno 6908 bound_to 6896
  151.5495  133.3382  159.2986 H   0  0  0  0  0  0  0  0  0  0  0  0  # atno 6909 bound_to 6896
  144.7909  139.7328  143.6222 H   0  0  0  0  0  0  0  0  0  0  0  0  # atno 7974 bound_to 7965
  154.4885  140.2107  155.9601 H   0  0  0  0  0  0  0  0  0  0  0  0  # atno 8008 bound_to 7997
  156.1271  140.3203  155.8262 H   0  0  0  0  0  0  0  0  0  0  0  0  # atno 8009 bound_to 7997
  155.4364  140.0507  157.3005 H   0  0  0  0  0  0  0  0  0  0  0  0  # atno 8010 bound_to 7997
  139.6081  144.7075  151.2907 H   0  0  0  0  0  0  0  0  0  0  0  0  # atno 10167 bound_to 10162
  157.3226  130.7456  149.6795 H   0  0  0  0  0  0  0  0  0  0  0  0  # atno 10718 bound_to 10713
  154.2470  135.2773  155.2832 H   0  0  0  0  0  0  0  0  0  0  0  0  # atno 10763 bound_to 10752
  154.5497  135.5678  153.6915 H   0  0  0  0  0  0  0  0  0  0  0  0  # atno 10764 bound_to 10752
  152.9988  135.6271  154.2615 H   0  0  0  0  0  0  0  0  0  0  0  0  # atno 10765 bound_to 10752
  140.1223  134.4814  155.8588 H   0  0  0  0  0  0  0  0  0  0  0  0  # atno 11005 bound_to 11000
  146.2160  139.5550  142.9650 LP  0  0  0  0  0  0  0  0  0  0  0  0  # atno 17320 bound_to 7965
  145.5797  141.0384  143.2128 LP  0  0  0  0  0  0  0  0  0  0  0  0  # atno 17321 bound_to 7965
  140.7299  143.6894  150.7935 LP  0  0  0  0  0  0  0  0  0  0  0  0  # atno 17342 bound_to 10162
  140.0483  143.5275  152.2686 LP  0  0  0  0  0  0  0  0  0  0  0  0  # atno 17343 bound_to 10162
  155.9687  130.4218  150.4489 LP  0  0  0  0  0  0  0  0  0  0  0  0  # atno 17370 bound_to 10713
  157.2507  131.0546  151.2381 LP  0  0  0  0  0  0  0  0  0  0  0  0  # atno 17371 bound_to 10713
  141.2154  133.6765  156.6911 LP  0  0  0  0  0  0  0  0  0  0  0  0  # atno 17394 bound_to 11000
  140.2950  134.8210  157.4049 LP  0  0  0  0  0  0  0  0  0  0  0  0  # atno 17395 bound_to 11000

$$$$
