AV-unprocessed.smi:79|AV-procd|sdf|777|dock5
  -GOLD-   2262017133D 1   1.00000     0.00000
 Structure written by MMmdl.
 56 59  0  0  0  0  0  0  0  0  2 V2000
  144.1401  132.3750  150.1461 C   0  0  0  0  0  0  0  0  0  0  0  0
  144.0121  133.8584  150.5237 C   0  0  2  0  0  0  0  0  0  0  0  0
  143.6818  134.5789  149.3551 O   0  0  0  0  0  0  0  0  0  0  0  0
  145.3136  134.4475  151.1049 C   0  0  0  0  0  0  0  0  0  0  0  0
  145.7590  133.7600  152.3439 N   0  3  2  0  0  0  0  0  0  0  0  0
  145.4903  134.5376  153.5829 C   0  0  0  0  0  0  0  0  0  0  0  0
  145.8933  133.7430  154.8364 C   0  0  0  0  0  0  0  0  0  0  0  0
  147.2805  133.2941  154.7390 N   0  0  0  0  0  0  0  0  0  0  0  0
  148.2027  134.1401  155.2700 C   0  0  0  0  0  0  0  0  0  0  0  0
  149.4306  133.6752  155.6240 N   0  0  0  0  0  0  0  0  0  0  0  0
  150.3463  134.5035  156.1350 C   0  0  0  0  0  0  0  0  0  0  0  0
  150.2455  135.8119  156.3746 N   0  0  0  0  0  0  0  0  0  0  0  0
  149.0143  136.2851  156.0284 C   0  0  0  0  0  0  0  0  0  0  0  0
  147.9458  135.5255  155.4738 C   0  0  0  0  0  0  0  0  0  0  0  0
  146.8454  136.3466  155.2586 N   0  0  0  0  0  0  0  0  0  0  0  0
  147.2429  137.5245  155.6552 C   0  0  0  0  0  0  0  0  0  0  0  0
  148.5295  137.5769  156.1421 N   0  0  0  0  0  0  0  0  0  0  0  0
  149.2222  138.7503  156.6527 C   0  0  0  0  0  0  0  0  0  0  0  0
  149.8243  139.6428  155.5517 C   0  0  0  0  0  0  0  0  0  0  0  0
  148.6717  140.2662  154.7385 C   0  0  0  0  0  0  0  0  0  0  0  0
  149.1343  141.0316  153.6436 O   0  0  0  0  0  0  0  0  0  0  0  0
  150.9218  140.6075  156.0239 C   0  0  0  0  0  0  0  0  0  0  0  0
  151.8384  140.1527  155.0036 O   0  0  0  0  0  0  0  0  0  0  0  0
  150.9702  139.0304  154.7332 C   0  0  0  0  0  0  0  0  0  0  0  0
  147.6133  132.5403  153.5255 C   0  0  1  0  0  0  0  0  0  0  0  0
  147.0117  131.1246  153.5631 C   0  0  0  0  0  0  0  0  0  0  0  0
  147.1759  133.3163  152.2615 C   0  0  0  0  0  0  0  0  0  0  0  0
  144.3617  131.7611  151.0193 H   0  0  0  0  0  0  0  0  0  0  0  0
  144.9353  132.2162  149.4168 H   0  0  0  0  0  0  0  0  0  0  0  0
  143.2123  132.0001  149.7126 H   0  0  0  0  0  0  0  0  0  0  0  0
  143.1840  133.9858  151.2201 H   0  0  0  0  0  0  0  0  0  0  0  0
  144.4769  134.7777  148.8838 H   0  0  0  0  0  0  0  0  0  0  0  0
  146.0942  134.3670  150.3465 H   0  0  0  0  0  0  0  0  0  0  0  0
  145.1963  135.5132  151.3087 H   0  0  0  0  0  0  0  0  0  0  0  0
  146.0425  135.4783  153.5468 H   0  0  0  0  0  0  0  0  0  0  0  0
  144.4343  134.7937  153.6548 H   0  0  0  0  0  0  0  0  0  0  0  0
  145.7269  134.3562  155.7214 H   0  0  0  0  0  0  0  0  0  0  0  0
  145.2478  132.8719  154.9506 H   0  0  0  0  0  0  0  0  0  0  0  0
  151.2957  134.0540  156.3869 H   0  0  0  0  0  0  0  0  0  0  0  0
  146.6009  138.3916  155.6048 H   0  0  0  0  0  0  0  0  0  0  0  0
  148.5282  139.3216  157.2707 H   0  0  0  0  0  0  0  0  0  0  0  0
  150.0014  138.4022  157.3319 H   0  0  0  0  0  0  0  0  0  0  0  0
  148.0119  139.4969  154.3372 H   0  0  0  0  0  0  0  0  0  0  0  0
  148.0585  140.9128  155.3672 H   0  0  0  0  0  0  0  0  0  0  0  0
  149.2302  140.4611  152.8964 H   0  0  0  0  0  0  0  0  0  0  0  0
  150.6694  141.6638  155.9241 H   0  0  0  0  0  0  0  0  0  0  0  0
  151.2981  140.3955  157.0261 H   0  0  0  0  0  0  0  0  0  0  0  0
  151.3730  138.1066  155.1500 H   0  0  0  0  0  0  0  0  0  0  0  0
  150.7496  138.9134  153.6716 H   0  0  0  0  0  0  0  0  0  0  0  0
  148.6945  132.4012  153.4797 H   0  0  0  0  0  0  0  0  0  0  0  0
  147.3333  130.5419  152.6996 H   0  0  0  0  0  0  0  0  0  0  0  0
  145.9218  131.1395  153.5599 H   0  0  0  0  0  0  0  0  0  0  0  0
  147.3344  130.5885  154.4562 H   0  0  0  0  0  0  0  0  0  0  0  0
  147.3221  132.6926  151.3788 H   0  0  0  0  0  0  0  0  0  0  0  0
  147.8081  134.1950  152.1259 H   0  0  0  0  0  0  0  0  0  0  0  0
  145.2117  132.9136  152.4094 H   0  0  0  0  0  0  0  0  0  0  0  0
  1  2  1  0  0  0  0
  1 28  1  0  0  0  0
  1 29  1  0  0  0  0
  1 30  1  0  0  0  0
  2  3  1  0  0  0  0
  2  4  1  0  0  0  0
  2 31  1  0  0  0  0
  3 32  1  0  0  0  0
  4  5  1  0  0  0  0
  4 33  1  0  0  0  0
  4 34  1  0  0  0  0
  5 27  1  0  0  0  0
  5  6  1  0  0  0  0
  5 56  1  0  0  0  0
  6  7  1  0  0  0  0
  6 35  1  0  0  0  0
  6 36  1  0  0  0  0
  7  8  1  0  0  0  0
  7 37  1  0  0  0  0
  7 38  1  0  0  0  0
  8  9  1  0  0  0  0
  8 25  1  0  0  0  0
  9 14  1  0  0  0  0
  9 10  2  0  0  0  0
 10 11  1  0  0  0  0
 11 12  2  0  0  0  0
 11 39  1  0  0  0  0
 12 13  1  0  0  0  0
 13 17  1  0  0  0  0
 13 14  2  0  0  0  0
 14 15  1  0  0  0  0
 15 16  2  0  0  0  0
 16 17  1  0  0  0  0
 16 40  1  0  0  0  0
 17 18  1  0  0  0  0
 18 19  1  0  0  0  0
 18 41  1  0  0  0  0
 18 42  1  0  0  0  0
 19 24  1  0  0  0  0
 19 20  1  0  0  0  0
 19 22  1  0  0  0  0
 20 21  1  0  0  0  0
 20 43  1  0  0  0  0
 20 44  1  0  0  0  0
 21 45  1  0  0  0  0
 22 23  1  0  0  0  0
 22 46  1  0  0  0  0
 22 47  1  0  0  0  0
 23 24  1  0  0  0  0
 24 48  1  0  0  0  0
 24 49  1  0  0  0  0
 25 26  1  0  0  0  0
 25 27  1  0  0  0  0
 25 50  1  0  0  0  0
 26 51  1  0  0  0  0
 26 52  1  0  0  0  0
 26 53  1  0  0  0  0
 27 54  1  0  0  0  0
 27 55  1  0  0  0  0
M  CHG  1   5   1
M  END
> <s_m_source_file>
AV-unprocessed.smi

> <i_m_source_file_index>
79

> <i_lp_mmshare_version>
43012

> <i_f3d_flags>
0

> <s_epik_input>
W0NIM11bQ0BIXShbT0hdKVtDSDJdTjFbQ0gyXVtDSDJdTihbQ0BASF0oW0NIM10pW0NIMl0xKWMobltjSF1uMiljKGMyMyluW2NIXW4zW0NIMl1DNChbQ0gyXVtPSF0pW0NIMl1PW0NIMl00

> <s_epik_cmdline>
J2VwaWtfcHl0aG9uJywgJy1waCcsICc3LjAnLCAnLXRuJywgJzgnLCAnLW1hJywgJzIwMCcsICctbWV0YWxfYmluZGluZycsICctaW1hZScsICc8aW5maWxlLm1hZT4nLCAnLW9tYWUnLCAnPG91dGZpbGUubWFlPic=

> <r_lp_tautomer_probability>
1

> <r_epik_Ionization_Penalty>
0.00515943

> <r_epik_Ionization_Penalty_Charging>
0.00509693

> <r_epik_Ionization_Penalty_Neutral>
6.25007e-05

> <r_epik_State_Penalty>
-0

> <r_epik_Charging_Adjusted_Penalty>
0.00509693

> <i_epik_Tot_Q>
1

> <i_epik_Tot_abs_Q>
1

> <r_epik_Metal_State_Penalty>
-0

> <b_epik_Metal_Only>
0

> <s_lp_Force_Field>
OPLS_2005

> <r_lp_Energy>
51.7042

> <b_lp_Chiralities_Consistent>
1

> <s_lp_Variant>
AV-unprocessed.smi:79-1

> <Gold.Version>
5.8.1

> <Gold.Id.Protein>
6NUR|6NUR_protein|mol2

> <Gold.PLP.Fitness>
43.6498

> <Gold.PLP.PLP>
-35.4273

> <Gold.PLP.part.hbond>
-5.0204

> <Gold.PLP.part.metal>
0.0000

> <Gold.PLP.part.buried>
-8.2285

> <Gold.PLP.part.nonpolar>
-24.2919

> <Gold.PLP.part.repulsive>
0.1765

> <Gold.PLP.ligand.clash>
0.0000

> <Gold.PLP.ligand.torsion>
1.4868

> <Gold.PLP.Chemscore.Hbond>
3.4029

> <Gold.PLP.Chemscore.CHOScore>
0.0000

> <Gold.PLP.Chemscore.Metal>
0.0000

> <Gold.Chemscore.Hbonds>
donor molecule, donor type, donor heavy atom, donor atom, acceptor molecule, acceptor atom, score
      L1  H     3    32       P1  7921  0.89
      L1  H    21    45       P1  7957  1.00
      P1  H  7989  7998       L1    23  0.70
      P1  H  8011  8017       L1    21  0.10

> <Gold.PLP.Chemscore.Internal.Correction>
0.9876

> <Gold.Rescore>
     Score         DG    S(hbond)    S(metal)    S(lipo)     H(rot)  DE(clash)    DE(int)     intcor
      9.50     -13.76       2.75        0.00      73.79       3.72       0.01       4.24       ----

> <Gold.Chemscore.Fitness>
9.4996

> <Gold.Chemscore.DG>
-13.7554

> <Gold.Chemscore.ZeroCoef>
-5.4800

> <Gold.Chemscore.Hbond>
2.7460

> <Gold.Chemscore.Metal>
0.0000

> <Gold.Chemscore.Lipo>
73.7922

> <Gold.Chemscore.Internal_Hbond>
0.0000

> <Gold.Chemscore.DEClash>
0.0117

> <Gold.Chemscore.DEInternal>
4.2442

> <Gold.Chemscore.Rot>
3.7226

> <Gold.Chemscore.Internal.Correction>
   9.000000E+99

> <Gold.Chemscore.Hbonds>
donor molecule, donor type, donor heavy atom, donor atom, acceptor molecule, acceptor atom, score
      L1  H     3    32       P1  7921  0.87
      L1  H    21    45       P1  7957  0.98
      P1  H  7989  7998       L1    23  0.09

> <Gold.Chemscore.Hbond.Weighted>
-9.1715

> <Gold.Chemscore.Metal.Weighted>
-0.0000

> <Gold.Chemscore.Lipo.Weighted>
-8.6337

> <Gold.Chemscore.Internal_Hbond.Weighted>
0.0000

> <Gold.Chemscore.DEClash.Weighted>
0.0117

> <Gold.Chemscore.DEInternal.Weighted>
4.2442

> <Gold.Chemscore.Rot.Weighted>
9.5298

> <Gold.Chemscore.Internal.Correction.Weighted>
   9.000000E+99

> <Gold.Protein.RotatedTorsions>
[ 6907 6896 6895 6894 ] final  129.03 input  -60.11 | X-H torsion
[ 7974 7965 7964 7962 ] final   64.45 input  175.53 | X-H torsion
[ 8008 7997 7996 7995 ] final  -44.38 input   59.86 | X-H torsion
[ 10167 10162 10161 10158 ] final  172.65 input  -65.29 | X-H torsion
[ 10718 10713 10712 10709 ] final -111.78 input   66.30 | X-H torsion
[ 10763 10752 10751 10750 ] final  -48.46 input  -60.55 | X-H torsion
[ 11005 11000 10999 10996 ] final -154.32 input  -57.11 | X-H torsion

> <Gold.Protein.ActiveResidues>
 VAL166  LYS551  ARG553  GLY616  TRP617  ASP618  TYR619  PRO620  LYS621  CYS622 
 ASP623  PHE694  ASN695  SER759  ASP760  ASP761  ALA762  ILE779  LEU786  VAL792 
 PHE793  MET794  SER795  GLU796  ALA797  LYS798  CYS799  TRP800  GLU811  SER814 

> <Gold.Protein.RotatedAtoms>
  152.3663  133.6361  159.6052 H   0  0  0  0  0  0  0  0  0  0  0  0  # atno 6907 bound_to 6896
  150.7637  133.9342  159.3445 H   0  0  0  0  0  0  0  0  0  0  0  0  # atno 6908 bound_to 6896
  151.7172  135.0902  160.0329 H   0  0  0  0  0  0  0  0  0  0  0  0  # atno 6909 bound_to 6896
  145.8500  139.3248  143.0881 H   0  0  0  0  0  0  0  0  0  0  0  0  # atno 7974 bound_to 7965
  154.3997  140.1424  156.3673 H   0  0  0  0  0  0  0  0  0  0  0  0  # atno 8008 bound_to 7997
  155.8125  140.3472  155.5445 H   0  0  0  0  0  0  0  0  0  0  0  0  # atno 8009 bound_to 7997
  155.8371  140.0921  157.1747 H   0  0  0  0  0  0  0  0  0  0  0  0  # atno 8010 bound_to 7997
  139.5083  144.3350  152.0074 H   0  0  0  0  0  0  0  0  0  0  0  0  # atno 10167 bound_to 10162
  156.0667  130.5885  150.8419 H   0  0  0  0  0  0  0  0  0  0  0  0  # atno 10718 bound_to 10713
  154.0782  135.6595  153.4834 H   0  0  0  0  0  0  0  0  0  0  0  0  # atno 10763 bound_to 10752
  153.0366  135.5173  154.7500 H   0  0  0  0  0  0  0  0  0  0  0  0  # atno 10764 bound_to 10752
  154.6587  135.3012  154.9862 H   0  0  0  0  0  0  0  0  0  0  0  0  # atno 10765 bound_to 10752
  140.6986  134.3962  157.5212 H   0  0  0  0  0  0  0  0  0  0  0  0  # atno 11005 bound_to 11000
  145.9368  140.9008  143.0328 LP  0  0  0  0  0  0  0  0  0  0  0  0  # atno 17320 bound_to 7965
  144.6729  140.1494  143.7431 LP  0  0  0  0  0  0  0  0  0  0  0  0  # atno 17321 bound_to 7965
  140.2789  144.3881  150.6125 LP  0  0  0  0  0  0  0  0  0  0  0  0  # atno 17342 bound_to 10162
  140.6033  143.2167  151.7030 LP  0  0  0  0  0  0  0  0  0  0  0  0  # atno 17343 bound_to 10162
  157.5713  131.0946  150.9414 LP  0  0  0  0  0  0  0  0  0  0  0  0  # atno 17370 bound_to 10713
  156.9629  130.5462  149.5287 LP  0  0  0  0  0  0  0  0  0  0  0  0  # atno 17371 bound_to 10713
  139.8903  134.8808  156.2376 LP  0  0  0  0  0  0  0  0  0  0  0  0  # atno 17394 bound_to 11000
  141.0182  133.7056  156.1224 LP  0  0  0  0  0  0  0  0  0  0  0  0  # atno 17395 bound_to 11000

$$$$
