AV-unprocessed.smi:703|AV-procd|sdf|3433|dock9
  -GOLD-   22720 0423D 1   1.00000     0.00000
 Structure written by MMmdl.
 38 39  0  0  0  0  0  0  0  0  2 V2000
  147.0786  142.2116  154.1247 C   0  0  0  0  0  0  0  0  0  0  0  0
  147.3094  140.6985  154.2360 C   0  0  0  0  0  0  0  0  0  0  0  0
  148.7158  140.3230  153.9571 N   0  3  2  0  0  0  0  0  0  0  0  0
  149.0103  138.8778  154.0732 C   0  0  0  0  0  0  0  0  0  0  0  0
  150.4940  138.7968  154.4284 C   0  0  2  0  0  0  0  0  0  0  0  0
  150.9564  137.4385  154.9816 C   0  0  0  0  0  0  0  0  0  0  0  0
  150.6969  140.0147  155.3383 C   0  0  2  0  0  0  0  0  0  0  0  0
  150.3661  139.7032  156.7346 N   0  0  0  0  0  0  0  0  0  0  0  0
  151.5693  139.5669  157.9645 S   0  0  0  0  0  0  0  0  0  0  0  0
  151.1905  138.4489  158.8426 O   0  0  0  0  0  0  0  0  0  0  0  0
  152.8710  139.5678  157.2806 O   0  0  0  0  0  0  0  0  0  0  0  0
  151.4053  141.1678  158.8764 C   0  0  0  0  0  0  0  0  0  0  0  0
  152.4325  141.2828  159.9683 C   0  0  0  0  0  0  0  0  0  0  0  0
  152.5823  142.3205  160.9299 C   0  0  0  0  0  0  0  0  0  0  0  0
  153.6661  141.9258  161.6602 C   0  0  0  0  0  0  0  0  0  0  0  0
  154.1533  140.7507  161.1895 O   0  0  0  0  0  0  0  0  0  0  0  0
  153.3644  140.3524  160.1044 N   0  0  0  0  0  0  0  0  0  0  0  0
  149.7131  141.0558  154.7751 C   0  0  0  0  0  0  0  0  0  0  0  0
  146.0534  142.4650  154.3955 H   0  0  0  0  0  0  0  0  0  0  0  0
  147.2464  142.5715  153.1094 H   0  0  0  0  0  0  0  0  0  0  0  0
  147.7421  142.7622  154.7919 H   0  0  0  0  0  0  0  0  0  0  0  0
  147.0588  140.3820  155.2495 H   0  0  0  0  0  0  0  0  0  0  0  0
  146.6397  140.1597  153.5640 H   0  0  0  0  0  0  0  0  0  0  0  0
  148.4134  138.4405  154.8756 H   0  0  0  0  0  0  0  0  0  0  0  0
  148.7742  138.3461  153.1509 H   0  0  0  0  0  0  0  0  0  0  0  0
  151.0580  138.9847  153.5129 H   0  0  0  0  0  0  0  0  0  0  0  0
  150.3957  137.1468  155.8700 H   0  0  0  0  0  0  0  0  0  0  0  0
  152.0133  137.4631  155.2455 H   0  0  0  0  0  0  0  0  0  0  0  0
  150.8207  136.6526  154.2384 H   0  0  0  0  0  0  0  0  0  0  0  0
  151.7240  140.3761  155.2908 H   0  0  0  0  0  0  0  0  0  0  0  0
  149.4086  139.8614  157.0477 H   0  0  0  0  0  0  0  0  0  0  0  0
  151.5310  141.9745  158.1537 H   0  0  0  0  0  0  0  0  0  0  0  0
  150.3917  141.2408  159.2697 H   0  0  0  0  0  0  0  0  0  0  0  0
  151.9896  143.2128  161.0633 H   0  0  0  0  0  0  0  0  0  0  0  0
  154.1896  142.3529  162.5027 H   0  0  0  0  0  0  0  0  0  0  0  0
  150.2356  141.7549  154.1217 H   0  0  0  0  0  0  0  0  0  0  0  0
  149.2453  141.6478  155.5639 H   0  0  0  0  0  0  0  0  0  0  0  0
  148.9080  140.5796  152.9994 H   0  0  0  0  0  0  0  0  0  0  0  0
  1  2  1  0  0  0  0
  1 19  1  0  0  0  0
  1 20  1  0  0  0  0
  1 21  1  0  0  0  0
  2  3  1  0  0  0  0
  2 22  1  0  0  0  0
  2 23  1  0  0  0  0
  3 18  1  0  0  0  0
  3  4  1  0  0  0  0
  3 38  1  0  0  0  0
  4  5  1  0  0  0  0
  4 24  1  0  0  0  0
  4 25  1  0  0  0  0
  5  6  1  0  0  0  0
  5  7  1  0  0  0  0
  5 26  1  0  0  0  0
  6 27  1  0  0  0  0
  6 28  1  0  0  0  0
  6 29  1  0  0  0  0
  7  8  1  0  0  0  0
  7 18  1  0  0  0  0
  7 30  1  0  0  0  0
  8  9  1  0  0  0  0
  8 31  1  0  0  0  0
  9 10  2  0  0  0  0
  9 11  2  0  0  0  0
  9 12  1  0  0  0  0
 12 13  1  0  0  0  0
 12 32  1  0  0  0  0
 12 33  1  0  0  0  0
 13 17  2  0  0  0  0
 13 14  1  0  0  0  0
 14 15  2  0  0  0  0
 14 34  1  0  0  0  0
 15 16  1  0  0  0  0
 15 35  1  0  0  0  0
 16 17  1  0  0  0  0
 18 36  1  0  0  0  0
 18 37  1  0  0  0  0
M  CHG  1   3   1
M  END
> <s_m_source_file>
AV-unprocessed.smi

> <i_m_source_file_index>
703

> <i_lp_mmshare_version>
43012

> <i_f3d_flags>
0

> <s_epik_input>
W0NIM11bQ0gyXU4xW0NIMl1bQ0BASF0oW0NIM10pW0NASF0oW0NIMl0xKVtOSF1TKD1PKSg9TylbQ0gyXWMyW2NIXVtjSF1vbjI=

> <s_epik_cmdline>
J2VwaWtfcHl0aG9uJywgJy1waCcsICc3LjAnLCAnLXRuJywgJzgnLCAnLW1hJywgJzIwMCcsICctbWV0YWxfYmluZGluZycsICctaW1hZScsICc8aW5maWxlLm1hZT4nLCAnLW9tYWUnLCAnPG91dGZpbGUubWFlPic=

> <r_epik_Ionization_Penalty>
0.00324529

> <r_epik_Ionization_Penalty_Charging>
0.0019384

> <r_epik_Ionization_Penalty_Neutral>
0.00130689

> <r_epik_State_Penalty>
0.00218682

> <r_epik_Charging_Adjusted_Penalty>
0.00412522

> <i_epik_Tot_Q>
1

> <i_epik_Tot_abs_Q>
1

> <r_epik_Metal_State_Penalty>
0.310831

> <b_epik_Metal_Only>
0

> <s_lp_Force_Field>
OPLS_2005

> <r_lp_Energy>
18.8873

> <b_lp_Chiralities_Consistent>
1

> <s_lp_Variant>
AV-unprocessed.smi:703-8

> <Gold.Version>
5.8.1

> <Gold.Id.Protein>
6NUR|6NUR_protein|mol2

> <Gold.PLP.Fitness>
40.5982

> <Gold.PLP.PLP>
-35.0143

> <Gold.PLP.part.hbond>
-2.0000

> <Gold.PLP.part.metal>
0.0000

> <Gold.PLP.part.buried>
-3.5655

> <Gold.PLP.part.nonpolar>
-29.2809

> <Gold.PLP.part.repulsive>
0.1519

> <Gold.PLP.ligand.clash>
0.0000

> <Gold.PLP.ligand.torsion>
0.7608

> <Gold.PLP.Chemscore.Hbond>
1.9920

> <Gold.PLP.Chemscore.CHOScore>
0.0000

> <Gold.PLP.Chemscore.Metal>
0.0000

> <Gold.Chemscore.Hbonds>
donor molecule, donor type, donor heavy atom, donor atom, acceptor molecule, acceptor atom, score
      L1  H     3    38       P1  7957  0.95
      P1  H  7997  8010       L1    11  1.00

> <Gold.PLP.Chemscore.Internal.Correction>
1.1295

> <Gold.Rescore>
     Score         DG    S(hbond)    S(metal)    S(lipo)     H(rot)  DE(clash)    DE(int)     intcor
     15.23     -17.65       2.00        0.00      83.77       1.68       0.14       2.28       ----

> <Gold.Chemscore.Fitness>
15.2286

> <Gold.Chemscore.DG>
-17.6513

> <Gold.Chemscore.ZeroCoef>
-5.4800

> <Gold.Chemscore.Hbond>
1.9951

> <Gold.Chemscore.Metal>
0.0000

> <Gold.Chemscore.Lipo>
83.7688

> <Gold.Chemscore.Internal_Hbond>
0.0000

> <Gold.Chemscore.DEClash>
0.1445

> <Gold.Chemscore.DEInternal>
2.2783

> <Gold.Chemscore.Rot>
1.6770

> <Gold.Chemscore.Internal.Correction>
   9.000000E+99

> <Gold.Chemscore.Hbonds>
donor molecule, donor type, donor heavy atom, donor atom, acceptor molecule, acceptor atom, score
      L1  H     3    38       P1  7957  0.86
      P1  H  7997  8010       L1    11  0.99

> <Gold.Chemscore.Hbond.Weighted>
-6.6636

> <Gold.Chemscore.Metal.Weighted>
-0.0000

> <Gold.Chemscore.Lipo.Weighted>
-9.8010

> <Gold.Chemscore.Internal_Hbond.Weighted>
0.0000

> <Gold.Chemscore.DEClash.Weighted>
0.1445

> <Gold.Chemscore.DEInternal.Weighted>
2.2783

> <Gold.Chemscore.Rot.Weighted>
4.2932

> <Gold.Chemscore.Internal.Correction.Weighted>
   9.000000E+99

> <Gold.Protein.RotatedTorsions>
[ 6907 6896 6895 6894 ] final   75.49 input  -60.11 | X-H torsion
[ 7974 7965 7964 7962 ] final -115.13 input  175.53 | X-H torsion
[ 8008 7997 7996 7995 ] final   41.40 input   59.86 | X-H torsion
[ 10167 10162 10161 10158 ] final  149.78 input  -65.29 | X-H torsion
[ 10718 10713 10712 10709 ] final  136.26 input   66.30 | X-H torsion
[ 10763 10752 10751 10750 ] final  150.27 input  -60.55 | X-H torsion
[ 11005 11000 10999 10996 ] final  -80.61 input  -57.11 | X-H torsion

> <Gold.Protein.ActiveResidues>
 VAL166  LYS551  ARG553  GLY616  TRP617  ASP618  TYR619  PRO620  LYS621  CYS622 
 ASP623  PHE694  ASN695  SER759  ASP760  ASP761  ALA762  ILE779  LEU786  VAL792 
 PHE793  MET794  SER795  GLU796  ALA797  LYS798  CYS799  TRP800  GLU811  SER814 

> <Gold.Protein.RotatedAtoms>
  152.5028  134.4113  159.9449 H   0  0  0  0  0  0  0  0  0  0  0  0  # atno 6907 bound_to 6896
  151.4081  133.3730  159.2748 H   0  0  0  0  0  0  0  0  0  0  0  0  # atno 6908 bound_to 6896
  150.9312  134.8748  159.7611 H   0  0  0  0  0  0  0  0  0  0  0  0  # atno 6909 bound_to 6896
  145.1120  140.8617  143.3864 H   0  0  0  0  0  0  0  0  0  0  0  0  # atno 7974 bound_to 7965
  155.2690  140.3364  155.4267 H   0  0  0  0  0  0  0  0  0  0  0  0  # atno 8008 bound_to 7997
  156.2141  140.1782  156.7670 H   0  0  0  0  0  0  0  0  0  0  0  0  # atno 8009 bound_to 7997
  154.5728  140.0667  156.8974 H   0  0  0  0  0  0  0  0  0  0  0  0  # atno 8010 bound_to 7997
  139.4857  144.5575  151.7291 H   0  0  0  0  0  0  0  0  0  0  0  0  # atno 10167 bound_to 10162
  157.4485  131.1064  151.0061 H   0  0  0  0  0  0  0  0  0  0  0  0  # atno 10718 bound_to 10713
  154.0848  135.2857  155.3283 H   0  0  0  0  0  0  0  0  0  0  0  0  # atno 10763 bound_to 10752
  154.6660  135.5317  153.8080 H   0  0  0  0  0  0  0  0  0  0  0  0  # atno 10764 bound_to 10752
  153.0435  135.6545  154.1020 H   0  0  0  0  0  0  0  0  0  0  0  0  # atno 10765 bound_to 10752
  141.1668  133.7158  156.8298 H   0  0  0  0  0  0  0  0  0  0  0  0  # atno 11005 bound_to 11000
  145.0836  139.2941  143.5771 LP  0  0  0  0  0  0  0  0  0  0  0  0  # atno 17320 bound_to 7965
  146.3526  140.0351  142.8647 LP  0  0  0  0  0  0  0  0  0  0  0  0  # atno 17321 bound_to 7965
  140.5139  144.0983  150.6003 LP  0  0  0  0  0  0  0  0  0  0  0  0  # atno 17342 bound_to 10162
  140.3918  143.2748  152.0051 LP  0  0  0  0  0  0  0  0  0  0  0  0  # atno 17343 bound_to 10162
  157.0899  130.5938  149.5437 LP  0  0  0  0  0  0  0  0  0  0  0  0  # atno 17370 bound_to 10713
  155.9977  130.5049  150.7544 LP  0  0  0  0  0  0  0  0  0  0  0  0  # atno 17371 bound_to 10713
  140.2059  134.8863  157.3221 LP  0  0  0  0  0  0  0  0  0  0  0  0  # atno 17394 bound_to 11000
  140.2138  134.4106  155.7599 LP  0  0  0  0  0  0  0  0  0  0  0  0  # atno 17395 bound_to 11000

$$$$
