AV-unprocessed.smi:3240|AV-procd|sdf|12384|dock1
  -GOLD-   2272018243D 1   1.00000     0.00000
 Structure written by MMmdl.
 43 44  0  0  0  0  0  0  0  0  1 V2000
  154.3320  142.7469  164.7046 C   0  0  0  0  0  0  0  0  0  0  0  0
  153.6801  142.7876  163.3526 C   0  0  0  0  0  0  0  0  0  0  0  0
  152.7338  143.7345  162.8676 C   0  0  0  0  0  0  0  0  0  0  0  0
  152.3497  143.4883  161.6259 N   0  0  0  0  0  0  0  0  0  0  0  0
  153.0295  142.3753  161.2767 N   0  0  0  0  0  0  0  0  0  0  0  0
  152.8526  141.8011  159.9540 C   0  0  0  0  0  0  0  0  0  0  0  0
  151.7434  142.4974  159.1377 C   0  0  1  0  0  0  0  0  0  0  0  0
  152.2082  143.8377  158.5302 C   0  0  0  0  0  0  0  0  0  0  0  0
  151.2548  141.5730  158.1098 N   0  0  0  0  0  0  0  0  0  0  0  0
  149.9031  141.8385  157.6077 C   0  0  0  0  0  0  0  0  0  0  0  0
  149.7403  141.4620  156.1176 C   0  0  0  0  0  0  0  0  0  0  0  0
  150.3438  142.4981  155.3639 O   0  0  0  0  0  0  0  0  0  0  0  0
  150.3977  140.1023  155.7678 C   0  0  0  0  0  0  0  0  0  0  0  0
  150.1185  139.6544  154.3213 C   0  0  0  0  0  0  0  0  0  0  0  0
  148.6134  139.6224  154.0227 C   0  0  0  0  0  0  0  0  0  0  0  0
  147.9700  140.9859  154.3081 C   0  0  0  0  0  0  0  0  0  0  0  0
  148.2360  141.4369  155.7555 C   0  0  0  0  0  0  0  0  0  0  0  0
  153.8435  141.9342  162.2982 C   0  0  0  0  0  0  0  0  0  0  0  0
  154.4964  143.7479  165.1036 H   0  0  0  0  0  0  0  0  0  0  0  0
  155.3027  142.2517  164.6718 H   0  0  0  0  0  0  0  0  0  0  0  0
  153.7199  142.2084  165.4282 H   0  0  0  0  0  0  0  0  0  0  0  0
  152.3177  144.5900  163.3791 H   0  0  0  0  0  0  0  0  0  0  0  0
  153.8026  141.8463  159.4180 H   0  0  0  0  0  0  0  0  0  0  0  0
  152.6182  140.7430  160.0793 H   0  0  0  0  0  0  0  0  0  0  0  0
  150.9247  142.7135  159.8252 H   0  0  0  0  0  0  0  0  0  0  0  0
  152.5816  144.5164  159.2969 H   0  0  0  0  0  0  0  0  0  0  0  0
  151.3969  144.3635  158.0285 H   0  0  0  0  0  0  0  0  0  0  0  0
  153.0092  143.6860  157.8058 H   0  0  0  0  0  0  0  0  0  0  0  0
  151.3038  140.6212  158.4591 H   0  0  0  0  0  0  0  0  0  0  0  0
  149.1851  141.2669  158.1973 H   0  0  0  0  0  0  0  0  0  0  0  0
  149.6426  142.8884  157.7404 H   0  0  0  0  0  0  0  0  0  0  0  0
  149.8813  143.3029  155.5428 H   0  0  0  0  0  0  0  0  0  0  0  0
  151.4763  140.1427  155.9236 H   0  0  0  0  0  0  0  0  0  0  0  0
  150.0218  139.3379  156.4493 H   0  0  0  0  0  0  0  0  0  0  0  0
  150.6150  140.3301  153.6238 H   0  0  0  0  0  0  0  0  0  0  0  0
  150.5496  138.6678  154.1504 H   0  0  0  0  0  0  0  0  0  0  0  0
  148.4461  139.3425  152.9822 H   0  0  0  0  0  0  0  0  0  0  0  0
  148.1342  138.8551  154.6320 H   0  0  0  0  0  0  0  0  0  0  0  0
  148.3601  141.7283  153.6108 H   0  0  0  0  0  0  0  0  0  0  0  0
  146.8959  140.9326  154.1295 H   0  0  0  0  0  0  0  0  0  0  0  0
  147.7156  140.7556  156.4301 H   0  0  0  0  0  0  0  0  0  0  0  0
  147.7907  142.4191  155.9200 H   0  0  0  0  0  0  0  0  0  0  0  0
  154.4631  141.0562  162.1917 H   0  0  0  0  0  0  0  0  0  0  0  0
  1  2  1  0  0  0  0
  1 19  1  0  0  0  0
  1 20  1  0  0  0  0
  1 21  1  0  0  0  0
  2 18  2  0  0  0  0
  2  3  1  0  0  0  0
  3  4  2  0  0  0  0
  3 22  1  0  0  0  0
  4  5  1  0  0  0  0
  5  6  1  0  0  0  0
  5 18  1  0  0  0  0
  6  7  1  0  0  0  0
  6 23  1  0  0  0  0
  6 24  1  0  0  0  0
  7  8  1  0  0  0  0
  7  9  1  0  0  0  0
  7 25  1  0  0  0  0
  8 26  1  0  0  0  0
  8 27  1  0  0  0  0
  8 28  1  0  0  0  0
  9 10  1  0  0  0  0
  9 29  1  0  0  0  0
 10 11  1  0  0  0  0
 10 30  1  0  0  0  0
 10 31  1  0  0  0  0
 11 17  1  0  0  0  0
 11 12  1  0  0  0  0
 11 13  1  0  0  0  0
 12 32  1  0  0  0  0
 13 14  1  0  0  0  0
 13 33  1  0  0  0  0
 13 34  1  0  0  0  0
 14 15  1  0  0  0  0
 14 35  1  0  0  0  0
 14 36  1  0  0  0  0
 15 16  1  0  0  0  0
 15 37  1  0  0  0  0
 15 38  1  0  0  0  0
 16 17  1  0  0  0  0
 16 39  1  0  0  0  0
 16 40  1  0  0  0  0
 17 41  1  0  0  0  0
 17 42  1  0  0  0  0
 18 43  1  0  0  0  0
M  END
> <s_m_source_file>
AV-unprocessed.smi

> <i_m_source_file_index>
3240

> <i_lp_mmshare_version>
43012

> <i_f3d_flags>
0

> <s_epik_input>
W0NIM11jMVtjSF1ubihbY0hdMSlbQ0gyXVtDQEhdKFtDSDNdKVtOSF1bQ0gyXUMyKFtPSF0pW0NIMl1bQ0gyXVtDSDJdW0NIMl1bQ0gyXTI=

> <s_epik_cmdline>
J2VwaWtfcHl0aG9uJywgJy1waCcsICc3LjAnLCAnLXRuJywgJzgnLCAnLW1hJywgJzIwMCcsICctbWV0YWxfYmluZGluZycsICctaW1hZScsICc8aW5maWxlLm1hZT4nLCAnLW9tYWUnLCAnPG91dGZpbGUubWFlPic=

> <r_lp_tautomer_probability>
1

> <r_epik_Ionization_Penalty>
2.35969

> <r_epik_Ionization_Penalty_Charging>
0

> <r_epik_Ionization_Penalty_Neutral>
2.35969

> <r_epik_State_Penalty>
2.51455

> <r_epik_Charging_Adjusted_Penalty>
2.51455

> <i_epik_Tot_Q>
0

> <i_epik_Tot_abs_Q>
0

> <r_epik_Metal_State_Penalty>
2.51446

> <b_epik_Metal_Only>
0

> <s_lp_Force_Field>
OPLS_2005

> <r_lp_Energy>
22.6589

> <b_lp_Chiralities_Consistent>
1

> <s_lp_Variant>
AV-unprocessed.smi:3240-4

> <Gold.Version>
5.8.1

> <Gold.Id.Protein>
6NUR|6NUR_protein|mol2

> <Gold.PLP.Fitness>
41.2066

> <Gold.PLP.PLP>
-39.6932

> <Gold.PLP.part.hbond>
-1.6602

> <Gold.PLP.part.metal>
0.0000

> <Gold.PLP.part.buried>
1.6615

> <Gold.PLP.part.nonpolar>
-39.0574

> <Gold.PLP.part.repulsive>
0.1350

> <Gold.PLP.ligand.clash>
0.0000

> <Gold.PLP.ligand.torsion>
0.8416

> <Gold.PLP.Chemscore.Hbond>
1.0000

> <Gold.PLP.Chemscore.CHOScore>
0.0000

> <Gold.PLP.Chemscore.Metal>
0.0000

> <Gold.Chemscore.Hbonds>
donor molecule, donor type, donor heavy atom, donor atom, acceptor molecule, acceptor atom, score
      L1  H    12    32       P1  8028  1.00

> <Gold.PLP.Chemscore.Internal.Correction>
0.1967

> <Gold.Rescore>
     Score         DG    S(hbond)    S(metal)    S(lipo)     H(rot)  DE(clash)    DE(int)     intcor
     14.77     -17.45       1.00        0.00     118.50       2.04       1.63       1.05       ----

> <Gold.Chemscore.Fitness>
14.7718

> <Gold.Chemscore.DG>
-17.4488

> <Gold.Chemscore.ZeroCoef>
-5.4800

> <Gold.Chemscore.Hbond>
0.9997

> <Gold.Chemscore.Metal>
0.0000

> <Gold.Chemscore.Lipo>
118.4972

> <Gold.Chemscore.Internal_Hbond>
0.0000

> <Gold.Chemscore.DEClash>
1.6316

> <Gold.Chemscore.DEInternal>
1.0455

> <Gold.Chemscore.Rot>
2.0447

> <Gold.Chemscore.Internal.Correction>
   9.000000E+99

> <Gold.Chemscore.Hbonds>
donor molecule, donor type, donor heavy atom, donor atom, acceptor molecule, acceptor atom, score
      L1  H    12    32       P1  8028  1.00

> <Gold.Chemscore.Hbond.Weighted>
-3.3391

> <Gold.Chemscore.Metal.Weighted>
-0.0000

> <Gold.Chemscore.Lipo.Weighted>
-13.8642

> <Gold.Chemscore.Internal_Hbond.Weighted>
0.0000

> <Gold.Chemscore.DEClash.Weighted>
1.6316

> <Gold.Chemscore.DEInternal.Weighted>
1.0455

> <Gold.Chemscore.Rot.Weighted>
5.2344

> <Gold.Chemscore.Internal.Correction.Weighted>
   9.000000E+99

> <Gold.Protein.RotatedTorsions>
[ 6907 6896 6895 6894 ] final -154.65 input  -60.11 | X-H torsion
[ 7974 7965 7964 7962 ] final   37.88 input  175.53 | X-H torsion
[ 8008 7997 7996 7995 ] final  165.83 input   59.86 | X-H torsion
[ 10167 10162 10161 10158 ] final   40.24 input  -65.29 | X-H torsion
[ 10718 10713 10712 10709 ] final  -20.07 input   66.30 | X-H torsion
[ 10763 10752 10751 10750 ] final   14.93 input  -60.55 | X-H torsion
[ 11005 11000 10999 10996 ] final   17.48 input  -57.11 | X-H torsion

> <Gold.Protein.ActiveResidues>
 VAL166  LYS551  ARG553  GLY616  TRP617  ASP618  TYR619  PRO620  LYS621  CYS622 
 ASP623  PHE694  ASN695  SER759  ASP760  ASP761  ALA762  ILE779  LEU786  VAL792 
 PHE793  MET794  SER795  GLU796  ALA797  LYS798  CYS799  TRP800  GLU811  SER814 

> <Gold.Protein.RotatedAtoms>
  151.2607  133.4303  159.2615 H   0  0  0  0  0  0  0  0  0  0  0  0  # atno 6907 bound_to 6896
  151.0534  134.9688  159.8233 H   0  0  0  0  0  0  0  0  0  0  0  0  # atno 6908 bound_to 6896
  152.5386  134.2560  159.8970 H   0  0  0  0  0  0  0  0  0  0  0  0  # atno 6909 bound_to 6896
  146.1104  139.5840  142.9356 H   0  0  0  0  0  0  0  0  0  0  0  0  # atno 7974 bound_to 7965
  156.1769  140.1659  156.8347 H   0  0  0  0  0  0  0  0  0  0  0  0  # atno 8008 bound_to 7997
  154.5316  140.0755  156.8389 H   0  0  0  0  0  0  0  0  0  0  0  0  # atno 8009 bound_to 7997
  155.3395  140.3384  155.4241 H   0  0  0  0  0  0  0  0  0  0  0  0  # atno 8010 bound_to 7997
  140.3761  144.2041  150.6131 H   0  0  0  0  0  0  0  0  0  0  0  0  # atno 10167 bound_to 10162
  156.5370  130.4669  149.6518 H   0  0  0  0  0  0  0  0  0  0  0  0  # atno 10718 bound_to 10713
  153.1574  135.6790  153.8792 H   0  0  0  0  0  0  0  0  0  0  0  0  # atno 10763 bound_to 10752
  153.8198  135.3131  155.3410 H   0  0  0  0  0  0  0  0  0  0  0  0  # atno 10764 bound_to 10752
  154.7908  135.4836  154.0136 H   0  0  0  0  0  0  0  0  0  0  0  0  # atno 10765 bound_to 10752
  140.4355  134.1376  155.7685 H   0  0  0  0  0  0  0  0  0  0  0  0  # atno 11005 bound_to 11000
  145.5675  141.0398  143.2192 LP  0  0  0  0  0  0  0  0  0  0  0  0  # atno 17320 bound_to 7965
  144.7506  139.7203  143.7274 LP  0  0  0  0  0  0  0  0  0  0  0  0  # atno 17321 bound_to 7965
  140.4985  143.2325  151.8714 LP  0  0  0  0  0  0  0  0  0  0  0  0  # atno 17342 bound_to 10162
  139.4799  144.5087  151.8963 LP  0  0  0  0  0  0  0  0  0  0  0  0  # atno 17343 bound_to 10162
  156.3007  130.7175  151.2046 LP  0  0  0  0  0  0  0  0  0  0  0  0  # atno 17370 bound_to 10713
  157.7412  131.0507  150.5114 LP  0  0  0  0  0  0  0  0  0  0  0  0  # atno 17371 bound_to 10713
  141.1728  133.8575  157.1518 LP  0  0  0  0  0  0  0  0  0  0  0  0  # atno 17394 bound_to 11000
  140.0105  134.9990  157.0385 LP  0  0  0  0  0  0  0  0  0  0  0  0  # atno 17395 bound_to 11000

$$$$
