AV-unprocessed.smi:3012|AV-procd|sdf|11462|dock4
  -GOLD-   2272016393D 1   1.00000     0.00000
 Structure written by MMmdl.
 16 16  0  0  0  0  0  0  0  0  3 V2000
  152.2614  144.4920  157.9044 O   0  0  0  0  0  0  0  0  0  0  0  0
  151.6992  143.7815  158.7668 C   0  0  0  0  0  0  0  0  0  0  0  0
  152.0925  143.6172  159.9427 O   0  5  0  0  0  0  0  0  0  0  0  0
  150.4132  143.0638  158.3534 C   0  0  0  0  0  0  0  0  0  0  0  0
  150.6185  142.0658  157.2251 C   0  0  0  0  0  0  0  0  0  0  0  0
  151.5524  141.0895  157.2127 C   0  0  0  0  0  0  0  0  0  0  0  0
  151.6504  140.2243  156.0386 C   0  0  0  0  0  0  0  0  0  0  0  0
  152.4943  139.3297  156.0216 O   0  0  0  0  0  0  0  0  0  0  0  0
  150.7907  140.4571  155.0012 N   0  5  0  0  0  0  0  0  0  0  0  0
  149.8553  141.4562  155.0207 C   0  0  0  0  0  0  0  0  0  0  0  0
  149.0758  141.6883  154.0989 O   0  0  0  0  0  0  0  0  0  0  0  0
  149.7791  142.2434  156.1176 N   0  0  0  0  0  0  0  0  0  0  0  0
  149.0974  142.9871  156.1564 H   0  0  0  0  0  0  0  0  0  0  0  0
  149.9874  142.5638  159.2249 H   0  0  0  0  0  0  0  0  0  0  0  0
  149.6776  143.8040  158.0365 H   0  0  0  0  0  0  0  0  0  0  0  0
  152.2174  140.9507  158.0526 H   0  0  0  0  0  0  0  0  0  0  0  0
  1  2  2  0  0  0  0
  2  3  1  0  0  0  0
  2  4  1  0  0  0  0
  4  5  1  0  0  0  0
  4 14  1  0  0  0  0
  4 15  1  0  0  0  0
  5 12  1  0  0  0  0
  5  6  2  0  0  0  0
  6  7  1  0  0  0  0
  6 16  1  0  0  0  0
  7  8  2  0  0  0  0
  7  9  1  0  0  0  0
  9 10  1  0  0  0  0
 10 11  2  0  0  0  0
 10 12  1  0  0  0  0
 12 13  1  0  0  0  0
M  CHG  1   3  -1
M  CHG  1   9  -1
M  END
> <s_m_source_file>
AV-unprocessed.smi

> <i_m_source_file_index>
3012

> <i_lp_mmshare_version>
43012

> <i_f3d_flags>
0

> <s_epik_input>
Tz1DKFtPSF0pW0NIMl1jMVtjSF1jKD1PKVtuSF1jKD1PKVtuSF0x

> <s_epik_cmdline>
J2VwaWtfcHl0aG9uJywgJy1waCcsICc3LjAnLCAnLXRuJywgJzgnLCAnLW1hJywgJzIwMCcsICctbWV0YWxfYmluZGluZycsICctaW1hZScsICc8aW5maWxlLm1hZT4nLCAnLW9tYWUnLCAnPG91dGZpbGUubWFlPic=

> <r_lp_tautomer_probability>
1

> <r_epik_Ionization_Penalty>
3.84851

> <r_epik_Ionization_Penalty_Charging>
0.000432965

> <r_epik_Ionization_Penalty_Neutral>
3.84808

> <r_epik_State_Penalty>
3.84718

> <r_epik_Charging_Adjusted_Penalty>
3.84761

> <i_epik_Tot_Q>
-2

> <i_epik_Tot_abs_Q>
2

> <r_epik_Metal_State_Penalty>
0.579588

> <b_epik_Metal_Only>
1

> <s_lp_Force_Field>
OPLS_2005

> <r_lp_Energy>
14.5502

> <b_lp_Chiralities_Consistent>
1

> <s_lp_Variant>
AV-unprocessed.smi:3012-2

> <Gold.Version>
5.8.1

> <Gold.Id.Protein>
6NUR|6NUR_protein|mol2

> <Gold.PLP.Fitness>
32.2217

> <Gold.PLP.PLP>
-22.1541

> <Gold.PLP.part.hbond>
-4.4238

> <Gold.PLP.part.metal>
0.0000

> <Gold.PLP.part.buried>
-4.7095

> <Gold.PLP.part.nonpolar>
-13.1358

> <Gold.PLP.part.repulsive>
0.4494

> <Gold.PLP.ligand.clash>
0.0000

> <Gold.PLP.ligand.torsion>
0.0556

> <Gold.PLP.Chemscore.Hbond>
3.3920

> <Gold.PLP.Chemscore.CHOScore>
0.0000

> <Gold.PLP.Chemscore.Metal>
0.0000

> <Gold.Chemscore.Hbonds>
donor molecule, donor type, donor heavy atom, donor atom, acceptor molecule, acceptor atom, score
      L1  H    12    13       P1  8028  0.82
      P1  H  7989  7998       L1     9  0.95
      P1  H  7997  8009       L1     8  0.96
      P1  H  8011  8017       L1    11  0.57

> <Gold.PLP.Chemscore.Internal.Correction>
0.0029

> <Gold.Rescore>
     Score         DG    S(hbond)    S(metal)    S(lipo)     H(rot)  DE(clash)    DE(int)     intcor
     11.80     -11.86       2.49        0.00      20.24       1.68       0.05       0.02       ----

> <Gold.Chemscore.Fitness>
11.7964

> <Gold.Chemscore.DG>
-11.8594

> <Gold.Chemscore.ZeroCoef>
-5.4800

> <Gold.Chemscore.Hbond>
2.4922

> <Gold.Chemscore.Metal>
0.0000

> <Gold.Chemscore.Lipo>
20.2385

> <Gold.Chemscore.Internal_Hbond>
0.0000

> <Gold.Chemscore.DEClash>
0.0471

> <Gold.Chemscore.DEInternal>
0.0159

> <Gold.Chemscore.Rot>
1.6846

> <Gold.Chemscore.Internal.Correction>
   9.000000E+99

> <Gold.Chemscore.Hbonds>
donor molecule, donor type, donor heavy atom, donor atom, acceptor molecule, acceptor atom, score
      L1  H    12    13       P1  8028  0.81
      P1  H  7989  7998       L1     9  0.18
      P1  H  7997  8009       L1     8  0.64
      P1  H  8011  8017       L1    11  0.52

> <Gold.Chemscore.Hbond.Weighted>
-8.3241

> <Gold.Chemscore.Metal.Weighted>
-0.0000

> <Gold.Chemscore.Lipo.Weighted>
-2.3679

> <Gold.Chemscore.Internal_Hbond.Weighted>
0.0000

> <Gold.Chemscore.DEClash.Weighted>
0.0471

> <Gold.Chemscore.DEInternal.Weighted>
0.0159

> <Gold.Chemscore.Rot.Weighted>
4.3126

> <Gold.Chemscore.Internal.Correction.Weighted>
   9.000000E+99

> <Gold.Protein.RotatedTorsions>
[ 6907 6896 6895 6894 ] final -102.55 input  -60.11 | X-H torsion
[ 7974 7965 7964 7962 ] final   15.42 input  175.53 | X-H torsion
[ 8008 7997 7996 7995 ] final -149.08 input   59.86 | X-H torsion
[ 10167 10162 10161 10158 ] final  137.62 input  -65.29 | X-H torsion
[ 10718 10713 10712 10709 ] final -156.96 input   66.30 | X-H torsion
[ 10763 10752 10751 10750 ] final -113.58 input  -60.55 | X-H torsion
[ 11005 11000 10999 10996 ] final  -91.34 input  -57.11 | X-H torsion

> <Gold.Protein.ActiveResidues>
 VAL166  LYS551  ARG553  GLY616  TRP617  ASP618  TYR619  PRO620  LYS621  CYS622 
 ASP623  PHE694  ASN695  SER759  ASP760  ASP761  ALA762  ILE779  LEU786  VAL792 
 PHE793  MET794  SER795  GLU796  ALA797  LYS798  CYS799  TRP800  GLU811  SER814 

> <Gold.Protein.RotatedAtoms>
  150.7201  134.0564  159.3815 H   0  0  0  0  0  0  0  0  0  0  0  0  # atno 6907 bound_to 6896
  151.8543  135.0544  160.0471 H   0  0  0  0  0  0  0  0  0  0  0  0  # atno 6908 bound_to 6896
  152.2766  133.5396  159.5508 H   0  0  0  0  0  0  0  0  0  0  0  0  # atno 6909 bound_to 6896
  146.2279  139.8896  142.8557 H   0  0  0  0  0  0  0  0  0  0  0  0  # atno 7974 bound_to 7965
  155.6019  140.0663  157.2730 H   0  0  0  0  0  0  0  0  0  0  0  0  # atno 8008 bound_to 7997
  154.4276  140.1817  156.1230 H   0  0  0  0  0  0  0  0  0  0  0  0  # atno 8009 bound_to 7997
  156.0152  140.3322  155.6985 H   0  0  0  0  0  0  0  0  0  0  0  0  # atno 8010 bound_to 7997
  139.5138  144.6400  151.5595 H   0  0  0  0  0  0  0  0  0  0  0  0  # atno 10167 bound_to 10162
  156.5337  130.8532  151.2725 H   0  0  0  0  0  0  0  0  0  0  0  0  # atno 10718 bound_to 10713
  154.8402  135.4449  154.1371 H   0  0  0  0  0  0  0  0  0  0  0  0  # atno 10763 bound_to 10752
  153.2566  135.6932  153.7628 H   0  0  0  0  0  0  0  0  0  0  0  0  # atno 10764 bound_to 10752
  153.6921  135.3385  155.3180 H   0  0  0  0  0  0  0  0  0  0  0  0  # atno 10765 bound_to 10752
  141.1547  133.7749  156.9865 H   0  0  0  0  0  0  0  0  0  0  0  0  # atno 11005 bound_to 11000
  145.2430  141.0016  143.3925 LP  0  0  0  0  0  0  0  0  0  0  0  0  # atno 17320 bound_to 7965
  144.9436  139.4161  143.6437 LP  0  0  0  0  0  0  0  0  0  0  0  0  # atno 17321 bound_to 7965
  140.6163  143.9343  150.6491 LP  0  0  0  0  0  0  0  0  0  0  0  0  # atno 17342 bound_to 10162
  140.2602  143.3529  152.1329 LP  0  0  0  0  0  0  0  0  0  0  0  0  # atno 17343 bound_to 10162
  157.7417  130.9876  150.2466 LP  0  0  0  0  0  0  0  0  0  0  0  0  # atno 17370 bound_to 10713
  156.3036  130.3762  149.7727 LP  0  0  0  0  0  0  0  0  0  0  0  0  # atno 17371 bound_to 10713
  140.1031  134.9523  157.1953 LP  0  0  0  0  0  0  0  0  0  0  0  0  # atno 17394 bound_to 11000
  140.3292  134.2829  155.7231 LP  0  0  0  0  0  0  0  0  0  0  0  0  # atno 17395 bound_to 11000

$$$$
