AV-unprocessed.smi:1951|AV-procd|sdf|7881|dock5
  -GOLD-   2272010 33D 1   1.00000     0.00000
 Structure written by MMmdl.
 46 47  0  0  0  0  0  0  0  0  2 V2000
  155.3645  139.6946  160.7831 C   0  0  0  0  0  0  0  0  0  0  0  0
  154.3255  140.3789  160.0912 O   0  0  0  0  0  0  0  0  0  0  0  0
  153.6452  141.3850  160.7503 C   0  0  0  0  0  0  0  0  0  0  0  0
  154.0153  141.6909  162.0194 N   0  0  0  0  0  0  0  0  0  0  0  0
  153.3499  142.6711  162.6642 C   0  0  0  0  0  0  0  0  0  0  0  0
  152.2851  143.3879  162.0880 C   0  0  0  0  0  0  0  0  0  0  0  0
  151.9003  143.0736  160.7716 C   0  0  0  0  0  0  0  0  0  0  0  0
  152.5996  142.0578  160.0760 C   0  0  0  0  0  0  0  0  0  0  0  0
  152.2790  141.6501  158.7523 N   0  0  0  0  0  0  0  0  0  0  0  0
  151.1285  141.8293  158.0822 C   0  0  0  0  0  0  0  0  0  0  0  0
  150.1270  142.3934  158.5227 O   0  0  0  0  0  0  0  0  0  0  0  0
  151.2087  141.3351  156.8387 N   0  0  0  0  0  0  0  0  0  0  0  0
  150.1429  141.4027  155.8459 C   0  0  0  0  0  0  0  0  0  0  0  0
  148.7813  141.0212  156.4582 C   0  0  0  0  0  0  0  0  0  0  0  0
  147.6934  141.9402  156.0391 N   0  3  2  0  0  0  0  0  0  0  0  0
  146.4931  141.8188  156.9065 C   0  0  0  0  0  0  0  0  0  0  0  0
  145.4300  142.8672  156.5385 C   0  0  0  0  0  0  0  0  0  0  0  0
  145.0288  142.7587  155.0583 C   0  0  1  0  0  0  0  0  0  0  0  0
  143.9871  143.8183  154.6729 C   0  0  0  0  0  0  0  0  0  0  0  0
  146.2911  142.8549  154.1856 C   0  0  0  0  0  0  0  0  0  0  0  0
  147.3395  141.8083  154.6004 C   0  0  0  0  0  0  0  0  0  0  0  0
  155.7979  138.9401  160.1271 H   0  0  0  0  0  0  0  0  0  0  0  0
  154.9849  139.1834  161.6690 H   0  0  0  0  0  0  0  0  0  0  0  0
  156.1644  140.3755  161.0773 H   0  0  0  0  0  0  0  0  0  0  0  0
  153.6717  142.8860  163.6725 H   0  0  0  0  0  0  0  0  0  0  0  0
  151.7724  144.1578  162.6453 H   0  0  0  0  0  0  0  0  0  0  0  0
  151.0714  143.6036  160.3281 H   0  0  0  0  0  0  0  0  0  0  0  0
  153.0443  141.2520  158.2276 H   0  0  0  0  0  0  0  0  0  0  0  0
  152.0693  140.8870  156.5585 H   0  0  0  0  0  0  0  0  0  0  0  0
  150.1037  142.4215  155.4597 H   0  0  0  0  0  0  0  0  0  0  0  0
  150.3994  140.7614  155.0022 H   0  0  0  0  0  0  0  0  0  0  0  0
  148.5081  139.9950  156.2067 H   0  0  0  0  0  0  0  0  0  0  0  0
  148.8825  141.0532  157.5441 H   0  0  0  0  0  0  0  0  0  0  0  0
  146.0784  140.8132  156.8173 H   0  0  0  0  0  0  0  0  0  0  0  0
  146.7769  141.9537  157.9508 H   0  0  0  0  0  0  0  0  0  0  0  0
  144.5529  142.7376  157.1736 H   0  0  0  0  0  0  0  0  0  0  0  0
  145.8167  143.8661  156.7457 H   0  0  0  0  0  0  0  0  0  0  0  0
  144.5784  141.7778  154.8980 H   0  0  0  0  0  0  0  0  0  0  0  0
  144.3782  144.8274  154.8066 H   0  0  0  0  0  0  0  0  0  0  0  0
  143.0893  143.7257  155.2845 H   0  0  0  0  0  0  0  0  0  0  0  0
  143.6869  143.7128  153.6300 H   0  0  0  0  0  0  0  0  0  0  0  0
  146.0301  142.7150  153.1358 H   0  0  0  0  0  0  0  0  0  0  0  0
  146.7229  143.8538  154.2656 H   0  0  0  0  0  0  0  0  0  0  0  0
  148.2249  141.9338  153.9784 H   0  0  0  0  0  0  0  0  0  0  0  0
  146.9605  140.8031  154.4080 H   0  0  0  0  0  0  0  0  0  0  0  0
  148.0429  142.8782  156.1738 H   0  0  0  0  0  0  0  0  0  0  0  0
  1  2  1  0  0  0  0
  1 22  1  0  0  0  0
  1 23  1  0  0  0  0
  1 24  1  0  0  0  0
  2  3  1  0  0  0  0
  3  8  1  0  0  0  0
  3  4  2  0  0  0  0
  4  5  1  0  0  0  0
  5  6  2  0  0  0  0
  5 25  1  0  0  0  0
  6  7  1  0  0  0  0
  6 26  1  0  0  0  0
  7  8  2  0  0  0  0
  7 27  1  0  0  0  0
  8  9  1  0  0  0  0
  9 10  1  0  0  0  0
  9 28  1  0  0  0  0
 10 11  2  0  0  0  0
 10 12  1  0  0  0  0
 12 13  1  0  0  0  0
 12 29  1  0  0  0  0
 13 14  1  0  0  0  0
 13 30  1  0  0  0  0
 13 31  1  0  0  0  0
 14 15  1  0  0  0  0
 14 32  1  0  0  0  0
 14 33  1  0  0  0  0
 15 21  1  0  0  0  0
 15 16  1  0  0  0  0
 15 46  1  0  0  0  0
 16 17  1  0  0  0  0
 16 34  1  0  0  0  0
 16 35  1  0  0  0  0
 17 18  1  0  0  0  0
 17 36  1  0  0  0  0
 17 37  1  0  0  0  0
 18 19  1  0  0  0  0
 18 20  1  0  0  0  0
 18 38  1  0  0  0  0
 19 39  1  0  0  0  0
 19 40  1  0  0  0  0
 19 41  1  0  0  0  0
 20 21  1  0  0  0  0
 20 42  1  0  0  0  0
 20 43  1  0  0  0  0
 21 44  1  0  0  0  0
 21 45  1  0  0  0  0
M  CHG  1  15   1
M  END
> <s_m_source_file>
AV-unprocessed.smi

> <i_m_source_file_index>
1951

> <i_lp_mmshare_version>
43012

> <i_f3d_flags>
0

> <s_epik_input>
W0NIM11PYzFuW2NIXVtjSF1bY0hdYzFbTkhdQyg9TylbTkhdW0NIMl1bQ0gyXU4yW0NIMl1bQ0gyXVtDSF0oW0NIM10pW0NIMl1bQ0gyXTI=

> <s_epik_cmdline>
J2VwaWtfcHl0aG9uJywgJy1waCcsICc3LjAnLCAnLXRuJywgJzgnLCAnLW1hJywgJzIwMCcsICctbWV0YWxfYmluZGluZycsICctaW1hZScsICc8aW5maWxlLm1hZT4nLCAnLW9tYWUnLCAnPG91dGZpbGUubWFlPic=

> <r_lp_tautomer_probability>
1

> <r_epik_Ionization_Penalty>
0.00147101

> <r_epik_Ionization_Penalty_Charging>
0.00139388

> <r_epik_Ionization_Penalty_Neutral>
7.71355e-05

> <r_epik_State_Penalty>
0.000929204

> <r_epik_Charging_Adjusted_Penalty>
0.00232308

> <i_epik_Tot_Q>
1

> <i_epik_Tot_abs_Q>
1

> <r_epik_Metal_State_Penalty>
-0

> <b_epik_Metal_Only>
0

> <s_lp_Force_Field>
OPLS_2005

> <r_lp_Energy>
18.8997

> <b_lp_Chiralities_Consistent>
1

> <s_lp_Variant>
AV-unprocessed.smi:1951-1

> <Gold.Version>
5.8.1

> <Gold.Id.Protein>
6NUR|6NUR_protein|mol2

> <Gold.PLP.Fitness>
47.2614

> <Gold.PLP.PLP>
-42.4156

> <Gold.PLP.part.hbond>
-1.8231

> <Gold.PLP.part.metal>
0.0000

> <Gold.PLP.part.buried>
-7.3692

> <Gold.PLP.part.nonpolar>
-33.7469

> <Gold.PLP.part.repulsive>
0.3336

> <Gold.PLP.ligand.clash>
0.0000

> <Gold.PLP.ligand.torsion>
0.5864

> <Gold.PLP.Chemscore.Hbond>
2.0000

> <Gold.PLP.Chemscore.CHOScore>
0.0000

> <Gold.PLP.Chemscore.Metal>
0.0000

> <Gold.Chemscore.Hbonds>
donor molecule, donor type, donor heavy atom, donor atom, acceptor molecule, acceptor atom, score
      L1  H    15    46       P1  8028  1.79

> <Gold.PLP.Chemscore.Internal.Correction>
0.0186

> <Gold.Rescore>
     Score         DG    S(hbond)    S(metal)    S(lipo)     H(rot)  DE(clash)    DE(int)     intcor
     11.68     -15.39       0.97        0.00      94.35       1.71       0.50       3.21       ----

> <Gold.Chemscore.Fitness>
11.6824

> <Gold.Chemscore.DG>
-15.3941

> <Gold.Chemscore.ZeroCoef>
-5.4800

> <Gold.Chemscore.Hbond>
0.9743

> <Gold.Chemscore.Metal>
0.0000

> <Gold.Chemscore.Lipo>
94.3533

> <Gold.Chemscore.Internal_Hbond>
0.0000

> <Gold.Chemscore.DEClash>
0.5025

> <Gold.Chemscore.DEInternal>
3.2093

> <Gold.Chemscore.Rot>
1.7107

> <Gold.Chemscore.Internal.Correction>
   9.000000E+99

> <Gold.Chemscore.Hbonds>
donor molecule, donor type, donor heavy atom, donor atom, acceptor molecule, acceptor atom, score
      L1  H    15    46       P1  8028  0.56

> <Gold.Chemscore.Hbond.Weighted>
-3.2542

> <Gold.Chemscore.Metal.Weighted>
-0.0000

> <Gold.Chemscore.Lipo.Weighted>
-11.0393

> <Gold.Chemscore.Internal_Hbond.Weighted>
0.0000

> <Gold.Chemscore.DEClash.Weighted>
0.5025

> <Gold.Chemscore.DEInternal.Weighted>
3.2093

> <Gold.Chemscore.Rot.Weighted>
4.3794

> <Gold.Chemscore.Internal.Correction.Weighted>
   9.000000E+99

> <Gold.Protein.RotatedTorsions>
[ 6907 6896 6895 6894 ] final   -9.74 input  -60.11 | X-H torsion
[ 7974 7965 7964 7962 ] final   85.44 input  175.53 | X-H torsion
[ 8008 7997 7996 7995 ] final  -59.35 input   59.86 | X-H torsion
[ 10167 10162 10161 10158 ] final  -70.53 input  -65.29 | X-H torsion
[ 10718 10713 10712 10709 ] final  -87.66 input   66.30 | X-H torsion
[ 10763 10752 10751 10750 ] final  -29.80 input  -60.55 | X-H torsion
[ 11005 11000 10999 10996 ] final  -18.85 input  -57.11 | X-H torsion

> <Gold.Protein.ActiveResidues>
 VAL166  LYS551  ARG553  GLY616  TRP617  ASP618  TYR619  PRO620  LYS621  CYS622 
 ASP623  PHE694  ASN695  SER759  ASP760  ASP761  ALA762  ILE779  LEU786  VAL792 
 PHE793  MET794  SER795  GLU796  ALA797  LYS798  CYS799  TRP800  GLU811  SER814 

> <Gold.Protein.RotatedAtoms>
  151.4130  135.0987  159.9590 H   0  0  0  0  0  0  0  0  0  0  0  0  # atno 6907 bound_to 6896
  152.5014  133.8779  159.7342 H   0  0  0  0  0  0  0  0  0  0  0  0  # atno 6908 bound_to 6896
  150.9278  133.6745  159.2845 H   0  0  0  0  0  0  0  0  0  0  0  0  # atno 6909 bound_to 6896
  145.5855  139.2331  143.2328 H   0  0  0  0  0  0  0  0  0  0  0  0  # atno 7974 bound_to 7965
  154.4349  140.1063  156.6102 H   0  0  0  0  0  0  0  0  0  0  0  0  # atno 8008 bound_to 7997
  155.5817  140.3491  155.4523 H   0  0  0  0  0  0  0  0  0  0  0  0  # atno 8009 bound_to 7997
  156.0313  140.1261  157.0244 H   0  0  0  0  0  0  0  0  0  0  0  0  # atno 8010 bound_to 7997
  140.5345  143.2319  151.7202 H   0  0  0  0  0  0  0  0  0  0  0  0  # atno 10167 bound_to 10162
  155.9985  130.4808  150.4901 H   0  0  0  0  0  0  0  0  0  0  0  0  # atno 10718 bound_to 10713
  153.7706  135.6912  153.4907 H   0  0  0  0  0  0  0  0  0  0  0  0  # atno 10763 bound_to 10752
  153.1877  135.4482  155.0108 H   0  0  0  0  0  0  0  0  0  0  0  0  # atno 10764 bound_to 10752
  154.8119  135.3381  154.7216 H   0  0  0  0  0  0  0  0  0  0  0  0  # atno 10765 bound_to 10752
  140.8308  133.7998  155.9757 H   0  0  0  0  0  0  0  0  0  0  0  0  # atno 11005 bound_to 11000
  146.1685  140.6682  142.9244 LP  0  0  0  0  0  0  0  0  0  0  0  0  # atno 17320 bound_to 7965
  144.7374  140.4848  143.6893 LP  0  0  0  0  0  0  0  0  0  0  0  0  # atno 17321 bound_to 7965
  139.4966  144.4064  152.0127 LP  0  0  0  0  0  0  0  0  0  0  0  0  # atno 17342 bound_to 10162
  140.3168  144.3474  150.6019 LP  0  0  0  0  0  0  0  0  0  0  0  0  # atno 17343 bound_to 10162
  157.2897  131.0624  151.2142 LP  0  0  0  0  0  0  0  0  0  0  0  0  # atno 17370 bound_to 10713
  157.3159  130.6913  149.6241 LP  0  0  0  0  0  0  0  0  0  0  0  0  # atno 17371 bound_to 10713
  140.8999  134.2391  157.5047 LP  0  0  0  0  0  0  0  0  0  0  0  0  # atno 17394 bound_to 11000
  139.8705  134.9702  156.4692 LP  0  0  0  0  0  0  0  0  0  0  0  0  # atno 17395 bound_to 11000

$$$$
