AV-unprocessed.smi:69|AV-procd|sdf|657|dock6
  -GOLD-   2262016563D 1   1.00000     0.00000
 Structure written by MMmdl.
 32 34  0  0  0  0  0  0  0  0  1 V2000
  153.8398  137.2528  157.4089 N   0  0  0  0  0  0  0  0  0  0  0  0
  152.6676  137.5060  156.8107 C   0  0  0  0  0  0  0  0  0  0  0  0
  152.0876  136.5191  156.0886 N   0  0  0  0  0  0  0  0  0  0  0  0
  150.9196  136.7490  155.4801 C   0  0  0  0  0  0  0  0  0  0  0  0
  150.1887  137.8665  155.4706 N   0  0  0  0  0  0  0  0  0  0  0  0
  150.7738  138.8614  156.1998 C   0  0  0  0  0  0  0  0  0  0  0  0
  152.0099  138.7590  156.8968 C   0  0  0  0  0  0  0  0  0  0  0  0
  152.3007  139.9619  157.5253 N   0  0  0  0  0  0  0  0  0  0  0  0
  151.2920  140.7301  157.2129 C   0  0  0  0  0  0  0  0  0  0  0  0
  150.3290  140.1523  156.4142 N   0  0  0  0  0  0  0  0  0  0  0  0
  149.0768  140.7964  155.8961 C   0  0  2  0  0  0  0  0  0  0  0  0
  147.9863  139.9522  156.1251 O   0  0  0  0  0  0  0  0  0  0  0  0
  147.3512  139.6036  154.8946 C   0  0  1  0  0  0  0  0  0  0  0  0
  145.8424  139.4224  155.1219 C   0  0  0  0  0  0  0  0  0  0  0  0
  145.2227  138.9651  153.9390 O   0  0  0  0  0  0  0  0  0  0  0  0
  147.6936  140.7853  153.9851 C   0  0  2  0  0  0  0  0  0  0  0  0
  147.5520  140.4902  152.6082 O   0  0  0  0  0  0  0  0  0  0  0  0
  149.1269  141.1028  154.3865 C   0  0  2  0  0  0  0  0  0  0  0  0
  150.0811  140.3285  153.6762 O   0  0  0  0  0  0  0  0  0  0  0  0
  148.9541  141.6935  156.5046 H   0  0  0  0  0  0  0  0  0  0  0  0
  147.8003  138.6943  154.4920 H   0  0  0  0  0  0  0  0  0  0  0  0
  147.0576  141.6364  154.2338 H   0  0  0  0  0  0  0  0  0  0  0  0
  149.3646  142.1563  154.2359 H   0  0  0  0  0  0  0  0  0  0  0  0
  154.2928  137.9743  157.9511 H   0  0  0  0  0  0  0  0  0  0  0  0
  154.2664  136.3424  157.3165 H   0  0  0  0  0  0  0  0  0  0  0  0
  150.5119  135.9202  154.9202 H   0  0  0  0  0  0  0  0  0  0  0  0
  151.2246  141.7521  157.5563 H   0  0  0  0  0  0  0  0  0  0  0  0
  145.6440  138.7360  155.9455 H   0  0  0  0  0  0  0  0  0  0  0  0
  145.3852  140.3781  155.3800 H   0  0  0  0  0  0  0  0  0  0  0  0
  144.9184  139.7141  153.4499 H   0  0  0  0  0  0  0  0  0  0  0  0
  148.3960  140.2371  152.2671 H   0  0  0  0  0  0  0  0  0  0  0  0
  149.8806  140.3773  152.7540 H   0  0  0  0  0  0  0  0  0  0  0  0
  1  2  1  0  0  0  0
  1 24  1  0  0  0  0
  1 25  1  0  0  0  0
  2  7  1  0  0  0  0
  2  3  2  0  0  0  0
  3  4  1  0  0  0  0
  4  5  2  0  0  0  0
  4 26  1  0  0  0  0
  5  6  1  0  0  0  0
  6 10  1  0  0  0  0
  6  7  2  0  0  0  0
  7  8  1  0  0  0  0
  8  9  2  0  0  0  0
  9 10  1  0  0  0  0
  9 27  1  0  0  0  0
 10 11  1  0  0  0  0
 11 20  1  0  0  0  0
 11 18  1  0  0  0  0
 11 12  1  0  0  0  0
 12 13  1  0  0  0  0
 13 21  1  0  0  0  0
 13 14  1  0  0  0  0
 13 16  1  0  0  0  0
 14 15  1  0  0  0  0
 14 28  1  0  0  0  0
 14 29  1  0  0  0  0
 15 30  1  0  0  0  0
 16 22  1  0  0  0  0
 16 17  1  0  0  0  0
 16 18  1  0  0  0  0
 17 31  1  0  0  0  0
 18 23  1  0  0  0  0
 18 19  1  0  0  0  0
 19 32  1  0  0  0  0
M  END
> <s_m_source_file>
AV-unprocessed.smi

> <i_m_source_file_index>
69

> <i_lp_mmshare_version>
43012

> <i_f3d_flags>
0

> <s_epik_input>
bjFbY0hdbmMoW05IMl0pYyhjMTIpbltjSF1uMltDQEBIXTNPW0NASF0oW0NIMl1bT0hdKVtDQEBIXShbT0hdKVtDQEhdM1tPSF0=

> <s_epik_cmdline>
J2VwaWtfcHl0aG9uJywgJy1waCcsICc3LjAnLCAnLXRuJywgJzgnLCAnLW1hJywgJzIwMCcsICctbWV0YWxfYmluZGluZycsICctaW1hZScsICc8aW5maWxlLm1hZT4nLCAnLW9tYWUnLCAnPG91dGZpbGUubWFlPic=

> <r_lp_tautomer_probability>
1

> <r_epik_Ionization_Penalty>
0.000428445

> <r_epik_Ionization_Penalty_Charging>
0

> <r_epik_Ionization_Penalty_Neutral>
0.000428445

> <r_epik_State_Penalty>
-0

> <r_epik_Charging_Adjusted_Penalty>
0

> <i_epik_Tot_Q>
0

> <i_epik_Tot_abs_Q>
0

> <r_epik_Metal_State_Penalty>
-0

> <b_epik_Metal_Only>
0

> <s_epik_Chemistry_Notes>
This compound contains an acetal/aminal-like group ( X-CH(R)-Y where X, Y are N, S, or O) that may be acid/base labile, releasing an aldehyde.

> <s_lp_Force_Field>
OPLS_2005

> <r_lp_Energy>
44.883

> <b_lp_Chiralities_Consistent>
1

> <s_lp_Variant>
AV-unprocessed.smi:69-15

> <Gold.Version>
5.8.1

> <Gold.Id.Protein>
6NUR|6NUR_protein|mol2

> <Gold.PLP.Fitness>
37.5974

> <Gold.PLP.PLP>
-21.3941

> <Gold.PLP.part.hbond>
-5.4825

> <Gold.PLP.part.metal>
0.0000

> <Gold.PLP.part.buried>
-2.8430

> <Gold.PLP.part.nonpolar>
-13.5181

> <Gold.PLP.part.repulsive>
0.2846

> <Gold.PLP.ligand.clash>
0.0000

> <Gold.PLP.ligand.torsion>
0.2904

> <Gold.PLP.Chemscore.Hbond>
5.5920

> <Gold.PLP.Chemscore.CHOScore>
0.0000

> <Gold.PLP.Chemscore.Metal>
0.0000

> <Gold.Chemscore.Hbonds>
donor molecule, donor type, donor heavy atom, donor atom, acceptor molecule, acceptor atom, score
      L1  H    15    30       P1 10175  0.98
      L1  H    17    31       P1  7957  1.00
      L1  H    19    32       P1  7957  1.00
      P1  H  7989  7998       L1    19  0.44
      P1  H  7997  8008       L1     8  0.33
      P1  H 10752 10763       L1     3  1.00

> <Gold.PLP.Chemscore.Internal.Correction>
0.0080

> <Gold.Rescore>
     Score         DG    S(hbond)    S(metal)    S(lipo)     H(rot)  DE(clash)    DE(int)     intcor
     11.74     -13.40       4.62        0.00      23.86       4.03       0.28       1.39       ----

> <Gold.Chemscore.Fitness>
11.7371

> <Gold.Chemscore.DG>
-13.4031

> <Gold.Chemscore.ZeroCoef>
-5.4800

> <Gold.Chemscore.Hbond>
4.6236

> <Gold.Chemscore.Metal>
0.0000

> <Gold.Chemscore.Lipo>
23.8572

> <Gold.Chemscore.Internal_Hbond>
0.0000

> <Gold.Chemscore.DEClash>
0.2791

> <Gold.Chemscore.DEInternal>
1.3869

> <Gold.Chemscore.Rot>
4.0277

> <Gold.Chemscore.Internal.Correction>
   9.000000E+99

> <Gold.Chemscore.Hbonds>
donor molecule, donor type, donor heavy atom, donor atom, acceptor molecule, acceptor atom, score
      L1  H    15    30       P1 10175  0.93
      L1  H    17    31       P1  7957  0.99
      L1  H    19    32       P1  7957  1.00
      P1  H  7989  7998       L1    19  0.04
      P1  H  7997  8008       L1     8  0.05
      P1  H 10752 10763       L1     3  0.72

> <Gold.Chemscore.Hbond.Weighted>
-15.4428

> <Gold.Chemscore.Metal.Weighted>
-0.0000

> <Gold.Chemscore.Lipo.Weighted>
-2.7913

> <Gold.Chemscore.Internal_Hbond.Weighted>
0.0000

> <Gold.Chemscore.DEClash.Weighted>
0.2791

> <Gold.Chemscore.DEInternal.Weighted>
1.3869

> <Gold.Chemscore.Rot.Weighted>
10.3110

> <Gold.Chemscore.Internal.Correction.Weighted>
   9.000000E+99

> <Gold.Protein.RotatedTorsions>
[ 6907 6896 6895 6894 ] final  151.04 input  -60.11 | X-H torsion
[ 7974 7965 7964 7962 ] final  137.65 input  175.53 | X-H torsion
[ 8008 7997 7996 7995 ] final  -73.28 input   59.86 | X-H torsion
[ 10167 10162 10161 10158 ] final   10.02 input  -65.29 | X-H torsion
[ 10718 10713 10712 10709 ] final -131.22 input   66.30 | X-H torsion
[ 10763 10752 10751 10750 ] final   87.69 input  -60.55 | X-H torsion
[ 11005 11000 10999 10996 ] final  131.34 input  -57.11 | X-H torsion

> <Gold.Protein.ActiveResidues>
 VAL166  LYS551  ARG553  GLY616  TRP617  ASP618  TYR619  PRO620  LYS621  CYS622 
 ASP623  PHE694  ASN695  SER759  ASP760  ASP761  ALA762  ILE779  LEU786  VAL792 
 PHE793  MET794  SER795  GLU796  ALA797  LYS798  CYS799  TRP800  GLU811  SER814 

> <Gold.Protein.RotatedAtoms>
  152.1061  133.4275  159.4608 H   0  0  0  0  0  0  0  0  0  0  0  0  # atno 6907 bound_to 6896
  150.6865  134.2704  159.4595 H   0  0  0  0  0  0  0  0  0  0  0  0  # atno 6908 bound_to 6896
  152.0568  134.9619  160.0625 H   0  0  0  0  0  0  0  0  0  0  0  0  # atno 6909 bound_to 6896
  144.9448  139.4888  143.5554 H   0  0  0  0  0  0  0  0  0  0  0  0  # atno 7974 bound_to 7965
  154.5234  140.0782  156.8214 H   0  0  0  0  0  0  0  0  0  0  0  0  # atno 8008 bound_to 7997
  155.3527  140.3413  155.4221 H   0  0  0  0  0  0  0  0  0  0  0  0  # atno 8009 bound_to 7997
  156.1706  140.1618  156.8442 H   0  0  0  0  0  0  0  0  0  0  0  0  # atno 8010 bound_to 7997
  140.6219  143.8185  150.7186 H   0  0  0  0  0  0  0  0  0  0  0  0  # atno 10167 bound_to 10162
  156.2222  130.6985  151.0768 H   0  0  0  0  0  0  0  0  0  0  0  0  # atno 10718 bound_to 10713
  153.1694  135.4534  154.9881 H   0  0  0  0  0  0  0  0  0  0  0  0  # atno 10763 bound_to 10752
  154.7955  135.3236  154.7680 H   0  0  0  0  0  0  0  0  0  0  0  0  # atno 10764 bound_to 10752
  153.8158  135.6951  153.4889 H   0  0  0  0  0  0  0  0  0  0  0  0  # atno 10765 bound_to 10752
  139.9725  134.9573  156.9424 H   0  0  0  0  0  0  0  0  0  0  0  0  # atno 11005 bound_to 11000
  146.3299  139.8492  142.8876 LP  0  0  0  0  0  0  0  0  0  0  0  0  # atno 17320 bound_to 7965
  145.2935  141.0174  143.3649 LP  0  0  0  0  0  0  0  0  0  0  0  0  # atno 17321 bound_to 7965
  140.1777  143.4141  152.1955 LP  0  0  0  0  0  0  0  0  0  0  0  0  # atno 17342 bound_to 10162
  139.5446  144.7287  151.4623 LP  0  0  0  0  0  0  0  0  0  0  0  0  # atno 17343 bound_to 10162
  157.7093  131.0742  150.6558 LP  0  0  0  0  0  0  0  0  0  0  0  0  # atno 17370 bound_to 10713
  156.6621  130.4515  149.5684 LP  0  0  0  0  0  0  0  0  0  0  0  0  # atno 17371 bound_to 10713
  140.5264  134.0856  155.7305 LP  0  0  0  0  0  0  0  0  0  0  0  0  # atno 17394 bound_to 11000
  141.1403  133.9149  157.2340 LP  0  0  0  0  0  0  0  0  0  0  0  0  # atno 17395 bound_to 11000

$$$$
