AV-unprocessed.smi:1417|AV-procd|sdf|5768|dock3
  -GOLD-   22720 5413D 1   1.00000     0.00000
 Structure written by MMmdl.
 38 39  0  0  0  0  0  0  0  0  2 V2000
  148.9109  140.2906  154.6837 C   0  0  0  0  0  0  0  0  0  0  0  0
  149.7867  139.0847  154.7055 C   0  0  0  0  0  0  0  0  0  0  0  0
  149.5246  137.7511  154.8424 C   0  0  0  0  0  0  0  0  0  0  0  0
  150.8153  137.1580  154.7834 C   0  0  0  0  0  0  0  0  0  0  0  0
  151.0841  135.8455  154.8620 N   0  5  0  0  0  0  0  0  0  0  0  0
  150.0839  134.9565  155.0628 C   0  0  0  0  0  0  0  0  0  0  0  0
  149.8334  134.3640  156.1152 O   0  0  0  0  0  0  0  0  0  0  0  0
  149.3260  134.7418  153.9772 N   0  0  0  0  0  0  0  0  0  0  0  0
  148.1769  133.8437  153.8963 C   0  0  0  0  0  0  0  0  0  0  0  0
  148.4497  132.6863  152.9227 C   0  0  0  0  0  0  0  0  0  0  0  0
  147.1986  131.8094  152.7343 C   0  0  0  0  0  0  0  0  0  0  0  0
  146.0646  132.6139  152.2533 N   0  0  0  0  0  0  0  0  0  0  0  0
  144.8547  131.7950  152.0100 C   0  0  0  0  0  0  0  0  0  0  0  0
  143.8384  132.4241  151.0505 C   0  0  0  0  0  0  0  0  0  0  0  0
  143.2634  133.5654  151.4382 N   0  0  0  0  0  0  0  0  0  0  0  0
  143.5727  131.8833  149.9794 O   0  0  0  0  0  0  0  0  0  0  0  0
  145.7435  133.6677  153.2219 C   0  0  0  0  0  0  0  0  0  0  0  0
  146.9408  134.6142  153.4146 C   0  0  0  0  0  0  0  0  0  0  0  0
  151.7743  138.0516  154.6071 N   0  0  0  0  0  0  0  0  0  0  0  0
  151.1236  139.2906  154.5630 O   0  0  0  0  0  0  0  0  0  0  0  0
  148.2086  140.2416  153.8517 H   0  0  0  0  0  0  0  0  0  0  0  0
  149.4989  141.2025  154.5762 H   0  0  0  0  0  0  0  0  0  0  0  0
  148.3371  140.3662  155.6074 H   0  0  0  0  0  0  0  0  0  0  0  0
  148.5643  137.2747  154.9700 H   0  0  0  0  0  0  0  0  0  0  0  0
  149.5700  135.2462  153.1375 H   0  0  0  0  0  0  0  0  0  0  0  0
  147.9620  133.4372  154.8867 H   0  0  0  0  0  0  0  0  0  0  0  0
  148.7657  133.0802  151.9554 H   0  0  0  0  0  0  0  0  0  0  0  0
  149.2740  132.0737  153.2897 H   0  0  0  0  0  0  0  0  0  0  0  0
  147.4451  131.0199  152.0246 H   0  0  0  0  0  0  0  0  0  0  0  0
  146.9387  131.3180  153.6736 H   0  0  0  0  0  0  0  0  0  0  0  0
  145.1446  130.8145  151.6272 H   0  0  0  0  0  0  0  0  0  0  0  0
  144.3395  131.6167  152.9551 H   0  0  0  0  0  0  0  0  0  0  0  0
  142.5813  134.0107  150.8417 H   0  0  0  0  0  0  0  0  0  0  0  0
  143.5065  133.9731  152.3293 H   0  0  0  0  0  0  0  0  0  0  0  0
  144.8912  134.2487  152.8672 H   0  0  0  0  0  0  0  0  0  0  0  0
  145.4523  133.2296  154.1782 H   0  0  0  0  0  0  0  0  0  0  0  0
  146.6828  135.3925  154.1337 H   0  0  0  0  0  0  0  0  0  0  0  0
  147.1586  135.1221  152.4734 H   0  0  0  0  0  0  0  0  0  0  0  0
  1  2  1  0  0  0  0
  1 21  1  0  0  0  0
  1 22  1  0  0  0  0
  1 23  1  0  0  0  0
  2 20  1  0  0  0  0
  2  3  2  0  0  0  0
  3  4  1  0  0  0  0
  3 24  1  0  0  0  0
  4  5  1  0  0  0  0
  4 19  2  0  0  0  0
  5  6  1  0  0  0  0
  6  7  2  0  0  0  0
  6  8  1  0  0  0  0
  8  9  1  0  0  0  0
  8 25  1  0  0  0  0
  9 18  1  0  0  0  0
  9 10  1  0  0  0  0
  9 26  1  0  0  0  0
 10 11  1  0  0  0  0
 10 27  1  0  0  0  0
 10 28  1  0  0  0  0
 11 12  1  0  0  0  0
 11 29  1  0  0  0  0
 11 30  1  0  0  0  0
 12 13  1  0  0  0  0
 12 17  1  0  0  0  0
 13 14  1  0  0  0  0
 13 31  1  0  0  0  0
 13 32  1  0  0  0  0
 14 15  1  0  0  0  0
 14 16  2  0  0  0  0
 15 33  1  0  0  0  0
 15 34  1  0  0  0  0
 17 18  1  0  0  0  0
 17 35  1  0  0  0  0
 17 36  1  0  0  0  0
 18 37  1  0  0  0  0
 18 38  1  0  0  0  0
 19 20  1  0  0  0  0
M  CHG  1   5  -1
M  END
> <s_m_source_file>
AV-unprocessed.smi

> <i_m_source_file_index>
1417

> <i_lp_mmshare_version>
43012

> <i_f3d_flags>
0

> <s_epik_input>
W0NIM11jMVtjSF1jKG5vMSlbTkhdQyg9TylbTkhdW0NIXTJbQ0gyXVtDSDJdTihbQ0gyXVtDSDJdMilbQ0gyXUMoPU8pW05IMl0=

> <s_epik_cmdline>
J2VwaWtfcHl0aG9uJywgJy1waCcsICc3LjAnLCAnLXRuJywgJzgnLCAnLW1hJywgJzIwMCcsICctbWV0YWxfYmluZGluZycsICctaW1hZScsICc8aW5maWxlLm1hZT4nLCAnLW9tYWUnLCAnPG91dGZpbGUubWFlPic=

> <r_epik_Ionization_Penalty>
6.76533

> <r_epik_Ionization_Penalty_Charging>
6.59228

> <r_epik_Ionization_Penalty_Neutral>
0.17305

> <r_epik_State_Penalty>
6.73737

> <r_epik_Charging_Adjusted_Penalty>
13.3296

> <i_epik_Tot_Q>
-1

> <i_epik_Tot_abs_Q>
1

> <r_epik_Metal_State_Penalty>
2.67929

> <b_epik_Metal_Only>
1

> <s_lp_Force_Field>
OPLS_2005

> <r_lp_Energy>
4.40981

> <b_lp_Chiralities_Consistent>
1

> <s_lp_Variant>
AV-unprocessed.smi:1417-4

> <Gold.Version>
5.8.1

> <Gold.Id.Protein>
6NUR|6NUR_protein|mol2

> <Gold.PLP.Fitness>
42.5814

> <Gold.PLP.PLP>
-28.9756

> <Gold.PLP.part.hbond>
-5.0000

> <Gold.PLP.part.metal>
0.0000

> <Gold.PLP.part.buried>
-2.7264

> <Gold.PLP.part.nonpolar>
-22.3344

> <Gold.PLP.part.repulsive>
0.7016

> <Gold.PLP.ligand.clash>
0.0000

> <Gold.PLP.ligand.torsion>
0.9275

> <Gold.PLP.Chemscore.Hbond>
5.1420

> <Gold.PLP.Chemscore.CHOScore>
0.0000

> <Gold.PLP.Chemscore.Metal>
0.0000

> <Gold.Chemscore.Hbonds>
donor molecule, donor type, donor heavy atom, donor atom, acceptor molecule, acceptor atom, score
      L1  H     8    25       P1  7948  0.28
      L1  H    15    33       P1 10186  0.91
      P1  H  7989  7998       L1    20  1.00
      P1  H 10752 10764       L1     5  2.00
      P1  H 10785 10796       L1    16  0.65

> <Gold.PLP.Chemscore.Internal.Correction>
0.0345

> <Gold.Rescore>
     Score         DG    S(hbond)    S(metal)    S(lipo)     H(rot)  DE(clash)    DE(int)     intcor
     15.09     -16.55       3.21        0.00      46.79       2.00       0.41       1.05       ----

> <Gold.Chemscore.Fitness>
15.0896

> <Gold.Chemscore.DG>
-16.5478

> <Gold.Chemscore.ZeroCoef>
-5.4800

> <Gold.Chemscore.Hbond>
3.2057

> <Gold.Chemscore.Metal>
0.0000

> <Gold.Chemscore.Lipo>
46.7851

> <Gold.Chemscore.Internal_Hbond>
0.0000

> <Gold.Chemscore.DEClash>
0.4070

> <Gold.Chemscore.DEInternal>
1.0512

> <Gold.Chemscore.Rot>
1.9973

> <Gold.Chemscore.Internal.Correction>
   9.000000E+99

> <Gold.Chemscore.Hbonds>
donor molecule, donor type, donor heavy atom, donor atom, acceptor molecule, acceptor atom, score
      L1  H    15    33       P1 10186  0.53
      P1  H  7989  7998       L1    20  0.91
      P1  H 10752 10764       L1     5  0.70
      P1  H 10785 10796       L1    16  0.62

> <Gold.Chemscore.Hbond.Weighted>
-10.7071

> <Gold.Chemscore.Metal.Weighted>
-0.0000

> <Gold.Chemscore.Lipo.Weighted>
-5.4739

> <Gold.Chemscore.Internal_Hbond.Weighted>
0.0000

> <Gold.Chemscore.DEClash.Weighted>
0.4070

> <Gold.Chemscore.DEInternal.Weighted>
1.0512

> <Gold.Chemscore.Rot.Weighted>
5.1131

> <Gold.Chemscore.Internal.Correction.Weighted>
   9.000000E+99

> <Gold.Protein.RotatedTorsions>
[ 6907 6896 6895 6894 ] final  120.57 input  -60.11 | X-H torsion
[ 7974 7965 7964 7962 ] final  -88.70 input  175.53 | X-H torsion
[ 8008 7997 7996 7995 ] final   12.20 input   59.86 | X-H torsion
[ 10167 10162 10161 10158 ] final    0.13 input  -65.29 | X-H torsion
[ 10718 10713 10712 10709 ] final   79.41 input   66.30 | X-H torsion
[ 10763 10752 10751 10750 ] final  -59.95 input  -60.55 | X-H torsion
[ 11005 11000 10999 10996 ] final  166.40 input  -57.11 | X-H torsion

> <Gold.Protein.ActiveResidues>
 VAL166  LYS551  ARG553  GLY616  TRP617  ASP618  TYR619  PRO620  LYS621  CYS622 
 ASP623  PHE694  ASN695  SER759  ASP760  ASP761  ALA762  ILE779  LEU786  VAL792 
 PHE793  MET794  SER795  GLU796  ALA797  LYS798  CYS799  TRP800  GLU811  SER814 

> <Gold.Protein.RotatedAtoms>
  152.4388  133.7409  159.6640 H   0  0  0  0  0  0  0  0  0  0  0  0  # atno 6907 bound_to 6896
  150.8275  133.8136  159.3118 H   0  0  0  0  0  0  0  0  0  0  0  0  # atno 6908 bound_to 6896
  151.5800  135.1061  160.0067 H   0  0  0  0  0  0  0  0  0  0  0  0  # atno 6909 bound_to 6896
  145.4496  140.9560  143.2029 H   0  0  0  0  0  0  0  0  0  0  0  0  # atno 7974 bound_to 7965
  154.8174  140.2878  155.5811 H   0  0  0  0  0  0  0  0  0  0  0  0  # atno 8008 bound_to 7997
  156.2994  140.2556  156.3004 H   0  0  0  0  0  0  0  0  0  0  0  0  # atno 8009 bound_to 7997
  154.9378  140.0382  157.2070 H   0  0  0  0  0  0  0  0  0  0  0  0  # atno 8010 bound_to 7997
  140.6742  143.6962  150.7988 H   0  0  0  0  0  0  0  0  0  0  0  0  # atno 10167 bound_to 10162
  157.6776  130.9913  150.1929 H   0  0  0  0  0  0  0  0  0  0  0  0  # atno 10718 bound_to 10713
  154.2616  135.6307  153.5276 H   0  0  0  0  0  0  0  0  0  0  0  0  # atno 10763 bound_to 10752
  152.9895  135.5589  154.5698 H   0  0  0  0  0  0  0  0  0  0  0  0  # atno 10764 bound_to 10752
  154.5248  135.2884  155.1206 H   0  0  0  0  0  0  0  0  0  0  0  0  # atno 10765 bound_to 10752
  140.2660  134.7864  157.3633 H   0  0  0  0  0  0  0  0  0  0  0  0  # atno 11005 bound_to 11000
  144.8070  139.6033  143.7046 LP  0  0  0  0  0  0  0  0  0  0  0  0  # atno 17320 bound_to 7965
  146.2511  139.6203  142.9426 LP  0  0  0  0  0  0  0  0  0  0  0  0  # atno 17321 bound_to 7965
  140.0652  143.5115  152.2607 LP  0  0  0  0  0  0  0  0  0  0  0  0  # atno 17342 bound_to 10162
  139.6026  144.7587  151.3136 LP  0  0  0  0  0  0  0  0  0  0  0  0  # atno 17343 bound_to 10162
  156.2636  130.3713  149.8104 LP  0  0  0  0  0  0  0  0  0  0  0  0  # atno 17370 bound_to 10713
  156.5842  130.8479  151.3391 LP  0  0  0  0  0  0  0  0  0  0  0  0  # atno 17371 bound_to 10713
  140.1419  134.4961  155.8025 LP  0  0  0  0  0  0  0  0  0  0  0  0  # atno 17394 bound_to 11000
  141.2184  133.6828  156.7225 LP  0  0  0  0  0  0  0  0  0  0  0  0  # atno 17395 bound_to 11000

$$$$
