AV-unprocessed.smi:1760|AV-procd|sdf|7091|dock3
  -GOLD-   22720 8313D 1   1.00000     0.00000
 Structure written by MMmdl.
 43 45  0  0  0  0  0  0  0  0  1 V2000
  149.3927  134.9920  156.2233 O   0  0  0  0  0  0  0  0  0  0  0  0
  149.2806  135.2882  155.0341 C   0  0  0  0  0  0  0  0  0  0  0  0
  148.6439  134.5595  154.0986 N   0  0  0  0  0  0  0  0  0  0  0  0
  147.9543  133.3426  154.2340 C   0  0  0  0  0  0  0  0  0  0  0  0
  148.5290  132.1123  154.1811 C   0  0  0  0  0  0  0  0  0  0  0  0
  147.7554  130.8919  154.3375 C   0  0  0  0  0  0  0  0  0  0  0  0
  148.3963  129.5197  154.1974 C   0  0  0  0  0  0  0  0  0  0  0  0
  148.0992  128.7381  155.2363 F   0  0  0  0  0  0  0  0  0  0  0  0
  147.9855  128.9111  153.0848 F   0  0  0  0  0  0  0  0  0  0  0  0
  149.7213  129.6439  154.1373 F   0  0  0  0  0  0  0  0  0  0  0  0
  146.4316  131.0406  154.5285 C   0  0  0  0  0  0  0  0  0  0  0  0
  145.8366  132.3016  154.6074 N   0  0  0  0  0  0  0  0  0  0  0  0
  146.5075  133.4680  154.4773 C   0  0  0  0  0  0  0  0  0  0  0  0
  145.9100  134.5404  154.5626 O   0  0  0  0  0  0  0  0  0  0  0  0
  149.8119  136.3945  154.4939 N   0  0  0  0  0  0  0  0  0  0  0  0
  150.6004  137.3995  155.2026 C   0  0  0  0  0  0  0  0  0  0  0  0
  149.8369  137.8979  156.4394 C   0  0  0  0  0  0  0  0  0  0  0  0
  150.5806  139.0659  157.1110 C   0  0  0  0  0  0  0  0  0  0  0  0
  150.7563  140.1652  156.1614 N   0  0  0  0  0  0  0  0  0  0  0  0
  151.4198  141.2689  156.8356 C   0  0  0  0  0  0  0  0  0  0  0  0
  150.5771  142.1531  157.7260 C   0  0  0  0  0  0  0  0  0  0  0  0
  151.0645  142.6703  156.3942 C   0  0  0  0  0  0  0  0  0  0  0  0
  151.5897  139.7272  155.0414 C   0  0  0  0  0  0  0  0  0  0  0  0
  150.8943  138.5886  154.2747 C   0  0  0  0  0  0  0  0  0  0  0  0
  144.8407  132.3298  154.7728 H   0  0  0  0  0  0  0  0  0  0  0  0
  148.6970  134.9054  153.1512 H   0  0  0  0  0  0  0  0  0  0  0  0
  149.5915  132.0004  154.0397 H   0  0  0  0  0  0  0  0  0  0  0  0
  145.7357  130.2210  154.6304 H   0  0  0  0  0  0  0  0  0  0  0  0
  149.6710  136.5498  153.5065 H   0  0  0  0  0  0  0  0  0  0  0  0
  151.5529  136.9816  155.5341 H   0  0  0  0  0  0  0  0  0  0  0  0
  148.8347  138.2234  156.1560 H   0  0  0  0  0  0  0  0  0  0  0  0
  149.7082  137.0832  157.1527 H   0  0  0  0  0  0  0  0  0  0  0  0
  150.0067  139.4153  157.9702 H   0  0  0  0  0  0  0  0  0  0  0  0
  151.5496  138.7329  157.4867 H   0  0  0  0  0  0  0  0  0  0  0  0
  152.4497  141.1330  157.1620 H   0  0  0  0  0  0  0  0  0  0  0  0
  149.5171  141.9234  157.8173 H   0  0  0  0  0  0  0  0  0  0  0  0
  151.0460  142.5522  158.6231 H   0  0  0  0  0  0  0  0  0  0  0  0
  151.8579  143.4146  156.4031 H   0  0  0  0  0  0  0  0  0  0  0  0
  150.3274  142.7845  155.6015 H   0  0  0  0  0  0  0  0  0  0  0  0
  151.7629  140.5665  154.3664 H   0  0  0  0  0  0  0  0  0  0  0  0
  152.5660  139.3996  155.4026 H   0  0  0  0  0  0  0  0  0  0  0  0
  151.5215  138.2669  153.4427 H   0  0  0  0  0  0  0  0  0  0  0  0
  149.9667  138.9617  153.8375 H   0  0  0  0  0  0  0  0  0  0  0  0
  1  2  2  0  0  0  0
  2  3  1  0  0  0  0
  2 15  1  0  0  0  0
  3  4  1  0  0  0  0
  3 26  1  0  0  0  0
  4 13  1  0  0  0  0
  4  5  2  0  0  0  0
  5  6  1  0  0  0  0
  5 27  1  0  0  0  0
  6  7  1  0  0  0  0
  6 11  2  0  0  0  0
  7  8  1  0  0  0  0
  7  9  1  0  0  0  0
  7 10  1  0  0  0  0
 11 12  1  0  0  0  0
 11 28  1  0  0  0  0
 12 25  1  0  0  0  0
 12 13  1  0  0  0  0
 13 14  2  0  0  0  0
 15 16  1  0  0  0  0
 15 29  1  0  0  0  0
 16 24  1  0  0  0  0
 16 17  1  0  0  0  0
 16 30  1  0  0  0  0
 17 18  1  0  0  0  0
 17 31  1  0  0  0  0
 17 32  1  0  0  0  0
 18 19  1  0  0  0  0
 18 33  1  0  0  0  0
 18 34  1  0  0  0  0
 19 20  1  0  0  0  0
 19 23  1  0  0  0  0
 20 22  1  0  0  0  0
 20 21  1  0  0  0  0
 20 35  1  0  0  0  0
 21 22  1  0  0  0  0
 21 36  1  0  0  0  0
 21 37  1  0  0  0  0
 22 38  1  0  0  0  0
 22 39  1  0  0  0  0
 23 24  1  0  0  0  0
 23 40  1  0  0  0  0
 23 41  1  0  0  0  0
 24 42  1  0  0  0  0
 24 43  1  0  0  0  0
M  END
> <s_m_source_file>
AV-unprocessed.smi

> <i_m_source_file_index>
1760

> <i_lp_mmshare_version>
43012

> <i_f3d_flags>
0

> <s_epik_input>
W0NIMl0xW0NIMl1bQ0hdMU4oW0NIMl1bQ0gyXTIpW0NIMl1bQ0gyXVtDSF0yW05IXUMoPU8pW05IXWMzW2NIXWMoQyhGKShGKUYpW2NIXVtuSF1jMz1P

> <s_epik_cmdline>
J2VwaWtfcHl0aG9uJywgJy1waCcsICc3LjAnLCAnLXRuJywgJzgnLCAnLW1hJywgJzIwMCcsICctbWV0YWxfYmluZGluZycsICctaW1hZScsICc8aW5maWxlLm1hZT4nLCAnLW9tYWUnLCAnPG91dGZpbGUubWFlPic=

> <r_lp_tautomer_probability>
0.999

> <r_epik_Ionization_Penalty>
0.980325

> <r_epik_Ionization_Penalty_Charging>
0.0037226

> <r_epik_Ionization_Penalty_Neutral>
0.976602

> <r_epik_State_Penalty>
1.02305

> <r_epik_Charging_Adjusted_Penalty>
1.02677

> <i_epik_Tot_Q>
0

> <i_epik_Tot_abs_Q>
0

> <r_epik_Metal_State_Penalty>
1.39928

> <b_epik_Metal_Only>
0

> <s_lp_Force_Field>
OPLS_2005

> <r_lp_Energy>
33.0511

> <b_lp_Chiralities_Consistent>
1

> <s_lp_Variant>
AV-unprocessed.smi:1760-3

> <Gold.Version>
5.8.1

> <Gold.Id.Protein>
6NUR|6NUR_protein|mol2

> <Gold.PLP.Fitness>
39.5387

> <Gold.PLP.PLP>
-30.2082

> <Gold.PLP.part.hbond>
-2.9007

> <Gold.PLP.part.metal>
0.0000

> <Gold.PLP.part.buried>
-3.5596

> <Gold.PLP.part.nonpolar>
-24.3956

> <Gold.PLP.part.repulsive>
0.1397

> <Gold.PLP.ligand.clash>
0.3047

> <Gold.PLP.ligand.torsion>
1.5623

> <Gold.PLP.Chemscore.Hbond>
2.8288

> <Gold.PLP.Chemscore.CHOScore>
1.0000

> <Gold.PLP.Chemscore.Metal>
0.0000

> <Gold.Chemscore.Hbonds>
donor molecule, donor type, donor heavy atom, donor atom, acceptor molecule, acceptor atom, score
      L1  H     3    26       P1  7948  1.00
      L1  H    12    25       P1 10957  0.52
      L1  H    15    29       P1  7948  1.00
      L1  C    11    28       P1 10956  0.96

> <Gold.PLP.Chemscore.Internal.Correction>
1.2734

> <Gold.Rescore>
     Score         DG    S(hbond)    S(metal)    S(lipo)     H(rot)  DE(clash)    DE(int)     intcor
     16.33     -18.78       2.78        0.00      62.29       1.27       0.09       2.36       ----

> <Gold.Chemscore.Fitness>
16.3316

> <Gold.Chemscore.DG>
-18.7809

> <Gold.Chemscore.ZeroCoef>
-5.4800

> <Gold.Chemscore.Hbond>
2.7764

> <Gold.Chemscore.Metal>
0.0000

> <Gold.Chemscore.Lipo>
62.2879

> <Gold.Chemscore.Internal_Hbond>
0.0000

> <Gold.Chemscore.DEClash>
0.0907

> <Gold.Chemscore.DEInternal>
2.3586

> <Gold.Chemscore.Rot>
1.2734

> <Gold.Chemscore.Internal.Correction>
   9.000000E+99

> <Gold.Chemscore.Hbonds>
donor molecule, donor type, donor heavy atom, donor atom, acceptor molecule, acceptor atom, score
      L1  H     3    26       P1  7948  0.44
      L1  H    12    25       P1 10957  0.34
      L1  H    15    29       P1  7948  0.49

> <Gold.Chemscore.Hbond.Weighted>
-9.2730

> <Gold.Chemscore.Metal.Weighted>
-0.0000

> <Gold.Chemscore.Lipo.Weighted>
-7.2877

> <Gold.Chemscore.Internal_Hbond.Weighted>
0.0000

> <Gold.Chemscore.DEClash.Weighted>
0.0907

> <Gold.Chemscore.DEInternal.Weighted>
2.3586

> <Gold.Chemscore.Rot.Weighted>
3.2598

> <Gold.Chemscore.Internal.Correction.Weighted>
   9.000000E+99

> <Gold.Protein.RotatedTorsions>
[ 6907 6896 6895 6894 ] final  155.52 input  -60.11 | X-H torsion
[ 7974 7965 7964 7962 ] final -122.91 input  175.53 | X-H torsion
[ 8008 7997 7996 7995 ] final  136.03 input   59.86 | X-H torsion
[ 10167 10162 10161 10158 ] final  110.44 input  -65.29 | X-H torsion
[ 10718 10713 10712 10709 ] final  121.33 input   66.30 | X-H torsion
[ 10763 10752 10751 10750 ] final -159.90 input  -60.55 | X-H torsion
[ 11005 11000 10999 10996 ] final  173.61 input  -57.11 | X-H torsion

> <Gold.Protein.ActiveResidues>
 VAL166  LYS551  ARG553  GLY616  TRP617  ASP618  TYR619  PRO620  LYS621  CYS622 
 ASP623  PHE694  ASN695  SER759  ASP760  ASP761  ALA762  ILE779  LEU786  VAL792 
 PHE793  MET794  SER795  GLU796  ALA797  LYS798  CYS799  TRP800  GLU811  SER814 

> <Gold.Protein.RotatedAtoms>
  152.0429  133.3985  159.4344 H   0  0  0  0  0  0  0  0  0  0  0  0  # atno 6907 bound_to 6896
  150.6874  134.3394  159.4870 H   0  0  0  0  0  0  0  0  0  0  0  0  # atno 6908 bound_to 6896
  152.1195  134.9216  160.0614 H   0  0  0  0  0  0  0  0  0  0  0  0  # atno 6909 bound_to 6896
  145.0244  140.8015  143.4361 H   0  0  0  0  0  0  0  0  0  0  0  0  # atno 7974 bound_to 7965
  156.3004  140.2455  156.3679 H   0  0  0  0  0  0  0  0  0  0  0  0  # atno 8008 bound_to 7997
  154.8816  140.0412  157.1805 H   0  0  0  0  0  0  0  0  0  0  0  0  # atno 8009 bound_to 7997
  154.8690  140.2932  155.5497 H   0  0  0  0  0  0  0  0  0  0  0  0  # atno 8010 bound_to 7997
  139.6688  144.7126  151.1726 H   0  0  0  0  0  0  0  0  0  0  0  0  # atno 10167 bound_to 10162
  157.5826  131.1073  150.8158 H   0  0  0  0  0  0  0  0  0  0  0  0  # atno 10718 bound_to 10713
  154.7436  135.3074  154.8684 H   0  0  0  0  0  0  0  0  0  0  0  0  # atno 10763 bound_to 10752
  153.9492  135.6766  153.4748 H   0  0  0  0  0  0  0  0  0  0  0  0  # atno 10764 bound_to 10752
  153.1033  135.4901  154.8832 H   0  0  0  0  0  0  0  0  0  0  0  0  # atno 10765 bound_to 10752
  140.3424  134.7265  157.4211 H   0  0  0  0  0  0  0  0  0  0  0  0  # atno 11005 bound_to 11000
  145.1853  139.2330  143.5271 LP  0  0  0  0  0  0  0  0  0  0  0  0  # atno 17320 bound_to 7965
  146.3490  140.1636  142.8590 LP  0  0  0  0  0  0  0  0  0  0  0  0  # atno 17321 bound_to 7965
  140.7610  143.5876  150.8829 LP  0  0  0  0  0  0  0  0  0  0  0  0  # atno 17342 bound_to 10162
  139.9540  143.6240  152.3021 LP  0  0  0  0  0  0  0  0  0  0  0  0  # atno 17343 bound_to 10162
  156.8600  130.5110  149.5304 LP  0  0  0  0  0  0  0  0  0  0  0  0  # atno 17370 bound_to 10713
  156.0872  130.5868  150.9670 LP  0  0  0  0  0  0  0  0  0  0  0  0  # atno 17371 bound_to 10713
  140.0770  134.5783  155.8580 LP  0  0  0  0  0  0  0  0  0  0  0  0  # atno 17394 bound_to 11000
  141.2035  133.6632  156.6066 LP  0  0  0  0  0  0  0  0  0  0  0  0  # atno 17395 bound_to 11000

$$$$
