AV-unprocessed.smi:3253|AV-procd|sdf|12449|dock3
  -GOLD-   2272018343D 1   1.00000     0.00000
 Structure written by MMmdl.
 36 37  0  0  0  0  0  0  0  0  1 V2000
  153.0255  142.5365  162.2136 C   0  0  0  0  0  0  0  0  0  0  0  0
  153.7088  141.9130  160.9821 C   0  0  2  0  0  0  0  0  0  0  0  0
  152.7538  141.7417  159.7841 C   0  0  0  0  0  0  0  0  0  0  0  0
  152.3748  143.0057  159.1811 N   0  0  0  0  0  0  0  0  0  0  0  0
  151.7527  143.1995  157.9544 C   0  0  0  0  0  0  0  0  0  0  0  0
  151.5971  144.5590  157.8033 C   0  0  0  0  0  0  0  0  0  0  0  0
  152.1182  145.2170  158.9150 N   0  0  0  0  0  0  0  0  0  0  0  0
  152.5624  144.2329  159.6857 C   0  0  0  0  0  0  0  0  0  0  0  0
  154.2812  140.6138  161.3245 N   0  0  0  0  0  0  0  0  0  0  0  0
  154.7975  139.7361  160.4499 C   0  0  0  0  0  0  0  0  0  0  0  0
  154.8513  139.9426  159.2370 O   0  0  0  0  0  0  0  0  0  0  0  0
  155.3363  138.4215  161.0357 C   0  0  2  0  0  0  0  0  0  0  0  0
  154.1893  137.4858  161.4690 C   0  0  0  0  0  0  0  0  0  0  0  0
  154.3063  137.4360  162.9834 C   0  0  0  0  0  0  0  0  0  0  0  0
  153.4908  136.8554  163.6979 O   0  0  0  0  0  0  0  0  0  0  0  0
  155.3857  138.1025  163.4016 N   0  0  0  0  0  0  0  0  0  0  0  0
  155.7978  138.2709  164.7885 C   0  0  0  0  0  0  0  0  0  0  0  0
  156.1784  138.6453  162.3116 C   0  0  0  0  0  0  0  0  0  0  0  0
  152.6492  143.5367  161.9983 H   0  0  0  0  0  0  0  0  0  0  0  0
  153.7218  142.6299  163.0476 H   0  0  0  0  0  0  0  0  0  0  0  0
  152.1844  141.9296  162.5493 H   0  0  0  0  0  0  0  0  0  0  0  0
  154.5184  142.5757  160.6698 H   0  0  0  0  0  0  0  0  0  0  0  0
  153.2206  141.1262  159.0136 H   0  0  0  0  0  0  0  0  0  0  0  0
  151.8466  141.2205  160.0933 H   0  0  0  0  0  0  0  0  0  0  0  0
  151.4766  142.3779  157.3099 H   0  0  0  0  0  0  0  0  0  0  0  0
  151.1552  145.1101  156.9863 H   0  0  0  0  0  0  0  0  0  0  0  0
  153.0340  144.4084  160.6416 H   0  0  0  0  0  0  0  0  0  0  0  0
  154.2809  140.3608  162.3020 H   0  0  0  0  0  0  0  0  0  0  0  0
  155.9499  137.9231  160.2829 H   0  0  0  0  0  0  0  0  0  0  0  0
  153.1989  137.8382  161.1743 H   0  0  0  0  0  0  0  0  0  0  0  0
  154.3242  136.4838  161.0608 H   0  0  0  0  0  0  0  0  0  0  0  0
  155.9326  137.3016  165.2695 H   0  0  0  0  0  0  0  0  0  0  0  0
  155.0441  138.8296  165.3445 H   0  0  0  0  0  0  0  0  0  0  0  0
  156.7404  138.8149  164.8558 H   0  0  0  0  0  0  0  0  0  0  0  0
  157.1247  138.1063  162.2506 H   0  0  0  0  0  0  0  0  0  0  0  0
  156.4099  139.6965  162.4937 H   0  0  0  0  0  0  0  0  0  0  0  0
  1  2  1  0  0  0  0
  1 19  1  0  0  0  0
  1 20  1  0  0  0  0
  1 21  1  0  0  0  0
  2  3  1  0  0  0  0
  2  9  1  0  0  0  0
  2 22  1  0  0  0  0
  3  4  1  0  0  0  0
  3 23  1  0  0  0  0
  3 24  1  0  0  0  0
  4  8  1  0  0  0  0
  4  5  1  0  0  0  0
  5  6  2  0  0  0  0
  5 25  1  0  0  0  0
  6  7  1  0  0  0  0
  6 26  1  0  0  0  0
  7  8  2  0  0  0  0
  8 27  1  0  0  0  0
  9 10  1  0  0  0  0
  9 28  1  0  0  0  0
 10 11  2  0  0  0  0
 10 12  1  0  0  0  0
 12 18  1  0  0  0  0
 12 13  1  0  0  0  0
 12 29  1  0  0  0  0
 13 14  1  0  0  0  0
 13 30  1  0  0  0  0
 13 31  1  0  0  0  0
 14 15  2  0  0  0  0
 14 16  1  0  0  0  0
 16 17  1  0  0  0  0
 16 18  1  0  0  0  0
 17 32  1  0  0  0  0
 17 33  1  0  0  0  0
 17 34  1  0  0  0  0
 18 35  1  0  0  0  0
 18 36  1  0  0  0  0
M  END
> <s_m_source_file>
AV-unprocessed.smi

> <i_m_source_file_index>
3253

> <i_lp_mmshare_version>
43012

> <i_f3d_flags>
0

> <s_epik_input>
W2NIXTFuW2NIXVtjSF1uMVtDSDJdW0NAQEhdKFtDSDNdKVtOSF1DKD1PKVtDQEBIXTJbQ0gyXUMoPU8pTihbQ0gzXSlbQ0gyXTI=

> <s_epik_cmdline>
J2VwaWtfcHl0aG9uJywgJy1waCcsICc3LjAnLCAnLXRuJywgJzgnLCAnLW1hJywgJzIwMCcsICctbWV0YWxfYmluZGluZycsICctaW1hZScsICc8aW5maWxlLm1hZT4nLCAnLW9tYWUnLCAnPG91dGZpbGUubWFlPic=

> <r_lp_tautomer_probability>
1

> <r_epik_Ionization_Penalty>
0.628884

> <r_epik_Ionization_Penalty_Charging>
0.628884

> <r_epik_Ionization_Penalty_Neutral>
2.35084e-08

> <r_epik_State_Penalty>
0.64556

> <r_epik_Charging_Adjusted_Penalty>
1.27444

> <i_epik_Tot_Q>
0

> <i_epik_Tot_abs_Q>
0

> <r_epik_Metal_State_Penalty>
0.308736

> <b_epik_Metal_Only>
0

> <s_lp_Force_Field>
OPLS_2005

> <r_lp_Energy>
13.4006

> <b_lp_Chiralities_Consistent>
1

> <s_lp_Variant>
AV-unprocessed.smi:3253-5

> <Gold.Version>
5.8.1

> <Gold.Id.Protein>
6NUR|6NUR_protein|mol2

> <Gold.PLP.Fitness>
44.5209

> <Gold.PLP.PLP>
-39.8856

> <Gold.PLP.part.hbond>
-1.0000

> <Gold.PLP.part.metal>
0.0000

> <Gold.PLP.part.buried>
-5.6384

> <Gold.PLP.part.nonpolar>
-32.8419

> <Gold.PLP.part.repulsive>
0.1065

> <Gold.PLP.ligand.clash>
0.0000

> <Gold.PLP.ligand.torsion>
0.6969

> <Gold.PLP.Chemscore.Hbond>
1.0000

> <Gold.PLP.Chemscore.CHOScore>
0.9958

> <Gold.PLP.Chemscore.Metal>
0.0000

> <Gold.Chemscore.Hbonds>
donor molecule, donor type, donor heavy atom, donor atom, acceptor molecule, acceptor atom, score
      P1  H  7997  8009       L1    11  1.00
      L1  C     6    26       P1  8028  0.81

> <Gold.PLP.Chemscore.Internal.Correction>
0.0416

> <Gold.Rescore>
     Score         DG    S(hbond)    S(metal)    S(lipo)     H(rot)  DE(clash)    DE(int)     intcor
     11.09     -12.73       0.99        0.00      76.79       1.97       0.03       1.62       ----

> <Gold.Chemscore.Fitness>
11.0856

> <Gold.Chemscore.DG>
-12.7310

> <Gold.Chemscore.ZeroCoef>
-5.4800

> <Gold.Chemscore.Hbond>
0.9884

> <Gold.Chemscore.Metal>
0.0000

> <Gold.Chemscore.Lipo>
76.7926

> <Gold.Chemscore.Internal_Hbond>
0.0000

> <Gold.Chemscore.DEClash>
0.0288

> <Gold.Chemscore.DEInternal>
1.6166

> <Gold.Chemscore.Rot>
1.9669

> <Gold.Chemscore.Internal.Correction>
   9.000000E+99

> <Gold.Chemscore.Hbonds>
donor molecule, donor type, donor heavy atom, donor atom, acceptor molecule, acceptor atom, score
      P1  H  7997  8009       L1    11  0.96

> <Gold.Chemscore.Hbond.Weighted>
-3.3014

> <Gold.Chemscore.Metal.Weighted>
-0.0000

> <Gold.Chemscore.Lipo.Weighted>
-8.9847

> <Gold.Chemscore.Internal_Hbond.Weighted>
0.0000

> <Gold.Chemscore.DEClash.Weighted>
0.0288

> <Gold.Chemscore.DEInternal.Weighted>
1.6166

> <Gold.Chemscore.Rot.Weighted>
5.0352

> <Gold.Chemscore.Internal.Correction.Weighted>
   9.000000E+99

> <Gold.Protein.RotatedTorsions>
[ 6907 6896 6895 6894 ] final  -27.31 input  -60.11 | X-H torsion
[ 7974 7965 7964 7962 ] final   52.23 input  175.53 | X-H torsion
[ 8008 7997 7996 7995 ] final  108.10 input   59.86 | X-H torsion
[ 10167 10162 10161 10158 ] final -116.24 input  -65.29 | X-H torsion
[ 10718 10713 10712 10709 ] final   88.60 input   66.30 | X-H torsion
[ 10763 10752 10751 10750 ] final  -35.72 input  -60.55 | X-H torsion
[ 11005 11000 10999 10996 ] final  171.42 input  -57.11 | X-H torsion

> <Gold.Protein.ActiveResidues>
 VAL166  LYS551  ARG553  GLY616  TRP617  ASP618  TYR619  PRO620  LYS621  CYS622 
 ASP623  PHE694  ASN695  SER759  ASP760  ASP761  ALA762  ILE779  LEU786  VAL792 
 PHE793  MET794  SER795  GLU796  ALA797  LYS798  CYS799  TRP800  GLU811  SER814 

> <Gold.Protein.RotatedAtoms>
  151.1487  135.0216  159.8658 H   0  0  0  0  0  0  0  0  0  0  0  0  # atno 6907 bound_to 6896
  152.5453  134.1414  159.8490 H   0  0  0  0  0  0  0  0  0  0  0  0  # atno 6908 bound_to 6896
  151.1497  133.4870  159.2628 H   0  0  0  0  0  0  0  0  0  0  0  0  # atno 6909 bound_to 6896
  145.9834  139.4266  143.0118 H   0  0  0  0  0  0  0  0  0  0  0  0  # atno 7974 bound_to 7965
  156.1876  140.3082  155.9269 H   0  0  0  0  0  0  0  0  0  0  0  0  # atno 8008 bound_to 7997
  155.3245  140.0457  157.3057 H   0  0  0  0  0  0  0  0  0  0  0  0  # atno 8009 bound_to 7997
  154.5414  140.2263  155.8644 H   0  0  0  0  0  0  0  0  0  0  0  0  # atno 8010 bound_to 7997
  140.0814  143.4784  152.1924 H   0  0  0  0  0  0  0  0  0  0  0  0  # atno 10167 bound_to 10162
  157.6950  131.0301  150.3299 H   0  0  0  0  0  0  0  0  0  0  0  0  # atno 10718 bound_to 10713
  153.8678  135.6834  153.4777 H   0  0  0  0  0  0  0  0  0  0  0  0  # atno 10763 bound_to 10752
  153.1304  135.4700  154.9338 H   0  0  0  0  0  0  0  0  0  0  0  0  # atno 10764 bound_to 10752
  154.7728  135.3244  154.8104 H   0  0  0  0  0  0  0  0  0  0  0  0  # atno 10765 bound_to 10752
  140.3188  134.7455  157.4048 H   0  0  0  0  0  0  0  0  0  0  0  0  # atno 11005 bound_to 11000
  145.7735  140.9886  143.1137 LP  0  0  0  0  0  0  0  0  0  0  0  0  # atno 17320 bound_to 7965
  144.6868  139.9477  143.7477 LP  0  0  0  0  0  0  0  0  0  0  0  0  # atno 17321 bound_to 7965
  139.5777  144.7496  151.3720 LP  0  0  0  0  0  0  0  0  0  0  0  0  # atno 17342 bound_to 10162
  140.7076  143.7474  150.7509 LP  0  0  0  0  0  0  0  0  0  0  0  0  # atno 17343 bound_to 10162
  156.3774  130.3874  149.7128 LP  0  0  0  0  0  0  0  0  0  0  0  0  # atno 17370 bound_to 10713
  156.4522  130.7912  151.2933 LP  0  0  0  0  0  0  0  0  0  0  0  0  # atno 17371 bound_to 10713
  140.0960  134.5537  155.8398 LP  0  0  0  0  0  0  0  0  0  0  0  0  # atno 17394 bound_to 11000
  141.2091  133.6680  156.6418 LP  0  0  0  0  0  0  0  0  0  0  0  0  # atno 17395 bound_to 11000

$$$$
