AV-unprocessed.smi:1314|AV-procd|sdf|5453|dock10
  -GOLD-   22720 5 23D 1   1.00000     0.00000
 Structure written by MMmdl.
 41 42  0  0  0  0  0  0  0  0  1 V2000
  152.4620  138.6199  157.3844 C   0  0  0  0  0  0  0  0  0  0  0  0
  151.4835  137.4856  157.2785 C   0  0  0  0  0  0  0  0  0  0  0  0
  151.2285  136.7398  158.3406 N   0  0  0  0  0  0  0  0  0  0  0  0
  150.2907  135.7896  157.9248 O   0  0  0  0  0  0  0  0  0  0  0  0
  150.0158  136.0029  156.6128 C   0  0  0  0  0  0  0  0  0  0  0  0
  149.0250  135.0874  155.9774 C   0  0  0  0  0  0  0  0  0  0  0  0
  150.7415  137.0614  156.1392 C   0  0  0  0  0  0  0  0  0  0  0  0
  150.7577  137.6491  154.7514 C   0  0  0  0  0  0  0  0  0  0  0  0
  150.9488  139.1651  154.8291 C   0  0  0  0  0  0  0  0  0  0  0  0
  152.0787  139.6484  154.7539 O   0  0  0  0  0  0  0  0  0  0  0  0
  149.8367  139.9004  154.9838 N   0  0  0  0  0  0  0  0  0  0  0  0
  149.7876  141.3545  155.1033 C   0  0  0  0  0  0  0  0  0  0  0  0
  150.8463  141.8896  156.0811 C   0  0  0  0  0  0  0  0  0  0  0  0
  150.7422  141.1110  157.7189 S   0  0  0  0  0  0  0  0  0  0  0  0
  152.1030  141.9556  158.5747 C   0  0  0  0  0  0  0  0  0  0  0  0
  152.4449  141.3026  159.9132 C   0  0  0  0  0  0  0  0  0  0  0  0
  153.2025  142.3858  160.6844 C   0  0  0  0  0  0  0  0  0  0  0  0
  152.6890  143.7296  160.1448 C   0  0  0  0  0  0  0  0  0  0  0  0
  151.7742  143.4013  158.9571 C   0  0  0  0  0  0  0  0  0  0  0  0
  152.0680  139.5197  156.9118 H   0  0  0  0  0  0  0  0  0  0  0  0
  153.4014  138.3702  156.8913 H   0  0  0  0  0  0  0  0  0  0  0  0
  152.6861  138.8650  158.4232 H   0  0  0  0  0  0  0  0  0  0  0  0
  148.3338  135.6449  155.3451 H   0  0  0  0  0  0  0  0  0  0  0  0
  148.4396  134.5590  156.7303 H   0  0  0  0  0  0  0  0  0  0  0  0
  149.5284  134.3457  155.3574 H   0  0  0  0  0  0  0  0  0  0  0  0
  151.5680  137.2319  154.1527 H   0  0  0  0  0  0  0  0  0  0  0  0
  149.8364  137.4155  154.2157 H   0  0  0  0  0  0  0  0  0  0  0  0
  148.9539  139.4126  155.0314 H   0  0  0  0  0  0  0  0  0  0  0  0
  149.9804  141.7643  154.1116 H   0  0  0  0  0  0  0  0  0  0  0  0
  148.7924  141.7026  155.3850 H   0  0  0  0  0  0  0  0  0  0  0  0
  151.8487  141.7489  155.6750 H   0  0  0  0  0  0  0  0  0  0  0  0
  150.7045  142.9628  156.2075 H   0  0  0  0  0  0  0  0  0  0  0  0
  152.9879  141.9396  157.9368 H   0  0  0  0  0  0  0  0  0  0  0  0
  151.5291  141.0491  160.4494 H   0  0  0  0  0  0  0  0  0  0  0  0
  153.0260  140.3872  159.7980 H   0  0  0  0  0  0  0  0  0  0  0  0
  153.0615  142.2919  161.7617 H   0  0  0  0  0  0  0  0  0  0  0  0
  154.2715  142.2981  160.4865 H   0  0  0  0  0  0  0  0  0  0  0  0
  152.1458  144.2869  160.9087 H   0  0  0  0  0  0  0  0  0  0  0  0
  153.5281  144.3489  159.8257 H   0  0  0  0  0  0  0  0  0  0  0  0
  151.9130  144.0940  158.1266 H   0  0  0  0  0  0  0  0  0  0  0  0
  150.7329  143.4732  159.2743 H   0  0  0  0  0  0  0  0  0  0  0  0
  1  2  1  0  0  0  0
  1 20  1  0  0  0  0
  1 21  1  0  0  0  0
  1 22  1  0  0  0  0
  2  7  1  0  0  0  0
  2  3  2  0  0  0  0
  3  4  1  0  0  0  0
  4  5  1  0  0  0  0
  5  6  1  0  0  0  0
  5  7  2  0  0  0  0
  6 23  1  0  0  0  0
  6 24  1  0  0  0  0
  6 25  1  0  0  0  0
  7  8  1  0  0  0  0
  8  9  1  0  0  0  0
  8 26  1  0  0  0  0
  8 27  1  0  0  0  0
  9 10  2  0  0  0  0
  9 11  1  0  0  0  0
 11 12  1  0  0  0  0
 11 28  1  0  0  0  0
 12 13  1  0  0  0  0
 12 29  1  0  0  0  0
 12 30  1  0  0  0  0
 13 14  1  0  0  0  0
 13 31  1  0  0  0  0
 13 32  1  0  0  0  0
 14 15  1  0  0  0  0
 15 19  1  0  0  0  0
 15 16  1  0  0  0  0
 15 33  1  0  0  0  0
 16 17  1  0  0  0  0
 16 34  1  0  0  0  0
 16 35  1  0  0  0  0
 17 18  1  0  0  0  0
 17 36  1  0  0  0  0
 17 37  1  0  0  0  0
 18 19  1  0  0  0  0
 18 38  1  0  0  0  0
 18 39  1  0  0  0  0
 19 40  1  0  0  0  0
 19 41  1  0  0  0  0
M  END
> <s_m_source_file>
AV-unprocessed.smi

> <i_m_source_file_index>
1314

> <i_lp_mmshare_version>
43012

> <i_f3d_flags>
0

> <s_epik_input>
W0NIM11jMW5vYyhbQ0gzXSljMVtDSDJdQyg9TylbTkhdW0NIMl1bQ0gyXVNbQ0hdMltDSDJdW0NIMl1bQ0gyXVtDSDJdMg==

> <s_epik_cmdline>
J2VwaWtfcHl0aG9uJywgJy1waCcsICc3LjAnLCAnLXRuJywgJzgnLCAnLW1hJywgJzIwMCcsICctbWV0YWxfYmluZGluZycsICctaW1hZScsICc8aW5maWxlLm1hZT4nLCAnLW9tYWUnLCAnPG91dGZpbGUubWFlPic=

> <r_lp_tautomer_probability>
1

> <r_epik_Ionization_Penalty>
2.75407e-08

> <r_epik_Ionization_Penalty_Charging>
0

> <r_epik_Ionization_Penalty_Neutral>
2.75407e-08

> <r_epik_State_Penalty>
-0

> <r_epik_Charging_Adjusted_Penalty>
0

> <i_epik_Tot_Q>
0

> <i_epik_Tot_abs_Q>
0

> <r_epik_Metal_State_Penalty>
-0

> <b_epik_Metal_Only>
0

> <s_lp_Force_Field>
OPLS_2005

> <r_lp_Energy>
14.7141

> <b_lp_Chiralities_Consistent>
1

> <s_lp_Variant>
AV-unprocessed.smi:1314-1

> <Gold.Version>
5.8.1

> <Gold.Id.Protein>
6NUR|6NUR_protein|mol2

> <Gold.PLP.Fitness>
38.3579

> <Gold.PLP.PLP>
-35.7782

> <Gold.PLP.part.hbond>
-3.0000

> <Gold.PLP.part.metal>
0.0000

> <Gold.PLP.part.buried>
-5.9411

> <Gold.PLP.part.nonpolar>
-27.8766

> <Gold.PLP.part.repulsive>
0.1498

> <Gold.PLP.ligand.clash>
0.0000

> <Gold.PLP.ligand.torsion>
0.8938

> <Gold.PLP.Chemscore.Hbond>
1.4400

> <Gold.PLP.Chemscore.CHOScore>
0.0000

> <Gold.PLP.Chemscore.Metal>
0.0000

> <Gold.Chemscore.Hbonds>
donor molecule, donor type, donor heavy atom, donor atom, acceptor molecule, acceptor atom, score
      P1  H  6896  6908       L1     4  0.45
      P1  H  7989  7998       L1    10  0.69

> <Gold.PLP.Chemscore.Internal.Correction>
0.0473

> <Gold.Rescore>
     Score         DG    S(hbond)    S(metal)    S(lipo)     H(rot)  DE(clash)    DE(int)     intcor
     16.26     -17.98       1.50        0.00     100.47       1.66       0.00       1.72       ----

> <Gold.Chemscore.Fitness>
16.2571

> <Gold.Chemscore.DG>
-17.9822

> <Gold.Chemscore.ZeroCoef>
-5.4800

> <Gold.Chemscore.Hbond>
1.4998

> <Gold.Chemscore.Metal>
0.0000

> <Gold.Chemscore.Lipo>
100.4691

> <Gold.Chemscore.Internal_Hbond>
0.0000

> <Gold.Chemscore.DEClash>
0.0033

> <Gold.Chemscore.DEInternal>
1.7218

> <Gold.Chemscore.Rot>
1.6648

> <Gold.Chemscore.Internal.Correction>
   9.000000E+99

> <Gold.Chemscore.Hbonds>
donor molecule, donor type, donor heavy atom, donor atom, acceptor molecule, acceptor atom, score
      P1  H  6896  6908       L1     4  0.07
      P1  H  7989  7998       L1    10  0.10

> <Gold.Chemscore.Hbond.Weighted>
-5.0093

> <Gold.Chemscore.Metal.Weighted>
-0.0000

> <Gold.Chemscore.Lipo.Weighted>
-11.7549

> <Gold.Chemscore.Internal_Hbond.Weighted>
0.0000

> <Gold.Chemscore.DEClash.Weighted>
0.0033

> <Gold.Chemscore.DEInternal.Weighted>
1.7218

> <Gold.Chemscore.Rot.Weighted>
4.2619

> <Gold.Chemscore.Internal.Correction.Weighted>
   9.000000E+99

> <Gold.Protein.RotatedTorsions>
[ 6907 6896 6895 6894 ] final  158.54 input  -60.11 | X-H torsion
[ 7974 7965 7964 7962 ] final   69.13 input  175.53 | X-H torsion
[ 8008 7997 7996 7995 ] final   -9.08 input   59.86 | X-H torsion
[ 10167 10162 10161 10158 ] final  143.89 input  -65.29 | X-H torsion
[ 10718 10713 10712 10709 ] final  -68.10 input   66.30 | X-H torsion
[ 10763 10752 10751 10750 ] final  153.14 input  -60.55 | X-H torsion
[ 11005 11000 10999 10996 ] final   61.37 input  -57.11 | X-H torsion

> <Gold.Protein.ActiveResidues>
 VAL166  LYS551  ARG553  GLY616  TRP617  ASP618  TYR619  PRO620  LYS621  CYS622 
 ASP623  PHE694  ASN695  SER759  ASP760  ASP761  ALA762  ILE779  LEU786  VAL792 
 PHE793  MET794  SER795  GLU796  ALA797  LYS798  CYS799  TRP800  GLU811  SER814 

> <Gold.Protein.RotatedAtoms>
  151.9989  133.3818  159.4173 H   0  0  0  0  0  0  0  0  0  0  0  0  # atno 6907 bound_to 6896
  150.6912  134.3856  159.5062 H   0  0  0  0  0  0  0  0  0  0  0  0  # atno 6908 bound_to 6896
  152.1600  134.8919  160.0593 H   0  0  0  0  0  0  0  0  0  0  0  0  # atno 6909 bound_to 6896
  145.7941  139.2949  143.1193 H   0  0  0  0  0  0  0  0  0  0  0  0  # atno 7974 bound_to 7965
  154.5680  140.2364  155.8234 H   0  0  0  0  0  0  0  0  0  0  0  0  # atno 8008 bound_to 7997
  156.2084  140.3033  155.9636 H   0  0  0  0  0  0  0  0  0  0  0  0  # atno 8009 bound_to 7997
  155.2765  140.0420  157.3002 H   0  0  0  0  0  0  0  0  0  0  0  0  # atno 8010 bound_to 7997
  139.4959  144.6010  151.6481 H   0  0  0  0  0  0  0  0  0  0  0  0  # atno 10167 bound_to 10162
  156.0522  130.4289  150.1952 H   0  0  0  0  0  0  0  0  0  0  0  0  # atno 10718 bound_to 10713
  154.1314  135.2826  155.3184 H   0  0  0  0  0  0  0  0  0  0  0  0  # atno 10763 bound_to 10752
  154.6352  135.5421  153.7729 H   0  0  0  0  0  0  0  0  0  0  0  0  # atno 10764 bound_to 10752
  153.0280  135.6472  154.1465 H   0  0  0  0  0  0  0  0  0  0  0  0  # atno 10765 bound_to 10752
  140.0166  134.6215  155.9700 H   0  0  0  0  0  0  0  0  0  0  0  0  # atno 11005 bound_to 11000
  145.9946  140.8573  143.0049 LP  0  0  0  0  0  0  0  0  0  0  0  0  # atno 17320 bound_to 7965
  144.6777  140.2264  143.7360 LP  0  0  0  0  0  0  0  0  0  0  0  0  # atno 17321 bound_to 7965
  140.5659  144.0190  150.6192 LP  0  0  0  0  0  0  0  0  0  0  0  0  # atno 17342 bound_to 10162
  140.3291  143.3088  152.0705 LP  0  0  0  0  0  0  0  0  0  0  0  0  # atno 17343 bound_to 10162
  157.0033  130.9929  151.3385 LP  0  0  0  0  0  0  0  0  0  0  0  0  # atno 17370 bound_to 10713
  157.5460  130.8151  149.8086 LP  0  0  0  0  0  0  0  0  0  0  0  0  # atno 17371 bound_to 10713
  141.1747  133.6539  156.4782 LP  0  0  0  0  0  0  0  0  0  0  0  0  # atno 17394 bound_to 11000
  140.4460  134.6972  157.5016 LP  0  0  0  0  0  0  0  0  0  0  0  0  # atno 17395 bound_to 11000

$$$$
