AV-unprocessed.smi:572|AV-procd|sdf|2965|dock1
  -GOLD-   2262023473D 1   1.00000     0.00000
 Structure written by MMmdl.
 44 46  0  0  0  0  0  0  0  0  1 V2000
  148.8005  141.0448  154.3118 C   0  0  0  0  0  0  0  0  0  0  0  0
  150.1346  140.8684  154.7521 O   0  0  0  0  0  0  0  0  0  0  0  0
  150.5124  141.8108  155.7422 C   0  0  0  0  0  0  0  0  0  0  0  0
  150.1045  141.2964  157.1296 C   0  0  0  0  0  0  0  0  0  0  0  0
  151.0496  141.7032  158.1590 N   0  0  0  0  0  0  0  0  0  0  0  0
  152.0237  140.9558  158.7365 C   0  0  0  0  0  0  0  0  0  0  0  0
  152.2883  139.5673  158.3947 C   0  0  0  0  0  0  0  0  0  0  0  0
  152.1922  139.1454  157.0558 C   0  0  0  0  0  0  0  0  0  0  0  0
  152.4615  137.7996  156.7082 C   0  0  0  0  0  0  0  0  0  0  0  0
  152.4028  137.3154  155.4172 O   0  0  0  0  0  0  0  0  0  0  0  0
  151.9672  138.1941  154.3900 C   0  0  0  0  0  0  0  0  0  0  0  0
  152.8140  136.8893  157.7298 C   0  0  0  0  0  0  0  0  0  0  0  0
  153.0731  135.5883  157.4024 O   0  0  0  0  0  0  0  0  0  0  0  0
  152.9051  137.2976  159.0798 C   0  0  0  0  0  0  0  0  0  0  0  0
  153.2556  136.3423  160.0119 O   0  0  0  0  0  0  0  0  0  0  0  0
  153.4809  136.7591  161.3506 C   0  0  0  0  0  0  0  0  0  0  0  0
  152.6382  138.6501  159.4035 C   0  0  0  0  0  0  0  0  0  0  0  0
  152.7420  141.5848  159.6690 N   0  0  0  0  0  0  0  0  0  0  0  0
  152.1830  142.8471  159.6971 C   0  0  0  0  0  0  0  0  0  0  0  0
  152.5027  143.9783  160.4818 C   0  0  0  0  0  0  0  0  0  0  0  0
  151.7749  145.1773  160.3341 C   0  0  0  0  0  0  0  0  0  0  0  0
  150.7203  145.2626  159.4021 C   0  0  0  0  0  0  0  0  0  0  0  0
  150.3871  144.1474  158.6095 C   0  0  0  0  0  0  0  0  0  0  0  0
  151.1173  142.9539  158.7615 C   0  0  0  0  0  0  0  0  0  0  0  0
  148.5637  140.2968  153.5557 H   0  0  0  0  0  0  0  0  0  0  0  0
  148.6594  142.0308  153.8676 H   0  0  0  0  0  0  0  0  0  0  0  0
  148.0947  140.9260  155.1349 H   0  0  0  0  0  0  0  0  0  0  0  0
  151.5905  141.9741  155.7104 H   0  0  0  0  0  0  0  0  0  0  0  0
  150.0314  142.7703  155.5454 H   0  0  0  0  0  0  0  0  0  0  0  0
  149.1076  141.6551  157.3861 H   0  0  0  0  0  0  0  0  0  0  0  0
  150.0470  140.2074  157.1234 H   0  0  0  0  0  0  0  0  0  0  0  0
  151.9190  139.8772  156.3107 H   0  0  0  0  0  0  0  0  0  0  0  0
  151.9929  137.6706  153.4344 H   0  0  0  0  0  0  0  0  0  0  0  0
  152.6196  139.0644  154.3064 H   0  0  0  0  0  0  0  0  0  0  0  0
  150.9413  138.5251  154.5565 H   0  0  0  0  0  0  0  0  0  0  0  0
  152.5864  134.9768  157.9337 H   0  0  0  0  0  0  0  0  0  0  0  0
  153.7399  135.8921  161.9581 H   0  0  0  0  0  0  0  0  0  0  0  0
  152.5866  137.2092  161.7838 H   0  0  0  0  0  0  0  0  0  0  0  0
  154.3094  137.4655  161.4143 H   0  0  0  0  0  0  0  0  0  0  0  0
  152.6986  139.0100  160.4195 H   0  0  0  0  0  0  0  0  0  0  0  0
  153.3080  143.9227  161.1991 H   0  0  0  0  0  0  0  0  0  0  0  0
  152.0266  146.0357  160.9394 H   0  0  0  0  0  0  0  0  0  0  0  0
  150.1672  146.1845  159.2960 H   0  0  0  0  0  0  0  0  0  0  0  0
  149.5795  144.2077  157.8951 H   0  0  0  0  0  0  0  0  0  0  0  0
  1  2  1  0  0  0  0
  1 25  1  0  0  0  0
  1 26  1  0  0  0  0
  1 27  1  0  0  0  0
  2  3  1  0  0  0  0
  3  4  1  0  0  0  0
  3 28  1  0  0  0  0
  3 29  1  0  0  0  0
  4  5  1  0  0  0  0
  4 30  1  0  0  0  0
  4 31  1  0  0  0  0
  5 24  1  0  0  0  0
  5  6  1  0  0  0  0
  6  7  1  0  0  0  0
  6 18  2  0  0  0  0
  7 17  1  0  0  0  0
  7  8  2  0  0  0  0
  8  9  1  0  0  0  0
  8 32  1  0  0  0  0
  9 10  1  0  0  0  0
  9 12  2  0  0  0  0
 10 11  1  0  0  0  0
 11 33  1  0  0  0  0
 11 34  1  0  0  0  0
 11 35  1  0  0  0  0
 12 13  1  0  0  0  0
 12 14  1  0  0  0  0
 13 36  1  0  0  0  0
 14 15  1  0  0  0  0
 14 17  2  0  0  0  0
 15 16  1  0  0  0  0
 16 37  1  0  0  0  0
 16 38  1  0  0  0  0
 16 39  1  0  0  0  0
 17 40  1  0  0  0  0
 18 19  1  0  0  0  0
 19 24  2  0  0  0  0
 19 20  1  0  0  0  0
 20 21  2  0  0  0  0
 20 41  1  0  0  0  0
 21 22  1  0  0  0  0
 21 42  1  0  0  0  0
 22 23  2  0  0  0  0
 22 43  1  0  0  0  0
 23 24  1  0  0  0  0
 23 44  1  0  0  0  0
M  END
> <s_m_source_file>
AV-unprocessed.smi

> <i_m_source_file_index>
572

> <i_lp_mmshare_version>
43012

> <i_f3d_flags>
0

> <s_epik_input>
W2NIXTFbY0hdW2NIXVtjSF1jKGMxMiluKFtDSDJdW0NIMl1PW0NIM10pYyhuMiktYzNbY0hdYyhPW0NIM10pYyhbT0hdKWMoW2NIXTMpT1tDSDNd

> <s_epik_cmdline>
J2VwaWtfcHl0aG9uJywgJy1waCcsICc3LjAnLCAnLXRuJywgJzgnLCAnLW1hJywgJzIwMCcsICctbWV0YWxfYmluZGluZycsICctaW1hZScsICc8aW5maWxlLm1hZT4nLCAnLW9tYWUnLCAnPG91dGZpbGUubWFlPic=

> <r_lp_tautomer_probability>
1

> <r_epik_Ionization_Penalty>
0.264233

> <r_epik_Ionization_Penalty_Charging>
0

> <r_epik_Ionization_Penalty_Neutral>
0.264233

> <r_epik_State_Penalty>
0.193741

> <r_epik_Charging_Adjusted_Penalty>
0.193741

> <i_epik_Tot_Q>
0

> <i_epik_Tot_abs_Q>
0

> <r_epik_Metal_State_Penalty>
0.000227182

> <b_epik_Metal_Only>
0

> <s_lp_Force_Field>
OPLS_2005

> <r_lp_Energy>
21.3559

> <b_lp_Chiralities_Consistent>
1

> <s_lp_Variant>
AV-unprocessed.smi:572-1

> <Gold.Version>
5.8.1

> <Gold.Id.Protein>
6NUR|6NUR_protein|mol2

> <Gold.PLP.Fitness>
54.3276

> <Gold.PLP.PLP>
-47.2719

> <Gold.PLP.part.hbond>
-3.9697

> <Gold.PLP.part.metal>
0.0000

> <Gold.PLP.part.buried>
-9.0246

> <Gold.PLP.part.nonpolar>
-35.0902

> <Gold.PLP.part.repulsive>
0.1391

> <Gold.PLP.ligand.clash>
0.0508

> <Gold.PLP.ligand.torsion>
1.2541

> <Gold.PLP.Chemscore.Hbond>
2.8073

> <Gold.PLP.Chemscore.CHOScore>
0.0000

> <Gold.PLP.Chemscore.Metal>
0.0000

> <Gold.Chemscore.Hbonds>
donor molecule, donor type, donor heavy atom, donor atom, acceptor molecule, acceptor atom, score
      P1  H  6896  6909       L1    15  1.00
      P1  H  7989  7998       L1     2  0.74
      P1  H 10752 10764       L1    13  0.78

> <Gold.PLP.Chemscore.Internal.Correction>
1.1930

> <Gold.Rescore>
     Score         DG    S(hbond)    S(metal)    S(lipo)     H(rot)  DE(clash)    DE(int)     intcor
     19.64     -22.45       2.31        0.00     127.43       2.21       0.36       2.45       ----

> <Gold.Chemscore.Fitness>
19.6391

> <Gold.Chemscore.DG>
-22.4467

> <Gold.Chemscore.ZeroCoef>
-5.4800

> <Gold.Chemscore.Hbond>
2.3097

> <Gold.Chemscore.Metal>
0.0000

> <Gold.Chemscore.Lipo>
127.4328

> <Gold.Chemscore.Internal_Hbond>
0.0000

> <Gold.Chemscore.DEClash>
0.3576

> <Gold.Chemscore.DEInternal>
2.4500

> <Gold.Chemscore.Rot>
2.2099

> <Gold.Chemscore.Internal.Correction>
   9.000000E+99

> <Gold.Chemscore.Hbonds>
donor molecule, donor type, donor heavy atom, donor atom, acceptor molecule, acceptor atom, score
      P1  H  6896  6909       L1    15  0.50
      P1  H  7989  7998       L1     2  0.32
      P1  H 10752 10764       L1    13  0.67

> <Gold.Chemscore.Hbond.Weighted>
-7.7144

> <Gold.Chemscore.Metal.Weighted>
-0.0000

> <Gold.Chemscore.Lipo.Weighted>
-14.9096

> <Gold.Chemscore.Internal_Hbond.Weighted>
0.0000

> <Gold.Chemscore.DEClash.Weighted>
0.3576

> <Gold.Chemscore.DEInternal.Weighted>
2.4500

> <Gold.Chemscore.Rot.Weighted>
5.6574

> <Gold.Chemscore.Internal.Correction.Weighted>
   9.000000E+99

> <Gold.Protein.RotatedTorsions>
[ 6907 6896 6895 6894 ] final  152.19 input  -60.11 | X-H torsion
[ 7974 7965 7964 7962 ] final   86.50 input  175.53 | X-H torsion
[ 8008 7997 7996 7995 ] final  134.31 input   59.86 | X-H torsion
[ 10167 10162 10161 10158 ] final  160.60 input  -65.29 | X-H torsion
[ 10718 10713 10712 10709 ] final  137.70 input   66.30 | X-H torsion
[ 10763 10752 10751 10750 ] final    2.13 input  -60.55 | X-H torsion
[ 11005 11000 10999 10996 ] final   96.30 input  -57.11 | X-H torsion

> <Gold.Protein.ActiveResidues>
 VAL166  LYS551  ARG553  GLY616  TRP617  ASP618  TYR619  PRO620  LYS621  CYS622 
 ASP623  PHE694  ASN695  SER759  ASP760  ASP761  ALA762  ILE779  LEU786  VAL792 
 PHE793  MET794  SER795  GLU796  ALA797  LYS798  CYS799  TRP800  GLU811  SER814 

> <Gold.Protein.RotatedAtoms>
  152.0902  133.4196  159.4540 H   0  0  0  0  0  0  0  0  0  0  0  0  # atno 6907 bound_to 6896
  150.6862  134.2881  159.4664 H   0  0  0  0  0  0  0  0  0  0  0  0  # atno 6908 bound_to 6896
  152.0731  134.9520  160.0625 H   0  0  0  0  0  0  0  0  0  0  0  0  # atno 6909 bound_to 6896
  145.5714  139.2314  143.2404 H   0  0  0  0  0  0  0  0  0  0  0  0  # atno 7974 bound_to 7965
  156.2998  140.2499  156.3397 H   0  0  0  0  0  0  0  0  0  0  0  0  # atno 8008 bound_to 7997
  154.9067  140.0404  157.1943 H   0  0  0  0  0  0  0  0  0  0  0  0  # atno 8009 bound_to 7997
  154.8446  140.2896  155.5641 H   0  0  0  0  0  0  0  0  0  0  0  0  # atno 8010 bound_to 7997
  139.4841  144.4618  151.8694 H   0  0  0  0  0  0  0  0  0  0  0  0  # atno 10167 bound_to 10162
  157.4333  131.1050  151.0226 H   0  0  0  0  0  0  0  0  0  0  0  0  # atno 10718 bound_to 10713
  153.2994  135.6955  153.7217 H   0  0  0  0  0  0  0  0  0  0  0  0  # atno 10763 bound_to 10752
  153.6137  135.3440  155.2988 H   0  0  0  0  0  0  0  0  0  0  0  0  # atno 10764 bound_to 10752
  154.8546  135.4369  154.2101 H   0  0  0  0  0  0  0  0  0  0  0  0  # atno 10765 bound_to 10752
  139.8782  134.8943  156.4138 H   0  0  0  0  0  0  0  0  0  0  0  0  # atno 11005 bound_to 11000
  146.1781  140.6540  142.9202 LP  0  0  0  0  0  0  0  0  0  0  0  0  # atno 17320 bound_to 7965
  144.7436  140.5008  143.6852 LP  0  0  0  0  0  0  0  0  0  0  0  0  # atno 17321 bound_to 7965
  140.4081  144.2405  150.5890 LP  0  0  0  0  0  0  0  0  0  0  0  0  # atno 17342 bound_to 10162
  140.4993  143.2323  151.8703 LP  0  0  0  0  0  0  0  0  0  0  0  0  # atno 17343 bound_to 10162
  157.1115  130.6023  149.5483 LP  0  0  0  0  0  0  0  0  0  0  0  0  # atno 17370 bound_to 10713
  155.9921  130.4978  150.7326 LP  0  0  0  0  0  0  0  0  0  0  0  0  # atno 17371 bound_to 10713
  140.9182  133.7664  155.9873 LP  0  0  0  0  0  0  0  0  0  0  0  0  # atno 17394 bound_to 11000
  140.8470  134.2999  157.5291 LP  0  0  0  0  0  0  0  0  0  0  0  0  # atno 17395 bound_to 11000

$$$$
