AV-unprocessed.smi:2032|AV-procd|sdf|8253|dock9
  -GOLD-   2272010523D 1   1.00000     0.00000
 Structure written by MMmdl.
 42 43  0  0  0  0  0  0  0  0  3 V2000
  151.9304  138.5968  154.4933 C   0  0  0  0  0  0  0  0  0  0  0  0
  150.5959  139.2260  154.9089 C   0  0  2  0  0  0  0  0  0  0  0  0
  149.4215  138.6919  154.0677 C   0  0  0  0  0  0  0  0  0  0  0  0
  148.1552  139.3872  154.4219 N   0  3  2  0  0  0  0  0  0  0  0  0
  146.9165  138.8932  153.7387 C   0  0  1  0  0  0  0  0  0  0  0  0
  146.8657  139.2129  152.2250 C   0  0  0  0  0  0  0  0  0  0  0  0
  146.7631  137.3673  153.9719 C   0  0  0  0  0  0  0  0  0  0  0  0
  145.7895  136.7492  153.0776 N   0  0  0  0  0  0  0  0  0  0  0  0
  145.7799  135.4615  152.7060 C   0  0  0  0  0  0  0  0  0  0  0  0
  146.6597  134.6985  153.1122 O   0  0  0  0  0  0  0  0  0  0  0  0
  144.7478  135.1384  151.8954 N   0  5  0  0  0  0  0  0  0  0  0  0
  144.7571  133.9723  151.2293 C   0  0  0  0  0  0  0  0  0  0  0  0
  143.6413  133.3377  150.8523 N   0  0  0  0  0  0  0  0  0  0  0  0
  143.8853  132.1397  150.1781 C   0  0  0  0  0  0  0  0  0  0  0  0
  145.2179  131.8514  150.0463 C   0  0  0  0  0  0  0  0  0  0  0  0
  146.2121  133.0831  150.7702 S   0  0  0  0  0  0  0  0  0  0  0  0
  148.3390  140.8550  154.2639 C   0  0  0  0  0  0  0  0  0  0  0  0
  149.5351  141.3685  155.0862 C   0  0  1  0  0  0  0  0  0  0  0  0
  149.2739  141.3933  156.6031 C   0  0  0  0  0  0  0  0  0  0  0  0
  150.7096  140.6355  154.7454 O   0  0  0  0  0  0  0  0  0  0  0  0
  151.9081  137.5134  154.6122 H   0  0  0  0  0  0  0  0  0  0  0  0
  152.7490  138.9802  155.1032 H   0  0  0  0  0  0  0  0  0  0  0  0
  152.1625  138.8144  153.4503 H   0  0  0  0  0  0  0  0  0  0  0  0
  150.4274  138.9912  155.9601 H   0  0  0  0  0  0  0  0  0  0  0  0
  149.6229  138.8196  153.0025 H   0  0  0  0  0  0  0  0  0  0  0  0
  149.3444  137.6225  154.2618 H   0  0  0  0  0  0  0  0  0  0  0  0
  146.0677  139.4089  154.1905 H   0  0  0  0  0  0  0  0  0  0  0  0
  145.9581  138.8244  151.7630 H   0  0  0  0  0  0  0  0  0  0  0  0
  147.7129  138.7764  151.6951 H   0  0  0  0  0  0  0  0  0  0  0  0
  146.8555  140.2861  152.0346 H   0  0  0  0  0  0  0  0  0  0  0  0
  147.7219  136.8736  153.8107 H   0  0  0  0  0  0  0  0  0  0  0  0
  146.4769  137.1362  154.9974 H   0  0  0  0  0  0  0  0  0  0  0  0
  145.0546  137.3410  152.7179 H   0  0  0  0  0  0  0  0  0  0  0  0
  143.0491  131.5534  149.8273 H   0  0  0  0  0  0  0  0  0  0  0  0
  145.6733  130.9949  149.5725 H   0  0  0  0  0  0  0  0  0  0  0  0
  148.5048  141.0779  153.2084 H   0  0  0  0  0  0  0  0  0  0  0  0
  147.4444  141.4036  154.5545 H   0  0  0  0  0  0  0  0  0  0  0  0
  149.7270  142.3984  154.7835 H   0  0  0  0  0  0  0  0  0  0  0  0
  148.4554  142.0727  156.8418 H   0  0  0  0  0  0  0  0  0  0  0  0
  150.1555  141.7382  157.1439 H   0  0  0  0  0  0  0  0  0  0  0  0
  149.0028  140.4129  156.9942 H   0  0  0  0  0  0  0  0  0  0  0  0
  148.0142  139.2126  155.4066 H   0  0  0  0  0  0  0  0  0  0  0  0
  1  2  1  0  0  0  0
  1 21  1  0  0  0  0
  1 22  1  0  0  0  0
  1 23  1  0  0  0  0
  2 20  1  0  0  0  0
  2  3  1  0  0  0  0
  2 24  1  0  0  0  0
  3  4  1  0  0  0  0
  3 25  1  0  0  0  0
  3 26  1  0  0  0  0
  4  5  1  0  0  0  0
  4 17  1  0  0  0  0
  4 42  1  0  0  0  0
  5  6  1  0  0  0  0
  5  7  1  0  0  0  0
  5 27  1  0  0  0  0
  6 28  1  0  0  0  0
  6 29  1  0  0  0  0
  6 30  1  0  0  0  0
  7  8  1  0  0  0  0
  7 31  1  0  0  0  0
  7 32  1  0  0  0  0
  8  9  1  0  0  0  0
  8 33  1  0  0  0  0
  9 10  2  0  0  0  0
  9 11  1  0  0  0  0
 11 12  1  0  0  0  0
 12 16  1  0  0  0  0
 12 13  2  0  0  0  0
 13 14  1  0  0  0  0
 14 15  2  0  0  0  0
 14 34  1  0  0  0  0
 15 16  1  0  0  0  0
 15 35  1  0  0  0  0
 17 18  1  0  0  0  0
 17 36  1  0  0  0  0
 17 37  1  0  0  0  0
 18 19  1  0  0  0  0
 18 20  1  0  0  0  0
 18 38  1  0  0  0  0
 19 39  1  0  0  0  0
 19 40  1  0  0  0  0
 19 41  1  0  0  0  0
M  CHG  1   4   1
M  CHG  1  11  -1
M  END
> <s_m_source_file>
AV-unprocessed.smi

> <i_m_source_file_index>
2032

> <i_lp_mmshare_version>
43012

> <i_f3d_flags>
0

> <s_epik_input>
W0NIM11bQ0BASF0xW0NIMl1OKFtDSDJdW0NASF0oTzEpW0NIM10pW0NASF0oW0NIM10pW0NIMl1bTkhdQyg9TylbTkhdYzJuW2NIXVtjSF1zMg==

> <s_epik_cmdline>
J2VwaWtfcHl0aG9uJywgJy1waCcsICc3LjAnLCAnLXRuJywgJzgnLCAnLW1hJywgJzIwMCcsICctbWV0YWxfYmluZGluZycsICctaW1hZScsICc8aW5maWxlLm1hZT4nLCAnLW9tYWUnLCAnPG91dGZpbGUubWFlPic=

> <r_lp_tautomer_probability>
0.999

> <r_epik_Ionization_Penalty>
6.71699

> <r_epik_Ionization_Penalty_Charging>
5.88592

> <r_epik_Ionization_Penalty_Neutral>
0.831074

> <r_epik_State_Penalty>
6.08365

> <r_epik_Charging_Adjusted_Penalty>
11.9696

> <i_epik_Tot_Q>
0

> <i_epik_Tot_abs_Q>
2

> <r_epik_Metal_State_Penalty>
2.0947

> <b_epik_Metal_Only>
1

> <s_lp_Force_Field>
OPLS_2005

> <r_lp_Energy>
13.0518

> <b_lp_Chiralities_Consistent>
1

> <s_lp_Variant>
AV-unprocessed.smi:2032-23

> <Gold.Version>
5.8.1

> <Gold.Id.Protein>
6NUR|6NUR_protein|mol2

> <Gold.PLP.Fitness>
38.0942

> <Gold.PLP.PLP>
-33.1661

> <Gold.PLP.part.hbond>
-0.8774

> <Gold.PLP.part.metal>
0.0000

> <Gold.PLP.part.buried>
-4.0348

> <Gold.PLP.part.nonpolar>
-29.4828

> <Gold.PLP.part.repulsive>
0.7542

> <Gold.PLP.ligand.clash>
0.0000

> <Gold.PLP.ligand.torsion>
0.5539

> <Gold.PLP.Chemscore.Hbond>
0.9920

> <Gold.PLP.Chemscore.CHOScore>
1.0000

> <Gold.PLP.Chemscore.Metal>
0.0000

> <Gold.Chemscore.Hbonds>
donor molecule, donor type, donor heavy atom, donor atom, acceptor molecule, acceptor atom, score
      P1  H  7989  7998       L1    20  0.96
      L1  C    14    34       P1 10952  0.96

> <Gold.PLP.Chemscore.Internal.Correction>
0.0600

> <Gold.Rescore>
     Score         DG    S(hbond)    S(metal)    S(lipo)     H(rot)  DE(clash)    DE(int)     intcor
     12.83     -14.73       0.89        0.00      88.20       1.58       0.08       1.82       ----

> <Gold.Chemscore.Fitness>
12.8276

> <Gold.Chemscore.DG>
-14.7282

> <Gold.Chemscore.ZeroCoef>
-5.4800

> <Gold.Chemscore.Hbond>
0.8898

> <Gold.Chemscore.Metal>
0.0000

> <Gold.Chemscore.Lipo>
88.1958

> <Gold.Chemscore.Internal_Hbond>
0.0000

> <Gold.Chemscore.DEClash>
0.0808

> <Gold.Chemscore.DEInternal>
1.8198

> <Gold.Chemscore.Rot>
1.5791

> <Gold.Chemscore.Internal.Correction>
   9.000000E+99

> <Gold.Chemscore.Hbonds>
donor molecule, donor type, donor heavy atom, donor atom, acceptor molecule, acceptor atom, score
      P1  H  7989  7998       L1    20  0.54

> <Gold.Chemscore.Hbond.Weighted>
-2.9718

> <Gold.Chemscore.Metal.Weighted>
-0.0000

> <Gold.Chemscore.Lipo.Weighted>
-10.3189

> <Gold.Chemscore.Internal_Hbond.Weighted>
0.0000

> <Gold.Chemscore.DEClash.Weighted>
0.0808

> <Gold.Chemscore.DEInternal.Weighted>
1.8198

> <Gold.Chemscore.Rot.Weighted>
4.0425

> <Gold.Chemscore.Internal.Correction.Weighted>
   9.000000E+99

> <Gold.Protein.RotatedTorsions>
[ 6907 6896 6895 6894 ] final  126.92 input  -60.11 | X-H torsion
[ 7974 7965 7964 7962 ] final  126.81 input  175.53 | X-H torsion
[ 8008 7997 7996 7995 ] final  -51.25 input   59.86 | X-H torsion
[ 10167 10162 10161 10158 ] final   55.78 input  -65.29 | X-H torsion
[ 10718 10713 10712 10709 ] final   39.68 input   66.30 | X-H torsion
[ 10763 10752 10751 10750 ] final  157.16 input  -60.55 | X-H torsion
[ 11005 11000 10999 10996 ] final  150.66 input  -57.11 | X-H torsion

> <Gold.Protein.ActiveResidues>
 VAL166  LYS551  ARG553  GLY616  TRP617  ASP618  TYR619  PRO620  LYS621  CYS622 
 ASP623  PHE694  ASN695  SER759  ASP760  ASP761  ALA762  ILE779  LEU786  VAL792 
 PHE793  MET794  SER795  GLU796  ALA797  LYS798  CYS799  TRP800  GLU811  SER814 

> <Gold.Protein.RotatedAtoms>
  152.3860  133.6612  159.6198 H   0  0  0  0  0  0  0  0  0  0  0  0  # atno 6907 bound_to 6896
  150.7779  133.9034  159.3357 H   0  0  0  0  0  0  0  0  0  0  0  0  # atno 6908 bound_to 6896
  151.6831  135.0960  160.0271 H   0  0  0  0  0  0  0  0  0  0  0  0  # atno 6909 bound_to 6896
  145.0576  139.3831  143.5022 H   0  0  0  0  0  0  0  0  0  0  0  0  # atno 7974 bound_to 7965
  154.4079  140.1252  156.4799 H   0  0  0  0  0  0  0  0  0  0  0  0  # atno 8008 bound_to 7997
  155.7096  140.3494  155.4948 H   0  0  0  0  0  0  0  0  0  0  0  0  # atno 8009 bound_to 7997
  155.9312  140.1070  157.1120 H   0  0  0  0  0  0  0  0  0  0  0  0  # atno 8010 bound_to 7997
  140.2157  144.3841  150.6470 H   0  0  0  0  0  0  0  0  0  0  0  0  # atno 10167 bound_to 10162
  157.3734  130.7714  149.7136 H   0  0  0  0  0  0  0  0  0  0  0  0  # atno 10718 bound_to 10713
  154.1958  135.2792  155.3007 H   0  0  0  0  0  0  0  0  0  0  0  0  # atno 10763 bound_to 10752
  154.5893  135.5565  153.7266 H   0  0  0  0  0  0  0  0  0  0  0  0  # atno 10764 bound_to 10752
  153.0100  135.6364  154.2096 H   0  0  0  0  0  0  0  0  0  0  0  0  # atno 10765 bound_to 10752
  140.1151  134.8900  157.1992 H   0  0  0  0  0  0  0  0  0  0  0  0  # atno 11005 bound_to 11000
  146.3522  140.0258  142.8654 LP  0  0  0  0  0  0  0  0  0  0  0  0  # atno 17320 bound_to 7965
  145.1449  140.9591  143.4467 LP  0  0  0  0  0  0  0  0  0  0  0  0  # atno 17321 bound_to 7965
  140.6291  143.2185  151.6534 LP  0  0  0  0  0  0  0  0  0  0  0  0  # atno 17342 bound_to 10162
  139.5163  144.3352  152.0790 LP  0  0  0  0  0  0  0  0  0  0  0  0  # atno 17343 bound_to 10162
  155.9760  130.4081  150.3808 LP  0  0  0  0  0  0  0  0  0  0  0  0  # atno 17370 bound_to 10713
  157.1902  131.0413  151.2704 LP  0  0  0  0  0  0  0  0  0  0  0  0  # atno 17371 bound_to 10713
  140.3040  134.3100  155.7283 LP  0  0  0  0  0  0  0  0  0  0  0  0  # atno 17394 bound_to 11000
  141.2139  133.7609  156.9681 LP  0  0  0  0  0  0  0  0  0  0  0  0  # atno 17395 bound_to 11000

$$$$
