AV-unprocessed.smi:3174|AV-procd|sdf|12121|dock4
  -GOLD-   2272017563D 1   1.00000     0.00000
 Structure written by MMmdl.
 32 33  0  0  0  0  0  0  0  0  1 V2000
  150.6323  135.5433  155.0019 C   0  0  0  0  0  0  0  0  0  0  0  0
  151.6702  136.4663  155.2791 O   0  0  0  0  0  0  0  0  0  0  0  0
  151.3377  137.7911  154.8985 C   0  0  0  0  0  0  0  0  0  0  0  0
  152.4504  138.7567  155.3387 C   0  0  0  0  0  0  0  0  0  0  0  0
  151.9146  139.9035  156.0810 N   0  0  0  0  0  0  0  0  0  0  0  0
  152.5687  140.1528  157.2764 N   0  0  0  0  0  0  0  0  0  0  0  0
  152.2045  141.1445  158.0237 C   0  0  0  0  0  0  0  0  0  0  0  0
  152.8836  141.4468  159.3145 C   0  0  0  0  0  0  0  0  0  0  0  0
  152.4131  142.2485  160.1236 O   0  0  0  0  0  0  0  0  0  0  0  0
  154.0357  140.7861  159.5249 N   0  0  0  0  0  0  0  0  0  0  0  0
  154.8654  140.9071  160.6795 C   0  0  0  0  0  0  0  0  0  0  0  0
  154.7535  139.8332  161.7400 C   0  0  0  0  0  0  0  0  0  0  0  0
  154.1899  141.2026  162.0011 C   0  0  0  0  0  0  0  0  0  0  0  0
  151.1072  142.0108  157.6269 C   0  0  0  0  0  0  0  0  0  0  0  0
  150.4799  141.7568  156.4577 C   0  0  0  0  0  0  0  0  0  0  0  0
  150.8738  140.6438  155.5923 C   0  0  0  0  0  0  0  0  0  0  0  0
  150.3194  140.3980  154.5216 O   0  0  0  0  0  0  0  0  0  0  0  0
  150.9381  134.5451  155.3148 H   0  0  0  0  0  0  0  0  0  0  0  0
  150.4099  135.5085  153.9347 H   0  0  0  0  0  0  0  0  0  0  0  0
  149.7205  135.8010  155.5421 H   0  0  0  0  0  0  0  0  0  0  0  0
  151.2266  137.8372  153.8143 H   0  0  0  0  0  0  0  0  0  0  0  0
  150.3820  138.0864  155.3347 H   0  0  0  0  0  0  0  0  0  0  0  0
  153.2076  138.2218  155.9142 H   0  0  0  0  0  0  0  0  0  0  0  0
  152.9728  139.1232  154.4535 H   0  0  0  0  0  0  0  0  0  0  0  0
  154.3468  140.1466  158.8077 H   0  0  0  0  0  0  0  0  0  0  0  0
  155.8545  141.3418  160.5420 H   0  0  0  0  0  0  0  0  0  0  0  0
  154.0461  139.0231  161.5719 H   0  0  0  0  0  0  0  0  0  0  0  0
  155.6624  139.5547  162.2692 H   0  0  0  0  0  0  0  0  0  0  0  0
  154.7229  141.8399  162.7038 H   0  0  0  0  0  0  0  0  0  0  0  0
  153.1063  141.3056  162.0090 H   0  0  0  0  0  0  0  0  0  0  0  0
  150.7950  142.8400  158.2452 H   0  0  0  0  0  0  0  0  0  0  0  0
  149.6632  142.3932  156.1502 H   0  0  0  0  0  0  0  0  0  0  0  0
  1  2  1  0  0  0  0
  1 18  1  0  0  0  0
  1 19  1  0  0  0  0
  1 20  1  0  0  0  0
  2  3  1  0  0  0  0
  3  4  1  0  0  0  0
  3 21  1  0  0  0  0
  3 22  1  0  0  0  0
  4  5  1  0  0  0  0
  4 23  1  0  0  0  0
  4 24  1  0  0  0  0
  5 16  1  0  0  0  0
  5  6  1  0  0  0  0
  6  7  2  0  0  0  0
  7  8  1  0  0  0  0
  7 14  1  0  0  0  0
  8  9  2  0  0  0  0
  8 10  1  0  0  0  0
 10 11  1  0  0  0  0
 10 25  1  0  0  0  0
 11 13  1  0  0  0  0
 11 12  1  0  0  0  0
 11 26  1  0  0  0  0
 12 13  1  0  0  0  0
 12 27  1  0  0  0  0
 12 28  1  0  0  0  0
 13 29  1  0  0  0  0
 13 30  1  0  0  0  0
 14 15  2  0  0  0  0
 14 31  1  0  0  0  0
 15 16  1  0  0  0  0
 15 32  1  0  0  0  0
 16 17  2  0  0  0  0
M  END
> <s_m_source_file>
AV-unprocessed.smi

> <i_m_source_file_index>
3174

> <i_lp_mmshare_version>
43012

> <i_f3d_flags>
0

> <s_epik_input>
W0NIM11PW0NIMl1bQ0gyXW4xbmMoW2NIXVtjSF1jMT1PKUMoPU8pW05IXVtDSF0yW0NIMl1bQ0gyXTI=

> <s_epik_cmdline>
J2VwaWtfcHl0aG9uJywgJy1waCcsICc3LjAnLCAnLXRuJywgJzgnLCAnLW1hJywgJzIwMCcsICctbWV0YWxfYmluZGluZycsICctaW1hZScsICc8aW5maWxlLm1hZT4nLCAnLW9tYWUnLCAnPG91dGZpbGUubWFlPic=

> <r_lp_tautomer_probability>
1

> <r_epik_Ionization_Penalty>
5.63485e-07

> <r_epik_Ionization_Penalty_Charging>
6.67133e-09

> <r_epik_Ionization_Penalty_Neutral>
5.56814e-07

> <r_epik_State_Penalty>
-0

> <r_epik_Charging_Adjusted_Penalty>
6.67133e-09

> <i_epik_Tot_Q>
0

> <i_epik_Tot_abs_Q>
0

> <r_epik_Metal_State_Penalty>
-0

> <b_epik_Metal_Only>
0

> <s_lp_Force_Field>
OPLS_2005

> <r_lp_Energy>
37.1062

> <b_lp_Chiralities_Consistent>
1

> <s_lp_Variant>
AV-unprocessed.smi:3174-1

> <Gold.Version>
5.8.1

> <Gold.Id.Protein>
6NUR|6NUR_protein|mol2

> <Gold.PLP.Fitness>
40.7277

> <Gold.PLP.PLP>
-33.9884

> <Gold.PLP.part.hbond>
-3.0000

> <Gold.PLP.part.metal>
0.0000

> <Gold.PLP.part.buried>
-3.6782

> <Gold.PLP.part.nonpolar>
-27.4499

> <Gold.PLP.part.repulsive>
0.2934

> <Gold.PLP.ligand.clash>
0.0000

> <Gold.PLP.ligand.torsion>
0.8432

> <Gold.PLP.Chemscore.Hbond>
2.7800

> <Gold.PLP.Chemscore.CHOScore>
0.0000

> <Gold.PLP.Chemscore.Metal>
0.0000

> <Gold.Chemscore.Hbonds>
donor molecule, donor type, donor heavy atom, donor atom, acceptor molecule, acceptor atom, score
      P1  H  7989  7998       L1    17  0.85
      P1  H  7997  8010       L1     6  0.86
      P1  H 10752 10763       L1     2  0.95

> <Gold.PLP.Chemscore.Internal.Correction>
0.0857

> <Gold.Rescore>
     Score         DG    S(hbond)    S(metal)    S(lipo)     H(rot)  DE(clash)    DE(int)     intcor
     11.43     -15.19       1.93        0.00      64.61       1.68       0.11       3.64       ----

> <Gold.Chemscore.Fitness>
11.4333

> <Gold.Chemscore.DG>
-15.1863

> <Gold.Chemscore.ZeroCoef>
-5.4800

> <Gold.Chemscore.Hbond>
1.9271

> <Gold.Chemscore.Metal>
0.0000

> <Gold.Chemscore.Lipo>
64.6097

> <Gold.Chemscore.Internal_Hbond>
0.0000

> <Gold.Chemscore.DEClash>
0.1111

> <Gold.Chemscore.DEInternal>
3.6419

> <Gold.Chemscore.Rot>
1.6756

> <Gold.Chemscore.Internal.Correction>
   9.000000E+99

> <Gold.Chemscore.Hbonds>
donor molecule, donor type, donor heavy atom, donor atom, acceptor molecule, acceptor atom, score
      P1  H  7989  7998       L1    17  0.14
      P1  H  7997  8010       L1     6  0.48
      P1  H 10752 10763       L1     2  0.22

> <Gold.Chemscore.Hbond.Weighted>
-6.4364

> <Gold.Chemscore.Metal.Weighted>
-0.0000

> <Gold.Chemscore.Lipo.Weighted>
-7.5593

> <Gold.Chemscore.Internal_Hbond.Weighted>
0.0000

> <Gold.Chemscore.DEClash.Weighted>
0.1111

> <Gold.Chemscore.DEInternal.Weighted>
3.6419

> <Gold.Chemscore.Rot.Weighted>
4.2894

> <Gold.Chemscore.Internal.Correction.Weighted>
   9.000000E+99

> <Gold.Protein.RotatedTorsions>
[ 6907 6896 6895 6894 ] final  -89.23 input  -60.11 | X-H torsion
[ 7974 7965 7964 7962 ] final   94.54 input  175.53 | X-H torsion
[ 8008 7997 7996 7995 ] final   40.40 input   59.86 | X-H torsion
[ 10167 10162 10161 10158 ] final   31.94 input  -65.29 | X-H torsion
[ 10718 10713 10712 10709 ] final   89.67 input   66.30 | X-H torsion
[ 10763 10752 10751 10750 ] final   71.62 input  -60.55 | X-H torsion
[ 11005 11000 10999 10996 ] final   61.22 input  -57.11 | X-H torsion

> <Gold.Protein.ActiveResidues>
 VAL166  LYS551  ARG553  GLY616  TRP617  ASP618  TYR619  PRO620  LYS621  CYS622 
 ASP623  PHE694  ASN695  SER759  ASP760  ASP761  ALA762  ILE779  LEU786  VAL792 
 PHE793  MET794  SER795  GLU796  ALA797  LYS798  CYS799  TRP800  GLU811  SER814 

> <Gold.Protein.RotatedAtoms>
  150.6872  134.2619  159.4552 H   0  0  0  0  0  0  0  0  0  0  0  0  # atno 6907 bound_to 6896
  152.0548  134.9628  160.0584 H   0  0  0  0  0  0  0  0  0  0  0  0  # atno 6908 bound_to 6896
  152.1078  133.4249  159.4654 H   0  0  0  0  0  0  0  0  0  0  0  0  # atno 6909 bound_to 6896
  145.4642  139.2285  143.2971 H   0  0  0  0  0  0  0  0  0  0  0  0  # atno 7974 bound_to 7965
  155.2525  140.3353  155.4281 H   0  0  0  0  0  0  0  0  0  0  0  0  # atno 8008 bound_to 7997
  156.2210  140.1809  156.7521 H   0  0  0  0  0  0  0  0  0  0  0  0  # atno 8009 bound_to 7997
  154.5825  140.0651  156.9109 H   0  0  0  0  0  0  0  0  0  0  0  0  # atno 8010 bound_to 7997
  140.4543  144.1002  150.6198 H   0  0  0  0  0  0  0  0  0  0  0  0  # atno 10167 bound_to 10162
  157.6956  131.0342  150.3462 H   0  0  0  0  0  0  0  0  0  0  0  0  # atno 10718 bound_to 10713
  153.0410  135.5130  154.7620 H   0  0  0  0  0  0  0  0  0  0  0  0  # atno 10763 bound_to 10752
  154.6558  135.2931  154.9931 H   0  0  0  0  0  0  0  0  0  0  0  0  # atno 10764 bound_to 10752
  154.0799  135.6665  153.4889 H   0  0  0  0  0  0  0  0  0  0  0  0  # atno 10765 bound_to 10752
  140.0176  134.6201  155.9686 H   0  0  0  0  0  0  0  0  0  0  0  0  # atno 11005 bound_to 11000
  146.2434  140.5414  142.8924 LP  0  0  0  0  0  0  0  0  0  0  0  0  # atno 17320 bound_to 7965
  144.7984  140.6167  143.6494 LP  0  0  0  0  0  0  0  0  0  0  0  0  # atno 17321 bound_to 7965
  140.4170  143.2629  151.9763 LP  0  0  0  0  0  0  0  0  0  0  0  0  # atno 17342 bound_to 10162
  139.4799  144.5865  151.7845 LP  0  0  0  0  0  0  0  0  0  0  0  0  # atno 17343 bound_to 10162
  156.3916  130.3899  149.7025 LP  0  0  0  0  0  0  0  0  0  0  0  0  # atno 17370 bound_to 10713
  156.4373  130.7844  151.2865 LP  0  0  0  0  0  0  0  0  0  0  0  0  # atno 17371 bound_to 10713
  141.1753  133.6540  156.4806 LP  0  0  0  0  0  0  0  0  0  0  0  0  # atno 17394 bound_to 11000
  140.4443  134.6987  157.5007 LP  0  0  0  0  0  0  0  0  0  0  0  0  # atno 17395 bound_to 11000

$$$$
