AV-unprocessed.smi:2987|AV-procd|sdf|11385|dock7
  -GOLD-   2272016313D 1   1.00000     0.00000
 Structure written by MMmdl.
 25 26  0  0  0  0  0  0  0  0  1 V2000
  150.8092  145.5561  160.0039 C   0  0  0  0  0  0  0  0  0  0  0  0
  151.6918  144.4071  160.3755 C   0  0  0  0  0  0  0  0  0  0  0  0
  152.0374  144.1522  161.6377 N   0  0  0  0  0  0  0  0  0  0  0  0
  152.8397  143.0341  161.5115 C   0  0  0  0  0  0  0  0  0  0  0  0
  153.5211  142.2765  162.4909 C   0  0  0  0  0  0  0  0  0  0  0  0
  154.2953  141.1582  162.1174 C   0  0  0  0  0  0  0  0  0  0  0  0
  154.3999  140.7824  160.7624 C   0  0  0  0  0  0  0  0  0  0  0  0
  153.7288  141.5230  159.7705 C   0  0  0  0  0  0  0  0  0  0  0  0
  152.9566  142.6374  160.1489 C   0  0  0  0  0  0  0  0  0  0  0  0
  152.1906  143.5592  159.4432 N   0  0  0  0  0  0  0  0  0  0  0  0
  151.9904  143.5905  158.0037 C   0  0  0  0  0  0  0  0  0  0  0  0
  151.2710  142.3282  157.5091 C   0  0  0  0  0  0  0  0  0  0  0  0
  150.6223  142.5977  156.2859 O   0  0  0  0  0  0  0  0  0  0  0  0
  150.5991  146.1751  160.8768 H   0  0  0  0  0  0  0  0  0  0  0  0
  149.8624  145.1894  159.6065 H   0  0  0  0  0  0  0  0  0  0  0  0
  151.2920  146.1785  159.2503 H   0  0  0  0  0  0  0  0  0  0  0  0
  153.4486  142.5570  163.5312 H   0  0  0  0  0  0  0  0  0  0  0  0
  154.8113  140.5860  162.8744 H   0  0  0  0  0  0  0  0  0  0  0  0
  154.9955  139.9251  160.4851 H   0  0  0  0  0  0  0  0  0  0  0  0
  153.8068  141.2381  158.7320 H   0  0  0  0  0  0  0  0  0  0  0  0
  151.4080  144.4789  157.7560 H   0  0  0  0  0  0  0  0  0  0  0  0
  152.9539  143.7067  157.5069 H   0  0  0  0  0  0  0  0  0  0  0  0
  151.9773  141.5100  157.3645 H   0  0  0  0  0  0  0  0  0  0  0  0
  150.5309  141.9960  158.2378 H   0  0  0  0  0  0  0  0  0  0  0  0
  150.2153  143.4489  156.3429 H   0  0  0  0  0  0  0  0  0  0  0  0
  1  2  1  0  0  0  0
  1 14  1  0  0  0  0
  1 15  1  0  0  0  0
  1 16  1  0  0  0  0
  2 10  1  0  0  0  0
  2  3  2  0  0  0  0
  3  4  1  0  0  0  0
  4  9  2  0  0  0  0
  4  5  1  0  0  0  0
  5  6  2  0  0  0  0
  5 17  1  0  0  0  0
  6  7  1  0  0  0  0
  6 18  1  0  0  0  0
  7  8  2  0  0  0  0
  7 19  1  0  0  0  0
  8  9  1  0  0  0  0
  8 20  1  0  0  0  0
  9 10  1  0  0  0  0
 10 11  1  0  0  0  0
 11 12  1  0  0  0  0
 11 21  1  0  0  0  0
 11 22  1  0  0  0  0
 12 13  1  0  0  0  0
 12 23  1  0  0  0  0
 12 24  1  0  0  0  0
 13 25  1  0  0  0  0
M  END
> <s_m_source_file>
AV-unprocessed.smi

> <i_m_source_file_index>
2987

> <i_lp_mmshare_version>
43012

> <i_f3d_flags>
0

> <s_epik_input>
W09IXVtDSDJdW0NIMl1uKGMobjEpW0NIM10pYyhjMTIpW2NIXVtjSF1bY0hdW2NIXTI=

> <s_epik_cmdline>
J2VwaWtfcHl0aG9uJywgJy1waCcsICc3LjAnLCAnLXRuJywgJzgnLCAnLW1hJywgJzIwMCcsICctbWV0YWxfYmluZGluZycsICctaW1hZScsICc8aW5maWxlLm1hZT4nLCAnLW9tYWUnLCAnPG91dGZpbGUubWFlPic=

> <r_epik_Ionization_Penalty>
0.129663

> <r_epik_Ionization_Penalty_Charging>
0

> <r_epik_Ionization_Penalty_Neutral>
0.129663

> <r_epik_State_Penalty>
0.119073

> <r_epik_Charging_Adjusted_Penalty>
0.119073

> <i_epik_Tot_Q>
0

> <i_epik_Tot_abs_Q>
0

> <r_epik_Metal_State_Penalty>
0.000131867

> <b_epik_Metal_Only>
0

> <s_lp_Force_Field>
OPLS_2005

> <r_lp_Energy>
7.88102

> <b_lp_Chiralities_Consistent>
1

> <s_lp_Variant>
AV-unprocessed.smi:2987-1

> <Gold.Version>
5.8.1

> <Gold.Id.Protein>
6NUR|6NUR_protein|mol2

> <Gold.PLP.Fitness>
41.4547

> <Gold.PLP.PLP>
-38.7459

> <Gold.PLP.part.hbond>
-1.0000

> <Gold.PLP.part.metal>
0.0000

> <Gold.PLP.part.buried>
-3.0973

> <Gold.PLP.part.nonpolar>
-33.9816

> <Gold.PLP.part.repulsive>
0.1785

> <Gold.PLP.ligand.clash>
0.0000

> <Gold.PLP.ligand.torsion>
0.1336

> <Gold.PLP.Chemscore.Hbond>
0.9920

> <Gold.PLP.Chemscore.CHOScore>
0.0000

> <Gold.PLP.Chemscore.Metal>
0.0000

> <Gold.Chemscore.Hbonds>
donor molecule, donor type, donor heavy atom, donor atom, acceptor molecule, acceptor atom, score
      L1  H    13    25       P1  8028  0.99

> <Gold.PLP.Chemscore.Internal.Correction>
0.0001

> <Gold.Rescore>
     Score         DG    S(hbond)    S(metal)    S(lipo)     H(rot)  DE(clash)    DE(int)     intcor
     11.19     -11.35       0.00        0.00      87.39       1.70       0.01       0.14       ----

> <Gold.Chemscore.Fitness>
11.1931

> <Gold.Chemscore.DG>
-11.3470

> <Gold.Chemscore.ZeroCoef>
-5.4800

> <Gold.Chemscore.Hbond>
0.0000

> <Gold.Chemscore.Metal>
0.0000

> <Gold.Chemscore.Lipo>
87.3922

> <Gold.Chemscore.Internal_Hbond>
0.0000

> <Gold.Chemscore.DEClash>
0.0124

> <Gold.Chemscore.DEInternal>
0.1415

> <Gold.Chemscore.Rot>
1.7023

> <Gold.Chemscore.Internal.Correction>
   9.000000E+99

> <Gold.Chemscore.Hbonds>
donor molecule, donor type, donor heavy atom, donor atom, acceptor molecule, acceptor atom, score
      L1  H    13    25       P1  8028  0.92

> <Gold.Chemscore.Hbond.Weighted>
-0.0000

> <Gold.Chemscore.Metal.Weighted>
-0.0000

> <Gold.Chemscore.Lipo.Weighted>
-10.2249

> <Gold.Chemscore.Internal_Hbond.Weighted>
0.0000

> <Gold.Chemscore.DEClash.Weighted>
0.0124

> <Gold.Chemscore.DEInternal.Weighted>
0.1415

> <Gold.Chemscore.Rot.Weighted>
4.3579

> <Gold.Chemscore.Internal.Correction.Weighted>
   9.000000E+99

> <Gold.Protein.RotatedTorsions>
[ 6907 6896 6895 6894 ] final  -80.24 input  -60.11 | X-H torsion
[ 7974 7965 7964 7962 ] final   49.46 input  175.53 | X-H torsion
[ 8008 7997 7996 7995 ] final  -41.98 input   59.86 | X-H torsion
[ 10167 10162 10161 10158 ] final  163.24 input  -65.29 | X-H torsion
[ 10718 10713 10712 10709 ] final  -10.46 input   66.30 | X-H torsion
[ 10763 10752 10751 10750 ] final  169.55 input  -60.55 | X-H torsion
[ 11005 11000 10999 10996 ] final   95.03 input  -57.11 | X-H torsion

> <Gold.Protein.ActiveResidues>
 VAL166  LYS551  ARG553  GLY616  TRP617  ASP618  TYR619  PRO620  LYS621  CYS622 
 ASP623  PHE694  ASN695  SER759  ASP760  ASP761  ALA762  ILE779  LEU786  VAL792 
 PHE793  MET794  SER795  GLU796  ALA797  LYS798  CYS799  TRP800  GLU811  SER814 

> <Gold.Protein.RotatedAtoms>
  150.6933  134.4000  159.5114 H   0  0  0  0  0  0  0  0  0  0  0  0  # atno 6907 bound_to 6896
  152.1775  134.8779  160.0538 H   0  0  0  0  0  0  0  0  0  0  0  0  # atno 6908 bound_to 6896
  151.9782  133.3714  159.4134 H   0  0  0  0  0  0  0  0  0  0  0  0  # atno 6909 bound_to 6896
  146.0107  139.4540  142.9958 H   0  0  0  0  0  0  0  0  0  0  0  0  # atno 7974 bound_to 7965
  154.4001  140.1485  156.3281 H   0  0  0  0  0  0  0  0  0  0  0  0  # atno 8008 bound_to 7997
  155.8469  140.3459  155.5646 H   0  0  0  0  0  0  0  0  0  0  0  0  # atno 8009 bound_to 7997
  155.8027  140.0872  157.1939 H   0  0  0  0  0  0  0  0  0  0  0  0  # atno 8010 bound_to 7997
  139.4871  144.4357  151.9015 H   0  0  0  0  0  0  0  0  0  0  0  0  # atno 10167 bound_to 10162
  156.6732  130.5015  149.5994 H   0  0  0  0  0  0  0  0  0  0  0  0  # atno 10718 bound_to 10713
  154.3848  135.2753  155.2190 H   0  0  0  0  0  0  0  0  0  0  0  0  # atno 10763 bound_to 10752
  154.4281  135.5984  153.6055 H   0  0  0  0  0  0  0  0  0  0  0  0  # atno 10764 bound_to 10752
  152.9833  135.5989  154.4096 H   0  0  0  0  0  0  0  0  0  0  0  0  # atno 10765 bound_to 10752
  139.8793  134.8877  156.3951 H   0  0  0  0  0  0  0  0  0  0  0  0  # atno 11005 bound_to 11000
  145.7347  141.0030  143.1333 LP  0  0  0  0  0  0  0  0  0  0  0  0  # atno 17320 bound_to 7965
  144.6952  139.9026  143.7459 LP  0  0  0  0  0  0  0  0  0  0  0  0  # atno 17321 bound_to 7965
  140.3807  144.2740  150.5909 LP  0  0  0  0  0  0  0  0  0  0  0  0  # atno 17342 bound_to 10162
  140.5236  143.2260  151.8350 LP  0  0  0  0  0  0  0  0  0  0  0  0  # atno 17343 bound_to 10162
  156.1923  130.6568  151.1075 LP  0  0  0  0  0  0  0  0  0  0  0  0  # atno 17370 bound_to 10713
  157.7070  131.0752  150.6633 LP  0  0  0  0  0  0  0  0  0  0  0  0  # atno 17371 bound_to 10713
  140.9306  133.7582  156.0020 LP  0  0  0  0  0  0  0  0  0  0  0  0  # atno 17394 bound_to 11000
  140.8335  134.3150  157.5340 LP  0  0  0  0  0  0  0  0  0  0  0  0  # atno 17395 bound_to 11000

$$$$
