AV-unprocessed.smi:1607|AV-procd|sdf|6466|dock8
  -GOLD-   22720 7123D 1   1.00000     0.00000
 Structure written by MMmdl.
 39 40  0  0  0  0  0  0  0  0  2 V2000
  145.9192  132.2027  149.9667 C   0  0  0  0  0  0  0  0  0  0  0  0
  145.9719  133.5772  150.6489 C   0  0  1  0  0  0  0  0  0  0  0  0
  144.5879  134.2474  150.6678 C   0  0  0  0  0  0  0  0  0  0  0  0
  144.6654  135.6050  151.3769 C   0  0  0  0  0  0  0  0  0  0  0  0
  145.2610  135.4563  152.7855 C   0  0  0  0  0  0  0  0  0  0  0  0
  146.5982  134.8101  152.7377 N   0  3  1  0  0  0  0  0  0  0  0  0
  147.2510  134.7773  154.0712 C   0  0  0  0  0  0  0  0  0  0  0  0
  147.0970  136.1033  154.8343 C   0  0  0  0  0  0  0  0  0  0  0  0
  147.9198  137.1400  154.2266 N   0  0  0  0  0  0  0  0  0  0  0  0
  148.5046  138.1380  154.9072 C   0  0  0  0  0  0  0  0  0  0  0  0
  148.3789  138.2875  156.1219 O   0  0  0  0  0  0  0  0  0  0  0  0
  149.3538  139.1243  154.1006 C   0  0  0  0  0  0  0  0  0  0  0  0
  150.7710  138.9649  154.3738 N   0  0  0  0  0  0  0  0  0  0  0  0
  151.5832  137.9192  154.2074 C   0  0  0  0  0  0  0  0  0  0  0  0
  152.8190  138.1925  154.5964 N   0  0  0  0  0  0  0  0  0  0  0  0
  152.7315  139.5076  155.0210 N   0  0  0  0  0  0  0  0  0  0  0  0
  151.5194  139.9723  154.8893 N   0  0  0  0  0  0  0  0  0  0  0  0
  146.5367  133.4763  152.0804 C   0  0  0  0  0  0  0  0  0  0  0  0
  145.2625  131.5173  150.5038 H   0  0  0  0  0  0  0  0  0  0  0  0
  146.9091  131.7481  149.9208 H   0  0  0  0  0  0  0  0  0  0  0  0
  145.5483  132.2858  148.9446 H   0  0  0  0  0  0  0  0  0  0  0  0
  146.6446  134.2073  150.0649 H   0  0  0  0  0  0  0  0  0  0  0  0
  144.2173  134.3810  149.6508 H   0  0  0  0  0  0  0  0  0  0  0  0
  143.8696  133.6060  151.1805 H   0  0  0  0  0  0  0  0  0  0  0  0
  145.2769  136.2918  150.7901 H   0  0  0  0  0  0  0  0  0  0  0  0
  143.6718  136.0502  151.4374 H   0  0  0  0  0  0  0  0  0  0  0  0
  145.3429  136.4438  153.2416 H   0  0  0  0  0  0  0  0  0  0  0  0
  144.5934  134.8686  153.4177 H   0  0  0  0  0  0  0  0  0  0  0  0
  146.7943  133.9901  154.6736 H   0  0  0  0  0  0  0  0  0  0  0  0
  148.3033  134.5096  153.9619 H   0  0  0  0  0  0  0  0  0  0  0  0
  146.0623  136.4455  154.8315 H   0  0  0  0  0  0  0  0  0  0  0  0
  147.3890  135.9645  155.8767 H   0  0  0  0  0  0  0  0  0  0  0  0
  148.0656  137.0903  153.2284 H   0  0  0  0  0  0  0  0  0  0  0  0
  149.1781  138.9721  153.0349 H   0  0  0  0  0  0  0  0  0  0  0  0
  149.0634  140.1501  154.3327 H   0  0  0  0  0  0  0  0  0  0  0  0
  151.2711  136.9647  153.8101 H   0  0  0  0  0  0  0  0  0  0  0  0
  145.9229  132.8035  152.6819 H   0  0  0  0  0  0  0  0  0  0  0  0
  147.5317  133.0352  152.0347 H   0  0  0  0  0  0  0  0  0  0  0  0
  147.1728  135.4004  152.1532 H   0  0  0  0  0  0  0  0  0  0  0  0
  1  2  1  0  0  0  0
  1 19  1  0  0  0  0
  1 20  1  0  0  0  0
  1 21  1  0  0  0  0
  2 18  1  0  0  0  0
  2  3  1  0  0  0  0
  2 22  1  0  0  0  0
  3  4  1  0  0  0  0
  3 23  1  0  0  0  0
  3 24  1  0  0  0  0
  4  5  1  0  0  0  0
  4 25  1  0  0  0  0
  4 26  1  0  0  0  0
  5  6  1  0  0  0  0
  5 27  1  0  0  0  0
  5 28  1  0  0  0  0
  6  7  1  0  0  0  0
  6 18  1  0  0  0  0
  6 39  1  0  0  0  0
  7  8  1  0  0  0  0
  7 29  1  0  0  0  0
  7 30  1  0  0  0  0
  8  9  1  0  0  0  0
  8 31  1  0  0  0  0
  8 32  1  0  0  0  0
  9 10  1  0  0  0  0
  9 33  1  0  0  0  0
 10 11  2  0  0  0  0
 10 12  1  0  0  0  0
 12 13  1  0  0  0  0
 12 34  1  0  0  0  0
 12 35  1  0  0  0  0
 13 17  1  0  0  0  0
 13 14  1  0  0  0  0
 14 15  2  0  0  0  0
 14 36  1  0  0  0  0
 15 16  1  0  0  0  0
 16 17  2  0  0  0  0
 18 37  1  0  0  0  0
 18 38  1  0  0  0  0
M  CHG  1   6   1
M  END
> <s_m_source_file>
AV-unprocessed.smi

> <i_m_source_file_index>
1607

> <i_lp_mmshare_version>
43012

> <i_f3d_flags>
0

> <s_epik_input>
W0NIM11bQ0BASF0xW0NIMl1bQ0gyXVtDSDJdTihbQ0gyXTEpW0NIMl1bQ0gyXVtOSF1DKD1PKVtDSDJdbjJbY0hdbm5uMg==

> <s_epik_cmdline>
J2VwaWtfcHl0aG9uJywgJy1waCcsICc3LjAnLCAnLXRuJywgJzgnLCAnLW1hJywgJzIwMCcsICctbWV0YWxfYmluZGluZycsICctaW1hZScsICc8aW5maWxlLm1hZT4nLCAnLW9tYWUnLCAnPG91dGZpbGUubWFlPic=

> <r_lp_tautomer_probability>
1

> <r_epik_Ionization_Penalty>
0.00268321

> <r_epik_Ionization_Penalty_Charging>
0.00267875

> <r_epik_Ionization_Penalty_Neutral>
4.46125e-06

> <r_epik_State_Penalty>
0.00186642

> <r_epik_Charging_Adjusted_Penalty>
0.00454517

> <i_epik_Tot_Q>
1

> <i_epik_Tot_abs_Q>
1

> <r_epik_Metal_State_Penalty>
-0

> <b_epik_Metal_Only>
0

> <s_lp_Force_Field>
OPLS_2005

> <r_lp_Energy>
19.4205

> <b_lp_Chiralities_Consistent>
1

> <s_lp_Variant>
AV-unprocessed.smi:1607-4

> <Gold.Version>
5.8.1

> <Gold.Id.Protein>
6NUR|6NUR_protein|mol2

> <Gold.PLP.Fitness>
47.2951

> <Gold.PLP.PLP>
-30.5593

> <Gold.PLP.part.hbond>
-5.5933

> <Gold.PLP.part.metal>
0.0000

> <Gold.PLP.part.buried>
-4.5340

> <Gold.PLP.part.nonpolar>
-21.3728

> <Gold.PLP.part.repulsive>
0.1077

> <Gold.PLP.ligand.clash>
0.0000

> <Gold.PLP.ligand.torsion>
0.4223

> <Gold.PLP.Chemscore.Hbond>
4.8440

> <Gold.PLP.Chemscore.CHOScore>
1.0000

> <Gold.PLP.Chemscore.Metal>
0.0000

> <Gold.Chemscore.Hbonds>
donor molecule, donor type, donor heavy atom, donor atom, acceptor molecule, acceptor atom, score
      L1  H     6    39       P1  7948  1.92
      L1  H     9    33       P1  7948  0.91
      P1  H  7989  7998       L1    17  0.85
      P1  H  7997  8009       L1    16  0.96
      L1  C    14    36       P1  7949  1.00

> <Gold.PLP.Chemscore.Internal.Correction>
0.0484

> <Gold.Rescore>
     Score         DG    S(hbond)    S(metal)    S(lipo)     H(rot)  DE(clash)    DE(int)     intcor
     14.13     -14.58       3.05        0.00      49.49       2.69       0.05       0.40       ----

> <Gold.Chemscore.Fitness>
14.1271

> <Gold.Chemscore.DG>
-14.5764

> <Gold.Chemscore.ZeroCoef>
-5.4800

> <Gold.Chemscore.Hbond>
3.0542

> <Gold.Chemscore.Metal>
0.0000

> <Gold.Chemscore.Lipo>
49.4859

> <Gold.Chemscore.Internal_Hbond>
0.0000

> <Gold.Chemscore.DEClash>
0.0495

> <Gold.Chemscore.DEInternal>
0.3998

> <Gold.Chemscore.Rot>
2.6932

> <Gold.Chemscore.Internal.Correction>
   9.000000E+99

> <Gold.Chemscore.Hbonds>
donor molecule, donor type, donor heavy atom, donor atom, acceptor molecule, acceptor atom, score
      L1  H     6    39       P1  7948  0.91
      L1  H     9    33       P1  7948  0.90
      P1  H  7989  7998       L1    17  0.04
      P1  H  7997  8009       L1    16  0.79

> <Gold.Chemscore.Hbond.Weighted>
-10.2011

> <Gold.Chemscore.Metal.Weighted>
-0.0000

> <Gold.Chemscore.Lipo.Weighted>
-5.7898

> <Gold.Chemscore.Internal_Hbond.Weighted>
0.0000

> <Gold.Chemscore.DEClash.Weighted>
0.0495

> <Gold.Chemscore.DEInternal.Weighted>
0.3998

> <Gold.Chemscore.Rot.Weighted>
6.8945

> <Gold.Chemscore.Internal.Correction.Weighted>
   9.000000E+99

> <Gold.Protein.RotatedTorsions>
[ 6907 6896 6895 6894 ] final   55.23 input  -60.11 | X-H torsion
[ 7974 7965 7964 7962 ] final  134.12 input  175.53 | X-H torsion
[ 8008 7997 7996 7995 ] final -145.05 input   59.86 | X-H torsion
[ 10167 10162 10161 10158 ] final   54.12 input  -65.29 | X-H torsion
[ 10718 10713 10712 10709 ] final  -45.79 input   66.30 | X-H torsion
[ 10763 10752 10751 10750 ] final   44.01 input  -60.55 | X-H torsion
[ 11005 11000 10999 10996 ] final   44.42 input  -57.11 | X-H torsion

> <Gold.Protein.ActiveResidues>
 VAL166  LYS551  ARG553  GLY616  TRP617  ASP618  TYR619  PRO620  LYS621  CYS622 
 ASP623  PHE694  ASN695  SER759  ASP760  ASP761  ALA762  ILE779  LEU786  VAL792 
 PHE793  MET794  SER795  GLU796  ALA797  LYS798  CYS799  TRP800  GLU811  SER814 

> <Gold.Protein.RotatedAtoms>
  152.3518  134.6995  160.0233 H   0  0  0  0  0  0  0  0  0  0  0  0  # atno 6907 bound_to 6896
  151.7346  133.3314  159.3357 H   0  0  0  0  0  0  0  0  0  0  0  0  # atno 6908 bound_to 6896
  150.7545  134.6266  159.6208 H   0  0  0  0  0  0  0  0  0  0  0  0  # atno 6909 bound_to 6896
  144.9796  139.4519  143.5393 H   0  0  0  0  0  0  0  0  0  0  0  0  # atno 7974 bound_to 7965
  155.5368  140.0604  157.2878 H   0  0  0  0  0  0  0  0  0  0  0  0  # atno 8008 bound_to 7997
  154.4465  140.1926  156.0595 H   0  0  0  0  0  0  0  0  0  0  0  0  # atno 8009 bound_to 7997
  156.0613  140.3272  155.7469 H   0  0  0  0  0  0  0  0  0  0  0  0  # atno 8010 bound_to 7997
  140.2335  144.3661  150.6405 H   0  0  0  0  0  0  0  0  0  0  0  0  # atno 10167 bound_to 10162
  156.2248  130.4168  149.8947 H   0  0  0  0  0  0  0  0  0  0  0  0  # atno 10718 bound_to 10713
  152.9849  135.6084  154.3204 H   0  0  0  0  0  0  0  0  0  0  0  0  # atno 10763 bound_to 10752
  154.2914  135.2774  155.2654 H   0  0  0  0  0  0  0  0  0  0  0  0  # atno 10764 bound_to 10752
  154.4948  135.5882  153.6543 H   0  0  0  0  0  0  0  0  0  0  0  0  # atno 10765 bound_to 10752
  140.1553  134.4409  155.8353 H   0  0  0  0  0  0  0  0  0  0  0  0  # atno 11005 bound_to 11000
  146.3404  139.9060  142.8787 LP  0  0  0  0  0  0  0  0  0  0  0  0  # atno 17320 bound_to 7965
  145.2440  141.0020  143.3919 LP  0  0  0  0  0  0  0  0  0  0  0  0  # atno 17321 bound_to 7965
  140.6167  143.2173  151.6777 LP  0  0  0  0  0  0  0  0  0  0  0  0  # atno 17342 bound_to 10162
  139.5101  144.3552  152.0614 LP  0  0  0  0  0  0  0  0  0  0  0  0  # atno 17343 bound_to 10162
  156.6582  130.8771  151.3543 LP  0  0  0  0  0  0  0  0  0  0  0  0  # atno 17370 bound_to 10713
  157.7105  130.9435  150.1074 LP  0  0  0  0  0  0  0  0  0  0  0  0  # atno 17371 bound_to 10713
  141.2204  133.6890  156.7496 LP  0  0  0  0  0  0  0  0  0  0  0  0  # atno 17394 bound_to 11000
  140.2555  134.8508  157.3708 LP  0  0  0  0  0  0  0  0  0  0  0  0  # atno 17395 bound_to 11000

$$$$
