AV-unprocessed.smi:1207|AV-procd|sdf|5050|dock2
  -GOLD-   22720 4 73D 1   1.00000     0.00000
 Structure written by MMmdl.
 51 53  0  0  0  0  0  0  0  0  1 V2000
  153.3893  142.7371  161.8300 C   0  0  0  0  0  0  0  0  0  0  0  0
  152.8128  142.3398  160.4826 C   0  0  0  0  0  0  0  0  0  0  0  0
  153.2219  141.1231  159.8917 C   0  0  0  0  0  0  0  0  0  0  0  0
  152.7084  140.7168  158.6405 C   0  0  0  0  0  0  0  0  0  0  0  0
  152.9645  139.5818  157.8901 N   0  0  0  0  0  0  0  0  0  0  0  0
  152.1856  139.7804  156.8307 C   0  0  0  0  0  0  0  0  0  0  0  0
  151.4548  140.9113  156.8052 N   0  0  0  0  0  0  0  0  0  0  0  0
  150.5413  141.3345  155.7582 C   0  0  0  0  0  0  0  0  0  0  0  0
  149.0818  141.4224  156.2467 C   0  0  1  0  0  0  0  0  0  0  0  0
  148.3242  142.1234  155.2784 O   0  0  0  0  0  0  0  0  0  0  0  0
  148.4579  140.0254  156.4589 C   0  0  0  0  0  0  0  0  0  0  0  0
  149.2002  138.9114  155.8654 N   0  0  0  0  0  0  0  0  0  0  0  0
  149.1055  138.9680  154.4090 C   0  0  0  0  0  0  0  0  0  0  0  0
  148.7508  137.6124  156.3733 C   0  0  0  0  0  0  0  0  0  0  0  0
  148.5491  137.6007  157.8672 C   0  0  0  0  0  0  0  0  0  0  0  0
  149.5424  137.5628  158.8873 C   0  0  0  0  0  0  0  0  0  0  0  0
  151.0360  137.5320  158.7333 C   0  0  0  0  0  0  0  0  0  0  0  0
  149.0084  137.5648  160.0973 N   0  0  0  0  0  0  0  0  0  0  0  0
  147.6239  137.6021  159.9048 O   0  0  0  0  0  0  0  0  0  0  0  0
  147.3760  137.6237  158.5704 C   0  0  0  0  0  0  0  0  0  0  0  0
  145.9435  137.6636  158.1577 C   0  0  0  0  0  0  0  0  0  0  0  0
  151.7683  141.5688  157.9901 C   0  0  0  0  0  0  0  0  0  0  0  0
  151.3534  142.7814  158.5683 C   0  0  0  0  0  0  0  0  0  0  0  0
  151.8751  143.1717  159.8195 C   0  0  0  0  0  0  0  0  0  0  0  0
  151.4188  144.4821  160.4361 C   0  0  0  0  0  0  0  0  0  0  0  0
  154.0995  141.9941  162.1941 H   0  0  0  0  0  0  0  0  0  0  0  0
  152.5957  142.8328  162.5715 H   0  0  0  0  0  0  0  0  0  0  0  0
  153.9119  143.6910  161.7561 H   0  0  0  0  0  0  0  0  0  0  0  0
  153.9355  140.4888  160.3967 H   0  0  0  0  0  0  0  0  0  0  0  0
  152.1419  139.0618  156.0252 H   0  0  0  0  0  0  0  0  0  0  0  0
  150.8753  142.2967  155.3674 H   0  0  0  0  0  0  0  0  0  0  0  0
  150.6197  140.6214  154.9364 H   0  0  0  0  0  0  0  0  0  0  0  0
  149.0618  141.9843  157.1819 H   0  0  0  0  0  0  0  0  0  0  0  0
  148.4863  143.0483  155.3828 H   0  0  0  0  0  0  0  0  0  0  0  0
  148.2747  139.8418  157.5191 H   0  0  0  0  0  0  0  0  0  0  0  0
  147.4689  140.0418  155.9988 H   0  0  0  0  0  0  0  0  0  0  0  0
  149.7167  138.1964  153.9407 H   0  0  0  0  0  0  0  0  0  0  0  0
  149.4606  139.9284  154.0341 H   0  0  0  0  0  0  0  0  0  0  0  0
  148.0753  138.8345  154.0758 H   0  0  0  0  0  0  0  0  0  0  0  0
  147.8071  137.3435  155.9012 H   0  0  0  0  0  0  0  0  0  0  0  0
  149.4565  136.8389  156.0675 H   0  0  0  0  0  0  0  0  0  0  0  0
  151.3420  136.7329  158.0576 H   0  0  0  0  0  0  0  0  0  0  0  0
  151.5388  137.3675  159.6872 H   0  0  0  0  0  0  0  0  0  0  0  0
  151.4027  138.4728  158.3223 H   0  0  0  0  0  0  0  0  0  0  0  0
  145.8380  138.0617  157.1483 H   0  0  0  0  0  0  0  0  0  0  0  0
  145.3625  138.2953  158.8299 H   0  0  0  0  0  0  0  0  0  0  0  0
  145.5105  136.6634  158.1729 H   0  0  0  0  0  0  0  0  0  0  0  0
  150.6364  143.4038  158.0535 H   0  0  0  0  0  0  0  0  0  0  0  0
  150.6926  144.9893  159.8001 H   0  0  0  0  0  0  0  0  0  0  0  0
  152.2661  145.1533  160.5776 H   0  0  0  0  0  0  0  0  0  0  0  0
  150.9498  144.3059  161.4044 H   0  0  0  0  0  0  0  0  0  0  0  0
  1  2  1  0  0  0  0
  1 26  1  0  0  0  0
  1 27  1  0  0  0  0
  1 28  1  0  0  0  0
  2 24  1  0  0  0  0
  2  3  2  0  0  0  0
  3  4  1  0  0  0  0
  3 29  1  0  0  0  0
  4 22  2  0  0  0  0
  4  5  1  0  0  0  0
  5  6  2  0  0  0  0
  6  7  1  0  0  0  0
  6 30  1  0  0  0  0
  7  8  1  0  0  0  0
  7 22  1  0  0  0  0
  8  9  1  0  0  0  0
  8 31  1  0  0  0  0
  8 32  1  0  0  0  0
  9 10  1  0  0  0  0
  9 11  1  0  0  0  0
  9 33  1  0  0  0  0
 10 34  1  0  0  0  0
 11 12  1  0  0  0  0
 11 35  1  0  0  0  0
 11 36  1  0  0  0  0
 12 13  1  0  0  0  0
 12 14  1  0  0  0  0
 13 37  1  0  0  0  0
 13 38  1  0  0  0  0
 13 39  1  0  0  0  0
 14 15  1  0  0  0  0
 14 40  1  0  0  0  0
 14 41  1  0  0  0  0
 15 20  2  0  0  0  0
 15 16  1  0  0  0  0
 16 17  1  0  0  0  0
 16 18  2  0  0  0  0
 17 42  1  0  0  0  0
 17 43  1  0  0  0  0
 17 44  1  0  0  0  0
 18 19  1  0  0  0  0
 19 20  1  0  0  0  0
 20 21  1  0  0  0  0
 21 45  1  0  0  0  0
 21 46  1  0  0  0  0
 21 47  1  0  0  0  0
 22 23  1  0  0  0  0
 23 24  2  0  0  0  0
 23 48  1  0  0  0  0
 24 25  1  0  0  0  0
 25 49  1  0  0  0  0
 25 50  1  0  0  0  0
 25 51  1  0  0  0  0
M  END
> <s_m_source_file>
AV-unprocessed.smi

> <i_m_source_file_index>
1207

> <i_lp_mmshare_version>
43012

> <i_f3d_flags>
0

> <s_epik_input>
W0NIM11jKFtjSF0xKWMoW0NIM10pW2NIXWMoYzEyKW4oW2NIXW4yKVtDSDJdW0NASF0oW09IXSlbQ0gyXU4oW0NIM10pW0NIMl1jM2MoW0NIM10pbm9jM1tDSDNd

> <s_epik_cmdline>
J2VwaWtfcHl0aG9uJywgJy1waCcsICc3LjAnLCAnLXRuJywgJzgnLCAnLW1hJywgJzIwMCcsICctbWV0YWxfYmluZGluZycsICctaW1hZScsICc8aW5maWxlLm1hZT4nLCAnLW9tYWUnLCAnPG91dGZpbGUubWFlPic=

> <r_epik_Ionization_Penalty>
0.374039

> <r_epik_Ionization_Penalty_Charging>
0

> <r_epik_Ionization_Penalty_Neutral>
0.374039

> <r_epik_State_Penalty>
0.350767

> <r_epik_Charging_Adjusted_Penalty>
0.350767

> <i_epik_Tot_Q>
0

> <i_epik_Tot_abs_Q>
0

> <r_epik_Metal_State_Penalty>
0.343187

> <b_epik_Metal_Only>
0

> <s_lp_Force_Field>
OPLS_2005

> <r_lp_Energy>
17.6596

> <b_lp_Chiralities_Consistent>
1

> <s_lp_Variant>
AV-unprocessed.smi:1207-2

> <Gold.Version>
5.8.1

> <Gold.Id.Protein>
6NUR|6NUR_protein|mol2

> <Gold.PLP.Fitness>
49.0182

> <Gold.PLP.PLP>
-41.8256

> <Gold.PLP.part.hbond>
-4.8498

> <Gold.PLP.part.metal>
0.0000

> <Gold.PLP.part.buried>
-5.0929

> <Gold.PLP.part.nonpolar>
-31.2234

> <Gold.PLP.part.repulsive>
0.0188

> <Gold.PLP.ligand.clash>
0.0000

> <Gold.PLP.ligand.torsion>
1.1137

> <Gold.PLP.Chemscore.Hbond>
3.0800

> <Gold.PLP.Chemscore.CHOScore>
0.0000

> <Gold.PLP.Chemscore.Metal>
0.0000

> <Gold.Chemscore.Hbonds>
donor molecule, donor type, donor heavy atom, donor atom, acceptor molecule, acceptor atom, score
      L1  H    10    34       P1  8028  1.00
      P1  H  6931  6943       L1    18  0.30
      P1  H  6934  6947       L1    19  0.77
      P1  H  7997  8009       L1     5  0.95

> <Gold.PLP.Chemscore.Internal.Correction>
0.1800

> <Gold.Rescore>
     Score         DG    S(hbond)    S(metal)    S(lipo)     H(rot)  DE(clash)    DE(int)     intcor
     15.81     -17.18       1.48        0.00     109.71       2.38       0.11       1.26       ----

> <Gold.Chemscore.Fitness>
15.8084

> <Gold.Chemscore.DG>
-17.1847

> <Gold.Chemscore.ZeroCoef>
-5.4800

> <Gold.Chemscore.Hbond>
1.4820

> <Gold.Chemscore.Metal>
0.0000

> <Gold.Chemscore.Lipo>
109.7117

> <Gold.Chemscore.Internal_Hbond>
0.0000

> <Gold.Chemscore.DEClash>
0.1141

> <Gold.Chemscore.DEInternal>
1.2622

> <Gold.Chemscore.Rot>
2.3756

> <Gold.Chemscore.Internal.Correction>
   9.000000E+99

> <Gold.Chemscore.Hbonds>
donor molecule, donor type, donor heavy atom, donor atom, acceptor molecule, acceptor atom, score
      L1  H    10    34       P1  8028  1.00
      P1  H  6931  6943       L1    18  0.07
      P1  H  6934  6947       L1    19  0.19
      P1  H  7997  8009       L1     5  0.06

> <Gold.Chemscore.Hbond.Weighted>
-4.9500

> <Gold.Chemscore.Metal.Weighted>
-0.0000

> <Gold.Chemscore.Lipo.Weighted>
-12.8363

> <Gold.Chemscore.Internal_Hbond.Weighted>
0.0000

> <Gold.Chemscore.DEClash.Weighted>
0.1141

> <Gold.Chemscore.DEInternal.Weighted>
1.2622

> <Gold.Chemscore.Rot.Weighted>
6.0816

> <Gold.Chemscore.Internal.Correction.Weighted>
   9.000000E+99

> <Gold.Protein.RotatedTorsions>
[ 6907 6896 6895 6894 ] final -123.16 input  -60.11 | X-H torsion
[ 7974 7965 7964 7962 ] final   48.12 input  175.53 | X-H torsion
[ 8008 7997 7996 7995 ] final  146.21 input   59.86 | X-H torsion
[ 10167 10162 10161 10158 ] final  124.27 input  -65.29 | X-H torsion
[ 10718 10713 10712 10709 ] final   86.53 input   66.30 | X-H torsion
[ 10763 10752 10751 10750 ] final  -92.73 input  -60.55 | X-H torsion
[ 11005 11000 10999 10996 ] final  146.74 input  -57.11 | X-H torsion

> <Gold.Protein.ActiveResidues>
 VAL166  LYS551  ARG553  GLY616  TRP617  ASP618  TYR619  PRO620  LYS621  CYS622 
 ASP623  PHE694  ASN695  SER759  ASP760  ASP761  ALA762  ILE779  LEU786  VAL792 
 PHE793  MET794  SER795  GLU796  ALA797  LYS798  CYS799  TRP800  GLU811  SER814 

> <Gold.Protein.RotatedAtoms>
  150.8644  133.7596  159.2981 H   0  0  0  0  0  0  0  0  0  0  0  0  # atno 6907 bound_to 6896
  151.5228  135.1066  159.9892 H   0  0  0  0  0  0  0  0  0  0  0  0  # atno 6908 bound_to 6896
  152.4650  133.7859  159.6931 H   0  0  0  0  0  0  0  0  0  0  0  0  # atno 6909 bound_to 6896
  146.0234  139.4677  142.9883 H   0  0  0  0  0  0  0  0  0  0  0  0  # atno 7974 bound_to 7965
  156.2862  140.2188  156.5339 H   0  0  0  0  0  0  0  0  0  0  0  0  # atno 8008 bound_to 7997
  154.7426  140.0486  157.0846 H   0  0  0  0  0  0  0  0  0  0  0  0  # atno 8009 bound_to 7997
  155.0212  140.3124  155.4796 H   0  0  0  0  0  0  0  0  0  0  0  0  # atno 8010 bound_to 7997
  139.5751  144.6959  151.3674 H   0  0  0  0  0  0  0  0  0  0  0  0  # atno 10167 bound_to 10162
  157.6930  131.0219  150.2987 H   0  0  0  0  0  0  0  0  0  0  0  0  # atno 10718 bound_to 10713
  154.6889  135.5220  153.8365 H   0  0  0  0  0  0  0  0  0  0  0  0  # atno 10763 bound_to 10752
  153.0618  135.6571  154.0455 H   0  0  0  0  0  0  0  0  0  0  0  0  # atno 10764 bound_to 10752
  154.0332  135.2983  155.3345 H   0  0  0  0  0  0  0  0  0  0  0  0  # atno 10765 bound_to 10752
  140.0818  134.9092  157.1513 H   0  0  0  0  0  0  0  0  0  0  0  0  # atno 11005 bound_to 11000
  145.7157  141.0092  143.1429 LP  0  0  0  0  0  0  0  0  0  0  0  0  # atno 17320 bound_to 7965
  144.6999  139.8810  143.7447 LP  0  0  0  0  0  0  0  0  0  0  0  0  # atno 17321 bound_to 7965
  140.7034  143.7574  150.7441 LP  0  0  0  0  0  0  0  0  0  0  0  0  # atno 17342 bound_to 10162
  140.1092  143.4715  152.2380 LP  0  0  0  0  0  0  0  0  0  0  0  0  # atno 17343 bound_to 10162
  156.3506  130.3830  149.7332 LP  0  0  0  0  0  0  0  0  0  0  0  0  # atno 17370 bound_to 10713
  156.4811  130.8041  151.3055 LP  0  0  0  0  0  0  0  0  0  0  0  0  # atno 17371 bound_to 10713
  140.3476  134.2634  155.7203 LP  0  0  0  0  0  0  0  0  0  0  0  0  # atno 17394 bound_to 11000
  141.2049  133.7873  157.0260 LP  0  0  0  0  0  0  0  0  0  0  0  0  # atno 17395 bound_to 11000

$$$$
