AV-unprocessed.smi:1761|AV-procd|sdf|7098|dock7
  -GOLD-   22720 8313D 1   1.00000     0.00000
 Structure written by MMmdl.
 34 35  0  0  0  0  0  0  0  0  1 V2000
  150.0320  140.9446  158.0149 O   0  0  0  0  0  0  0  0  0  0  0  0
  149.7976  141.9482  157.3409 C   0  0  0  0  0  0  0  0  0  0  0  0
  150.1852  143.1985  157.6479 N   0  0  0  0  0  0  0  0  0  0  0  0
  150.9060  143.6394  158.7897 C   0  0  0  0  0  0  0  0  0  0  0  0
  151.0061  145.0425  158.9279 C   0  0  0  0  0  0  0  0  0  0  0  0
  151.6988  145.5826  160.0286 C   0  0  0  0  0  0  0  0  0  0  0  0
  152.2735  144.7046  160.9647 C   0  0  0  0  0  0  0  0  0  0  0  0
  152.1277  143.3212  160.7533 C   0  0  0  0  0  0  0  0  0  0  0  0
  151.4646  142.8014  159.6989 N   0  0  0  0  0  0  0  0  0  0  0  0
  149.1153  141.9243  156.1867 N   0  0  0  0  0  0  0  0  0  0  0  0
  148.5585  140.7304  155.5534 C   0  0  1  0  0  0  0  0  0  0  0  0
  147.2976  140.3199  156.3419 C   0  0  0  0  0  0  0  0  0  0  0  0
  146.5470  139.1594  155.6731 C   0  0  0  0  0  0  0  0  0  0  0  0
  146.1821  139.5059  154.2237 C   0  0  0  0  0  0  0  0  0  0  0  0
  147.4387  139.8672  153.4203 C   0  0  0  0  0  0  0  0  0  0  0  0
  148.2204  141.0245  154.0715 C   0  0  2  0  0  0  0  0  0  0  0  0
  149.4120  141.1990  153.3310 O   0  0  0  0  0  0  0  0  0  0  0  0
  149.9315  143.9203  156.9898 H   0  0  0  0  0  0  0  0  0  0  0  0
  150.5579  145.7026  158.1993 H   0  0  0  0  0  0  0  0  0  0  0  0
  151.7868  146.6520  160.1511 H   0  0  0  0  0  0  0  0  0  0  0  0
  152.8117  145.0811  161.8220 H   0  0  0  0  0  0  0  0  0  0  0  0
  152.5539  142.6131  161.4483 H   0  0  0  0  0  0  0  0  0  0  0  0
  148.9761  142.7981  155.7009 H   0  0  0  0  0  0  0  0  0  0  0  0
  149.2651  139.8992  155.6002 H   0  0  0  0  0  0  0  0  0  0  0  0
  147.5704  140.0406  157.3603 H   0  0  0  0  0  0  0  0  0  0  0  0
  146.6227  141.1729  156.4291 H   0  0  0  0  0  0  0  0  0  0  0  0
  147.1662  138.2616  155.6936 H   0  0  0  0  0  0  0  0  0  0  0  0
  145.6443  138.9259  156.2382 H   0  0  0  0  0  0  0  0  0  0  0  0
  145.6708  138.6639  153.7563 H   0  0  0  0  0  0  0  0  0  0  0  0
  145.4823  140.3423  154.2087 H   0  0  0  0  0  0  0  0  0  0  0  0
  148.0771  138.9854  153.3453 H   0  0  0  0  0  0  0  0  0  0  0  0
  147.1590  140.1326  152.4001 H   0  0  0  0  0  0  0  0  0  0  0  0
  147.6300  141.9393  153.9999 H   0  0  0  0  0  0  0  0  0  0  0  0
  149.4532  140.5295  152.6651 H   0  0  0  0  0  0  0  0  0  0  0  0
  1  2  2  0  0  0  0
  2  3  1  0  0  0  0
  2 10  1  0  0  0  0
  3  4  1  0  0  0  0
  3 18  1  0  0  0  0
  4  9  1  0  0  0  0
  4  5  2  0  0  0  0
  5  6  1  0  0  0  0
  5 19  1  0  0  0  0
  6  7  2  0  0  0  0
  6 20  1  0  0  0  0
  7  8  1  0  0  0  0
  7 21  1  0  0  0  0
  8  9  2  0  0  0  0
  8 22  1  0  0  0  0
 10 11  1  0  0  0  0
 10 23  1  0  0  0  0
 11 16  1  0  0  0  0
 11 12  1  0  0  0  0
 11 24  1  0  0  0  0
 12 13  1  0  0  0  0
 12 25  1  0  0  0  0
 12 26  1  0  0  0  0
 13 14  1  0  0  0  0
 13 27  1  0  0  0  0
 13 28  1  0  0  0  0
 14 15  1  0  0  0  0
 14 29  1  0  0  0  0
 14 30  1  0  0  0  0
 15 16  1  0  0  0  0
 15 31  1  0  0  0  0
 15 32  1  0  0  0  0
 16 17  1  0  0  0  0
 16 33  1  0  0  0  0
 17 34  1  0  0  0  0
M  END
> <s_m_source_file>
AV-unprocessed.smi

> <i_m_source_file_index>
1761

> <i_lp_mmshare_version>
43012

> <i_f3d_flags>
0

> <s_epik_input>
bjFbY0hdW2NIXVtjSF1bY0hdYzFbTkhdQyg9TylbTkhdW0NAQEhdMltDSDJdW0NIMl1bQ0gyXVtDSDJdW0NASF0yW09IXQ==

> <s_epik_cmdline>
J2VwaWtfcHl0aG9uJywgJy1waCcsICc3LjAnLCAnLXRuJywgJzgnLCAnLW1hJywgJzIwMCcsICctbWV0YWxfYmluZGluZycsICctaW1hZScsICc8aW5maWxlLm1hZT4nLCAnLW9tYWUnLCAnPG91dGZpbGUubWFlPic=

> <r_lp_tautomer_probability>
1

> <r_epik_Ionization_Penalty>
4.92589e-05

> <r_epik_Ionization_Penalty_Charging>
0

> <r_epik_Ionization_Penalty_Neutral>
4.92589e-05

> <r_epik_State_Penalty>
-0

> <r_epik_Charging_Adjusted_Penalty>
0

> <i_epik_Tot_Q>
0

> <i_epik_Tot_abs_Q>
0

> <r_epik_Metal_State_Penalty>
-0

> <b_epik_Metal_Only>
0

> <s_lp_Force_Field>
OPLS_2005

> <r_lp_Energy>
12.6575

> <b_lp_Chiralities_Consistent>
1

> <s_lp_Variant>
AV-unprocessed.smi:1761-4

> <Gold.Version>
5.8.1

> <Gold.Id.Protein>
6NUR|6NUR_protein|mol2

> <Gold.PLP.Fitness>
42.1379

> <Gold.PLP.PLP>
-31.0083

> <Gold.PLP.part.hbond>
-5.1719

> <Gold.PLP.part.metal>
0.0000

> <Gold.PLP.part.buried>
-4.0351

> <Gold.PLP.part.nonpolar>
-21.9341

> <Gold.PLP.part.repulsive>
0.1054

> <Gold.PLP.ligand.clash>
0.0000

> <Gold.PLP.ligand.torsion>
0.2224

> <Gold.PLP.Chemscore.Hbond>
3.8577

> <Gold.PLP.Chemscore.CHOScore>
0.0000

> <Gold.PLP.Chemscore.Metal>
0.0000

> <Gold.Chemscore.Hbonds>
donor molecule, donor type, donor heavy atom, donor atom, acceptor molecule, acceptor atom, score
      L1  H     3    18       P1  8028  1.00
      L1  H    10    23       P1  8028  1.00
      L1  H    17    34       P1  7957  1.00
      P1  H  7989  7998       L1    17  0.01
      P1  H  8011  8017       L1    17  0.75

> <Gold.PLP.Chemscore.Internal.Correction>
0.0011

> <Gold.Rescore>
     Score         DG    S(hbond)    S(metal)    S(lipo)     H(rot)  DE(clash)    DE(int)     intcor
     17.83     -19.40       2.85        0.00      69.73       1.47       0.10       1.47       ----

> <Gold.Chemscore.Fitness>
17.8250

> <Gold.Chemscore.DG>
-19.3983

> <Gold.Chemscore.ZeroCoef>
-5.4800

> <Gold.Chemscore.Hbond>
2.8477

> <Gold.Chemscore.Metal>
0.0000

> <Gold.Chemscore.Lipo>
69.7267

> <Gold.Chemscore.Internal_Hbond>
0.0000

> <Gold.Chemscore.DEClash>
0.1013

> <Gold.Chemscore.DEInternal>
1.4720

> <Gold.Chemscore.Rot>
1.4653

> <Gold.Chemscore.Internal.Correction>
   9.000000E+99

> <Gold.Chemscore.Hbonds>
donor molecule, donor type, donor heavy atom, donor atom, acceptor molecule, acceptor atom, score
      L1  H     3    18       P1  8028  0.93
      L1  H    10    23       P1  8028  0.96
      L1  H    17    34       P1  7957  0.94
      P1  H  8011  8017       L1    17  0.09

> <Gold.Chemscore.Hbond.Weighted>
-9.5114

> <Gold.Chemscore.Metal.Weighted>
-0.0000

> <Gold.Chemscore.Lipo.Weighted>
-8.1580

> <Gold.Chemscore.Internal_Hbond.Weighted>
0.0000

> <Gold.Chemscore.DEClash.Weighted>
0.1013

> <Gold.Chemscore.DEInternal.Weighted>
1.4720

> <Gold.Chemscore.Rot.Weighted>
3.7511

> <Gold.Chemscore.Internal.Correction.Weighted>
   9.000000E+99

> <Gold.Protein.RotatedTorsions>
[ 6907 6896 6895 6894 ] final  -10.22 input  -60.11 | X-H torsion
[ 7974 7965 7964 7962 ] final -171.44 input  175.53 | X-H torsion
[ 8008 7997 7996 7995 ] final   27.44 input   59.86 | X-H torsion
[ 10167 10162 10161 10158 ] final  -29.15 input  -65.29 | X-H torsion
[ 10718 10713 10712 10709 ] final   -1.25 input   66.30 | X-H torsion
[ 10763 10752 10751 10750 ] final  -93.79 input  -60.55 | X-H torsion
[ 11005 11000 10999 10996 ] final  137.60 input  -57.11 | X-H torsion

> <Gold.Protein.ActiveResidues>
 VAL166  LYS551  ARG553  GLY616  TRP617  ASP618  TYR619  PRO620  LYS621  CYS622 
 ASP623  PHE694  ASN695  SER759  ASP760  ASP761  ALA762  ILE779  LEU786  VAL792 
 PHE793  MET794  SER795  GLU796  ALA797  LYS798  CYS799  TRP800  GLU811  SER814 

> <Gold.Protein.RotatedAtoms>
  151.4054  135.0977  159.9568 H   0  0  0  0  0  0  0  0  0  0  0  0  # atno 6907 bound_to 6896
  152.5037  133.8848  159.7375 H   0  0  0  0  0  0  0  0  0  0  0  0  # atno 6908 bound_to 6896
  150.9331  133.6686  159.2835 H   0  0  0  0  0  0  0  0  0  0  0  0  # atno 6909 bound_to 6896
  144.7157  140.1922  143.6347 H   0  0  0  0  0  0  0  0  0  0  0  0  # atno 7974 bound_to 7965
  155.0429  140.3171  155.4718 H   0  0  0  0  0  0  0  0  0  0  0  0  # atno 8008 bound_to 7997
  156.2851  140.2160  156.5497 H   0  0  0  0  0  0  0  0  0  0  0  0  # atno 8009 bound_to 7997
  154.7274  140.0484  157.0683 H   0  0  0  0  0  0  0  0  0  0  0  0  # atno 8010 bound_to 7997
  140.7263  143.3952  151.1360 H   0  0  0  0  0  0  0  0  0  0  0  0  # atno 10167 bound_to 10162
  156.8084  130.5416  149.5712 H   0  0  0  0  0  0  0  0  0  0  0  0  # atno 10718 bound_to 10713
  154.6993  135.5181  153.8504 H   0  0  0  0  0  0  0  0  0  0  0  0  # atno 10763 bound_to 10752
  153.0692  135.6595  154.0295 H   0  0  0  0  0  0  0  0  0  0  0  0  # atno 10764 bound_to 10752
  154.0157  135.2998  155.3367 H   0  0  0  0  0  0  0  0  0  0  0  0  # atno 10765 bound_to 10752
  140.0125  134.9432  157.0307 H   0  0  0  0  0  0  0  0  0  0  0  0  # atno 11005 bound_to 11000
  145.8757  139.2296  143.1634 LP  0  0  0  0  0  0  0  0  0  0  0  0  # atno 17320 bound_to 7965
  146.0042  140.8493  143.0003 LP  0  0  0  0  0  0  0  0  0  0  0  0  # atno 17321 bound_to 7965
  139.7564  143.8702  152.3089 LP  0  0  0  0  0  0  0  0  0  0  0  0  # atno 17342 bound_to 10162
  139.8573  144.7135  150.9142 LP  0  0  0  0  0  0  0  0  0  0  0  0  # atno 17343 bound_to 10162
  156.1059  130.6004  150.9970 LP  0  0  0  0  0  0  0  0  0  0  0  0  # atno 17370 bound_to 10713
  157.6518  131.0896  150.8034 LP  0  0  0  0  0  0  0  0  0  0  0  0  # atno 17371 bound_to 10713
  140.4529  134.1564  155.7183 LP  0  0  0  0  0  0  0  0  0  0  0  0  # atno 17394 bound_to 11000
  141.1721  133.8589  157.1539 LP  0  0  0  0  0  0  0  0  0  0  0  0  # atno 17395 bound_to 11000

$$$$
