AV-unprocessed.smi:1305|AV-procd|sdf|5433|dock7
  -GOLD-   22720 4593D 1   1.00000     0.00000
 Structure written by MMmdl.
 32 33  0  0  0  0  0  0  0  0  1 V2000
  152.7388  142.9547  161.8206 C   0  0  0  0  0  0  0  0  0  0  0  0
  152.6609  142.2887  160.4427 C   0  0  0  0  0  0  0  0  0  0  0  0
  152.2182  143.2620  159.3435 C   0  0  0  0  0  0  0  0  0  0  0  0
  150.7628  142.6371  158.4530 S   0  0  0  0  0  0  0  0  0  0  0  0
  151.4864  141.2803  157.5758 C   0  0  0  0  0  0  0  0  0  0  0  0
  152.5197  140.5570  158.0189 N   0  0  0  0  0  0  0  0  0  0  0  0
  152.7743  139.6269  157.0378 N   0  0  0  0  0  0  0  0  0  0  0  0
  151.8611  139.8525  156.0918 C   0  0  0  0  0  0  0  0  0  0  0  0
  151.7947  139.0832  154.8101 C   0  0  0  0  0  0  0  0  0  0  0  0
  150.4651  138.7034  154.1970 C   0  0  0  0  0  0  0  0  0  0  0  0
  151.3518  137.6361  154.7815 C   0  0  0  0  0  0  0  0  0  0  0  0
  151.0349  140.8839  156.3658 N   0  0  0  0  0  0  0  0  0  0  0  0
  149.9484  141.4297  155.5590 C   0  0  0  0  0  0  0  0  0  0  0  0
  148.5814  141.2251  156.2183 C   0  0  0  0  0  0  0  0  0  0  0  0
  147.8634  142.3144  156.5047 N   0  0  0  0  0  0  0  0  0  0  0  0
  148.1713  140.0912  156.4555 O   0  0  0  0  0  0  0  0  0  0  0  0
  153.0527  142.2393  162.5809 H   0  0  0  0  0  0  0  0  0  0  0  0
  151.7699  143.3546  162.1200 H   0  0  0  0  0  0  0  0  0  0  0  0
  153.4554  143.7763  161.8206 H   0  0  0  0  0  0  0  0  0  0  0  0
  153.6359  141.8708  160.1902 H   0  0  0  0  0  0  0  0  0  0  0  0
  151.9666  141.4490  160.4880 H   0  0  0  0  0  0  0  0  0  0  0  0
  151.9795  144.2320  159.7811 H   0  0  0  0  0  0  0  0  0  0  0  0
  153.0309  143.4140  158.6324 H   0  0  0  0  0  0  0  0  0  0  0  0
  152.6004  139.3793  154.1412 H   0  0  0  0  0  0  0  0  0  0  0  0
  149.5607  138.9542  154.7474 H   0  0  0  0  0  0  0  0  0  0  0  0
  150.3812  138.7545  153.1134 H   0  0  0  0  0  0  0  0  0  0  0  0
  151.8601  136.9697  154.0881 H   0  0  0  0  0  0  0  0  0  0  0  0
  151.0328  137.1800  155.7166 H   0  0  0  0  0  0  0  0  0  0  0  0
  150.1185  142.4922  155.3850 H   0  0  0  0  0  0  0  0  0  0  0  0
  149.9608  140.9530  154.5781 H   0  0  0  0  0  0  0  0  0  0  0  0
  146.9566  142.2219  156.9396 H   0  0  0  0  0  0  0  0  0  0  0  0
  148.2309  143.2286  156.2843 H   0  0  0  0  0  0  0  0  0  0  0  0
  1  2  1  0  0  0  0
  1 17  1  0  0  0  0
  1 18  1  0  0  0  0
  1 19  1  0  0  0  0
  2  3  1  0  0  0  0
  2 20  1  0  0  0  0
  2 21  1  0  0  0  0
  3  4  1  0  0  0  0
  3 22  1  0  0  0  0
  3 23  1  0  0  0  0
  4  5  1  0  0  0  0
  5 12  1  0  0  0  0
  5  6  2  0  0  0  0
  6  7  1  0  0  0  0
  7  8  2  0  0  0  0
  8  9  1  0  0  0  0
  8 12  1  0  0  0  0
  9 11  1  0  0  0  0
  9 10  1  0  0  0  0
  9 24  1  0  0  0  0
 10 11  1  0  0  0  0
 10 25  1  0  0  0  0
 10 26  1  0  0  0  0
 11 27  1  0  0  0  0
 11 28  1  0  0  0  0
 12 13  1  0  0  0  0
 13 14  1  0  0  0  0
 13 29  1  0  0  0  0
 13 30  1  0  0  0  0
 14 15  1  0  0  0  0
 14 16  2  0  0  0  0
 15 31  1  0  0  0  0
 15 32  1  0  0  0  0
M  END
> <s_m_source_file>
AV-unprocessed.smi

> <i_m_source_file_index>
1305

> <i_lp_mmshare_version>
43012

> <i_f3d_flags>
0

> <s_epik_input>
W0NIM11bQ0gyXVtDSDJdU2Mxbm5jKFtDSF0yW0NIMl1bQ0gyXTIpbjFbQ0gyXUMoPU8pW05IMl0=

> <s_epik_cmdline>
J2VwaWtfcHl0aG9uJywgJy1waCcsICc3LjAnLCAnLXRuJywgJzgnLCAnLW1hJywgJzIwMCcsICctbWV0YWxfYmluZGluZycsICctaW1hZScsICc8aW5maWxlLm1hZT4nLCAnLW9tYWUnLCAnPG91dGZpbGUubWFlPic=

> <r_lp_tautomer_probability>
1

> <r_epik_Ionization_Penalty>
4.21319e-06

> <r_epik_Ionization_Penalty_Charging>
0

> <r_epik_Ionization_Penalty_Neutral>
4.21319e-06

> <r_epik_State_Penalty>
-0

> <r_epik_Charging_Adjusted_Penalty>
0

> <i_epik_Tot_Q>
0

> <i_epik_Tot_abs_Q>
0

> <r_epik_Metal_State_Penalty>
-0

> <b_epik_Metal_Only>
0

> <s_lp_Force_Field>
OPLS_2005

> <r_lp_Energy>
5.08374

> <b_lp_Chiralities_Consistent>
1

> <s_lp_Variant>
AV-unprocessed.smi:1305-1

> <Gold.Version>
5.8.1

> <Gold.Id.Protein>
6NUR|6NUR_protein|mol2

> <Gold.PLP.Fitness>
40.6641

> <Gold.PLP.PLP>
-36.8557

> <Gold.PLP.part.hbond>
-2.7196

> <Gold.PLP.part.metal>
0.0000

> <Gold.PLP.part.buried>
-3.4504

> <Gold.PLP.part.nonpolar>
-31.1126

> <Gold.PLP.part.repulsive>
0.0182

> <Gold.PLP.ligand.clash>
0.0000

> <Gold.PLP.ligand.torsion>
1.1700

> <Gold.PLP.Chemscore.Hbond>
2.0000

> <Gold.PLP.Chemscore.CHOScore>
0.0000

> <Gold.PLP.Chemscore.Metal>
0.0000

> <Gold.Chemscore.Hbonds>
donor molecule, donor type, donor heavy atom, donor atom, acceptor molecule, acceptor atom, score
      L1  H    15    32       P1  8028  1.00
      P1  H  7997  8009       L1     7  1.00

> <Gold.PLP.Chemscore.Internal.Correction>
0.1483

> <Gold.Rescore>
     Score         DG    S(hbond)    S(metal)    S(lipo)     H(rot)  DE(clash)    DE(int)     intcor
     11.58     -12.76       1.50        0.00      75.64       2.57       0.18       1.01       ----

> <Gold.Chemscore.Fitness>
11.5755

> <Gold.Chemscore.DG>
-12.7614

> <Gold.Chemscore.ZeroCoef>
-5.4800

> <Gold.Chemscore.Hbond>
1.4997

> <Gold.Chemscore.Metal>
0.0000

> <Gold.Chemscore.Lipo>
75.6354

> <Gold.Chemscore.Internal_Hbond>
0.0000

> <Gold.Chemscore.DEClash>
0.1799

> <Gold.Chemscore.DEInternal>
1.0060

> <Gold.Chemscore.Rot>
2.5691

> <Gold.Chemscore.Internal.Correction>
   9.000000E+99

> <Gold.Chemscore.Hbonds>
donor molecule, donor type, donor heavy atom, donor atom, acceptor molecule, acceptor atom, score
      L1  H    15    32       P1  8028  0.55
      P1  H  7997  8009       L1     7  0.26

> <Gold.Chemscore.Hbond.Weighted>
-5.0091

> <Gold.Chemscore.Metal.Weighted>
-0.0000

> <Gold.Chemscore.Lipo.Weighted>
-8.8493

> <Gold.Chemscore.Internal_Hbond.Weighted>
0.0000

> <Gold.Chemscore.DEClash.Weighted>
0.1799

> <Gold.Chemscore.DEInternal.Weighted>
1.0060

> <Gold.Chemscore.Rot.Weighted>
6.5770

> <Gold.Chemscore.Internal.Correction.Weighted>
   9.000000E+99

> <Gold.Protein.RotatedTorsions>
[ 6907 6896 6895 6894 ] final -165.85 input  -60.11 | X-H torsion
[ 7974 7965 7964 7962 ] final -170.16 input  175.53 | X-H torsion
[ 8008 7997 7996 7995 ] final -170.18 input   59.86 | X-H torsion
[ 10167 10162 10161 10158 ] final   -5.85 input  -65.29 | X-H torsion
[ 10718 10713 10712 10709 ] final  -91.23 input   66.30 | X-H torsion
[ 10763 10752 10751 10750 ] final  109.87 input  -60.55 | X-H torsion
[ 11005 11000 10999 10996 ] final -148.02 input  -57.11 | X-H torsion

> <Gold.Protein.ActiveResidues>
 VAL166  LYS551  ARG553  GLY616  TRP617  ASP618  TYR619  PRO620  LYS621  CYS622 
 ASP623  PHE694  ASN695  SER759  ASP760  ASP761  ALA762  ILE779  LEU786  VAL792 
 PHE793  MET794  SER795  GLU796  ALA797  LYS798  CYS799  TRP800  GLU811  SER814 

> <Gold.Protein.RotatedAtoms>
  151.4342  133.3661  159.2772 H   0  0  0  0  0  0  0  0  0  0  0  0  # atno 6907 bound_to 6896
  150.9204  134.8623  159.7495 H   0  0  0  0  0  0  0  0  0  0  0  0  # atno 6908 bound_to 6896
  152.4978  134.4279  159.9554 H   0  0  0  0  0  0  0  0  0  0  0  0  # atno 6909 bound_to 6896
  144.7174  140.2113  143.6327 H   0  0  0  0  0  0  0  0  0  0  0  0  # atno 7974 bound_to 7965
  155.9149  140.1064  157.1251 H   0  0  0  0  0  0  0  0  0  0  0  0  # atno 8008 bound_to 7997
  154.4045  140.1267  156.4669 H   0  0  0  0  0  0  0  0  0  0  0  0  # atno 8009 bound_to 7997
  155.7266  140.3469  155.5042 H   0  0  0  0  0  0  0  0  0  0  0  0  # atno 8010 bound_to 7997
  140.6977  143.6261  150.8567 H   0  0  0  0  0  0  0  0  0  0  0  0  # atno 10167 bound_to 10162
  155.9992  130.4940  150.5443 H   0  0  0  0  0  0  0  0  0  0  0  0  # atno 10718 bound_to 10713
  153.4409  135.3766  155.2227 H   0  0  0  0  0  0  0  0  0  0  0  0  # atno 10763 bound_to 10752
  154.8754  135.3862  154.4153 H   0  0  0  0  0  0  0  0  0  0  0  0  # atno 10764 bound_to 10752
  153.4699  135.7087  153.6063 H   0  0  0  0  0  0  0  0  0  0  0  0  # atno 10765 bound_to 10752
  140.7656  134.3248  157.5089 H   0  0  0  0  0  0  0  0  0  0  0  0  # atno 11005 bound_to 11000
  145.8588  139.2212  143.1728 LP  0  0  0  0  0  0  0  0  0  0  0  0  # atno 17320 bound_to 7965
  146.0192  140.8363  142.9932 LP  0  0  0  0  0  0  0  0  0  0  0  0  # atno 17321 bound_to 7965
  139.9980  143.5775  152.2886 LP  0  0  0  0  0  0  0  0  0  0  0  0  # atno 17342 bound_to 10162
  139.6454  144.7658  151.2255 LP  0  0  0  0  0  0  0  0  0  0  0  0  # atno 17343 bound_to 10162
  157.3375  131.0710  151.1814 LP  0  0  0  0  0  0  0  0  0  0  0  0  # atno 17370 bound_to 10713
  157.2673  130.6688  149.6003 LP  0  0  0  0  0  0  0  0  0  0  0  0  # atno 17371 bound_to 10713
  139.8764  134.9229  156.3311 LP  0  0  0  0  0  0  0  0  0  0  0  0  # atno 17394 bound_to 11000
  140.9622  133.7381  156.0417 LP  0  0  0  0  0  0  0  0  0  0  0  0  # atno 17395 bound_to 11000

$$$$
