AV-unprocessed.smi:3067|AV-procd|sdf|11697|dock1
  -GOLD-   2272017 93D 1   1.00000     0.00000
 Structure written by MMmdl.
 34 35  0  0  0  0  0  0  0  0  1 V2000
  145.7818  129.0559  151.8659 C   0  0  0  0  0  0  0  0  0  0  0  0
  146.3441  130.3088  152.2234 O   0  0  0  0  0  0  0  0  0  0  0  0
  146.0175  131.3730  151.3362 C   0  0  1  0  0  0  0  0  0  0  0  0
  144.4822  131.5043  151.2360 C   0  0  0  0  0  0  0  0  0  0  0  0
  144.0681  132.7336  150.4143 C   0  0  0  0  0  0  0  0  0  0  0  0
  144.6901  134.0135  150.9883 C   0  0  0  0  0  0  0  0  0  0  0  0
  146.2180  133.8909  151.0724 C   0  0  0  0  0  0  0  0  0  0  0  0
  146.6461  132.6639  151.9068 C   0  0  2  0  0  0  0  0  0  0  0  0
  148.0997  132.5461  151.9360 N   0  0  0  0  0  0  0  0  0  0  0  0
  148.8183  132.3728  153.1289 C   0  0  0  0  0  0  0  0  0  0  0  0
  149.2291  131.1133  153.6251 C   0  0  0  0  0  0  0  0  0  0  0  0
  149.9507  131.0561  154.8328 C   0  0  0  0  0  0  0  0  0  0  0  0
  150.2406  132.2606  155.5069 C   0  0  0  0  0  0  0  0  0  0  0  0
  150.9860  132.2231  156.7534 C   0  0  0  0  0  0  0  0  0  0  0  0
  151.5802  132.1930  157.7460 N   0  0  0  0  0  0  0  0  0  0  0  0
  149.8530  133.4679  155.0421 N   0  0  0  0  0  0  0  0  0  0  0  0
  149.1611  133.5143  153.8839 C   0  0  0  0  0  0  0  0  0  0  0  0
  146.1066  128.2979  152.5783 H   0  0  0  0  0  0  0  0  0  0  0  0
  146.1118  128.7442  150.8744 H   0  0  0  0  0  0  0  0  0  0  0  0
  144.6926  129.0790  151.8815 H   0  0  0  0  0  0  0  0  0  0  0  0
  146.4371  131.1855  150.3455 H   0  0  0  0  0  0  0  0  0  0  0  0
  144.0483  130.6123  150.7852 H   0  0  0  0  0  0  0  0  0  0  0  0
  144.0577  131.5806  152.2379 H   0  0  0  0  0  0  0  0  0  0  0  0
  144.3827  132.6050  149.3778 H   0  0  0  0  0  0  0  0  0  0  0  0
  142.9815  132.8224  150.4000 H   0  0  0  0  0  0  0  0  0  0  0  0
  144.4189  134.8687  150.3687 H   0  0  0  0  0  0  0  0  0  0  0  0
  144.2825  134.2074  151.9812 H   0  0  0  0  0  0  0  0  0  0  0  0
  146.6289  133.8121  150.0648 H   0  0  0  0  0  0  0  0  0  0  0  0
  146.6288  134.8070  151.4968 H   0  0  0  0  0  0  0  0  0  0  0  0
  146.2794  132.7813  152.9269 H   0  0  0  0  0  0  0  0  0  0  0  0
  148.5880  132.4820  151.0541 H   0  0  0  0  0  0  0  0  0  0  0  0
  149.0044  130.1942  153.1056 H   0  0  0  0  0  0  0  0  0  0  0  0
  150.2734  130.1037  155.2287 H   0  0  0  0  0  0  0  0  0  0  0  0
  148.8727  134.5000  153.5486 H   0  0  0  0  0  0  0  0  0  0  0  0
  1  2  1  0  0  0  0
  1 18  1  0  0  0  0
  1 19  1  0  0  0  0
  1 20  1  0  0  0  0
  2  3  1  0  0  0  0
  3  8  1  0  0  0  0
  3  4  1  0  0  0  0
  3 21  1  0  0  0  0
  4  5  1  0  0  0  0
  4 22  1  0  0  0  0
  4 23  1  0  0  0  0
  5  6  1  0  0  0  0
  5 24  1  0  0  0  0
  5 25  1  0  0  0  0
  6  7  1  0  0  0  0
  6 26  1  0  0  0  0
  6 27  1  0  0  0  0
  7  8  1  0  0  0  0
  7 28  1  0  0  0  0
  7 29  1  0  0  0  0
  8  9  1  0  0  0  0
  8 30  1  0  0  0  0
  9 10  1  0  0  0  0
  9 31  1  0  0  0  0
 10 17  1  0  0  0  0
 10 11  2  0  0  0  0
 11 12  1  0  0  0  0
 11 32  1  0  0  0  0
 12 13  2  0  0  0  0
 12 33  1  0  0  0  0
 13 14  1  0  0  0  0
 13 16  1  0  0  0  0
 14 15  3  0  0  0  0
 16 17  2  0  0  0  0
 17 34  1  0  0  0  0
M  END
> <s_m_source_file>
AV-unprocessed.smi

> <i_m_source_file_index>
3067

> <i_lp_mmshare_version>
43012

> <i_f3d_flags>
0

> <s_epik_input>
W0NIM11PW0NAQEhdMVtDSDJdW0NIMl1bQ0gyXVtDSDJdW0NASF0xW05IXWMyW2NIXVtjSF1jKEMjTiluW2NIXTI=

> <s_epik_cmdline>
J2VwaWtfcHl0aG9uJywgJy1waCcsICc3LjAnLCAnLXRuJywgJzgnLCAnLW1hJywgJzIwMCcsICctbWV0YWxfYmluZGluZycsICctaW1hZScsICc8aW5maWxlLm1hZT4nLCAnLW9tYWUnLCAnPG91dGZpbGUubWFlPic=

> <r_lp_tautomer_probability>
1

> <r_epik_Ionization_Penalty>
2.01011e-07

> <r_epik_Ionization_Penalty_Charging>
0

> <r_epik_Ionization_Penalty_Neutral>
2.01011e-07

> <r_epik_State_Penalty>
-0

> <r_epik_Charging_Adjusted_Penalty>
0

> <i_epik_Tot_Q>
0

> <i_epik_Tot_abs_Q>
0

> <r_epik_Metal_State_Penalty>
-0

> <b_epik_Metal_Only>
0

> <s_lp_Force_Field>
OPLS_2005

> <r_lp_Energy>
16.9027

> <b_lp_Chiralities_Consistent>
1

> <s_lp_Variant>
AV-unprocessed.smi:3067-4

> <Gold.Version>
5.8.1

> <Gold.Id.Protein>
6NUR|6NUR_protein|mol2

> <Gold.PLP.Fitness>
41.6103

> <Gold.PLP.PLP>
-35.6632

> <Gold.PLP.part.hbond>
-2.0000

> <Gold.PLP.part.metal>
0.0000

> <Gold.PLP.part.buried>
-5.4005

> <Gold.PLP.part.nonpolar>
-29.0783

> <Gold.PLP.part.repulsive>
0.2567

> <Gold.PLP.ligand.clash>
0.0000

> <Gold.PLP.ligand.torsion>
0.8684

> <Gold.PLP.Chemscore.Hbond>
1.5600

> <Gold.PLP.Chemscore.CHOScore>
1.0000

> <Gold.PLP.Chemscore.Metal>
0.0000

> <Gold.Chemscore.Hbonds>
donor molecule, donor type, donor heavy atom, donor atom, acceptor molecule, acceptor atom, score
      L1  H     9    31       P1 10747  0.46
      P1  H  6896  6908       L1    15  1.00
      L1  C    17    34       P1  7948  0.94

> <Gold.PLP.Chemscore.Internal.Correction>
0.0039

> <Gold.Rescore>
     Score         DG    S(hbond)    S(metal)    S(lipo)     H(rot)  DE(clash)    DE(int)     intcor
     17.53     -18.44       1.79        0.00      86.02       1.20       0.02       0.89       ----

> <Gold.Chemscore.Fitness>
17.5334

> <Gold.Chemscore.DG>
-18.4354

> <Gold.Chemscore.ZeroCoef>
-5.4800

> <Gold.Chemscore.Hbond>
1.7863

> <Gold.Chemscore.Metal>
0.0000

> <Gold.Chemscore.Lipo>
86.0174

> <Gold.Chemscore.Internal_Hbond>
0.0000

> <Gold.Chemscore.DEClash>
0.0163

> <Gold.Chemscore.DEInternal>
0.8857

> <Gold.Chemscore.Rot>
1.2012

> <Gold.Chemscore.Internal.Correction>
   9.000000E+99

> <Gold.Chemscore.Hbonds>
donor molecule, donor type, donor heavy atom, donor atom, acceptor molecule, acceptor atom, score
      L1  H     9    31       P1 10747  0.46
      P1  H  6896  6908       L1    15  1.00

> <Gold.Chemscore.Hbond.Weighted>
-5.9663

> <Gold.Chemscore.Metal.Weighted>
-0.0000

> <Gold.Chemscore.Lipo.Weighted>
-10.0640

> <Gold.Chemscore.Internal_Hbond.Weighted>
0.0000

> <Gold.Chemscore.DEClash.Weighted>
0.0163

> <Gold.Chemscore.DEInternal.Weighted>
0.8857

> <Gold.Chemscore.Rot.Weighted>
3.0750

> <Gold.Chemscore.Internal.Correction.Weighted>
   9.000000E+99

> <Gold.Protein.RotatedTorsions>
[ 6907 6896 6895 6894 ] final   61.03 input  -60.11 | X-H torsion
[ 7974 7965 7964 7962 ] final -120.80 input  175.53 | X-H torsion
[ 8008 7997 7996 7995 ] final  111.54 input   59.86 | X-H torsion
[ 10167 10162 10161 10158 ] final -123.42 input  -65.29 | X-H torsion
[ 10718 10713 10712 10709 ] final  -81.66 input   66.30 | X-H torsion
[ 10763 10752 10751 10750 ] final  -14.91 input  -60.55 | X-H torsion
[ 11005 11000 10999 10996 ] final -139.66 input  -57.11 | X-H torsion

> <Gold.Protein.ActiveResidues>
 VAL166  LYS551  ARG553  GLY616  TRP617  ASP618  TYR619  PRO620  LYS621  CYS622 
 ASP623  PHE694  ASN695  SER759  ASP760  ASP761  ALA762  ILE779  LEU786  VAL792 
 PHE793  MET794  SER795  GLU796  ALA797  LYS798  CYS799  TRP800  GLU811  SER814 

> <Gold.Protein.RotatedAtoms>
  152.4054  134.6216  160.0052 H   0  0  0  0  0  0  0  0  0  0  0  0  # atno 6907 bound_to 6896
  151.6409  133.3320  159.3138 H   0  0  0  0  0  0  0  0  0  0  0  0  # atno 6908 bound_to 6896
  150.7949  134.7043  159.6612 H   0  0  0  0  0  0  0  0  0  0  0  0  # atno 6909 bound_to 6896
  145.0473  140.8191  143.4230 H   0  0  0  0  0  0  0  0  0  0  0  0  # atno 7974 bound_to 7965
  156.2131  140.3017  155.9777 H   0  0  0  0  0  0  0  0  0  0  0  0  # atno 8008 bound_to 7997
  155.2674  140.0432  157.3020 H   0  0  0  0  0  0  0  0  0  0  0  0  # atno 8009 bound_to 7997
  154.5728  140.2353  155.8175 H   0  0  0  0  0  0  0  0  0  0  0  0  # atno 8010 bound_to 7997
  140.0037  143.5513  152.2292 H   0  0  0  0  0  0  0  0  0  0  0  0  # atno 10167 bound_to 10162
  156.0046  130.4610  150.3987 H   0  0  0  0  0  0  0  0  0  0  0  0  # atno 10718 bound_to 10713
  153.5353  135.7014  153.5663 H   0  0  0  0  0  0  0  0  0  0  0  0  # atno 10763 bound_to 10752
  153.3652  135.3959  155.1748 H   0  0  0  0  0  0  0  0  0  0  0  0  # atno 10764 bound_to 10752
  154.8680  135.3798  154.4853 H   0  0  0  0  0  0  0  0  0  0  0  0  # atno 10765 bound_to 10752
  140.8498  134.2300  157.4766 H   0  0  0  0  0  0  0  0  0  0  0  0  # atno 11005 bound_to 11000
  145.1571  139.2480  143.5411 LP  0  0  0  0  0  0  0  0  0  0  0  0  # atno 17320 bound_to 7965
  146.3515  140.1289  142.8598 LP  0  0  0  0  0  0  0  0  0  0  0  0  # atno 17321 bound_to 7965
  139.6253  144.7636  151.2651 LP  0  0  0  0  0  0  0  0  0  0  0  0  # atno 17342 bound_to 10162
  140.7409  143.6574  150.8194 LP  0  0  0  0  0  0  0  0  0  0  0  0  # atno 17343 bound_to 10162
  157.2057  131.0448  151.2626 LP  0  0  0  0  0  0  0  0  0  0  0  0  # atno 17370 bound_to 10713
  157.3935  130.7294  149.6714 LP  0  0  0  0  0  0  0  0  0  0  0  0  # atno 17371 bound_to 10713
  139.8704  134.9677  156.4607 LP  0  0  0  0  0  0  0  0  0  0  0  0  # atno 17394 bound_to 11000
  140.8803  133.7923  155.9459 LP  0  0  0  0  0  0  0  0  0  0  0  0  # atno 17395 bound_to 11000

$$$$
