AV-unprocessed.smi:753|AV-procd|sdf|3603|dock8
  -GOLD-   22720 0593D 1   1.00000     0.00000
 Structure written by MMmdl.
 44 46  0  0  0  0  0  0  0  0  2 V2000
  151.4687  143.5882  157.9718 C   0  0  0  0  0  0  0  0  0  0  0  0
  151.1113  142.3821  157.1293 C   0  0  0  0  0  0  0  0  0  0  0  0
  151.7436  141.1308  157.2949 C   0  0  0  0  0  0  0  0  0  0  0  0
  151.3616  140.0521  156.4700 C   0  0  0  0  0  0  0  0  0  0  0  0
  150.3552  140.2457  155.4985 C   0  0  0  0  0  0  0  0  0  0  0  0
  149.9302  139.1084  154.5908 C   0  0  0  0  0  0  0  0  0  0  0  0
  148.5224  138.5944  154.9321 C   0  0  0  0  0  0  0  0  0  0  0  0
  148.1154  137.5204  154.0351 N   0  0  0  0  0  0  0  0  0  0  0  0
  146.9430  136.8668  154.0991 C   0  0  0  0  0  0  0  0  0  0  0  0
  146.0792  137.1078  154.9404 O   0  0  0  0  0  0  0  0  0  0  0  0
  146.7768  135.9190  153.1599 N   0  0  0  0  0  0  0  0  0  0  0  0
  145.6213  135.0408  152.9633 C   0  0  2  0  0  0  0  0  0  0  0  0
  145.9634  133.5411  153.1326 C   0  0  0  0  0  0  0  0  0  0  0  0
  145.5519  132.9399  151.7760 C   0  0  1  0  0  0  0  0  0  0  0  0
  144.0169  132.9722  151.6412 C   0  0  0  0  0  0  0  0  0  0  0  0
  143.7237  134.4703  151.4269 C   0  0  0  0  0  0  0  0  0  0  0  0
  145.1269  135.1009  151.5016 C   0  0  2  0  0  0  0  0  0  0  0  0
  145.9762  134.0379  150.8105 C   0  0  0  0  0  0  0  0  0  0  0  0
  149.7577  141.5185  155.3792 C   0  0  0  0  0  0  0  0  0  0  0  0
  150.1523  142.5267  156.1873 N   0  3  0  0  0  0  0  0  0  0  0  0
  152.2106  143.3332  158.7292 H   0  0  0  0  0  0  0  0  0  0  0  0
  150.5841  143.9748  158.4786 H   0  0  0  0  0  0  0  0  0  0  0  0
  151.8800  144.3798  157.3449 H   0  0  0  0  0  0  0  0  0  0  0  0
  152.5124  140.9963  158.0417 H   0  0  0  0  0  0  0  0  0  0  0  0
  151.8388  139.0891  156.5815 H   0  0  0  0  0  0  0  0  0  0  0  0
  149.9688  139.4487  153.5549 H   0  0  0  0  0  0  0  0  0  0  0  0
  150.6554  138.2976  154.6745 H   0  0  0  0  0  0  0  0  0  0  0  0
  148.5022  138.2099  155.9522 H   0  0  0  0  0  0  0  0  0  0  0  0
  147.7963  139.4085  154.8924 H   0  0  0  0  0  0  0  0  0  0  0  0
  148.7667  137.2562  153.3099 H   0  0  0  0  0  0  0  0  0  0  0  0
  147.5393  135.7904  152.5103 H   0  0  0  0  0  0  0  0  0  0  0  0
  144.8210  135.3451  153.6405 H   0  0  0  0  0  0  0  0  0  0  0  0
  147.0302  133.3891  153.3054 H   0  0  0  0  0  0  0  0  0  0  0  0
  145.4265  133.0865  153.9659 H   0  0  0  0  0  0  0  0  0  0  0  0
  145.9889  131.9603  151.5812 H   0  0  0  0  0  0  0  0  0  0  0  0
  143.6888  132.3902  150.7789 H   0  0  0  0  0  0  0  0  0  0  0  0
  143.5176  132.5723  152.5246 H   0  0  0  0  0  0  0  0  0  0  0  0
  143.2765  134.6360  150.4457 H   0  0  0  0  0  0  0  0  0  0  0  0
  143.0418  134.8745  152.1759 H   0  0  0  0  0  0  0  0  0  0  0  0
  145.1764  136.0949  151.0552 H   0  0  0  0  0  0  0  0  0  0  0  0
  147.0465  134.2495  150.8384 H   0  0  0  0  0  0  0  0  0  0  0  0
  145.6763  133.8473  149.7784 H   0  0  0  0  0  0  0  0  0  0  0  0
  148.9844  141.7607  154.6646 H   0  0  0  0  0  0  0  0  0  0  0  0
  149.7076  143.4387  156.0811 H   0  0  0  0  0  0  0  0  0  0  0  0
  1  2  1  0  0  0  0
  1 21  1  0  0  0  0
  1 22  1  0  0  0  0
  1 23  1  0  0  0  0
  2 20  1  0  0  0  0
  2  3  2  0  0  0  0
  3  4  1  0  0  0  0
  3 24  1  0  0  0  0
  4  5  2  0  0  0  0
  4 25  1  0  0  0  0
  5  6  1  0  0  0  0
  5 19  1  0  0  0  0
  6  7  1  0  0  0  0
  6 26  1  0  0  0  0
  6 27  1  0  0  0  0
  7  8  1  0  0  0  0
  7 28  1  0  0  0  0
  7 29  1  0  0  0  0
  8  9  1  0  0  0  0
  8 30  1  0  0  0  0
  9 10  2  0  0  0  0
  9 11  1  0  0  0  0
 11 12  1  0  0  0  0
 11 31  1  0  0  0  0
 12 17  1  0  0  0  0
 12 13  1  0  0  0  0
 12 32  1  0  0  0  0
 13 14  1  0  0  0  0
 13 33  1  0  0  0  0
 13 34  1  0  0  0  0
 14 18  1  0  0  0  0
 14 15  1  0  0  0  0
 14 35  1  0  0  0  0
 15 16  1  0  0  0  0
 15 36  1  0  0  0  0
 15 37  1  0  0  0  0
 16 17  1  0  0  0  0
 16 38  1  0  0  0  0
 16 39  1  0  0  0  0
 17 18  1  0  0  0  0
 17 40  1  0  0  0  0
 18 41  1  0  0  0  0
 18 42  1  0  0  0  0
 19 20  2  0  0  0  0
 19 43  1  0  0  0  0
 20 44  1  0  0  0  0
M  CHG  1  20   1
M  END
> <s_m_source_file>
AV-unprocessed.smi

> <i_m_source_file_index>
753

> <i_lp_mmshare_version>
43012

> <i_f3d_flags>
0

> <s_epik_input>
W0NIM11jMVtjSF1bY0hdYyhbY0hdbjEpW0NIMl1bQ0gyXVtOSF1DKD1PKVtOSF1bQ0BIXShbQ0gyXVtDQEBIXTIzKVtDQEBIXShbQ0gyXTMpW0NIMl1bQ0gyXTI=

> <s_epik_cmdline>
J2VwaWtfcHl0aG9uJywgJy1waCcsICc3LjAnLCAnLXRuJywgJzgnLCAnLW1hJywgJzIwMCcsICctbWV0YWxfYmluZGluZycsICctaW1hZScsICc8aW5maWxlLm1hZT4nLCAnLW9tYWUnLCAnPG91dGZpbGUubWFlPic=

> <r_epik_Ionization_Penalty>
1.41708

> <r_epik_Ionization_Penalty_Charging>
1.41702

> <r_epik_Ionization_Penalty_Neutral>
5.73163e-05

> <r_epik_State_Penalty>
1.50048

> <r_epik_Charging_Adjusted_Penalty>
2.9175

> <i_epik_Tot_Q>
1

> <i_epik_Tot_abs_Q>
1

> <r_epik_Metal_State_Penalty>
1.55295

> <b_epik_Metal_Only>
0

> <s_lp_Force_Field>
OPLS_2005

> <r_lp_Energy>
57.028

> <b_lp_Chiralities_Consistent>
1

> <s_lp_Variant>
AV-unprocessed.smi:753-5

> <Gold.Version>
5.8.1

> <Gold.Id.Protein>
6NUR|6NUR_protein|mol2

> <Gold.PLP.Fitness>
44.3274

> <Gold.PLP.PLP>
-32.9031

> <Gold.PLP.part.hbond>
-3.0000

> <Gold.PLP.part.metal>
0.0000

> <Gold.PLP.part.buried>
-4.0913

> <Gold.PLP.part.nonpolar>
-26.6521

> <Gold.PLP.part.repulsive>
0.1711

> <Gold.PLP.ligand.clash>
0.0000

> <Gold.PLP.ligand.torsion>
0.1435

> <Gold.PLP.Chemscore.Hbond>
3.8960

> <Gold.PLP.Chemscore.CHOScore>
0.0000

> <Gold.PLP.Chemscore.Metal>
0.0000

> <Gold.Chemscore.Hbonds>
donor molecule, donor type, donor heavy atom, donor atom, acceptor molecule, acceptor atom, score
      L1  H     8    30       P1  7948  0.90
      L1  H    11    31       P1  7948  1.00
      L1  H    20    44       P1  8028  2.00

> <Gold.PLP.Chemscore.Internal.Correction>
0.0234

> <Gold.Rescore>
     Score         DG    S(hbond)    S(metal)    S(lipo)     H(rot)  DE(clash)    DE(int)     intcor
     21.54     -21.65       2.89        0.00      88.64       1.50       0.04       0.06       ----

> <Gold.Chemscore.Fitness>
21.5449

> <Gold.Chemscore.DG>
-21.6529

> <Gold.Chemscore.ZeroCoef>
-5.4800

> <Gold.Chemscore.Hbond>
2.8887

> <Gold.Chemscore.Metal>
0.0000

> <Gold.Chemscore.Lipo>
88.6445

> <Gold.Chemscore.Internal_Hbond>
0.0000

> <Gold.Chemscore.DEClash>
0.0449

> <Gold.Chemscore.DEInternal>
0.0631

> <Gold.Chemscore.Rot>
1.5027

> <Gold.Chemscore.Internal.Correction>
   9.000000E+99

> <Gold.Chemscore.Hbonds>
donor molecule, donor type, donor heavy atom, donor atom, acceptor molecule, acceptor atom, score
      L1  H     8    30       P1  7948  0.87
      L1  H    11    31       P1  7948  0.96
      L1  H    20    44       P1  8028  0.97

> <Gold.Chemscore.Hbond.Weighted>
-9.6483

> <Gold.Chemscore.Metal.Weighted>
-0.0000

> <Gold.Chemscore.Lipo.Weighted>
-10.3714

> <Gold.Chemscore.Internal_Hbond.Weighted>
0.0000

> <Gold.Chemscore.DEClash.Weighted>
0.0449

> <Gold.Chemscore.DEInternal.Weighted>
0.0631

> <Gold.Chemscore.Rot.Weighted>
3.8468

> <Gold.Chemscore.Internal.Correction.Weighted>
   9.000000E+99

> <Gold.Protein.RotatedTorsions>
[ 6907 6896 6895 6894 ] final  -58.07 input  -60.11 | X-H torsion
[ 7974 7965 7964 7962 ] final   28.51 input  175.53 | X-H torsion
[ 8008 7997 7996 7995 ] final  143.44 input   59.86 | X-H torsion
[ 10167 10162 10161 10158 ] final -121.56 input  -65.29 | X-H torsion
[ 10718 10713 10712 10709 ] final   25.83 input   66.30 | X-H torsion
[ 10763 10752 10751 10750 ] final   63.13 input  -60.55 | X-H torsion
[ 11005 11000 10999 10996 ] final   92.27 input  -57.11 | X-H torsion

> <Gold.Protein.ActiveResidues>
 VAL166  LYS551  ARG553  GLY616  TRP617  ASP618  TYR619  PRO620  LYS621  CYS622 
 ASP623  PHE694  ASN695  SER759  ASP760  ASP761  ALA762  ILE779  LEU786  VAL792 
 PHE793  MET794  SER795  GLU796  ALA797  LYS798  CYS799  TRP800  GLU811  SER814 

> <Gold.Protein.RotatedAtoms>
  150.8036  134.7146  159.6622 H   0  0  0  0  0  0  0  0  0  0  0  0  # atno 6907 bound_to 6896
  152.4154  134.6047  160.0019 H   0  0  0  0  0  0  0  0  0  0  0  0  # atno 6908 bound_to 6896
  151.6278  133.3297  159.3138 H   0  0  0  0  0  0  0  0  0  0  0  0  # atno 6909 bound_to 6896
  146.1725  139.7046  142.8958 H   0  0  0  0  0  0  0  0  0  0  0  0  # atno 7974 bound_to 7965
  156.2930  140.2262  156.4891 H   0  0  0  0  0  0  0  0  0  0  0  0  # atno 8008 bound_to 7997
  154.7786  140.0462  157.1130 H   0  0  0  0  0  0  0  0  0  0  0  0  # atno 8009 bound_to 7997
  154.9786  140.3075  155.4960 H   0  0  0  0  0  0  0  0  0  0  0  0  # atno 8010 bound_to 7997
  140.0237  143.5318  152.2209 H   0  0  0  0  0  0  0  0  0  0  0  0  # atno 10167 bound_to 10162
  157.1986  130.6879  149.6179 H   0  0  0  0  0  0  0  0  0  0  0  0  # atno 10718 bound_to 10713
  153.0007  135.5440  154.6303 H   0  0  0  0  0  0  0  0  0  0  0  0  # atno 10763 bound_to 10752
  154.5582  135.2832  155.0946 H   0  0  0  0  0  0  0  0  0  0  0  0  # atno 10764 bound_to 10752
  154.2159  135.6459  153.5182 H   0  0  0  0  0  0  0  0  0  0  0  0  # atno 10765 bound_to 10752
  139.8826  134.8723  156.3548 H   0  0  0  0  0  0  0  0  0  0  0  0  # atno 11005 bound_to 11000
  145.4302  141.0414  143.2915 LP  0  0  0  0  0  0  0  0  0  0  0  0  # atno 17320 bound_to 7965
  144.8184  139.5835  143.6998 LP  0  0  0  0  0  0  0  0  0  0  0  0  # atno 17321 bound_to 7965
  139.6122  144.7611  151.2926 LP  0  0  0  0  0  0  0  0  0  0  0  0  # atno 17342 bound_to 10162
  140.7331  143.6803  150.8007 LP  0  0  0  0  0  0  0  0  0  0  0  0  # atno 17343 bound_to 10162
  155.9703  130.4590  150.6021 LP  0  0  0  0  0  0  0  0  0  0  0  0  # atno 17370 bound_to 10713
  157.3789  131.0778  151.1494 LP  0  0  0  0  0  0  0  0  0  0  0  0  # atno 17371 bound_to 10713
  140.9569  133.7414  156.0348 LP  0  0  0  0  0  0  0  0  0  0  0  0  # atno 17394 bound_to 11000
  140.8037  134.3479  157.5432 LP  0  0  0  0  0  0  0  0  0  0  0  0  # atno 17395 bound_to 11000

$$$$
