AV-unprocessed.smi:3354|AV-procd|sdf|12961|dock1
  -GOLD-   2272019393D 1   1.00000     0.00000
 Structure written by MMmdl.
 38 40  0  0  0  0  0  0  0  0  1 V2000
  147.9731  141.6987  156.9240 C   0  0  0  0  0  0  0  0  0  0  0  0
  149.3821  141.1465  156.8304 C   0  0  2  0  0  0  0  0  0  0  0  0
  150.3046  141.5730  155.7121 C   0  0  0  0  0  0  0  0  0  0  0  0
  149.7920  140.1472  155.7660 C   0  0  2  0  0  0  0  0  0  0  0  0
  148.8251  139.6824  154.8145 N   0  0  0  0  0  0  0  0  0  0  0  0
  148.3023  138.3230  154.8423 C   0  0  0  0  0  0  0  0  0  0  0  0
  147.0322  138.3520  153.9740 C   0  0  2  0  0  0  0  0  0  0  0  0
  146.9830  137.2036  153.0730 N   0  0  0  0  0  0  0  0  0  0  0  0
  145.9200  136.4034  152.9129 C   0  0  0  0  0  0  0  0  0  0  0  0
  144.8597  136.5569  153.5187 O   0  0  0  0  0  0  0  0  0  0  0  0
  146.1632  135.4470  152.0007 N   0  0  0  0  0  0  0  0  0  0  0  0
  145.2987  134.4096  151.5586 C   0  0  0  0  0  0  0  0  0  0  0  0
  145.6695  133.4061  150.6308 C   0  0  0  0  0  0  0  0  0  0  0  0
  144.7148  132.4413  150.2558 C   0  0  0  0  0  0  0  0  0  0  0  0
  143.4245  132.5185  150.8151 C   0  0  0  0  0  0  0  0  0  0  0  0
  143.0534  133.4769  151.6900 N   0  0  0  0  0  0  0  0  0  0  0  0
  143.9737  134.3993  152.0440 C   0  0  0  0  0  0  0  0  0  0  0  0
  147.0844  139.6903  153.2208 C   0  0  0  0  0  0  0  0  0  0  0  0
  148.1646  140.4654  153.9543 C   0  0  0  0  0  0  0  0  0  0  0  0
  148.3659  141.6643  153.7663 O   0  0  0  0  0  0  0  0  0  0  0  0
  147.5661  141.9137  155.9362 H   0  0  0  0  0  0  0  0  0  0  0  0
  147.9729  142.6221  157.5031 H   0  0  0  0  0  0  0  0  0  0  0  0
  147.3224  140.9779  157.4193 H   0  0  0  0  0  0  0  0  0  0  0  0
  149.8482  141.0023  157.8030 H   0  0  0  0  0  0  0  0  0  0  0  0
  149.9002  142.2547  154.9671 H   0  0  0  0  0  0  0  0  0  0  0  0
  151.3501  141.7374  155.9644 H   0  0  0  0  0  0  0  0  0  0  0  0
  150.5270  139.4053  156.0747 H   0  0  0  0  0  0  0  0  0  0  0  0
  149.0541  137.6450  154.4355 H   0  0  0  0  0  0  0  0  0  0  0  0
  148.0774  138.0059  155.8615 H   0  0  0  0  0  0  0  0  0  0  0  0
  146.1589  138.3428  154.6295 H   0  0  0  0  0  0  0  0  0  0  0  0
  147.8134  137.0105  152.5324 H   0  0  0  0  0  0  0  0  0  0  0  0
  147.0511  135.5030  151.5232 H   0  0  0  0  0  0  0  0  0  0  0  0
  146.6539  133.3652  150.1911 H   0  0  0  0  0  0  0  0  0  0  0  0
  144.9648  131.6621  149.5510 H   0  0  0  0  0  0  0  0  0  0  0  0
  142.6690  131.7946  150.5478 H   0  0  0  0  0  0  0  0  0  0  0  0
  143.6408  135.1522  152.7439 H   0  0  0  0  0  0  0  0  0  0  0  0
  147.3823  139.5686  152.1785 H   0  0  0  0  0  0  0  0  0  0  0  0
  146.1282  140.2137  153.2498 H   0  0  0  0  0  0  0  0  0  0  0  0
  1  2  1  0  0  0  0
  1 21  1  0  0  0  0
  1 22  1  0  0  0  0
  1 23  1  0  0  0  0
  2  4  1  0  0  0  0
  2  3  1  0  0  0  0
  2 24  1  0  0  0  0
  3  4  1  0  0  0  0
  3 25  1  0  0  0  0
  3 26  1  0  0  0  0
  4  5  1  0  0  0  0
  4 27  1  0  0  0  0
  5 19  1  0  0  0  0
  5  6  1  0  0  0  0
  6  7  1  0  0  0  0
  6 28  1  0  0  0  0
  6 29  1  0  0  0  0
  7  8  1  0  0  0  0
  7 18  1  0  0  0  0
  7 30  1  0  0  0  0
  8  9  1  0  0  0  0
  8 31  1  0  0  0  0
  9 10  2  0  0  0  0
  9 11  1  0  0  0  0
 11 12  1  0  0  0  0
 11 32  1  0  0  0  0
 12 17  1  0  0  0  0
 12 13  2  0  0  0  0
 13 14  1  0  0  0  0
 13 33  1  0  0  0  0
 14 15  2  0  0  0  0
 14 34  1  0  0  0  0
 15 16  1  0  0  0  0
 15 35  1  0  0  0  0
 16 17  2  0  0  0  0
 17 36  1  0  0  0  0
 18 19  1  0  0  0  0
 18 37  1  0  0  0  0
 18 38  1  0  0  0  0
 19 20  2  0  0  0  0
M  END
> <s_m_source_file>
AV-unprocessed.smi

> <i_m_source_file_index>
3354

> <i_lp_mmshare_version>
43012

> <i_f3d_flags>
0

> <s_epik_input>
W0NIM11bQ0BASF0xW0NIMl1bQ0BIXTFOMltDSDJdW0NASF0oW0NIMl1DMj1PKVtOSF1DKD1PKVtOSF1jM1tjSF1bY0hdW2NIXW5bY0hdMw==

> <s_epik_cmdline>
J2VwaWtfcHl0aG9uJywgJy1waCcsICc3LjAnLCAnLXRuJywgJzgnLCAnLW1hJywgJzIwMCcsICctbWV0YWxfYmluZGluZycsICctaW1hZScsICc8aW5maWxlLm1hZT4nLCAnLW9tYWUnLCAnPG91dGZpbGUubWFlPic=

> <r_epik_Ionization_Penalty>
0.00456191

> <r_epik_Ionization_Penalty_Charging>
0

> <r_epik_Ionization_Penalty_Neutral>
0.00456191

> <r_epik_State_Penalty>
0.00327094

> <r_epik_Charging_Adjusted_Penalty>
0.00327094

> <i_epik_Tot_Q>
0

> <i_epik_Tot_abs_Q>
0

> <r_epik_Metal_State_Penalty>
-0

> <b_epik_Metal_Only>
0

> <s_lp_Force_Field>
OPLS_2005

> <r_lp_Energy>
41.6225

> <b_lp_Chiralities_Consistent>
1

> <s_lp_Variant>
AV-unprocessed.smi:3354-7

> <Gold.Version>
5.8.1

> <Gold.Id.Protein>
6NUR|6NUR_protein|mol2

> <Gold.PLP.Fitness>
39.0411

> <Gold.PLP.PLP>
-29.5931

> <Gold.PLP.part.hbond>
-2.8997

> <Gold.PLP.part.metal>
0.0000

> <Gold.PLP.part.buried>
-4.5441

> <Gold.PLP.part.nonpolar>
-22.7341

> <Gold.PLP.part.repulsive>
0.7460

> <Gold.PLP.ligand.clash>
0.0636

> <Gold.PLP.ligand.torsion>
0.2015

> <Gold.PLP.Chemscore.Hbond>
2.2786

> <Gold.PLP.Chemscore.CHOScore>
0.9571

> <Gold.PLP.Chemscore.Metal>
0.0000

> <Gold.Chemscore.Hbonds>
donor molecule, donor type, donor heavy atom, donor atom, acceptor molecule, acceptor atom, score
      L1  H     8    31       P1  7948  0.99
      L1  H    11    32       P1  7948  0.82
      P1  H  8011  8017       L1    20  0.41
      L1  C    15    35       P1 10952  0.98

> <Gold.PLP.Chemscore.Internal.Correction>
0.2074

> <Gold.Rescore>
     Score         DG    S(hbond)    S(metal)    S(lipo)     H(rot)  DE(clash)    DE(int)     intcor
     14.94     -18.12       2.39        0.00      66.98       1.24       0.06       3.11       ----

> <Gold.Chemscore.Fitness>
14.9416

> <Gold.Chemscore.DG>
-18.1203

> <Gold.Chemscore.ZeroCoef>
-5.4800

> <Gold.Chemscore.Hbond>
2.3857

> <Gold.Chemscore.Metal>
0.0000

> <Gold.Chemscore.Lipo>
66.9766

> <Gold.Chemscore.Internal_Hbond>
0.0000

> <Gold.Chemscore.DEClash>
0.0649

> <Gold.Chemscore.DEInternal>
3.1138

> <Gold.Chemscore.Rot>
1.2361

> <Gold.Chemscore.Internal.Correction>
   9.000000E+99

> <Gold.Chemscore.Hbonds>
donor molecule, donor type, donor heavy atom, donor atom, acceptor molecule, acceptor atom, score
      L1  H     8    31       P1  7948  0.92
      L1  H    11    32       P1  7948  0.76
      P1  H  8011  8017       L1    20  0.40

> <Gold.Chemscore.Hbond.Weighted>
-7.9683

> <Gold.Chemscore.Metal.Weighted>
-0.0000

> <Gold.Chemscore.Lipo.Weighted>
-7.8363

> <Gold.Chemscore.Internal_Hbond.Weighted>
0.0000

> <Gold.Chemscore.DEClash.Weighted>
0.0649

> <Gold.Chemscore.DEInternal.Weighted>
3.1138

> <Gold.Chemscore.Rot.Weighted>
3.1643

> <Gold.Chemscore.Internal.Correction.Weighted>
   9.000000E+99

> <Gold.Protein.RotatedTorsions>
[ 6907 6896 6895 6894 ] final  -34.39 input  -60.11 | X-H torsion
[ 7974 7965 7964 7962 ] final -132.33 input  175.53 | X-H torsion
[ 8008 7997 7996 7995 ] final   91.87 input   59.86 | X-H torsion
[ 10167 10162 10161 10158 ] final   -8.79 input  -65.29 | X-H torsion
[ 10718 10713 10712 10709 ] final  -23.59 input   66.30 | X-H torsion
[ 10763 10752 10751 10750 ] final  -62.61 input  -60.55 | X-H torsion
[ 11005 11000 10999 10996 ] final   -7.21 input  -57.11 | X-H torsion

> <Gold.Protein.ActiveResidues>
 VAL166  LYS551  ARG553  GLY616  TRP617  ASP618  TYR619  PRO620  LYS621  CYS622 
 ASP623  PHE694  ASN695  SER759  ASP760  ASP761  ALA762  ILE779  LEU786  VAL792 
 PHE793  MET794  SER795  GLU796  ALA797  LYS798  CYS799  TRP800  GLU811  SER814 

> <Gold.Protein.RotatedAtoms>
  151.0532  134.9687  159.8221 H   0  0  0  0  0  0  0  0  0  0  0  0  # atno 6907 bound_to 6896
  152.5384  134.2511  159.8909 H   0  0  0  0  0  0  0  0  0  0  0  0  # atno 6908 bound_to 6896
  151.2528  133.4299  159.2646 H   0  0  0  0  0  0  0  0  0  0  0  0  # atno 6909 bound_to 6896
  144.9295  140.7112  143.4914 H   0  0  0  0  0  0  0  0  0  0  0  0  # atno 7974 bound_to 7965
  156.0288  140.3332  155.7117 H   0  0  0  0  0  0  0  0  0  0  0  0  # atno 8008 bound_to 7997
  155.5915  140.0646  157.2775 H   0  0  0  0  0  0  0  0  0  0  0  0  # atno 8009 bound_to 7997
  154.4345  140.1826  156.1067 H   0  0  0  0  0  0  0  0  0  0  0  0  # atno 8010 bound_to 7997
  140.7069  143.5930  150.8875 H   0  0  0  0  0  0  0  0  0  0  0  0  # atno 10167 bound_to 10162
  156.4890  130.4562  149.6766 H   0  0  0  0  0  0  0  0  0  0  0  0  # atno 10718 bound_to 10713
  154.3024  135.6232  153.5430 H   0  0  0  0  0  0  0  0  0  0  0  0  # atno 10763 bound_to 10752
  152.9839  135.5682  154.5268 H   0  0  0  0  0  0  0  0  0  0  0  0  # atno 10764 bound_to 10752
  154.4902  135.2867  155.1479 H   0  0  0  0  0  0  0  0  0  0  0  0  # atno 10765 bound_to 10752
  140.7103  133.8915  155.8746 H   0  0  0  0  0  0  0  0  0  0  0  0  # atno 11005 bound_to 11000
  145.3164  139.1802  143.4611 LP  0  0  0  0  0  0  0  0  0  0  0  0  # atno 17320 bound_to 7965
  146.3241  140.3176  142.8631 LP  0  0  0  0  0  0  0  0  0  0  0  0  # atno 17321 bound_to 7965
  139.9655  143.6115  152.2989 LP  0  0  0  0  0  0  0  0  0  0  0  0  # atno 17342 bound_to 10162
  139.6683  144.7661  151.1830 LP  0  0  0  0  0  0  0  0  0  0  0  0  # atno 17343 bound_to 10162
  156.3445  130.7400  151.2350 LP  0  0  0  0  0  0  0  0  0  0  0  0  # atno 17370 bound_to 10713
  157.7476  131.0394  150.4549 LP  0  0  0  0  0  0  0  0  0  0  0  0  # atno 17371 bound_to 10713
  141.0090  134.1046  157.4241 LP  0  0  0  0  0  0  0  0  0  0  0  0  # atno 17394 bound_to 11000
  139.8873  135.0089  156.6554 LP  0  0  0  0  0  0  0  0  0  0  0  0  # atno 17395 bound_to 11000

$$$$
