AV-unprocessed.smi:2811|AV-procd|sdf|10832|dock4
  -GOLD-   2272015273D 1   1.00000     0.00000
 Structure written by MMmdl.
 38 40  0  0  0  0  0  0  0  0  1 V2000
  152.2825  145.9787  160.0027 C   0  0  0  0  0  0  0  0  0  0  0  0
  152.1345  144.5568  159.5035 C   0  0  0  0  0  0  0  0  0  0  0  0
  152.8567  143.5065  160.1006 C   0  0  0  0  0  0  0  0  0  0  0  0
  152.6750  142.2051  159.5949 C   0  0  0  0  0  0  0  0  0  0  0  0
  153.4163  141.0274  160.1919 C   0  0  0  0  0  0  0  0  0  0  0  0
  151.8411  141.9230  158.5713 N   0  0  0  0  0  0  0  0  0  0  0  0
  151.1379  142.9252  157.9858 C   0  0  0  0  0  0  0  0  0  0  0  0
  150.2288  142.7503  156.9004 N   0  0  0  0  0  0  0  0  0  0  0  0
  149.8511  141.6487  156.2162 C   0  0  0  0  0  0  0  0  0  0  0  0
  150.3076  140.5412  156.4947 O   0  0  0  0  0  0  0  0  0  0  0  0
  148.9584  141.8359  155.2317 N   0  0  0  0  0  0  0  0  0  0  0  0
  148.4097  140.7903  154.3762 C   0  0  1  0  0  0  0  0  0  0  0  0
  148.1684  139.4754  155.1280 C   0  0  0  0  0  0  0  0  0  0  0  0
  146.6618  139.2676  154.9241 C   0  0  2  0  0  0  0  0  0  0  0  0
  146.3177  138.9199  153.4682 C   0  0  0  0  0  0  0  0  0  0  0  0
  146.5225  140.2630  152.7665 C   0  0  0  0  0  0  0  0  0  0  0  0
  146.9837  141.1522  153.9284 C   0  0  1  0  0  0  0  0  0  0  0  0
  146.2108  140.6087  154.9859 O   0  0  0  0  0  0  0  0  0  0  0  0
  151.2651  144.2592  158.4346 C   0  0  0  0  0  0  0  0  0  0  0  0
  153.2393  146.1185  160.5066 H   0  0  0  0  0  0  0  0  0  0  0  0
  151.4850  146.2141  160.7075 H   0  0  0  0  0  0  0  0  0  0  0  0
  152.2298  146.6857  159.1742 H   0  0  0  0  0  0  0  0  0  0  0  0
  153.5301  143.6935  160.9243 H   0  0  0  0  0  0  0  0  0  0  0  0
  154.2790  141.3596  160.7695 H   0  0  0  0  0  0  0  0  0  0  0  0
  153.7719  140.3578  159.4080 H   0  0  0  0  0  0  0  0  0  0  0  0
  152.7573  140.4640  160.8526 H   0  0  0  0  0  0  0  0  0  0  0  0
  149.7933  143.6040  156.5836 H   0  0  0  0  0  0  0  0  0  0  0  0
  148.6296  142.7775  155.0685 H   0  0  0  0  0  0  0  0  0  0  0  0
  149.0579  140.6484  153.5094 H   0  0  0  0  0  0  0  0  0  0  0  0
  148.7589  138.6491  154.7307 H   0  0  0  0  0  0  0  0  0  0  0  0
  148.3960  139.5716  156.1908 H   0  0  0  0  0  0  0  0  0  0  0  0
  146.2036  138.6049  155.6585 H   0  0  0  0  0  0  0  0  0  0  0  0
  146.9564  138.1310  153.0691 H   0  0  0  0  0  0  0  0  0  0  0  0
  145.2796  138.5978  153.3799 H   0  0  0  0  0  0  0  0  0  0  0  0
  147.2538  140.2151  151.9589 H   0  0  0  0  0  0  0  0  0  0  0  0
  145.5804  140.6256  152.3538 H   0  0  0  0  0  0  0  0  0  0  0  0
  146.8216  142.2168  153.7538 H   0  0  0  0  0  0  0  0  0  0  0  0
  150.6995  145.0509  157.9643 H   0  0  0  0  0  0  0  0  0  0  0  0
  1  2  1  0  0  0  0
  1 20  1  0  0  0  0
  1 21  1  0  0  0  0
  1 22  1  0  0  0  0
  2 19  1  0  0  0  0
  2  3  2  0  0  0  0
  3  4  1  0  0  0  0
  3 23  1  0  0  0  0
  4  5  1  0  0  0  0
  4  6  2  0  0  0  0
  5 24  1  0  0  0  0
  5 25  1  0  0  0  0
  5 26  1  0  0  0  0
  6  7  1  0  0  0  0
  7  8  1  0  0  0  0
  7 19  2  0  0  0  0
  8  9  1  0  0  0  0
  8 27  1  0  0  0  0
  9 10  2  0  0  0  0
  9 11  1  0  0  0  0
 11 12  1  0  0  0  0
 11 28  1  0  0  0  0
 12 17  1  0  0  0  0
 12 13  1  0  0  0  0
 12 29  1  0  0  0  0
 13 14  1  0  0  0  0
 13 30  1  0  0  0  0
 13 31  1  0  0  0  0
 14 18  1  0  0  0  0
 14 15  1  0  0  0  0
 14 32  1  0  0  0  0
 15 16  1  0  0  0  0
 15 33  1  0  0  0  0
 15 34  1  0  0  0  0
 16 17  1  0  0  0  0
 16 35  1  0  0  0  0
 16 36  1  0  0  0  0
 17 18  1  0  0  0  0
 17 37  1  0  0  0  0
 19 38  1  0  0  0  0
M  END
> <s_m_source_file>
AV-unprocessed.smi

> <i_m_source_file_index>
2811

> <i_lp_mmshare_version>
43012

> <i_f3d_flags>
0

> <s_epik_input>
W0NIM11jMVtjSF1jKFtDSDNdKW5jKFtjSF0xKVtOSF1DKD1PKVtOSF1bQ0BIXShbQ0gyXVtDQEBIXTIzKVtDQEBIXShPMylbQ0gyXVtDSDJdMg==

> <s_epik_cmdline>
J2VwaWtfcHl0aG9uJywgJy1waCcsICc3LjAnLCAnLXRuJywgJzgnLCAnLW1hJywgJzIwMCcsICctbWV0YWxfYmluZGluZycsICctaW1hZScsICc8aW5maWxlLm1hZT4nLCAnLW9tYWUnLCAnPG91dGZpbGUubWFlPic=

> <r_lp_tautomer_probability>
1

> <r_epik_Ionization_Penalty>
0.000281548

> <r_epik_Ionization_Penalty_Charging>
0

> <r_epik_Ionization_Penalty_Neutral>
0.000281548

> <r_epik_State_Penalty>
-0

> <r_epik_Charging_Adjusted_Penalty>
0

> <i_epik_Tot_Q>
0

> <i_epik_Tot_abs_Q>
0

> <r_epik_Metal_State_Penalty>
-0

> <b_epik_Metal_Only>
0

> <s_lp_Force_Field>
OPLS_2005

> <r_lp_Energy>
40.4481

> <b_lp_Chiralities_Consistent>
1

> <s_lp_Variant>
AV-unprocessed.smi:2811-4

> <Gold.Version>
5.8.1

> <Gold.Id.Protein>
6NUR|6NUR_protein|mol2

> <Gold.PLP.Fitness>
45.9264

> <Gold.PLP.PLP>
-40.9357

> <Gold.PLP.part.hbond>
-2.0000

> <Gold.PLP.part.metal>
0.0000

> <Gold.PLP.part.buried>
-2.2755

> <Gold.PLP.part.nonpolar>
-36.8399

> <Gold.PLP.part.repulsive>
0.3766

> <Gold.PLP.ligand.clash>
0.0000

> <Gold.PLP.ligand.torsion>
0.3503

> <Gold.PLP.Chemscore.Hbond>
1.8882

> <Gold.PLP.Chemscore.CHOScore>
0.0000

> <Gold.PLP.Chemscore.Metal>
0.0000

> <Gold.Chemscore.Hbonds>
donor molecule, donor type, donor heavy atom, donor atom, acceptor molecule, acceptor atom, score
      L1  H     8    27       P1  8028  1.00
      L1  H    11    28       P1  8028  0.88

> <Gold.PLP.Chemscore.Internal.Correction>
0.0268

> <Gold.Rescore>
     Score         DG    S(hbond)    S(metal)    S(lipo)     H(rot)  DE(clash)    DE(int)     intcor
     17.81     -21.56       1.85        0.00     106.37       1.00       0.74       3.01       ----

> <Gold.Chemscore.Fitness>
17.8129

> <Gold.Chemscore.DG>
-21.5554

> <Gold.Chemscore.ZeroCoef>
-5.4800

> <Gold.Chemscore.Hbond>
1.8533

> <Gold.Chemscore.Metal>
0.0000

> <Gold.Chemscore.Lipo>
106.3699

> <Gold.Chemscore.Internal_Hbond>
0.0000

> <Gold.Chemscore.DEClash>
0.7374

> <Gold.Chemscore.DEInternal>
3.0051

> <Gold.Chemscore.Rot>
1.0000

> <Gold.Chemscore.Internal.Correction>
   9.000000E+99

> <Gold.Chemscore.Hbonds>
donor molecule, donor type, donor heavy atom, donor atom, acceptor molecule, acceptor atom, score
      L1  H     8    27       P1  8028  1.00
      L1  H    11    28       P1  8028  0.81

> <Gold.Chemscore.Hbond.Weighted>
-6.1901

> <Gold.Chemscore.Metal.Weighted>
-0.0000

> <Gold.Chemscore.Lipo.Weighted>
-12.4453

> <Gold.Chemscore.Internal_Hbond.Weighted>
0.0000

> <Gold.Chemscore.DEClash.Weighted>
0.7374

> <Gold.Chemscore.DEInternal.Weighted>
3.0051

> <Gold.Chemscore.Rot.Weighted>
2.5600

> <Gold.Chemscore.Internal.Correction.Weighted>
   9.000000E+99

> <Gold.Protein.RotatedTorsions>
[ 6907 6896 6895 6894 ] final  -43.74 input  -60.11 | X-H torsion
[ 7974 7965 7964 7962 ] final   38.84 input  175.53 | X-H torsion
[ 8008 7997 7996 7995 ] final  -41.53 input   59.86 | X-H torsion
[ 10167 10162 10161 10158 ] final  132.37 input  -65.29 | X-H torsion
[ 10718 10713 10712 10709 ] final   66.38 input   66.30 | X-H torsion
[ 10763 10752 10751 10750 ] final  -73.35 input  -60.55 | X-H torsion
[ 11005 11000 10999 10996 ] final  107.06 input  -57.11 | X-H torsion

> <Gold.Protein.ActiveResidues>
 VAL166  LYS551  ARG553  GLY616  TRP617  ASP618  TYR619  PRO620  LYS621  CYS622 
 ASP623  PHE694  ASN695  SER759  ASP760  ASP761  ALA762  ILE779  LEU786  VAL792 
 PHE793  MET794  SER795  GLU796  ALA797  LYS798  CYS799  TRP800  GLU811  SER814 

> <Gold.Protein.RotatedAtoms>
  150.9406  134.8815  159.7609 H   0  0  0  0  0  0  0  0  0  0  0  0  # atno 6907 bound_to 6896
  152.5078  134.3948  159.9406 H   0  0  0  0  0  0  0  0  0  0  0  0  # atno 6908 bound_to 6896
  151.3969  133.3730  159.2762 H   0  0  0  0  0  0  0  0  0  0  0  0  # atno 6909 bound_to 6896
  146.1031  139.5724  142.9401 H   0  0  0  0  0  0  0  0  0  0  0  0  # atno 7974 bound_to 7965
  154.4003  140.1497  156.3206 H   0  0  0  0  0  0  0  0  0  0  0  0  # atno 8008 bound_to 7997
  155.8533  140.3457  155.5686 H   0  0  0  0  0  0  0  0  0  0  0  0  # atno 8009 bound_to 7997
  155.7961  140.0863  157.1973 H   0  0  0  0  0  0  0  0  0  0  0  0  # atno 8010 bound_to 7997
  139.5342  144.6665  151.4842 H   0  0  0  0  0  0  0  0  0  0  0  0  # atno 10167 bound_to 10162
  157.6165  130.9264  150.0101 H   0  0  0  0  0  0  0  0  0  0  0  0  # atno 10718 bound_to 10713
  154.4582  135.5900  153.6238 H   0  0  0  0  0  0  0  0  0  0  0  0  # atno 10763 bound_to 10752
  152.9820  135.6037  154.3519 H   0  0  0  0  0  0  0  0  0  0  0  0  # atno 10764 bound_to 10752
  154.3388  135.2842  155.2412 H   0  0  0  0  0  0  0  0  0  0  0  0  # atno 10765 bound_to 10752
  139.8822  134.9389  156.5761 H   0  0  0  0  0  0  0  0  0  0  0  0  # atno 11005 bound_to 11000
  145.5815  141.0382  143.2119 LP  0  0  0  0  0  0  0  0  0  0  0  0  # atno 17320 bound_to 7965
  144.7449  139.7348  143.7296 LP  0  0  0  0  0  0  0  0  0  0  0  0  # atno 17321 bound_to 7965
  140.6539  143.8639  150.6815 LP  0  0  0  0  0  0  0  0  0  0  0  0  # atno 17342 bound_to 10162
  140.2012  143.3958  152.1790 LP  0  0  0  0  0  0  0  0  0  0  0  0  # atno 17343 bound_to 10162
  156.1290  130.3644  149.9763 LP  0  0  0  0  0  0  0  0  0  0  0  0  # atno 17370 bound_to 10713
  156.7828  130.9227  151.3646 LP  0  0  0  0  0  0  0  0  0  0  0  0  # atno 17371 bound_to 10713
  140.8062  133.8466  155.8769 LP  0  0  0  0  0  0  0  0  0  0  0  0  # atno 17394 bound_to 11000
  140.9548  134.1732  157.4700 LP  0  0  0  0  0  0  0  0  0  0  0  0  # atno 17395 bound_to 11000

$$$$
