AV-unprocessed.smi:1417|AV-procd|sdf|5770|dock10
  -GOLD-   22720 5413D 1   1.00000     0.00000
 Structure written by MMmdl.
 39 40  0  0  0  0  0  0  0  0  3 V2000
  153.7773  140.6532  159.7816 C   0  0  0  0  0  0  0  0  0  0  0  0
  152.8355  140.8628  158.6455 C   0  0  0  0  0  0  0  0  0  0  0  0
  151.9274  141.8431  158.3618 C   0  0  0  0  0  0  0  0  0  0  0  0
  151.3671  141.4189  157.1262 C   0  0  0  0  0  0  0  0  0  0  0  0
  150.4233  142.0656  156.4247 N   0  5  0  0  0  0  0  0  0  0  0  0
  149.8386  141.4701  155.3604 C   0  0  0  0  0  0  0  0  0  0  0  0
  150.2335  140.4578  154.7778 O   0  0  0  0  0  0  0  0  0  0  0  0
  148.7265  142.0920  154.9435 N   0  0  0  0  0  0  0  0  0  0  0  0
  147.8822  141.6950  153.8174 C   0  0  2  0  0  0  0  0  0  0  0  0
  146.6246  142.5799  153.7080 C   0  0  0  0  0  0  0  0  0  0  0  0
  145.6410  142.3233  154.8631 C   0  0  0  0  0  0  0  0  0  0  0  0
  145.2652  140.8860  154.9355 N   0  3  2  0  0  0  0  0  0  0  0  0
  144.2102  140.6092  155.9442 C   0  0  0  0  0  0  0  0  0  0  0  0
  143.6579  139.1824  155.8574 C   0  0  0  0  0  0  0  0  0  0  0  0
  143.1024  138.8214  154.6982 N   0  0  0  0  0  0  0  0  0  0  0  0
  143.7128  138.4222  156.8225 O   0  0  0  0  0  0  0  0  0  0  0  0
  146.4574  140.0170  155.1070 C   0  0  0  0  0  0  0  0  0  0  0  0
  147.4651  140.2212  153.9606 C   0  0  0  0  0  0  0  0  0  0  0  0
  151.9002  140.2900  156.6896 N   0  0  0  0  0  0  0  0  0  0  0  0
  152.8390  139.9237  157.6613 O   0  0  0  0  0  0  0  0  0  0  0  0
  154.6264  141.3325  159.7080 H   0  0  0  0  0  0  0  0  0  0  0  0
  154.1604  139.6326  159.7915 H   0  0  0  0  0  0  0  0  0  0  0  0
  153.2793  140.8349  160.7339 H   0  0  0  0  0  0  0  0  0  0  0  0
  151.6974  142.7219  158.9458 H   0  0  0  0  0  0  0  0  0  0  0  0
  148.4421  142.9106  155.4608 H   0  0  0  0  0  0  0  0  0  0  0  0
  148.4684  141.7950  152.9022 H   0  0  0  0  0  0  0  0  0  0  0  0
  146.8979  143.6352  153.6776 H   0  0  0  0  0  0  0  0  0  0  0  0
  146.1234  142.3728  152.7616 H   0  0  0  0  0  0  0  0  0  0  0  0
  146.0819  142.6361  155.8111 H   0  0  0  0  0  0  0  0  0  0  0  0
  144.7515  142.9361  154.7151 H   0  0  0  0  0  0  0  0  0  0  0  0
  144.6226  140.7208  156.9479 H   0  0  0  0  0  0  0  0  0  0  0  0
  143.4047  141.3401  155.8544 H   0  0  0  0  0  0  0  0  0  0  0  0
  142.7253  137.8916  154.5838 H   0  0  0  0  0  0  0  0  0  0  0  0
  143.0638  139.4811  153.9340 H   0  0  0  0  0  0  0  0  0  0  0  0
  146.9262  140.2258  156.0700 H   0  0  0  0  0  0  0  0  0  0  0  0
  146.1504  138.9707  155.1258 H   0  0  0  0  0  0  0  0  0  0  0  0
  147.0147  139.8840  153.0259 H   0  0  0  0  0  0  0  0  0  0  0  0
  148.3434  139.5935  154.1168 H   0  0  0  0  0  0  0  0  0  0  0  0
  144.8653  140.6425  154.0402 H   0  0  0  0  0  0  0  0  0  0  0  0
  1  2  1  0  0  0  0
  1 21  1  0  0  0  0
  1 22  1  0  0  0  0
  1 23  1  0  0  0  0
  2 20  1  0  0  0  0
  2  3  2  0  0  0  0
  3  4  1  0  0  0  0
  3 24  1  0  0  0  0
  4  5  1  0  0  0  0
  4 19  2  0  0  0  0
  5  6  1  0  0  0  0
  6  7  2  0  0  0  0
  6  8  1  0  0  0  0
  8  9  1  0  0  0  0
  8 25  1  0  0  0  0
  9 18  1  0  0  0  0
  9 10  1  0  0  0  0
  9 26  1  0  0  0  0
 10 11  1  0  0  0  0
 10 27  1  0  0  0  0
 10 28  1  0  0  0  0
 11 12  1  0  0  0  0
 11 29  1  0  0  0  0
 11 30  1  0  0  0  0
 12 13  1  0  0  0  0
 12 17  1  0  0  0  0
 12 39  1  0  0  0  0
 13 14  1  0  0  0  0
 13 31  1  0  0  0  0
 13 32  1  0  0  0  0
 14 15  1  0  0  0  0
 14 16  2  0  0  0  0
 15 33  1  0  0  0  0
 15 34  1  0  0  0  0
 17 18  1  0  0  0  0
 17 35  1  0  0  0  0
 17 36  1  0  0  0  0
 18 37  1  0  0  0  0
 18 38  1  0  0  0  0
 19 20  1  0  0  0  0
M  CHG  1   5  -1
M  CHG  1  12   1
M  END
> <s_m_source_file>
AV-unprocessed.smi

> <i_m_source_file_index>
1417

> <i_lp_mmshare_version>
43012

> <i_f3d_flags>
0

> <s_epik_input>
W0NIM11jMVtjSF1jKG5vMSlbTkhdQyg9TylbTkhdW0NIXTJbQ0gyXVtDSDJdTihbQ0gyXVtDSDJdMilbQ0gyXUMoPU8pW05IMl0=

> <s_epik_cmdline>
J2VwaWtfcHl0aG9uJywgJy1waCcsICc3LjAnLCAnLXRuJywgJzgnLCAnLW1hJywgJzIwMCcsICctbWV0YWxfYmluZGluZycsICctaW1hZScsICc8aW5maWxlLm1hZT4nLCAnLW9tYWUnLCAnPG91dGZpbGUubWFlPic=

> <r_epik_Ionization_Penalty>
7.07562

> <r_epik_Ionization_Penalty_Charging>
7.07548

> <r_epik_Ionization_Penalty_Neutral>
0.00013758

> <r_epik_State_Penalty>
7.16607

> <r_epik_Charging_Adjusted_Penalty>
14.2416

> <i_epik_Tot_Q>
0

> <i_epik_Tot_abs_Q>
2

> <r_epik_Metal_State_Penalty>
3.11438

> <b_epik_Metal_Only>
1

> <s_lp_Force_Field>
OPLS_2005

> <r_lp_Energy>
2.10932

> <b_lp_Chiralities_Consistent>
1

> <s_lp_Variant>
AV-unprocessed.smi:1417-6

> <Gold.Version>
5.8.1

> <Gold.Id.Protein>
6NUR|6NUR_protein|mol2

> <Gold.PLP.Fitness>
46.6983

> <Gold.PLP.PLP>
-29.8188

> <Gold.PLP.part.hbond>
-5.0000

> <Gold.PLP.part.metal>
0.0000

> <Gold.PLP.part.buried>
-6.4825

> <Gold.PLP.part.nonpolar>
-18.1181

> <Gold.PLP.part.repulsive>
0.3982

> <Gold.PLP.ligand.clash>
0.0000

> <Gold.PLP.ligand.torsion>
0.1267

> <Gold.PLP.Chemscore.Hbond>
5.6960

> <Gold.PLP.Chemscore.CHOScore>
0.0000

> <Gold.PLP.Chemscore.Metal>
0.0000

> <Gold.Chemscore.Hbonds>
donor molecule, donor type, donor heavy atom, donor atom, acceptor molecule, acceptor atom, score
      L1  H     8    25       P1  8028  0.82
      L1  H    12    39       P1 10175  2.00
      L1  H    15    34       P1 10175  1.00
      P1  H  7989  7998       L1     7  0.98
      P1  H  7997  8008       L1    20  1.00

> <Gold.PLP.Chemscore.Internal.Correction>
0.0449

> <Gold.Rescore>
     Score         DG    S(hbond)    S(metal)    S(lipo)     H(rot)  DE(clash)    DE(int)     intcor
     17.02     -20.40       4.16        0.00      53.13       2.02       0.33       3.05       ----

> <Gold.Chemscore.Fitness>
17.0173

> <Gold.Chemscore.DG>
-20.3981

> <Gold.Chemscore.ZeroCoef>
-5.4800

> <Gold.Chemscore.Hbond>
4.1554

> <Gold.Chemscore.Metal>
0.0000

> <Gold.Chemscore.Lipo>
53.1279

> <Gold.Chemscore.Internal_Hbond>
0.0000

> <Gold.Chemscore.DEClash>
0.3298

> <Gold.Chemscore.DEInternal>
3.0510

> <Gold.Chemscore.Rot>
2.0222

> <Gold.Chemscore.Internal.Correction>
   9.000000E+99

> <Gold.Chemscore.Hbonds>
donor molecule, donor type, donor heavy atom, donor atom, acceptor molecule, acceptor atom, score
      L1  H     8    25       P1  8028  0.81
      L1  H    12    39       P1 10175  0.98
      L1  H    15    34       P1 10175  1.00
      P1  H  7989  7998       L1     7  0.73
      P1  H  7997  8008       L1    20  0.25

> <Gold.Chemscore.Hbond.Weighted>
-13.8791

> <Gold.Chemscore.Metal.Weighted>
-0.0000

> <Gold.Chemscore.Lipo.Weighted>
-6.2160

> <Gold.Chemscore.Internal_Hbond.Weighted>
0.0000

> <Gold.Chemscore.DEClash.Weighted>
0.3298

> <Gold.Chemscore.DEInternal.Weighted>
3.0510

> <Gold.Chemscore.Rot.Weighted>
5.1769

> <Gold.Chemscore.Internal.Correction.Weighted>
   9.000000E+99

> <Gold.Protein.RotatedTorsions>
[ 6907 6896 6895 6894 ] final  -76.60 input  -60.11 | X-H torsion
[ 7974 7965 7964 7962 ] final  -53.97 input  175.53 | X-H torsion
[ 8008 7997 7996 7995 ] final  -70.81 input   59.86 | X-H torsion
[ 10167 10162 10161 10158 ] final  -88.78 input  -65.29 | X-H torsion
[ 10718 10713 10712 10709 ] final  165.03 input   66.30 | X-H torsion
[ 10763 10752 10751 10750 ] final   52.81 input  -60.55 | X-H torsion
[ 11005 11000 10999 10996 ] final  154.88 input  -57.11 | X-H torsion

> <Gold.Protein.ActiveResidues>
 VAL166  LYS551  ARG553  GLY616  TRP617  ASP618  TYR619  PRO620  LYS621  CYS622 
 ASP623  PHE694  ASN695  SER759  ASP760  ASP761  ALA762  ILE779  LEU786  VAL792 
 PHE793  MET794  SER795  GLU796  ALA797  LYS798  CYS799  TRP800  GLU811  SER814 

> <Gold.Protein.RotatedAtoms>
  150.7023  134.4548  159.5352 H   0  0  0  0  0  0  0  0  0  0  0  0  # atno 6907 bound_to 6896
  152.2234  134.8388  160.0492 H   0  0  0  0  0  0  0  0  0  0  0  0  # atno 6908 bound_to 6896
  151.9231  133.3556  159.3941 H   0  0  0  0  0  0  0  0  0  0  0  0  # atno 6909 bound_to 6896
  145.8909  140.8071  142.9792 H   0  0  0  0  0  0  0  0  0  0  0  0  # atno 7974 bound_to 7965
  154.5040  140.0827  156.7857 H   0  0  0  0  0  0  0  0  0  0  0  0  # atno 8008 bound_to 7997
  155.3936  140.3433  155.4234 H   0  0  0  0  0  0  0  0  0  0  0  0  # atno 8009 bound_to 7997
  156.1492  140.1553  156.8784 H   0  0  0  0  0  0  0  0  0  0  0  0  # atno 8010 bound_to 7997
  140.3713  143.2793  151.9497 H   0  0  0  0  0  0  0  0  0  0  0  0  # atno 10167 bound_to 10162
  157.0860  131.0405  151.2556 H   0  0  0  0  0  0  0  0  0  0  0  0  # atno 10718 bound_to 10713
  152.9791  135.5800  154.4640 H   0  0  0  0  0  0  0  0  0  0  0  0  # atno 10763 bound_to 10752
  154.4212  135.2771  155.1976 H   0  0  0  0  0  0  0  0  0  0  0  0  # atno 10764 bound_to 10752
  154.3725  135.6165  153.5801 H   0  0  0  0  0  0  0  0  0  0  0  0  # atno 10765 bound_to 10752
  140.1530  134.8662  157.2478 H   0  0  0  0  0  0  0  0  0  0  0  0  # atno 11005 bound_to 11000
  144.6730  140.1528  143.7428 LP  0  0  0  0  0  0  0  0  0  0  0  0  # atno 17320 bound_to 7965
  145.8909  139.2375  143.1550 LP  0  0  0  0  0  0  0  0  0  0  0  0  # atno 17321 bound_to 7965
  139.4803  144.5904  151.7781 LP  0  0  0  0  0  0  0  0  0  0  0  0  # atno 17342 bound_to 10162
  140.5030  144.1140  150.5976 LP  0  0  0  0  0  0  0  0  0  0  0  0  # atno 17343 bound_to 10162
  157.4761  130.7737  149.7369 LP  0  0  0  0  0  0  0  0  0  0  0  0  # atno 17370 bound_to 10713
  155.9910  130.3940  150.3001 LP  0  0  0  0  0  0  0  0  0  0  0  0  # atno 17371 bound_to 10713
  140.2582  134.3603  155.7416 LP  0  0  0  0  0  0  0  0  0  0  0  0  # atno 17394 bound_to 11000
  141.2201  133.7354  156.9039 LP  0  0  0  0  0  0  0  0  0  0  0  0  # atno 17395 bound_to 11000

$$$$
