AV-unprocessed.smi:135|AV-procd|sdf|1169|dock3
  -GOLD-   2262018313D 1   1.00000     0.00000
 Structure written by MMmdl.
 51 54  0  0  0  0  0  0  0  0  1 V2000
  151.3091  137.1491  159.8075 O   0  0  0  0  0  0  0  0  0  0  0  0
  151.0986  137.4532  158.6326 C   0  0  0  0  0  0  0  0  0  0  0  0
  152.0958  138.3314  157.8616 C   0  0  0  0  0  0  0  0  0  0  0  0
  152.4818  139.5601  158.5887 N   0  0  0  0  0  0  0  0  0  0  0  0
  153.5811  139.4996  159.4802 C   0  0  0  0  0  0  0  0  0  0  0  0
  154.2114  138.4544  159.6468 O   0  0  0  0  0  0  0  0  0  0  0  0
  153.8961  140.7418  160.1762 C   0  0  0  0  0  0  0  0  0  0  0  0
  154.9204  140.7753  161.0454 F   0  0  0  0  0  0  0  0  0  0  0  0
  153.1732  141.8608  159.9644 C   0  0  0  0  0  0  0  0  0  0  0  0
  152.1050  141.9078  159.0855 N   0  0  0  0  0  0  0  0  0  0  0  0
  151.2824  143.1648  158.8833 C   0  0  2  0  0  0  0  0  0  0  0  0
  152.1523  144.3059  158.3169 C   0  0  0  0  0  0  0  0  0  0  0  0
  151.9190  145.4336  159.3033 C   0  0  0  0  0  0  0  0  0  0  0  0
  151.6009  144.6759  160.5829 C   0  0  0  0  0  0  0  0  0  0  0  0
  150.7856  143.6114  160.1129 O   0  0  0  0  0  0  0  0  0  0  0  0
  151.7248  140.7390  158.3899 C   0  0  0  0  0  0  0  0  0  0  0  0
  150.7531  140.7494  157.6312 O   0  0  0  0  0  0  0  0  0  0  0  0
  150.0199  137.0638  157.9318 N   0  0  0  0  0  0  0  0  0  0  0  0
  148.9572  136.2262  158.3624 C   0  0  0  0  0  0  0  0  0  0  0  0
  148.6235  136.0762  159.7298 C   0  0  0  0  0  0  0  0  0  0  0  0
  147.5353  135.2687  160.1111 C   0  0  0  0  0  0  0  0  0  0  0  0
  146.7641  134.6163  159.1317 C   0  0  0  0  0  0  0  0  0  0  0  0
  147.0816  134.7722  157.7696 C   0  0  0  0  0  0  0  0  0  0  0  0
  148.1772  135.5699  157.3799 C   0  0  0  0  0  0  0  0  0  0  0  0
  148.4619  135.7017  156.0434 O   0  0  0  0  0  0  0  0  0  0  0  0
  148.7578  134.5559  155.3479 C   0  0  0  0  0  0  0  0  0  0  0  0
  148.0295  134.1905  154.1940 C   0  0  0  0  0  0  0  0  0  0  0  0
  148.3506  133.0084  153.4988 C   0  0  0  0  0  0  0  0  0  0  0  0
  149.4033  132.1892  153.9499 C   0  0  0  0  0  0  0  0  0  0  0  0
  150.1386  132.5553  155.0936 C   0  0  0  0  0  0  0  0  0  0  0  0
  149.8183  133.7378  155.7881 C   0  0  0  0  0  0  0  0  0  0  0  0
  152.9794  137.7389  157.6172 H   0  0  0  0  0  0  0  0  0  0  0  0
  151.6601  138.5661  156.8893 H   0  0  0  0  0  0  0  0  0  0  0  0
  153.4563  142.7432  160.5174 H   0  0  0  0  0  0  0  0  0  0  0  0
  150.4551  142.8679  158.2362 H   0  0  0  0  0  0  0  0  0  0  0  0
  153.2044  144.0171  158.3106 H   0  0  0  0  0  0  0  0  0  0  0  0
  151.8485  144.5590  157.3009 H   0  0  0  0  0  0  0  0  0  0  0  0
  152.7764  146.0996  159.4025 H   0  0  0  0  0  0  0  0  0  0  0  0
  151.0564  146.0273  158.9975 H   0  0  0  0  0  0  0  0  0  0  0  0
  152.5106  144.2828  161.0390 H   0  0  0  0  0  0  0  0  0  0  0  0
  151.0801  145.2877  161.3194 H   0  0  0  0  0  0  0  0  0  0  0  0
  150.0209  137.2953  156.9491 H   0  0  0  0  0  0  0  0  0  0  0  0
  149.1835  136.5876  160.4983 H   0  0  0  0  0  0  0  0  0  0  0  0
  147.2867  135.1578  161.1562 H   0  0  0  0  0  0  0  0  0  0  0  0
  145.9262  134.0010  159.4246 H   0  0  0  0  0  0  0  0  0  0  0  0
  146.4857  134.2737  157.0194 H   0  0  0  0  0  0  0  0  0  0  0  0
  147.2217  134.8137  153.8403 H   0  0  0  0  0  0  0  0  0  0  0  0
  147.7889  132.7299  152.6195 H   0  0  0  0  0  0  0  0  0  0  0  0
  149.6478  131.2816  153.4180 H   0  0  0  0  0  0  0  0  0  0  0  0
  150.9466  131.9280  155.4398 H   0  0  0  0  0  0  0  0  0  0  0  0
  150.3832  134.0129  156.6665 H   0  0  0  0  0  0  0  0  0  0  0  0
  1  2  2  0  0  0  0
  2  3  1  0  0  0  0
  2 18  1  0  0  0  0
  3  4  1  0  0  0  0
  3 32  1  0  0  0  0
  3 33  1  0  0  0  0
  4 16  1  0  0  0  0
  4  5  1  0  0  0  0
  5  6  2  0  0  0  0
  5  7  1  0  0  0  0
  7  8  1  0  0  0  0
  7  9  2  0  0  0  0
  9 10  1  0  0  0  0
  9 34  1  0  0  0  0
 10 11  1  0  0  0  0
 10 16  1  0  0  0  0
 11 15  1  0  0  0  0
 11 12  1  0  0  0  0
 11 35  1  0  0  0  0
 12 13  1  0  0  0  0
 12 36  1  0  0  0  0
 12 37  1  0  0  0  0
 13 14  1  0  0  0  0
 13 38  1  0  0  0  0
 13 39  1  0  0  0  0
 14 15  1  0  0  0  0
 14 40  1  0  0  0  0
 14 41  1  0  0  0  0
 16 17  2  0  0  0  0
 18 19  1  0  0  0  0
 18 42  1  0  0  0  0
 19 24  1  0  0  0  0
 19 20  2  0  0  0  0
 20 21  1  0  0  0  0
 20 43  1  0  0  0  0
 21 22  2  0  0  0  0
 21 44  1  0  0  0  0
 22 23  1  0  0  0  0
 22 45  1  0  0  0  0
 23 24  2  0  0  0  0
 23 46  1  0  0  0  0
 24 25  1  0  0  0  0
 25 26  1  0  0  0  0
 26 31  1  0  0  0  0
 26 27  2  0  0  0  0
 27 28  1  0  0  0  0
 27 47  1  0  0  0  0
 28 29  2  0  0  0  0
 28 48  1  0  0  0  0
 29 30  1  0  0  0  0
 29 49  1  0  0  0  0
 30 31  2  0  0  0  0
 30 50  1  0  0  0  0
 31 51  1  0  0  0  0
M  END
> <s_m_source_file>
AV-unprocessed.smi

> <i_m_source_file_index>
135

> <i_lp_mmshare_version>
43012

> <i_f3d_flags>
0

> <s_epik_input>
TzFbQ0gyXVtDSDJdW0NIMl1bQ0BIXTFuKGMyPU8pW2NIXWMoRiljKD1PKW4yW0NIMl1DKD1PKVtOSF1jM1tjSF1bY0hdW2NIXVtjSF1jM09jNFtjSF1bY0hdW2NIXVtjSF1bY0hdNA==

> <s_epik_cmdline>
J2VwaWtfcHl0aG9uJywgJy1waCcsICc3LjAnLCAnLXRuJywgJzgnLCAnLW1hJywgJzIwMCcsICctbWV0YWxfYmluZGluZycsICctaW1hZScsICc8aW5maWxlLm1hZT4nLCAnLW9tYWUnLCAnPG91dGZpbGUubWFlPic=

> <r_lp_tautomer_probability>
1

> <r_epik_Ionization_Penalty>
1.89877e-06

> <r_epik_Ionization_Penalty_Charging>
3.88729e-08

> <r_epik_Ionization_Penalty_Neutral>
1.8599e-06

> <r_epik_State_Penalty>
-0

> <r_epik_Charging_Adjusted_Penalty>
3.88729e-08

> <i_epik_Tot_Q>
0

> <i_epik_Tot_abs_Q>
0

> <r_epik_Metal_State_Penalty>
-0

> <b_epik_Metal_Only>
0

> <s_epik_Chemistry_Notes>
This compound contains an acetal/aminal-like group ( X-CH(R)-Y where X, Y are N, S, or O) that may be acid/base labile, releasing an aldehyde.

> <s_lp_Force_Field>
OPLS_2005

> <r_lp_Energy>
40.0565

> <b_lp_Chiralities_Consistent>
1

> <s_lp_Variant>
AV-unprocessed.smi:135-1

> <Gold.Version>
5.8.1

> <Gold.Id.Protein>
6NUR|6NUR_protein|mol2

> <Gold.PLP.Fitness>
54.2878

> <Gold.PLP.PLP>
-52.5475

> <Gold.PLP.part.hbond>
-1.7431

> <Gold.PLP.part.metal>
0.0000

> <Gold.PLP.part.buried>
-5.7588

> <Gold.PLP.part.nonpolar>
-45.8627

> <Gold.PLP.part.repulsive>
0.2086

> <Gold.PLP.ligand.clash>
0.0000

> <Gold.PLP.ligand.torsion>
0.6165

> <Gold.PLP.Chemscore.Hbond>
0.9750

> <Gold.PLP.Chemscore.CHOScore>
0.0000

> <Gold.PLP.Chemscore.Metal>
0.0000

> <Gold.Chemscore.Hbonds>
donor molecule, donor type, donor heavy atom, donor atom, acceptor molecule, acceptor atom, score
      P1  H  6896  6907       L1     1  0.98

> <Gold.PLP.Chemscore.Internal.Correction>
0.0483

> <Gold.Rescore>
     Score         DG    S(hbond)    S(metal)    S(lipo)     H(rot)  DE(clash)    DE(int)     intcor
     14.15     -15.97       0.92        0.00     107.98       2.04       0.00       1.82       ----

> <Gold.Chemscore.Fitness>
14.1540

> <Gold.Chemscore.DG>
-15.9722

> <Gold.Chemscore.ZeroCoef>
-5.4800

> <Gold.Chemscore.Hbond>
0.9207

> <Gold.Chemscore.Metal>
0.0000

> <Gold.Chemscore.Lipo>
107.9799

> <Gold.Chemscore.Internal_Hbond>
0.0000

> <Gold.Chemscore.DEClash>
0.0000

> <Gold.Chemscore.DEInternal>
1.8182

> <Gold.Chemscore.Rot>
2.0377

> <Gold.Chemscore.Internal.Correction>
   9.000000E+99

> <Gold.Chemscore.Hbonds>
donor molecule, donor type, donor heavy atom, donor atom, acceptor molecule, acceptor atom, score
      P1  H  6896  6907       L1     1  0.50

> <Gold.Chemscore.Hbond.Weighted>
-3.0751

> <Gold.Chemscore.Metal.Weighted>
-0.0000

> <Gold.Chemscore.Lipo.Weighted>
-12.6336

> <Gold.Chemscore.Internal_Hbond.Weighted>
0.0000

> <Gold.Chemscore.DEClash.Weighted>
0.0000

> <Gold.Chemscore.DEInternal.Weighted>
1.8182

> <Gold.Chemscore.Rot.Weighted>
5.2165

> <Gold.Chemscore.Internal.Correction.Weighted>
   9.000000E+99

> <Gold.Protein.RotatedTorsions>
[ 6907 6896 6895 6894 ] final  -23.62 input  -60.11 | X-H torsion
[ 7974 7965 7964 7962 ] final -102.95 input  175.53 | X-H torsion
[ 8008 7997 7996 7995 ] final    3.92 input   59.86 | X-H torsion
[ 10167 10162 10161 10158 ] final   74.71 input  -65.29 | X-H torsion
[ 10718 10713 10712 10709 ] final    7.46 input   66.30 | X-H torsion
[ 10763 10752 10751 10750 ] final   26.11 input  -60.55 | X-H torsion
[ 11005 11000 10999 10996 ] final  121.85 input  -57.11 | X-H torsion

> <Gold.Protein.ActiveResidues>
 VAL166  LYS551  ARG553  GLY616  TRP617  ASP618  TYR619  PRO620  LYS621  CYS622 
 ASP623  PHE694  ASN695  SER759  ASP760  ASP761  ALA762  ILE779  LEU786  VAL792 
 PHE793  MET794  SER795  GLU796  ALA797  LYS798  CYS799  TRP800  GLU811  SER814 

> <Gold.Protein.RotatedAtoms>
  151.2013  135.0443  159.8873 H   0  0  0  0  0  0  0  0  0  0  0  0  # atno 6907 bound_to 6896
  152.5432  134.0847  159.8261 H   0  0  0  0  0  0  0  0  0  0  0  0  # atno 6908 bound_to 6896
  151.0988  133.5212  159.2643 H   0  0  0  0  0  0  0  0  0  0  0  0  # atno 6909 bound_to 6896
  145.2622  140.9273  143.3034 H   0  0  0  0  0  0  0  0  0  0  0  0  # atno 7974 bound_to 7965
  154.7096  140.2690  155.6642 H   0  0  0  0  0  0  0  0  0  0  0  0  # atno 8008 bound_to 7997
  156.2791  140.2756  156.1658 H   0  0  0  0  0  0  0  0  0  0  0  0  # atno 8009 bound_to 7997
  155.0653  140.0371  157.2580 H   0  0  0  0  0  0  0  0  0  0  0  0  # atno 8010 bound_to 7997
  140.0107  144.5616  150.7661 H   0  0  0  0  0  0  0  0  0  0  0  0  # atno 10167 bound_to 10162
  156.9373  130.5848  149.5651 H   0  0  0  0  0  0  0  0  0  0  0  0  # atno 10718 bound_to 10713
  153.0645  135.6568  154.0386 H   0  0  0  0  0  0  0  0  0  0  0  0  # atno 10763 bound_to 10752
  154.0046  135.2934  155.3400 H   0  0  0  0  0  0  0  0  0  0  0  0  # atno 10764 bound_to 10752
  154.6997  135.5249  153.8578 H   0  0  0  0  0  0  0  0  0  0  0  0  # atno 10765 bound_to 10752
  139.9243  134.9640  156.8020 H   0  0  0  0  0  0  0  0  0  0  0  0  # atno 11005 bound_to 11000
  144.9408  139.4191  143.6450 LP  0  0  0  0  0  0  0  0  0  0  0  0  # atno 17320 bound_to 7965
  146.3272  139.8367  142.8898 LP  0  0  0  0  0  0  0  0  0  0  0  0  # atno 17321 bound_to 7965
  140.7382  143.2775  151.3696 LP  0  0  0  0  0  0  0  0  0  0  0  0  # atno 17342 bound_to 10162
  139.6207  144.0913  152.2388 LP  0  0  0  0  0  0  0  0  0  0  0  0  # atno 17343 bound_to 10162
  156.0420  130.5501  150.8793 LP  0  0  0  0  0  0  0  0  0  0  0  0  # atno 17370 bound_to 10713
  157.5808  131.0946  150.9274 LP  0  0  0  0  0  0  0  0  0  0  0  0  # atno 17371 bound_to 10713
  140.6382  133.9843  155.7694 LP  0  0  0  0  0  0  0  0  0  0  0  0  # atno 17394 bound_to 11000
  141.0789  134.0093  157.3416 LP  0  0  0  0  0  0  0  0  0  0  0  0  # atno 17395 bound_to 11000

$$$$
