AV-unprocessed.smi:1619|AV-procd|sdf|6487|dock3
  -GOLD-   22720 7153D 1   1.00000     0.00000
 Structure written by MMmdl.
 44 46  0  0  0  0  0  0  0  0  2 V2000
  152.9982  143.0556  161.1667 C   0  0  0  0  0  0  0  0  0  0  0  0
  152.4177  142.7120  159.8063 C   0  0  0  0  0  0  0  0  0  0  0  0
  152.7782  141.4903  159.1941 C   0  0  0  0  0  0  0  0  0  0  0  0
  152.2604  141.1331  157.9301 C   0  0  0  0  0  0  0  0  0  0  0  0
  152.4729  140.0046  157.1567 N   0  0  0  0  0  0  0  0  0  0  0  0
  151.7140  140.2601  156.0949 C   0  0  0  0  0  0  0  0  0  0  0  0
  151.0311  141.4214  156.0904 N   0  0  0  0  0  0  0  0  0  0  0  0
  150.1442  141.9180  155.0538 C   0  0  0  0  0  0  0  0  0  0  0  0
  149.1436  140.8481  154.5770 C   0  0  2  0  0  0  0  0  0  0  0  0
  149.8063  139.9347  153.7232 O   0  0  0  0  0  0  0  0  0  0  0  0
  147.9540  141.4686  153.8198 C   0  0  0  0  0  0  0  0  0  0  0  0
  147.3186  142.5716  154.5800 N   0  3  0  0  0  0  0  0  0  0  0  0
  146.2384  143.2967  153.8667 C   0  0  0  0  0  0  0  0  0  0  0  0
  145.1063  143.5196  154.8788 C   0  0  0  0  0  0  0  0  0  0  0  0
  145.7378  143.2241  156.2355 C   0  0  0  0  0  0  0  0  0  0  0  0
  146.7876  142.1708  155.8979 C   0  0  0  0  0  0  0  0  0  0  0  0
  151.3654  142.0394  157.2901 C   0  0  0  0  0  0  0  0  0  0  0  0
  151.0007  143.2588  157.8875 C   0  0  0  0  0  0  0  0  0  0  0  0
  151.5267  143.5997  159.1512 C   0  0  0  0  0  0  0  0  0  0  0  0
  151.1261  144.9182  159.7893 C   0  0  0  0  0  0  0  0  0  0  0  0
  153.6371  142.2551  161.5409 H   0  0  0  0  0  0  0  0  0  0  0  0
  152.2018  143.2142  161.8942 H   0  0  0  0  0  0  0  0  0  0  0  0
  153.5995  143.9630  161.1061 H   0  0  0  0  0  0  0  0  0  0  0  0
  153.4579  140.8148  159.6924 H   0  0  0  0  0  0  0  0  0  0  0  0
  151.6484  139.5609  155.2741 H   0  0  0  0  0  0  0  0  0  0  0  0
  149.6108  142.7811  155.4539 H   0  0  0  0  0  0  0  0  0  0  0  0
  150.7459  142.2825  154.2196 H   0  0  0  0  0  0  0  0  0  0  0  0
  148.7812  140.2974  155.4457 H   0  0  0  0  0  0  0  0  0  0  0  0
  149.4353  140.0044  152.8565 H   0  0  0  0  0  0  0  0  0  0  0  0
  148.2775  141.8485  152.8493 H   0  0  0  0  0  0  0  0  0  0  0  0
  147.2100  140.6962  153.6167 H   0  0  0  0  0  0  0  0  0  0  0  0
  146.6345  144.2458  153.5041 H   0  0  0  0  0  0  0  0  0  0  0  0
  145.8704  142.7410  153.0028 H   0  0  0  0  0  0  0  0  0  0  0  0
  144.6836  144.5234  154.8228 H   0  0  0  0  0  0  0  0  0  0  0  0
  144.3003  142.8093  154.6892 H   0  0  0  0  0  0  0  0  0  0  0  0
  146.2216  144.1212  156.6244 H   0  0  0  0  0  0  0  0  0  0  0  0
  145.0143  142.8818  156.9759 H   0  0  0  0  0  0  0  0  0  0  0  0
  146.3120  141.1912  155.8219 H   0  0  0  0  0  0  0  0  0  0  0  0
  147.5764  142.1071  156.6484 H   0  0  0  0  0  0  0  0  0  0  0  0
  150.3214  143.9254  157.3774 H   0  0  0  0  0  0  0  0  0  0  0  0
  150.4510  145.4831  159.1459 H   0  0  0  0  0  0  0  0  0  0  0  0
  152.0052  145.5355  159.9752 H   0  0  0  0  0  0  0  0  0  0  0  0
  150.6172  144.7444  160.7378 H   0  0  0  0  0  0  0  0  0  0  0  0
  148.0393  143.2545  154.7677 H   0  0  0  0  0  0  0  0  0  0  0  0
  1  2  1  0  0  0  0
  1 21  1  0  0  0  0
  1 22  1  0  0  0  0
  1 23  1  0  0  0  0
  2 19  1  0  0  0  0
  2  3  2  0  0  0  0
  3  4  1  0  0  0  0
  3 24  1  0  0  0  0
  4 17  2  0  0  0  0
  4  5  1  0  0  0  0
  5  6  2  0  0  0  0
  6  7  1  0  0  0  0
  6 25  1  0  0  0  0
  7  8  1  0  0  0  0
  7 17  1  0  0  0  0
  8  9  1  0  0  0  0
  8 26  1  0  0  0  0
  8 27  1  0  0  0  0
  9 10  1  0  0  0  0
  9 11  1  0  0  0  0
  9 28  1  0  0  0  0
 10 29  1  0  0  0  0
 11 12  1  0  0  0  0
 11 30  1  0  0  0  0
 11 31  1  0  0  0  0
 12 16  1  0  0  0  0
 12 13  1  0  0  0  0
 12 44  1  0  0  0  0
 13 14  1  0  0  0  0
 13 32  1  0  0  0  0
 13 33  1  0  0  0  0
 14 15  1  0  0  0  0
 14 34  1  0  0  0  0
 14 35  1  0  0  0  0
 15 16  1  0  0  0  0
 15 36  1  0  0  0  0
 15 37  1  0  0  0  0
 16 38  1  0  0  0  0
 16 39  1  0  0  0  0
 17 18  1  0  0  0  0
 18 19  2  0  0  0  0
 18 40  1  0  0  0  0
 19 20  1  0  0  0  0
 20 41  1  0  0  0  0
 20 42  1  0  0  0  0
 20 43  1  0  0  0  0
M  CHG  1  12   1
M  END
> <s_m_source_file>
AV-unprocessed.smi

> <i_m_source_file_index>
1619

> <i_lp_mmshare_version>
43012

> <i_f3d_flags>
0

> <s_epik_input>
W0NIM11jKFtjSF0xKWMoW0NIM10pW2NIXWMoYzEyKW4oW2NIXW4yKVtDSDJdW0NASF0oW09IXSlbQ0gyXU4zW0NIMl1bQ0gyXVtDSDJdW0NIMl0z

> <s_epik_cmdline>
J2VwaWtfcHl0aG9uJywgJy1waCcsICc3LjAnLCAnLXRuJywgJzgnLCAnLW1hJywgJzIwMCcsICctbWV0YWxfYmluZGluZycsICctaW1hZScsICc8aW5maWxlLm1hZT4nLCAnLW9tYWUnLCAnPG91dGZpbGUubWFlPic=

> <r_epik_Ionization_Penalty>
0.0947557

> <r_epik_Ionization_Penalty_Charging>
0.00674132

> <r_epik_Ionization_Penalty_Neutral>
0.0880144

> <r_epik_State_Penalty>
0.0806172

> <r_epik_Charging_Adjusted_Penalty>
0.0873585

> <i_epik_Tot_Q>
1

> <i_epik_Tot_abs_Q>
1

> <r_epik_Metal_State_Penalty>
8.03852e-05

> <b_epik_Metal_Only>
0

> <s_lp_Force_Field>
OPLS_2005

> <r_lp_Energy>
32.0343

> <b_lp_Chiralities_Consistent>
1

> <s_lp_Variant>
AV-unprocessed.smi:1619-1

> <Gold.Version>
5.8.1

> <Gold.Id.Protein>
6NUR|6NUR_protein|mol2

> <Gold.PLP.Fitness>
60.4762

> <Gold.PLP.PLP>
-46.7263

> <Gold.PLP.part.hbond>
-4.0000

> <Gold.PLP.part.metal>
0.0000

> <Gold.PLP.part.buried>
-5.1598

> <Gold.PLP.part.nonpolar>
-36.8163

> <Gold.PLP.part.repulsive>
0.1342

> <Gold.PLP.ligand.clash>
0.0000

> <Gold.PLP.ligand.torsion>
0.3280

> <Gold.PLP.Chemscore.Hbond>
4.7644

> <Gold.PLP.Chemscore.CHOScore>
0.0000

> <Gold.PLP.Chemscore.Metal>
0.0000

> <Gold.Chemscore.Hbonds>
donor molecule, donor type, donor heavy atom, donor atom, acceptor molecule, acceptor atom, score
      L1  H    10    29       P1  7957  1.00
      L1  H    12    44       P1  8028  2.00
      P1  H  7989  7998       L1    10  0.72
      P1  H  7997  8010       L1     5  1.00

> <Gold.PLP.Chemscore.Internal.Correction>
0.1128

> <Gold.Rescore>
     Score         DG    S(hbond)    S(metal)    S(lipo)     H(rot)  DE(clash)    DE(int)     intcor
     20.92     -22.03       2.47        0.00     115.27       2.02       0.64       0.48       ----

> <Gold.Chemscore.Fitness>
20.9192

> <Gold.Chemscore.DG>
-22.0320

> <Gold.Chemscore.ZeroCoef>
-5.4800

> <Gold.Chemscore.Hbond>
2.4680

> <Gold.Chemscore.Metal>
0.0000

> <Gold.Chemscore.Lipo>
115.2724

> <Gold.Chemscore.Internal_Hbond>
0.0000

> <Gold.Chemscore.DEClash>
0.6363

> <Gold.Chemscore.DEInternal>
0.4766

> <Gold.Chemscore.Rot>
2.0227

> <Gold.Chemscore.Internal.Correction>
   9.000000E+99

> <Gold.Chemscore.Hbonds>
donor molecule, donor type, donor heavy atom, donor atom, acceptor molecule, acceptor atom, score
      L1  H    10    29       P1  7957  0.95
      L1  H    12    44       P1  8028  0.89
      P1  H  7989  7998       L1    10  0.06
      P1  H  7997  8010       L1     5  0.26

> <Gold.Chemscore.Hbond.Weighted>
-8.2431

> <Gold.Chemscore.Metal.Weighted>
-0.0000

> <Gold.Chemscore.Lipo.Weighted>
-13.4869

> <Gold.Chemscore.Internal_Hbond.Weighted>
0.0000

> <Gold.Chemscore.DEClash.Weighted>
0.6363

> <Gold.Chemscore.DEInternal.Weighted>
0.4766

> <Gold.Chemscore.Rot.Weighted>
5.1780

> <Gold.Chemscore.Internal.Correction.Weighted>
   9.000000E+99

> <Gold.Protein.RotatedTorsions>
[ 6907 6896 6895 6894 ] final  130.97 input  -60.11 | X-H torsion
[ 7974 7965 7964 7962 ] final  156.78 input  175.53 | X-H torsion
[ 8008 7997 7996 7995 ] final   69.54 input   59.86 | X-H torsion
[ 10167 10162 10161 10158 ] final  125.44 input  -65.29 | X-H torsion
[ 10718 10713 10712 10709 ] final  -35.48 input   66.30 | X-H torsion
[ 10763 10752 10751 10750 ] final -156.45 input  -60.55 | X-H torsion
[ 11005 11000 10999 10996 ] final  -90.43 input  -57.11 | X-H torsion

> <Gold.Protein.ActiveResidues>
 VAL166  LYS551  ARG553  GLY616  TRP617  ASP618  TYR619  PRO620  LYS621  CYS622 
 ASP623  PHE694  ASN695  SER759  ASP760  ASP761  ALA762  ILE779  LEU786  VAL792 
 PHE793  MET794  SER795  GLU796  ALA797  LYS798  CYS799  TRP800  GLU811  SER814 

> <Gold.Protein.RotatedAtoms>
  152.3473  133.6137  159.5919 H   0  0  0  0  0  0  0  0  0  0  0  0  # atno 6907 bound_to 6896
  150.7515  133.9629  159.3530 H   0  0  0  0  0  0  0  0  0  0  0  0  # atno 6908 bound_to 6896
  151.7486  135.0839  160.0378 H   0  0  0  0  0  0  0  0  0  0  0  0  # atno 6909 bound_to 6896
  144.7942  139.7250  143.6208 H   0  0  0  0  0  0  0  0  0  0  0  0  # atno 7974 bound_to 7965
  155.7251  140.3492  155.5033 H   0  0  0  0  0  0  0  0  0  0  0  0  # atno 8008 bound_to 7997
  155.9234  140.1071  157.1211 H   0  0  0  0  0  0  0  0  0  0  0  0  # atno 8009 bound_to 7997
  154.4073  140.1245  156.4695 H   0  0  0  0  0  0  0  0  0  0  0  0  # atno 8010 bound_to 7997
  139.5685  144.6925  151.3843 H   0  0  0  0  0  0  0  0  0  0  0  0  # atno 10167 bound_to 10162
  156.3381  130.4289  149.7812 H   0  0  0  0  0  0  0  0  0  0  0  0  # atno 10718 bound_to 10713
  154.7711  135.3145  154.8186 H   0  0  0  0  0  0  0  0  0  0  0  0  # atno 10763 bound_to 10752
  153.8921  135.6824  153.4764 H   0  0  0  0  0  0  0  0  0  0  0  0  # atno 10764 bound_to 10752
  153.1326  135.4774  154.9307 H   0  0  0  0  0  0  0  0  0  0  0  0  # atno 10765 bound_to 10752
  141.1566  133.7692  156.9737 H   0  0  0  0  0  0  0  0  0  0  0  0  # atno 11005 bound_to 11000
  146.2205  139.5627  142.9621 LP  0  0  0  0  0  0  0  0  0  0  0  0  # atno 17320 bound_to 7965
  145.5715  141.0393  143.2171 LP  0  0  0  0  0  0  0  0  0  0  0  0  # atno 17321 bound_to 7965
  140.6969  143.7726  150.7341 LP  0  0  0  0  0  0  0  0  0  0  0  0  # atno 17342 bound_to 10162
  140.1225  143.4599  152.2304 LP  0  0  0  0  0  0  0  0  0  0  0  0  # atno 17343 bound_to 10162
  156.5058  130.8150  151.3150 LP  0  0  0  0  0  0  0  0  0  0  0  0  # atno 17370 bound_to 10713
  157.7442  130.9930  150.2655 LP  0  0  0  0  0  0  0  0  0  0  0  0  # atno 17371 bound_to 10713
  140.1112  134.9475  157.2068 LP  0  0  0  0  0  0  0  0  0  0  0  0  # atno 17394 bound_to 11000
  140.3191  134.2937  155.7250 LP  0  0  0  0  0  0  0  0  0  0  0  0  # atno 17395 bound_to 11000

$$$$
