AV-unprocessed.smi:690|AV-procd|sdf|3362|dock7
  -GOLD-   22720 0343D 1   1.00000     0.00000
 Structure written by MMmdl.
 46 48  0  0  0  0  0  0  0  0  1 V2000
  143.8601  144.5860  154.6821 C   0  0  0  0  0  0  0  0  0  0  0  0
  144.0756  143.4414  155.6742 C   0  0  0  0  0  0  0  0  0  0  0  0
  144.9435  142.4867  155.0877 O   0  0  0  0  0  0  0  0  0  0  0  0
  145.6980  141.7635  156.0473 C   0  0  2  0  0  0  0  0  0  0  0  0
  146.4913  142.6325  157.0281 C   0  0  0  0  0  0  0  0  0  0  0  0
  147.5829  141.5636  156.9177 C   0  0  2  0  0  0  0  0  0  0  0  0
  148.9321  142.1160  156.9368 N   0  0  0  0  0  0  0  0  0  0  0  0
  150.0018  141.4907  157.4472 C   0  0  0  0  0  0  0  0  0  0  0  0
  149.9452  140.3762  157.9681 O   0  0  0  0  0  0  0  0  0  0  0  0
  151.3291  142.2582  157.3738 C   0  0  0  0  0  0  0  0  0  0  0  0
  152.0418  142.3043  158.6611 N   0  0  0  0  0  0  0  0  0  0  0  0
  151.8343  143.4388  159.4712 C   0  0  0  0  0  0  0  0  0  0  0  0
  152.4329  143.5778  160.6646 C   0  0  0  0  0  0  0  0  0  0  0  0
  153.3118  142.5243  161.1144 C   0  0  0  0  0  0  0  0  0  0  0  0
  153.5156  141.4340  160.3484 C   0  0  0  0  0  0  0  0  0  0  0  0
  152.8625  141.2773  159.0437 C   0  0  0  0  0  0  0  0  0  0  0  0
  153.0426  140.2846  158.3378 O   0  0  0  0  0  0  0  0  0  0  0  0
  147.0484  141.2352  155.5018 C   0  0  0  0  0  0  0  0  0  0  0  0
  147.6468  141.9562  154.2864 C   0  0  0  0  0  0  0  0  0  0  0  0
  147.1499  141.2100  153.0467 C   0  0  0  0  0  0  0  0  0  0  0  0
  146.8411  139.7862  153.5218 C   0  0  0  0  0  0  0  0  0  0  0  0
  147.0842  139.7839  155.0353 C   0  0  0  0  0  0  0  0  0  0  0  0
  143.1904  145.3398  155.0962 H   0  0  0  0  0  0  0  0  0  0  0  0
  143.4201  144.2206  153.7540 H   0  0  0  0  0  0  0  0  0  0  0  0
  144.8035  145.0742  154.4370 H   0  0  0  0  0  0  0  0  0  0  0  0
  144.5050  143.8267  156.5999 H   0  0  0  0  0  0  0  0  0  0  0  0
  143.1191  142.9783  155.9205 H   0  0  0  0  0  0  0  0  0  0  0  0
  145.1201  140.9833  156.5488 H   0  0  0  0  0  0  0  0  0  0  0  0
  146.7774  143.6008  156.6127 H   0  0  0  0  0  0  0  0  0  0  0  0
  146.0448  142.7298  158.0178 H   0  0  0  0  0  0  0  0  0  0  0  0
  147.4281  140.7393  157.6183 H   0  0  0  0  0  0  0  0  0  0  0  0
  149.0599  143.0318  156.5313 H   0  0  0  0  0  0  0  0  0  0  0  0
  151.9687  141.8135  156.6087 H   0  0  0  0  0  0  0  0  0  0  0  0
  151.1163  143.2665  157.0162 H   0  0  0  0  0  0  0  0  0  0  0  0
  151.1580  144.1772  159.0656 H   0  0  0  0  0  0  0  0  0  0  0  0
  152.2587  144.4523  161.2739 H   0  0  0  0  0  0  0  0  0  0  0  0
  153.8071  142.6102  162.0704 H   0  0  0  0  0  0  0  0  0  0  0  0
  154.1756  140.6554  160.7018 H   0  0  0  0  0  0  0  0  0  0  0  0
  147.3867  143.0143  154.2472 H   0  0  0  0  0  0  0  0  0  0  0  0
  148.7359  141.9016  154.3080 H   0  0  0  0  0  0  0  0  0  0  0  0
  146.2394  141.6777  152.6703 H   0  0  0  0  0  0  0  0  0  0  0  0
  147.8849  141.2273  152.2415 H   0  0  0  0  0  0  0  0  0  0  0  0
  145.8017  139.5394  153.3019 H   0  0  0  0  0  0  0  0  0  0  0  0
  147.4662  139.0463  153.0211 H   0  0  0  0  0  0  0  0  0  0  0  0
  148.0649  139.3540  155.2435 H   0  0  0  0  0  0  0  0  0  0  0  0
  146.3536  139.1610  155.5524 H   0  0  0  0  0  0  0  0  0  0  0  0
  1  2  1  0  0  0  0
  1 23  1  0  0  0  0
  1 24  1  0  0  0  0
  1 25  1  0  0  0  0
  2  3  1  0  0  0  0
  2 26  1  0  0  0  0
  2 27  1  0  0  0  0
  3  4  1  0  0  0  0
  4 18  1  0  0  0  0
  4  5  1  0  0  0  0
  4 28  1  0  0  0  0
  5  6  1  0  0  0  0
  5 29  1  0  0  0  0
  5 30  1  0  0  0  0
  6  7  1  0  0  0  0
  6 18  1  0  0  0  0
  6 31  1  0  0  0  0
  7  8  1  0  0  0  0
  7 32  1  0  0  0  0
  8  9  2  0  0  0  0
  8 10  1  0  0  0  0
 10 11  1  0  0  0  0
 10 33  1  0  0  0  0
 10 34  1  0  0  0  0
 11 16  1  0  0  0  0
 11 12  1  0  0  0  0
 12 13  2  0  0  0  0
 12 35  1  0  0  0  0
 13 14  1  0  0  0  0
 13 36  1  0  0  0  0
 14 15  2  0  0  0  0
 14 37  1  0  0  0  0
 15 16  1  0  0  0  0
 15 38  1  0  0  0  0
 16 17  2  0  0  0  0
 18 22  1  0  0  0  0
 18 19  1  0  0  0  0
 19 20  1  0  0  0  0
 19 39  1  0  0  0  0
 19 40  1  0  0  0  0
 20 21  1  0  0  0  0
 20 41  1  0  0  0  0
 20 42  1  0  0  0  0
 21 22  1  0  0  0  0
 21 43  1  0  0  0  0
 21 44  1  0  0  0  0
 22 45  1  0  0  0  0
 22 46  1  0  0  0  0
M  END
> <s_m_source_file>
AV-unprocessed.smi

> <i_m_source_file_index>
690

> <i_lp_mmshare_version>
43012

> <i_f3d_flags>
0

> <s_epik_input>
W0NIMl0xW0NIMl1bQ0gyXVtDSDJdQzEyW0NASF0oT1tDSDJdW0NIM10pW0NIMl1bQ0BIXTJbTkhdQyg9TylbQ0gyXW4zW2NIXVtjSF1bY0hdW2NIXWMzPU8=

> <s_epik_cmdline>
J2VwaWtfcHl0aG9uJywgJy1waCcsICc3LjAnLCAnLXRuJywgJzgnLCAnLW1hJywgJzIwMCcsICctbWV0YWxfYmluZGluZycsICctaW1hZScsICc8aW5maWxlLm1hZT4nLCAnLW9tYWUnLCAnPG91dGZpbGUubWFlPic=

> <r_lp_tautomer_probability>
1

> <r_epik_Ionization_Penalty>
4.11691e-07

> <r_epik_Ionization_Penalty_Charging>
3.92797e-07

> <r_epik_Ionization_Penalty_Neutral>
1.88943e-08

> <r_epik_State_Penalty>
-0

> <r_epik_Charging_Adjusted_Penalty>
3.92797e-07

> <i_epik_Tot_Q>
0

> <i_epik_Tot_abs_Q>
0

> <r_epik_Metal_State_Penalty>
-0

> <b_epik_Metal_Only>
0

> <s_lp_Force_Field>
OPLS_2005

> <r_lp_Energy>
45.5322

> <b_lp_Chiralities_Consistent>
1

> <s_lp_Variant>
AV-unprocessed.smi:690-3

> <Gold.Version>
5.8.1

> <Gold.Id.Protein>
6NUR|6NUR_protein|mol2

> <Gold.PLP.Fitness>
42.9336

> <Gold.PLP.PLP>
-38.6251

> <Gold.PLP.part.hbond>
-2.0000

> <Gold.PLP.part.metal>
0.0000

> <Gold.PLP.part.buried>
-6.0293

> <Gold.PLP.part.nonpolar>
-30.4645

> <Gold.PLP.part.repulsive>
0.1865

> <Gold.PLP.ligand.clash>
0.0000

> <Gold.PLP.ligand.torsion>
0.9993

> <Gold.PLP.Chemscore.Hbond>
1.9760

> <Gold.PLP.Chemscore.CHOScore>
0.0000

> <Gold.PLP.Chemscore.Metal>
0.0000

> <Gold.Chemscore.Hbonds>
donor molecule, donor type, donor heavy atom, donor atom, acceptor molecule, acceptor atom, score
      L1  H     7    32       P1  8028  1.00
      P1  H  7997  8010       L1    17  0.90

> <Gold.PLP.Chemscore.Internal.Correction>
0.3791

> <Gold.Rescore>
     Score         DG    S(hbond)    S(metal)    S(lipo)     H(rot)  DE(clash)    DE(int)     intcor
     17.51     -18.50       1.87        0.00      94.81       1.69       0.13       0.86       ----

> <Gold.Chemscore.Fitness>
17.5067

> <Gold.Chemscore.DG>
-18.4955

> <Gold.Chemscore.ZeroCoef>
-5.4800

> <Gold.Chemscore.Hbond>
1.8709

> <Gold.Chemscore.Metal>
0.0000

> <Gold.Chemscore.Lipo>
94.8119

> <Gold.Chemscore.Internal_Hbond>
0.0000

> <Gold.Chemscore.DEClash>
0.1322

> <Gold.Chemscore.DEInternal>
0.8565

> <Gold.Chemscore.Rot>
1.6900

> <Gold.Chemscore.Internal.Correction>
   9.000000E+99

> <Gold.Chemscore.Hbonds>
donor molecule, donor type, donor heavy atom, donor atom, acceptor molecule, acceptor atom, score
      L1  H     7    32       P1  8028  0.99
      P1  H  7997  8010       L1    17  0.83

> <Gold.Chemscore.Hbond.Weighted>
-6.2489

> <Gold.Chemscore.Metal.Weighted>
-0.0000

> <Gold.Chemscore.Lipo.Weighted>
-11.0930

> <Gold.Chemscore.Internal_Hbond.Weighted>
0.0000

> <Gold.Chemscore.DEClash.Weighted>
0.1322

> <Gold.Chemscore.DEInternal.Weighted>
0.8565

> <Gold.Chemscore.Rot.Weighted>
4.3265

> <Gold.Chemscore.Internal.Correction.Weighted>
   9.000000E+99

> <Gold.Protein.RotatedTorsions>
[ 6907 6896 6895 6894 ] final  -73.60 input  -60.11 | X-H torsion
[ 7974 7965 7964 7962 ] final   95.72 input  175.53 | X-H torsion
[ 8008 7997 7996 7995 ] final   35.15 input   59.86 | X-H torsion
[ 10167 10162 10161 10158 ] final  -82.63 input  -65.29 | X-H torsion
[ 10718 10713 10712 10709 ] final  147.32 input   66.30 | X-H torsion
[ 10763 10752 10751 10750 ] final -148.65 input  -60.55 | X-H torsion
[ 11005 11000 10999 10996 ] final  -30.73 input  -57.11 | X-H torsion

> <Gold.Protein.ActiveResidues>
 VAL166  LYS551  ARG553  GLY616  TRP617  ASP618  TYR619  PRO620  LYS621  CYS622 
 ASP623  PHE694  ASN695  SER759  ASP760  ASP761  ALA762  ILE779  LEU786  VAL792 
 PHE793  MET794  SER795  GLU796  ALA797  LYS798  CYS799  TRP800  GLU811  SER814 

> <Gold.Protein.RotatedAtoms>
  150.7124  134.4992  159.5552 H   0  0  0  0  0  0  0  0  0  0  0  0  # atno 6907 bound_to 6896
  152.2593  134.8048  160.0442 H   0  0  0  0  0  0  0  0  0  0  0  0  # atno 6908 bound_to 6896
  151.8767  133.3451  159.3789 H   0  0  0  0  0  0  0  0  0  0  0  0  # atno 6909 bound_to 6896
  145.4484  139.2295  143.3053 H   0  0  0  0  0  0  0  0  0  0  0  0  # atno 7974 bound_to 7965
  155.1664  140.3288  155.4401 H   0  0  0  0  0  0  0  0  0  0  0  0  # atno 8008 bound_to 7997
  156.2525  140.1951  156.6720 H   0  0  0  0  0  0  0  0  0  0  0  0  # atno 8009 bound_to 7997
  154.6368  140.0575  156.9785 H   0  0  0  0  0  0  0  0  0  0  0  0  # atno 8010 bound_to 7997
  140.4301  143.2551  151.8771 H   0  0  0  0  0  0  0  0  0  0  0  0  # atno 10167 bound_to 10162
  157.3224  131.0906  151.1229 H   0  0  0  0  0  0  0  0  0  0  0  0  # atno 10718 bound_to 10713
  154.8221  135.3329  154.7007 H   0  0  0  0  0  0  0  0  0  0  0  0  # atno 10763 bound_to 10752
  153.7638  135.6930  153.4924 H   0  0  0  0  0  0  0  0  0  0  0  0  # atno 10764 bound_to 10752
  153.2092  135.4488  155.0308 H   0  0  0  0  0  0  0  0  0  0  0  0  # atno 10765 bound_to 10752
  140.9408  133.7280  156.1072 H   0  0  0  0  0  0  0  0  0  0  0  0  # atno 11005 bound_to 11000
  146.2518  140.5240  142.8890 LP  0  0  0  0  0  0  0  0  0  0  0  0  # atno 17320 bound_to 7965
  144.8077  140.6329  143.6436 LP  0  0  0  0  0  0  0  0  0  0  0  0  # atno 17321 bound_to 7965
  139.4784  144.5344  151.8620 LP  0  0  0  0  0  0  0  0  0  0  0  0  # atno 17342 bound_to 10162
  140.4436  144.1952  150.5893 LP  0  0  0  0  0  0  0  0  0  0  0  0  # atno 17343 bound_to 10162
  157.2509  130.6613  149.5931 LP  0  0  0  0  0  0  0  0  0  0  0  0  # atno 17370 bound_to 10713
  155.9687  130.4539  150.5828 LP  0  0  0  0  0  0  0  0  0  0  0  0  # atno 17371 bound_to 10713
  140.7737  134.3804  157.5502 LP  0  0  0  0  0  0  0  0  0  0  0  0  # atno 17394 bound_to 11000
  139.8820  134.9038  156.2863 LP  0  0  0  0  0  0  0  0  0  0  0  0  # atno 17395 bound_to 11000

$$$$
