AV-unprocessed.smi:1535|AV-procd|sdf|6183|dock2
  -GOLD-   22720 6343D 1   1.00000     0.00000
 Structure written by MMmdl.
 47 48  0  0  0  0  0  0  0  0  2 V2000
  152.5776  143.2785  160.8894 C   0  0  0  0  0  0  0  0  0  0  0  0
  152.2599  142.4646  159.6472 C   0  0  0  0  0  0  0  0  0  0  0  0
  152.5615  141.0841  159.6342 C   0  0  0  0  0  0  0  0  0  0  0  0
  152.2811  140.2925  158.4992 C   0  0  0  0  0  0  0  0  0  0  0  0
  152.4888  138.9431  158.2706 N   0  0  0  0  0  0  0  0  0  0  0  0
  152.0218  138.8049  157.0336 C   0  0  0  0  0  0  0  0  0  0  0  0
  151.5199  139.9041  156.4379 N   0  0  0  0  0  0  0  0  0  0  0  0
  150.9431  139.9955  155.1088 C   0  0  0  0  0  0  0  0  0  0  0  0
  149.9320  138.8667  154.8256 C   0  0  1  0  0  0  0  0  0  0  0  0
  149.2859  139.1557  153.6023 O   0  0  0  0  0  0  0  0  0  0  0  0
  150.5715  137.4648  154.7324 C   0  0  0  0  0  0  0  0  0  0  0  0
  149.5428  136.4048  154.5744 N   0  3  2  0  0  0  0  0  0  0  0  0
  148.4766  136.4946  155.5998 C   0  0  0  0  0  0  0  0  0  0  0  0
  150.1146  135.0373  154.4858 C   0  0  0  0  0  0  0  0  0  0  0  0
  150.4144  134.4332  155.8720 C   0  0  1  0  0  0  0  0  0  0  0  0
  150.2886  132.9047  155.8569 C   0  0  0  0  0  0  0  0  0  0  0  0
  151.7412  134.8440  156.3593 C   0  0  0  0  0  0  0  0  0  0  0  0
  152.7816  135.1687  156.7457 N   0  0  0  0  0  0  0  0  0  0  0  0
  151.6833  140.9239  157.3697 C   0  0  0  0  0  0  0  0  0  0  0  0
  151.3826  142.2973  157.3692 C   0  0  0  0  0  0  0  0  0  0  0  0
  151.6709  143.0741  158.5104 C   0  0  0  0  0  0  0  0  0  0  0  0
  151.3435  144.5567  158.4991 C   0  0  0  0  0  0  0  0  0  0  0  0
  153.0030  142.6547  161.6762 H   0  0  0  0  0  0  0  0  0  0  0  0
  151.6738  143.7434  161.2838 H   0  0  0  0  0  0  0  0  0  0  0  0
  153.2984  144.0626  160.6572 H   0  0  0  0  0  0  0  0  0  0  0  0
  153.0130  140.6203  160.4992 H   0  0  0  0  0  0  0  0  0  0  0  0
  152.0351  137.8462  156.5360 H   0  0  0  0  0  0  0  0  0  0  0  0
  150.4610  140.9698  155.0144 H   0  0  0  0  0  0  0  0  0  0  0  0
  151.7522  139.9734  154.3771 H   0  0  0  0  0  0  0  0  0  0  0  0
  149.1728  138.8768  155.6071 H   0  0  0  0  0  0  0  0  0  0  0  0
  149.9049  139.0462  152.8960 H   0  0  0  0  0  0  0  0  0  0  0  0
  151.2776  137.4574  153.9022 H   0  0  0  0  0  0  0  0  0  0  0  0
  151.1646  137.2390  155.6195 H   0  0  0  0  0  0  0  0  0  0  0  0
  148.8693  136.2686  156.5921 H   0  0  0  0  0  0  0  0  0  0  0  0
  147.6735  135.7894  155.3829 H   0  0  0  0  0  0  0  0  0  0  0  0
  148.0350  137.4906  155.6294 H   0  0  0  0  0  0  0  0  0  0  0  0
  149.4400  134.3947  153.9177 H   0  0  0  0  0  0  0  0  0  0  0  0
  151.0496  135.0749  153.9245 H   0  0  0  0  0  0  0  0  0  0  0  0
  149.7001  134.8137  156.6010 H   0  0  0  0  0  0  0  0  0  0  0  0
  150.4734  132.4882  156.8474 H   0  0  0  0  0  0  0  0  0  0  0  0
  151.0057  132.4557  155.1690 H   0  0  0  0  0  0  0  0  0  0  0  0
  149.2897  132.5944  155.5492 H   0  0  0  0  0  0  0  0  0  0  0  0
  150.9354  142.7512  156.4973 H   0  0  0  0  0  0  0  0  0  0  0  0
  150.9295  144.8653  157.5387 H   0  0  0  0  0  0  0  0  0  0  0  0
  152.2410  145.1484  158.6803 H   0  0  0  0  0  0  0  0  0  0  0  0
  150.6111  144.7921  159.2713 H   0  0  0  0  0  0  0  0  0  0  0  0
  149.0950  136.5749  153.6845 H   0  0  0  0  0  0  0  0  0  0  0  0
  1  2  1  0  0  0  0
  1 23  1  0  0  0  0
  1 24  1  0  0  0  0
  1 25  1  0  0  0  0
  2 21  1  0  0  0  0
  2  3  2  0  0  0  0
  3  4  1  0  0  0  0
  3 26  1  0  0  0  0
  4 19  2  0  0  0  0
  4  5  1  0  0  0  0
  5  6  2  0  0  0  0
  6  7  1  0  0  0  0
  6 27  1  0  0  0  0
  7  8  1  0  0  0  0
  7 19  1  0  0  0  0
  8  9  1  0  0  0  0
  8 28  1  0  0  0  0
  8 29  1  0  0  0  0
  9 10  1  0  0  0  0
  9 11  1  0  0  0  0
  9 30  1  0  0  0  0
 10 31  1  0  0  0  0
 11 12  1  0  0  0  0
 11 32  1  0  0  0  0
 11 33  1  0  0  0  0
 12 13  1  0  0  0  0
 12 14  1  0  0  0  0
 12 47  1  0  0  0  0
 13 34  1  0  0  0  0
 13 35  1  0  0  0  0
 13 36  1  0  0  0  0
 14 15  1  0  0  0  0
 14 37  1  0  0  0  0
 14 38  1  0  0  0  0
 15 16  1  0  0  0  0
 15 17  1  0  0  0  0
 15 39  1  0  0  0  0
 16 40  1  0  0  0  0
 16 41  1  0  0  0  0
 16 42  1  0  0  0  0
 17 18  3  0  0  0  0
 19 20  1  0  0  0  0
 20 21  2  0  0  0  0
 20 43  1  0  0  0  0
 21 22  1  0  0  0  0
 22 44  1  0  0  0  0
 22 45  1  0  0  0  0
 22 46  1  0  0  0  0
M  CHG  1  12   1
M  END
> <s_m_source_file>
AV-unprocessed.smi

> <i_m_source_file_index>
1535

> <i_lp_mmshare_version>
43012

> <i_f3d_flags>
0

> <s_epik_input>
W0NIM11jKFtjSF0xKWMoW0NIM10pW2NIXWMoYzEyKW4oW2NIXW4yKVtDSDJdW0NASF0oW09IXSlbQ0gyXU4oW0NIM10pW0NIMl1bQ0BIXShbQ0gzXSlDI04=

> <s_epik_cmdline>
J2VwaWtfcHl0aG9uJywgJy1waCcsICc3LjAnLCAnLXRuJywgJzgnLCAnLW1hJywgJzIwMCcsICctbWV0YWxfYmluZGluZycsICctaW1hZScsICc8aW5maWxlLm1hZT4nLCAnLW9tYWUnLCAnPG91dGZpbGUubWFlPic=

> <r_epik_Ionization_Penalty>
2.21058

> <r_epik_Ionization_Penalty_Charging>
2.12381

> <r_epik_Ionization_Penalty_Neutral>
0.0867699

> <r_epik_State_Penalty>
2.36208

> <r_epik_Charging_Adjusted_Penalty>
4.48589

> <i_epik_Tot_Q>
1

> <i_epik_Tot_abs_Q>
1

> <r_epik_Metal_State_Penalty>
2.2818

> <b_epik_Metal_Only>
0

> <s_lp_Force_Field>
OPLS_2005

> <r_lp_Energy>
13.4259

> <b_lp_Chiralities_Consistent>
1

> <s_lp_Variant>
AV-unprocessed.smi:1535-14

> <Gold.Version>
5.8.1

> <Gold.Id.Protein>
6NUR|6NUR_protein|mol2

> <Gold.PLP.Fitness>
49.7022

> <Gold.PLP.PLP>
-41.0796

> <Gold.PLP.part.hbond>
-3.3863

> <Gold.PLP.part.metal>
0.0000

> <Gold.PLP.part.buried>
-3.0705

> <Gold.PLP.part.nonpolar>
-34.5750

> <Gold.PLP.part.repulsive>
0.0204

> <Gold.PLP.ligand.clash>
0.0000

> <Gold.PLP.ligand.torsion>
0.7153

> <Gold.PLP.Chemscore.Hbond>
3.2668

> <Gold.PLP.Chemscore.CHOScore>
0.0000

> <Gold.PLP.Chemscore.Metal>
0.0000

> <Gold.Chemscore.Hbonds>
donor molecule, donor type, donor heavy atom, donor atom, acceptor molecule, acceptor atom, score
      L1  H    10    31       P1  7957  0.40
      L1  H    12    47       P1  7948  1.95
      P1  H 10752 10763       L1    18  1.00

> <Gold.PLP.Chemscore.Internal.Correction>
0.2531

> <Gold.Rescore>
     Score         DG    S(hbond)    S(metal)    S(lipo)     H(rot)  DE(clash)    DE(int)     intcor
     17.28     -18.43       2.01        0.00     110.18       2.60       0.37       0.77       ----

> <Gold.Chemscore.Fitness>
17.2818

> <Gold.Chemscore.DG>
-18.4283

> <Gold.Chemscore.ZeroCoef>
-5.4800

> <Gold.Chemscore.Hbond>
2.0123

> <Gold.Chemscore.Metal>
0.0000

> <Gold.Chemscore.Lipo>
110.1797

> <Gold.Chemscore.Internal_Hbond>
0.0000

> <Gold.Chemscore.DEClash>
0.3745

> <Gold.Chemscore.DEInternal>
0.7720

> <Gold.Chemscore.Rot>
2.6031

> <Gold.Chemscore.Internal.Correction>
   9.000000E+99

> <Gold.Chemscore.Hbonds>
donor molecule, donor type, donor heavy atom, donor atom, acceptor molecule, acceptor atom, score
      L1  H    10    31       P1  7957  0.35
      L1  H    12    47       P1  7948  0.92
      P1  H 10752 10763       L1    18  0.25

> <Gold.Chemscore.Hbond.Weighted>
-6.7212

> <Gold.Chemscore.Metal.Weighted>
-0.0000

> <Gold.Chemscore.Lipo.Weighted>
-12.8910

> <Gold.Chemscore.Internal_Hbond.Weighted>
0.0000

> <Gold.Chemscore.DEClash.Weighted>
0.3745

> <Gold.Chemscore.DEInternal.Weighted>
0.7720

> <Gold.Chemscore.Rot.Weighted>
6.6640

> <Gold.Chemscore.Internal.Correction.Weighted>
   9.000000E+99

> <Gold.Protein.RotatedTorsions>
[ 6907 6896 6895 6894 ] final  135.42 input  -60.11 | X-H torsion
[ 7974 7965 7964 7962 ] final  105.96 input  175.53 | X-H torsion
[ 8008 7997 7996 7995 ] final   65.25 input   59.86 | X-H torsion
[ 10167 10162 10161 10158 ] final  -58.52 input  -65.29 | X-H torsion
[ 10718 10713 10712 10709 ] final   50.47 input   66.30 | X-H torsion
[ 10763 10752 10751 10750 ] final  118.90 input  -60.55 | X-H torsion
[ 11005 11000 10999 10996 ] final  -34.62 input  -57.11 | X-H torsion

> <Gold.Protein.ActiveResidues>
 VAL166  LYS551  ARG553  GLY616  TRP617  ASP618  TYR619  PRO620  LYS621  CYS622 
 ASP623  PHE694  ASN695  SER759  ASP760  ASP761  ALA762  ILE779  LEU786  VAL792 
 PHE793  MET794  SER795  GLU796  ALA797  LYS798  CYS799  TRP800  GLU811  SER814 

> <Gold.Protein.RotatedAtoms>
  152.3006  133.5651  159.5615 H   0  0  0  0  0  0  0  0  0  0  0  0  # atno 6907 bound_to 6896
  150.7276  134.0297  159.3738 H   0  0  0  0  0  0  0  0  0  0  0  0  # atno 6908 bound_to 6896
  151.8197  135.0656  160.0474 H   0  0  0  0  0  0  0  0  0  0  0  0  # atno 6909 bound_to 6896
  145.3129  139.2535  143.3753 H   0  0  0  0  0  0  0  0  0  0  0  0  # atno 7974 bound_to 7965
  155.6588  140.3497  155.4775 H   0  0  0  0  0  0  0  0  0  0  0  0  # atno 8008 bound_to 7997
  155.9786  140.1170  157.0770 H   0  0  0  0  0  0  0  0  0  0  0  0  # atno 8009 bound_to 7997
  154.4185  140.1143  156.5391 H   0  0  0  0  0  0  0  0  0  0  0  0  # atno 8010 bound_to 7997
  140.6192  143.2413  151.5523 H   0  0  0  0  0  0  0  0  0  0  0  0  # atno 10167 bound_to 10162
  157.4888  130.8362  149.8178 H   0  0  0  0  0  0  0  0  0  0  0  0  # atno 10718 bound_to 10713
  153.5748  135.3495  155.2852 H   0  0  0  0  0  0  0  0  0  0  0  0  # atno 10763 bound_to 10752
  154.8677  135.4168  154.2686 H   0  0  0  0  0  0  0  0  0  0  0  0  # atno 10764 bound_to 10752
  153.3459  135.7052  153.6898 H   0  0  0  0  0  0  0  0  0  0  0  0  # atno 10765 bound_to 10752
  140.9731  133.7098  156.1557 H   0  0  0  0  0  0  0  0  0  0  0  0  # atno 11005 bound_to 11000
  146.3111  140.3669  142.8670 LP  0  0  0  0  0  0  0  0  0  0  0  0  # atno 17320 bound_to 7965
  144.9001  140.7632  143.5872 LP  0  0  0  0  0  0  0  0  0  0  0  0  # atno 17321 bound_to 7965
  139.5424  144.2612  152.1377 LP  0  0  0  0  0  0  0  0  0  0  0  0  # atno 17342 bound_to 10162
  140.1828  144.4828  150.6519 LP  0  0  0  0  0  0  0  0  0  0  0  0  # atno 17343 bound_to 10162
  156.0162  130.3813  150.2105 LP  0  0  0  0  0  0  0  0  0  0  0  0  # atno 17370 bound_to 10713
  157.0293  131.0002  151.3317 LP  0  0  0  0  0  0  0  0  0  0  0  0  # atno 17371 bound_to 10713
  140.7299  134.4265  157.5567 LP  0  0  0  0  0  0  0  0  0  0  0  0  # atno 17394 bound_to 11000
  139.8920  134.8766  156.2293 LP  0  0  0  0  0  0  0  0  0  0  0  0  # atno 17395 bound_to 11000

$$$$
