AV-unprocessed.smi:1535|AV-procd|sdf|6177|dock7
  -GOLD-   22720 6333D 1   1.00000     0.00000
 Structure written by MMmdl.
 47 48  0  0  0  0  0  0  0  0  2 V2000
  152.4295  143.9139  161.1638 C   0  0  0  0  0  0  0  0  0  0  0  0
  152.1645  143.0163  159.9671 C   0  0  0  0  0  0  0  0  0  0  0  0
  151.3125  143.4897  158.9444 C   0  0  0  0  0  0  0  0  0  0  0  0
  151.0891  142.6455  157.8635 C   0  0  0  0  0  0  0  0  0  0  0  0
  150.3123  142.8193  156.7163 N   0  3  0  0  0  0  0  0  0  0  0  0
  150.4010  141.7079  155.9353 C   0  0  0  0  0  0  0  0  0  0  0  0
  151.2134  140.8208  156.5725 N   0  0  0  0  0  0  0  0  0  0  0  0
  151.6191  139.4711  156.1576 C   0  0  0  0  0  0  0  0  0  0  0  0
  150.5479  138.7348  155.3207 C   0  0  1  0  0  0  0  0  0  0  0  0
  150.7181  139.1802  153.9910 O   0  0  0  0  0  0  0  0  0  0  0  0
  150.6697  137.1891  155.3268 C   0  0  0  0  0  0  0  0  0  0  0  0
  149.5482  136.4564  155.9218 N   0  0  0  0  0  0  0  0  0  0  0  0
  149.6145  135.0522  155.5296 C   0  0  0  0  0  0  0  0  0  0  0  0
  149.5109  136.5946  157.3789 C   0  0  0  0  0  0  0  0  0  0  0  0
  148.2172  136.1282  158.0703 C   0  0  1  0  0  0  0  0  0  0  0  0
  148.1448  134.5964  158.1104 C   0  0  0  0  0  0  0  0  0  0  0  0
  148.0972  136.6887  159.4264 C   0  0  0  0  0  0  0  0  0  0  0  0
  148.0042  137.1287  160.4922 N   0  0  0  0  0  0  0  0  0  0  0  0
  151.6789  141.3687  157.7746 C   0  0  0  0  0  0  0  0  0  0  0  0
  152.5253  140.8904  158.7728 C   0  0  0  0  0  0  0  0  0  0  0  0
  152.7616  141.7322  159.8828 C   0  0  0  0  0  0  0  0  0  0  0  0
  153.6722  141.2304  160.9906 C   0  0  0  0  0  0  0  0  0  0  0  0
  151.9356  144.8800  161.0557 H   0  0  0  0  0  0  0  0  0  0  0  0
  153.4982  144.0986  161.2761 H   0  0  0  0  0  0  0  0  0  0  0  0
  152.0598  143.4501  162.0786 H   0  0  0  0  0  0  0  0  0  0  0  0
  150.8539  144.4662  159.0015 H   0  0  0  0  0  0  0  0  0  0  0  0
  149.9059  141.5520  154.9874 H   0  0  0  0  0  0  0  0  0  0  0  0
  152.5248  139.5980  155.5622 H   0  0  0  0  0  0  0  0  0  0  0  0
  151.9145  138.8885  157.0300 H   0  0  0  0  0  0  0  0  0  0  0  0
  149.5501  139.0487  155.6298 H   0  0  0  0  0  0  0  0  0  0  0  0
  150.2648  138.5837  153.4146 H   0  0  0  0  0  0  0  0  0  0  0  0
  150.7820  136.8551  154.2936 H   0  0  0  0  0  0  0  0  0  0  0  0
  151.5986  136.8878  155.8094 H   0  0  0  0  0  0  0  0  0  0  0  0
  148.7322  134.5051  155.8593 H   0  0  0  0  0  0  0  0  0  0  0  0
  150.4973  134.5666  155.9476 H   0  0  0  0  0  0  0  0  0  0  0  0
  149.6575  134.9542  154.4442 H   0  0  0  0  0  0  0  0  0  0  0  0
  150.3621  136.0698  157.8149 H   0  0  0  0  0  0  0  0  0  0  0  0
  149.6323  137.6432  157.6378 H   0  0  0  0  0  0  0  0  0  0  0  0
  147.3510  136.4807  157.5120 H   0  0  0  0  0  0  0  0  0  0  0  0
  147.2190  134.2614  158.5791 H   0  0  0  0  0  0  0  0  0  0  0  0
  148.9762  134.1767  158.6778 H   0  0  0  0  0  0  0  0  0  0  0  0
  148.1789  134.1738  157.1057 H   0  0  0  0  0  0  0  0  0  0  0  0
  152.9831  139.9143  158.7136 H   0  0  0  0  0  0  0  0  0  0  0  0
  154.0236  140.2177  160.7907 H   0  0  0  0  0  0  0  0  0  0  0  0
  153.1438  141.2160  161.9441 H   0  0  0  0  0  0  0  0  0  0  0  0
  154.5469  141.8738  161.0878 H   0  0  0  0  0  0  0  0  0  0  0  0
  149.7633  143.6359  156.4797 H   0  0  0  0  0  0  0  0  0  0  0  0
  1  2  1  0  0  0  0
  1 23  1  0  0  0  0
  1 24  1  0  0  0  0
  1 25  1  0  0  0  0
  2 21  1  0  0  0  0
  2  3  2  0  0  0  0
  3  4  1  0  0  0  0
  3 26  1  0  0  0  0
  4 19  2  0  0  0  0
  4  5  1  0  0  0  0
  5  6  2  0  0  0  0
  5 47  1  0  0  0  0
  6  7  1  0  0  0  0
  6 27  1  0  0  0  0
  7  8  1  0  0  0  0
  7 19  1  0  0  0  0
  8  9  1  0  0  0  0
  8 28  1  0  0  0  0
  8 29  1  0  0  0  0
  9 10  1  0  0  0  0
  9 11  1  0  0  0  0
  9 30  1  0  0  0  0
 10 31  1  0  0  0  0
 11 12  1  0  0  0  0
 11 32  1  0  0  0  0
 11 33  1  0  0  0  0
 12 13  1  0  0  0  0
 12 14  1  0  0  0  0
 13 34  1  0  0  0  0
 13 35  1  0  0  0  0
 13 36  1  0  0  0  0
 14 15  1  0  0  0  0
 14 37  1  0  0  0  0
 14 38  1  0  0  0  0
 15 16  1  0  0  0  0
 15 17  1  0  0  0  0
 15 39  1  0  0  0  0
 16 40  1  0  0  0  0
 16 41  1  0  0  0  0
 16 42  1  0  0  0  0
 17 18  3  0  0  0  0
 19 20  1  0  0  0  0
 20 21  2  0  0  0  0
 20 43  1  0  0  0  0
 21 22  1  0  0  0  0
 22 44  1  0  0  0  0
 22 45  1  0  0  0  0
 22 46  1  0  0  0  0
M  CHG  1   5   1
M  END
> <s_m_source_file>
AV-unprocessed.smi

> <i_m_source_file_index>
1535

> <i_lp_mmshare_version>
43012

> <i_f3d_flags>
0

> <s_epik_input>
W0NIM11jKFtjSF0xKWMoW0NIM10pW2NIXWMoYzEyKW4oW2NIXW4yKVtDSDJdW0NASF0oW09IXSlbQ0gyXU4oW0NIM10pW0NIMl1bQ0BIXShbQ0gzXSlDI04=

> <s_epik_cmdline>
J2VwaWtfcHl0aG9uJywgJy1waCcsICc3LjAnLCAnLXRuJywgJzgnLCAnLW1hJywgJzIwMCcsICctbWV0YWxfYmluZGluZycsICctaW1hZScsICc8aW5maWxlLm1hZT4nLCAnLW9tYWUnLCAnPG91dGZpbGUubWFlPic=

> <r_epik_Ionization_Penalty>
1.22846

> <r_epik_Ionization_Penalty_Charging>
1.21333

> <r_epik_Ionization_Penalty_Neutral>
0.0151341

> <r_epik_State_Penalty>
1.27012

> <r_epik_Charging_Adjusted_Penalty>
2.48344

> <i_epik_Tot_Q>
1

> <i_epik_Tot_abs_Q>
1

> <r_epik_Metal_State_Penalty>
5.28751

> <b_epik_Metal_Only>
0

> <s_lp_Force_Field>
OPLS_2005

> <r_lp_Energy>
29.5902

> <b_lp_Chiralities_Consistent>
1

> <s_lp_Variant>
AV-unprocessed.smi:1535-8

> <Gold.Version>
5.8.1

> <Gold.Id.Protein>
6NUR|6NUR_protein|mol2

> <Gold.PLP.Fitness>
51.9108

> <Gold.PLP.PLP>
-41.5937

> <Gold.PLP.part.hbond>
-4.6158

> <Gold.PLP.part.metal>
0.0000

> <Gold.PLP.part.buried>
-5.0699

> <Gold.PLP.part.nonpolar>
-32.1416

> <Gold.PLP.part.repulsive>
0.1045

> <Gold.PLP.ligand.clash>
0.0000

> <Gold.PLP.ligand.torsion>
1.6452

> <Gold.PLP.Chemscore.Hbond>
4.5012

> <Gold.PLP.Chemscore.CHOScore>
0.0000

> <Gold.PLP.Chemscore.Metal>
0.0000

> <Gold.Chemscore.Hbonds>
donor molecule, donor type, donor heavy atom, donor atom, acceptor molecule, acceptor atom, score
      L1  H     5    47       P1  8028  2.00
      P1  H  6931  6943       L1    18  0.70
      P1  H  6934  6947       L1    18  0.62
      P1  H  7989  7998       L1    10  1.00

> <Gold.PLP.Chemscore.Internal.Correction>
0.1039

> <Gold.Rescore>
     Score         DG    S(hbond)    S(metal)    S(lipo)     H(rot)  DE(clash)    DE(int)     intcor
     20.06     -22.80       3.45        0.00     106.29       2.59       0.20       2.53       ----

> <Gold.Chemscore.Fitness>
20.0621

> <Gold.Chemscore.DG>
-22.7973

> <Gold.Chemscore.ZeroCoef>
-5.4800

> <Gold.Chemscore.Hbond>
3.4480

> <Gold.Chemscore.Metal>
0.0000

> <Gold.Chemscore.Lipo>
106.2915

> <Gold.Chemscore.Internal_Hbond>
0.0000

> <Gold.Chemscore.DEClash>
0.2025

> <Gold.Chemscore.DEInternal>
2.5327

> <Gold.Chemscore.Rot>
2.5918

> <Gold.Chemscore.Internal.Correction>
   9.000000E+99

> <Gold.Chemscore.Hbonds>
donor molecule, donor type, donor heavy atom, donor atom, acceptor molecule, acceptor atom, score
      L1  H     5    47       P1  8028  0.99
      P1  H  6931  6943       L1    18  0.68
      P1  H  6934  6947       L1    18  0.62
      P1  H  7989  7998       L1    10  0.96

> <Gold.Chemscore.Hbond.Weighted>
-11.5163

> <Gold.Chemscore.Metal.Weighted>
-0.0000

> <Gold.Chemscore.Lipo.Weighted>
-12.4361

> <Gold.Chemscore.Internal_Hbond.Weighted>
0.0000

> <Gold.Chemscore.DEClash.Weighted>
0.2025

> <Gold.Chemscore.DEInternal.Weighted>
2.5327

> <Gold.Chemscore.Rot.Weighted>
6.6351

> <Gold.Chemscore.Internal.Correction.Weighted>
   9.000000E+99

> <Gold.Protein.RotatedTorsions>
[ 6907 6896 6895 6894 ] final -144.89 input  -60.11 | X-H torsion
[ 7974 7965 7964 7962 ] final -124.57 input  175.53 | X-H torsion
[ 8008 7997 7996 7995 ] final -138.57 input   59.86 | X-H torsion
[ 10167 10162 10161 10158 ] final    6.72 input  -65.29 | X-H torsion
[ 10718 10713 10712 10709 ] final -176.72 input   66.30 | X-H torsion
[ 10763 10752 10751 10750 ] final  -12.97 input  -60.55 | X-H torsion
[ 11005 11000 10999 10996 ] final  167.35 input  -57.11 | X-H torsion

> <Gold.Protein.ActiveResidues>
 VAL166  LYS551  ARG553  GLY616  TRP617  ASP618  TYR619  PRO620  LYS621  CYS622 
 ASP623  PHE694  ASN695  SER759  ASP760  ASP761  ALA762  ILE779  LEU786  VAL792 
 PHE793  MET794  SER795  GLU796  ALA797  LYS798  CYS799  TRP800  GLU811  SER814 

> <Gold.Protein.RotatedAtoms>
  151.1202  133.5109  159.2602 H   0  0  0  0  0  0  0  0  0  0  0  0  # atno 6907 bound_to 6896
  151.1870  135.0385  159.8826 H   0  0  0  0  0  0  0  0  0  0  0  0  # atno 6908 bound_to 6896
  152.5455  134.1047  159.8386 H   0  0  0  0  0  0  0  0  0  0  0  0  # atno 6909 bound_to 6896
  145.0066  140.7869  143.4463 H   0  0  0  0  0  0  0  0  0  0  0  0  # atno 7974 bound_to 7965
  155.4305  140.0525  157.3019 H   0  0  0  0  0  0  0  0  0  0  0  0  # atno 8008 bound_to 7997
  154.4862  140.2102  155.9608 H   0  0  0  0  0  0  0  0  0  0  0  0  # atno 8009 bound_to 7997
  156.1278  140.3177  155.8308 H   0  0  0  0  0  0  0  0  0  0  0  0  # atno 8010 bound_to 7997
  140.6412  143.7769  150.7431 H   0  0  0  0  0  0  0  0  0  0  0  0  # atno 10167 bound_to 10162
  156.8188  130.9612  151.3112 H   0  0  0  0  0  0  0  0  0  0  0  0  # atno 10718 bound_to 10713
  153.5063  135.7017  153.5804 H   0  0  0  0  0  0  0  0  0  0  0  0  # atno 10763 bound_to 10752
  153.3914  135.3895  155.1926 H   0  0  0  0  0  0  0  0  0  0  0  0  # atno 10764 bound_to 10752
  154.8707  135.3859  154.4539 H   0  0  0  0  0  0  0  0  0  0  0  0  # atno 10765 bound_to 10752
  140.2759  134.7789  157.3716 H   0  0  0  0  0  0  0  0  0  0  0  0  # atno 11005 bound_to 11000
  145.2079  139.2219  143.5158 LP  0  0  0  0  0  0  0  0  0  0  0  0  # atno 17320 bound_to 7965
  146.3462  140.1911  142.8589 LP  0  0  0  0  0  0  0  0  0  0  0  0  # atno 17321 bound_to 7965
  140.1401  143.4449  152.2199 LP  0  0  0  0  0  0  0  0  0  0  0  0  # atno 17342 bound_to 10162
  139.5621  144.7412  151.4124 LP  0  0  0  0  0  0  0  0  0  0  0  0  # atno 17343 bound_to 10162
  157.6467  130.8850  149.9553 LP  0  0  0  0  0  0  0  0  0  0  0  0  # atno 17370 bound_to 10713
  156.1001  130.3656  150.0234 LP  0  0  0  0  0  0  0  0  0  0  0  0  # atno 17371 bound_to 10713
  140.1329  134.5072  155.8091 LP  0  0  0  0  0  0  0  0  0  0  0  0  # atno 17394 bound_to 11000
  141.2170  133.6796  156.7072 LP  0  0  0  0  0  0  0  0  0  0  0  0  # atno 17395 bound_to 11000

$$$$
