AV-unprocessed.smi:921|AV-procd|sdf|4169|dock3
  -GOLD-   22720 2 73D 1   1.00000     0.00000
 Structure written by MMmdl.
 39 41  0  0  0  0  0  0  0  0  1 V2000
  150.0949  137.1595  156.6847 N   0  0  0  0  0  0  0  0  0  0  0  0
  151.1519  137.2934  157.4905 C   0  0  0  0  0  0  0  0  0  0  0  0
  151.2059  136.7534  158.5934 O   0  0  0  0  0  0  0  0  0  0  0  0
  152.3104  138.1641  156.9889 C   0  0  0  0  0  0  0  0  0  0  0  0
  152.4649  139.3667  157.8880 C   0  0  0  0  0  0  0  0  0  0  0  0
  153.5562  139.5478  158.6391 N   0  0  0  0  0  0  0  0  0  0  0  0
  153.2951  140.7366  159.2888 C   0  0  0  0  0  0  0  0  0  0  0  0
  154.0624  141.4560  160.2328 C   0  0  0  0  0  0  0  0  0  0  0  0
  153.5819  142.6699  160.7664 C   0  0  0  0  0  0  0  0  0  0  0  0
  152.3312  143.1807  160.3632 C   0  0  0  0  0  0  0  0  0  0  0  0
  151.5526  142.4800  159.4221 C   0  0  0  0  0  0  0  0  0  0  0  0
  152.0366  141.2680  158.8937 C   0  0  0  0  0  0  0  0  0  0  0  0
  151.5344  140.3572  157.9691 N   0  0  0  0  0  0  0  0  0  0  0  0
  150.2674  140.5014  157.2613 C   0  0  0  0  0  0  0  0  0  0  0  0
  150.3331  141.5318  156.1170 C   0  0  2  0  0  0  0  0  0  0  0  0
  150.2898  142.8435  156.6424 O   0  0  0  0  0  0  0  0  0  0  0  0
  149.2343  141.2837  155.0929 C   0  0  0  0  0  0  0  0  0  0  0  0
  148.2119  142.2398  154.9001 C   0  0  0  0  0  0  0  0  0  0  0  0
  147.1883  142.0091  153.9609 C   0  0  0  0  0  0  0  0  0  0  0  0
  146.2134  142.9314  153.7815 F   0  0  0  0  0  0  0  0  0  0  0  0
  147.1773  140.8187  153.2100 C   0  0  0  0  0  0  0  0  0  0  0  0
  148.1886  139.8584  153.4017 C   0  0  0  0  0  0  0  0  0  0  0  0
  149.2131  140.0867  154.3413 C   0  0  0  0  0  0  0  0  0  0  0  0
  150.1725  139.1465  154.5187 F   0  0  0  0  0  0  0  0  0  0  0  0
  149.3169  136.5839  156.9721 H   0  0  0  0  0  0  0  0  0  0  0  0
  150.0817  137.6217  155.7871 H   0  0  0  0  0  0  0  0  0  0  0  0
  153.2430  137.5987  156.9843 H   0  0  0  0  0  0  0  0  0  0  0  0
  152.1015  138.4462  155.9596 H   0  0  0  0  0  0  0  0  0  0  0  0
  155.0219  141.0730  160.5474 H   0  0  0  0  0  0  0  0  0  0  0  0
  154.1758  143.2116  161.4879 H   0  0  0  0  0  0  0  0  0  0  0  0
  151.9702  144.1112  160.7762 H   0  0  0  0  0  0  0  0  0  0  0  0
  150.5945  142.8689  159.1110 H   0  0  0  0  0  0  0  0  0  0  0  0
  150.0079  139.5251  156.8498 H   0  0  0  0  0  0  0  0  0  0  0  0
  149.4684  140.7350  157.9635 H   0  0  0  0  0  0  0  0  0  0  0  0
  151.2991  141.4393  155.6196 H   0  0  0  0  0  0  0  0  0  0  0  0
  149.6556  143.3439  156.1521 H   0  0  0  0  0  0  0  0  0  0  0  0
  148.2071  143.1540  155.4757 H   0  0  0  0  0  0  0  0  0  0  0  0
  146.3923  140.6406  152.4899 H   0  0  0  0  0  0  0  0  0  0  0  0
  148.1774  138.9435  152.8281 H   0  0  0  0  0  0  0  0  0  0  0  0
  1  2  1  0  0  0  0
  1 25  1  0  0  0  0
  1 26  1  0  0  0  0
  2  3  2  0  0  0  0
  2  4  1  0  0  0  0
  4  5  1  0  0  0  0
  4 27  1  0  0  0  0
  4 28  1  0  0  0  0
  5 13  1  0  0  0  0
  5  6  2  0  0  0  0
  6  7  1  0  0  0  0
  7 12  2  0  0  0  0
  7  8  1  0  0  0  0
  8  9  2  0  0  0  0
  8 29  1  0  0  0  0
  9 10  1  0  0  0  0
  9 30  1  0  0  0  0
 10 11  2  0  0  0  0
 10 31  1  0  0  0  0
 11 12  1  0  0  0  0
 11 32  1  0  0  0  0
 12 13  1  0  0  0  0
 13 14  1  0  0  0  0
 14 15  1  0  0  0  0
 14 33  1  0  0  0  0
 14 34  1  0  0  0  0
 15 16  1  0  0  0  0
 15 17  1  0  0  0  0
 15 35  1  0  0  0  0
 16 36  1  0  0  0  0
 17 23  1  0  0  0  0
 17 18  2  0  0  0  0
 18 19  1  0  0  0  0
 18 37  1  0  0  0  0
 19 20  1  0  0  0  0
 19 21  2  0  0  0  0
 21 22  1  0  0  0  0
 21 38  1  0  0  0  0
 22 23  2  0  0  0  0
 22 39  1  0  0  0  0
 23 24  1  0  0  0  0
M  END
> <s_m_source_file>
AV-unprocessed.smi

> <i_m_source_file_index>
921

> <i_lp_mmshare_version>
43012

> <i_f3d_flags>
0

> <s_epik_input>
W2NIXTFbY0hdW2NIXVtjSF1jKGMxMiluKGMobjIpW0NIMl1DKD1PKVtOSDJdKVtDSDJdW0NASF0oW09IXSljM1tjSF1jKEYpW2NIXVtjSF1jM0Y=

> <s_epik_cmdline>
J2VwaWtfcHl0aG9uJywgJy1waCcsICc3LjAnLCAnLXRuJywgJzgnLCAnLW1hJywgJzIwMCcsICctbWV0YWxfYmluZGluZycsICctaW1hZScsICc8aW5maWxlLm1hZT4nLCAnLW9tYWUnLCAnPG91dGZpbGUubWFlPic=

> <r_epik_Ionization_Penalty>
0.0366909

> <r_epik_Ionization_Penalty_Charging>
0

> <r_epik_Ionization_Penalty_Neutral>
0.0366909

> <r_epik_State_Penalty>
0.0306642

> <r_epik_Charging_Adjusted_Penalty>
0.0306642

> <i_epik_Tot_Q>
0

> <i_epik_Tot_abs_Q>
0

> <r_epik_Metal_State_Penalty>
0.028853

> <b_epik_Metal_Only>
0

> <s_lp_Force_Field>
OPLS_2005

> <r_lp_Energy>
14.0365

> <b_lp_Chiralities_Consistent>
1

> <s_lp_Variant>
AV-unprocessed.smi:921-1

> <Gold.Version>
5.8.1

> <Gold.Id.Protein>
6NUR|6NUR_protein|mol2

> <Gold.PLP.Fitness>
52.7603

> <Gold.PLP.PLP>
-45.0455

> <Gold.PLP.part.hbond>
-3.0000

> <Gold.PLP.part.metal>
0.0000

> <Gold.PLP.part.buried>
-0.7686

> <Gold.PLP.part.nonpolar>
-40.8766

> <Gold.PLP.part.repulsive>
0.0183

> <Gold.PLP.ligand.clash>
0.0000

> <Gold.PLP.ligand.torsion>
0.5305

> <Gold.PLP.Chemscore.Hbond>
2.9120

> <Gold.PLP.Chemscore.CHOScore>
0.0000

> <Gold.PLP.Chemscore.Metal>
0.0000

> <Gold.Chemscore.Hbonds>
donor molecule, donor type, donor heavy atom, donor atom, acceptor molecule, acceptor atom, score
      L1  H    16    36       P1  8028  1.00
      P1  H  6896  6908       L1     3  0.76
      P1  H  7997  8010       L1     6  1.00

> <Gold.PLP.Chemscore.Internal.Correction>
0.0399

> <Gold.Rescore>
     Score         DG    S(hbond)    S(metal)    S(lipo)     H(rot)  DE(clash)    DE(int)     intcor
     14.87     -17.46       1.86        0.00     117.50       3.11       1.71       0.89       ----

> <Gold.Chemscore.Fitness>
14.8669

> <Gold.Chemscore.DG>
-17.4644

> <Gold.Chemscore.ZeroCoef>
-5.4800

> <Gold.Chemscore.Hbond>
1.8574

> <Gold.Chemscore.Metal>
0.0000

> <Gold.Chemscore.Lipo>
117.5025

> <Gold.Chemscore.Internal_Hbond>
0.0000

> <Gold.Chemscore.DEClash>
1.7093

> <Gold.Chemscore.DEInternal>
0.8882

> <Gold.Chemscore.Rot>
3.1121

> <Gold.Chemscore.Internal.Correction>
   9.000000E+99

> <Gold.Chemscore.Hbonds>
donor molecule, donor type, donor heavy atom, donor atom, acceptor molecule, acceptor atom, score
      L1  H    16    36       P1  8028  0.98
      P1  H  6896  6908       L1     3  0.74
      P1  H  7997  8010       L1     6  0.15

> <Gold.Chemscore.Hbond.Weighted>
-6.2037

> <Gold.Chemscore.Metal.Weighted>
-0.0000

> <Gold.Chemscore.Lipo.Weighted>
-13.7478

> <Gold.Chemscore.Internal_Hbond.Weighted>
0.0000

> <Gold.Chemscore.DEClash.Weighted>
1.7093

> <Gold.Chemscore.DEInternal.Weighted>
0.8882

> <Gold.Chemscore.Rot.Weighted>
7.9670

> <Gold.Chemscore.Internal.Correction.Weighted>
   9.000000E+99

> <Gold.Protein.RotatedTorsions>
[ 6907 6896 6895 6894 ] final -141.68 input  -60.11 | X-H torsion
[ 7974 7965 7964 7962 ] final   83.18 input  175.53 | X-H torsion
[ 8008 7997 7996 7995 ] final   12.28 input   59.86 | X-H torsion
[ 10167 10162 10161 10158 ] final  102.65 input  -65.29 | X-H torsion
[ 10718 10713 10712 10709 ] final -112.76 input   66.30 | X-H torsion
[ 10763 10752 10751 10750 ] final -144.54 input  -60.55 | X-H torsion
[ 11005 11000 10999 10996 ] final   -8.25 input  -57.11 | X-H torsion

> <Gold.Protein.ActiveResidues>
 VAL166  LYS551  ARG553  GLY616  TRP617  ASP618  TYR619  PRO620  LYS621  CYS622 
 ASP623  PHE694  ASN695  SER759  ASP760  ASP761  ALA762  ILE779  LEU786  VAL792 
 PHE793  MET794  SER795  GLU796  ALA797  LYS798  CYS799  TRP800  GLU811  SER814 

> <Gold.Protein.RotatedAtoms>
  151.0770  133.5420  159.2622 H   0  0  0  0  0  0  0  0  0  0  0  0  # atno 6907 bound_to 6896
  151.2338  135.0563  159.9008 H   0  0  0  0  0  0  0  0  0  0  0  0  # atno 6908 bound_to 6896
  152.5419  134.0555  159.8182 H   0  0  0  0  0  0  0  0  0  0  0  0  # atno 6909 bound_to 6896
  145.6153  139.2375  143.2169 H   0  0  0  0  0  0  0  0  0  0  0  0  # atno 7974 bound_to 7965
  154.8185  140.2880  155.5803 H   0  0  0  0  0  0  0  0  0  0  0  0  # atno 8008 bound_to 7997
  156.2995  140.2554  156.3018 H   0  0  0  0  0  0  0  0  0  0  0  0  # atno 8009 bound_to 7997
  154.9366  140.0382  157.2064 H   0  0  0  0  0  0  0  0  0  0  0  0  # atno 8010 bound_to 7997
  139.7331  144.7031  151.0691 H   0  0  0  0  0  0  0  0  0  0  0  0  # atno 10167 bound_to 10162
  156.0725  130.5937  150.8552 H   0  0  0  0  0  0  0  0  0  0  0  0  # atno 10718 bound_to 10713
  154.8424  135.3437  154.6361 H   0  0  0  0  0  0  0  0  0  0  0  0  # atno 10763 bound_to 10752
  153.6972  135.6971  153.5078 H   0  0  0  0  0  0  0  0  0  0  0  0  # atno 10764 bound_to 10752
  153.2550  135.4341  155.0791 H   0  0  0  0  0  0  0  0  0  0  0  0  # atno 10765 bound_to 10752
  140.7215  133.8824  155.8824 H   0  0  0  0  0  0  0  0  0  0  0  0  # atno 11005 bound_to 11000
  146.1473  140.6975  142.9338 LP  0  0  0  0  0  0  0  0  0  0  0  0  # atno 17320 bound_to 7965
  144.7253  140.4505  143.6978 LP  0  0  0  0  0  0  0  0  0  0  0  0  # atno 17321 bound_to 7965
  140.7774  143.5018  150.9761 LP  0  0  0  0  0  0  0  0  0  0  0  0  # atno 17342 bound_to 10162
  139.8706  143.7197  152.3166 LP  0  0  0  0  0  0  0  0  0  0  0  0  # atno 17343 bound_to 10162
  157.5804  131.0946  150.9280 LP  0  0  0  0  0  0  0  0  0  0  0  0  # atno 17370 bound_to 10713
  156.9477  130.5408  149.5281 LP  0  0  0  0  0  0  0  0  0  0  0  0  # atno 17371 bound_to 10713
  140.9999  134.1164  157.4327 LP  0  0  0  0  0  0  0  0  0  0  0  0  # atno 17394 bound_to 11000
  139.8847  135.0065  156.6386 LP  0  0  0  0  0  0  0  0  0  0  0  0  # atno 17395 bound_to 11000

$$$$
