AV-unprocessed.smi:613|AV-procd|sdf|3066|dock7
  -GOLD-   2262023593D 1   1.00000     0.00000
 Structure written by MMmdl.
 39 40  0  0  0  0  0  0  0  0  2 V2000
  150.4438  142.6048  156.1254 C   0  0  0  0  0  0  0  0  0  0  0  0
  151.3213  142.2834  157.2447 N   0  0  0  0  0  0  0  0  0  0  0  0
  152.0427  141.0101  157.2256 C   0  0  0  0  0  0  0  0  0  0  0  0
  151.8571  140.2420  155.9041 C   0  0  2  0  0  0  0  0  0  0  0  0
  150.5000  139.5115  155.8548 C   0  0  0  0  0  0  0  0  0  0  0  0
  150.3512  138.7148  154.6333 N   0  0  0  0  0  0  0  0  0  0  0  0
  149.0644  138.0141  154.5279 C   0  0  0  0  0  0  0  0  0  0  0  0
  148.9551  136.7491  155.3893 C   0  0  0  0  0  0  0  0  0  0  0  0
  148.6615  135.6076  154.7617 N   0  0  0  0  0  0  0  0  0  0  0  0
  149.1382  136.8014  156.6039 O   0  0  0  0  0  0  0  0  0  0  0  0
  151.4757  137.7923  154.5089 C   0  0  0  0  0  0  0  0  0  0  0  0
  152.8260  138.5237  154.5780 C   0  0  0  0  0  0  0  0  0  0  0  0
  152.8962  139.2735  155.7855 O   0  0  0  0  0  0  0  0  0  0  0  0
  151.7259  143.3238  158.1138 C   0  0  0  0  0  0  0  0  0  0  0  0
  152.6934  143.1418  159.1326 C   0  0  0  0  0  0  0  0  0  0  0  0
  153.0309  144.2331  159.9507 C   0  0  0  0  0  0  0  0  0  0  0  0
  152.3830  145.4550  159.7051 C   0  0  0  0  0  0  0  0  0  0  0  0
  151.4650  145.6204  158.7288 N   0  0  0  0  0  0  0  0  0  0  0  0
  151.1665  144.5561  157.9645 N   0  3  0  0  0  0  0  0  0  0  0  0
  149.4732  142.9487  156.4839 H   0  0  0  0  0  0  0  0  0  0  0  0
  150.2738  141.7293  155.4980 H   0  0  0  0  0  0  0  0  0  0  0  0
  150.8836  143.3821  155.4995 H   0  0  0  0  0  0  0  0  0  0  0  0
  153.1012  141.1425  157.4507 H   0  0  0  0  0  0  0  0  0  0  0  0
  151.6504  140.4053  158.0441 H   0  0  0  0  0  0  0  0  0  0  0  0
  151.9146  140.9389  155.0655 H   0  0  0  0  0  0  0  0  0  0  0  0
  150.3977  138.8676  156.7302 H   0  0  0  0  0  0  0  0  0  0  0  0
  149.7093  140.2586  155.9259 H   0  0  0  0  0  0  0  0  0  0  0  0
  148.2589  138.6806  154.8396 H   0  0  0  0  0  0  0  0  0  0  0  0
  148.8649  137.7626  153.4843 H   0  0  0  0  0  0  0  0  0  0  0  0
  148.5838  134.7480  155.2853 H   0  0  0  0  0  0  0  0  0  0  0  0
  148.5229  135.6083  153.7614 H   0  0  0  0  0  0  0  0  0  0  0  0
  151.4321  137.0425  155.3009 H   0  0  0  0  0  0  0  0  0  0  0  0
  151.4119  137.2503  153.5645 H   0  0  0  0  0  0  0  0  0  0  0  0
  153.6478  137.8076  154.5550 H   0  0  0  0  0  0  0  0  0  0  0  0
  152.9535  139.1866  153.7209 H   0  0  0  0  0  0  0  0  0  0  0  0
  153.1778  142.1915  159.3001 H   0  0  0  0  0  0  0  0  0  0  0  0
  153.7617  144.1368  160.7402 H   0  0  0  0  0  0  0  0  0  0  0  0
  152.6061  146.3244  160.3061 H   0  0  0  0  0  0  0  0  0  0  0  0
  150.4689  144.6748  157.2295 H   0  0  0  0  0  0  0  0  0  0  0  0
  1  2  1  0  0  0  0
  1 20  1  0  0  0  0
  1 21  1  0  0  0  0
  1 22  1  0  0  0  0
  2  3  1  0  0  0  0
  2 14  1  0  0  0  0
  3  4  1  0  0  0  0
  3 23  1  0  0  0  0
  3 24  1  0  0  0  0
  4 13  1  0  0  0  0
  4  5  1  0  0  0  0
  4 25  1  0  0  0  0
  5  6  1  0  0  0  0
  5 26  1  0  0  0  0
  5 27  1  0  0  0  0
  6  7  1  0  0  0  0
  6 11  1  0  0  0  0
  7  8  1  0  0  0  0
  7 28  1  0  0  0  0
  7 29  1  0  0  0  0
  8  9  1  0  0  0  0
  8 10  2  0  0  0  0
  9 30  1  0  0  0  0
  9 31  1  0  0  0  0
 11 12  1  0  0  0  0
 11 32  1  0  0  0  0
 11 33  1  0  0  0  0
 12 13  1  0  0  0  0
 12 34  1  0  0  0  0
 12 35  1  0  0  0  0
 14 19  1  0  0  0  0
 14 15  2  0  0  0  0
 15 16  1  0  0  0  0
 15 36  1  0  0  0  0
 16 17  2  0  0  0  0
 16 37  1  0  0  0  0
 17 18  1  0  0  0  0
 17 38  1  0  0  0  0
 18 19  2  0  0  0  0
 19 39  1  0  0  0  0
M  CHG  1  19   1
M  END
> <s_m_source_file>
AV-unprocessed.smi

> <i_m_source_file_index>
613

> <i_lp_mmshare_version>
43012

> <i_f3d_flags>
0

> <s_epik_input>
bjFuW2NIXVtjSF1bY0hdYzFOKFtDSDNdKVtDSDJdW0NAQEhdMltDSDJdTihbQ0gyXVtDSDJdTzIpW0NIMl1DKD1PKVtOSDJd

> <s_epik_cmdline>
J2VwaWtfcHl0aG9uJywgJy1waCcsICc3LjAnLCAnLXRuJywgJzgnLCAnLW1hJywgJzIwMCcsICctbWV0YWxfYmluZGluZycsICctaW1hZScsICc8aW5maWxlLm1hZT4nLCAnLW9tYWUnLCAnPG91dGZpbGUubWFlPic=

> <r_lp_tautomer_probability>
0.966961

> <r_epik_Ionization_Penalty>
1.86301

> <r_epik_Ionization_Penalty_Charging>
1.86058

> <r_epik_Ionization_Penalty_Neutral>
0.00243207

> <r_epik_State_Penalty>
1.48112

> <r_epik_Charging_Adjusted_Penalty>
3.3417

> <i_epik_Tot_Q>
1

> <i_epik_Tot_abs_Q>
1

> <r_epik_Metal_State_Penalty>
1.50193

> <b_epik_Metal_Only>
0

> <s_lp_Force_Field>
OPLS_2005

> <r_lp_Energy>
27.1625

> <b_lp_Chiralities_Consistent>
1

> <s_lp_Variant>
AV-unprocessed.smi:613-3

> <Gold.Version>
5.8.1

> <Gold.Id.Protein>
6NUR|6NUR_protein|mol2

> <Gold.PLP.Fitness>
44.7189

> <Gold.PLP.PLP>
-33.5087

> <Gold.PLP.part.hbond>
-4.2835

> <Gold.PLP.part.metal>
0.0000

> <Gold.PLP.part.buried>
-0.1571

> <Gold.PLP.part.nonpolar>
-29.6943

> <Gold.PLP.part.repulsive>
0.4426

> <Gold.PLP.ligand.clash>
0.0000

> <Gold.PLP.ligand.torsion>
0.5038

> <Gold.PLP.Chemscore.Hbond>
4.0000

> <Gold.PLP.Chemscore.CHOScore>
0.0000

> <Gold.PLP.Chemscore.Metal>
0.0000

> <Gold.Chemscore.Hbonds>
donor molecule, donor type, donor heavy atom, donor atom, acceptor molecule, acceptor atom, score
      L1  H     9    31       P1  7948  1.00
      L1  H    19    39       P1  8028  1.20
      P1  H  7997  8008       L1    13  1.00

> <Gold.PLP.Chemscore.Internal.Correction>
0.2178

> <Gold.Rescore>
     Score         DG    S(hbond)    S(metal)    S(lipo)     H(rot)  DE(clash)    DE(int)     intcor
     13.78     -16.35       1.94        0.00      86.39       2.23       1.86       0.71       ----

> <Gold.Chemscore.Fitness>
13.7820

> <Gold.Chemscore.DG>
-16.3463

> <Gold.Chemscore.ZeroCoef>
-5.4800

> <Gold.Chemscore.Hbond>
1.9402

> <Gold.Chemscore.Metal>
0.0000

> <Gold.Chemscore.Lipo>
86.3859

> <Gold.Chemscore.Internal_Hbond>
0.0000

> <Gold.Chemscore.DEClash>
1.8593

> <Gold.Chemscore.DEInternal>
0.7050

> <Gold.Chemscore.Rot>
2.2348

> <Gold.Chemscore.Internal.Correction>
   9.000000E+99

> <Gold.Chemscore.Hbonds>
donor molecule, donor type, donor heavy atom, donor atom, acceptor molecule, acceptor atom, score
      L1  H     9    31       P1  7948  0.90
      L1  H    19    39       P1  8028  0.33
      P1  H  7997  8008       L1    13  0.48

> <Gold.Chemscore.Hbond.Weighted>
-6.4802

> <Gold.Chemscore.Metal.Weighted>
-0.0000

> <Gold.Chemscore.Lipo.Weighted>
-10.1072

> <Gold.Chemscore.Internal_Hbond.Weighted>
0.0000

> <Gold.Chemscore.DEClash.Weighted>
1.8593

> <Gold.Chemscore.DEInternal.Weighted>
0.7050

> <Gold.Chemscore.Rot.Weighted>
5.7211

> <Gold.Chemscore.Internal.Correction.Weighted>
   9.000000E+99

> <Gold.Protein.RotatedTorsions>
[ 6907 6896 6895 6894 ] final  -97.94 input  -60.11 | X-H torsion
[ 7974 7965 7964 7962 ] final   71.87 input  175.53 | X-H torsion
[ 8008 7997 7996 7995 ] final  -31.14 input   59.86 | X-H torsion
[ 10167 10162 10161 10158 ] final  107.86 input  -65.29 | X-H torsion
[ 10718 10713 10712 10709 ] final  176.62 input   66.30 | X-H torsion
[ 10763 10752 10751 10750 ] final  125.06 input  -60.55 | X-H torsion
[ 11005 11000 10999 10996 ] final  -12.68 input  -57.11 | X-H torsion

> <Gold.Protein.ActiveResidues>
 VAL166  LYS551  ARG553  GLY616  TRP617  ASP618  TYR619  PRO620  LYS621  CYS622 
 ASP623  PHE694  ASN695  SER759  ASP760  ASP761  ALA762  ILE779  LEU786  VAL792 
 PHE793  MET794  SER795  GLU796  ALA797  LYS798  CYS799  TRP800  GLU811  SER814 

> <Gold.Protein.RotatedAtoms>
  150.7031  134.1271  159.4055 H   0  0  0  0  0  0  0  0  0  0  0  0  # atno 6907 bound_to 6896
  151.9257  135.0276  160.0535 H   0  0  0  0  0  0  0  0  0  0  0  0  # atno 6908 bound_to 6896
  152.2218  133.4954  159.5203 H   0  0  0  0  0  0  0  0  0  0  0  0  # atno 6909 bound_to 6896
  145.7605  139.2798  143.1379 H   0  0  0  0  0  0  0  0  0  0  0  0  # atno 7974 bound_to 7965
  154.4224  140.1772  156.1520 H   0  0  0  0  0  0  0  0  0  0  0  0  # atno 8008 bound_to 7997
  155.9908  140.3369  155.6726 H   0  0  0  0  0  0  0  0  0  0  0  0  # atno 8009 bound_to 7997
  155.6375  140.0676  157.2620 H   0  0  0  0  0  0  0  0  0  0  0  0  # atno 8010 bound_to 7997
  139.6893  144.7110  151.1377 H   0  0  0  0  0  0  0  0  0  0  0  0  # atno 10167 bound_to 10162
  156.9174  130.9929  151.3010 H   0  0  0  0  0  0  0  0  0  0  0  0  # atno 10718 bound_to 10713
  153.6712  135.3330  155.3154 H   0  0  0  0  0  0  0  0  0  0  0  0  # atno 10763 bound_to 10752
  154.8490  135.4387  154.1703 H   0  0  0  0  0  0  0  0  0  0  0  0  # atno 10764 bound_to 10752
  153.2695  135.6999  153.7572 H   0  0  0  0  0  0  0  0  0  0  0  0  # atno 10765 bound_to 10752
  140.7683  133.8459  155.9184 H   0  0  0  0  0  0  0  0  0  0  0  0  # atno 11005 bound_to 11000
  146.0269  140.8295  142.9895 LP  0  0  0  0  0  0  0  0  0  0  0  0  # atno 17320 bound_to 7965
  144.6831  140.2711  143.7306 LP  0  0  0  0  0  0  0  0  0  0  0  0  # atno 17321 bound_to 7965
  140.7677  143.5583  150.9127 LP  0  0  0  0  0  0  0  0  0  0  0  0  # atno 17342 bound_to 10162
  139.9259  143.6550  152.3087 LP  0  0  0  0  0  0  0  0  0  0  0  0  # atno 17343 bound_to 10162
  157.5929  130.8457  149.8686 LP  0  0  0  0  0  0  0  0  0  0  0  0  # atno 17370 bound_to 10713
  156.0507  130.3718  150.1208 LP  0  0  0  0  0  0  0  0  0  0  0  0  # atno 17371 bound_to 10713
  140.9598  134.1670  157.4663 LP  0  0  0  0  0  0  0  0  0  0  0  0  # atno 17394 bound_to 11000
  139.8760  134.9940  156.5675 LP  0  0  0  0  0  0  0  0  0  0  0  0  # atno 17395 bound_to 11000

$$$$
