AV-unprocessed.smi:2775|AV-procd|sdf|10697|dock9
  -GOLD-   2272015133D 1   1.00000     0.00000
 Structure written by MMmdl.
 43 46  0  0  0  0  0  0  0  0  2 V2000
  143.7742  132.3511  150.7039 C   0  0  0  0  0  0  0  0  0  0  0  0
  143.8512  133.5614  151.6146 C   0  0  0  0  0  0  0  0  0  0  0  0
  142.7037  133.9984  152.1783 N   0  3  0  0  0  0  0  0  0  0  0  0
  142.6508  135.0592  153.0099 C   0  0  0  0  0  0  0  0  0  0  0  0
  143.8272  135.7688  153.3206 C   0  0  0  0  0  0  0  0  0  0  0  0
  145.0581  135.3630  152.7450 C   0  0  0  0  0  0  0  0  0  0  0  0
  146.2998  136.0053  153.0084 N   0  0  0  0  0  0  0  0  0  0  0  0
  146.6898  136.7160  154.0840 C   0  0  0  0  0  0  0  0  0  0  0  0
  145.9860  136.9563  155.0620 O   0  0  0  0  0  0  0  0  0  0  0  0
  147.9496  137.1771  154.0001 N   0  0  0  0  0  0  0  0  0  0  0  0
  148.6697  137.9766  154.9916 C   0  0  1  0  0  0  0  0  0  0  0  0
  150.1257  138.2286  154.5958 C   0  0  2  0  0  0  0  0  0  0  0  0
  151.4346  137.7466  155.1088 C   0  0  0  0  0  0  0  0  0  0  0  0
  152.1772  139.1070  155.0957 C   0  0  0  0  0  0  0  0  0  0  0  0
  151.1648  140.1065  154.8238 O   0  0  0  0  0  0  0  0  0  0  0  0
  149.9722  139.5466  155.3391 C   0  0  1  0  0  0  0  0  0  0  0  0
  148.5381  139.5253  154.7942 C   0  0  0  0  0  0  0  0  0  0  0  0
  147.4175  140.3299  155.4633 C   0  0  0  0  0  0  0  0  0  0  0  0
  146.8020  140.5485  154.0767 C   0  0  0  0  0  0  0  0  0  0  0  0
  148.1586  140.1931  153.4593 C   0  0  0  0  0  0  0  0  0  0  0  0
  145.0656  134.2336  151.8888 C   0  0  0  0  0  0  0  0  0  0  0  0
  146.5449  133.6784  151.1786 Cl  0  0  0  0  0  0  0  0  0  0  0  0
  144.1329  132.6035  149.7057 H   0  0  0  0  0  0  0  0  0  0  0  0
  142.7512  131.9843  150.6129 H   0  0  0  0  0  0  0  0  0  0  0  0
  144.3897  131.5416  151.0966 H   0  0  0  0  0  0  0  0  0  0  0  0
  141.6755  135.3046  153.4039 H   0  0  0  0  0  0  0  0  0  0  0  0
  143.7586  136.6009  154.0035 H   0  0  0  0  0  0  0  0  0  0  0  0
  146.9721  135.9564  152.2565 H   0  0  0  0  0  0  0  0  0  0  0  0
  148.4607  136.9540  153.1580 H   0  0  0  0  0  0  0  0  0  0  0  0
  148.5590  137.6403  156.0263 H   0  0  0  0  0  0  0  0  0  0  0  0
  150.1919  138.3758  153.5112 H   0  0  0  0  0  0  0  0  0  0  0  0
  151.3518  137.3356  156.1158 H   0  0  0  0  0  0  0  0  0  0  0  0
  151.9001  137.0073  154.4565 H   0  0  0  0  0  0  0  0  0  0  0  0
  152.6518  139.2986  156.0587 H   0  0  0  0  0  0  0  0  0  0  0  0
  152.9468  139.1458  154.3244 H   0  0  0  0  0  0  0  0  0  0  0  0
  150.0076  139.4492  156.4294 H   0  0  0  0  0  0  0  0  0  0  0  0
  146.7933  139.7631  156.1540 H   0  0  0  0  0  0  0  0  0  0  0  0
  147.7775  141.2561  155.9135 H   0  0  0  0  0  0  0  0  0  0  0  0
  146.0261  139.8200  153.8384 H   0  0  0  0  0  0  0  0  0  0  0  0
  146.4690  141.5688  153.8841 H   0  0  0  0  0  0  0  0  0  0  0  0
  148.7656  141.0744  153.2466 H   0  0  0  0  0  0  0  0  0  0  0  0
  148.1046  139.5280  152.5973 H   0  0  0  0  0  0  0  0  0  0  0  0
  141.8381  133.5001  151.9695 H   0  0  0  0  0  0  0  0  0  0  0  0
  1  2  1  0  0  0  0
  1 23  1  0  0  0  0
  1 24  1  0  0  0  0
  1 25  1  0  0  0  0
  2 21  1  0  0  0  0
  2  3  2  0  0  0  0
  3  4  1  0  0  0  0
  3 43  1  0  0  0  0
  4  5  2  0  0  0  0
  4 26  1  0  0  0  0
  5  6  1  0  0  0  0
  5 27  1  0  0  0  0
  6  7  1  0  0  0  0
  6 21  2  0  0  0  0
  7  8  1  0  0  0  0
  7 28  1  0  0  0  0
  8  9  2  0  0  0  0
  8 10  1  0  0  0  0
 10 11  1  0  0  0  0
 10 29  1  0  0  0  0
 11 17  1  0  0  0  0
 11 12  1  0  0  0  0
 11 30  1  0  0  0  0
 12 16  1  0  0  0  0
 12 13  1  0  0  0  0
 12 31  1  0  0  0  0
 13 14  1  0  0  0  0
 13 32  1  0  0  0  0
 13 33  1  0  0  0  0
 14 15  1  0  0  0  0
 14 34  1  0  0  0  0
 14 35  1  0  0  0  0
 15 16  1  0  0  0  0
 16 17  1  0  0  0  0
 16 36  1  0  0  0  0
 17 20  1  0  0  0  0
 17 18  1  0  0  0  0
 18 19  1  0  0  0  0
 18 37  1  0  0  0  0
 18 38  1  0  0  0  0
 19 20  1  0  0  0  0
 19 39  1  0  0  0  0
 19 40  1  0  0  0  0
 20 41  1  0  0  0  0
 20 42  1  0  0  0  0
 21 22  1  0  0  0  0
M  CHG  1   3   1
M  END
> <s_m_source_file>
AV-unprocessed.smi

> <i_m_source_file_index>
2775

> <i_lp_mmshare_version>
43012

> <i_f3d_flags>
0

> <s_epik_input>
W0NIM11jMW5bY0hdW2NIXWMoYzFDbClbTkhdQyg9TylbTkhdW0NAQEhdMltDQEhdKFtDSDJdW0NIMl1PMylbQ0BASF0zQzI0W0NIMl1bQ0gyXVtDSDJdNA==

> <s_epik_cmdline>
J2VwaWtfcHl0aG9uJywgJy1waCcsICc3LjAnLCAnLXRuJywgJzgnLCAnLW1hJywgJzIwMCcsICctbWV0YWxfYmluZGluZycsICctaW1hZScsICc8aW5maWxlLm1hZT4nLCAnLW9tYWUnLCAnPG91dGZpbGUubWFlPic=

> <r_epik_Ionization_Penalty>
2.4104

> <r_epik_Ionization_Penalty_Charging>
2.41038

> <r_epik_Ionization_Penalty_Neutral>
1.9872e-05

> <r_epik_State_Penalty>
2.56896

> <r_epik_Charging_Adjusted_Penalty>
4.97934

> <i_epik_Tot_Q>
1

> <i_epik_Tot_abs_Q>
1

> <r_epik_Metal_State_Penalty>
2.57906

> <b_epik_Metal_Only>
0

> <s_lp_Force_Field>
OPLS_2005

> <r_lp_Energy>
84.4101

> <b_lp_Chiralities_Consistent>
1

> <s_lp_Variant>
AV-unprocessed.smi:2775-10

> <Gold.Version>
5.8.1

> <Gold.Id.Protein>
6NUR|6NUR_protein|mol2

> <Gold.PLP.Fitness>
40.1247

> <Gold.PLP.PLP>
-32.0750

> <Gold.PLP.part.hbond>
-3.6878

> <Gold.PLP.part.metal>
0.0000

> <Gold.PLP.part.buried>
-4.0104

> <Gold.PLP.part.nonpolar>
-25.3341

> <Gold.PLP.part.repulsive>
0.0956

> <Gold.PLP.ligand.clash>
0.0000

> <Gold.PLP.ligand.torsion>
0.3475

> <Gold.PLP.Chemscore.Hbond>
2.8089

> <Gold.PLP.Chemscore.CHOScore>
0.0000

> <Gold.PLP.Chemscore.Metal>
0.0000

> <Gold.Chemscore.Hbonds>
donor molecule, donor type, donor heavy atom, donor atom, acceptor molecule, acceptor atom, score
      L1  H     7    28       P1  7948  0.86
      L1  H    10    29       P1  7948  1.00
      P1  H  7989  7998       L1    15  1.00

> <Gold.PLP.Chemscore.Internal.Correction>
0.3183

> <Gold.Rescore>
     Score         DG    S(hbond)    S(metal)    S(lipo)     H(rot)  DE(clash)    DE(int)     intcor
     19.81     -22.72       2.86        0.00      87.62       1.00       1.74       1.17       ----

> <Gold.Chemscore.Fitness>
19.8103

> <Gold.Chemscore.DG>
-22.7202

> <Gold.Chemscore.ZeroCoef>
-5.4800

> <Gold.Chemscore.Hbond>
2.8589

> <Gold.Chemscore.Metal>
0.0000

> <Gold.Chemscore.Lipo>
87.6186

> <Gold.Chemscore.Internal_Hbond>
0.0000

> <Gold.Chemscore.DEClash>
1.7375

> <Gold.Chemscore.DEInternal>
1.1723

> <Gold.Chemscore.Rot>
1.0000

> <Gold.Chemscore.Internal.Correction>
   9.000000E+99

> <Gold.Chemscore.Hbonds>
donor molecule, donor type, donor heavy atom, donor atom, acceptor molecule, acceptor atom, score
      L1  H     7    28       P1  7948  0.80
      L1  H    10    29       P1  7948  0.96
      P1  H  7989  7998       L1    15  0.54

> <Gold.Chemscore.Hbond.Weighted>
-9.5488

> <Gold.Chemscore.Metal.Weighted>
-0.0000

> <Gold.Chemscore.Lipo.Weighted>
-10.2514

> <Gold.Chemscore.Internal_Hbond.Weighted>
0.0000

> <Gold.Chemscore.DEClash.Weighted>
1.7375

> <Gold.Chemscore.DEInternal.Weighted>
1.1723

> <Gold.Chemscore.Rot.Weighted>
2.5600

> <Gold.Chemscore.Internal.Correction.Weighted>
   9.000000E+99

> <Gold.Protein.RotatedTorsions>
[ 6907 6896 6895 6894 ] final  109.46 input  -60.11 | X-H torsion
[ 7974 7965 7964 7962 ] final  -31.11 input  175.53 | X-H torsion
[ 8008 7997 7996 7995 ] final    8.44 input   59.86 | X-H torsion
[ 10167 10162 10161 10158 ] final   15.33 input  -65.29 | X-H torsion
[ 10718 10713 10712 10709 ] final -166.77 input   66.30 | X-H torsion
[ 10763 10752 10751 10750 ] final -174.12 input  -60.55 | X-H torsion
[ 11005 11000 10999 10996 ] final -158.31 input  -57.11 | X-H torsion

> <Gold.Protein.ActiveResidues>
 VAL166  LYS551  ARG553  GLY616  TRP617  ASP618  TYR619  PRO620  LYS621  CYS622 
 ASP623  PHE694  ASN695  SER759  ASP760  ASP761  ALA762  ILE779  LEU786  VAL792 
 PHE793  MET794  SER795  GLU796  ALA797  LYS798  CYS799  TRP800  GLU811  SER814 

> <Gold.Protein.RotatedAtoms>
  152.5066  133.8942  159.7408 H   0  0  0  0  0  0  0  0  0  0  0  0  # atno 6907 bound_to 6896
  150.9373  133.6688  159.2805 H   0  0  0  0  0  0  0  0  0  0  0  0  # atno 6908 bound_to 6896
  151.4012  135.0976  159.9609 H   0  0  0  0  0  0  0  0  0  0  0  0  # atno 6909 bound_to 6896
  146.1092  140.5626  142.8785 H   0  0  0  0  0  0  0  0  0  0  0  0  # atno 7974 bound_to 7965
  154.7668  140.2794  155.6169 H   0  0  0  0  0  0  0  0  0  0  0  0  # atno 8008 bound_to 7997
  156.2926  140.2649  156.2388 H   0  0  0  0  0  0  0  0  0  0  0  0  # atno 8009 bound_to 7997
  154.9949  140.0373  157.2325 H   0  0  0  0  0  0  0  0  0  0  0  0  # atno 8010 bound_to 7997
  140.5875  143.8861  150.6843 H   0  0  0  0  0  0  0  0  0  0  0  0  # atno 10167 bound_to 10162
  156.6727  130.9090  151.3046 H   0  0  0  0  0  0  0  0  0  0  0  0  # atno 10718 bound_to 10713
  154.5999  135.2853  155.0546 H   0  0  0  0  0  0  0  0  0  0  0  0  # atno 10763 bound_to 10752
  154.1815  135.6456  153.5039 H   0  0  0  0  0  0  0  0  0  0  0  0  # atno 10764 bound_to 10752
  153.0153  135.5424  154.6714 H   0  0  0  0  0  0  0  0  0  0  0  0  # atno 10765 bound_to 10752
  140.6550  134.4410  157.5235 H   0  0  0  0  0  0  0  0  0  0  0  0  # atno 11005 bound_to 11000
  144.7497  140.5159  143.6811 LP  0  0  0  0  0  0  0  0  0  0  0  0  # atno 17320 bound_to 7965
  145.5698  139.1483  143.3294 LP  0  0  0  0  0  0  0  0  0  0  0  0  # atno 17321 bound_to 7965
  140.2376  143.3688  152.1514 LP  0  0  0  0  0  0  0  0  0  0  0  0  # atno 17342 bound_to 10162
  139.5206  144.7036  151.5422 LP  0  0  0  0  0  0  0  0  0  0  0  0  # atno 17343 bound_to 10162
  157.7071  130.9398  150.0967 LP  0  0  0  0  0  0  0  0  0  0  0  0  # atno 17370 bound_to 10713
  156.1926  130.3655  149.8890 LP  0  0  0  0  0  0  0  0  0  0  0  0  # atno 17371 bound_to 10713
  139.9032  134.8507  156.1809 LP  0  0  0  0  0  0  0  0  0  0  0  0  # atno 17394 bound_to 11000
  141.0508  133.6890  156.1768 LP  0  0  0  0  0  0  0  0  0  0  0  0  # atno 17395 bound_to 11000

$$$$
