AV-unprocessed.smi:2046|AV-procd|sdf|8314|dock5
  -GOLD-   2272010583D 1   1.00000     0.00000
 Structure written by MMmdl.
 29 30  0  0  0  0  0  0  0  0  2 V2000
  150.5404  140.7491  157.4809 O   0  0  0  0  0  0  0  0  0  0  0  0
  150.4562  141.8861  157.0105 C   0  0  0  0  0  0  0  0  0  0  0  0
  151.1021  142.9875  157.4566 N   0  5  0  0  0  0  0  0  0  0  0  0
  151.5495  143.0359  158.7221 C   0  0  0  0  0  0  0  0  0  0  0  0
  151.3095  142.0557  159.6079 N   0  0  0  0  0  0  0  0  0  0  0  0
  151.8569  142.3048  160.8594 N   0  0  0  0  0  0  0  0  0  0  0  0
  152.4919  143.4763  160.8874 C   0  0  0  0  0  0  0  0  0  0  0  0
  152.4750  144.3836  159.3899 S   0  0  0  0  0  0  0  0  0  0  0  0
  149.6670  142.1147  155.9494 N   0  0  0  0  0  0  0  0  0  0  0  0
  148.8591  141.1189  155.2392 C   0  0  1  0  0  0  0  0  0  0  0  0
  148.1049  141.8509  154.1051 C   0  0  0  0  0  0  0  0  0  0  0  0
  146.8416  141.1163  153.6224 C   0  0  0  0  0  0  0  0  0  0  0  0
  147.0949  139.7544  152.9576 C   0  0  0  0  0  0  0  0  0  0  0  0
  147.7379  138.7183  153.8954 C   0  0  0  0  0  0  0  0  0  0  0  0
  149.1669  138.9456  154.0635 N   0  0  0  0  0  0  0  0  0  0  0  0
  149.7519  140.0138  154.6264 C   0  0  0  0  0  0  0  0  0  0  0  0
  150.9789  140.1099  154.6453 O   0  0  0  0  0  0  0  0  0  0  0  0
  152.9697  143.8102  161.7962 H   0  0  0  0  0  0  0  0  0  0  0  0
  149.6341  143.0596  155.5958 H   0  0  0  0  0  0  0  0  0  0  0  0
  148.1465  140.6801  155.9399 H   0  0  0  0  0  0  0  0  0  0  0  0
  147.7854  142.8300  154.4657 H   0  0  0  0  0  0  0  0  0  0  0  0
  148.7686  142.0544  153.2626 H   0  0  0  0  0  0  0  0  0  0  0  0
  146.1561  140.9877  154.4610 H   0  0  0  0  0  0  0  0  0  0  0  0
  146.3206  141.7569  152.9100 H   0  0  0  0  0  0  0  0  0  0  0  0
  146.1368  139.3618  152.6156 H   0  0  0  0  0  0  0  0  0  0  0  0
  147.7034  139.8795  152.0612 H   0  0  0  0  0  0  0  0  0  0  0  0
  147.2361  138.6942  154.8638 H   0  0  0  0  0  0  0  0  0  0  0  0
  147.6208  137.7237  153.4646 H   0  0  0  0  0  0  0  0  0  0  0  0
  149.7788  138.2369  153.6859 H   0  0  0  0  0  0  0  0  0  0  0  0
  1  2  2  0  0  0  0
  2  3  1  0  0  0  0
  2  9  1  0  0  0  0
  3  4  1  0  0  0  0
  4  8  1  0  0  0  0
  4  5  2  0  0  0  0
  5  6  1  0  0  0  0
  6  7  2  0  0  0  0
  7  8  1  0  0  0  0
  7 18  1  0  0  0  0
  9 10  1  0  0  0  0
  9 19  1  0  0  0  0
 10 16  1  0  0  0  0
 10 11  1  0  0  0  0
 10 20  1  0  0  0  0
 11 12  1  0  0  0  0
 11 21  1  0  0  0  0
 11 22  1  0  0  0  0
 12 13  1  0  0  0  0
 12 23  1  0  0  0  0
 12 24  1  0  0  0  0
 13 14  1  0  0  0  0
 13 25  1  0  0  0  0
 13 26  1  0  0  0  0
 14 15  1  0  0  0  0
 14 27  1  0  0  0  0
 14 28  1  0  0  0  0
 15 16  1  0  0  0  0
 15 29  1  0  0  0  0
 16 17  2  0  0  0  0
M  CHG  1   3  -1
M  END
> <s_m_source_file>
AV-unprocessed.smi

> <i_m_source_file_index>
2046

> <i_lp_mmshare_version>
43012

> <i_f3d_flags>
0

> <s_epik_input>
czFbY0hdbm5jMVtOSF1DKD1PKVtOSF1bQ0BASF0yW0NIMl1bQ0gyXVtDSDJdW0NIMl1bTkhdQzI9Tw==

> <s_epik_cmdline>
J2VwaWtfcHl0aG9uJywgJy1waCcsICc3LjAnLCAnLXRuJywgJzgnLCAnLW1hJywgJzIwMCcsICctbWV0YWxfYmluZGluZycsICctaW1hZScsICc8aW5maWxlLm1hZT4nLCAnLW9tYWUnLCAnPG91dGZpbGUubWFlPic=

> <r_lp_tautomer_probability>
1

> <r_epik_Ionization_Penalty>
4.05949

> <r_epik_Ionization_Penalty_Charging>
4.01916

> <r_epik_Ionization_Penalty_Neutral>
0.0403285

> <r_epik_State_Penalty>
4.01849

> <r_epik_Charging_Adjusted_Penalty>
8.03765

> <i_epik_Tot_Q>
-1

> <i_epik_Tot_abs_Q>
1

> <r_epik_Metal_State_Penalty>
0.626741

> <b_epik_Metal_Only>
1

> <s_lp_Force_Field>
OPLS_2005

> <r_lp_Energy>
8.7811

> <b_lp_Chiralities_Consistent>
1

> <s_lp_Variant>
AV-unprocessed.smi:2046-4

> <Gold.Version>
5.8.1

> <Gold.Id.Protein>
6NUR|6NUR_protein|mol2

> <Gold.PLP.Fitness>
38.9213

> <Gold.PLP.PLP>
-32.9039

> <Gold.PLP.part.hbond>
-4.5105

> <Gold.PLP.part.metal>
0.0000

> <Gold.PLP.part.buried>
-4.8892

> <Gold.PLP.part.nonpolar>
-24.5317

> <Gold.PLP.part.repulsive>
0.4358

> <Gold.PLP.ligand.clash>
0.0000

> <Gold.PLP.ligand.torsion>
0.1147

> <Gold.PLP.Chemscore.Hbond>
2.0805

> <Gold.PLP.Chemscore.CHOScore>
0.0000

> <Gold.PLP.Chemscore.Metal>
0.0000

> <Gold.Chemscore.Hbonds>
donor molecule, donor type, donor heavy atom, donor atom, acceptor molecule, acceptor atom, score
      L1  H     9    19       P1  8028  0.98
      P1  H  6933  6945       L1     6  0.09
      P1  H  7989  7998       L1    17  0.98

> <Gold.PLP.Chemscore.Internal.Correction>
0.0053

> <Gold.Rescore>
     Score         DG    S(hbond)    S(metal)    S(lipo)     H(rot)  DE(clash)    DE(int)     intcor
     14.56     -16.38       2.08        0.00      55.61       1.00       0.00       1.81       ----

> <Gold.Chemscore.Fitness>
14.5637

> <Gold.Chemscore.DG>
-16.3781

> <Gold.Chemscore.ZeroCoef>
-5.4800

> <Gold.Chemscore.Hbond>
2.0813

> <Gold.Chemscore.Metal>
0.0000

> <Gold.Chemscore.Lipo>
55.6110

> <Gold.Chemscore.Internal_Hbond>
0.0000

> <Gold.Chemscore.DEClash>
0.0029

> <Gold.Chemscore.DEInternal>
1.8115

> <Gold.Chemscore.Rot>
1.0000

> <Gold.Chemscore.Internal.Correction>
   9.000000E+99

> <Gold.Chemscore.Hbonds>
donor molecule, donor type, donor heavy atom, donor atom, acceptor molecule, acceptor atom, score
      L1  H     9    19       P1  8028  0.93
      P1  H  6933  6945       L1     6  0.02
      P1  H  7989  7998       L1    17  0.87

> <Gold.Chemscore.Hbond.Weighted>
-6.9517

> <Gold.Chemscore.Metal.Weighted>
-0.0000

> <Gold.Chemscore.Lipo.Weighted>
-6.5065

> <Gold.Chemscore.Internal_Hbond.Weighted>
0.0000

> <Gold.Chemscore.DEClash.Weighted>
0.0029

> <Gold.Chemscore.DEInternal.Weighted>
1.8115

> <Gold.Chemscore.Rot.Weighted>
2.5600

> <Gold.Chemscore.Internal.Correction.Weighted>
   9.000000E+99

> <Gold.Protein.RotatedTorsions>
[ 6907 6896 6895 6894 ] final   29.39 input  -60.11 | X-H torsion
[ 7974 7965 7964 7962 ] final  141.54 input  175.53 | X-H torsion
[ 8008 7997 7996 7995 ] final   88.63 input   59.86 | X-H torsion
[ 10167 10162 10161 10158 ] final   93.13 input  -65.29 | X-H torsion
[ 10718 10713 10712 10709 ] final   64.50 input   66.30 | X-H torsion
[ 10763 10752 10751 10750 ] final -109.92 input  -60.55 | X-H torsion
[ 11005 11000 10999 10996 ] final  142.10 input  -57.11 | X-H torsion

> <Gold.Protein.ActiveResidues>
 VAL166  LYS551  ARG553  GLY616  TRP617  ASP618  TYR619  PRO620  LYS621  CYS622 
 ASP623  PHE694  ASN695  SER759  ASP760  ASP761  ALA762  ILE779  LEU786  VAL792 
 PHE793  MET794  SER795  GLU796  ALA797  LYS798  CYS799  TRP800  GLU811  SER814 

> <Gold.Protein.RotatedAtoms>
  152.0308  134.9768  160.0572 H   0  0  0  0  0  0  0  0  0  0  0  0  # atno 6907 bound_to 6896
  152.1246  133.4368  159.4700 H   0  0  0  0  0  0  0  0  0  0  0  0  # atno 6908 bound_to 6896
  150.6851  134.2413  159.4517 H   0  0  0  0  0  0  0  0  0  0  0  0  # atno 6909 bound_to 6896
  144.9087  139.5323  143.5719 H   0  0  0  0  0  0  0  0  0  0  0  0  # atno 7974 bound_to 7965
  155.9901  140.3369  155.6745 H   0  0  0  0  0  0  0  0  0  0  0  0  # atno 8008 bound_to 7997
  155.6432  140.0697  157.2629 H   0  0  0  0  0  0  0  0  0  0  0  0  # atno 8009 bound_to 7997
  154.4217  140.1739  156.1582 H   0  0  0  0  0  0  0  0  0  0  0  0  # atno 8010 bound_to 7997
  139.8209  144.6731  150.9520 H   0  0  0  0  0  0  0  0  0  0  0  0  # atno 10167 bound_to 10162
  157.6044  130.9163  149.9854 H   0  0  0  0  0  0  0  0  0  0  0  0  # atno 10718 bound_to 10713
  154.8220  135.4583  154.0806 H   0  0  0  0  0  0  0  0  0  0  0  0  # atno 10763 bound_to 10752
  153.2152  135.6887  153.8073 H   0  0  0  0  0  0  0  0  0  0  0  0  # atno 10764 bound_to 10752
  153.7510  135.3298  155.3298 H   0  0  0  0  0  0  0  0  0  0  0  0  # atno 10765 bound_to 10752
  140.0451  134.9285  157.0915 H   0  0  0  0  0  0  0  0  0  0  0  0  # atno 11005 bound_to 11000
  146.3147  139.7876  142.8992 LP  0  0  0  0  0  0  0  0  0  0  0  0  # atno 17320 bound_to 7965
  145.3491  141.0304  143.3348 LP  0  0  0  0  0  0  0  0  0  0  0  0  # atno 17321 bound_to 7965
  140.7813  143.4092  151.1020 LP  0  0  0  0  0  0  0  0  0  0  0  0  # atno 17342 bound_to 10162
  139.7753  143.8435  152.3128 LP  0  0  0  0  0  0  0  0  0  0  0  0  # atno 17343 bound_to 10162
  156.1126  130.3649  150.0023 LP  0  0  0  0  0  0  0  0  0  0  0  0  # atno 17370 bound_to 10713
  156.8119  130.9327  151.3644 LP  0  0  0  0  0  0  0  0  0  0  0  0  # atno 17371 bound_to 10713
  140.4007  134.2086  155.7163 LP  0  0  0  0  0  0  0  0  0  0  0  0  # atno 17394 bound_to 11000
  141.1903  133.8220  157.0925 LP  0  0  0  0  0  0  0  0  0  0  0  0  # atno 17395 bound_to 11000

$$$$
