AV-unprocessed.smi:1658|AV-procd|sdf|6648|dock1
  -GOLD-   22720 7353D 1   1.00000     0.00000
 Structure written by MMmdl.
 46 47  0  0  0  0  0  0  0  0  1 V2000
  153.5900  142.3080  162.6357 C   0  0  0  0  0  0  0  0  0  0  0  0
  152.8087  143.4228  162.2202 O   0  0  0  0  0  0  0  0  0  0  0  0
  152.2085  143.3763  160.9787 C   0  0  0  0  0  0  0  0  0  0  0  0
  151.8916  144.5907  160.3378 C   0  0  0  0  0  0  0  0  0  0  0  0
  151.2752  144.5523  159.0724 C   0  0  0  0  0  0  0  0  0  0  0  0
  150.9876  143.2953  158.4903 C   0  0  0  0  0  0  0  0  0  0  0  0
  150.3885  143.1296  157.2131 N   0  0  0  0  0  0  0  0  0  0  0  0
  150.0800  141.9833  156.5835 C   0  0  0  0  0  0  0  0  0  0  0  0
  150.3127  140.8536  157.0133 O   0  0  0  0  0  0  0  0  0  0  0  0
  149.5034  142.2254  155.3985 N   0  0  0  0  0  0  0  0  0  0  0  0
  149.0889  141.2168  154.4234 C   0  0  0  0  0  0  0  0  0  0  0  0
  147.5426  141.0487  154.3679 C   0  0  0  0  0  0  0  0  0  0  0  0
  146.9710  142.4193  153.9240 C   0  0  0  0  0  0  0  0  0  0  0  0
  147.2331  140.0361  153.2387 C   0  0  0  0  0  0  0  0  0  0  0  0
  146.9859  140.6378  155.6882 N   0  0  0  0  0  0  0  0  0  0  0  0
  147.6976  139.5336  156.3428 C   0  0  0  0  0  0  0  0  0  0  0  0
  147.0032  139.0842  157.6399 C   0  0  0  0  0  0  0  0  0  0  0  0
  146.8751  140.1907  158.5243 O   0  0  0  0  0  0  0  0  0  0  0  0
  146.1369  141.2613  157.9491 C   0  0  0  0  0  0  0  0  0  0  0  0
  146.8251  141.7296  156.6561 C   0  0  0  0  0  0  0  0  0  0  0  0
  151.3607  142.1387  159.2055 C   0  0  0  0  0  0  0  0  0  0  0  0
  151.9501  142.1682  160.4193 N   0  0  0  0  0  0  0  0  0  0  0  0
  153.9849  142.4963  163.6338 H   0  0  0  0  0  0  0  0  0  0  0  0
  154.4385  142.1449  161.9695 H   0  0  0  0  0  0  0  0  0  0  0  0
  152.9917  141.3970  162.6840 H   0  0  0  0  0  0  0  0  0  0  0  0
  152.1210  145.5358  160.8071 H   0  0  0  0  0  0  0  0  0  0  0  0
  151.0500  145.4803  158.5698 H   0  0  0  0  0  0  0  0  0  0  0  0
  150.2321  143.9802  156.6923 H   0  0  0  0  0  0  0  0  0  0  0  0
  149.3659  143.1885  155.1289 H   0  0  0  0  0  0  0  0  0  0  0  0
  149.4719  141.4572  153.4300 H   0  0  0  0  0  0  0  0  0  0  0  0
  149.5790  140.2785  154.6813 H   0  0  0  0  0  0  0  0  0  0  0  0
  147.5026  142.8124  153.0564 H   0  0  0  0  0  0  0  0  0  0  0  0
  147.0489  143.1647  154.7164 H   0  0  0  0  0  0  0  0  0  0  0  0
  145.9222  142.3556  153.6338 H   0  0  0  0  0  0  0  0  0  0  0  0
  147.6405  140.3771  152.2861 H   0  0  0  0  0  0  0  0  0  0  0  0
  146.1625  139.8982  153.0889 H   0  0  0  0  0  0  0  0  0  0  0  0
  147.6700  139.0567  153.4327 H   0  0  0  0  0  0  0  0  0  0  0  0
  147.7612  138.6680  155.6859 H   0  0  0  0  0  0  0  0  0  0  0  0
  148.7198  139.8301  156.5778 H   0  0  0  0  0  0  0  0  0  0  0  0
  146.0191  138.6637  157.4262 H   0  0  0  0  0  0  0  0  0  0  0  0
  147.5850  138.3033  158.1296 H   0  0  0  0  0  0  0  0  0  0  0  0
  145.1132  140.9416  157.7476 H   0  0  0  0  0  0  0  0  0  0  0  0
  146.0812  142.0808  158.6656 H   0  0  0  0  0  0  0  0  0  0  0  0
  147.7965  142.1539  156.9105 H   0  0  0  0  0  0  0  0  0  0  0  0
  146.2269  142.5368  156.2380 H   0  0  0  0  0  0  0  0  0  0  0  0
  151.1752  141.1566  158.7950 H   0  0  0  0  0  0  0  0  0  0  0  0
  1  2  1  0  0  0  0
  1 23  1  0  0  0  0
  1 24  1  0  0  0  0
  1 25  1  0  0  0  0
  2  3  1  0  0  0  0
  3 22  1  0  0  0  0
  3  4  2  0  0  0  0
  4  5  1  0  0  0  0
  4 26  1  0  0  0  0
  5  6  2  0  0  0  0
  5 27  1  0  0  0  0
  6  7  1  0  0  0  0
  6 21  1  0  0  0  0
  7  8  1  0  0  0  0
  7 28  1  0  0  0  0
  8  9  2  0  0  0  0
  8 10  1  0  0  0  0
 10 11  1  0  0  0  0
 10 29  1  0  0  0  0
 11 12  1  0  0  0  0
 11 30  1  0  0  0  0
 11 31  1  0  0  0  0
 12 13  1  0  0  0  0
 12 14  1  0  0  0  0
 12 15  1  0  0  0  0
 13 32  1  0  0  0  0
 13 33  1  0  0  0  0
 13 34  1  0  0  0  0
 14 35  1  0  0  0  0
 14 36  1  0  0  0  0
 14 37  1  0  0  0  0
 15 20  1  0  0  0  0
 15 16  1  0  0  0  0
 16 17  1  0  0  0  0
 16 38  1  0  0  0  0
 16 39  1  0  0  0  0
 17 18  1  0  0  0  0
 17 40  1  0  0  0  0
 17 41  1  0  0  0  0
 18 19  1  0  0  0  0
 19 20  1  0  0  0  0
 19 42  1  0  0  0  0
 19 43  1  0  0  0  0
 20 44  1  0  0  0  0
 20 45  1  0  0  0  0
 21 22  2  0  0  0  0
 21 46  1  0  0  0  0
M  END
> <s_m_source_file>
AV-unprocessed.smi

> <i_m_source_file_index>
1658

> <i_lp_mmshare_version>
43012

> <i_f3d_flags>
0

> <s_epik_input>
W0NIM11PYzFbY0hdW2NIXWMoW2NIXW4xKVtOSF1DKD1PKVtOSF1bQ0gyXUMoW0NIM10pKFtDSDNdKU4yW0NIMl1bQ0gyXU9bQ0gyXVtDSDJdMg==

> <s_epik_cmdline>
J2VwaWtfcHl0aG9uJywgJy1waCcsICc3LjAnLCAnLXRuJywgJzgnLCAnLW1hJywgJzIwMCcsICctbWV0YWxfYmluZGluZycsICctaW1hZScsICc8aW5maWxlLm1hZT4nLCAnLW9tYWUnLCAnPG91dGZpbGUubWFlPic=

> <r_lp_tautomer_probability>
1

> <r_epik_Ionization_Penalty>
0.266086

> <r_epik_Ionization_Penalty_Charging>
0

> <r_epik_Ionization_Penalty_Neutral>
0.266086

> <r_epik_State_Penalty>
0.257924

> <r_epik_Charging_Adjusted_Penalty>
0.257924

> <i_epik_Tot_Q>
0

> <i_epik_Tot_abs_Q>
0

> <r_epik_Metal_State_Penalty>
0.257921

> <b_epik_Metal_Only>
0

> <s_lp_Force_Field>
OPLS_2005

> <r_lp_Energy>
44.8547

> <b_lp_Chiralities_Consistent>
1

> <s_lp_Variant>
AV-unprocessed.smi:1658-1

> <Gold.Version>
5.8.1

> <Gold.Id.Protein>
6NUR|6NUR_protein|mol2

> <Gold.PLP.Fitness>
42.4177

> <Gold.PLP.PLP>
-38.8296

> <Gold.PLP.part.hbond>
-3.5099

> <Gold.PLP.part.metal>
0.0000

> <Gold.PLP.part.buried>
-4.8017

> <Gold.PLP.part.nonpolar>
-30.7127

> <Gold.PLP.part.repulsive>
0.4235

> <Gold.PLP.ligand.clash>
0.0457

> <Gold.PLP.ligand.torsion>
0.8531

> <Gold.PLP.Chemscore.Hbond>
1.7280

> <Gold.PLP.Chemscore.CHOScore>
0.0000

> <Gold.PLP.Chemscore.Metal>
0.0000

> <Gold.Chemscore.Hbonds>
donor molecule, donor type, donor heavy atom, donor atom, acceptor molecule, acceptor atom, score
      L1  H     7    28       P1  8028  0.77
      L1  H    10    29       P1  8028  0.93

> <Gold.PLP.Chemscore.Internal.Correction>
0.1559

> <Gold.Rescore>
     Score         DG    S(hbond)    S(metal)    S(lipo)     H(rot)  DE(clash)    DE(int)     intcor
     12.72     -16.74       1.72        0.00      84.32       1.70       0.08       3.94       ----

> <Gold.Chemscore.Fitness>
12.7158

> <Gold.Chemscore.DG>
-16.7363

> <Gold.Chemscore.ZeroCoef>
-5.4800

> <Gold.Chemscore.Hbond>
1.7212

> <Gold.Chemscore.Metal>
0.0000

> <Gold.Chemscore.Lipo>
84.3216

> <Gold.Chemscore.Internal_Hbond>
0.0000

> <Gold.Chemscore.DEClash>
0.0794

> <Gold.Chemscore.DEInternal>
3.9411

> <Gold.Chemscore.Rot>
1.7024

> <Gold.Chemscore.Internal.Correction>
   9.000000E+99

> <Gold.Chemscore.Hbonds>
donor molecule, donor type, donor heavy atom, donor atom, acceptor molecule, acceptor atom, score
      L1  H     7    28       P1  8028  0.78
      L1  H    10    29       P1  8028  0.89
      P1  H  6934  6946       L1    18  0.01

> <Gold.Chemscore.Hbond.Weighted>
-5.7489

> <Gold.Chemscore.Metal.Weighted>
-0.0000

> <Gold.Chemscore.Lipo.Weighted>
-9.8656

> <Gold.Chemscore.Internal_Hbond.Weighted>
0.0000

> <Gold.Chemscore.DEClash.Weighted>
0.0794

> <Gold.Chemscore.DEInternal.Weighted>
3.9411

> <Gold.Chemscore.Rot.Weighted>
4.3583

> <Gold.Chemscore.Internal.Correction.Weighted>
   9.000000E+99

> <Gold.Protein.RotatedTorsions>
[ 6907 6896 6895 6894 ] final   37.79 input  -60.11 | X-H torsion
[ 7974 7965 7964 7962 ] final -163.22 input  175.53 | X-H torsion
[ 8008 7997 7996 7995 ] final   57.04 input   59.86 | X-H torsion
[ 10167 10162 10161 10158 ] final   12.08 input  -65.29 | X-H torsion
[ 10718 10713 10712 10709 ] final  161.48 input   66.30 | X-H torsion
[ 10763 10752 10751 10750 ] final -155.36 input  -60.55 | X-H torsion
[ 11005 11000 10999 10996 ] final   11.80 input  -57.11 | X-H torsion

> <Gold.Protein.ActiveResidues>
 VAL166  LYS551  ARG553  GLY616  TRP617  ASP618  TYR619  PRO620  LYS621  CYS622 
 ASP623  PHE694  ASN695  SER759  ASP760  ASP761  ALA762  ILE779  LEU786  VAL792 
 PHE793  MET794  SER795  GLU796  ALA797  LYS798  CYS799  TRP800  GLU811  SER814 

> <Gold.Protein.RotatedAtoms>
  152.1479  134.9012  160.0549 H   0  0  0  0  0  0  0  0  0  0  0  0  # atno 6907 bound_to 6896
  152.0055  133.3836  159.4207 H   0  0  0  0  0  0  0  0  0  0  0  0  # atno 6908 bound_to 6896
  150.6872  134.3710  159.5036 H   0  0  0  0  0  0  0  0  0  0  0  0  # atno 6909 bound_to 6896
  144.7333  140.3139  143.6183 H   0  0  0  0  0  0  0  0  0  0  0  0  # atno 7974 bound_to 7965
  155.5273  140.3481  155.4419 H   0  0  0  0  0  0  0  0  0  0  0  0  # atno 8008 bound_to 7997
  156.0743  140.1370  156.9818 H   0  0  0  0  0  0  0  0  0  0  0  0  # atno 8009 bound_to 7997
  154.4544  140.0959  156.6691 H   0  0  0  0  0  0  0  0  0  0  0  0  # atno 8010 bound_to 7997
  140.6091  143.8446  150.7045 H   0  0  0  0  0  0  0  0  0  0  0  0  # atno 10167 bound_to 10162
  157.1359  131.0528  151.2350 H   0  0  0  0  0  0  0  0  0  0  0  0  # atno 10718 bound_to 10713
  154.7793  135.3169  154.8025 H   0  0  0  0  0  0  0  0  0  0  0  0  # atno 10763 bound_to 10752
  153.8740  135.6841  153.4776 H   0  0  0  0  0  0  0  0  0  0  0  0  # atno 10764 bound_to 10752
  153.1425  135.4733  154.9453 H   0  0  0  0  0  0  0  0  0  0  0  0  # atno 10765 bound_to 10752
  140.4991  134.0764  155.7789 H   0  0  0  0  0  0  0  0  0  0  0  0  # atno 11005 bound_to 11000
  145.7637  139.1833  143.2252 LP  0  0  0  0  0  0  0  0  0  0  0  0  # atno 17320 bound_to 7965
  146.0966  140.7593  142.9569 LP  0  0  0  0  0  0  0  0  0  0  0  0  # atno 17321 bound_to 7965
  140.2010  143.3959  152.1791 LP  0  0  0  0  0  0  0  0  0  0  0  0  # atno 17342 bound_to 10162
  139.5347  144.7197  151.4934 LP  0  0  0  0  0  0  0  0  0  0  0  0  # atno 17343 bound_to 10162
  157.4351  130.7512  149.7022 LP  0  0  0  0  0  0  0  0  0  0  0  0  # atno 17370 bound_to 10713
  155.9798  130.4036  150.3564 LP  0  0  0  0  0  0  0  0  0  0  0  0  # atno 17371 bound_to 10713
  141.1445  133.9080  157.2249 LP  0  0  0  0  0  0  0  0  0  0  0  0  # atno 17394 bound_to 11000
  139.9724  135.0124  156.9545 LP  0  0  0  0  0  0  0  0  0  0  0  0  # atno 17395 bound_to 11000

$$$$
