AV-unprocessed.smi:2890|AV-procd|sdf|11116|dock7
  -GOLD-   2272015583D 1   1.00000     0.00000
 Structure written by MMmdl.
 38 39  0  0  0  0  0  0  0  0  1 V2000
  152.4935  139.1327  155.2163 C   0  0  0  0  0  0  0  0  0  0  0  0
  151.4518  139.5542  156.2582 C   0  0  0  0  0  0  0  0  0  0  0  0
  152.0820  140.2415  157.4386 C   0  0  0  0  0  0  0  0  0  0  0  0
  153.1586  139.7150  157.9981 N   0  0  0  0  0  0  0  0  0  0  0  0
  153.4994  140.5675  159.0520 O   0  0  0  0  0  0  0  0  0  0  0  0
  152.6020  141.5852  159.0891 C   0  0  0  0  0  0  0  0  0  0  0  0
  152.7983  142.6101  160.1569 C   0  0  0  0  0  0  0  0  0  0  0  0
  152.5159  144.0377  159.6786 C   0  0  0  0  0  0  0  0  0  0  0  0
  151.6711  141.4368  158.0972 C   0  0  0  0  0  0  0  0  0  0  0  0
  150.4930  142.3207  157.7742 C   0  0  0  0  0  0  0  0  0  0  0  0
  149.3437  141.4738  157.2280 C   0  0  0  0  0  0  0  0  0  0  0  0
  149.0402  140.4178  157.7817 O   0  0  0  0  0  0  0  0  0  0  0  0
  148.7118  141.9498  156.1436 N   0  0  0  0  0  0  0  0  0  0  0  0
  147.5678  141.3223  155.4900 C   0  0  0  0  0  0  0  0  0  0  0  0
  146.4115  141.1234  156.3857 C   0  0  0  0  0  0  0  0  0  0  0  0
  145.5047  140.9678  157.0871 N   0  0  0  0  0  0  0  0  0  0  0  0
  147.2051  142.0088  154.1633 C   0  0  0  0  0  0  0  0  0  0  0  0
  146.9688  140.6095  153.5795 C   0  0  0  0  0  0  0  0  0  0  0  0
  147.9358  140.0860  154.6493 C   0  0  0  0  0  0  0  0  0  0  0  0
  152.0180  138.6350  154.3710 H   0  0  0  0  0  0  0  0  0  0  0  0
  153.2197  138.4412  155.6449 H   0  0  0  0  0  0  0  0  0  0  0  0
  153.0379  139.9953  154.8312 H   0  0  0  0  0  0  0  0  0  0  0  0
  150.7194  140.2129  155.7900 H   0  0  0  0  0  0  0  0  0  0  0  0
  150.8948  138.6770  156.5877 H   0  0  0  0  0  0  0  0  0  0  0  0
  152.1497  142.3766  161.0015 H   0  0  0  0  0  0  0  0  0  0  0  0
  153.8186  142.5527  160.5365 H   0  0  0  0  0  0  0  0  0  0  0  0
  152.6720  144.7556  160.4840 H   0  0  0  0  0  0  0  0  0  0  0  0
  151.4864  144.1421  159.3344 H   0  0  0  0  0  0  0  0  0  0  0  0
  153.1748  144.3125  158.8545 H   0  0  0  0  0  0  0  0  0  0  0  0
  150.1461  142.8670  158.6517 H   0  0  0  0  0  0  0  0  0  0  0  0
  150.7604  143.0781  157.0363 H   0  0  0  0  0  0  0  0  0  0  0  0
  149.0306  142.8269  155.7585 H   0  0  0  0  0  0  0  0  0  0  0  0
  146.3180  142.6422  154.2000 H   0  0  0  0  0  0  0  0  0  0  0  0
  148.0455  142.5219  153.6916 H   0  0  0  0  0  0  0  0  0  0  0  0
  145.9457  140.2547  153.7166 H   0  0  0  0  0  0  0  0  0  0  0  0
  147.3097  140.4776  152.5521 H   0  0  0  0  0  0  0  0  0  0  0  0
  148.9733  140.0800  154.3097 H   0  0  0  0  0  0  0  0  0  0  0  0
  147.6525  139.1301  155.0912 H   0  0  0  0  0  0  0  0  0  0  0  0
  1  2  1  0  0  0  0
  1 20  1  0  0  0  0
  1 21  1  0  0  0  0
  1 22  1  0  0  0  0
  2  3  1  0  0  0  0
  2 23  1  0  0  0  0
  2 24  1  0  0  0  0
  3  9  1  0  0  0  0
  3  4  2  0  0  0  0
  4  5  1  0  0  0  0
  5  6  1  0  0  0  0
  6  7  1  0  0  0  0
  6  9  2  0  0  0  0
  7  8  1  0  0  0  0
  7 25  1  0  0  0  0
  7 26  1  0  0  0  0
  8 27  1  0  0  0  0
  8 28  1  0  0  0  0
  8 29  1  0  0  0  0
  9 10  1  0  0  0  0
 10 11  1  0  0  0  0
 10 30  1  0  0  0  0
 10 31  1  0  0  0  0
 11 12  2  0  0  0  0
 11 13  1  0  0  0  0
 13 14  1  0  0  0  0
 13 32  1  0  0  0  0
 14 19  1  0  0  0  0
 14 15  1  0  0  0  0
 14 17  1  0  0  0  0
 15 16  3  0  0  0  0
 17 18  1  0  0  0  0
 17 33  1  0  0  0  0
 17 34  1  0  0  0  0
 18 19  1  0  0  0  0
 18 35  1  0  0  0  0
 18 36  1  0  0  0  0
 19 37  1  0  0  0  0
 19 38  1  0  0  0  0
M  END
> <s_m_source_file>
AV-unprocessed.smi

> <i_m_source_file_index>
2890

> <i_lp_mmshare_version>
43012

> <i_f3d_flags>
0

> <s_epik_input>
W0NIM11bQ0gyXWMxbm9jKFtDSDJdW0NIM10pYzFbQ0gyXUMoPU8pW05IXUMyKEMjTilbQ0gyXVtDSDJdW0NIMl0y

> <s_epik_cmdline>
J2VwaWtfcHl0aG9uJywgJy1waCcsICc3LjAnLCAnLXRuJywgJzgnLCAnLW1hJywgJzIwMCcsICctbWV0YWxfYmluZGluZycsICctaW1hZScsICc8aW5maWxlLm1hZT4nLCAnLW9tYWUnLCAnPG91dGZpbGUubWFlPic=

> <r_lp_tautomer_probability>
1

> <r_epik_Ionization_Penalty>
5.40968e-07

> <r_epik_Ionization_Penalty_Charging>
0

> <r_epik_Ionization_Penalty_Neutral>
5.40968e-07

> <r_epik_State_Penalty>
-0

> <r_epik_Charging_Adjusted_Penalty>
0

> <i_epik_Tot_Q>
0

> <i_epik_Tot_abs_Q>
0

> <r_epik_Metal_State_Penalty>
-0

> <b_epik_Metal_Only>
0

> <s_lp_Force_Field>
OPLS_2005

> <r_lp_Energy>
4.95517

> <b_lp_Chiralities_Consistent>
1

> <s_lp_Variant>
AV-unprocessed.smi:2890-1

> <Gold.Version>
5.8.1

> <Gold.Id.Protein>
6NUR|6NUR_protein|mol2

> <Gold.PLP.Fitness>
38.7138

> <Gold.PLP.PLP>
-35.0773

> <Gold.PLP.part.hbond>
-2.5549

> <Gold.PLP.part.metal>
0.0000

> <Gold.PLP.part.buried>
-3.8607

> <Gold.PLP.part.nonpolar>
-29.0262

> <Gold.PLP.part.repulsive>
0.1102

> <Gold.PLP.ligand.clash>
0.0000

> <Gold.PLP.ligand.torsion>
1.1515

> <Gold.PLP.Chemscore.Hbond>
1.8960

> <Gold.PLP.Chemscore.CHOScore>
0.0000

> <Gold.PLP.Chemscore.Metal>
0.0000

> <Gold.Chemscore.Hbonds>
donor molecule, donor type, donor heavy atom, donor atom, acceptor molecule, acceptor atom, score
      L1  H    13    32       P1  8028  0.99
      P1  H  7997  8008       L1     4  0.95

> <Gold.PLP.Chemscore.Internal.Correction>
0.2515

> <Gold.Rescore>
     Score         DG    S(hbond)    S(metal)    S(lipo)     H(rot)  DE(clash)    DE(int)     intcor
     14.80     -16.40       1.55        0.00      86.70       1.72       0.76       0.83       ----

> <Gold.Chemscore.Fitness>
14.8050

> <Gold.Chemscore.DG>
-16.3980

> <Gold.Chemscore.ZeroCoef>
-5.4800

> <Gold.Chemscore.Hbond>
1.5503

> <Gold.Chemscore.Metal>
0.0000

> <Gold.Chemscore.Lipo>
86.6989

> <Gold.Chemscore.Internal_Hbond>
0.0000

> <Gold.Chemscore.DEClash>
0.7600

> <Gold.Chemscore.DEInternal>
0.8330

> <Gold.Chemscore.Rot>
1.7202

> <Gold.Chemscore.Internal.Correction>
   9.000000E+99

> <Gold.Chemscore.Hbonds>
donor molecule, donor type, donor heavy atom, donor atom, acceptor molecule, acceptor atom, score
      L1  H    13    32       P1  8028  0.93
      P1  H  7997  8008       L1     4  0.12

> <Gold.Chemscore.Hbond.Weighted>
-5.1779

> <Gold.Chemscore.Metal.Weighted>
-0.0000

> <Gold.Chemscore.Lipo.Weighted>
-10.1438

> <Gold.Chemscore.Internal_Hbond.Weighted>
0.0000

> <Gold.Chemscore.DEClash.Weighted>
0.7600

> <Gold.Chemscore.DEInternal.Weighted>
0.8330

> <Gold.Chemscore.Rot.Weighted>
4.4037

> <Gold.Chemscore.Internal.Correction.Weighted>
   9.000000E+99

> <Gold.Protein.RotatedTorsions>
[ 6907 6896 6895 6894 ] final   41.93 input  -60.11 | X-H torsion
[ 7974 7965 7964 7962 ] final   60.19 input  175.53 | X-H torsion
[ 8008 7997 7996 7995 ] final  -76.05 input   59.86 | X-H torsion
[ 10167 10162 10161 10158 ] final  122.45 input  -65.29 | X-H torsion
[ 10718 10713 10712 10709 ] final   98.22 input   66.30 | X-H torsion
[ 10763 10752 10751 10750 ] final -177.71 input  -60.55 | X-H torsion
[ 11005 11000 10999 10996 ] final  -38.84 input  -57.11 | X-H torsion

> <Gold.Protein.ActiveResidues>
 VAL166  LYS551  ARG553  GLY616  TRP617  ASP618  TYR619  PRO620  LYS621  CYS622 
 ASP623  PHE694  ASN695  SER759  ASP760  ASP761  ALA762  ILE779  LEU786  VAL792 
 PHE793  MET794  SER795  GLU796  ALA797  LYS798  CYS799  TRP800  GLU811  SER814 

> <Gold.Protein.RotatedAtoms>
  152.2014  134.8584  160.0507 H   0  0  0  0  0  0  0  0  0  0  0  0  # atno 6907 bound_to 6896
  151.9436  133.3640  159.3982 H   0  0  0  0  0  0  0  0  0  0  0  0  # atno 6908 bound_to 6896
  150.6955  134.4338  159.5304 H   0  0  0  0  0  0  0  0  0  0  0  0  # atno 6909 bound_to 6896
  145.8988  139.3566  143.0605 H   0  0  0  0  0  0  0  0  0  0  0  0  # atno 7974 bound_to 7965
  154.5470  140.0733  156.8606 H   0  0  0  0  0  0  0  0  0  0  0  0  # atno 8008 bound_to 7997
  155.3067  140.3387  155.4227 H   0  0  0  0  0  0  0  0  0  0  0  0  # atno 8009 bound_to 7997
  156.1927  140.1692  156.8045 H   0  0  0  0  0  0  0  0  0  0  0  0  # atno 8010 bound_to 7997
  139.5858  144.7005  151.3414 H   0  0  0  0  0  0  0  0  0  0  0  0  # atno 10167 bound_to 10162
  157.6899  131.0633  150.4763 H   0  0  0  0  0  0  0  0  0  0  0  0  # atno 10718 bound_to 10713
  154.5568  135.2817  155.0957 H   0  0  0  0  0  0  0  0  0  0  0  0  # atno 10763 bound_to 10752
  154.2381  135.6362  153.5201 H   0  0  0  0  0  0  0  0  0  0  0  0  # atno 10764 bound_to 10752
  153.0018  135.5553  154.6150 H   0  0  0  0  0  0  0  0  0  0  0  0  # atno 10765 bound_to 10752
  141.0058  133.6932  156.2107 H   0  0  0  0  0  0  0  0  0  0  0  0  # atno 11005 bound_to 11000
  145.8817  140.9359  143.0598 LP  0  0  0  0  0  0  0  0  0  0  0  0  # atno 17320 bound_to 7965
  144.6734  140.0788  143.7470 LP  0  0  0  0  0  0  0  0  0  0  0  0  # atno 17321 bound_to 7965
  140.7130  143.7342  150.7601 LP  0  0  0  0  0  0  0  0  0  0  0  0  # atno 17342 bound_to 10162
  140.0885  143.4900  152.2491 LP  0  0  0  0  0  0  0  0  0  0  0  0  # atno 17343 bound_to 10162
  156.5098  130.4136  149.6307 LP  0  0  0  0  0  0  0  0  0  0  0  0  # atno 17370 bound_to 10713
  156.3251  130.7301  151.2221 LP  0  0  0  0  0  0  0  0  0  0  0  0  # atno 17371 bound_to 10713
  140.6815  134.4762  157.5589 LP  0  0  0  0  0  0  0  0  0  0  0  0  # atno 17394 bound_to 11000
  139.9062  134.8443  156.1696 LP  0  0  0  0  0  0  0  0  0  0  0  0  # atno 17395 bound_to 11000

$$$$
