AV-unprocessed.smi:1794|AV-procd|sdf|7232|dock9
  -GOLD-   22720 8473D 1   1.00000     0.00000
 Structure written by MMmdl.
 54 56  0  0  0  0  0  0  0  0  1 V2000
  147.0748  139.5479  157.0983 C   0  0  0  0  0  0  0  0  0  0  0  0
  147.9875  140.6403  156.4842 C   0  0  0  0  0  0  0  0  0  0  0  0
  147.2523  141.2090  155.2466 C   0  0  0  0  0  0  0  0  0  0  0  0
  148.0677  141.7824  157.5383 C   0  0  0  0  0  0  0  0  0  0  0  0
  146.7745  142.4320  157.7486 N   0  0  0  0  0  0  0  0  0  0  0  0
  146.2539  142.7857  158.9313 C   0  0  0  0  0  0  0  0  0  0  0  0
  146.8058  142.5764  160.0112 O   0  0  0  0  0  0  0  0  0  0  0  0
  145.0606  143.3809  158.7690 N   0  0  0  0  0  0  0  0  0  0  0  0
  144.1466  143.8367  159.7620 C   0  0  0  0  0  0  0  0  0  0  0  0
  144.2883  143.5417  161.1401 C   0  0  0  0  0  0  0  0  0  0  0  0
  143.3416  144.0467  162.0498 C   0  0  0  0  0  0  0  0  0  0  0  0
  142.2910  144.8381  161.5522 C   0  0  0  0  0  0  0  0  0  0  0  0
  142.1509  145.1425  160.2461 N   0  0  0  0  0  0  0  0  0  0  0  0
  143.0595  144.6573  159.3649 C   0  0  0  0  0  0  0  0  0  0  0  0
  142.8994  144.9960  158.0094 N   0  0  0  0  0  0  0  0  0  0  0  0
  141.6388  145.6244  157.6528 C   0  0  0  0  0  0  0  0  0  0  0  0
  141.8599  146.1927  156.2499 C   0  0  0  0  0  0  0  0  0  0  0  0
  143.3774  146.3901  156.1424 C   0  0  0  0  0  0  0  0  0  0  0  0
  143.9437  145.8417  157.4561 C   0  0  0  0  0  0  0  0  0  0  0  0
  149.3351  140.0923  156.1605 N   0  0  0  0  0  0  0  0  0  0  0  0
  150.4298  141.0687  156.2181 C   0  0  0  0  0  0  0  0  0  0  0  0
  151.8028  140.4119  155.9948 C   0  0  0  0  0  0  0  0  0  0  0  0
  151.8100  139.7294  154.7472 O   0  0  0  0  0  0  0  0  0  0  0  0
  150.8005  138.7305  154.6705 C   0  0  0  0  0  0  0  0  0  0  0  0
  149.4185  139.3711  154.8850 C   0  0  0  0  0  0  0  0  0  0  0  0
  146.1543  139.9747  157.4984 H   0  0  0  0  0  0  0  0  0  0  0  0
  147.5693  139.0223  157.9159 H   0  0  0  0  0  0  0  0  0  0  0  0
  146.7692  138.8024  156.3644 H   0  0  0  0  0  0  0  0  0  0  0  0
  146.2665  141.5887  155.5179 H   0  0  0  0  0  0  0  0  0  0  0  0
  147.0943  140.4535  154.4773 H   0  0  0  0  0  0  0  0  0  0  0  0
  147.7932  142.0386  154.7916 H   0  0  0  0  0  0  0  0  0  0  0  0
  148.4189  141.4098  158.5001 H   0  0  0  0  0  0  0  0  0  0  0  0
  148.8229  142.5107  157.2367 H   0  0  0  0  0  0  0  0  0  0  0  0
  146.2459  142.6512  156.9169 H   0  0  0  0  0  0  0  0  0  0  0  0
  144.7148  143.4218  157.8213 H   0  0  0  0  0  0  0  0  0  0  0  0
  145.1087  142.9527  161.5192 H   0  0  0  0  0  0  0  0  0  0  0  0
  143.4222  143.8360  163.1059 H   0  0  0  0  0  0  0  0  0  0  0  0
  141.5478  145.2443  162.2221 H   0  0  0  0  0  0  0  0  0  0  0  0
  140.8204  144.9040  157.6702 H   0  0  0  0  0  0  0  0  0  0  0  0
  141.3976  146.4285  158.3496 H   0  0  0  0  0  0  0  0  0  0  0  0
  141.5279  145.4752  155.4984 H   0  0  0  0  0  0  0  0  0  0  0  0
  141.3047  147.1182  156.0946 H   0  0  0  0  0  0  0  0  0  0  0  0
  143.7680  145.8292  155.2924 H   0  0  0  0  0  0  0  0  0  0  0  0
  143.6475  147.4371  156.0019 H   0  0  0  0  0  0  0  0  0  0  0  0
  144.1721  146.6616  158.1384 H   0  0  0  0  0  0  0  0  0  0  0  0
  144.8604  145.2746  157.2922 H   0  0  0  0  0  0  0  0  0  0  0  0
  150.2846  141.8437  155.4652 H   0  0  0  0  0  0  0  0  0  0  0  0
  150.4574  141.5674  157.1850 H   0  0  0  0  0  0  0  0  0  0  0  0
  152.5884  141.1676  155.9915 H   0  0  0  0  0  0  0  0  0  0  0  0
  152.0328  139.7146  156.8020 H   0  0  0  0  0  0  0  0  0  0  0  0
  150.8476  138.2515  153.6925 H   0  0  0  0  0  0  0  0  0  0  0  0
  150.9868  137.9561  155.4163 H   0  0  0  0  0  0  0  0  0  0  0  0
  148.6753  138.5774  154.8374 H   0  0  0  0  0  0  0  0  0  0  0  0
  149.2142  140.0474  154.0548 H   0  0  0  0  0  0  0  0  0  0  0  0
  1  2  1  0  0  0  0
  1 26  1  0  0  0  0
  1 27  1  0  0  0  0
  1 28  1  0  0  0  0
  2  3  1  0  0  0  0
  2  4  1  0  0  0  0
  2 20  1  0  0  0  0
  3 29  1  0  0  0  0
  3 30  1  0  0  0  0
  3 31  1  0  0  0  0
  4  5  1  0  0  0  0
  4 32  1  0  0  0  0
  4 33  1  0  0  0  0
  5  6  1  0  0  0  0
  5 34  1  0  0  0  0
  6  7  2  0  0  0  0
  6  8  1  0  0  0  0
  8  9  1  0  0  0  0
  8 35  1  0  0  0  0
  9 14  1  0  0  0  0
  9 10  2  0  0  0  0
 10 11  1  0  0  0  0
 10 36  1  0  0  0  0
 11 12  2  0  0  0  0
 11 37  1  0  0  0  0
 12 13  1  0  0  0  0
 12 38  1  0  0  0  0
 13 14  2  0  0  0  0
 14 15  1  0  0  0  0
 15 19  1  0  0  0  0
 15 16  1  0  0  0  0
 16 17  1  0  0  0  0
 16 39  1  0  0  0  0
 16 40  1  0  0  0  0
 17 18  1  0  0  0  0
 17 41  1  0  0  0  0
 17 42  1  0  0  0  0
 18 19  1  0  0  0  0
 18 43  1  0  0  0  0
 18 44  1  0  0  0  0
 19 45  1  0  0  0  0
 19 46  1  0  0  0  0
 20 25  1  0  0  0  0
 20 21  1  0  0  0  0
 21 22  1  0  0  0  0
 21 47  1  0  0  0  0
 21 48  1  0  0  0  0
 22 23  1  0  0  0  0
 22 49  1  0  0  0  0
 22 50  1  0  0  0  0
 23 24  1  0  0  0  0
 24 25  1  0  0  0  0
 24 51  1  0  0  0  0
 24 52  1  0  0  0  0
 25 53  1  0  0  0  0
 25 54  1  0  0  0  0
M  END
> <s_m_source_file>
AV-unprocessed.smi

> <i_m_source_file_index>
1794

> <i_lp_mmshare_version>
43012

> <i_f3d_flags>
0

> <s_epik_input>
W0NIMl0xW0NIMl1PW0NIMl1bQ0gyXU4xQyhbQ0gzXSkoW0NIM10pW0NIMl1bTkhdQyg9TylbTkhdYzJbY0hdW2NIXVtjSF1uYzJOM1tDSDJdW0NIMl1bQ0gyXVtDSDJdMw==

> <s_epik_cmdline>
J2VwaWtfcHl0aG9uJywgJy1waCcsICc3LjAnLCAnLXRuJywgJzgnLCAnLW1hJywgJzIwMCcsICctbWV0YWxfYmluZGluZycsICctaW1hZScsICc8aW5maWxlLm1hZT4nLCAnLW9tYWUnLCAnPG91dGZpbGUubWFlPic=

> <r_lp_tautomer_probability>
1

> <r_epik_Ionization_Penalty>
0.366523

> <r_epik_Ionization_Penalty_Charging>
0

> <r_epik_Ionization_Penalty_Neutral>
0.366523

> <r_epik_State_Penalty>
0.351681

> <r_epik_Charging_Adjusted_Penalty>
0.351681

> <i_epik_Tot_Q>
0

> <i_epik_Tot_abs_Q>
0

> <r_epik_Metal_State_Penalty>
0.334668

> <b_epik_Metal_Only>
0

> <s_lp_Force_Field>
OPLS_2005

> <r_lp_Energy>
72.3516

> <b_lp_Chiralities_Consistent>
1

> <s_lp_Variant>
AV-unprocessed.smi:1794-1

> <Gold.Version>
5.8.1

> <Gold.Id.Protein>
6NUR|6NUR_protein|mol2

> <Gold.PLP.Fitness>
35.5306

> <Gold.PLP.PLP>
-30.6572

> <Gold.PLP.part.hbond>
-2.9710

> <Gold.PLP.part.metal>
0.0000

> <Gold.PLP.part.buried>
-4.7651

> <Gold.PLP.part.nonpolar>
-22.9807

> <Gold.PLP.part.repulsive>
0.2440

> <Gold.PLP.ligand.clash>
0.0000

> <Gold.PLP.ligand.torsion>
1.1590

> <Gold.PLP.Chemscore.Hbond>
2.3586

> <Gold.PLP.Chemscore.CHOScore>
0.0000

> <Gold.PLP.Chemscore.Metal>
0.0000

> <Gold.Chemscore.Hbonds>
donor molecule, donor type, donor heavy atom, donor atom, acceptor molecule, acceptor atom, score
      P1  H  6933  6944       L1     7  0.39
      P1  H  6934  6946       L1     7  0.99
      P1  H  7989  7998       L1    23  1.00

> <Gold.PLP.Chemscore.Internal.Correction>
0.1156

> <Gold.Rescore>
     Score         DG    S(hbond)    S(metal)    S(lipo)     H(rot)  DE(clash)    DE(int)     intcor
     14.45     -18.04       2.27        0.00      76.53       1.55       0.27       3.31       ----

> <Gold.Chemscore.Fitness>
14.4548

> <Gold.Chemscore.DG>
-18.0361

> <Gold.Chemscore.ZeroCoef>
-5.4800

> <Gold.Chemscore.Hbond>
2.2658

> <Gold.Chemscore.Metal>
0.0000

> <Gold.Chemscore.Lipo>
76.5291

> <Gold.Chemscore.Internal_Hbond>
0.0000

> <Gold.Chemscore.DEClash>
0.2686

> <Gold.Chemscore.DEInternal>
3.3127

> <Gold.Chemscore.Rot>
1.5491

> <Gold.Chemscore.Internal.Correction>
   9.000000E+99

> <Gold.Chemscore.Hbonds>
donor molecule, donor type, donor heavy atom, donor atom, acceptor molecule, acceptor atom, score
      P1  H  6933  6944       L1     7  0.39
      P1  H  6934  6946       L1     7  0.93
      P1  H  7989  7998       L1    23  0.55

> <Gold.Chemscore.Hbond.Weighted>
-7.5679

> <Gold.Chemscore.Metal.Weighted>
-0.0000

> <Gold.Chemscore.Lipo.Weighted>
-8.9539

> <Gold.Chemscore.Internal_Hbond.Weighted>
0.0000

> <Gold.Chemscore.DEClash.Weighted>
0.2686

> <Gold.Chemscore.DEInternal.Weighted>
3.3127

> <Gold.Chemscore.Rot.Weighted>
3.9657

> <Gold.Chemscore.Internal.Correction.Weighted>
   9.000000E+99

> <Gold.Protein.RotatedTorsions>
[ 6907 6896 6895 6894 ] final -163.90 input  -60.11 | X-H torsion
[ 7974 7965 7964 7962 ] final  -70.56 input  175.53 | X-H torsion
[ 8008 7997 7996 7995 ] final   -4.70 input   59.86 | X-H torsion
[ 10167 10162 10161 10158 ] final -123.22 input  -65.29 | X-H torsion
[ 10718 10713 10712 10709 ] final  169.07 input   66.30 | X-H torsion
[ 10763 10752 10751 10750 ] final -159.74 input  -60.55 | X-H torsion
[ 11005 11000 10999 10996 ] final -139.09 input  -57.11 | X-H torsion

> <Gold.Protein.ActiveResidues>
 VAL166  LYS551  ARG553  GLY616  TRP617  ASP618  TYR619  PRO620  LYS621  CYS622 
 ASP623  PHE694  ASN695  SER759  ASP760  ASP761  ALA762  ILE779  LEU786  VAL792 
 PHE793  MET794  SER795  GLU796  ALA797  LYS798  CYS799  TRP800  GLU811  SER814 

> <Gold.Protein.RotatedAtoms>
  151.4033  133.3750  159.2734 H   0  0  0  0  0  0  0  0  0  0  0  0  # atno 6907 bound_to 6896
  150.9417  134.8827  159.7627 H   0  0  0  0  0  0  0  0  0  0  0  0  # atno 6908 bound_to 6896
  152.5074  134.3984  159.9460 H   0  0  0  0  0  0  0  0  0  0  0  0  # atno 6909 bound_to 6896
  145.6894  140.9158  143.0790 H   0  0  0  0  0  0  0  0  0  0  0  0  # atno 7974 bound_to 7965
  154.6115  140.2477  155.7663 H   0  0  0  0  0  0  0  0  0  0  0  0  # atno 8008 bound_to 7997
  156.2373  140.2945  156.0298 H   0  0  0  0  0  0  0  0  0  0  0  0  # atno 8009 bound_to 7997
  155.2044  140.0395  157.2913 H   0  0  0  0  0  0  0  0  0  0  0  0  # atno 8010 bound_to 7997
  140.0058  143.5492  152.2284 H   0  0  0  0  0  0  0  0  0  0  0  0  # atno 10167 bound_to 10162
  157.0279  131.0251  151.2754 H   0  0  0  0  0  0  0  0  0  0  0  0  # atno 10718 bound_to 10713
  154.7449  135.3077  154.8662 H   0  0  0  0  0  0  0  0  0  0  0  0  # atno 10763 bound_to 10752
  153.9466  135.6768  153.4748 H   0  0  0  0  0  0  0  0  0  0  0  0  # atno 10764 bound_to 10752
  153.1046  135.4895  154.8854 H   0  0  0  0  0  0  0  0  0  0  0  0  # atno 10765 bound_to 10752
  140.8553  134.2235  157.4738 H   0  0  0  0  0  0  0  0  0  0  0  0  # atno 11005 bound_to 11000
  144.7001  139.8802  143.7446 LP  0  0  0  0  0  0  0  0  0  0  0  0  # atno 17320 bound_to 7965
  146.0895  139.3884  143.0414 LP  0  0  0  0  0  0  0  0  0  0  0  0  # atno 17321 bound_to 7965
  139.6239  144.7634  151.2680 LP  0  0  0  0  0  0  0  0  0  0  0  0  # atno 17342 bound_to 10162
  140.7401  143.6599  150.8174 LP  0  0  0  0  0  0  0  0  0  0  0  0  # atno 17343 bound_to 10162
  157.5200  130.7992  149.7798 LP  0  0  0  0  0  0  0  0  0  0  0  0  # atno 17370 bound_to 10713
  156.0079  130.3846  150.2365 LP  0  0  0  0  0  0  0  0  0  0  0  0  # atno 17371 bound_to 10713
  139.8705  134.9703  156.4697 LP  0  0  0  0  0  0  0  0  0  0  0  0  # atno 17394 bound_to 11000
  140.8744  133.7964  155.9399 LP  0  0  0  0  0  0  0  0  0  0  0  0  # atno 17395 bound_to 11000

$$$$
